=
 OpenBabel11052418353D

 34 39  0  0  1  0  0  0  0  0999 V2000
  186.9190  177.6300  145.2980 C   0  0  0  0  0  0  0  0  0  0  0  0
  187.2880  177.9430  142.9120 C   0  0  0  0  0  0  0  0  0  0  0  0
  188.3910  176.0500  144.1600 C   0  0  0  0  0  0  0  0  0  0  0  0
  189.4450  174.0490  143.1900 N   0  0  0  0  0  0  0  0  0  0  0  0
  185.6300  179.2740  144.0840 C   0  0  0  0  0  3  0  0  0  0  0  0
  186.3210  178.9530  142.9180 C   0  0  0  0  0  3  0  0  0  0  0  0
  187.9800  175.0250  141.8230 C   0  0  0  0  0  3  0  0  0  0  0  0
  187.5320  177.1870  144.0920 C   0  0  0  0  0  0  0  0  0  0  0  0
  189.3570  173.2570  142.1120 C   0  0  0  0  0  3  0  0  0  0  0  0
  185.9500  178.6340  145.2770 C   0  0  0  0  0  3  0  0  0  0  0  0
  188.8540  175.6110  145.4240 C   0  0  0  0  0  0  0  0  0  0  0  0
  187.3060  177.1020  146.5280 C   0  0  0  0  0  3  0  0  0  0  0  0
  188.3570  177.9390  141.5130 Cl  0  0  0  0  0  0  0  0  0  0  0  0
  190.0470  173.7020  144.4050 N   0  0  0  0  0  2  0  0  0  0  0  0
  189.9840  174.6080  145.5510 C   0  0  1  0  0  3  0  0  0  0  0  0
  188.4690  173.8630  141.2460 C   0  0  0  0  0  0  0  0  0  0  0  0
  188.6560  175.1230  143.0290 C   0  0  0  0  0  0  0  0  0  0  0  0
  188.2970  176.1290  146.5930 C   0  0  0  0  0  3  0  0  0  0  0  0
  193.3170  176.2940  144.8180 C   0  0  0  0  0  0  0  0  0  0  0  0
  193.7350  176.6320  146.1090 C   0  0  0  0  0  3  0  0  0  0  0  0
  191.2970  175.3050  145.7310 C   0  0  0  0  0  0  0  0  0  0  0  0
  192.9360  176.3090  147.2090 C   0  0  0  0  0  3  0  0  0  0  0  0
  192.1010  175.6330  144.6280 C   0  0  0  0  0  3  0  0  0  0  0  0
  191.7190  175.6480  147.0210 C   0  0  0  0  0  3  0  0  0  0  0  0
  194.0910  176.6070  143.7520 F   0  0  0  0  0  0  0  0  0  0  0  0
  188.0850  173.3430  139.9070 C   0  0  0  0  0  2  0  0  0  0  0  0
  188.9060  173.9770  138.8850 N   0  0  0  0  0  2  0  0  0  0  0  0
  190.3130  173.8050  136.3680 C   0  0  0  0  0  1  0  0  0  0  0  0
  188.3650  174.6250  137.7280 C   0  0  0  0  0  0  0  0  0  0  0  0
  189.0680  174.5480  136.4710 N   0  0  0  0  0  0  0  0  0  0  0  0
  187.7240  176.4130  135.6170 C   0  0  0  0  0  2  0  0  0  0  0  0
  186.6420  176.0250  136.6190 C   0  0  0  0  0  2  0  0  0  0  0  0
  187.2440  175.3550  137.8200 C   0  0  0  0  0  3  0  0  0  0  0  0
  188.5330  175.1710  135.2610 C   0  0  0  0  0  2  0  0  0  0  0  0
  1 12  1  0  0  0  0
  2  6  2  0  0  0  0
  2  8  1  0  0  0  0
  3 11  2  0  0  0  0
  4 14  1  0  0  0  0
  5 10  2  0  0  0  0
  6  5  1  0  0  0  0
  7 17  2  0  0  0  0
  8  3  1  0  0  0  0
  8  1  2  0  0  0  0
  9  4  1  0  0  0  0
 10  1  1  0  0  0  0
 11 15  1  0  0  0  0
 11 18  1  0  0  0  0
 12 18  2  0  0  0  0
 13  2  1  0  0  0  0
 14 15  1  0  0  0  0
 15 21  1  6  0  0  0
 16  7  1  0  0  0  0
 16  9  2  0  0  0  0
 17  4  1  0  0  0  0
 17  3  1  0  0  0  0
 19 20  1  0  0  0  0
 20 22  2  0  0  0  0
 21 24  2  0  0  0  0
 23 19  2  0  0  0  0
 23 21  1  0  0  0  0
 24 22  1  0  0  0  0
 25 19  1  0  0  0  0
 26 16  1  0  0  0  0
 27 26  1  0  0  0  0
 28 30  1  0  0  0  0
 29 33  2  0  0  0  0
 29 27  1  0  0  0  0
 30 29  1  0  0  0  0
 31 32  1  0  0  0  0
 32 33  1  0  0  0  0
 34 31  1  0  0  0  0
 34 30  1  0  0  0  0
M  END
>  <MODEL>
1

>  <REMARK>
 VINA RESULT:      -9.0      0.000      0.000
  Name = 
  4 active torsions:
  status: ('A' for Active; 'I' for Inactive)
    1  A    between atoms: N_3  and  C_13
    2  A    between atoms: N_3  and  C_17
    3  A    between atoms: C_12  and  C_28
    4  A    between atoms: C_17  and  C_29
                            x       y       z     vdW  Elec       q    Type
                         _______ _______ _______ _____ _____    ______ ____

>  <TORSDO>
F 4

$$$$
=
 OpenBabel11052418353D

 34 39  0  0  1  0  0  0  0  0999 V2000
  186.7970  177.5880  145.3700 C   0  0  0  0  0  0  0  0  0  0  0  0
  187.3040  178.0780  143.0410 C   0  0  0  0  0  0  0  0  0  0  0  0
  188.3750  176.1240  144.2200 C   0  0  0  0  0  0  0  0  0  0  0  0
  189.5370  174.2190  143.1810 N   0  0  0  0  0  0  0  0  0  0  0  0
  185.5430  179.2870  144.1950 C   0  0  0  0  0  3  0  0  0  0  0  0
  186.3130  179.0640  143.0560 C   0  0  0  0  0  3  0  0  0  0  0  0
  188.1360  175.2600  141.7960 C   0  0  0  0  0  3  0  0  0  0  0  0
  187.4940  177.2440  144.1780 C   0  0  0  0  0  0  0  0  0  0  0  0
  189.5360  173.5050  142.0470 C   0  0  0  0  0  3  0  0  0  0  0  0
  185.8050  178.5700  145.3590 C   0  0  0  0  0  3  0  0  0  0  0  0
  188.7710  175.6050  145.4780 C   0  0  0  0  0  0  0  0  0  0  0  0
  187.1200  176.9810  146.5830 C   0  0  0  0  0  3  0  0  0  0  0  0
  188.4570  178.1960  141.7150 Cl  0  0  0  0  0  0  0  0  0  0  0  0
  190.0720  173.7990  144.4050 N   0  0  0  0  0  2  0  0  0  0  0  0
  189.9150  174.6190  145.6050 C   0  0  1  0  0  3  0  0  0  0  0  0
  188.6880  174.1520  141.1710 C   0  0  0  0  0  0  0  0  0  0  0  0
  188.7330  175.2860  143.0470 C   0  0  0  0  0  0  0  0  0  0  0  0
  188.1300  176.0270  146.6420 C   0  0  0  0  0  3  0  0  0  0  0  0
  193.2900  176.3350  145.2120 C   0  0  0  0  0  0  0  0  0  0  0  0
  193.5710  176.6790  146.5380 C   0  0  0  0  0  3  0  0  0  0  0  0
  191.1960  175.3290  145.9170 C   0  0  0  0  0  0  0  0  0  0  0  0
  192.6670  176.3500  147.5520 C   0  0  0  0  0  3  0  0  0  0  0  0
  192.1060  175.6620  144.9010 C   0  0  0  0  0  3  0  0  0  0  0  0
  191.4810  175.6780  147.2420 C   0  0  0  0  0  3  0  0  0  0  0  0
  194.1660  176.6540  144.2290 F   0  0  0  0  0  0  0  0  0  0  0  0
  188.4010  173.7220  139.7770 C   0  0  0  0  0  2  0  0  0  0  0  0
  189.6340  173.2840  139.1390 N   0  0  0  0  0  2  0  0  0  0  0  0
  190.6000  170.6610  139.8680 C   0  0  0  0  0  1  0  0  0  0  0  0
  189.6860  172.2500  138.1490 C   0  0  0  0  0  0  0  0  0  0  0  0
  190.1750  170.9410  138.5070 N   0  0  0  0  0  0  0  0  0  0  0  0
  190.4440  170.4030  136.1300 C   0  0  0  0  0  2  0  0  0  0  0  0
  189.3660  171.4380  135.8260 C   0  0  0  0  0  2  0  0  0  0  0  0
  189.3440  172.5080  136.8780 C   0  0  0  0  0  3  0  0  0  0  0  0
  190.2150  169.8510  137.5320 C   0  0  0  0  0  2  0  0  0  0  0  0
  1 12  1  0  0  0  0
  2  6  2  0  0  0  0
  2  8  1  0  0  0  0
  3 11  2  0  0  0  0
  4 14  1  0  0  0  0
  5 10  2  0  0  0  0
  6  5  1  0  0  0  0
  7 17  2  0  0  0  0
  8  3  1  0  0  0  0
  8  1  2  0  0  0  0
  9  4  1  0  0  0  0
 10  1  1  0  0  0  0
 11 15  1  0  0  0  0
 11 18  1  0  0  0  0
 12 18  2  0  0  0  0
 13  2  1  0  0  0  0
 14 15  1  0  0  0  0
 15 21  1  6  0  0  0
 16  7  1  0  0  0  0
 16  9  2  0  0  0  0
 17  4  1  0  0  0  0
 17  3  1  0  0  0  0
 19 20  1  0  0  0  0
 20 22  2  0  0  0  0
 21 24  2  0  0  0  0
 23 19  2  0  0  0  0
 23 21  1  0  0  0  0
 24 22  1  0  0  0  0
 25 19  1  0  0  0  0
 26 16  1  0  0  0  0
 27 26  1  0  0  0  0
 29 30  1  0  0  0  0
 29 27  1  0  0  0  0
 30 28  1  0  0  0  0
 31 34  1  0  0  0  0
 32 31  1  0  0  0  0
 32 33  1  0  0  0  0
 33 29  2  0  0  0  0
 34 30  1  0  0  0  0
M  END
>  <MODEL>
2

>  <REMARK>
 VINA RESULT:      -8.9      1.496      2.261
  Name = 
  4 active torsions:
  status: ('A' for Active; 'I' for Inactive)
    1  A    between atoms: N_3  and  C_13
    2  A    between atoms: N_3  and  C_17
    3  A    between atoms: C_12  and  C_28
    4  A    between atoms: C_17  and  C_29
                            x       y       z     vdW  Elec       q    Type
                         _______ _______ _______ _____ _____    ______ ____

>  <TORSDO>
F 4

$$$$
=
 OpenBabel11052418353D

 34 39  0  0  1  0  0  0  0  0999 V2000
  186.7380  177.6780  145.5010 C   0  0  0  0  0  0  0  0  0  0  0  0
  187.2460  178.1410  143.1660 C   0  0  0  0  0  0  0  0  0  0  0  0
  188.2910  176.1810  144.3590 C   0  0  0  0  0  0  0  0  0  0  0  0
  189.4210  174.2500  143.3330 N   0  0  0  0  0  0  0  0  0  0  0  0
  185.5070  179.3850  144.3140 C   0  0  0  0  0  3  0  0  0  0  0  0
  186.2700  179.1420  143.1750 C   0  0  0  0  0  3  0  0  0  0  0  0
  188.0320  175.3000  141.9430 C   0  0  0  0  0  3  0  0  0  0  0  0
  187.4260  177.3140  144.3100 C   0  0  0  0  0  0  0  0  0  0  0  0
  189.4070  173.5270  142.2050 C   0  0  0  0  0  3  0  0  0  0  0  0
  185.7610  178.6750  145.4830 C   0  0  0  0  0  3  0  0  0  0  0  0
  188.6820  175.6670  145.6200 C   0  0  0  0  0  0  0  0  0  0  0  0
  187.0550  177.0760  146.7170 C   0  0  0  0  0  3  0  0  0  0  0  0
  188.3970  178.2300  141.8370 Cl  0  0  0  0  0  0  0  0  0  0  0  0
  189.9530  173.8330  144.5580 N   0  0  0  0  0  2  0  0  0  0  0  0
  189.8120  174.6650  145.7520 C   0  0  1  0  0  3  0  0  0  0  0  0
  188.5660  174.1800  141.3260 C   0  0  0  0  0  0  0  0  0  0  0  0
  188.6330  175.3280  143.1910 C   0  0  0  0  0  0  0  0  0  0  0  0
  188.0510  176.1080  146.7820 C   0  0  0  0  0  3  0  0  0  0  0  0
  193.1960  176.3580  145.3320 C   0  0  0  0  0  0  0  0  0  0  0  0
  193.5010  176.6760  146.6590 C   0  0  0  0  0  3  0  0  0  0  0  0
  191.1050  175.3580  146.0550 C   0  0  0  0  0  0  0  0  0  0  0  0
  192.6110  176.3380  147.6820 C   0  0  0  0  0  3  0  0  0  0  0  0
  192.0000  175.7010  145.0290 C   0  0  0  0  0  3  0  0  0  0  0  0
  191.4150  175.6810  147.3800 C   0  0  0  0  0  3  0  0  0  0  0  0
  194.0580  176.6870  144.3400 F   0  0  0  0  0  0  0  0  0  0  0  0
  188.2690  173.7420  139.9360 C   0  0  0  0  0  2  0  0  0  0  0  0
  189.5160  173.4940  139.2260 N   0  0  0  0  0  2  0  0  0  0  0  0
  189.4720  173.2380  136.3500 C   0  0  0  0  0  1  0  0  0  0  0  0
  189.8440  172.2360  138.6240 C   0  0  0  0  0  0  0  0  0  0  0  0
  189.8160  172.1020  137.1890 N   0  0  0  0  0  0  0  0  0  0  0  0
  189.8140  169.6620  137.4270 C   0  0  0  0  0  2  0  0  0  0  0  0
  190.4870  169.8450  138.7830 C   0  0  0  0  0  2  0  0  0  0  0  0
  190.1160  171.1670  139.3870 C   0  0  0  0  0  3  0  0  0  0  0  0
  190.1750  170.8440  136.5350 C   0  0  0  0  0  2  0  0  0  0  0  0
  1 12  1  0  0  0  0
  2  6  2  0  0  0  0
  2  8  1  0  0  0  0
  3 11  2  0  0  0  0
  4 14  1  0  0  0  0
  5 10  2  0  0  0  0
  6  5  1  0  0  0  0
  7 17  2  0  0  0  0
  8  3  1  0  0  0  0
  8  1  2  0  0  0  0
  9  4  1  0  0  0  0
 10  1  1  0  0  0  0
 11 15  1  0  0  0  0
 11 18  1  0  0  0  0
 12 18  2  0  0  0  0
 13  2  1  0  0  0  0
 14 15  1  0  0  0  0
 15 21  1  6  0  0  0
 16  7  1  0  0  0  0
 16  9  2  0  0  0  0
 17  4  1  0  0  0  0
 17  3  1  0  0  0  0
 19 20  1  0  0  0  0
 20 22  2  0  0  0  0
 21 24  2  0  0  0  0
 23 19  2  0  0  0  0
 23 21  1  0  0  0  0
 24 22  1  0  0  0  0
 25 19  1  0  0  0  0
 26 16  1  0  0  0  0
 27 26  1  0  0  0  0
 28 30  1  0  0  0  0
 29 27  1  0  0  0  0
 29 33  2  0  0  0  0
 30 29  1  0  0  0  0
 31 32  1  0  0  0  0
 32 33  1  0  0  0  0
 34 30  1  0  0  0  0
 34 31  1  0  0  0  0
M  END
>  <MODEL>
3

>  <REMARK>
 VINA RESULT:      -8.8      1.477      2.322
  Name = 
  4 active torsions:
  status: ('A' for Active; 'I' for Inactive)
    1  A    between atoms: N_3  and  C_13
    2  A    between atoms: N_3  and  C_17
    3  A    between atoms: C_12  and  C_28
    4  A    between atoms: C_17  and  C_29
                            x       y       z     vdW  Elec       q    Type
                         _______ _______ _______ _____ _____    ______ ____

>  <TORSDO>
F 4

$$$$
=
 OpenBabel11052418353D

 34 39  0  0  1  0  0  0  0  0999 V2000
  191.6230  175.4800  145.2000 C   0  0  0  0  0  0  0  0  0  0  0  0
  190.6920  173.4850  144.1620 C   0  0  0  0  0  0  0  0  0  0  0  0
  189.6510  175.7510  143.7870 C   0  0  0  0  0  0  0  0  0  0  0  0
  188.0470  176.3740  142.0280 N   0  0  0  0  0  0  0  0  0  0  0  0
  192.8080  173.3800  145.3490 C   0  0  0  0  0  3  0  0  0  0  0  0
  191.7860  172.7550  144.6380 C   0  0  0  0  0  3  0  0  0  0  0  0
  189.2400  174.5580  141.5320 C   0  0  0  0  0  3  0  0  0  0  0  0
  190.6440  174.8950  144.3490 C   0  0  0  0  0  0  0  0  0  0  0  0
  187.7050  176.0350  140.7780 C   0  0  0  0  0  3  0  0  0  0  0  0
  192.7110  174.7340  145.6550 C   0  0  0  0  0  3  0  0  0  0  0  0
  189.4720  177.0470  144.3290 C   0  0  0  0  0  0  0  0  0  0  0  0
  191.4930  176.8000  145.6310 C   0  0  0  0  0  3  0  0  0  0  0  0
  189.3050  172.5200  143.6690 Cl  0  0  0  0  0  0  0  0  0  0  0  0
  187.7390  177.5880  142.6530 N   0  0  0  0  0  2  0  0  0  0  0  0
  188.2620  177.8910  143.9850 C   0  0  1  0  0  3  0  0  0  0  0  0
  188.4220  174.8970  140.4650 C   0  0  0  0  0  0  0  0  0  0  0  0
  188.9380  175.4920  142.5100 C   0  0  0  0  0  0  0  0  0  0  0  0
  190.4010  177.5620  145.2320 C   0  0  0  0  0  3  0  0  0  0  0  0
  184.9270  178.1270  145.8070 C   0  0  0  0  0  0  0  0  0  0  0  0
  185.1920  177.3620  146.9470 C   0  0  0  0  0  3  0  0  0  0  0  0
  187.1850  177.7220  145.0130 C   0  0  0  0  0  0  0  0  0  0  0  0
  186.4500  176.7780  147.1210 C   0  0  0  0  0  3  0  0  0  0  0  0
  185.9200  178.3070  144.8410 C   0  0  0  0  0  3  0  0  0  0  0  0
  187.4440  176.9560  146.1550 C   0  0  0  0  0  3  0  0  0  0  0  0
  183.7080  178.6930  145.6380 F   0  0  0  0  0  0  0  0  0  0  0  0
  188.3390  174.1560  139.1780 C   0  0  0  0  0  2  0  0  0  0  0  0
  189.6250  173.5400  138.8870 N   0  0  0  0  0  2  0  0  0  0  0  0
  190.4410  171.1680  140.3190 C   0  0  0  0  0  1  0  0  0  0  0  0
  189.7650  172.3020  138.1800 C   0  0  0  0  0  0  0  0  0  0  0  0
  190.1800  171.1170  138.8900 N   0  0  0  0  0  0  0  0  0  0  0  0
  190.7030  170.0330  136.7530 C   0  0  0  0  0  2  0  0  0  0  0  0
  189.6910  170.9630  136.0930 C   0  0  0  0  0  2  0  0  0  0  0  0
  189.5750  172.2510  136.8540 C   0  0  0  0  0  3  0  0  0  0  0  0
  190.3040  169.8280  138.2100 C   0  0  0  0  0  2  0  0  0  0  0  0
  1 12  1  0  0  0  0
  1 10  2  0  0  0  0
  2  8  2  0  0  0  0
  2  6  1  0  0  0  0
  3 11  2  0  0  0  0
  3  8  1  0  0  0  0
  4 17  1  0  0  0  0
  4 14  1  0  0  0  0
  5 10  1  0  0  0  0
  6  5  2  0  0  0  0
  7 17  2  0  0  0  0
  8  1  1  0  0  0  0
  9  4  1  0  0  0  0
 11 18  1  0  0  0  0
 13  2  1  0  0  0  0
 14 15  1  0  0  0  0
 15 11  1  0  0  0  0
 15 21  1  1  0  0  0
 16  9  2  0  0  0  0
 16  7  1  0  0  0  0
 17  3  1  0  0  0  0
 18 12  2  0  0  0  0
 19 20  1  0  0  0  0
 20 22  2  0  0  0  0
 21 24  2  0  0  0  0
 23 21  1  0  0  0  0
 23 19  2  0  0  0  0
 24 22  1  0  0  0  0
 25 19  1  0  0  0  0
 26 16  1  0  0  0  0
 27 26  1  0  0  0  0
 29 27  1  0  0  0  0
 29 30  1  0  0  0  0
 30 28  1  0  0  0  0
 31 34  1  0  0  0  0
 32 31  1  0  0  0  0
 32 33  1  0  0  0  0
 33 29  2  0  0  0  0
 34 30  1  0  0  0  0
M  END
>  <MODEL>
4

>  <REMARK>
 VINA RESULT:      -8.4      2.950      5.468
  Name = 
  4 active torsions:
  status: ('A' for Active; 'I' for Inactive)
    1  A    between atoms: N_3  and  C_13
    2  A    between atoms: N_3  and  C_17
    3  A    between atoms: C_12  and  C_28
    4  A    between atoms: C_17  and  C_29
                            x       y       z     vdW  Elec       q    Type
                         _______ _______ _______ _____ _____    ______ ____

>  <TORSDO>
F 4

$$$$
=
 OpenBabel11052418353D

 34 39  0  0  1  0  0  0  0  0999 V2000
  191.7790  173.8570  141.3000 C   0  0  0  0  0  0  0  0  0  0  0  0
  190.0120  172.8240  142.6180 C   0  0  0  0  0  0  0  0  0  0  0  0
  191.7650  174.2740  143.7060 C   0  0  0  0  0  0  0  0  0  0  0  0
  191.6750  175.2800  145.9500 N   0  0  0  0  0  0  0  0  0  0  0  0
  189.9610  172.7140  140.1930 C   0  0  0  0  0  3  0  0  0  0  0  0
  189.4130  172.3890  141.4320 C   0  0  0  0  0  3  0  0  0  0  0  0
  189.6680  174.7490  145.1390 C   0  0  0  0  0  3  0  0  0  0  0  0
  191.1610  173.6620  142.5680 C   0  0  0  0  0  0  0  0  0  0  0  0
  190.7830  175.7270  146.8440 C   0  0  0  0  0  3  0  0  0  0  0  0
  191.1570  173.4210  140.1290 C   0  0  0  0  0  3  0  0  0  0  0  0
  193.0910  174.7630  143.6020 C   0  0  0  0  0  0  0  0  0  0  0  0
  193.0370  174.4490  141.2070 C   0  0  0  0  0  3  0  0  0  0  0  0
  189.4710  172.0000  144.0770 Cl  0  0  0  0  0  0  0  0  0  0  0  0
  193.0340  175.6150  145.9210 N   0  0  0  0  0  2  0  0  0  0  0  0
  193.8900  175.1530  144.8290 C   0  0  1  0  0  3  0  0  0  0  0  0
  189.5340  175.3850  146.3640 C   0  0  0  0  0  0  0  0  0  0  0  0
  191.0370  174.6670  144.9390 C   0  0  0  0  0  0  0  0  0  0  0  0
  193.7060  174.8590  142.3550 C   0  0  0  0  0  3  0  0  0  0  0  0
  195.0650  171.6540  145.7630 C   0  0  0  0  0  0  0  0  0  0  0  0
  196.3870  171.9080  146.1380 C   0  0  0  0  0  3  0  0  0  0  0  0
  194.7460  174.0150  145.2910 C   0  0  0  0  0  0  0  0  0  0  0  0
  196.8900  173.2120  146.0890 C   0  0  0  0  0  3  0  0  0  0  0  0
  194.2450  172.7040  145.3400 C   0  0  0  0  0  3  0  0  0  0  0  0
  196.0720  174.2620  145.6650 C   0  0  0  0  0  3  0  0  0  0  0  0
  194.5770  170.3910  145.8090 F   0  0  0  0  0  0  0  0  0  0  0  0
  188.2440  175.6660  147.0490 C   0  0  0  0  0  2  0  0  0  0  0  0
  187.9030  177.0720  146.8880 N   0  0  0  0  0  2  0  0  0  0  0  0
  187.8210  177.9150  144.1260 C   0  0  0  0  0  1  0  0  0  0  0  0
  186.6660  177.5250  146.3240 C   0  0  0  0  0  0  0  0  0  0  0  0
  186.6230  177.9540  144.9480 N   0  0  0  0  0  0  0  0  0  0  0  0
  184.4650  179.0410  145.3660 C   0  0  0  0  0  2  0  0  0  0  0  0
  184.2510  178.0590  146.5130 C   0  0  0  0  0  2  0  0  0  0  0  0
  185.5650  177.6120  147.0840 C   0  0  0  0  0  3  0  0  0  0  0  0
  185.3730  178.3930  144.3270 C   0  0  0  0  0  2  0  0  0  0  0  0
  1  8  1  0  0  0  0
  2 13  1  0  0  0  0
  3 17  1  0  0  0  0
  4  9  1  0  0  0  0
  5  6  1  0  0  0  0
  6  2  2  0  0  0  0
  7 16  1  0  0  0  0
  8  2  1  0  0  0  0
  8  3  2  0  0  0  0
 10  5  2  0  0  0  0
 10  1  1  0  0  0  0
 11  3  1  0  0  0  0
 11 15  1  0  0  0  0
 12  1  2  0  0  0  0
 12 18  1  0  0  0  0
 14  4  1  0  0  0  0
 15 21  1  1  0  0  0
 15 14  1  0  0  0  0
 16  9  2  0  0  0  0
 16 26  1  0  0  0  0
 17  7  2  0  0  0  0
 17  4  1  0  0  0  0
 18 11  2  0  0  0  0
 19 25  1  0  0  0  0
 19 20  1  0  0  0  0
 21 23  1  0  0  0  0
 21 24  2  0  0  0  0
 22 20  2  0  0  0  0
 23 19  2  0  0  0  0
 24 22  1  0  0  0  0
 27 26  1  0  0  0  0
 28 30  1  0  0  0  0
 29 27  1  0  0  0  0
 29 33  2  0  0  0  0
 30 29  1  0  0  0  0
 31 32  1  0  0  0  0
 32 33  1  0  0  0  0
 34 30  1  0  0  0  0
 34 31  1  0  0  0  0
M  END
>  <MODEL>
5

>  <REMARK>
 VINA RESULT:      -8.4      3.686      6.932
  Name = 
  4 active torsions:
  status: ('A' for Active; 'I' for Inactive)
    1  A    between atoms: N_3  and  C_13
    2  A    between atoms: N_3  and  C_17
    3  A    between atoms: C_12  and  C_28
    4  A    between atoms: C_17  and  C_29
                            x       y       z     vdW  Elec       q    Type
                         _______ _______ _______ _____ _____    ______ ____

>  <TORSDO>
F 4

$$$$
=
 OpenBabel11052418353D

 34 39  0  0  1  0  0  0  0  0999 V2000
  186.6470  177.4210  145.2330 C   0  0  0  0  0  0  0  0  0  0  0  0
  187.9250  176.1600  146.8760 C   0  0  0  0  0  0  0  0  0  0  0  0
  188.7810  176.4720  144.5250 C   0  0  0  0  0  0  0  0  0  0  0  0
  191.0790  176.1090  143.7220 N   0  0  0  0  0  0  0  0  0  0  0  0
  185.9370  177.3840  147.5430 C   0  0  0  0  0  3  0  0  0  0  0  0
  187.0020  176.5420  147.8550 C   0  0  0  0  0  3  0  0  0  0  0  0
  190.9560  176.4490  145.9210 C   0  0  0  0  0  3  0  0  0  0  0  0
  187.8200  176.6830  145.5570 C   0  0  0  0  0  0  0  0  0  0  0  0
  192.3430  176.1490  144.1630 C   0  0  0  0  0  3  0  0  0  0  0  0
  185.7440  177.7980  146.2290 C   0  0  0  0  0  3  0  0  0  0  0  0
  188.4080  176.7050  143.1780 C   0  0  0  0  0  0  0  0  0  0  0  0
  186.3530  177.7450  143.9100 C   0  0  0  0  0  3  0  0  0  0  0  0
  188.9420  174.7860  147.3010 Cl  0  0  0  0  0  0  0  0  0  0  0  0
  190.6850  176.1690  142.3800 N   0  0  0  0  0  2  0  0  0  0  0  0
  189.2680  176.2300  142.0240 C   0  0  1  0  0  3  0  0  0  0  0  0
  192.2810  176.3370  145.5300 C   0  0  0  0  0  0  0  0  0  0  0  0
  190.2330  176.2560  144.7540 C   0  0  0  0  0  0  0  0  0  0  0  0
  187.2080  177.3510  142.8860 C   0  0  0  0  0  3  0  0  0  0  0  0
  188.1920  173.4010  139.7150 C   0  0  0  0  0  0  0  0  0  0  0  0
  187.9540  172.3790  140.6380 C   0  0  0  0  0  3  0  0  0  0  0  0
  188.8020  174.8960  141.5280 C   0  0  0  0  0  0  0  0  0  0  0  0
  188.1410  172.6120  142.0040 C   0  0  0  0  0  3  0  0  0  0  0  0
  188.6150  174.6570  140.1570 C   0  0  0  0  0  3  0  0  0  0  0  0
  188.5650  173.8680  142.4470 C   0  0  0  0  0  3  0  0  0  0  0  0
  188.0120  173.1740  138.3920 F   0  0  0  0  0  0  0  0  0  0  0  0
  193.4540  176.4200  146.4390 C   0  0  0  0  0  2  0  0  0  0  0  0
  194.6660  176.6180  145.6560 N   0  0  0  0  0  2  0  0  0  0  0  0
  196.3130  176.7900  143.2900 C   0  0  0  0  0  1  0  0  0  0  0  0
  195.5990  175.5700  145.3670 C   0  0  0  0  0  0  0  0  0  0  0  0
  196.4180  175.6480  144.1830 N   0  0  0  0  0  0  0  0  0  0  0  0
  196.9380  173.2620  144.3980 C   0  0  0  0  0  2  0  0  0  0  0  0
  196.6560  173.3870  145.8910 C   0  0  0  0  0  2  0  0  0  0  0  0
  195.6710  174.4880  146.1560 C   0  0  0  0  0  3  0  0  0  0  0  0
  197.4040  174.6150  143.8700 C   0  0  0  0  0  2  0  0  0  0  0  0
  1  8  1  0  0  0  0
  1 10  2  0  0  0  0
  2 13  1  0  0  0  0
  2  6  1  0  0  0  0
  3 17  1  0  0  0  0
  3  8  1  0  0  0  0
  4  9  1  0  0  0  0
  4 17  1  0  0  0  0
  5  6  2  0  0  0  0
  8  2  2  0  0  0  0
  9 16  2  0  0  0  0
 10  5  1  0  0  0  0
 11  3  2  0  0  0  0
 12  1  1  0  0  0  0
 14  4  1  0  0  0  0
 15 21  1  1  0  0  0
 15 14  1  0  0  0  0
 15 11  1  0  0  0  0
 16  7  1  0  0  0  0
 16 26  1  0  0  0  0
 17  7  2  0  0  0  0
 18 11  1  0  0  0  0
 18 12  2  0  0  0  0
 19 23  2  0  0  0  0
 19 20  1  0  0  0  0
 20 22  2  0  0  0  0
 21 24  2  0  0  0  0
 22 24  1  0  0  0  0
 23 21  1  0  0  0  0
 25 19  1  0  0  0  0
 27 26  1  0  0  0  0
 28 30  1  0  0  0  0
 29 27  1  0  0  0  0
 29 33  2  0  0  0  0
 30 29  1  0  0  0  0
 31 32  1  0  0  0  0
 32 33  1  0  0  0  0
 34 30  1  0  0  0  0
 34 31  1  0  0  0  0
M  END
>  <MODEL>
6

>  <REMARK>
 VINA RESULT:      -8.3      3.099      7.263
  Name = 
  4 active torsions:
  status: ('A' for Active; 'I' for Inactive)
    1  A    between atoms: N_3  and  C_13
    2  A    between atoms: N_3  and  C_17
    3  A    between atoms: C_12  and  C_28
    4  A    between atoms: C_17  and  C_29
                            x       y       z     vdW  Elec       q    Type
                         _______ _______ _______ _____ _____    ______ ____

>  <TORSDO>
F 4

$$$$
=
 OpenBabel11052418353D

 34 39  0  0  1  0  0  0  0  0999 V2000
  191.8680  176.7690  144.6830 C   0  0  0  0  0  0  0  0  0  0  0  0
  191.2930  174.4130  144.8910 C   0  0  0  0  0  0  0  0  0  0  0  0
  190.0510  175.9160  143.2940 C   0  0  0  0  0  0  0  0  0  0  0  0
  188.5960  175.2250  141.4330 N   0  0  0  0  0  0  0  0  0  0  0  0
  193.2580  175.3020  146.0060 C   0  0  0  0  0  3  0  0  0  0  0  0
  192.4020  174.2400  145.7260 C   0  0  0  0  0  3  0  0  0  0  0  0
  190.0370  173.6450  142.0610 C   0  0  0  0  0  3  0  0  0  0  0  0
  191.0640  175.6700  144.2670 C   0  0  0  0  0  0  0  0  0  0  0  0
  188.4400  174.2140  140.5680 C   0  0  0  0  0  3  0  0  0  0  0  0
  192.9740  176.5700  145.5100 C   0  0  0  0  0  3  0  0  0  0  0  0
  189.6650  177.2520  143.0230 C   0  0  0  0  0  0  0  0  0  0  0  0
  191.5400  178.0710  144.3090 C   0  0  0  0  0  3  0  0  0  0  0  0
  190.0900  173.1300  144.9690 Cl  0  0  0  0  0  0  0  0  0  0  0  0
  188.0830  176.5180  141.2730 N   0  0  0  0  0  2  0  0  0  0  0  0
  188.4130  177.5720  142.2310 C   0  0  1  0  0  3  0  0  0  0  0  0
  189.3120  173.2180  140.9590 C   0  0  0  0  0  0  0  0  0  0  0  0
  189.5210  174.8990  142.3500 C   0  0  0  0  0  0  0  0  0  0  0  0
  190.4210  178.3130  143.5210 C   0  0  0  0  0  3  0  0  0  0  0  0
  185.9190  177.2320  145.0870 C   0  0  0  0  0  0  0  0  0  0  0  0
  185.0880  178.3310  144.8480 C   0  0  0  0  0  3  0  0  0  0  0  0
  187.2540  177.8200  143.1460 C   0  0  0  0  0  0  0  0  0  0  0  0
  185.3390  179.1740  143.7610 C   0  0  0  0  0  3  0  0  0  0  0  0
  186.9990  176.9760  144.2390 C   0  0  0  0  0  3  0  0  0  0  0  0
  186.4200  178.9200  142.9130 C   0  0  0  0  0  3  0  0  0  0  0  0
  185.6760  176.4160  146.1400 F   0  0  0  0  0  0  0  0  0  0  0  0
  189.4600  171.8960  140.2940 C   0  0  0  0  0  2  0  0  0  0  0  0
  188.9390  171.9720  138.9370 N   0  0  0  0  0  2  0  0  0  0  0  0
  189.6390  173.9660  136.9680 C   0  0  0  0  0  1  0  0  0  0  0  0
  189.6910  171.5880  137.7800 C   0  0  0  0  0  0  0  0  0  0  0  0
  190.0360  172.5790  136.7900 N   0  0  0  0  0  0  0  0  0  0  0  0
  190.5590  170.7910  135.1970 C   0  0  0  0  0  2  0  0  0  0  0  0
  190.8290  169.8780  136.3880 C   0  0  0  0  0  2  0  0  0  0  0  0
  190.0210  170.3040  137.5790 C   0  0  0  0  0  3  0  0  0  0  0  0
  190.8290  172.2330  135.6110 C   0  0  0  0  0  2  0  0  0  0  0  0
  1 10  2  0  0  0  0
  2 13  1  0  0  0  0
  2  6  1  0  0  0  0
  3  8  1  0  0  0  0
  4 17  1  0  0  0  0
  6  5  2  0  0  0  0
  7 17  2  0  0  0  0
  8  1  1  0  0  0  0
  8  2  2  0  0  0  0
  9 16  2  0  0  0  0
  9  4  1  0  0  0  0
 10  5  1  0  0  0  0
 11  3  2  0  0  0  0
 11 18  1  0  0  0  0
 12  1  1  0  0  0  0
 14  4  1  0  0  0  0
 14 15  1  0  0  0  0
 15 11  1  0  0  0  0
 15 21  1  1  0  0  0
 16  7  1  0  0  0  0
 17  3  1  0  0  0  0
 18 12  2  0  0  0  0
 19 25  1  0  0  0  0
 20 19  1  0  0  0  0
 21 23  1  0  0  0  0
 22 20  2  0  0  0  0
 23 19  2  0  0  0  0
 24 21  2  0  0  0  0
 24 22  1  0  0  0  0
 26 16  1  0  0  0  0
 27 26  1  0  0  0  0
 29 27  1  0  0  0  0
 30 28  1  0  0  0  0
 30 29  1  0  0  0  0
 31 34  1  0  0  0  0
 31 32  1  0  0  0  0
 32 33  1  0  0  0  0
 33 29  2  0  0  0  0
 34 30  1  0  0  0  0
M  END
>  <MODEL>
7

>  <REMARK>
 VINA RESULT:      -8.2      2.637      5.412
  Name = 
  4 active torsions:
  status: ('A' for Active; 'I' for Inactive)
    1  A    between atoms: N_3  and  C_13
    2  A    between atoms: N_3  and  C_17
    3  A    between atoms: C_12  and  C_28
    4  A    between atoms: C_17  and  C_29
                            x       y       z     vdW  Elec       q    Type
                         _______ _______ _______ _____ _____    ______ ____

>  <TORSDO>
F 4

$$$$
=
 OpenBabel11052418353D

 34 39  0  0  1  0  0  0  0  0999 V2000
  191.8230  175.2410  145.0340 C   0  0  0  0  0  0  0  0  0  0  0  0
  190.8510  173.2220  144.0840 C   0  0  0  0  0  0  0  0  0  0  0  0
  189.8260  175.4840  143.6520 C   0  0  0  0  0  0  0  0  0  0  0  0
  188.1930  176.0640  141.9050 N   0  0  0  0  0  0  0  0  0  0  0  0
  192.9890  173.1340  145.2320 C   0  0  0  0  0  3  0  0  0  0  0  0
  191.9470  172.4960  144.5620 C   0  0  0  0  0  3  0  0  0  0  0  0
  189.3570  174.2200  141.4470 C   0  0  0  0  0  3  0  0  0  0  0  0
  190.8210  174.6370  144.2230 C   0  0  0  0  0  0  0  0  0  0  0  0
  187.8230  175.6870  140.6740 C   0  0  0  0  0  3  0  0  0  0  0  0
  192.9120  174.4980  145.4930 C   0  0  0  0  0  3  0  0  0  0  0  0
  189.6710  176.8000  144.1530 C   0  0  0  0  0  0  0  0  0  0  0  0
  191.7150  176.5750  145.4220 C   0  0  0  0  0  3  0  0  0  0  0  0
  189.4450  172.2550  143.6510 Cl  0  0  0  0  0  0  0  0  0  0  0  0
  187.9100  177.3020  142.4940 N   0  0  0  0  0  2  0  0  0  0  0  0
  188.4620  177.6450  143.8040 C   0  0  1  0  0  3  0  0  0  0  0  0
  188.5210  174.5310  140.3860 C   0  0  0  0  0  0  0  0  0  0  0  0
  189.0840  175.1900  142.3990 C   0  0  0  0  0  0  0  0  0  0  0  0
  190.6230  177.3360  145.0190 C   0  0  0  0  0  3  0  0  0  0  0  0
  185.1780  178.0040  145.6960 C   0  0  0  0  0  0  0  0  0  0  0  0
  185.4460  177.2500  146.8420 C   0  0  0  0  0  3  0  0  0  0  0  0
  187.4050  177.5230  144.8580 C   0  0  0  0  0  0  0  0  0  0  0  0
  186.6910  176.6320  146.9960 C   0  0  0  0  0  3  0  0  0  0  0  0
  186.1540  178.1410  144.7050 C   0  0  0  0  0  3  0  0  0  0  0  0
  187.6680  176.7670  146.0060 C   0  0  0  0  0  3  0  0  0  0  0  0
  183.9720  178.6030  145.5450 F   0  0  0  0  0  0  0  0  0  0  0  0
  188.4050  173.7480  139.1270 C   0  0  0  0  0  2  0  0  0  0  0  0
  189.6880  173.1350  138.8140 N   0  0  0  0  0  2  0  0  0  0  0  0
  192.4770  173.3390  139.5380 C   0  0  0  0  0  1  0  0  0  0  0  0
  190.6210  173.6910  137.8800 C   0  0  0  0  0  0  0  0  0  0  0  0
  192.0130  173.8010  138.2410 N   0  0  0  0  0  0  0  0  0  0  0  0
  192.3580  175.3690  136.3870 C   0  0  0  0  0  2  0  0  0  0  0  0
  191.1580  174.7320  135.6930 C   0  0  0  0  0  2  0  0  0  0  0  0
  190.1990  174.1670  136.7000 C   0  0  0  0  0  3  0  0  0  0  0  0
  193.0010  174.3350  137.3040 C   0  0  0  0  0  2  0  0  0  0  0  0
  1 12  1  0  0  0  0
  1 10  2  0  0  0  0
  2  8  2  0  0  0  0
  2  6  1  0  0  0  0
  3 11  2  0  0  0  0
  3  8  1  0  0  0  0
  4 17  1  0  0  0  0
  4 14  1  0  0  0  0
  5 10  1  0  0  0  0
  6  5  2  0  0  0  0
  7 17  2  0  0  0  0
  8  1  1  0  0  0  0
  9  4  1  0  0  0  0
 11 18  1  0  0  0  0
 13  2  1  0  0  0  0
 14 15  1  0  0  0  0
 15 11  1  0  0  0  0
 15 21  1  1  0  0  0
 16  9  2  0  0  0  0
 16  7  1  0  0  0  0
 17  3  1  0  0  0  0
 18 12  2  0  0  0  0
 19 20  1  0  0  0  0
 20 22  2  0  0  0  0
 21 24  2  0  0  0  0
 23 21  1  0  0  0  0
 23 19  2  0  0  0  0
 24 22  1  0  0  0  0
 25 19  1  0  0  0  0
 26 16  1  0  0  0  0
 27 26  1  0  0  0  0
 29 30  1  0  0  0  0
 29 27  1  0  0  0  0
 30 28  1  0  0  0  0
 31 34  1  0  0  0  0
 32 31  1  0  0  0  0
 32 33  1  0  0  0  0
 33 29  2  0  0  0  0
 34 30  1  0  0  0  0
M  END
>  <MODEL>
8

>  <REMARK>
 VINA RESULT:      -8.1      2.797      5.253
  Name = 
  4 active torsions:
  status: ('A' for Active; 'I' for Inactive)
    1  A    between atoms: N_3  and  C_13
    2  A    between atoms: N_3  and  C_17
    3  A    between atoms: C_12  and  C_28
    4  A    between atoms: C_17  and  C_29
                            x       y       z     vdW  Elec       q    Type
                         _______ _______ _______ _____ _____    ______ ____

>  <TORSDO>
F 4

$$$$
=
 OpenBabel11052418353D

 34 39  0  0  1  0  0  0  0  0999 V2000
  192.3370  172.5220  140.5630 C   0  0  0  0  0  0  0  0  0  0  0  0
  190.3390  171.9370  141.8240 C   0  0  0  0  0  0  0  0  0  0  0  0
  191.3760  174.2260  142.0230 C   0  0  0  0  0  0  0  0  0  0  0  0
  190.3370  176.2490  142.9620 N   0  0  0  0  0  0  0  0  0  0  0  0
  191.2120  170.4270  140.1340 C   0  0  0  0  0  3  0  0  0  0  0  0
  190.2830  170.7250  141.1270 C   0  0  0  0  0  3  0  0  0  0  0  0
  188.8550  174.7200  142.3040 C   0  0  0  0  0  3  0  0  0  0  0  0
  191.3170  172.9100  141.4770 C   0  0  0  0  0  0  0  0  0  0  0  0
  189.1290  176.8070  143.1250 C   0  0  0  0  0  3  0  0  0  0  0  0
  192.2550  171.3110  139.8740 C   0  0  0  0  0  3  0  0  0  0  0  0
  192.5780  174.9680  141.9050 C   0  0  0  0  0  0  0  0  0  0  0  0
  193.4610  173.3240  140.3700 C   0  0  0  0  0  3  0  0  0  0  0  0
  189.3910  171.9930  143.3060 Cl  0  0  0  0  0  0  0  0  0  0  0  0
  191.5580  176.9310  143.0060 N   0  0  0  0  0  2  0  0  0  0  0  0
  192.8090  176.2360  142.7020 C   0  0  1  0  0  3  0  0  0  0  0  0
  188.2000  175.8600  142.7410 C   0  0  0  0  0  0  0  0  0  0  0  0
  190.1990  174.9950  142.5020 C   0  0  0  0  0  0  0  0  0  0  0  0
  193.5990  174.5170  141.0700 C   0  0  0  0  0  3  0  0  0  0  0  0
  194.3700  176.6060  146.1550 C   0  0  0  0  0  0  0  0  0  0  0  0
  194.9410  175.3420  146.3260 C   0  0  0  0  0  3  0  0  0  0  0  0
  193.5560  175.9410  143.9660 C   0  0  0  0  0  0  0  0  0  0  0  0
  194.8210  174.3780  145.3210 C   0  0  0  0  0  3  0  0  0  0  0  0
  193.6780  176.9060  144.9790 C   0  0  0  0  0  3  0  0  0  0  0  0
  194.1280  174.6770  144.1440 C   0  0  0  0  0  3  0  0  0  0  0  0
  194.4860  177.5410  147.1290 F   0  0  0  0  0  0  0  0  0  0  0  0
  186.7240  176.0410  142.7800 C   0  0  0  0  0  2  0  0  0  0  0  0
  186.4080  177.3470  143.3410 N   0  0  0  0  0  2  0  0  0  0  0  0
  184.0360  178.9620  143.6740 C   0  0  0  0  0  1  0  0  0  0  0  0
  185.8560  177.5300  144.6500 C   0  0  0  0  0  0  0  0  0  0  0  0
  184.6770  178.3420  144.8220 N   0  0  0  0  0  0  0  0  0  0  0  0
  185.1310  178.4740  147.2280 C   0  0  0  0  0  2  0  0  0  0  0  0
  185.8960  177.1620  147.1040 C   0  0  0  0  0  2  0  0  0  0  0  0
  186.4650  177.0060  145.7230 C   0  0  0  0  0  3  0  0  0  0  0  0
  184.0660  178.5280  146.1380 C   0  0  0  0  0  2  0  0  0  0  0  0
  1  8  1  0  0  0  0
  2 13  1  0  0  0  0
  3 17  1  0  0  0  0
  4 14  1  0  0  0  0
  4  9  1  0  0  0  0
  5  6  1  0  0  0  0
  6  2  2  0  0  0  0
  7 17  2  0  0  0  0
  7 16  1  0  0  0  0
  8  2  1  0  0  0  0
  8  3  2  0  0  0  0
 10  5  2  0  0  0  0
 10  1  1  0  0  0  0
 11  3  1  0  0  0  0
 11 15  1  0  0  0  0
 12  1  2  0  0  0  0
 12 18  1  0  0  0  0
 15 14  1  0  0  0  0
 15 21  1  1  0  0  0
 16 26  1  0  0  0  0
 16  9  2  0  0  0  0
 17  4  1  0  0  0  0
 18 11  2  0  0  0  0
 19 20  1  0  0  0  0
 19 25  1  0  0  0  0
 21 24  2  0  0  0  0
 21 23  1  0  0  0  0
 22 20  2  0  0  0  0
 23 19  2  0  0  0  0
 24 22  1  0  0  0  0
 26 27  1  0  0  0  0
 27 29  1  0  0  0  0
 28 30  1  0  0  0  0
 29 30  1  0  0  0  0
 29 33  2  0  0  0  0
 30 34  1  0  0  0  0
 32 31  1  0  0  0  0
 33 32  1  0  0  0  0
 34 31  1  0  0  0  0
M  END
>  <MODEL>
9

>  <REMARK>
 VINA RESULT:      -8.0      3.518      7.000
  Name = 
  4 active torsions:
  status: ('A' for Active; 'I' for Inactive)
    1  A    between atoms: N_3  and  C_13
    2  A    between atoms: N_3  and  C_17
    3  A    between atoms: C_12  and  C_28
    4  A    between atoms: C_17  and  C_29
                            x       y       z     vdW  Elec       q    Type
                         _______ _______ _______ _____ _____    ______ ____

>  <TORSDO>
F 4

$$$$
