=
 OpenBabel11052417353D

 25 27  0  0  1  0  0  0  0  0999 V2000
  188.7240  175.5730  144.6390 C   0  0  0  0  0  0  0  0  0  0  0  0
  187.7790  176.5360  145.0620 C   0  0  0  0  0  0  0  0  0  0  0  0
  189.0560  174.8990  146.9520 C   0  0  0  0  0  3  0  0  0  0  0  0
  188.1170  175.8400  147.3730 C   0  0  0  0  0  3  0  0  0  0  0  0
  186.5420  177.6250  146.8680 C   0  0  0  0  0  0  0  0  0  0  0  0
  186.2300  177.7680  148.2160 O   0  0  0  0  0  1  0  0  0  0  0  0
  187.1390  177.3810  144.1420 C   0  0  0  0  0  3  0  0  0  0  0  0
  189.3600  174.7710  145.5960 C   0  0  0  0  0  3  0  0  0  0  0  0
  185.9190  178.4550  145.9330 C   0  0  0  0  0  3  0  0  0  0  0  0
  186.2120  178.3310  144.5730 C   0  0  0  0  0  0  0  0  0  0  0  0
  187.4740  176.6650  146.4420 C   0  0  0  0  0  0  0  0  0  0  0  0
  189.1170  175.4110  143.1900 C   0  0  0  0  0  0  0  0  0  0  0  0
  189.6390  174.0190  142.8930 C   0  0  0  0  0  2  0  0  0  0  0  0
  188.3440  174.4900  142.2620 C   0  0  0  0  0  2  0  0  0  0  0  0
  189.9710  176.4290  142.5660 N   0  0  0  0  0  2  0  0  0  0  0  0
  190.9790  178.3690  143.7440 C   0  0  0  0  0  1  0  0  0  0  0  0
  191.0690  176.8860  143.4280 C   0  0  0  0  0  3  0  0  0  0  0  0
  192.4440  176.5030  142.9010 C   0  0  0  0  0  1  0  0  0  0  0  0
  185.5640  179.2360  143.5850 C   0  0  0  0  0  2  0  0  0  0  0  0
  184.1430  178.7650  143.2990 C   0  0  0  0  0  2  0  0  0  0  0  0
  184.0290  178.0730  141.9460 C   0  0  1  0  0  3  0  0  0  0  0  0
  182.7210  178.1560  141.4630 O   0  0  0  0  0  1  0  0  0  0  0  0
  185.0070  178.6670  140.9430 C   0  0  0  0  0  2  0  0  0  0  0  0
  185.7200  177.5630  140.1870 C   0  0  0  0  0  2  0  0  0  0  0  0
  187.1950  177.5880  140.5300 C   0  0  0  0  0  1  0  0  0  0  0  0
  1  2  2  0  0  0  0
  1  8  1  0  0  0  0
  2 11  1  0  0  0  0
  3  4  1  0  0  0  0
  5  6  1  0  0  0  0
  7 10  2  0  0  0  0
  7  2  1  0  0  0  0
  8  3  2  0  0  0  0
  9  5  2  0  0  0  0
 10  9  1  0  0  0  0
 11  5  1  0  0  0  0
 11  4  2  0  0  0  0
 12  1  1  0  0  0  0
 13 12  1  0  0  0  0
 14 13  1  0  0  0  0
 14 12  1  0  0  0  0
 15 12  1  0  0  0  0
 15 17  1  0  0  0  0
 17 16  1  0  0  0  0
 18 17  1  0  0  0  0
 19 10  1  0  0  0  0
 20 19  1  0  0  0  0
 21 22  1  6  0  0  0
 21 20  1  0  0  0  0
 23 21  1  0  0  0  0
 24 25  1  0  0  0  0
 24 23  1  0  0  0  0
M  END
>  <MODEL>
1

>  <REMARK>
 VINA RESULT:      -6.5      0.000      0.000
  Name = 
  8 active torsions:
  status: ('A' for Active; 'I' for Inactive)
    1  A    between atoms: C_1  and  C_5
    2  A    between atoms: C_2  and  C_7
    3  A    between atoms: C_2  and  C_21
    4  A    between atoms: C_5  and  N_10
    5  A    between atoms: C_6  and  C_15
    6  A    between atoms: C_6  and  C_23
    7  A    between atoms: N_10  and  C_11
    8  A    between atoms: C_15  and  C_21
                            x       y       z     vdW  Elec       q    Type
                         _______ _______ _______ _____ _____    ______ ____

>  <TORSDO>
F 8

$$$$
=
 OpenBabel11052417353D

 25 27  0  0  1  0  0  0  0  0999 V2000
  187.2880  177.8350  143.3270 C   0  0  0  0  0  0  0  0  0  0  0  0
  187.1630  177.5170  144.6990 C   0  0  0  0  0  0  0  0  0  0  0  0
  185.5520  179.5210  143.5720 C   0  0  0  0  0  3  0  0  0  0  0  0
  185.4340  179.2180  144.9280 C   0  0  0  0  0  3  0  0  0  0  0  0
  186.0960  177.9020  146.8650 C   0  0  0  0  0  0  0  0  0  0  0  0
  185.1850  178.5790  147.6690 O   0  0  0  0  0  1  0  0  0  0  0  0
  187.9410  176.5070  145.2860 C   0  0  0  0  0  3  0  0  0  0  0  0
  186.4680  178.8300  142.7780 C   0  0  0  0  0  3  0  0  0  0  0  0
  186.8820  176.8920  147.4250 C   0  0  0  0  0  3  0  0  0  0  0  0
  187.8050  176.1980  146.6400 C   0  0  0  0  0  0  0  0  0  0  0  0
  186.2280  178.2200  145.5030 C   0  0  0  0  0  0  0  0  0  0  0  0
  188.2370  177.1000  142.4120 C   0  0  0  0  0  0  0  0  0  0  0  0
  188.2370  175.6060  142.6710 C   0  0  0  0  0  2  0  0  0  0  0  0
  187.7250  176.1430  141.3490 C   0  0  0  0  0  2  0  0  0  0  0  0
  189.6090  177.5990  142.2590 N   0  0  0  0  0  2  0  0  0  0  0  0
  190.9640  178.2040  144.2510 C   0  0  0  0  0  1  0  0  0  0  0  0
  190.5330  177.1090  143.2910 C   0  0  0  0  0  3  0  0  0  0  0  0
  191.7260  176.3560  142.7190 C   0  0  0  0  0  1  0  0  0  0  0  0
  188.6200  175.1060  147.2370 C   0  0  0  0  0  2  0  0  0  0  0  0
  189.8750  174.8760  146.4050 C   0  0  0  0  0  2  0  0  0  0  0  0
  191.0970  175.5620  147.0060 C   0  0  1  0  0  3  0  0  0  0  0  0
  191.2250  175.2320  148.3580 O   0  0  0  0  0  1  0  0  0  0  0  0
  192.3610  175.1960  146.2450 C   0  0  0  0  0  2  0  0  0  0  0  0
  193.4510  176.2140  146.5150 C   0  0  0  0  0  2  0  0  0  0  0  0
  194.7990  175.6100  146.1850 C   0  0  0  0  0  1  0  0  0  0  0  0
  1  2  1  0  0  0  0
  2  7  2  0  0  0  0
  2 11  1  0  0  0  0
  3  4  2  0  0  0  0
  4 11  1  0  0  0  0
  5  9  1  0  0  0  0
  5  6  1  0  0  0  0
  7 10  1  0  0  0  0
  8  1  2  0  0  0  0
  8  3  1  0  0  0  0
 10 19  1  0  0  0  0
 10  9  2  0  0  0  0
 11  5  2  0  0  0  0
 12 13  1  0  0  0  0
 12  1  1  0  0  0  0
 14 12  1  0  0  0  0
 14 13  1  0  0  0  0
 15 12  1  0  0  0  0
 15 17  1  0  0  0  0
 17 16  1  0  0  0  0
 18 17  1  0  0  0  0
 20 21  1  0  0  0  0
 20 19  1  0  0  0  0
 21 22  1  1  0  0  0
 23 24  1  0  0  0  0
 23 21  1  0  0  0  0
 25 24  1  0  0  0  0
M  END
>  <MODEL>
2

>  <REMARK>
 VINA RESULT:      -6.4      1.978      5.486
  Name = 
  8 active torsions:
  status: ('A' for Active; 'I' for Inactive)
    1  A    between atoms: C_1  and  C_5
    2  A    between atoms: C_2  and  C_7
    3  A    between atoms: C_2  and  C_21
    4  A    between atoms: C_5  and  N_10
    5  A    between atoms: C_6  and  C_15
    6  A    between atoms: C_6  and  C_23
    7  A    between atoms: N_10  and  C_11
    8  A    between atoms: C_15  and  C_21
                            x       y       z     vdW  Elec       q    Type
                         _______ _______ _______ _____ _____    ______ ____

>  <TORSDO>
F 8

$$$$
=
 OpenBabel11052417353D

 25 27  0  0  1  0  0  0  0  0999 V2000
  187.0100  178.0480  143.4920 C   0  0  0  0  0  0  0  0  0  0  0  0
  187.1950  177.5060  144.7850 C   0  0  0  0  0  0  0  0  0  0  0  0
  185.3950  179.6250  144.3980 C   0  0  0  0  0  3  0  0  0  0  0  0
  185.5820  179.1000  145.6760 C   0  0  0  0  0  3  0  0  0  0  0  0
  186.6490  177.5000  147.1680 C   0  0  0  0  0  0  0  0  0  0  0  0
  185.9520  178.0120  148.2580 O   0  0  0  0  0  1  0  0  0  0  0  0
  188.0730  176.4330  145.0050 C   0  0  0  0  0  3  0  0  0  0  0  0
  186.1000  179.0990  143.3150 C   0  0  0  0  0  3  0  0  0  0  0  0
  187.5290  176.4330  147.3620 C   0  0  0  0  0  3  0  0  0  0  0  0
  188.2420  175.9020  146.2850 C   0  0  0  0  0  0  0  0  0  0  0  0
  186.4740  178.0410  145.8840 C   0  0  0  0  0  0  0  0  0  0  0  0
  187.7190  177.4990  142.2780 C   0  0  0  0  0  0  0  0  0  0  0  0
  188.5420  178.5580  141.5710 C   0  0  0  0  0  2  0  0  0  0  0  0
  189.2330  177.3840  142.2350 C   0  0  0  0  0  2  0  0  0  0  0  0
  186.9580  176.7010  141.3090 N   0  0  0  0  0  2  0  0  0  0  0  0
  185.0210  177.9000  140.3190 C   0  0  0  0  0  1  0  0  0  0  0  0
  186.4710  177.4770  140.1600 C   0  0  0  0  0  3  0  0  0  0  0  0
  186.7170  176.7900  138.8250 C   0  0  0  0  0  1  0  0  0  0  0  0
  189.1580  174.7480  146.4930 C   0  0  0  0  0  2  0  0  0  0  0  0
  190.1390  175.0560  147.6190 C   0  0  0  0  0  2  0  0  0  0  0  0
  191.1090  176.1710  147.2450 C   0  0  1  0  0  3  0  0  0  0  0  0
  191.3360  177.0070  148.3410 O   0  0  0  0  0  1  0  0  0  0  0  0
  192.4210  175.6040  146.7260 C   0  0  0  0  0  2  0  0  0  0  0  0
  192.4310  175.6060  145.2090 C   0  0  0  0  0  2  0  0  0  0  0  0
  191.9810  176.9610  144.7050 C   0  0  0  0  0  1  0  0  0  0  0  0
  1  2  1  0  0  0  0
  2  7  2  0  0  0  0
  2 11  1  0  0  0  0
  3  4  2  0  0  0  0
  4 11  1  0  0  0  0
  5  9  1  0  0  0  0
  5  6  1  0  0  0  0
  7 10  1  0  0  0  0
  8  1  2  0  0  0  0
  8  3  1  0  0  0  0
 10 19  1  0  0  0  0
 10  9  2  0  0  0  0
 11  5  2  0  0  0  0
 12  1  1  0  0  0  0
 13 14  1  0  0  0  0
 13 12  1  0  0  0  0
 14 12  1  0  0  0  0
 15 12  1  0  0  0  0
 17 16  1  0  0  0  0
 17 15  1  0  0  0  0
 18 17  1  0  0  0  0
 19 20  1  0  0  0  0
 21 20  1  0  0  0  0
 21 22  1  1  0  0  0
 23 21  1  0  0  0  0
 24 23  1  0  0  0  0
 25 24  1  0  0  0  0
M  END
>  <MODEL>
3

>  <REMARK>
 VINA RESULT:      -6.3      2.191      5.807
  Name = 
  8 active torsions:
  status: ('A' for Active; 'I' for Inactive)
    1  A    between atoms: C_1  and  C_5
    2  A    between atoms: C_2  and  C_7
    3  A    between atoms: C_2  and  C_21
    4  A    between atoms: C_5  and  N_10
    5  A    between atoms: C_6  and  C_15
    6  A    between atoms: C_6  and  C_23
    7  A    between atoms: N_10  and  C_11
    8  A    between atoms: C_15  and  C_21
                            x       y       z     vdW  Elec       q    Type
                         _______ _______ _______ _____ _____    ______ ____

>  <TORSDO>
F 8

$$$$
=
 OpenBabel11052417353D

 25 27  0  0  1  0  0  0  0  0999 V2000
  189.4860  175.1820  142.9580 C   0  0  0  0  0  0  0  0  0  0  0  0
  189.4930  175.6640  144.2870 C   0  0  0  0  0  0  0  0  0  0  0  0
  191.9170  175.2700  142.9260 C   0  0  0  0  0  3  0  0  0  0  0  0
  191.9290  175.7360  144.2410 C   0  0  0  0  0  3  0  0  0  0  0  0
  190.7380  176.4270  146.2480 C   0  0  0  0  0  0  0  0  0  0  0  0
  191.9380  176.7030  146.8960 O   0  0  0  0  0  1  0  0  0  0  0  0
  188.2970  175.8900  144.9850 C   0  0  0  0  0  3  0  0  0  0  0  0
  190.7050  175.0000  142.2890 C   0  0  0  0  0  3  0  0  0  0  0  0
  189.5350  176.6430  146.9220 C   0  0  0  0  0  3  0  0  0  0  0  0
  188.3160  176.3730  146.2950 C   0  0  0  0  0  0  0  0  0  0  0  0
  190.7280  175.9400  144.9300 C   0  0  0  0  0  0  0  0  0  0  0  0
  188.2070  174.9040  142.2070 C   0  0  0  0  0  0  0  0  0  0  0  0
  188.4630  174.2330  140.8720 C   0  0  0  0  0  2  0  0  0  0  0  0
  187.7280  173.4830  141.9650 C   0  0  0  0  0  2  0  0  0  0  0  0
  187.2160  175.9790  142.0650 N   0  0  0  0  0  2  0  0  0  0  0  0
  188.2970  178.2090  141.8970 C   0  0  0  0  0  1  0  0  0  0  0  0
  187.6410  177.0550  141.1590 C   0  0  0  0  0  3  0  0  0  0  0  0
  186.5320  177.5330  140.2340 C   0  0  0  0  0  1  0  0  0  0  0  0
  187.0370  176.6300  147.0090 C   0  0  0  0  0  2  0  0  0  0  0  0
  185.8930  176.7410  146.0080 C   0  0  0  0  0  2  0  0  0  0  0  0
  184.7740  177.6460  146.5130 C   0  0  1  0  0  3  0  0  0  0  0  0
  185.2300  178.4450  147.5640 O   0  0  0  0  0  1  0  0  0  0  0  0
  184.2170  178.5070  145.3900 C   0  0  0  0  0  2  0  0  0  0  0  0
  185.1740  178.5180  144.2130 C   0  0  0  0  0  2  0  0  0  0  0  0
  185.6630  179.9300  143.9740 C   0  0  0  0  0  1  0  0  0  0  0  0
  1  2  1  0  0  0  0
  2 11  2  0  0  0  0
  2  7  1  0  0  0  0
  3  4  2  0  0  0  0
  4 11  1  0  0  0  0
  5  6  1  0  0  0  0
  5  9  2  0  0  0  0
  7 10  2  0  0  0  0
  8  3  1  0  0  0  0
  8  1  2  0  0  0  0
 10  9  1  0  0  0  0
 10 19  1  0  0  0  0
 11  5  1  0  0  0  0
 12  1  1  0  0  0  0
 13 14  1  0  0  0  0
 13 12  1  0  0  0  0
 14 12  1  0  0  0  0
 15 12  1  0  0  0  0
 17 16  1  0  0  0  0
 17 15  1  0  0  0  0
 18 17  1  0  0  0  0
 20 21  1  0  0  0  0
 20 19  1  0  0  0  0
 21 22  1  1  0  0  0
 23 21  1  0  0  0  0
 24 23  1  0  0  0  0
 25 24  1  0  0  0  0
M  END
>  <MODEL>
4

>  <REMARK>
 VINA RESULT:      -6.2      1.996      4.081
  Name = 
  8 active torsions:
  status: ('A' for Active; 'I' for Inactive)
    1  A    between atoms: C_1  and  C_5
    2  A    between atoms: C_2  and  C_7
    3  A    between atoms: C_2  and  C_21
    4  A    between atoms: C_5  and  N_10
    5  A    between atoms: C_6  and  C_15
    6  A    between atoms: C_6  and  C_23
    7  A    between atoms: N_10  and  C_11
    8  A    between atoms: C_15  and  C_21
                            x       y       z     vdW  Elec       q    Type
                         _______ _______ _______ _____ _____    ______ ____

>  <TORSDO>
F 8

$$$$
=
 OpenBabel11052417353D

 25 27  0  0  1  0  0  0  0  0999 V2000
  186.5020  177.9340  145.1280 C   0  0  0  0  0  0  0  0  0  0  0  0
  187.8400  177.5180  145.3210 C   0  0  0  0  0  0  0  0  0  0  0  0
  185.8260  176.6090  147.0520 C   0  0  0  0  0  3  0  0  0  0  0  0
  187.1450  176.2050  147.2520 C   0  0  0  0  0  3  0  0  0  0  0  0
  189.4850  176.2260  146.5850 C   0  0  0  0  0  0  0  0  0  0  0  0
  189.8190  175.3730  147.6320 O   0  0  0  0  0  1  0  0  0  0  0  0
  188.8640  177.9410  144.4600 C   0  0  0  0  0  3  0  0  0  0  0  0
  185.5070  177.4630  145.9950 C   0  0  0  0  0  3  0  0  0  0  0  0
  190.4870  176.6610  145.7150 C   0  0  0  0  0  3  0  0  0  0  0  0
  190.1800  177.5190  144.6570 C   0  0  0  0  0  0  0  0  0  0  0  0
  188.1590  176.6480  146.3950 C   0  0  0  0  0  0  0  0  0  0  0  0
  186.0920  178.8300  143.9840 C   0  0  0  0  0  0  0  0  0  0  0  0
  184.5870  178.9950  143.9000 C   0  0  0  0  0  2  0  0  0  0  0  0
  185.4600  180.1880  144.2340 C   0  0  0  0  0  2  0  0  0  0  0  0
  186.6630  178.5910  142.6530 N   0  0  0  0  0  2  0  0  0  0  0  0
  186.8750  176.2500  141.8490 C   0  0  0  0  0  1  0  0  0  0  0  0
  186.0100  177.4970  141.9200 C   0  0  0  0  0  3  0  0  0  0  0  0
  185.5030  177.9120  140.5470 C   0  0  0  0  0  1  0  0  0  0  0  0
  191.2470  177.9570  143.7170 C   0  0  0  0  0  2  0  0  0  0  0  0
  192.4380  177.0090  143.8000 C   0  0  0  0  0  2  0  0  0  0  0  0
  192.5530  176.1230  142.5640 C   0  0  1  0  0  3  0  0  0  0  0  0
  193.8910  175.9790  142.1910 O   0  0  0  0  0  1  0  0  0  0  0  0
  191.9160  174.7630  142.8050 C   0  0  0  0  0  2  0  0  0  0  0  0
  190.5030  174.7400  142.2540 C   0  0  0  0  0  2  0  0  0  0  0  0
  189.5850  174.0630  143.2480 C   0  0  0  0  0  1  0  0  0  0  0  0
  1  2  2  0  0  0  0
  1  8  1  0  0  0  0
  2 11  1  0  0  0  0
  3  4  1  0  0  0  0
  5  6  1  0  0  0  0
  7 10  2  0  0  0  0
  7  2  1  0  0  0  0
  8  3  2  0  0  0  0
  9  5  2  0  0  0  0
 10  9  1  0  0  0  0
 11  5  1  0  0  0  0
 11  4  2  0  0  0  0
 12 14  1  0  0  0  0
 12  1  1  0  0  0  0
 13 12  1  0  0  0  0
 13 14  1  0  0  0  0
 15 12  1  0  0  0  0
 16 17  1  0  0  0  0
 17 15  1  0  0  0  0
 18 17  1  0  0  0  0
 19 20  1  0  0  0  0
 19 10  1  0  0  0  0
 21 22  1  1  0  0  0
 21 23  1  0  0  0  0
 21 20  1  0  0  0  0
 24 23  1  0  0  0  0
 24 25  1  0  0  0  0
M  END
>  <MODEL>
5

>  <REMARK>
 VINA RESULT:      -6.1      2.587      5.673
  Name = 
  8 active torsions:
  status: ('A' for Active; 'I' for Inactive)
    1  A    between atoms: C_1  and  C_5
    2  A    between atoms: C_2  and  C_7
    3  A    between atoms: C_2  and  C_21
    4  A    between atoms: C_5  and  N_10
    5  A    between atoms: C_6  and  C_15
    6  A    between atoms: C_6  and  C_23
    7  A    between atoms: N_10  and  C_11
    8  A    between atoms: C_15  and  C_21
                            x       y       z     vdW  Elec       q    Type
                         _______ _______ _______ _____ _____    ______ ____

>  <TORSDO>
F 8

$$$$
=
 OpenBabel11052417353D

 25 27  0  0  1  0  0  0  0  0999 V2000
  186.9920  177.9500  143.5070 C   0  0  0  0  0  0  0  0  0  0  0  0
  186.9280  177.5860  144.8720 C   0  0  0  0  0  0  0  0  0  0  0  0
  185.2120  179.5670  143.8670 C   0  0  0  0  0  3  0  0  0  0  0  0
  185.1520  179.2180  145.2160 C   0  0  0  0  0  3  0  0  0  0  0  0
  185.9270  177.8660  147.0850 C   0  0  0  0  0  0  0  0  0  0  0  0
  185.0240  178.4850  147.9420 O   0  0  0  0  0  1  0  0  0  0  0  0
  187.7600  176.5860  145.3980 C   0  0  0  0  0  3  0  0  0  0  0  0
  186.1210  178.9340  143.0190 C   0  0  0  0  0  3  0  0  0  0  0  0
  186.7660  176.8670  147.5840 C   0  0  0  0  0  3  0  0  0  0  0  0
  187.6830  176.2300  146.7450 C   0  0  0  0  0  0  0  0  0  0  0  0
  186.0000  178.2300  145.7300 C   0  0  0  0  0  0  0  0  0  0  0  0
  187.9320  177.2780  142.5360 C   0  0  0  0  0  0  0  0  0  0  0  0
  188.4240  178.2320  141.4650 C   0  0  0  0  0  2  0  0  0  0  0  0
  189.4010  177.6580  142.4700 C   0  0  0  0  0  2  0  0  0  0  0  0
  187.5460  175.9900  141.9460 N   0  0  0  0  0  2  0  0  0  0  0  0
  188.6350  174.4160  140.3630 C   0  0  0  0  0  1  0  0  0  0  0  0
  188.6770  175.0780  141.7300 C   0  0  0  0  0  3  0  0  0  0  0  0
  188.8480  174.0590  142.8460 C   0  0  0  0  0  1  0  0  0  0  0  0
  188.5550  175.1480  147.2780 C   0  0  0  0  0  2  0  0  0  0  0  0
  189.7600  174.9510  146.3650 C   0  0  0  0  0  2  0  0  0  0  0  0
  191.0060  175.6470  146.9020 C   0  0  1  0  0  3  0  0  0  0  0  0
  191.2890  175.2080  148.1980 O   0  0  0  0  0  1  0  0  0  0  0  0
  192.1990  175.4150  145.9870 C   0  0  0  0  0  2  0  0  0  0  0  0
  193.2930  176.4220  146.2850 C   0  0  0  0  0  2  0  0  0  0  0  0
  194.6270  175.7100  146.3560 C   0  0  0  0  0  1  0  0  0  0  0  0
  1  2  1  0  0  0  0
  2  7  2  0  0  0  0
  2 11  1  0  0  0  0
  3  4  2  0  0  0  0
  4 11  1  0  0  0  0
  5  9  1  0  0  0  0
  5  6  1  0  0  0  0
  7 10  1  0  0  0  0
  8  1  2  0  0  0  0
  8  3  1  0  0  0  0
 10 19  1  0  0  0  0
 10  9  2  0  0  0  0
 11  5  2  0  0  0  0
 12  1  1  0  0  0  0
 13 14  1  0  0  0  0
 13 12  1  0  0  0  0
 14 12  1  0  0  0  0
 15 12  1  0  0  0  0
 16 17  1  0  0  0  0
 17 15  1  0  0  0  0
 17 18  1  0  0  0  0
 20 21  1  0  0  0  0
 20 19  1  0  0  0  0
 21 22  1  1  0  0  0
 23 24  1  0  0  0  0
 23 21  1  0  0  0  0
 24 25  1  0  0  0  0
M  END
>  <MODEL>
6

>  <REMARK>
 VINA RESULT:      -6.1      2.123      5.762
  Name = 
  8 active torsions:
  status: ('A' for Active; 'I' for Inactive)
    1  A    between atoms: C_1  and  C_5
    2  A    between atoms: C_2  and  C_7
    3  A    between atoms: C_2  and  C_21
    4  A    between atoms: C_5  and  N_10
    5  A    between atoms: C_6  and  C_15
    6  A    between atoms: C_6  and  C_23
    7  A    between atoms: N_10  and  C_11
    8  A    between atoms: C_15  and  C_21
                            x       y       z     vdW  Elec       q    Type
                         _______ _______ _______ _____ _____    ______ ____

>  <TORSDO>
F 8

$$$$
=
 OpenBabel11052417353D

 25 27  0  0  1  0  0  0  0  0999 V2000
  187.7410  176.5580  146.0140 C   0  0  0  0  0  0  0  0  0  0  0  0
  187.1200  176.7910  144.7650 C   0  0  0  0  0  0  0  0  0  0  0  0
  185.8470  177.5940  147.1340 C   0  0  0  0  0  3  0  0  0  0  0  0
  185.2260  177.8160  145.9050 C   0  0  0  0  0  3  0  0  0  0  0  0
  185.2350  177.6630  143.4760 C   0  0  0  0  0  0  0  0  0  0  0  0
  183.9910  178.2820  143.4070 O   0  0  0  0  0  1  0  0  0  0  0  0
  187.7420  176.4180  143.5630 C   0  0  0  0  0  3  0  0  0  0  0  0
  187.0960  176.9750  147.1860 C   0  0  0  0  0  3  0  0  0  0  0  0
  185.8730  177.2830  142.2940 C   0  0  0  0  0  3  0  0  0  0  0  0
  187.1220  176.6580  142.3360 C   0  0  0  0  0  0  0  0  0  0  0  0
  185.8510  177.4230  144.7150 C   0  0  0  0  0  0  0  0  0  0  0  0
  189.1050  175.9230  146.1310 C   0  0  0  0  0  0  0  0  0  0  0  0
  189.1700  174.9150  147.2610 C   0  0  0  0  0  2  0  0  0  0  0  0
  189.3180  174.4500  145.8260 C   0  0  0  0  0  2  0  0  0  0  0  0
  190.2940  176.7850  146.1360 N   0  0  0  0  0  2  0  0  0  0  0  0
  192.4370  176.4370  144.9300 C   0  0  0  0  0  1  0  0  0  0  0  0
  190.9790  176.8520  144.8380 C   0  0  0  0  0  3  0  0  0  0  0  0
  190.8160  178.1950  144.1420 C   0  0  0  0  0  1  0  0  0  0  0  0
  187.8090  176.2800  141.0710 C   0  0  0  0  0  2  0  0  0  0  0  0
  188.7900  175.1420  141.3300 C   0  0  0  0  0  2  0  0  0  0  0  0
  188.6120  173.9950  140.3410 C   0  0  1  0  0  3  0  0  0  0  0  0
  189.7870  173.7910  139.6140 O   0  0  0  0  0  1  0  0  0  0  0  0
  188.1960  172.7170  141.0540 C   0  0  0  0  0  2  0  0  0  0  0  0
  188.4460  172.8430  142.5450 C   0  0  0  0  0  2  0  0  0  0  0  0
  189.5770  171.9190  142.9460 C   0  0  0  0  0  1  0  0  0  0  0  0
  1 12  1  0  0  0  0
  1  8  1  0  0  0  0
  2  1  2  0  0  0  0
  3  8  2  0  0  0  0
  4  3  1  0  0  0  0
  5 11  1  0  0  0  0
  6  5  1  0  0  0  0
  7  2  1  0  0  0  0
  9 10  1  0  0  0  0
  9  5  2  0  0  0  0
 10  7  2  0  0  0  0
 11  2  1  0  0  0  0
 11  4  2  0  0  0  0
 12 15  1  0  0  0  0
 12 13  1  0  0  0  0
 14 12  1  0  0  0  0
 14 13  1  0  0  0  0
 17 16  1  0  0  0  0
 17 15  1  0  0  0  0
 18 17  1  0  0  0  0
 19 20  1  0  0  0  0
 19 10  1  0  0  0  0
 21 22  1  1  0  0  0
 21 23  1  0  0  0  0
 21 20  1  0  0  0  0
 23 24  1  0  0  0  0
 24 25  1  0  0  0  0
M  END
>  <MODEL>
7

>  <REMARK>
 VINA RESULT:      -6.0      2.323      4.424
  Name = 
  8 active torsions:
  status: ('A' for Active; 'I' for Inactive)
    1  A    between atoms: C_1  and  C_5
    2  A    between atoms: C_2  and  C_7
    3  A    between atoms: C_2  and  C_21
    4  A    between atoms: C_5  and  N_10
    5  A    between atoms: C_6  and  C_15
    6  A    between atoms: C_6  and  C_23
    7  A    between atoms: N_10  and  C_11
    8  A    between atoms: C_15  and  C_21
                            x       y       z     vdW  Elec       q    Type
                         _______ _______ _______ _____ _____    ______ ____

>  <TORSDO>
F 8

$$$$
=
 OpenBabel11052417353D

 25 27  0  0  1  0  0  0  0  0999 V2000
  186.1900  177.7060  143.3110 C   0  0  0  0  0  0  0  0  0  0  0  0
  186.4200  177.4650  144.6850 C   0  0  0  0  0  0  0  0  0  0  0  0
  184.2140  179.0030  143.8810 C   0  0  0  0  0  3  0  0  0  0  0  0
  184.4420  178.7770  145.2380 C   0  0  0  0  0  3  0  0  0  0  0  0
  185.7580  177.7670  147.0190 C   0  0  0  0  0  0  0  0  0  0  0  0
  184.9040  178.2920  147.9830 O   0  0  0  0  0  1  0  0  0  0  0  0
  187.5040  176.6840  145.1150 C   0  0  0  0  0  3  0  0  0  0  0  0
  185.0780  178.4670  142.9260 C   0  0  0  0  0  3  0  0  0  0  0  0
  186.8440  176.9860  147.4220 C   0  0  0  0  0  3  0  0  0  0  0  0
  187.7170  176.4490  146.4740 C   0  0  0  0  0  0  0  0  0  0  0  0
  185.5370  178.0100  145.6530 C   0  0  0  0  0  0  0  0  0  0  0  0
  187.0710  177.1250  142.2310 C   0  0  0  0  0  0  0  0  0  0  0  0
  186.8920  177.8370  140.9050 C   0  0  0  0  0  2  0  0  0  0  0  0
  188.2170  177.9240  141.6350 C   0  0  0  0  0  2  0  0  0  0  0  0
  187.0980  175.6700  142.0390 N   0  0  0  0  0  2  0  0  0  0  0  0
  188.5620  174.4730  140.4290 C   0  0  0  0  0  1  0  0  0  0  0  0
  188.4430  175.1330  141.7920 C   0  0  0  0  0  3  0  0  0  0  0  0
  188.9390  174.2220  142.9060 C   0  0  0  0  0  1  0  0  0  0  0  0
  188.8560  175.5960  146.9090 C   0  0  0  0  0  2  0  0  0  0  0  0
  190.1130  176.4440  147.0680 C   0  0  0  0  0  2  0  0  0  0  0  0
  191.3390  175.7730  146.4590 C   0  0  1  0  0  3  0  0  0  0  0  0
  190.9910  174.5430  145.8950 O   0  0  0  0  0  1  0  0  0  0  0  0
  191.9950  176.6700  145.4210 C   0  0  0  0  0  2  0  0  0  0  0  0
  191.0950  176.8150  144.2090 C   0  0  0  0  0  2  0  0  0  0  0  0
  190.8930  178.2840  143.9040 C   0  0  0  0  0  1  0  0  0  0  0  0
  1  2  1  0  0  0  0
  2  7  2  0  0  0  0
  2 11  1  0  0  0  0
  3  4  2  0  0  0  0
  4 11  1  0  0  0  0
  5  9  1  0  0  0  0
  5  6  1  0  0  0  0
  7 10  1  0  0  0  0
  8  1  2  0  0  0  0
  8  3  1  0  0  0  0
 10 19  1  0  0  0  0
 10  9  2  0  0  0  0
 11  5  2  0  0  0  0
 12  1  1  0  0  0  0
 13 14  1  0  0  0  0
 13 12  1  0  0  0  0
 14 12  1  0  0  0  0
 15 12  1  0  0  0  0
 16 17  1  0  0  0  0
 17 15  1  0  0  0  0
 17 18  1  0  0  0  0
 19 20  1  0  0  0  0
 21 22  1  6  0  0  0
 21 20  1  0  0  0  0
 23 21  1  0  0  0  0
 24 23  1  0  0  0  0
 25 24  1  0  0  0  0
M  END
>  <MODEL>
8

>  <REMARK>
 VINA RESULT:      -6.0      1.849      5.248
  Name = 
  8 active torsions:
  status: ('A' for Active; 'I' for Inactive)
    1  A    between atoms: C_1  and  C_5
    2  A    between atoms: C_2  and  C_7
    3  A    between atoms: C_2  and  C_21
    4  A    between atoms: C_5  and  N_10
    5  A    between atoms: C_6  and  C_15
    6  A    between atoms: C_6  and  C_23
    7  A    between atoms: N_10  and  C_11
    8  A    between atoms: C_15  and  C_21
                            x       y       z     vdW  Elec       q    Type
                         _______ _______ _______ _____ _____    ______ ____

>  <TORSDO>
F 8

$$$$
=
 OpenBabel11052417353D

 25 27  0  0  1  0  0  0  0  0999 V2000
  189.6700  174.5050  144.8260 C   0  0  0  0  0  0  0  0  0  0  0  0
  189.0650  175.0540  143.6720 C   0  0  0  0  0  0  0  0  0  0  0  0
  189.9880  172.4030  143.6460 C   0  0  0  0  0  3  0  0  0  0  0  0
  189.4010  172.9430  142.5020 C   0  0  0  0  0  3  0  0  0  0  0  0
  188.3270  174.8010  141.3550 C   0  0  0  0  0  0  0  0  0  0  0  0
  188.1890  174.0410  140.1980 O   0  0  0  0  0  1  0  0  0  0  0  0
  188.5770  176.3690  143.6620 C   0  0  0  0  0  3  0  0  0  0  0  0
  190.1150  173.1770  144.8000 C   0  0  0  0  0  3  0  0  0  0  0  0
  187.8490  176.1130  141.3700 C   0  0  0  0  0  3  0  0  0  0  0  0
  187.9760  176.8980  142.5180 C   0  0  0  0  0  0  0  0  0  0  0  0
  188.9340  174.2620  142.5010 C   0  0  0  0  0  0  0  0  0  0  0  0
  189.8060  175.2830  146.1130 C   0  0  0  0  0  0  0  0  0  0  0  0
  188.4600  175.7090  146.6670 C   0  0  0  0  0  2  0  0  0  0  0  0
  189.3110  174.7160  147.4320 C   0  0  0  0  0  2  0  0  0  0  0  0
  190.7670  176.3910  146.1780 N   0  0  0  0  0  2  0  0  0  0  0  0
  193.2020  176.0880  146.5630 C   0  0  0  0  0  1  0  0  0  0  0  0
  192.0630  176.0830  145.5580 C   0  0  0  0  0  3  0  0  0  0  0  0
  192.3730  176.9540  144.3500 C   0  0  0  0  0  1  0  0  0  0  0  0
  187.4410  178.2860  142.5360 C   0  0  0  0  0  2  0  0  0  0  0  0
  185.9820  178.2780  142.9770 C   0  0  0  0  0  2  0  0  0  0  0  0
  185.7050  179.3150  144.0600 C   0  0  1  0  0  3  0  0  0  0  0  0
  184.3560  179.6810  144.0510 O   0  0  0  0  0  1  0  0  0  0  0  0
  186.1080  178.7950  145.4310 C   0  0  0  0  0  2  0  0  0  0  0  0
  184.8890  178.3020  146.1850 C   0  0  0  0  0  2  0  0  0  0  0  0
  185.0580  176.8330  146.5120 C   0  0  0  0  0  1  0  0  0  0  0  0
  1 12  1  0  0  0  0
  2  1  2  0  0  0  0
  3  8  2  0  0  0  0
  4  3  1  0  0  0  0
  5  9  2  0  0  0  0
  5 11  1  0  0  0  0
  6  5  1  0  0  0  0
  7  2  1  0  0  0  0
  8  1  1  0  0  0  0
  9 10  1  0  0  0  0
 10 19  1  0  0  0  0
 10  7  2  0  0  0  0
 11  4  2  0  0  0  0
 11  2  1  0  0  0  0
 12 15  1  0  0  0  0
 12 13  1  0  0  0  0
 12 14  1  0  0  0  0
 13 14  1  0  0  0  0
 17 15  1  0  0  0  0
 17 16  1  0  0  0  0
 18 17  1  0  0  0  0
 19 20  1  0  0  0  0
 20 21  1  0  0  0  0
 21 22  1  1  0  0  0
 21 23  1  0  0  0  0
 23 24  1  0  0  0  0
 24 25  1  0  0  0  0
M  END
>  <MODEL>
9

>  <REMARK>
 VINA RESULT:      -5.9      2.255      4.372
  Name = 
  8 active torsions:
  status: ('A' for Active; 'I' for Inactive)
    1  A    between atoms: C_1  and  C_5
    2  A    between atoms: C_2  and  C_7
    3  A    between atoms: C_2  and  C_21
    4  A    between atoms: C_5  and  N_10
    5  A    between atoms: C_6  and  C_15
    6  A    between atoms: C_6  and  C_23
    7  A    between atoms: N_10  and  C_11
    8  A    between atoms: C_15  and  C_21
                            x       y       z     vdW  Elec       q    Type
                         _______ _______ _______ _____ _____    ______ ____

>  <TORSDO>
F 8

$$$$
