=
 OpenBabel11052418283D

 27 30  0  0  1  0  0  0  0  0999 V2000
  189.6330  174.5040  146.9310 C   0  0  0  0  0  2  0  0  0  0  0  0
  188.7950  175.4370  146.0210 C   0  0  2  0  0  3  0  0  0  0  0  0
  190.2080  174.9670  145.5810 C   0  0  2  0  0  0  0  0  0  0  0  0
  190.6440  172.0810  142.9230 C   0  0  0  0  0  2  0  0  0  0  0  0
  189.2910  172.0920  142.2580 C   0  0  0  0  0  2  0  0  0  0  0  0
  190.0060  173.9820  144.3790 C   0  0  1  0  0  3  0  0  0  0  0  0
  191.9380  172.4600  144.7910 O   0  0  0  0  0  1  0  0  0  0  0  0
  188.4820  173.3960  142.4270 C   0  0  0  0  0  2  0  0  0  0  0  0
  189.3270  174.4860  143.0630 C   0  0  0  0  0  2  0  0  0  0  0  0
  190.6470  172.5870  144.3710 C   0  0  2  0  0  3  0  0  0  0  0  0
  193.9100  176.8810  145.5410 C   0  0  0  0  0  3  0  0  0  0  0  0
  191.4300  175.7140  145.7290 C   0  0  0  0  0  0  0  0  0  0  0  0
  191.8610  176.2750  144.5140 C   0  0  0  0  0  3  0  0  0  0  0  0
  193.1290  176.8400  144.4250 C   0  0  0  0  0  3  0  0  0  0  0  0
  193.4780  176.3140  146.7500 C   0  0  0  0  0  3  0  0  0  0  0  0
  192.2460  175.6420  146.8490 C   0  0  0  0  0  3  0  0  0  0  0  0
  188.7840  176.9470  146.4260 C   0  0  0  0  0  2  0  0  0  0  0  0
  186.8140  178.1910  143.4910 C   0  0  0  0  0  3  0  0  0  0  0  0
  184.7530  179.1270  143.0550 O   0  0  0  0  0  1  0  0  0  0  0  0
  185.4000  178.6350  145.3980 C   0  0  0  0  0  0  0  0  0  0  0  0
  184.1820  179.0860  145.8210 O   0  0  0  0  0  1  0  0  0  0  0  0
  186.4290  178.1220  146.2830 C   0  0  0  0  0  0  0  0  0  0  0  0
  185.6730  178.6560  143.9820 C   0  0  0  0  0  0  0  0  0  0  0  0
  187.5690  177.5620  145.6860 C   0  0  0  0  0  0  0  0  0  0  0  0
  187.7420  177.6070  144.3440 C   0  0  0  0  0  3  0  0  0  0  0  0
  186.8570  179.1140  148.4280 O   0  0  0  0  0  1  0  0  0  0  0  0
  186.2740  178.1070  147.6600 O   0  0  0  0  0  0  0  0  0  0  0  0
  2 17  1  1  0  0  0
  2  1  1  0  0  0  0
  3 12  1  6  0  0  0
  3  2  1  0  0  0  0
  3  1  1  0  0  0  0
  4 10  1  0  0  0  0
  5  8  1  0  0  0  0
  5  4  1  0  0  0  0
  6  9  1  6  0  0  0
  6  3  1  0  0  0  0
  8  9  1  0  0  0  0
 10  6  1  0  0  0  0
 10  7  1  6  0  0  0
 11 15  1  0  0  0  0
 12 16  1  0  0  0  0
 13 12  2  0  0  0  0
 14 13  1  0  0  0  0
 14 11  2  0  0  0  0
 15 16  2  0  0  0  0
 18 23  2  0  0  0  0
 18 25  1  0  0  0  0
 19 23  1  0  0  0  0
 20 21  1  0  0  0  0
 20 22  2  0  0  0  0
 22 27  1  0  0  0  0
 23 20  1  0  0  0  0
 24 22  1  0  0  0  0
 24 17  1  0  0  0  0
 25 24  2  0  0  0  0
 27 26  1  0  0  0  0
M  END
>  <MODEL>
1

>  <REMARK>
 VINA RESULT:      -7.4      0.000      0.000
  Name = 
  5 active torsions:
  status: ('A' for Active; 'I' for Inactive)
    1  A    between atoms: C_2  and  C_6
    2  A    between atoms: C_6  and  C_17
    3  A    between atoms: C_9  and  C_15
    4  A    between atoms: C_14  and  O_19
    5  A    between atoms: C_15  and  C_18
                            x       y       z     vdW  Elec       q    Type
                         _______ _______ _______ _____ _____    ______ ____

>  <TORSDO>
F 5

$$$$
=
 OpenBabel11052418283D

 27 30  0  0  1  0  0  0  0  0999 V2000
  189.4030  174.4670  146.8500 C   0  0  0  0  0  2  0  0  0  0  0  0
  188.6510  175.4880  145.9600 C   0  0  2  0  0  3  0  0  0  0  0  0
  190.0420  174.9460  145.5350 C   0  0  2  0  0  0  0  0  0  0  0  0
  190.3490  172.1310  142.7850 C   0  0  0  0  0  2  0  0  0  0  0  0
  189.0310  172.2790  142.0690 C   0  0  0  0  0  2  0  0  0  0  0  0
  189.8100  174.0250  144.2880 C   0  0  1  0  0  3  0  0  0  0  0  0
  191.5910  172.3330  144.7140 O   0  0  0  0  0  1  0  0  0  0  0  0
  188.3260  173.6390  142.2580 C   0  0  0  0  0  2  0  0  0  0  0  0
  189.2300  174.6310  142.9680 C   0  0  0  0  0  2  0  0  0  0  0  0
  190.3340  172.5820  144.2500 C   0  0  2  0  0  3  0  0  0  0  0  0
  193.8460  176.6460  145.6460 C   0  0  0  0  0  3  0  0  0  0  0  0
  191.3050  175.6060  145.7420 C   0  0  0  0  0  0  0  0  0  0  0  0
  191.7620  176.2570  144.5840 C   0  0  0  0  0  3  0  0  0  0  0  0
  193.0590  176.7570  144.5380 C   0  0  0  0  0  3  0  0  0  0  0  0
  193.3880  175.9890  146.7980 C   0  0  0  0  0  3  0  0  0  0  0  0
  192.1190  175.3800  146.8430 C   0  0  0  0  0  3  0  0  0  0  0  0
  188.7250  176.9780  146.4270 C   0  0  0  0  0  2  0  0  0  0  0  0
  185.1200  177.8960  146.8760 C   0  0  0  0  0  3  0  0  0  0  0  0
  183.4490  178.9840  145.7180 O   0  0  0  0  0  1  0  0  0  0  0  0
  185.6710  178.6840  144.6600 C   0  0  0  0  0  0  0  0  0  0  0  0
  185.2310  179.3630  143.5590 O   0  0  0  0  0  1  0  0  0  0  0  0
  187.0110  178.1440  144.8000 C   0  0  0  0  0  0  0  0  0  0  0  0
  184.7510  178.5050  145.7560 C   0  0  0  0  0  0  0  0  0  0  0  0
  187.3570  177.5980  146.0450 C   0  0  0  0  0  0  0  0  0  0  0  0
  186.4360  177.4820  147.0310 C   0  0  0  0  0  3  0  0  0  0  0  0
  187.6920  177.6010  142.5610 O   0  0  0  0  0  1  0  0  0  0  0  0
  187.9470  178.2270  143.7810 O   0  0  0  0  0  0  0  0  0  0  0  0
  2 17  1  1  0  0  0
  2  1  1  0  0  0  0
  3 12  1  1  0  0  0
  3  2  1  0  0  0  0
  3  1  1  0  0  0  0
  4 10  1  0  0  0  0
  5  8  1  0  0  0  0
  5  4  1  0  0  0  0
  6  9  1  6  0  0  0
  6  3  1  0  0  0  0
  8  9  1  0  0  0  0
 10  6  1  0  0  0  0
 10  7  1  6  0  0  0
 11 15  1  0  0  0  0
 12 16  1  0  0  0  0
 13 12  2  0  0  0  0
 14 13  1  0  0  0  0
 14 11  2  0  0  0  0
 15 16  2  0  0  0  0
 18 25  1  0  0  0  0
 19 23  1  0  0  0  0
 20 22  2  0  0  0  0
 20 23  1  0  0  0  0
 21 20  1  0  0  0  0
 22 24  1  0  0  0  0
 23 18  2  0  0  0  0
 24 17  1  0  0  0  0
 24 25  2  0  0  0  0
 26 27  1  0  0  0  0
 27 22  1  0  0  0  0
M  END
>  <MODEL>
2

>  <REMARK>
 VINA RESULT:      -7.3      1.198      1.946
  Name = 
  5 active torsions:
  status: ('A' for Active; 'I' for Inactive)
    1  A    between atoms: C_2  and  C_6
    2  A    between atoms: C_6  and  C_17
    3  A    between atoms: C_9  and  C_15
    4  A    between atoms: C_14  and  O_19
    5  A    between atoms: C_15  and  C_18
                            x       y       z     vdW  Elec       q    Type
                         _______ _______ _______ _____ _____    ______ ____

>  <TORSDO>
F 5

$$$$
=
 OpenBabel11052418283D

 27 30  0  0  1  0  0  0  0  0999 V2000
  190.9550  177.4220  143.1220 C   0  0  0  0  0  2  0  0  0  0  0  0
  189.5450  177.4820  143.7600 C   0  0  2  0  0  3  0  0  0  0  0  0
  190.3140  176.1370  143.6720 C   0  0  2  0  0  0  0  0  0  0  0  0
  192.3280  175.1530  146.9220 C   0  0  0  0  0  2  0  0  0  0  0  0
  191.2620  175.2970  147.9790 C   0  0  0  0  0  2  0  0  0  0  0  0
  190.7160  175.7460  145.1360 C   0  0  1  0  0  3  0  0  0  0  0  0
  193.1960  175.7840  144.8840 O   0  0  0  0  0  1  0  0  0  0  0  0
  189.8080  175.2520  147.4610 C   0  0  0  0  0  2  0  0  0  0  0  0
  189.7610  174.8550  145.9960 C   0  0  0  0  0  2  0  0  0  0  0  0
  192.1210  176.0340  145.6840 C   0  0  2  0  0  3  0  0  0  0  0  0
  189.6680  172.8790  141.1530 C   0  0  0  0  0  3  0  0  0  0  0  0
  190.1400  175.1280  142.6590 C   0  0  0  0  0  0  0  0  0  0  0  0
  188.9650  174.3810  142.8480 C   0  0  0  0  0  3  0  0  0  0  0  0
  188.7500  173.2300  142.0970 C   0  0  0  0  0  3  0  0  0  0  0  0
  190.8430  173.6250  140.9720 C   0  0  0  0  0  3  0  0  0  0  0  0
  191.1430  174.7350  141.7840 C   0  0  0  0  0  3  0  0  0  0  0  0
  188.3480  177.5340  142.7550 C   0  0  0  0  0  2  0  0  0  0  0  0
  186.2070  177.3130  145.8230 C   0  0  0  0  0  3  0  0  0  0  0  0
  184.1070  177.9550  146.5240 O   0  0  0  0  0  1  0  0  0  0  0  0
  184.8070  178.4100  144.1890 C   0  0  0  0  0  0  0  0  0  0  0  0
  183.6070  179.0190  143.9560 O   0  0  0  0  0  1  0  0  0  0  0  0
  185.8580  178.2770  143.1970 C   0  0  0  0  0  0  0  0  0  0  0  0
  185.0490  177.8770  145.5080 C   0  0  0  0  0  0  0  0  0  0  0  0
  187.0860  177.7550  143.6290 C   0  0  0  0  0  0  0  0  0  0  0  0
  187.2380  177.2910  144.8920 C   0  0  0  0  0  3  0  0  0  0  0  0
  184.9620  177.9450  140.9930 O   0  0  0  0  0  1  0  0  0  0  0  0
  185.6970  178.7170  141.8920 O   0  0  0  0  0  0  0  0  0  0  0  0
  1  3  1  0  0  0  0
  1  2  1  0  0  0  0
  2 17  1  6  0  0  0
  3 12  1  6  0  0  0
  3  2  1  0  0  0  0
  3  6  1  0  0  0  0
  4  5  1  0  0  0  0
  6 10  1  0  0  0  0
  6  9  1  6  0  0  0
  8  5  1  0  0  0  0
  9  8  1  0  0  0  0
 10  7  1  6  0  0  0
 10  4  1  0  0  0  0
 11 14  1  0  0  0  0
 12 13  1  0  0  0  0
 14 13  2  0  0  0  0
 15 11  2  0  0  0  0
 15 16  1  0  0  0  0
 16 12  2  0  0  0  0
 17 24  1  0  0  0  0
 20 23  2  0  0  0  0
 21 20  1  0  0  0  0
 22 24  2  0  0  0  0
 22 20  1  0  0  0  0
 23 18  1  0  0  0  0
 23 19  1  0  0  0  0
 24 25  1  0  0  0  0
 25 18  2  0  0  0  0
 26 27  1  0  0  0  0
 27 22  1  0  0  0  0
M  END
>  <MODEL>
3

>  <REMARK>
 VINA RESULT:      -7.2      1.693      4.438
  Name = 
  5 active torsions:
  status: ('A' for Active; 'I' for Inactive)
    1  A    between atoms: C_2  and  C_6
    2  A    between atoms: C_6  and  C_17
    3  A    between atoms: C_9  and  C_15
    4  A    between atoms: C_14  and  O_19
    5  A    between atoms: C_15  and  C_18
                            x       y       z     vdW  Elec       q    Type
                         _______ _______ _______ _____ _____    ______ ____

>  <TORSDO>
F 5

$$$$
=
 OpenBabel11052418283D

 27 30  0  0  1  0  0  0  0  0999 V2000
  190.1060  176.6650  142.7420 C   0  0  0  0  0  2  0  0  0  0  0  0
  189.0700  176.7370  143.8910 C   0  0  2  0  0  3  0  0  0  0  0  0
  190.0960  175.5730  143.8260 C   0  0  2  0  0  0  0  0  0  0  0  0
  193.3270  175.7010  146.0900 C   0  0  0  0  0  2  0  0  0  0  0  0
  192.8270  176.5050  147.2640 C   0  0  0  0  0  2  0  0  0  0  0  0
  191.0960  175.7810  145.0140 C   0  0  1  0  0  3  0  0  0  0  0  0
  193.2190  175.1920  143.8460 O   0  0  0  0  0  1  0  0  0  0  0  0
  191.2930  176.5420  147.4340 C   0  0  0  0  0  2  0  0  0  0  0  0
  190.6130  175.5700  146.4870 C   0  0  0  0  0  2  0  0  0  0  0  0
  192.5990  175.9800  144.7700 C   0  0  2  0  0  3  0  0  0  0  0  0
  189.7570  171.5940  142.6320 C   0  0  0  0  0  3  0  0  0  0  0  0
  189.8510  174.2610  143.2860 C   0  0  0  0  0  0  0  0  0  0  0  0
  189.7190  173.2870  144.2910 C   0  0  0  0  0  3  0  0  0  0  0  0
  189.6990  171.9390  143.9500 C   0  0  0  0  0  3  0  0  0  0  0  0
  189.8950  172.5690  141.6320 C   0  0  0  0  0  3  0  0  0  0  0  0
  190.0240  173.9350  141.9480 C   0  0  0  0  0  3  0  0  0  0  0  0
  187.6250  176.2590  143.5320 C   0  0  0  0  0  2  0  0  0  0  0  0
  186.4320  177.2640  146.9390 C   0  0  0  0  0  3  0  0  0  0  0  0
  184.7040  178.4570  147.8910 O   0  0  0  0  0  1  0  0  0  0  0  0
  184.7600  178.1400  145.4320 C   0  0  0  0  0  0  0  0  0  0  0  0
  183.6200  178.8840  145.3180 O   0  0  0  0  0  1  0  0  0  0  0  0
  185.4640  177.5530  144.3070 C   0  0  0  0  0  0  0  0  0  0  0  0
  185.3040  177.9370  146.7520 C   0  0  0  0  0  0  0  0  0  0  0  0
  186.6970  176.9380  144.5710 C   0  0  0  0  0  0  0  0  0  0  0  0
  187.1470  176.8030  145.8410 C   0  0  0  0  0  3  0  0  0  0  0  0
  185.3940  178.7300  142.2140 O   0  0  0  0  0  1  0  0  0  0  0  0
  184.9900  177.6570  143.0080 O   0  0  0  0  0  0  0  0  0  0  0  0
  1  3  1  0  0  0  0
  1  2  1  0  0  0  0
  2 17  1  6  0  0  0
  3 12  1  6  0  0  0
  3  2  1  0  0  0  0
  3  6  1  0  0  0  0
  4  5  1  0  0  0  0
  5  8  1  0  0  0  0
  6  9  1  1  0  0  0
  9  8  1  0  0  0  0
 10  7  1  6  0  0  0
 10  6  1  0  0  0  0
 10  4  1  0  0  0  0
 11 14  1  0  0  0  0
 12 13  1  0  0  0  0
 14 13  2  0  0  0  0
 15 16  1  0  0  0  0
 15 11  2  0  0  0  0
 16 12  2  0  0  0  0
 17 24  1  0  0  0  0
 20 23  2  0  0  0  0
 21 20  1  0  0  0  0
 22 24  2  0  0  0  0
 22 20  1  0  0  0  0
 23 18  1  0  0  0  0
 23 19  1  0  0  0  0
 24 25  1  0  0  0  0
 25 18  2  0  0  0  0
 26 27  1  0  0  0  0
 27 22  1  0  0  0  0
M  END
>  <MODEL>
4

>  <REMARK>
 VINA RESULT:      -7.0      1.385      4.463
  Name = 
  5 active torsions:
  status: ('A' for Active; 'I' for Inactive)
    1  A    between atoms: C_2  and  C_6
    2  A    between atoms: C_6  and  C_17
    3  A    between atoms: C_9  and  C_15
    4  A    between atoms: C_14  and  O_19
    5  A    between atoms: C_15  and  C_18
                            x       y       z     vdW  Elec       q    Type
                         _______ _______ _______ _____ _____    ______ ____

>  <TORSDO>
F 5

$$$$
=
 OpenBabel11052418283D

 27 30  0  0  1  0  0  0  0  0999 V2000
  189.3160  177.9150  144.7590 C   0  0  0  0  0  2  0  0  0  0  0  0
  189.2060  176.3960  144.4790 C   0  0  2  0  0  3  0  0  0  0  0  0
  187.9300  177.2760  144.5700 C   0  0  2  0  0  0  0  0  0  0  0  0
  185.8590  178.3110  141.3720 C   0  0  0  0  0  2  0  0  0  0  0  0
  186.5550  177.5070  140.3030 C   0  0  0  0  0  2  0  0  0  0  0  0
  187.3310  177.3590  143.1240 C   0  0  1  0  0  3  0  0  0  0  0  0
  185.9430  179.4130  143.3930 O   0  0  0  0  0  1  0  0  0  0  0  0
  187.3720  176.2990  140.8110 C   0  0  0  0  0  2  0  0  0  0  0  0
  187.1240  176.0530  142.2880 C   0  0  0  0  0  2  0  0  0  0  0  0
  186.7390  178.6660  142.5770 C   0  0  2  0  0  3  0  0  0  0  0  0
  185.0880  177.8280  147.5690 C   0  0  0  0  0  3  0  0  0  0  0  0
  187.0890  177.4260  145.7290 C   0  0  0  0  0  0  0  0  0  0  0  0
  185.8360  176.8110  145.5610 C   0  0  0  0  0  3  0  0  0  0  0  0
  184.8230  177.0430  146.4860 C   0  0  0  0  0  3  0  0  0  0  0  0
  186.3390  178.4440  147.7290 C   0  0  0  0  0  3  0  0  0  0  0  0
  187.3520  178.3170  146.7600 C   0  0  0  0  0  3  0  0  0  0  0  0
  189.3600  175.4640  145.7250 C   0  0  0  0  0  2  0  0  0  0  0  0
  193.0630  175.4510  146.2980 C   0  0  0  0  0  3  0  0  0  0  0  0
  194.8850  174.1140  145.8440 O   0  0  0  0  0  1  0  0  0  0  0  0
  192.6460  173.4500  145.0120 C   0  0  0  0  0  0  0  0  0  0  0  0
  193.1880  172.3160  144.4780 O   0  0  0  0  0  1  0  0  0  0  0  0
  191.2380  173.7930  144.9320 C   0  0  0  0  0  0  0  0  0  0  0  0
  193.5250  174.3540  145.7120 C   0  0  0  0  0  0  0  0  0  0  0  0
  190.8090  174.9180  145.6530 C   0  0  0  0  0  0  0  0  0  0  0  0
  191.6980  175.7070  146.3010 C   0  0  0  0  0  3  0  0  0  0  0  0
  189.6360  172.0040  144.9150 O   0  0  0  0  0  1  0  0  0  0  0  0
  190.3280  173.0090  144.2400 O   0  0  0  0  0  0  0  0  0  0  0  0
  2  3  1  0  0  0  0
  2  1  1  0  0  0  0
  2 17  1  1  0  0  0
  3  1  1  0  0  0  0
  3 12  1  1  0  0  0
  4 10  1  0  0  0  0
  5  8  1  0  0  0  0
  5  4  1  0  0  0  0
  6  9  1  1  0  0  0
  6  3  1  0  0  0  0
  8  9  1  0  0  0  0
 10  6  1  0  0  0  0
 10  7  1  1  0  0  0
 11 15  1  0  0  0  0
 12 16  1  0  0  0  0
 13 12  2  0  0  0  0
 13 14  1  0  0  0  0
 14 11  2  0  0  0  0
 16 15  2  0  0  0  0
 18 25  1  0  0  0  0
 20 23  1  0  0  0  0
 21 20  1  0  0  0  0
 22 20  2  0  0  0  0
 22 24  1  0  0  0  0
 23 19  1  0  0  0  0
 23 18  2  0  0  0  0
 24 17  1  0  0  0  0
 24 25  2  0  0  0  0
 27 26  1  0  0  0  0
 27 22  1  0  0  0  0
M  END
>  <MODEL>
5

>  <REMARK>
 VINA RESULT:      -7.0      2.181      6.978
  Name = 
  5 active torsions:
  status: ('A' for Active; 'I' for Inactive)
    1  A    between atoms: C_2  and  C_6
    2  A    between atoms: C_6  and  C_17
    3  A    between atoms: C_9  and  C_15
    4  A    between atoms: C_14  and  O_19
    5  A    between atoms: C_15  and  C_18
                            x       y       z     vdW  Elec       q    Type
                         _______ _______ _______ _____ _____    ______ ____

>  <TORSDO>
F 5

$$$$
=
 OpenBabel11052418283D

 27 30  0  0  1  0  0  0  0  0999 V2000
  189.7110  176.9510  143.9820 C   0  0  0  0  0  2  0  0  0  0  0  0
  189.5130  176.7650  145.5070 C   0  0  2  0  0  3  0  0  0  0  0  0
  190.4780  175.8390  144.7180 C   0  0  2  0  0  0  0  0  0  0  0  0
  194.3480  176.6100  144.8110 C   0  0  0  0  0  2  0  0  0  0  0  0
  194.5010  177.1610  146.2060 C   0  0  0  0  0  2  0  0  0  0  0  0
  191.9320  176.2000  145.1770 C   0  0  1  0  0  3  0  0  0  0  0  0
  193.0400  176.2730  142.9450 O   0  0  0  0  0  1  0  0  0  0  0  0
  193.3720  176.7890  147.1910 C   0  0  0  0  0  2  0  0  0  0  0  0
  192.4390  175.7540  146.5890 C   0  0  0  0  0  2  0  0  0  0  0  0
  192.9540  176.7980  144.2000 C   0  0  2  0  0  3  0  0  0  0  0  0
  189.1060  172.2630  143.0720 C   0  0  0  0  0  3  0  0  0  0  0  0
  190.1650  174.5260  144.2160 C   0  0  0  0  0  0  0  0  0  0  0  0
  189.6550  174.5640  142.9070 C   0  0  0  0  0  3  0  0  0  0  0  0
  189.0980  173.4180  142.3480 C   0  0  0  0  0  3  0  0  0  0  0  0
  189.6110  172.2310  144.3810 C   0  0  0  0  0  3  0  0  0  0  0  0
  190.0860  173.3950  145.0160 C   0  0  0  0  0  3  0  0  0  0  0  0
  188.2080  176.0170  145.9340 C   0  0  0  0  0  2  0  0  0  0  0  0
  185.8760  176.9430  143.1510 C   0  0  0  0  0  3  0  0  0  0  0  0
  184.1290  178.3950  142.7620 O   0  0  0  0  0  1  0  0  0  0  0  0
  185.2870  178.4390  144.9540 C   0  0  0  0  0  0  0  0  0  0  0  0
  184.4320  179.4150  145.3780 O   0  0  0  0  0  1  0  0  0  0  0  0
  186.3480  177.8770  145.7690 C   0  0  0  0  0  0  0  0  0  0  0  0
  185.1140  177.9240  143.6170 C   0  0  0  0  0  0  0  0  0  0  0  0
  187.0500  176.7810  145.2440 C   0  0  0  0  0  0  0  0  0  0  0  0
  186.8150  176.3470  143.9830 C   0  0  0  0  0  3  0  0  0  0  0  0
  185.9430  177.7880  148.1350 O   0  0  0  0  0  1  0  0  0  0  0  0
  186.6180  178.3410  147.0470 O   0  0  0  0  0  0  0  0  0  0  0  0
  1  3  1  0  0  0  0
  1  2  1  0  0  0  0
  2 17  1  6  0  0  0
  3 12  1  6  0  0  0
  3  6  1  0  0  0  0
  3  2  1  0  0  0  0
  4  5  1  0  0  0  0
  5  8  1  0  0  0  0
  6  9  1  6  0  0  0
  9  8  1  0  0  0  0
 10  7  1  6  0  0  0
 10  4  1  0  0  0  0
 10  6  1  0  0  0  0
 11 15  1  0  0  0  0
 12 16  1  0  0  0  0
 13 12  2  0  0  0  0
 14 13  1  0  0  0  0
 14 11  2  0  0  0  0
 15 16  2  0  0  0  0
 18 23  2  0  0  0  0
 18 25  1  0  0  0  0
 19 23  1  0  0  0  0
 20 21  1  0  0  0  0
 20 22  2  0  0  0  0
 22 27  1  0  0  0  0
 23 20  1  0  0  0  0
 24 22  1  0  0  0  0
 24 17  1  0  0  0  0
 25 24  2  0  0  0  0
 27 26  1  0  0  0  0
M  END
>  <MODEL>
6

>  <REMARK>
 VINA RESULT:      -6.9      1.324      3.948
  Name = 
  5 active torsions:
  status: ('A' for Active; 'I' for Inactive)
    1  A    between atoms: C_2  and  C_6
    2  A    between atoms: C_6  and  C_17
    3  A    between atoms: C_9  and  C_15
    4  A    between atoms: C_14  and  O_19
    5  A    between atoms: C_15  and  C_18
                            x       y       z     vdW  Elec       q    Type
                         _______ _______ _______ _____ _____    ______ ____

>  <TORSDO>
F 5

$$$$
=
 OpenBabel11052418283D

 27 30  0  0  1  0  0  0  0  0999 V2000
  189.3110  177.9130  144.7360 C   0  0  0  0  0  2  0  0  0  0  0  0
  189.2110  176.3930  144.4570 C   0  0  2  0  0  3  0  0  0  0  0  0
  187.9300  177.2650  144.5450 C   0  0  2  0  0  0  0  0  0  0  0  0
  185.8630  178.2890  141.3410 C   0  0  0  0  0  2  0  0  0  0  0  0
  186.5630  177.4840  140.2750 C   0  0  0  0  0  2  0  0  0  0  0  0
  187.3330  177.3440  143.0980 C   0  0  1  0  0  3  0  0  0  0  0  0
  185.9400  179.3950  143.3600 O   0  0  0  0  0  1  0  0  0  0  0  0
  187.3810  176.2790  140.7870 C   0  0  0  0  0  2  0  0  0  0  0  0
  187.1310  176.0360  142.2640 C   0  0  0  0  0  2  0  0  0  0  0  0
  186.7400  178.6490  142.5470 C   0  0  2  0  0  3  0  0  0  0  0  0
  185.0790  177.8060  147.5380 C   0  0  0  0  0  3  0  0  0  0  0  0
  187.0850  177.4110  145.7020 C   0  0  0  0  0  0  0  0  0  0  0  0
  185.8330  176.7970  145.5280 C   0  0  0  0  0  3  0  0  0  0  0  0
  184.8170  177.0250  146.4510 C   0  0  0  0  0  3  0  0  0  0  0  0
  186.3290  178.4220  147.7040 C   0  0  0  0  0  3  0  0  0  0  0  0
  187.3460  178.2980  146.7370 C   0  0  0  0  0  3  0  0  0  0  0  0
  189.3690  175.4630  145.7040 C   0  0  0  0  0  2  0  0  0  0  0  0
  190.9380  172.3280  144.3820 C   0  0  0  0  0  3  0  0  0  0  0  0
  193.0370  171.4080  144.1370 O   0  0  0  0  0  1  0  0  0  0  0  0
  192.7920  173.6090  145.2500 C   0  0  0  0  0  0  0  0  0  0  0  0
  194.1480  173.6800  145.3950 O   0  0  0  0  0  1  0  0  0  0  0  0
  191.8720  174.6400  145.6970 C   0  0  0  0  0  0  0  0  0  0  0  0
  192.2410  172.4460  144.6000 C   0  0  0  0  0  0  0  0  0  0  0  0
  190.5210  174.4900  145.3490 C   0  0  0  0  0  0  0  0  0  0  0  0
  190.0870  173.3720  144.7210 C   0  0  0  0  0  3  0  0  0  0  0  0
  192.9220  176.8000  145.6620 O   0  0  0  0  0  1  0  0  0  0  0  0
  192.3060  175.7700  146.3720 O   0  0  0  0  0  0  0  0  0  0  0  0
  2  3  1  0  0  0  0
  2  1  1  0  0  0  0
  2 17  1  1  0  0  0
  3  1  1  0  0  0  0
  3 12  1  1  0  0  0
  4 10  1  0  0  0  0
  5  8  1  0  0  0  0
  5  4  1  0  0  0  0
  6  9  1  1  0  0  0
  6  3  1  0  0  0  0
  8  9  1  0  0  0  0
 10  6  1  0  0  0  0
 10  7  1  1  0  0  0
 11 15  1  0  0  0  0
 12 16  1  0  0  0  0
 13 12  2  0  0  0  0
 13 14  1  0  0  0  0
 14 11  2  0  0  0  0
 16 15  2  0  0  0  0
 18 23  2  0  0  0  0
 18 25  1  0  0  0  0
 19 23  1  0  0  0  0
 20 21  1  0  0  0  0
 20 22  2  0  0  0  0
 22 27  1  0  0  0  0
 23 20  1  0  0  0  0
 24 22  1  0  0  0  0
 24 17  1  0  0  0  0
 25 24  2  0  0  0  0
 26 27  1  0  0  0  0
M  END
>  <MODEL>
7

>  <REMARK>
 VINA RESULT:      -6.9      2.198      6.867
  Name = 
  5 active torsions:
  status: ('A' for Active; 'I' for Inactive)
    1  A    between atoms: C_2  and  C_6
    2  A    between atoms: C_6  and  C_17
    3  A    between atoms: C_9  and  C_15
    4  A    between atoms: C_14  and  O_19
    5  A    between atoms: C_15  and  C_18
                            x       y       z     vdW  Elec       q    Type
                         _______ _______ _______ _____ _____    ______ ____

>  <TORSDO>
F 5

$$$$
=
 OpenBabel11052418283D

 27 30  0  0  1  0  0  0  0  0999 V2000
  189.5510  178.0130  143.9250 C   0  0  0  0  0  2  0  0  0  0  0  0
  189.5410  176.5130  143.5380 C   0  0  2  0  0  3  0  0  0  0  0  0
  188.2210  177.2390  143.9160 C   0  0  2  0  0  0  0  0  0  0  0  0
  185.5680  178.2940  141.1900 C   0  0  0  0  0  2  0  0  0  0  0  0
  186.1060  177.5880  139.9720 C   0  0  0  0  0  2  0  0  0  0  0  0
  187.3740  177.3540  142.6030 C   0  0  1  0  0  3  0  0  0  0  0  0
  185.9470  179.3010  143.2270 O   0  0  0  0  0  1  0  0  0  0  0  0
  187.0630  176.4110  140.2600 C   0  0  0  0  0  2  0  0  0  0  0  0
  187.0930  176.0790  141.7400 C   0  0  0  0  0  2  0  0  0  0  0  0
  186.6260  178.6460  142.2430 C   0  0  2  0  0  3  0  0  0  0  0  0
  185.9310  177.3660  147.3960 C   0  0  0  0  0  3  0  0  0  0  0  0
  187.5850  177.2170  145.2070 C   0  0  0  0  0  0  0  0  0  0  0  0
  186.2850  176.6860  145.1520 C   0  0  0  0  0  3  0  0  0  0  0  0
  185.4480  176.7900  146.2580 C   0  0  0  0  0  3  0  0  0  0  0  0
  187.2270  177.9000  147.4440 C   0  0  0  0  0  3  0  0  0  0  0  0
  188.0650  177.9060  146.3130 C   0  0  0  0  0  3  0  0  0  0  0  0
  190.0010  175.5220  144.6560 C   0  0  0  0  0  2  0  0  0  0  0  0
  193.6450  175.3720  143.7990 C   0  0  0  0  0  3  0  0  0  0  0  0
  195.6620  176.0820  144.6620 O   0  0  0  0  0  1  0  0  0  0  0  0
  193.5740  176.5120  145.9270 C   0  0  0  0  0  0  0  0  0  0  0  0
  194.2970  177.1590  146.8880 O   0  0  0  0  0  1  0  0  0  0  0  0
  192.1320  176.3450  145.9700 C   0  0  0  0  0  0  0  0  0  0  0  0
  194.2850  175.9730  144.7940 C   0  0  0  0  0  0  0  0  0  0  0  0
  191.5170  175.7830  144.8400 C   0  0  0  0  0  0  0  0  0  0  0  0
  192.2570  175.3170  143.8070 C   0  0  0  0  0  3  0  0  0  0  0  0
  190.9660  175.8790  148.0170 O   0  0  0  0  0  1  0  0  0  0  0  0
  191.3720  176.7880  147.0410 O   0  0  0  0  0  0  0  0  0  0  0  0
  2  3  1  0  0  0  0
  2  1  1  0  0  0  0
  2 17  1  1  0  0  0
  3  1  1  0  0  0  0
  3 12  1  1  0  0  0
  4 10  1  0  0  0  0
  5  8  1  0  0  0  0
  5  4  1  0  0  0  0
  6  9  1  1  0  0  0
  6  3  1  0  0  0  0
  8  9  1  0  0  0  0
 10  6  1  0  0  0  0
 10  7  1  1  0  0  0
 11 15  1  0  0  0  0
 12 16  1  0  0  0  0
 13 12  2  0  0  0  0
 13 14  1  0  0  0  0
 14 11  2  0  0  0  0
 16 15  2  0  0  0  0
 17 24  1  0  0  0  0
 18 25  2  0  0  0  0
 18 23  1  0  0  0  0
 19 23  1  0  0  0  0
 20 22  1  0  0  0  0
 20 21  1  0  0  0  0
 22 27  1  0  0  0  0
 23 20  2  0  0  0  0
 24 22  2  0  0  0  0
 25 24  1  0  0  0  0
 27 26  1  0  0  0  0
M  END
>  <MODEL>
8

>  <REMARK>
 VINA RESULT:      -6.8      2.588      6.601
  Name = 
  5 active torsions:
  status: ('A' for Active; 'I' for Inactive)
    1  A    between atoms: C_2  and  C_6
    2  A    between atoms: C_6  and  C_17
    3  A    between atoms: C_9  and  C_15
    4  A    between atoms: C_14  and  O_19
    5  A    between atoms: C_15  and  C_18
                            x       y       z     vdW  Elec       q    Type
                         _______ _______ _______ _____ _____    ______ ____

>  <TORSDO>
F 5

$$$$
=
 OpenBabel11052418283D

 27 30  0  0  1  0  0  0  0  0999 V2000
  188.5000  175.3140  143.6300 C   0  0  0  0  0  2  0  0  0  0  0  0
  189.2340  176.5600  143.0770 C   0  0  2  0  0  3  0  0  0  0  0  0
  190.0300  175.4090  143.7480 C   0  0  2  0  0  0  0  0  0  0  0  0
  192.6840  174.5390  140.9570 C   0  0  0  0  0  2  0  0  0  0  0  0
  192.3790  173.0830  140.7110 C   0  0  0  0  0  2  0  0  0  0  0  0
  190.8480  174.7000  142.6140 C   0  0  1  0  0  3  0  0  0  0  0  0
  192.7100  176.3440  142.3880 O   0  0  0  0  0  1  0  0  0  0  0  0
  190.9780  172.6160  141.1600 C   0  0  0  0  0  2  0  0  0  0  0  0
  190.1140  173.7940  141.5710 C   0  0  0  0  0  2  0  0  0  0  0  0
  192.3250  175.0360  142.3630 C   0  0  2  0  0  3  0  0  0  0  0  0
  190.8230  175.4730  147.8390 C   0  0  0  0  0  3  0  0  0  0  0  0
  190.4820  175.3800  145.1150 C   0  0  0  0  0  0  0  0  0  0  0  0
  189.5590  174.7520  145.9680 C   0  0  0  0  0  3  0  0  0  0  0  0
  189.7280  174.8280  147.3470 C   0  0  0  0  0  3  0  0  0  0  0  0
  191.7400  176.1040  146.9840 C   0  0  0  0  0  3  0  0  0  0  0  0
  191.5440  176.1370  145.5900 C   0  0  0  0  0  3  0  0  0  0  0  0
  189.1810  177.8350  143.9810 C   0  0  0  0  0  2  0  0  0  0  0  0
  186.3490  177.4480  146.4040 C   0  0  0  0  0  3  0  0  0  0  0  0
  184.0790  177.8370  146.4980 O   0  0  0  0  0  1  0  0  0  0  0  0
  185.3100  178.2940  144.3950 C   0  0  0  0  0  0  0  0  0  0  0  0
  184.1520  178.7350  143.8200 O   0  0  0  0  0  1  0  0  0  0  0  0
  186.5940  178.2640  143.7170 C   0  0  0  0  0  0  0  0  0  0  0  0
  185.2570  177.8460  145.7650 C   0  0  0  0  0  0  0  0  0  0  0  0
  187.7170  177.9210  144.4840 C   0  0  0  0  0  0  0  0  0  0  0  0
  187.5840  177.5270  145.7720 C   0  0  0  0  0  3  0  0  0  0  0  0
  186.4040  177.7200  141.3850 O   0  0  0  0  0  1  0  0  0  0  0  0
  186.7320  178.6320  142.3880 O   0  0  0  0  0  0  0  0  0  0  0  0
  1  3  1  0  0  0  0
  2  1  1  0  0  0  0
  2  3  1  0  0  0  0
  2 17  1  1  0  0  0
  3 12  1  1  0  0  0
  4 10  1  0  0  0  0
  5  4  1  0  0  0  0
  5  8  1  0  0  0  0
  6  9  1  6  0  0  0
  6  3  1  0  0  0  0
  8  9  1  0  0  0  0
 10  7  1  6  0  0  0
 10  6  1  0  0  0  0
 12 16  2  0  0  0  0
 12 13  1  0  0  0  0
 13 14  2  0  0  0  0
 14 11  1  0  0  0  0
 15 11  2  0  0  0  0
 16 15  1  0  0  0  0
 17 24  1  0  0  0  0
 20 23  1  0  0  0  0
 21 20  1  0  0  0  0
 22 20  2  0  0  0  0
 22 24  1  0  0  0  0
 23 18  2  0  0  0  0
 23 19  1  0  0  0  0
 24 25  2  0  0  0  0
 25 18  1  0  0  0  0
 26 27  1  0  0  0  0
 27 22  1  0  0  0  0
M  END
>  <MODEL>
9

>  <REMARK>
 VINA RESULT:      -6.7      1.851      3.284
  Name = 
  5 active torsions:
  status: ('A' for Active; 'I' for Inactive)
    1  A    between atoms: C_2  and  C_6
    2  A    between atoms: C_6  and  C_17
    3  A    between atoms: C_9  and  C_15
    4  A    between atoms: C_14  and  O_19
    5  A    between atoms: C_15  and  C_18
                            x       y       z     vdW  Elec       q    Type
                         _______ _______ _______ _____ _____    ______ ____

>  <TORSDO>
F 5

$$$$
