=
 OpenBabel11052418553D

 34 39  0  0  1  0  0  0  0  0999 V2000
  186.4090  177.1580  146.1510 C   0  0  0  0  0  0  0  0  0  0  0  0
  184.9530  178.9140  145.3880 C   0  0  0  0  0  0  0  0  0  0  0  0
  186.2400  177.4900  143.7240 C   0  0  0  0  0  0  0  0  0  0  0  0
  186.0160  177.5050  141.3010 C   0  0  0  0  0  0  0  0  0  0  0  0
  185.0300  178.3150  147.6770 C   0  0  0  0  0  3  0  0  0  0  0  0
  184.5480  179.0840  146.6730 N   0  0  0  0  0  2  0  0  0  0  0  0
  184.1210  178.2930  142.4160 C   0  0  0  0  0  2  0  0  0  0  0  0
  185.8350  177.8500  145.0540 C   0  0  0  0  0  0  0  0  0  0  0  0
  185.0940  177.8560  140.2010 C   0  0  0  0  0  2  0  0  0  0  0  0
  185.9730  177.3790  147.4160 N   0  0  0  0  0  0  0  0  0  0  0  0
  187.3990  176.6630  143.5620 C   0  0  0  0  0  0  0  0  0  0  0  0
  187.4640  176.2740  145.9580 C   0  0  0  0  0  3  0  0  0  0  0  0
  184.5960  179.7680  144.5380 O   0  0  0  0  0  0  0  0  0  0  0  0
  187.1990  176.8060  141.1390 C   0  0  0  0  0  3  0  0  0  0  0  0
  187.9170  176.3810  142.2640 C   0  0  0  0  0  0  0  0  0  0  0  0
  183.9020  178.4910  140.9150 C   0  0  1  0  0  3  0  0  0  0  0  0
  185.5280  177.8290  142.5440 C   0  0  0  0  0  0  0  0  0  0  0  0
  187.9700  176.0550  144.6860 C   0  0  0  0  0  3  0  0  0  0  0  0
  190.3590  173.6800  141.1680 C   0  0  0  0  0  0  0  0  0  0  0  0
  191.5620  174.1760  141.6750 C   0  0  0  0  0  3  0  0  0  0  0  0
  189.1780  175.6230  142.0350 C   0  0  0  0  0  0  0  0  0  0  0  0
  191.5790  175.3890  142.3670 C   0  0  0  0  0  3  0  0  0  0  0  0
  189.1740  174.3960  141.3520 C   0  0  0  0  0  3  0  0  0  0  0  0
  190.3930  176.1060  142.5500 C   0  0  0  0  0  3  0  0  0  0  0  0
  190.3400  172.5000  140.5020 F   0  0  0  0  0  0  0  0  0  0  0  0
  182.6700  177.8340  140.5100 N   0  0  0  0  0  2  0  0  0  0  0  0
  181.7030  178.1520  141.4720 N   0  0  0  0  0  2  0  0  0  0  0  0
  179.1680  177.1970  142.0980 O   0  0  0  0  0  0  0  0  0  0  0  0
  180.5420  178.6560  140.7550 C   0  0  1  0  0  3  0  0  0  0  0  0
  179.2760  178.2970  141.4940 C   0  0  0  0  0  0  0  0  0  0  0  0
  178.3010  180.4490  140.8120 C   0  0  0  0  0  2  0  0  0  0  0  0
  179.5230  180.4970  139.8940 C   0  0  0  0  0  2  0  0  0  0  0  0
  180.6510  180.0560  140.6100 O   0  0  0  0  0  0  0  0  0  0  0  0
  178.1770  179.1540  141.4010 O   0  0  0  0  0  0  0  0  0  0  0  0
  1 10  1  0  0  0  0
  2  6  1  0  0  0  0
  3  8  1  0  0  0  0
  4 17  1  0  0  0  0
  6  5  1  0  0  0  0
  7 17  1  0  0  0  0
  8  2  1  0  0  0  0
  8  1  2  0  0  0  0
  9 16  1  0  0  0  0
  9  4  1  0  0  0  0
 10  5  2  0  0  0  0
 11  3  1  0  0  0  0
 11 18  1  0  0  0  0
 12  1  1  0  0  0  0
 13  2  2  0  0  0  0
 14  4  2  0  0  0  0
 14 15  1  0  0  0  0
 15 11  2  0  0  0  0
 16 26  1  6  0  0  0
 16  7  1  0  0  0  0
 17  3  2  0  0  0  0
 18 12  2  0  0  0  0
 19 23  2  0  0  0  0
 19 20  1  0  0  0  0
 20 22  2  0  0  0  0
 21 15  1  0  0  0  0
 21 24  2  0  0  0  0
 22 24  1  0  0  0  0
 23 21  1  0  0  0  0
 25 19  1  0  0  0  0
 26 27  1  0  0  0  0
 29 27  1  1  0  0  0
 29 30  1  0  0  0  0
 30 28  2  0  0  0  0
 31 34  1  0  0  0  0
 32 33  1  0  0  0  0
 32 31  1  0  0  0  0
 33 29  1  0  0  0  0
 34 30  1  0  0  0  0
M  END
>  <MODEL>
1

>  <REMARK>
 VINA RESULT:      -9.1      0.000      0.000
  Name = 
  4 active torsions:
  status: ('A' for Active; 'I' for Inactive)
    1  A    between atoms: N_3  and  C_13
    2  A    between atoms: N_3  and  N_17
    3  A    between atoms: C_12  and  C_28
    4  A    between atoms: N_17  and  C_29
                            x       y       z     vdW  Elec       q    Type
                         _______ _______ _______ _____ _____    ______ ____

>  <TORSDO>
F 4

$$$$
=
 OpenBabel11052418553D

 34 39  0  0  1  0  0  0  0  0999 V2000
  188.7040  174.1450  141.5610 C   0  0  0  0  0  0  0  0  0  0  0  0
  191.0760  174.5140  141.4110 C   0  0  0  0  0  0  0  0  0  0  0  0
  189.7230  175.5600  143.2890 C   0  0  0  0  0  0  0  0  0  0  0  0
  190.5840  176.7750  145.2140 C   0  0  0  0  0  0  0  0  0  0  0  0
  189.9970  172.9800  139.9670 C   0  0  0  0  0  3  0  0  0  0  0  0
  191.1130  173.6170  140.3910 N   0  0  0  0  0  2  0  0  0  0  0  0
  192.1400  175.3140  144.2640 C   0  0  0  0  0  2  0  0  0  0  0  0
  189.8660  174.7350  142.1220 C   0  0  0  0  0  0  0  0  0  0  0  0
  191.7870  176.9650  146.0500 C   0  0  0  0  0  2  0  0  0  0  0  0
  188.8000  173.2650  140.5320 N   0  0  0  0  0  0  0  0  0  0  0  0
  188.4090  175.9880  143.6700 C   0  0  0  0  0  0  0  0  0  0  0  0
  187.4400  174.4930  142.0200 C   0  0  0  0  0  3  0  0  0  0  0  0
  192.1100  175.1900  141.6400 O   0  0  0  0  0  0  0  0  0  0  0  0
  189.3320  177.2830  145.5130 C   0  0  0  0  0  3  0  0  0  0  0  0
  188.2250  176.9080  144.7430 C   0  0  0  0  0  0  0  0  0  0  0  0
  192.8480  176.1090  145.3610 C   0  0  1  0  0  3  0  0  0  0  0  0
  190.7880  175.9260  144.1520 C   0  0  0  0  0  0  0  0  0  0  0  0
  187.2950  175.4230  143.0370 C   0  0  0  0  0  3  0  0  0  0  0  0
  185.1780  179.1780  144.8710 C   0  0  0  0  0  0  0  0  0  0  0  0
  184.4240  178.5690  145.8770 C   0  0  0  0  0  3  0  0  0  0  0  0
  186.8990  177.4750  145.1130 C   0  0  0  0  0  0  0  0  0  0  0  0
  184.9040  177.4190  146.5070 C   0  0  0  0  0  3  0  0  0  0  0  0
  186.4100  178.6380  144.4960 C   0  0  0  0  0  3  0  0  0  0  0  0
  186.1360  176.8770  146.1310 C   0  0  0  0  0  3  0  0  0  0  0  0
  184.7160  180.2980  144.2620 F   0  0  0  0  0  0  0  0  0  0  0  0
  193.4500  175.1960  146.3170 N   0  0  0  0  0  2  0  0  0  0  0  0
  194.8230  175.4760  146.3410 N   0  0  0  0  0  2  0  0  0  0  0  0
  195.9800  176.4430  144.0050 O   0  0  0  0  0  0  0  0  0  0  0  0
  195.4610  174.5540  145.4140 C   0  0  1  0  0  3  0  0  0  0  0  0
  196.3270  175.3130  144.4390 C   0  0  0  0  0  0  0  0  0  0  0  0
  197.9410  173.4580  144.4750 C   0  0  0  0  0  2  0  0  0  0  0  0
  196.8090  172.7360  145.2070 C   0  0  0  0  0  2  0  0  0  0  0  0
  196.2300  173.6180  146.1380 O   0  0  0  0  0  0  0  0  0  0  0  0
  197.4680  174.6900  143.9290 O   0  0  0  0  0  0  0  0  0  0  0  0
  1 12  2  0  0  0  0
  1  8  1  0  0  0  0
  2 13  2  0  0  0  0
  2  8  1  0  0  0  0
  3 11  1  0  0  0  0
  3 17  1  0  0  0  0
  4 14  1  0  0  0  0
  4  9  1  0  0  0  0
  5  6  1  0  0  0  0
  5 10  2  0  0  0  0
  6  2  1  0  0  0  0
  7 16  1  0  0  0  0
  8  3  2  0  0  0  0
 10  1  1  0  0  0  0
 11 15  1  0  0  0  0
 12 18  1  0  0  0  0
 15 21  1  0  0  0  0
 15 14  2  0  0  0  0
 16  9  1  0  0  0  0
 16 26  1  1  0  0  0
 17  7  1  0  0  0  0
 17  4  2  0  0  0  0
 18 11  2  0  0  0  0
 19 20  1  0  0  0  0
 20 22  2  0  0  0  0
 21 24  2  0  0  0  0
 23 19  2  0  0  0  0
 23 21  1  0  0  0  0
 24 22  1  0  0  0  0
 25 19  1  0  0  0  0
 26 27  1  0  0  0  0
 28 30  2  0  0  0  0
 29 33  1  0  0  0  0
 29 27  1  1  0  0  0
 30 29  1  0  0  0  0
 31 32  1  0  0  0  0
 32 33  1  0  0  0  0
 34 30  1  0  0  0  0
 34 31  1  0  0  0  0
M  END
>  <MODEL>
2

>  <REMARK>
 VINA RESULT:      -8.8      6.199     10.994
  Name = 
  4 active torsions:
  status: ('A' for Active; 'I' for Inactive)
    1  A    between atoms: N_3  and  C_13
    2  A    between atoms: N_3  and  N_17
    3  A    between atoms: C_12  and  C_28
    4  A    between atoms: N_17  and  C_29
                            x       y       z     vdW  Elec       q    Type
                         _______ _______ _______ _____ _____    ______ ____

>  <TORSDO>
F 4

$$$$
=
 OpenBabel11052418553D

 34 39  0  0  1  0  0  0  0  0999 V2000
  186.7170  178.1500  142.9840 C   0  0  0  0  0  0  0  0  0  0  0  0
  186.4380  177.8660  145.3560 C   0  0  0  0  0  0  0  0  0  0  0  0
  187.9200  176.2840  144.0320 C   0  0  0  0  0  0  0  0  0  0  0  0
  189.3730  174.5470  144.9230 C   0  0  0  0  0  0  0  0  0  0  0  0
  185.5430  179.7580  144.2510 C   0  0  0  0  0  3  0  0  0  0  0  0
  185.7410  179.0310  145.3750 N   0  0  0  0  0  0  0  0  0  0  0  0
  188.9000  176.2420  146.4590 C   0  0  0  0  0  2  0  0  0  0  0  0
  187.0590  177.4280  144.1560 C   0  0  0  0  0  0  0  0  0  0  0  0
  190.1000  174.1210  146.1370 C   0  0  0  0  0  2  0  0  0  0  0  0
  186.0060  179.3030  143.0630 N   0  0  0  0  0  2  0  0  0  0  0  0
  188.1650  175.7490  142.7250 C   0  0  0  0  0  0  0  0  0  0  0  0
  187.0600  177.6680  141.7270 C   0  0  0  0  0  3  0  0  0  0  0  0
  186.4390  177.1620  146.3970 O   0  0  0  0  0  0  0  0  0  0  0  0
  189.5150  173.9610  143.6770 C   0  0  0  0  0  3  0  0  0  0  0  0
  188.9070  174.5440  142.5590 C   0  0  0  0  0  0  0  0  0  0  0  0
  189.6940  175.1560  147.1850 C   0  0  1  0  0  3  0  0  0  0  0  0
  188.6200  175.6810  145.1100 C   0  0  0  0  0  0  0  0  0  0  0  0
  187.7460  176.4700  141.6000 C   0  0  0  0  0  3  0  0  0  0  0  0
  190.4780  173.3740  139.2990 C   0  0  0  0  0  0  0  0  0  0  0  0
  189.4170  172.6730  138.7200 C   0  0  0  0  0  3  0  0  0  0  0  0
  189.0990  173.8780  141.2410 C   0  0  0  0  0  0  0  0  0  0  0  0
  188.1960  172.5770  139.3910 C   0  0  0  0  0  3  0  0  0  0  0  0
  190.3180  173.9780  140.5490 C   0  0  0  0  0  3  0  0  0  0  0  0
  188.0370  173.1800  140.6420 C   0  0  0  0  0  3  0  0  0  0  0  0
  191.6610  173.4730  138.6460 F   0  0  0  0  0  0  0  0  0  0  0  0
  190.8770  175.7390  147.7940 N   0  0  0  0  0  2  0  0  0  0  0  0
  191.3650  176.7010  146.8990 N   0  0  0  0  0  2  0  0  0  0  0  0
  191.6260  176.9970  144.1470 O   0  0  0  0  0  0  0  0  0  0  0  0
  192.4990  176.1030  146.2110 C   0  0  1  0  0  3  0  0  0  0  0  0
  192.6410  176.6930  144.8300 C   0  0  0  0  0  0  0  0  0  0  0  0
  195.0850  176.5510  145.0500 C   0  0  0  0  0  2  0  0  0  0  0  0
  194.7360  175.7070  146.2770 C   0  0  0  0  0  2  0  0  0  0  0  0
  193.6730  176.3190  146.9650 O   0  0  0  0  0  0  0  0  0  0  0  0
  193.9150  176.7890  144.2670 O   0  0  0  0  0  0  0  0  0  0  0  0
  1 10  1  0  0  0  0
  1  8  1  0  0  0  0
  2  6  1  0  0  0  0
  2 13  2  0  0  0  0
  3  8  2  0  0  0  0
  3 17  1  0  0  0  0
  4 17  2  0  0  0  0
  4  9  1  0  0  0  0
  5  6  2  0  0  0  0
  7 16  1  0  0  0  0
  8  2  1  0  0  0  0
  9 16  1  0  0  0  0
 10  5  1  0  0  0  0
 11  3  1  0  0  0  0
 12  1  2  0  0  0  0
 14  4  1  0  0  0  0
 15 11  1  0  0  0  0
 15 14  2  0  0  0  0
 16 26  1  6  0  0  0
 17  7  1  0  0  0  0
 18 12  1  0  0  0  0
 18 11  2  0  0  0  0
 19 23  1  0  0  0  0
 20 19  2  0  0  0  0
 20 22  1  0  0  0  0
 21 15  1  0  0  0  0
 22 24  2  0  0  0  0
 23 21  2  0  0  0  0
 24 21  1  0  0  0  0
 25 19  1  0  0  0  0
 27 26  1  0  0  0  0
 28 30  2  0  0  0  0
 29 27  1  1  0  0  0
 29 33  1  0  0  0  0
 30 29  1  0  0  0  0
 31 32  1  0  0  0  0
 32 33  1  0  0  0  0
 34 30  1  0  0  0  0
 34 31  1  0  0  0  0
M  END
>  <MODEL>
3

>  <REMARK>
 VINA RESULT:      -8.8      4.148      8.296
  Name = 
  4 active torsions:
  status: ('A' for Active; 'I' for Inactive)
    1  A    between atoms: N_3  and  C_13
    2  A    between atoms: N_3  and  N_17
    3  A    between atoms: C_12  and  C_28
    4  A    between atoms: N_17  and  C_29
                            x       y       z     vdW  Elec       q    Type
                         _______ _______ _______ _____ _____    ______ ____

>  <TORSDO>
F 4

$$$$
=
 OpenBabel11052418553D

 34 39  0  0  1  0  0  0  0  0999 V2000
  191.3390  176.2180  146.0720 C   0  0  0  0  0  0  0  0  0  0  0  0
  191.8610  174.0900  145.0770 C   0  0  0  0  0  0  0  0  0  0  0  0
  189.7390  175.3310  144.4350 C   0  0  0  0  0  0  0  0  0  0  0  0
  188.1730  174.7360  142.6690 C   0  0  0  0  0  0  0  0  0  0  0  0
  193.4210  175.1850  146.4810 C   0  0  0  0  0  3  0  0  0  0  0  0
  193.0640  174.1350  145.7060 N   0  0  0  0  0  2  0  0  0  0  0  0
  190.3160  173.8660  142.3430 C   0  0  0  0  0  2  0  0  0  0  0  0
  190.9790  175.2030  145.1490 C   0  0  0  0  0  0  0  0  0  0  0  0
  188.0460  173.9800  141.4060 C   0  0  0  0  0  2  0  0  0  0  0  0
  192.5520  176.2030  146.6810 N   0  0  0  0  0  0  0  0  0  0  0  0
  188.7900  176.3080  144.8790 C   0  0  0  0  0  0  0  0  0  0  0  0
  190.4410  177.2220  146.4080 C   0  0  0  0  0  3  0  0  0  0  0  0
  191.5280  173.0170  144.5150 O   0  0  0  0  0  0  0  0  0  0  0  0
  187.2100  175.5960  143.1680 C   0  0  0  0  0  3  0  0  0  0  0  0
  187.4960  176.3890  144.2860 C   0  0  0  0  0  0  0  0  0  0  0  0
  189.4070  173.3030  141.2500 C   0  0  1  0  0  3  0  0  0  0  0  0
  189.4080  174.6080  143.2590 C   0  0  0  0  0  0  0  0  0  0  0  0
  189.1750  177.2470  145.8430 C   0  0  0  0  0  3  0  0  0  0  0  0
  185.3130  179.4670  144.7560 C   0  0  0  0  0  0  0  0  0  0  0  0
  184.4520  179.0410  145.7690 C   0  0  0  0  0  3  0  0  0  0  0  0
  186.4290  177.3050  144.7780 C   0  0  0  0  0  0  0  0  0  0  0  0
  184.5790  177.7530  146.2950 C   0  0  0  0  0  3  0  0  0  0  0  0
  186.2990  178.6060  144.2670 C   0  0  0  0  0  3  0  0  0  0  0  0
  185.5640  176.8910  145.8050 C   0  0  0  0  0  3  0  0  0  0  0  0
  185.1960  180.7190  144.2490 F   0  0  0  0  0  0  0  0  0  0  0  0
  189.9670  173.6050  139.9440 N   0  0  0  0  0  2  0  0  0  0  0  0
  188.9370  174.1640  139.1770 N   0  0  0  0  0  2  0  0  0  0  0  0
  187.4000  175.2730  137.1440 O   0  0  0  0  0  0  0  0  0  0  0  0
  189.1850  173.7870  137.7940 C   0  0  1  0  0  3  0  0  0  0  0  0
  188.5160  174.7640  136.8590 C   0  0  0  0  0  0  0  0  0  0  0  0
  190.4080  174.5290  135.3060 C   0  0  0  0  0  2  0  0  0  0  0  0
  190.7710  173.3590  136.2230 C   0  0  0  0  0  2  0  0  0  0  0  0
  190.5770  173.7490  137.5600 O   0  0  0  0  0  0  0  0  0  0  0  0
  189.0980  175.0080  135.6130 O   0  0  0  0  0  0  0  0  0  0  0  0
  1 12  1  0  0  0  0
  1 10  1  0  0  0  0
  2  8  1  0  0  0  0
  2  6  1  0  0  0  0
  3 11  1  0  0  0  0
  3  8  1  0  0  0  0
  4 14  2  0  0  0  0
  4 17  1  0  0  0  0
  5 10  2  0  0  0  0
  6  5  1  0  0  0  0
  7 17  1  0  0  0  0
  8  1  2  0  0  0  0
  9  4  1  0  0  0  0
 11 18  1  0  0  0  0
 13  2  2  0  0  0  0
 14 15  1  0  0  0  0
 15 21  1  0  0  0  0
 15 11  2  0  0  0  0
 16 26  1  6  0  0  0
 16  9  1  0  0  0  0
 16  7  1  0  0  0  0
 17  3  2  0  0  0  0
 18 12  2  0  0  0  0
 19 20  1  0  0  0  0
 20 22  2  0  0  0  0
 21 24  2  0  0  0  0
 23 19  2  0  0  0  0
 23 21  1  0  0  0  0
 24 22  1  0  0  0  0
 25 19  1  0  0  0  0
 27 26  1  0  0  0  0
 29 27  1  1  0  0  0
 30 28  2  0  0  0  0
 30 29  1  0  0  0  0
 31 34  1  0  0  0  0
 31 32  1  0  0  0  0
 32 33  1  0  0  0  0
 33 29  1  0  0  0  0
 34 30  1  0  0  0  0
M  END
>  <MODEL>
4

>  <REMARK>
 VINA RESULT:      -8.7      5.495      8.207
  Name = 
  4 active torsions:
  status: ('A' for Active; 'I' for Inactive)
    1  A    between atoms: N_3  and  C_13
    2  A    between atoms: N_3  and  N_17
    3  A    between atoms: C_12  and  C_28
    4  A    between atoms: N_17  and  C_29
                            x       y       z     vdW  Elec       q    Type
                         _______ _______ _______ _____ _____    ______ ____

>  <TORSDO>
F 4

$$$$
=
 OpenBabel11052418553D

 34 39  0  0  1  0  0  0  0  0999 V2000
  191.2930  176.2500  145.8050 C   0  0  0  0  0  0  0  0  0  0  0  0
  191.7320  174.0430  144.9540 C   0  0  0  0  0  0  0  0  0  0  0  0
  189.6790  175.3340  144.1980 C   0  0  0  0  0  0  0  0  0  0  0  0
  188.1130  174.7000  142.4460 C   0  0  0  0  0  0  0  0  0  0  0  0
  193.3190  175.1530  146.3150 C   0  0  0  0  0  3  0  0  0  0  0  0
  192.9260  174.0730  145.6000 N   0  0  0  0  0  2  0  0  0  0  0  0
  190.2190  173.7170  142.2120 C   0  0  0  0  0  2  0  0  0  0  0  0
  190.9010  175.1960  144.9410 C   0  0  0  0  0  0  0  0  0  0  0  0
  187.9710  173.8720  141.2300 C   0  0  0  0  0  2  0  0  0  0  0  0
  192.4940  176.2190  146.4360 N   0  0  0  0  0  0  0  0  0  0  0  0
  188.7680  176.3780  144.5650 C   0  0  0  0  0  0  0  0  0  0  0  0
  190.4360  177.3120  146.0620 C   0  0  0  0  0  3  0  0  0  0  0  0
  191.3590  172.9530  144.4530 O   0  0  0  0  0  0  0  0  0  0  0  0
  187.1830  175.6320  142.8730 C   0  0  0  0  0  3  0  0  0  0  0  0
  187.4880  176.4800  143.9450 C   0  0  0  0  0  0  0  0  0  0  0  0
  189.3020  173.1270  141.1400 C   0  0  1  0  0  3  0  0  0  0  0  0
  189.3320  174.5540  143.0640 C   0  0  0  0  0  0  0  0  0  0  0  0
  189.1810  177.3580  145.4750 C   0  0  0  0  0  3  0  0  0  0  0  0
  184.6170  178.1390  145.8060 C   0  0  0  0  0  0  0  0  0  0  0  0
  184.4700  179.3240  145.0820 C   0  0  0  0  0  3  0  0  0  0  0  0
  186.4570  177.4700  144.3600 C   0  0  0  0  0  0  0  0  0  0  0  0
  185.3070  179.5850  143.9940 C   0  0  0  0  0  3  0  0  0  0  0  0
  185.6010  177.2150  145.4430 C   0  0  0  0  0  3  0  0  0  0  0  0
  186.2920  178.6620  143.6330 C   0  0  0  0  0  3  0  0  0  0  0  0
  183.8020  177.8810  146.8570 F   0  0  0  0  0  0  0  0  0  0  0  0
  189.8950  173.3210  139.8280 N   0  0  0  0  0  2  0  0  0  0  0  0
  188.9880  174.0810  139.0780 N   0  0  0  0  0  2  0  0  0  0  0  0
  187.4380  175.2840  137.1080 O   0  0  0  0  0  0  0  0  0  0  0  0
  189.1730  173.7080  137.6840 C   0  0  1  0  0  3  0  0  0  0  0  0
  188.5200  174.7270  136.7820 C   0  0  0  0  0  0  0  0  0  0  0  0
  190.3470  174.4210  135.1640 C   0  0  0  0  0  2  0  0  0  0  0  0
  190.6840  173.2260  136.0570 C   0  0  0  0  0  2  0  0  0  0  0  0
  190.5530  173.6090  137.4040 O   0  0  0  0  0  0  0  0  0  0  0  0
  189.0720  174.9570  135.5200 O   0  0  0  0  0  0  0  0  0  0  0  0
  1 12  1  0  0  0  0
  1 10  1  0  0  0  0
  2  6  1  0  0  0  0
  3 11  1  0  0  0  0
  3  8  1  0  0  0  0
  4 14  2  0  0  0  0
  4 17  1  0  0  0  0
  5 10  2  0  0  0  0
  6  5  1  0  0  0  0
  7 17  1  0  0  0  0
  8  2  1  0  0  0  0
  8  1  2  0  0  0  0
  9  4  1  0  0  0  0
 11 18  1  0  0  0  0
 13  2  2  0  0  0  0
 14 15  1  0  0  0  0
 15 21  1  0  0  0  0
 15 11  2  0  0  0  0
 16 26  1  6  0  0  0
 16  9  1  0  0  0  0
 16  7  1  0  0  0  0
 17  3  2  0  0  0  0
 18 12  2  0  0  0  0
 19 25  1  0  0  0  0
 20 19  2  0  0  0  0
 21 23  2  0  0  0  0
 22 20  1  0  0  0  0
 23 19  1  0  0  0  0
 24 22  2  0  0  0  0
 24 21  1  0  0  0  0
 27 26  1  0  0  0  0
 29 27  1  1  0  0  0
 30 28  2  0  0  0  0
 30 29  1  0  0  0  0
 31 34  1  0  0  0  0
 31 32  1  0  0  0  0
 32 33  1  0  0  0  0
 33 29  1  0  0  0  0
 34 30  1  0  0  0  0
M  END
>  <MODEL>
5

>  <REMARK>
 VINA RESULT:      -8.6      5.418      8.181
  Name = 
  4 active torsions:
  status: ('A' for Active; 'I' for Inactive)
    1  A    between atoms: N_3  and  C_13
    2  A    between atoms: N_3  and  N_17
    3  A    between atoms: C_12  and  C_28
    4  A    between atoms: N_17  and  C_29
                            x       y       z     vdW  Elec       q    Type
                         _______ _______ _______ _____ _____    ______ ____

>  <TORSDO>
F 4

$$$$
=
 OpenBabel11052418553D

 34 39  0  0  1  0  0  0  0  0999 V2000
  191.2650  176.2060  145.8310 C   0  0  0  0  0  0  0  0  0  0  0  0
  191.7120  174.0150  144.9440 C   0  0  0  0  0  0  0  0  0  0  0  0
  189.6760  175.3270  144.1790 C   0  0  0  0  0  0  0  0  0  0  0  0
  188.1400  174.7330  142.3870 C   0  0  0  0  0  0  0  0  0  0  0  0
  193.2790  175.0920  146.3540 C   0  0  0  0  0  3  0  0  0  0  0  0
  192.8950  174.0280  145.6120 N   0  0  0  0  0  2  0  0  0  0  0  0
  190.2460  173.7470  142.1710 C   0  0  0  0  0  2  0  0  0  0  0  0
  190.8850  175.1700  144.9390 C   0  0  0  0  0  0  0  0  0  0  0  0
  188.0170  173.9300  141.1530 C   0  0  0  0  0  2  0  0  0  0  0  0
  192.4550  176.1580  146.4820 N   0  0  0  0  0  0  0  0  0  0  0  0
  188.7630  176.3670  144.5490 C   0  0  0  0  0  0  0  0  0  0  0  0
  190.4070  177.2660  146.0940 C   0  0  0  0  0  3  0  0  0  0  0  0
  191.3440  172.9360  144.4160 O   0  0  0  0  0  0  0  0  0  0  0  0
  187.2060  175.6600  142.8160 C   0  0  0  0  0  3  0  0  0  0  0  0
  187.4950  176.4850  143.9100 C   0  0  0  0  0  0  0  0  0  0  0  0
  189.3460  173.1820  141.0720 C   0  0  1  0  0  3  0  0  0  0  0  0
  189.3470  174.5710  143.0230 C   0  0  0  0  0  0  0  0  0  0  0  0
  189.1630  177.3270  145.4860 C   0  0  0  0  0  3  0  0  0  0  0  0
  184.6020  178.1210  145.7580 C   0  0  0  0  0  0  0  0  0  0  0  0
  184.4660  179.3180  145.0490 C   0  0  0  0  0  3  0  0  0  0  0  0
  186.4590  177.4720  144.3260 C   0  0  0  0  0  0  0  0  0  0  0  0
  185.3170  179.5930  143.9770 C   0  0  0  0  0  3  0  0  0  0  0  0
  185.5890  177.2020  145.3940 C   0  0  0  0  0  3  0  0  0  0  0  0
  186.3050  178.6740  143.6140 C   0  0  0  0  0  3  0  0  0  0  0  0
  183.7730  177.8500  146.7940 F   0  0  0  0  0  0  0  0  0  0  0  0
  189.9630  173.4000  139.7740 N   0  0  0  0  0  2  0  0  0  0  0  0
  191.2460  172.8410  139.8330 N   0  0  0  0  0  2  0  0  0  0  0  0
  191.4210  170.2110  140.7180 O   0  0  0  0  0  0  0  0  0  0  0  0
  191.2790  171.7530  138.8670 C   0  0  1  0  0  3  0  0  0  0  0  0
  190.9970  170.4390  139.5530 C   0  0  0  0  0  0  0  0  0  0  0  0
  189.7800  169.6880  137.5530 C   0  0  0  0  0  2  0  0  0  0  0  0
  190.4110  170.9360  136.9320 C   0  0  0  0  0  2  0  0  0  0  0  0
  190.3290  171.9970  137.8530 O   0  0  0  0  0  0  0  0  0  0  0  0
  190.3590  169.4280  138.8320 O   0  0  0  0  0  0  0  0  0  0  0  0
  1 12  1  0  0  0  0
  1 10  1  0  0  0  0
  2  6  1  0  0  0  0
  3 11  1  0  0  0  0
  3  8  1  0  0  0  0
  4 14  2  0  0  0  0
  4 17  1  0  0  0  0
  5 10  2  0  0  0  0
  6  5  1  0  0  0  0
  7 17  1  0  0  0  0
  8  2  1  0  0  0  0
  8  1  2  0  0  0  0
  9  4  1  0  0  0  0
 11 18  1  0  0  0  0
 13  2  2  0  0  0  0
 14 15  1  0  0  0  0
 15 21  1  0  0  0  0
 15 11  2  0  0  0  0
 16 26  1  6  0  0  0
 16  9  1  0  0  0  0
 16  7  1  0  0  0  0
 17  3  2  0  0  0  0
 18 12  2  0  0  0  0
 19 25  1  0  0  0  0
 20 19  2  0  0  0  0
 21 23  2  0  0  0  0
 22 20  1  0  0  0  0
 23 19  1  0  0  0  0
 24 22  2  0  0  0  0
 24 21  1  0  0  0  0
 26 27  1  0  0  0  0
 29 30  1  0  0  0  0
 29 27  1  1  0  0  0
 30 28  2  0  0  0  0
 31 34  1  0  0  0  0
 32 31  1  0  0  0  0
 32 33  1  0  0  0  0
 33 29  1  0  0  0  0
 34 30  1  0  0  0  0
M  END
>  <MODEL>
6

>  <REMARK>
 VINA RESULT:      -8.5      6.158      8.959
  Name = 
  4 active torsions:
  status: ('A' for Active; 'I' for Inactive)
    1  A    between atoms: N_3  and  C_13
    2  A    between atoms: N_3  and  N_17
    3  A    between atoms: C_12  and  C_28
    4  A    between atoms: N_17  and  C_29
                            x       y       z     vdW  Elec       q    Type
                         _______ _______ _______ _____ _____    ______ ____

>  <TORSDO>
F 4

$$$$
=
 OpenBabel11052418553D

 34 39  0  0  1  0  0  0  0  0999 V2000
  191.3260  173.6190  140.8370 C   0  0  0  0  0  0  0  0  0  0  0  0
  189.0300  173.8240  141.5240 C   0  0  0  0  0  0  0  0  0  0  0  0
  190.9140  174.1740  143.1920 C   0  0  0  0  0  0  0  0  0  0  0  0
  190.7110  174.9640  145.4850 C   0  0  0  0  0  0  0  0  0  0  0  0
  189.5890  173.5370  139.2420 C   0  0  0  0  0  3  0  0  0  0  0  0
  188.6680  173.6860  140.2220 N   0  0  0  0  0  0  0  0  0  0  0  0
  188.9260  175.6010  144.1210 C   0  0  0  0  0  2  0  0  0  0  0  0
  190.4050  173.9080  141.8760 C   0  0  0  0  0  0  0  0  0  0  0  0
  189.8350  175.7230  146.4010 C   0  0  0  0  0  2  0  0  0  0  0  0
  190.9040  173.4780  139.5550 N   0  0  0  0  0  2  0  0  0  0  0  0
  192.2830  173.8610  143.4740 C   0  0  0  0  0  0  0  0  0  0  0  0
  192.6730  173.4260  141.1170 C   0  0  0  0  0  3  0  0  0  0  0  0
  188.1260  173.7880  142.3950 O   0  0  0  0  0  0  0  0  0  0  0  0
  191.9980  174.5550  145.7900 C   0  0  0  0  0  3  0  0  0  0  0  0
  192.8030  173.9870  144.7950 C   0  0  0  0  0  0  0  0  0  0  0  0
  188.6040  176.0350  145.5520 C   0  0  1  0  0  3  0  0  0  0  0  0
  190.1770  174.8040  144.2290 C   0  0  0  0  0  0  0  0  0  0  0  0
  193.1370  173.5150  142.4200 C   0  0  0  0  0  3  0  0  0  0  0  0
  195.7910  171.8440  145.7630 C   0  0  0  0  0  0  0  0  0  0  0  0
  196.7750  172.8170  145.9550 C   0  0  0  0  0  3  0  0  0  0  0  0
  194.1820  173.5720  145.1730 C   0  0  0  0  0  0  0  0  0  0  0  0
  196.4680  174.1660  145.7650 C   0  0  0  0  0  3  0  0  0  0  0  0
  194.5010  172.2210  145.3810 C   0  0  0  0  0  3  0  0  0  0  0  0
  195.1780  174.5420  145.3800 C   0  0  0  0  0  3  0  0  0  0  0  0
  196.0860  170.5350  145.9540 F   0  0  0  0  0  0  0  0  0  0  0  0
  188.3270  177.4610  145.5800 N   0  0  0  0  0  2  0  0  0  0  0  0
  187.2590  177.6520  146.4660 N   0  0  0  0  0  2  0  0  0  0  0  0
  184.8200  178.2910  147.6380 O   0  0  0  0  0  0  0  0  0  0  0  0
  186.0370  177.5760  145.6810 C   0  0  1  0  0  3  0  0  0  0  0  0
  184.9210  178.3100  146.3820 C   0  0  0  0  0  0  0  0  0  0  0  0
  184.0660  179.0410  144.1960 C   0  0  0  0  0  2  0  0  0  0  0  0
  185.0700  178.0120  143.6710 C   0  0  0  0  0  2  0  0  0  0  0  0
  186.2670  178.1270  144.4020 O   0  0  0  0  0  0  0  0  0  0  0  0
  183.9260  178.9150  145.6110 O   0  0  0  0  0  0  0  0  0  0  0  0
  1 12  2  0  0  0  0
  1  8  1  0  0  0  0
  2  8  1  0  0  0  0
  2 13  2  0  0  0  0
  3 11  1  0  0  0  0
  3 17  1  0  0  0  0
  4 14  1  0  0  0  0
  4  9  1  0  0  0  0
  5 10  1  0  0  0  0
  5  6  2  0  0  0  0
  6  2  1  0  0  0  0
  7 17  1  0  0  0  0
  7 16  1  0  0  0  0
  8  3  2  0  0  0  0
 10  1  1  0  0  0  0
 11 15  1  0  0  0  0
 12 18  1  0  0  0  0
 15 21  1  0  0  0  0
 15 14  2  0  0  0  0
 16 26  1  6  0  0  0
 16  9  1  0  0  0  0
 17  4  2  0  0  0  0
 18 11  2  0  0  0  0
 19 25  1  0  0  0  0
 19 20  1  0  0  0  0
 21 24  2  0  0  0  0
 21 23  1  0  0  0  0
 22 20  2  0  0  0  0
 23 19  2  0  0  0  0
 24 22  1  0  0  0  0
 26 27  1  0  0  0  0
 29 30  1  0  0  0  0
 29 27  1  1  0  0  0
 30 28  2  0  0  0  0
 31 34  1  0  0  0  0
 32 31  1  0  0  0  0
 32 33  1  0  0  0  0
 33 29  1  0  0  0  0
 34 30  1  0  0  0  0
M  END
>  <MODEL>
7

>  <REMARK>
 VINA RESULT:      -8.2      4.024      7.307
  Name = 
  4 active torsions:
  status: ('A' for Active; 'I' for Inactive)
    1  A    between atoms: N_3  and  C_13
    2  A    between atoms: N_3  and  N_17
    3  A    between atoms: C_12  and  C_28
    4  A    between atoms: N_17  and  C_29
                            x       y       z     vdW  Elec       q    Type
                         _______ _______ _______ _____ _____    ______ ____

>  <TORSDO>
F 4

$$$$
=
 OpenBabel11052418553D

 34 39  0  0  1  0  0  0  0  0999 V2000
  185.6230  177.5120  143.0750 C   0  0  0  0  0  0  0  0  0  0  0  0
  186.0110  177.4940  140.7010 C   0  0  0  0  0  0  0  0  0  0  0  0
  187.5880  176.2770  142.2760 C   0  0  0  0  0  0  0  0  0  0  0  0
  189.4280  174.8070  141.6600 C   0  0  0  0  0  0  0  0  0  0  0  0
  184.0300  178.4310  141.5960 C   0  0  0  0  0  3  0  0  0  0  0  0
  184.8190  178.1240  140.5400 N   0  0  0  0  0  2  0  0  0  0  0  0
  187.7920  174.9930  140.0040 C   0  0  0  0  0  2  0  0  0  0  0  0
  186.4160  177.0560  141.9910 C   0  0  0  0  0  0  0  0  0  0  0  0
  189.9440  173.9510  140.5720 C   0  0  0  0  0  2  0  0  0  0  0  0
  184.4460  178.1490  142.8530 N   0  0  0  0  0  0  0  0  0  0  0  0
  188.0690  176.2300  143.6250 C   0  0  0  0  0  0  0  0  0  0  0  0
  186.0580  177.3590  144.3850 C   0  0  0  0  0  3  0  0  0  0  0  0
  186.7650  177.3920  139.7010 O   0  0  0  0  0  0  0  0  0  0  0  0
  189.9590  174.8570  142.9370 C   0  0  0  0  0  3  0  0  0  0  0  0
  189.2960  175.5760  143.9400 C   0  0  0  0  0  0  0  0  0  0  0  0
  188.9450  174.1660  139.4360 C   0  0  1  0  0  3  0  0  0  0  0  0
  188.2730  175.4730  141.3270 C   0  0  0  0  0  0  0  0  0  0  0  0
  187.2770  176.7550  144.6530 C   0  0  0  0  0  3  0  0  0  0  0  0
  191.7190  176.1880  146.8060 C   0  0  0  0  0  0  0  0  0  0  0  0
  191.0660  175.5430  147.8590 C   0  0  0  0  0  3  0  0  0  0  0  0
  189.9030  175.5900  145.2990 C   0  0  0  0  0  0  0  0  0  0  0  0
  189.8370  174.9160  147.6380 C   0  0  0  0  0  3  0  0  0  0  0  0
  191.1440  176.2050  145.5330 C   0  0  0  0  0  3  0  0  0  0  0  0
  189.2620  174.9350  146.3640 C   0  0  0  0  0  3  0  0  0  0  0  0
  192.9130  176.7910  147.0180 F   0  0  0  0  0  0  0  0  0  0  0  0
  188.4440  172.8860  138.9640 N   0  0  0  0  0  2  0  0  0  0  0  0
  188.8380  172.7610  137.6260 N   0  0  0  0  0  2  0  0  0  0  0  0
  191.5170  173.0440  136.9370 O   0  0  0  0  0  0  0  0  0  0  0  0
  189.6920  171.5860  137.5420 C   0  0  1  0  0  3  0  0  0  0  0  0
  191.1440  171.9970  137.5300 C   0  0  0  0  0  0  0  0  0  0  0  0
  191.6910  169.9970  138.8520 C   0  0  0  0  0  2  0  0  0  0  0  0
  190.2540  169.6050  138.5040 C   0  0  0  0  0  2  0  0  0  0  0  0
  189.4260  170.7350  138.6360 O   0  0  0  0  0  0  0  0  0  0  0  0
  192.0900  171.1340  138.0870 O   0  0  0  0  0  0  0  0  0  0  0  0
  1 12  1  0  0  0  0
  2  8  1  0  0  0  0
  3 11  1  0  0  0  0
  4 14  2  0  0  0  0
  5 10  2  0  0  0  0
  6  2  1  0  0  0  0
  6  5  1  0  0  0  0
  7 17  1  0  0  0  0
  8  3  1  0  0  0  0
  8  1  2  0  0  0  0
  9  4  1  0  0  0  0
 10  1  1  0  0  0  0
 11 15  2  0  0  0  0
 11 18  1  0  0  0  0
 12 18  2  0  0  0  0
 13  2  2  0  0  0  0
 14 15  1  0  0  0  0
 15 21  1  0  0  0  0
 16 26  1  1  0  0  0
 16  7  1  0  0  0  0
 16  9  1  0  0  0  0
 17  4  1  0  0  0  0
 17  3  2  0  0  0  0
 19 25  1  0  0  0  0
 19 20  1  0  0  0  0
 21 23  1  0  0  0  0
 21 24  2  0  0  0  0
 22 20  2  0  0  0  0
 23 19  2  0  0  0  0
 24 22  1  0  0  0  0
 27 26  1  0  0  0  0
 28 30  2  0  0  0  0
 29 27  1  1  0  0  0
 29 33  1  0  0  0  0
 30 29  1  0  0  0  0
 30 34  1  0  0  0  0
 32 33  1  0  0  0  0
 32 31  1  0  0  0  0
 34 31  1  0  0  0  0
M  END
>  <MODEL>
8

>  <REMARK>
 VINA RESULT:      -8.1      5.067      8.134
  Name = 
  4 active torsions:
  status: ('A' for Active; 'I' for Inactive)
    1  A    between atoms: N_3  and  C_13
    2  A    between atoms: N_3  and  N_17
    3  A    between atoms: C_12  and  C_28
    4  A    between atoms: N_17  and  C_29
                            x       y       z     vdW  Elec       q    Type
                         _______ _______ _______ _____ _____    ______ ____

>  <TORSDO>
F 4

$$$$
=
 OpenBabel11052418553D

 34 39  0  0  1  0  0  0  0  0999 V2000
  190.9010  172.7570  140.6050 C   0  0  0  0  0  0  0  0  0  0  0  0
  188.6220  173.2390  141.2050 C   0  0  0  0  0  0  0  0  0  0  0  0
  190.5130  173.7080  142.8340 C   0  0  0  0  0  0  0  0  0  0  0  0
  190.3540  174.8660  144.9690 C   0  0  0  0  0  0  0  0  0  0  0  0
  189.1750  172.5520  139.0080 C   0  0  0  0  0  3  0  0  0  0  0  0
  188.2610  172.9230  139.9340 N   0  0  0  0  0  0  0  0  0  0  0  0
  188.6330  175.4090  143.4860 C   0  0  0  0  0  2  0  0  0  0  0  0
  189.9960  173.2750  141.5660 C   0  0  0  0  0  0  0  0  0  0  0  0
  189.5310  175.8230  145.7370 C   0  0  0  0  0  2  0  0  0  0  0  0
  190.4800  172.4450  139.3530 N   0  0  0  0  0  2  0  0  0  0  0  0
  191.8530  173.3430  143.1890 C   0  0  0  0  0  0  0  0  0  0  0  0
  192.2270  172.5120  140.9380 C   0  0  0  0  0  3  0  0  0  0  0  0
  187.7110  173.4090  142.0530 O   0  0  0  0  0  0  0  0  0  0  0  0
  191.6030  174.4150  145.3610 C   0  0  0  0  0  3  0  0  0  0  0  0
  192.3700  173.6390  144.4840 C   0  0  0  0  0  0  0  0  0  0  0  0
  188.3340  176.0860  144.8240 C   0  0  1  0  0  3  0  0  0  0  0  0
  189.8190  174.5480  143.7440 C   0  0  0  0  0  0  0  0  0  0  0  0
  192.6860  172.7720  142.2200 C   0  0  0  0  0  3  0  0  0  0  0  0
  196.0710  173.6180  145.3590 C   0  0  0  0  0  0  0  0  0  0  0  0
  196.2480  172.2950  145.7690 C   0  0  0  0  0  3  0  0  0  0  0  0
  193.7110  173.1870  144.9500 C   0  0  0  0  0  0  0  0  0  0  0  0
  195.1650  171.4130  145.7650 C   0  0  0  0  0  3  0  0  0  0  0  0
  194.8110  174.0600  144.9460 C   0  0  0  0  0  3  0  0  0  0  0  0
  193.9040  171.8560  145.3550 C   0  0  0  0  0  3  0  0  0  0  0  0
  197.1220  174.4730  145.3550 F   0  0  0  0  0  0  0  0  0  0  0  0
  188.1670  177.5150  144.6220 N   0  0  0  0  0  2  0  0  0  0  0  0
  187.8970  177.7060  143.2600 N   0  0  0  0  0  2  0  0  0  0  0  0
  185.8960  177.2170  141.3930 O   0  0  0  0  0  0  0  0  0  0  0  0
  186.7510  178.5980  143.1760 C   0  0  1  0  0  3  0  0  0  0  0  0
  185.6420  177.9490  142.3850 C   0  0  0  0  0  0  0  0  0  0  0  0
  183.9970  179.0110  143.8740 C   0  0  0  0  0  2  0  0  0  0  0  0
  185.2190  179.7980  144.3510 C   0  0  0  0  0  2  0  0  0  0  0  0
  186.3100  178.9190  144.4790 O   0  0  0  0  0  0  0  0  0  0  0  0
  184.3190  178.2690  142.6970 O   0  0  0  0  0  0  0  0  0  0  0  0
  1 12  2  0  0  0  0
  1  8  1  0  0  0  0
  2  8  1  0  0  0  0
  2 13  2  0  0  0  0
  3 11  1  0  0  0  0
  3 17  1  0  0  0  0
  4 14  1  0  0  0  0
  4  9  1  0  0  0  0
  5 10  1  0  0  0  0
  5  6  2  0  0  0  0
  6  2  1  0  0  0  0
  7 17  1  0  0  0  0
  7 16  1  0  0  0  0
  8  3  2  0  0  0  0
 10  1  1  0  0  0  0
 11 15  1  0  0  0  0
 12 18  1  0  0  0  0
 15 21  1  0  0  0  0
 15 14  2  0  0  0  0
 16 26  1  6  0  0  0
 16  9  1  0  0  0  0
 17  4  2  0  0  0  0
 18 11  2  0  0  0  0
 19 20  1  0  0  0  0
 21 24  2  0  0  0  0
 22 20  2  0  0  0  0
 23 21  1  0  0  0  0
 23 19  2  0  0  0  0
 24 22  1  0  0  0  0
 25 19  1  0  0  0  0
 27 26  1  0  0  0  0
 28 30  2  0  0  0  0
 29 27  1  1  0  0  0
 29 33  1  0  0  0  0
 30 34  1  0  0  0  0
 30 29  1  0  0  0  0
 31 32  1  0  0  0  0
 32 33  1  0  0  0  0
 34 31  1  0  0  0  0
M  END
>  <MODEL>
9

>  <REMARK>
 VINA RESULT:      -7.9      4.113      7.150
  Name = 
  4 active torsions:
  status: ('A' for Active; 'I' for Inactive)
    1  A    between atoms: N_3  and  C_13
    2  A    between atoms: N_3  and  N_17
    3  A    between atoms: C_12  and  C_28
    4  A    between atoms: N_17  and  C_29
                            x       y       z     vdW  Elec       q    Type
                         _______ _______ _______ _____ _____    ______ ____

>  <TORSDO>
F 4

$$$$
