=
 OpenBabel11052419283D

 55 59  0  0  1  0  0  0  0  0999 V2000
  189.3430  174.5300  143.7840 C   0  0  2  0  0  3  0  0  0  0  0  0
  190.4910  175.2400  143.0820 C   0  0  0  0  0  2  0  0  0  0  0  0
  189.8160  175.9010  144.2740 C   0  0  1  0  0  0  0  0  0  0  0  0
  187.4480  177.9920  146.0140 C   0  0  0  0  0  0  0  0  0  0  0  0
  185.2020  177.4210  142.9860 C   0  0  1  0  0  3  0  0  0  0  0  0
  186.3570  178.1980  142.8020 O   0  0  0  0  0  0  0  0  0  0  0  0
  188.8170  176.9920  144.0360 C   0  0  0  0  0  0  0  0  0  0  0  0
  184.7210  177.0950  146.8560 C   0  0  0  0  0  1  0  0  0  0  0  0
  188.1570  177.5020  145.0410 C   0  0  0  0  0  0  0  0  0  0  0  0
  188.6680  177.5880  142.6730 C   0  0  0  0  0  2  0  0  0  0  0  0
  186.0130  179.7820  146.6420 O   0  0  0  0  0  1  0  0  0  0  0  0
  184.9430  177.8840  145.5730 C   0  0  1  0  0  0  0  0  0  0  0  0
  187.8160  177.7430  147.3300 O   0  0  0  0  0  1  0  0  0  0  0  0
  185.0610  176.8720  144.4190 C   0  0  0  0  0  2  0  0  0  0  0  0
  187.2630  177.3840  142.1020 C   0  0  2  0  0  3  0  0  0  0  0  0
  183.8220  178.6930  145.3790 O   0  0  0  0  0  1  0  0  0  0  0  0
  186.2010  178.7670  145.6980 C   0  0  2  0  0  3  0  0  0  0  0  0
  187.1190  176.6180  139.8280 O   0  0  0  0  0  1  0  0  0  0  0  0
  187.2690  177.7610  140.6170 C   0  0  1  0  0  3  0  0  0  0  0  0
  186.2340  178.6370  140.3370 F   0  0  0  0  0  0  0  0  0  0  0  0
  183.6610  177.7300  141.1570 O   0  0  0  0  0  1  0  0  0  0  0  0
  183.9530  178.1300  142.4650 C   0  0  0  0  0  2  0  0  0  0  0  0
  189.8800  173.3840  144.6340 C   0  0  0  0  0  2  0  0  0  0  0  0
  189.4010  171.8110  142.8150 C   0  0  0  0  0  2  0  0  0  0  0  0
  190.2370  172.2230  143.7650 C   0  0  0  0  0  0  0  0  0  0  0  0
  191.5990  171.6270  143.8680 C   0  0  0  0  0  2  0  0  0  0  0  0
  191.9390  171.0040  142.6650 O   0  0  0  0  0  0  0  0  0  0  0  0
  193.1680  171.5650  142.3070 C   0  0  2  0  0  3  0  0  0  0  0  0
  192.9470  172.7850  141.4080 C   0  0  0  0  0  2  0  0  0  0  0  0
  194.0420  173.8480  141.5530 C   0  0  2  0  0  3  0  0  0  0  0  0
  196.5890  173.3170  142.1490 O   0  0  0  0  0  1  0  0  0  0  0  0
  196.6560  174.3670  144.2020 C   0  0  2  0  0  3  0  0  0  0  0  0
  195.0530  175.5470  143.0660 C   0  0  0  0  0  2  0  0  0  0  0  0
  195.1510  174.2920  143.9550 C   0  0  1  0  0  0  0  0  0  0  0  0
  196.1370  173.1850  143.4630 C   0  0  1  0  0  3  0  0  0  0  0  0
  193.9960  174.5270  142.9250 C   0  0  2  0  0  3  0  0  0  0  0  0
  196.9450  173.9870  145.6410 C   0  0  2  0  0  3  0  0  0  0  0  0
  196.8260  172.4850  145.8060 C   0  0  0  0  0  1  0  0  0  0  0  0
  196.0420  174.6090  146.4800 F   0  0  0  0  0  0  0  0  0  0  0  0
  194.4380  174.3260  139.1630 C   0  0  1  0  0  3  0  0  0  0  0  0
  195.2420  175.1650  139.9600 O   0  0  0  0  0  0  0  0  0  0  0  0
  193.9510  174.8870  140.4440 C   0  0  2  0  0  3  0  0  0  0  0  0
  193.8670  175.1340  138.0170 C   0  0  0  0  0  2  0  0  0  0  0  0
  191.9970  174.1000  137.4660 C   0  0  0  0  0  1  0  0  0  0  0  0
  193.3200  174.2700  137.0660 O   0  0  0  0  0  0  0  0  0  0  0  0
  194.0740  170.5190  141.6530 C   0  0  0  0  0  2  0  0  0  0  0  0
  195.0430  169.9020  142.6120 C   0  0  0  0  0  0  0  0  0  0  0  0
  194.7030  169.7390  143.9490 O   0  0  0  0  0  1  0  0  0  0  0  0
  196.1870  169.5600  142.2100 O   0  0  0  0  0  0  0  0  0  0  0  0
  190.5090  175.8880  145.4980 O   0  0  0  0  0  0  0  0  0  0  0  0
  191.6890  176.6230  145.3040 C   0  0  0  0  0  2  0  0  0  0  0  0
  192.7110  176.2850  146.3780 C   0  0  1  0  0  0  0  0  0  0  0  0
  193.9560  176.7540  146.0030 F   0  0  0  0  0  0  0  0  0  0  0  0
  192.3390  176.8690  147.5890 O   0  0  0  0  0  1  0  0  0  0  0  0
  192.7780  174.7810  146.5460 C   0  0  0  0  0  1  0  0  0  0  0  0
  1  3  1  0  0  0  0
  1 23  1  1  0  0  0
  2  1  1  0  0  0  0
  2  3  1  0  0  0  0
  3 50  1  1  0  0  0
  4 13  1  0  0  0  0
  5 22  1  1  0  0  0
  5 14  1  0  0  0  0
  6  5  1  0  0  0  0
  7  3  1  0  0  0  0
  7  9  2  0  0  0  0
  9  4  2  0  0  0  0
 10  7  1  0  0  0  0
 12 17  1  0  0  0  0
 12  8  1  1  0  0  0
 14 12  1  0  0  0  0
 15 19  1  6  0  0  0
 15 10  1  0  0  0  0
 15  6  1  0  0  0  0
 16 12  1  0  0  0  0
 17  4  1  0  0  0  0
 17 11  1  1  0  0  0
 19 18  1  6  0  0  0
 20 19  1  0  0  0  0
 21 22  1  0  0  0  0
 24 25  2  0  0  0  0
 25 26  1  0  0  0  0
 25 23  1  0  0  0  0
 27 26  1  0  0  0  0
 28 29  1  6  0  0  0
 28 27  1  0  0  0  0
 30 29  1  1  0  0  0
 32 37  1  1  0  0  0
 34 33  1  6  0  0  0
 34 32  1  0  0  0  0
 35 31  1  6  0  0  0
 35 34  1  0  0  0  0
 35 32  1  0  0  0  0
 36 30  1  6  0  0  0
 36 33  1  0  0  0  0
 36 34  1  0  0  0  0
 37 38  1  6  0  0  0
 37 39  1  0  0  0  0
 40 43  1  6  0  0  0
 40 41  1  0  0  0  0
 40 42  1  0  0  0  0
 41 42  1  0  0  0  0
 42 30  1  1  0  0  0
 45 44  1  0  0  0  0
 45 43  1  0  0  0  0
 46 28  1  0  0  0  0
 46 47  1  0  0  0  0
 47 48  1  0  0  0  0
 49 47  2  0  0  0  0
 51 50  1  0  0  0  0
 51 52  1  0  0  0  0
 52 55  1  1  0  0  0
 52 54  1  0  0  0  0
 53 52  1  0  0  0  0
M  END
>  <MODEL>
1

>  <REMARK>
 VINA RESULT:      -6.2      0.000      0.000
  Name = 
  20 active torsions:
  status: ('A' for Active; 'I' for Inactive)
    1  A    between atoms: C_2  and  C_24
    2  A    between atoms: C_3  and  C_14
    3  A    between atoms: C_4  and  C_37
    4  A    between atoms: C_8  and  C_43
    5  A    between atoms: C_9  and  C_33
    6  A    between atoms: C_9  and  C_49
    7  A    between atoms: C_10  and  C_32
    8  A    between atoms: C_16  and  C_17
    9  A    between atoms: C_17  and  O_23
   10  A    between atoms: C_19  and  C_40
   11  A    between atoms: C_19  and  O_45
   12  A    between atoms: C_20  and  C_46
   13  A    between atoms: C_24  and  C_49
   14  A    between atoms: C_27  and  C_54
   15  A    between atoms: C_33  and  C_36
   16  A    between atoms: C_33  and  C_52
   17  A    between atoms: C_37  and  C_40
   18  A    between atoms: C_43  and  O_51
   19  A    between atoms: O_45  and  C_49
   20  A    between atoms: O_51  and  C_54
                            x       y       z     vdW  Elec       q    Type
                         _______ _______ _______ _____ _____    ______ ____

>  <TORSDO>
F 20

$$$$
=
 OpenBabel11052419283D

 55 59  0  0  1  0  0  0  0  0999 V2000
  191.2440  173.1720  139.7730 C   0  0  2  0  0  3  0  0  0  0  0  0
  191.8870  173.1510  138.3940 C   0  0  0  0  0  2  0  0  0  0  0  0
  192.2920  172.1120  139.4280 C   0  0  1  0  0  0  0  0  0  0  0  0
  194.2910  170.5820  142.0110 C   0  0  0  0  0  0  0  0  0  0  0  0
  194.9500  174.1540  143.1740 C   0  0  1  0  0  3  0  0  0  0  0  0
  195.5100  173.7540  141.9500 O   0  0  0  0  0  0  0  0  0  0  0  0
  193.5790  172.2870  140.1740 C   0  0  0  0  0  0  0  0  0  0  0  0
  193.7540  170.8720  144.9400 C   0  0  0  0  0  1  0  0  0  0  0  0
  193.9360  171.4100  141.0740 C   0  0  0  0  0  0  0  0  0  0  0  0
  194.5180  173.3900  139.8020 C   0  0  0  0  0  2  0  0  0  0  0  0
  196.1060  169.8860  143.3810 O   0  0  0  0  0  1  0  0  0  0  0  0
  194.7830  171.7370  144.2260 C   0  0  1  0  0  0  0  0  0  0  0  0
  193.6510  169.3560  142.1280 O   0  0  0  0  0  1  0  0  0  0  0  0
  194.0940  173.0580  143.8370 C   0  0  0  0  0  2  0  0  0  0  0  0
  194.7410  174.3750  140.9520 C   0  0  2  0  0  3  0  0  0  0  0  0
  195.8160  171.9930  145.1300 O   0  0  0  0  0  1  0  0  0  0  0  0
  195.3460  170.9950  142.9960 C   0  0  2  0  0  3  0  0  0  0  0  0
  194.9700  176.7680  141.0150 O   0  0  0  0  0  1  0  0  0  0  0  0
  195.4720  175.6100  140.4150 C   0  0  1  0  0  3  0  0  0  0  0  0
  196.8280  175.5200  140.6820 F   0  0  0  0  0  0  0  0  0  0  0  0
  197.2840  174.5960  143.5890 O   0  0  0  0  0  1  0  0  0  0  0  0
  195.9940  174.7740  144.1000 C   0  0  0  0  0  2  0  0  0  0  0  0
  189.8180  172.6390  139.6930 C   0  0  0  0  0  2  0  0  0  0  0  0
  188.2540  173.9800  138.3620 C   0  0  0  0  0  2  0  0  0  0  0  0
  188.8550  173.7690  139.5320 C   0  0  0  0  0  0  0  0  0  0  0  0
  188.4570  174.5640  140.7270 C   0  0  0  0  0  2  0  0  0  0  0  0
  188.2340  173.7140  141.8120 O   0  0  0  0  0  0  0  0  0  0  0  0
  188.8390  174.3540  142.8970 C   0  0  2  0  0  3  0  0  0  0  0  0
  188.8570  175.8680  142.6720 C   0  0  0  0  0  2  0  0  0  0  0  0
  188.2600  176.6610  143.8400 C   0  0  2  0  0  3  0  0  0  0  0  0
  190.2500  178.1100  144.8720 O   0  0  0  0  0  1  0  0  0  0  0  0
  190.3930  177.0390  146.9110 C   0  0  2  0  0  3  0  0  0  0  0  0
  188.1950  176.7550  146.3270 C   0  0  0  0  0  2  0  0  0  0  0  0
  189.5480  176.0490  146.1130 C   0  0  1  0  0  0  0  0  0  0  0  0
  190.6700  176.9130  145.4540 C   0  0  1  0  0  3  0  0  0  0  0  0
  188.3250  175.8730  145.1520 C   0  0  2  0  0  3  0  0  0  0  0  0
  191.4400  176.2780  147.7000 C   0  0  2  0  0  3  0  0  0  0  0  0
  192.6120  175.9390  146.8010 C   0  0  0  0  0  1  0  0  0  0  0  0
  190.8960  175.1100  148.1960 F   0  0  0  0  0  0  0  0  0  0  0  0
  186.7950  178.1050  142.4750 C   0  0  1  0  0  3  0  0  0  0  0  0
  186.6760  178.4500  143.8350 O   0  0  0  0  0  0  0  0  0  0  0  0
  186.8270  177.0820  143.5440 C   0  0  2  0  0  3  0  0  0  0  0  0
  185.4210  178.1190  141.8400 C   0  0  0  0  0  2  0  0  0  0  0  0
  186.4270  177.5170  139.9700 C   0  0  0  0  0  1  0  0  0  0  0  0
  185.5350  178.4520  140.4880 O   0  0  0  0  0  0  0  0  0  0  0  0
  190.2390  173.7880  143.1510 C   0  0  0  0  0  2  0  0  0  0  0  0
  190.2200  172.3720  143.6350 C   0  0  0  0  0  0  0  0  0  0  0  0
  190.9060  171.3830  142.9410 O   0  0  0  0  0  0  0  0  0  0  0  0
  189.5490  172.0710  144.6570 O   0  0  0  0  0  1  0  0  0  0  0  0
  191.7890  170.8090  139.2660 O   0  0  0  0  0  0  0  0  0  0  0  0
  192.0100  170.4520  137.9270 C   0  0  0  0  0  2  0  0  0  0  0  0
  190.8330  169.6550  137.3860 C   0  0  1  0  0  0  0  0  0  0  0  0
  191.2900  168.6620  136.5410 F   0  0  0  0  0  0  0  0  0  0  0  0
  190.1230  169.0800  138.4400 O   0  0  0  0  0  1  0  0  0  0  0  0
  189.9180  170.5820  136.6110 C   0  0  0  0  0  1  0  0  0  0  0  0
  1 23  1  6  0  0  0
  2  3  1  0  0  0  0
  2  1  1  0  0  0  0
  3 50  1  6  0  0  0
  3  1  1  0  0  0  0
  3  7  1  0  0  0  0
  4 13  1  0  0  0  0
  4 17  1  0  0  0  0
  5 14  1  0  0  0  0
  5 22  1  1  0  0  0
  6  5  1  0  0  0  0
  7  9  2  0  0  0  0
  9  4  2  0  0  0  0
 10  7  1  0  0  0  0
 10 15  1  0  0  0  0
 12  8  1  1  0  0  0
 12 16  1  0  0  0  0
 14 12  1  0  0  0  0
 15 19  1  6  0  0  0
 15  6  1  0  0  0  0
 17 11  1  1  0  0  0
 17 12  1  0  0  0  0
 19 20  1  1  0  0  0
 19 18  1  0  0  0  0
 21 22  1  0  0  0  0
 24 25  2  0  0  0  0
 25 23  1  0  0  0  0
 25 26  1  0  0  0  0
 26 27  1  0  0  0  0
 27 28  1  0  0  0  0
 28 29  1  6  0  0  0
 28 46  1  0  0  0  0
 30 29  1  6  0  0  0
 32 37  1  1  0  0  0
 34 33  1  6  0  0  0
 34 32  1  0  0  0  0
 35 31  1  6  0  0  0
 35 34  1  0  0  0  0
 35 32  1  0  0  0  0
 36 30  1  6  0  0  0
 36 34  1  0  0  0  0
 36 33  1  0  0  0  0
 37 38  1  6  0  0  0
 37 39  1  0  0  0  0
 40 43  1  6  0  0  0
 40 42  1  0  0  0  0
 40 41  1  0  0  0  0
 42 41  1  0  0  0  0
 42 30  1  1  0  0  0
 44 45  1  0  0  0  0
 45 43  1  0  0  0  0
 46 47  1  0  0  0  0
 47 49  1  0  0  0  0
 48 47  2  0  0  0  0
 51 50  1  0  0  0  0
 52 55  1  6  0  0  0
 52 51  1  0  0  0  0
 52 54  1  0  0  0  0
 53 52  1  0  0  0  0
M  END
>  <MODEL>
2

>  <REMARK>
 VINA RESULT:      -6.0      2.883      8.864
  Name = 
  20 active torsions:
  status: ('A' for Active; 'I' for Inactive)
    1  A    between atoms: C_2  and  C_24
    2  A    between atoms: C_3  and  C_14
    3  A    between atoms: C_4  and  C_37
    4  A    between atoms: C_8  and  C_43
    5  A    between atoms: C_9  and  C_33
    6  A    between atoms: C_9  and  C_49
    7  A    between atoms: C_10  and  C_32
    8  A    between atoms: C_16  and  C_17
    9  A    between atoms: C_17  and  O_23
   10  A    between atoms: C_19  and  C_40
   11  A    between atoms: C_19  and  O_45
   12  A    between atoms: C_20  and  C_46
   13  A    between atoms: C_24  and  C_49
   14  A    between atoms: C_27  and  C_54
   15  A    between atoms: C_33  and  C_36
   16  A    between atoms: C_33  and  C_52
   17  A    between atoms: C_37  and  C_40
   18  A    between atoms: C_43  and  O_51
   19  A    between atoms: O_45  and  C_49
   20  A    between atoms: O_51  and  C_54
                            x       y       z     vdW  Elec       q    Type
                         _______ _______ _______ _____ _____    ______ ____

>  <TORSDO>
F 20

$$$$
=
 OpenBabel11052419283D

 55 59  0  0  1  0  0  0  0  0999 V2000
  191.8550  172.9360  141.9050 C   0  0  2  0  0  3  0  0  0  0  0  0
  191.9250  174.3730  141.4080 C   0  0  0  0  0  2  0  0  0  0  0  0
  192.8710  173.3320  140.8310 C   0  0  1  0  0  0  0  0  0  0  0  0
  195.4220  171.0120  141.8910 C   0  0  0  0  0  0  0  0  0  0  0  0
  196.2610  173.6330  144.5310 C   0  0  1  0  0  3  0  0  0  0  0  0
  196.5410  173.9450  143.1910 O   0  0  0  0  0  0  0  0  0  0  0  0
  194.2890  173.2850  141.3130 C   0  0  0  0  0  0  0  0  0  0  0  0
  195.5460  169.7860  144.6170 C   0  0  0  0  0  1  0  0  0  0  0  0
  194.8530  172.1360  141.5740 C   0  0  0  0  0  0  0  0  0  0  0  0
  195.1020  174.5400  141.3720 C   0  0  0  0  0  2  0  0  0  0  0  0
  197.5080  169.9760  142.3710 O   0  0  0  0  0  1  0  0  0  0  0  0
  196.3750  171.0090  144.2520 C   0  0  1  0  0  0  0  0  0  0  0  0
  194.8450  169.8110  141.4980 O   0  0  0  0  0  1  0  0  0  0  0  0
  195.5930  172.2550  144.7060 C   0  0  0  0  0  2  0  0  0  0  0  0
  195.5580  174.8680  142.7960 C   0  0  2  0  0  3  0  0  0  0  0  0
  197.5780  170.9250  144.9540 O   0  0  0  0  0  1  0  0  0  0  0  0
  196.6630  171.0280  142.7370 C   0  0  2  0  0  3  0  0  0  0  0  0
  197.5260  176.2490  142.8610 O   0  0  0  0  0  1  0  0  0  0  0  0
  196.1300  176.2890  142.8190 C   0  0  1  0  0  3  0  0  0  0  0  0
  195.7360  176.9860  141.6900 F   0  0  0  0  0  0  0  0  0  0  0  0
  197.1520  173.6220  146.7720 O   0  0  0  0  0  1  0  0  0  0  0  0
  197.4740  173.8560  145.4310 C   0  0  0  0  0  2  0  0  0  0  0  0
  190.6260  172.2430  141.3260 C   0  0  0  0  0  2  0  0  0  0  0  0
  189.3310  171.9960  143.3930 C   0  0  0  0  0  2  0  0  0  0  0  0
  189.4300  172.5230  142.1750 C   0  0  0  0  0  0  0  0  0  0  0  0
  188.4220  173.5160  141.7090 C   0  0  0  0  0  2  0  0  0  0  0  0
  187.7600  174.0730  142.8040 O   0  0  0  0  0  0  0  0  0  0  0  0
  188.3620  175.3210  142.9890 C   0  0  2  0  0  3  0  0  0  0  0  0
  187.5630  176.1470  144.0010 C   0  0  0  0  0  2  0  0  0  0  0  0
  188.2340  176.2310  145.3770 C   0  0  2  0  0  3  0  0  0  0  0  0
  190.4910  177.5340  145.9540 O   0  0  0  0  0  1  0  0  0  0  0  0
  191.7730  175.7020  146.5240 C   0  0  2  0  0  3  0  0  0  0  0  0
  189.6440  175.0270  147.0380 C   0  0  0  0  0  2  0  0  0  0  0  0
  190.5930  175.0330  145.8240 C   0  0  1  0  0  0  0  0  0  0  0  0
  191.1390  176.4310  145.3930 C   0  0  1  0  0  3  0  0  0  0  0  0
  189.0340  174.9640  145.6960 C   0  0  2  0  0  3  0  0  0  0  0  0
  193.0620  175.0530  146.0580 C   0  0  2  0  0  3  0  0  0  0  0  0
  194.2330  175.9630  146.3670 C   0  0  0  0  0  1  0  0  0  0  0  0
  193.0080  174.8280  144.6970 F   0  0  0  0  0  0  0  0  0  0  0  0
  186.5980  177.8390  146.2910 C   0  0  1  0  0  3  0  0  0  0  0  0
  187.6260  177.6160  147.2270 O   0  0  0  0  0  0  0  0  0  0  0  0
  187.2120  176.5040  146.4720 C   0  0  2  0  0  3  0  0  0  0  0  0
  185.2700  177.8790  147.0160 C   0  0  0  0  0  2  0  0  0  0  0  0
  184.6500  178.8720  145.1460 C   0  0  0  0  0  1  0  0  0  0  0  0
  184.2310  177.9320  146.0840 O   0  0  0  0  0  0  0  0  0  0  0  0
  188.5300  176.0470  141.6510 C   0  0  0  0  0  2  0  0  0  0  0  0
  188.4170  177.5340  141.7740 C   0  0  0  0  0  0  0  0  0  0  0  0
  189.4810  178.2820  142.2590 O   0  0  0  0  0  1  0  0  0  0  0  0
  187.3370  178.1050  141.4660 O   0  0  0  0  0  0  0  0  0  0  0  0
  192.5920  172.8480  139.5400 O   0  0  0  0  0  0  0  0  0  0  0  0
  192.2270  173.9570  138.7620 C   0  0  0  0  0  2  0  0  0  0  0  0
  193.3890  174.4020  137.8880 C   0  0  1  0  0  0  0  0  0  0  0  0
  194.0660  175.4380  138.5020 F   0  0  0  0  0  0  0  0  0  0  0  0
  194.2610  173.3340  137.6770 O   0  0  0  0  0  1  0  0  0  0  0  0
  192.8530  174.8830  136.5540 C   0  0  0  0  0  1  0  0  0  0  0  0
  1 23  1  6  0  0  0
  2  1  1  0  0  0  0
  3 50  1  6  0  0  0
  3  7  1  0  0  0  0
  3  2  1  0  0  0  0
  3  1  1  0  0  0  0
  4 17  1  0  0  0  0
  5 14  1  0  0  0  0
  5 22  1  1  0  0  0
  6  5  1  0  0  0  0
  7 10  1  0  0  0  0
  7  9  2  0  0  0  0
  9  4  2  0  0  0  0
 10 15  1  0  0  0  0
 12  8  1  1  0  0  0
 12 14  1  0  0  0  0
 12 16  1  0  0  0  0
 13  4  1  0  0  0  0
 15 19  1  6  0  0  0
 15  6  1  0  0  0  0
 17 11  1  6  0  0  0
 17 12  1  0  0  0  0
 19 20  1  6  0  0  0
 19 18  1  0  0  0  0
 22 21  1  0  0  0  0
 23 25  1  0  0  0  0
 25 24  2  0  0  0  0
 26 25  1  0  0  0  0
 26 27  1  0  0  0  0
 27 28  1  0  0  0  0
 28 46  1  6  0  0  0
 28 29  1  0  0  0  0
 30 29  1  6  0  0  0
 32 37  1  6  0  0  0
 34 32  1  0  0  0  0
 34 33  1  1  0  0  0
 35 34  1  0  0  0  0
 35 31  1  1  0  0  0
 35 32  1  0  0  0  0
 36 30  1  6  0  0  0
 36 34  1  0  0  0  0
 36 33  1  0  0  0  0
 37 38  1  6  0  0  0
 39 37  1  0  0  0  0
 40 42  1  0  0  0  0
 40 43  1  1  0  0  0
 40 41  1  0  0  0  0
 42 30  1  6  0  0  0
 42 41  1  0  0  0  0
 44 45  1  0  0  0  0
 45 43  1  0  0  0  0
 46 47  1  0  0  0  0
 47 48  1  0  0  0  0
 49 47  2  0  0  0  0
 51 50  1  0  0  0  0
 52 55  1  6  0  0  0
 52 53  1  0  0  0  0
 52 51  1  0  0  0  0
 54 52  1  0  0  0  0
M  END
>  <MODEL>
3

>  <REMARK>
 VINA RESULT:      -5.9      2.180      9.445
  Name = 
  20 active torsions:
  status: ('A' for Active; 'I' for Inactive)
    1  A    between atoms: C_2  and  C_24
    2  A    between atoms: C_3  and  C_14
    3  A    between atoms: C_4  and  C_37
    4  A    between atoms: C_8  and  C_43
    5  A    between atoms: C_9  and  C_33
    6  A    between atoms: C_9  and  C_49
    7  A    between atoms: C_10  and  C_32
    8  A    between atoms: C_16  and  C_17
    9  A    between atoms: C_17  and  O_23
   10  A    between atoms: C_19  and  C_40
   11  A    between atoms: C_19  and  O_45
   12  A    between atoms: C_20  and  C_46
   13  A    between atoms: C_24  and  C_49
   14  A    between atoms: C_27  and  C_54
   15  A    between atoms: C_33  and  C_36
   16  A    between atoms: C_33  and  C_52
   17  A    between atoms: C_37  and  C_40
   18  A    between atoms: C_43  and  O_51
   19  A    between atoms: O_45  and  C_49
   20  A    between atoms: O_51  and  C_54
                            x       y       z     vdW  Elec       q    Type
                         _______ _______ _______ _____ _____    ______ ____

>  <TORSDO>
F 20

$$$$
=
 OpenBabel11052419283D

 55 59  0  0  1  0  0  0  0  0999 V2000
  191.8120  172.9480  141.6090 C   0  0  2  0  0  3  0  0  0  0  0  0
  192.2570  173.2910  140.1950 C   0  0  0  0  0  2  0  0  0  0  0  0
  192.7450  172.0060  140.8440 C   0  0  1  0  0  0  0  0  0  0  0  0
  194.8580  169.9850  142.9570 C   0  0  0  0  0  0  0  0  0  0  0  0
  196.0990  173.3090  144.3530 C   0  0  1  0  0  3  0  0  0  0  0  0
  196.4420  172.9910  143.0290 O   0  0  0  0  0  0  0  0  0  0  0  0
  194.1300  171.9540  141.4130 C   0  0  0  0  0  0  0  0  0  0  0  0
  194.7470  170.0010  145.9460 C   0  0  0  0  0  1  0  0  0  0  0  0
  194.4900  170.9470  142.1640 C   0  0  0  0  0  0  0  0  0  0  0  0
  195.1420  172.9820  141.0190 C   0  0  0  0  0  2  0  0  0  0  0  0
  196.7360  168.9450  143.9800 O   0  0  0  0  0  1  0  0  0  0  0  0
  195.7740  170.8220  145.1800 C   0  0  1  0  0  0  0  0  0  0  0  0
  194.0920  168.8300  143.0440 O   0  0  0  0  0  1  0  0  0  0  0  0
  195.2080  172.2460  145.0220 C   0  0  0  0  0  2  0  0  0  0  0  0
  195.6320  173.8010  142.2150 C   0  0  2  0  0  3  0  0  0  0  0  0
  196.9390  170.8610  145.9470 O   0  0  0  0  0  1  0  0  0  0  0  0
  196.0760  170.1670  143.8160 C   0  0  2  0  0  3  0  0  0  0  0  0
  195.9300  175.4300  140.4710 O   0  0  0  0  0  1  0  0  0  0  0  0
  196.4340  175.0010  141.7020 C   0  0  1  0  0  3  0  0  0  0  0  0
  196.3640  176.0490  142.6040 F   0  0  0  0  0  0  0  0  0  0  0  0
  196.9840  173.8890  146.5200 O   0  0  0  0  0  1  0  0  0  0  0  0
  197.3240  173.7030  145.1760 C   0  0  0  0  0  2  0  0  0  0  0  0
  190.3620  172.4760  141.6000 C   0  0  0  0  0  2  0  0  0  0  0  0
  188.6050  173.2420  140.0700 C   0  0  0  0  0  2  0  0  0  0  0  0
  189.4800  173.5380  141.0290 C   0  0  0  0  0  0  0  0  0  0  0  0
  189.4800  174.8950  141.6440 C   0  0  0  0  0  2  0  0  0  0  0  0
  188.2310  175.4950  141.4740 O   0  0  0  0  0  0  0  0  0  0  0  0
  188.2400  176.5890  142.3440 C   0  0  2  0  0  3  0  0  0  0  0  0
  187.2820  176.3410  143.5120 C   0  0  0  0  0  2  0  0  0  0  0  0
  187.9520  176.4830  144.8840 C   0  0  2  0  0  3  0  0  0  0  0  0
  190.1190  178.0000  145.2420 O   0  0  0  0  0  1  0  0  0  0  0  0
  191.5990  176.3110  145.7740 C   0  0  2  0  0  3  0  0  0  0  0  0
  189.5820  175.4750  146.4730 C   0  0  0  0  0  2  0  0  0  0  0  0
  190.4350  175.5140  145.1900 C   0  0  1  0  0  0  0  0  0  0  0  0
  190.8210  176.9350  144.6710 C   0  0  1  0  0  3  0  0  0  0  0  0
  188.8840  175.3050  145.1840 C   0  0  2  0  0  3  0  0  0  0  0  0
  192.9030  175.7580  145.2330 C   0  0  2  0  0  3  0  0  0  0  0  0
  193.9390  175.7200  146.3380 C   0  0  0  0  0  1  0  0  0  0  0  0
  193.3620  176.5590  144.2070 F   0  0  0  0  0  0  0  0  0  0  0  0
  186.3190  177.9900  145.9590 C   0  0  1  0  0  3  0  0  0  0  0  0
  187.3300  177.6460  146.8760 O   0  0  0  0  0  0  0  0  0  0  0  0
  186.9170  176.6360  145.9890 C   0  0  2  0  0  3  0  0  0  0  0  0
  184.9800  177.9590  146.6660 C   0  0  0  0  0  2  0  0  0  0  0  0
  184.2790  178.7820  144.7420 C   0  0  0  0  0  1  0  0  0  0  0  0
  184.1420  178.9330  146.1190 O   0  0  0  0  0  0  0  0  0  0  0  0
  187.9160  177.8840  141.5930 C   0  0  0  0  0  2  0  0  0  0  0  0
  186.5640  177.8660  140.9510 C   0  0  0  0  0  0  0  0  0  0  0  0
  186.3730  177.2230  139.7340 O   0  0  0  0  0  0  0  0  0  0  0  0
  185.6040  178.4670  141.5010 O   0  0  0  0  0  1  0  0  0  0  0  0
  192.1550  170.8020  140.4180 O   0  0  0  0  0  0  0  0  0  0  0  0
  192.4450  170.6690  139.0520 C   0  0  0  0  0  2  0  0  0  0  0  0
  191.1710  170.4300  138.2570 C   0  0  1  0  0  0  0  0  0  0  0  0
  190.0910  170.3580  139.1150 F   0  0  0  0  0  0  0  0  0  0  0  0
  190.9760  171.4690  137.3470 O   0  0  0  0  0  1  0  0  0  0  0  0
  191.2930  169.1210  137.5030 C   0  0  0  0  0  1  0  0  0  0  0  0
  1 23  1  6  0  0  0
  2  3  1  0  0  0  0
  2  1  1  0  0  0  0
  3 50  1  6  0  0  0
  3  7  1  0  0  0  0
  3  1  1  0  0  0  0
  4 13  1  0  0  0  0
  4 17  1  0  0  0  0
  5 14  1  0  0  0  0
  5 22  1  1  0  0  0
  6  5  1  0  0  0  0
  7  9  2  0  0  0  0
  9  4  2  0  0  0  0
 10  7  1  0  0  0  0
 10 15  1  0  0  0  0
 12  8  1  1  0  0  0
 12 16  1  0  0  0  0
 14 12  1  0  0  0  0
 15 19  1  6  0  0  0
 15  6  1  0  0  0  0
 17 11  1  1  0  0  0
 17 12  1  0  0  0  0
 19 18  1  6  0  0  0
 19 20  1  0  0  0  0
 22 21  1  0  0  0  0
 24 25  2  0  0  0  0
 25 23  1  0  0  0  0
 25 26  1  0  0  0  0
 27 26  1  0  0  0  0
 27 28  1  0  0  0  0
 28 46  1  6  0  0  0
 28 29  1  0  0  0  0
 30 29  1  6  0  0  0
 32 37  1  6  0  0  0
 34 32  1  0  0  0  0
 34 33  1  1  0  0  0
 35 34  1  0  0  0  0
 35 31  1  1  0  0  0
 35 32  1  0  0  0  0
 36 30  1  6  0  0  0
 36 34  1  0  0  0  0
 36 33  1  0  0  0  0
 37 38  1  1  0  0  0
 39 37  1  0  0  0  0
 40 42  1  0  0  0  0
 40 43  1  1  0  0  0
 40 41  1  0  0  0  0
 42 30  1  6  0  0  0
 42 41  1  0  0  0  0
 44 45  1  0  0  0  0
 45 43  1  0  0  0  0
 47 49  1  0  0  0  0
 47 46  1  0  0  0  0
 48 47  2  0  0  0  0
 51 50  1  0  0  0  0
 52 55  1  6  0  0  0
 52 51  1  0  0  0  0
 52 53  1  0  0  0  0
 54 52  1  0  0  0  0
M  END
>  <MODEL>
4

>  <REMARK>
 VINA RESULT:      -5.8      2.381      9.729
  Name = 
  20 active torsions:
  status: ('A' for Active; 'I' for Inactive)
    1  A    between atoms: C_2  and  C_24
    2  A    between atoms: C_3  and  C_14
    3  A    between atoms: C_4  and  C_37
    4  A    between atoms: C_8  and  C_43
    5  A    between atoms: C_9  and  C_33
    6  A    between atoms: C_9  and  C_49
    7  A    between atoms: C_10  and  C_32
    8  A    between atoms: C_16  and  C_17
    9  A    between atoms: C_17  and  O_23
   10  A    between atoms: C_19  and  C_40
   11  A    between atoms: C_19  and  O_45
   12  A    between atoms: C_20  and  C_46
   13  A    between atoms: C_24  and  C_49
   14  A    between atoms: C_27  and  C_54
   15  A    between atoms: C_33  and  C_36
   16  A    between atoms: C_33  and  C_52
   17  A    between atoms: C_37  and  C_40
   18  A    between atoms: C_43  and  O_51
   19  A    between atoms: O_45  and  C_49
   20  A    between atoms: O_51  and  C_54
                            x       y       z     vdW  Elec       q    Type
                         _______ _______ _______ _____ _____    ______ ____

>  <TORSDO>
F 20

$$$$
=
 OpenBabel11052419283D

 55 59  0  0  1  0  0  0  0  0999 V2000
  189.3650  174.1700  143.6340 C   0  0  2  0  0  3  0  0  0  0  0  0
  190.4890  174.9000  142.9120 C   0  0  0  0  0  2  0  0  0  0  0  0
  190.0970  175.3270  144.3180 C   0  0  1  0  0  0  0  0  0  0  0  0
  188.4690  177.2780  146.8770 C   0  0  0  0  0  0  0  0  0  0  0  0
  185.5900  177.5520  144.3910 C   0  0  1  0  0  3  0  0  0  0  0  0
  186.7840  178.2220  144.0810 O   0  0  0  0  0  0  0  0  0  0  0  0
  189.2420  176.5430  144.5010 C   0  0  0  0  0  0  0  0  0  0  0  0
  185.8710  176.5300  148.1580 C   0  0  0  0  0  1  0  0  0  0  0  0
  188.8830  176.9150  145.7000 C   0  0  0  0  0  0  0  0  0  0  0  0
  188.9050  177.4070  143.3260 C   0  0  0  0  0  2  0  0  0  0  0  0
  187.4720  179.0540  148.1060 O   0  0  0  0  0  1  0  0  0  0  0  0
  185.9380  177.5260  147.0090 C   0  0  1  0  0  0  0  0  0  0  0  0
  189.0580  176.7400  148.0140 O   0  0  0  0  0  1  0  0  0  0  0  0
  185.6670  176.7520  145.7060 C   0  0  0  0  0  2  0  0  0  0  0  0
  187.3980  177.4690  143.0660 C   0  0  2  0  0  3  0  0  0  0  0  0
  184.9330  178.4720  147.2130 O   0  0  0  0  0  1  0  0  0  0  0  0
  187.3110  178.2290  146.9880 C   0  0  2  0  0  3  0  0  0  0  0  0
  188.3700  178.4910  141.1190 O   0  0  0  0  0  1  0  0  0  0  0  0
  187.1550  178.1250  141.7030 C   0  0  1  0  0  3  0  0  0  0  0  0
  186.4980  177.2470  140.8570 F   0  0  0  0  0  0  0  0  0  0  0  0
  184.7780  179.8150  144.2140 O   0  0  0  0  0  1  0  0  0  0  0  0
  184.3790  178.4770  144.2950 C   0  0  0  0  0  2  0  0  0  0  0  0
  189.8490  172.8050  144.1080 C   0  0  0  0  0  2  0  0  0  0  0  0
  189.3700  171.8410  141.9040 C   0  0  0  0  0  2  0  0  0  0  0  0
  190.2040  171.9500  142.9360 C   0  0  0  0  0  0  0  0  0  0  0  0
  191.5620  171.3410  142.8620 C   0  0  0  0  0  2  0  0  0  0  0  0
  192.3630  171.8350  143.8940 O   0  0  0  0  0  0  0  0  0  0  0  0
  193.5440  172.2400  143.2670 C   0  0  2  0  0  3  0  0  0  0  0  0
  193.3760  172.1900  141.7450 C   0  0  0  0  0  2  0  0  0  0  0  0
  193.7190  173.5160  141.0560 C   0  0  2  0  0  3  0  0  0  0  0  0
  196.2120  174.0360  140.2580 O   0  0  0  0  0  1  0  0  0  0  0  0
  196.6420  175.7880  141.6960 C   0  0  2  0  0  3  0  0  0  0  0  0
  194.3700  175.8920  141.4140 C   0  0  0  0  0  2  0  0  0  0  0  0
  195.3900  175.1850  142.3280 C   0  0  1  0  0  0  0  0  0  0  0  0
  196.4650  174.3140  141.6030 C   0  0  1  0  0  3  0  0  0  0  0  0
  193.9450  174.6410  142.0710 C   0  0  2  0  0  3  0  0  0  0  0  0
  197.6430  176.1170  142.7870 C   0  0  2  0  0  3  0  0  0  0  0  0
  197.7190  174.9690  143.7730 C   0  0  0  0  0  1  0  0  0  0  0  0
  197.2510  177.2620  143.4520 F   0  0  0  0  0  0  0  0  0  0  0  0
  192.4640  172.8560  139.0340 C   0  0  1  0  0  3  0  0  0  0  0  0
  193.2110  174.0210  138.7760 O   0  0  0  0  0  0  0  0  0  0  0  0
  192.6400  173.9120  140.0570 C   0  0  2  0  0  3  0  0  0  0  0  0
  191.0950  172.9970  138.4030 C   0  0  0  0  0  2  0  0  0  0  0  0
  191.1330  170.9430  137.5990 C   0  0  0  0  0  1  0  0  0  0  0  0
  190.4260  171.7730  138.4650 O   0  0  0  0  0  0  0  0  0  0  0  0
  194.7310  171.3990  143.7470 C   0  0  0  0  0  2  0  0  0  0  0  0
  194.9950  171.5410  145.2120 C   0  0  0  0  0  0  0  0  0  0  0  0
  195.4920  172.7330  145.7240 O   0  0  0  0  0  0  0  0  0  0  0  0
  194.7970  170.5630  145.9800 O   0  0  0  0  0  1  0  0  0  0  0  0
  190.9520  174.9510  145.3700 O   0  0  0  0  0  0  0  0  0  0  0  0
  192.2630  175.2010  144.9360 C   0  0  0  0  0  2  0  0  0  0  0  0
  192.8070  176.4660  145.5810 C   0  0  1  0  0  0  0  0  0  0  0  0
  192.5430  177.5540  144.7710 F   0  0  0  0  0  0  0  0  0  0  0  0
  192.2120  176.6580  146.8280 O   0  0  0  0  0  1  0  0  0  0  0  0
  194.3060  176.3310  145.7560 C   0  0  0  0  0  1  0  0  0  0  0  0
  1 23  1  1  0  0  0
  1  3  1  0  0  0  0
  2  1  1  0  0  0  0
  2  3  1  0  0  0  0
  3  7  1  0  0  0  0
  3 50  1  1  0  0  0
  4 17  1  0  0  0  0
  4 13  1  0  0  0  0
  5 22  1  1  0  0  0
  5 14  1  0  0  0  0
  6  5  1  0  0  0  0
  7  9  2  0  0  0  0
  9  4  2  0  0  0  0
 10  7  1  0  0  0  0
 12 16  1  0  0  0  0
 12  8  1  1  0  0  0
 14 12  1  0  0  0  0
 15 19  1  6  0  0  0
 15 10  1  0  0  0  0
 15  6  1  0  0  0  0
 17 12  1  0  0  0  0
 17 11  1  1  0  0  0
 18 19  1  0  0  0  0
 19 20  1  6  0  0  0
 21 22  1  0  0  0  0
 24 25  2  0  0  0  0
 25 23  1  0  0  0  0
 26 25  1  0  0  0  0
 26 27  1  0  0  0  0
 28 29  1  6  0  0  0
 28 46  1  0  0  0  0
 28 27  1  0  0  0  0
 30 29  1  1  0  0  0
 32 34  1  0  0  0  0
 32 37  1  1  0  0  0
 33 36  1  0  0  0  0
 34 33  1  6  0  0  0
 35 31  1  6  0  0  0
 35 32  1  0  0  0  0
 35 34  1  0  0  0  0
 36 30  1  6  0  0  0
 36 34  1  0  0  0  0
 37 39  1  0  0  0  0
 37 38  1  1  0  0  0
 40 43  1  6  0  0  0
 40 42  1  0  0  0  0
 41 40  1  0  0  0  0
 41 42  1  0  0  0  0
 42 30  1  1  0  0  0
 43 45  1  0  0  0  0
 44 45  1  0  0  0  0
 46 47  1  0  0  0  0
 47 48  2  0  0  0  0
 47 49  1  0  0  0  0
 51 50  1  0  0  0  0
 51 52  1  0  0  0  0
 52 55  1  1  0  0  0
 52 54  1  0  0  0  0
 53 52  1  0  0  0  0
M  END
>  <MODEL>
5

>  <REMARK>
 VINA RESULT:      -5.7      1.747      2.147
  Name = 
  20 active torsions:
  status: ('A' for Active; 'I' for Inactive)
    1  A    between atoms: C_2  and  C_24
    2  A    between atoms: C_3  and  C_14
    3  A    between atoms: C_4  and  C_37
    4  A    between atoms: C_8  and  C_43
    5  A    between atoms: C_9  and  C_33
    6  A    between atoms: C_9  and  C_49
    7  A    between atoms: C_10  and  C_32
    8  A    between atoms: C_16  and  C_17
    9  A    between atoms: C_17  and  O_23
   10  A    between atoms: C_19  and  C_40
   11  A    between atoms: C_19  and  O_45
   12  A    between atoms: C_20  and  C_46
   13  A    between atoms: C_24  and  C_49
   14  A    between atoms: C_27  and  C_54
   15  A    between atoms: C_33  and  C_36
   16  A    between atoms: C_33  and  C_52
   17  A    between atoms: C_37  and  C_40
   18  A    between atoms: C_43  and  O_51
   19  A    between atoms: O_45  and  C_49
   20  A    between atoms: O_51  and  C_54
                            x       y       z     vdW  Elec       q    Type
                         _______ _______ _______ _____ _____    ______ ____

>  <TORSDO>
F 20

$$$$
=
 OpenBabel11052419283D

 55 59  0  0  1  0  0  0  0  0999 V2000
  189.7280  172.5200  141.8160 C   0  0  2  0  0  3  0  0  0  0  0  0
  189.6820  171.5020  142.9470 C   0  0  0  0  0  2  0  0  0  0  0  0
  190.3990  172.8260  143.1570 C   0  0  1  0  0  0  0  0  0  0  0  0
  193.2990  170.6840  143.2800 C   0  0  0  0  0  0  0  0  0  0  0  0
  194.8950  173.4950  145.3030 C   0  0  1  0  0  3  0  0  0  0  0  0
  194.6370  173.7360  143.9440 O   0  0  0  0  0  0  0  0  0  0  0  0
  191.8940  172.8680  143.0750 C   0  0  0  0  0  0  0  0  0  0  0  0
  194.5020  169.6340  145.8100 C   0  0  0  0  0  1  0  0  0  0  0  0
  192.5840  171.7620  143.1530 C   0  0  0  0  0  0  0  0  0  0  0  0
  192.5920  174.1570  142.7730 C   0  0  0  0  0  2  0  0  0  0  0  0
  195.4730  169.7670  142.9860 O   0  0  0  0  0  1  0  0  0  0  0  0
  195.0590  170.8660  145.1110 C   0  0  1  0  0  0  0  0  0  0  0  0
  192.6930  169.4380  143.1820 O   0  0  0  0  0  1  0  0  0  0  0  0
  194.4270  172.1040  145.7720 C   0  0  0  0  0  2  0  0  0  0  0  0
  193.5230  174.5900  143.9080 C   0  0  2  0  0  3  0  0  0  0  0  0
  196.4400  170.8760  145.3140 O   0  0  0  0  0  1  0  0  0  0  0  0
  194.7610  170.8040  143.5980 C   0  0  2  0  0  3  0  0  0  0  0  0
  194.3100  176.6520  144.8640 O   0  0  0  0  0  1  0  0  0  0  0  0
  193.9740  176.0330  143.6570 C   0  0  1  0  0  3  0  0  0  0  0  0
  195.0770  176.0550  142.8210 F   0  0  0  0  0  0  0  0  0  0  0  0
  196.9340  174.6320  144.7000 O   0  0  0  0  0  1  0  0  0  0  0  0
  196.3400  173.8230  145.6740 C   0  0  0  0  0  2  0  0  0  0  0  0
  188.3710  173.1980  141.6680 C   0  0  0  0  0  2  0  0  0  0  0  0
  188.8200  173.9770  139.3870 C   0  0  0  0  0  2  0  0  0  0  0  0
  188.4420  174.2690  140.6300 C   0  0  0  0  0  0  0  0  0  0  0  0
  187.9430  175.6340  140.9550 C   0  0  0  0  0  2  0  0  0  0  0  0
  188.3440  175.9940  142.2430 O   0  0  0  0  0  0  0  0  0  0  0  0
  187.8310  177.2810  142.4310 C   0  0  2  0  0  3  0  0  0  0  0  0
  186.6790  177.5360  141.4550 C   0  0  0  0  0  2  0  0  0  0  0  0
  185.5220  178.3240  142.0780 C   0  0  2  0  0  3  0  0  0  0  0  0
  185.9250  180.2110  143.9230 O   0  0  0  0  0  1  0  0  0  0  0  0
  184.8740  179.1550  145.6850 C   0  0  2  0  0  3  0  0  0  0  0  0
  183.7760  178.3260  143.8530 C   0  0  0  0  0  2  0  0  0  0  0  0
  185.0250  178.0030  144.6950 C   0  0  1  0  0  0  0  0  0  0  0  0
  186.0810  179.1480  144.8150 C   0  0  1  0  0  3  0  0  0  0  0  0
  184.8480  177.5420  143.2100 C   0  0  2  0  0  3  0  0  0  0  0  0
  185.2410  178.6700  147.0750 C   0  0  2  0  0  3  0  0  0  0  0  0
  186.0800  177.4120  146.9720 C   0  0  0  0  0  1  0  0  0  0  0  0
  184.0940  178.3940  147.7920 F   0  0  0  0  0  0  0  0  0  0  0  0
  183.2640  177.9170  141.1660 C   0  0  1  0  0  3  0  0  0  0  0  0
  184.2360  177.6230  140.1900 O   0  0  0  0  0  0  0  0  0  0  0  0
  184.4970  178.7240  141.0260 C   0  0  2  0  0  3  0  0  0  0  0  0
  182.1130  178.6490  140.5110 C   0  0  0  0  0  2  0  0  0  0  0  0
  179.9170  178.4480  140.4240 C   0  0  0  0  0  1  0  0  0  0  0  0
  180.9780  178.5510  141.3190 O   0  0  0  0  0  0  0  0  0  0  0  0
  188.9390  178.3310  142.3070 C   0  0  0  0  0  2  0  0  0  0  0  0
  190.1540  177.9990  143.1160 C   0  0  0  0  0  0  0  0  0  0  0  0
  190.9980  176.9670  142.7250 O   0  0  0  0  0  0  0  0  0  0  0  0
  190.3920  178.6370  144.1750 O   0  0  0  0  0  1  0  0  0  0  0  0
  189.7480  173.7960  143.9400 O   0  0  0  0  0  0  0  0  0  0  0  0
  189.8610  173.3820  145.2760 C   0  0  0  0  0  2  0  0  0  0  0  0
  189.7930  174.5780  146.2130 C   0  0  1  0  0  0  0  0  0  0  0  0
  189.1800  174.2110  147.3960 F   0  0  0  0  0  0  0  0  0  0  0  0
  191.0790  175.0470  146.4810 O   0  0  0  0  0  1  0  0  0  0  0  0
  188.9840  175.6790  145.5580 C   0  0  0  0  0  1  0  0  0  0  0  0
  1 23  1  1  0  0  0
  1  2  1  0  0  0  0
  1  3  1  0  0  0  0
  2  3  1  0  0  0  0
  3 50  1  1  0  0  0
  4 17  1  0  0  0  0
  5 22  1  6  0  0  0
  5 14  1  0  0  0  0
  6  5  1  0  0  0  0
  7  9  2  0  0  0  0
  7  3  1  0  0  0  0
  9  4  2  0  0  0  0
 10  7  1  0  0  0  0
 10 15  1  0  0  0  0
 12 16  1  0  0  0  0
 12 14  1  0  0  0  0
 12  8  1  1  0  0  0
 13  4  1  0  0  0  0
 15 19  1  6  0  0  0
 15  6  1  0  0  0  0
 17 11  1  1  0  0  0
 17 12  1  0  0  0  0
 19 20  1  6  0  0  0
 19 18  1  0  0  0  0
 21 22  1  0  0  0  0
 24 25  2  0  0  0  0
 25 26  1  0  0  0  0
 25 23  1  0  0  0  0
 26 27  1  0  0  0  0
 27 28  1  0  0  0  0
 28 29  1  6  0  0  0
 30 29  1  6  0  0  0
 32 37  1  1  0  0  0
 34 33  1  6  0  0  0
 34 35  1  0  0  0  0
 34 32  1  0  0  0  0
 35 31  1  6  0  0  0
 35 32  1  0  0  0  0
 36 30  1  6  0  0  0
 36 33  1  0  0  0  0
 36 34  1  0  0  0  0
 37 38  1  6  0  0  0
 37 39  1  0  0  0  0
 40 43  1  6  0  0  0
 41 42  1  0  0  0  0
 41 40  1  0  0  0  0
 42 40  1  0  0  0  0
 42 30  1  1  0  0  0
 43 45  1  0  0  0  0
 44 45  1  0  0  0  0
 46 28  1  0  0  0  0
 46 47  1  0  0  0  0
 47 49  1  0  0  0  0
 48 47  2  0  0  0  0
 50 51  1  0  0  0  0
 51 52  1  0  0  0  0
 52 55  1  6  0  0  0
 52 54  1  0  0  0  0
 52 53  1  0  0  0  0
M  END
>  <MODEL>
6

>  <REMARK>
 VINA RESULT:      -5.6      2.606      9.672
  Name = 
  20 active torsions:
  status: ('A' for Active; 'I' for Inactive)
    1  A    between atoms: C_2  and  C_24
    2  A    between atoms: C_3  and  C_14
    3  A    between atoms: C_4  and  C_37
    4  A    between atoms: C_8  and  C_43
    5  A    between atoms: C_9  and  C_33
    6  A    between atoms: C_9  and  C_49
    7  A    between atoms: C_10  and  C_32
    8  A    between atoms: C_16  and  C_17
    9  A    between atoms: C_17  and  O_23
   10  A    between atoms: C_19  and  C_40
   11  A    between atoms: C_19  and  O_45
   12  A    between atoms: C_20  and  C_46
   13  A    between atoms: C_24  and  C_49
   14  A    between atoms: C_27  and  C_54
   15  A    between atoms: C_33  and  C_36
   16  A    between atoms: C_33  and  C_52
   17  A    between atoms: C_37  and  C_40
   18  A    between atoms: C_43  and  O_51
   19  A    between atoms: O_45  and  C_49
   20  A    between atoms: O_51  and  C_54
                            x       y       z     vdW  Elec       q    Type
                         _______ _______ _______ _____ _____    ______ ____

>  <TORSDO>
F 20

$$$$
=
 OpenBabel11052419283D

 55 59  0  0  1  0  0  0  0  0999 V2000
  191.3240  172.0640  140.1860 C   0  0  2  0  0  3  0  0  0  0  0  0
  190.0880  171.5620  139.4540 C   0  0  0  0  0  2  0  0  0  0  0  0
  190.1710  173.0210  139.8740 C   0  0  1  0  0  0  0  0  0  0  0  0
  187.8200  175.5180  140.9900 C   0  0  0  0  0  0  0  0  0  0  0  0
  189.9540  175.6600  144.1470 C   0  0  1  0  0  3  0  0  0  0  0  0
  189.2110  174.4910  143.9150 O   0  0  0  0  0  0  0  0  0  0  0  0
  189.4310  173.4740  141.0960 C   0  0  0  0  0  0  0  0  0  0  0  0
  188.5600  178.3390  141.6580 C   0  0  0  0  0  1  0  0  0  0  0  0
  188.6060  174.4840  141.0220 C   0  0  0  0  0  0  0  0  0  0  0  0
  189.5340  172.6930  142.3670 C   0  0  0  0  0  2  0  0  0  0  0  0
  186.1240  176.6870  142.1790 O   0  0  0  0  0  1  0  0  0  0  0  0
  188.4120  177.2740  142.7360 C   0  0  1  0  0  0  0  0  0  0  0  0
  187.4050  176.0330  139.7690 O   0  0  0  0  0  1  0  0  0  0  0  0
  189.8130  176.7020  143.0210 C   0  0  0  0  0  2  0  0  0  0  0  0
  190.1380  173.5180  143.5060 C   0  0  2  0  0  3  0  0  0  0  0  0
  187.9170  177.9010  143.8800 O   0  0  0  0  0  1  0  0  0  0  0  0
  187.4240  176.1810  142.2780 C   0  0  2  0  0  3  0  0  0  0  0  0
  189.3120  171.9650  145.1450 O   0  0  0  0  0  1  0  0  0  0  0  0
  190.4720  172.5840  144.6740 C   0  0  1  0  0  3  0  0  0  0  0  0
  191.3670  171.6080  144.2700 F   0  0  0  0  0  0  0  0  0  0  0  0
  190.6720  177.1780  145.8780 O   0  0  0  0  0  1  0  0  0  0  0  0
  189.7090  176.2180  145.5470 C   0  0  0  0  0  2  0  0  0  0  0  0
  192.4870  172.2050  139.2110 C   0  0  0  0  0  2  0  0  0  0  0  0
  194.6320  171.0890  138.7980 C   0  0  0  0  0  2  0  0  0  0  0  0
  193.6190  171.3240  139.6290 C   0  0  0  0  0  0  0  0  0  0  0  0
  193.6790  170.8340  141.0340 C   0  0  0  0  0  2  0  0  0  0  0  0
  195.0060  170.7850  141.4660 O   0  0  0  0  0  0  0  0  0  0  0  0
  195.1300  171.8500  142.3620 C   0  0  2  0  0  3  0  0  0  0  0  0
  195.9160  172.9940  141.7150 C   0  0  0  0  0  2  0  0  0  0  0  0
  195.1870  174.3410  141.7810 C   0  0  2  0  0  3  0  0  0  0  0  0
  196.1620  176.1510  143.4840 O   0  0  0  0  0  1  0  0  0  0  0  0
  194.3730  176.2050  144.9400 C   0  0  2  0  0  3  0  0  0  0  0  0
  193.4020  175.6270  142.9460 C   0  0  0  0  0  2  0  0  0  0  0  0
  194.0730  174.9350  144.1480 C   0  0  1  0  0  0  0  0  0  0  0  0
  195.5300  175.3950  144.4730 C   0  0  1  0  0  3  0  0  0  0  0  0
  193.9820  174.2890  142.7250 C   0  0  2  0  0  3  0  0  0  0  0  0
  194.1250  175.9440  146.4140 C   0  0  2  0  0  3  0  0  0  0  0  0
  193.0220  174.9170  146.5720 C   0  0  0  0  0  1  0  0  0  0  0  0
  193.7490  177.1150  147.0400 F   0  0  0  0  0  0  0  0  0  0  0  0
  195.8940  174.7490  139.4500 C   0  0  1  0  0  3  0  0  0  0  0  0
  195.4770  175.9560  140.0430 O   0  0  0  0  0  0  0  0  0  0  0  0
  194.7550  174.8010  140.3950 C   0  0  2  0  0  3  0  0  0  0  0  0
  195.3630  174.6850  138.0340 C   0  0  0  0  0  2  0  0  0  0  0  0
  197.0610  175.5360  136.9120 C   0  0  0  0  0  1  0  0  0  0  0  0
  196.3980  174.3380  137.1630 O   0  0  0  0  0  0  0  0  0  0  0  0
  195.7600  171.3840  143.6780 C   0  0  0  0  0  2  0  0  0  0  0  0
  194.7480  171.0790  144.7360 C   0  0  0  0  0  0  0  0  0  0  0  0
  193.8930  169.9930  144.5990 O   0  0  0  0  0  0  0  0  0  0  0  0
  194.6500  171.8310  145.7410 O   0  0  0  0  0  1  0  0  0  0  0  0
  190.4400  173.9690  138.8700 O   0  0  0  0  0  0  0  0  0  0  0  0
  189.4930  173.7640  137.8550 C   0  0  0  0  0  2  0  0  0  0  0  0
  190.1730  173.6950  136.4970 C   0  0  1  0  0  0  0  0  0  0  0  0
  190.5190  172.3870  136.2120 F   0  0  0  0  0  0  0  0  0  0  0  0
  189.3130  174.1760  135.5090 O   0  0  0  0  0  1  0  0  0  0  0  0
  191.4290  174.5430  136.5240 C   0  0  0  0  0  1  0  0  0  0  0  0
  1 23  1  6  0  0  0
  2  3  1  0  0  0  0
  2  1  1  0  0  0  0
  3 50  1  6  0  0  0
  3  1  1  0  0  0  0
  3  7  1  0  0  0  0
  4  9  2  0  0  0  0
  4 17  1  0  0  0  0
  5 22  1  1  0  0  0
  6  5  1  0  0  0  0
  7 10  1  0  0  0  0
  9  7  2  0  0  0  0
 10 15  1  0  0  0  0
 12  8  1  6  0  0  0
 12 14  1  0  0  0  0
 12 16  1  0  0  0  0
 13  4  1  0  0  0  0
 14  5  1  0  0  0  0
 15  6  1  0  0  0  0
 15 19  1  1  0  0  0
 17 11  1  6  0  0  0
 17 12  1  0  0  0  0
 19 20  1  6  0  0  0
 19 18  1  0  0  0  0
 22 21  1  0  0  0  0
 23 25  1  0  0  0  0
 24 25  2  0  0  0  0
 25 26  1  0  0  0  0
 26 27  1  0  0  0  0
 27 28  1  0  0  0  0
 28 29  1  6  0  0  0
 28 46  1  0  0  0  0
 30 29  1  6  0  0  0
 32 37  1  1  0  0  0
 34 33  1  6  0  0  0
 34 35  1  0  0  0  0
 34 32  1  0  0  0  0
 35 31  1  6  0  0  0
 35 32  1  0  0  0  0
 36 30  1  6  0  0  0
 36 33  1  0  0  0  0
 36 34  1  0  0  0  0
 37 38  1  6  0  0  0
 37 39  1  0  0  0  0
 40 43  1  6  0  0  0
 40 41  1  0  0  0  0
 40 42  1  0  0  0  0
 41 42  1  0  0  0  0
 42 30  1  1  0  0  0
 44 45  1  0  0  0  0
 45 43  1  0  0  0  0
 46 47  1  0  0  0  0
 47 49  1  0  0  0  0
 48 47  2  0  0  0  0
 51 50  1  0  0  0  0
 52 55  1  1  0  0  0
 52 51  1  0  0  0  0
 53 52  1  0  0  0  0
 54 52  1  0  0  0  0
M  END
>  <MODEL>
7

>  <REMARK>
 VINA RESULT:      -5.6      2.547      5.580
  Name = 
  20 active torsions:
  status: ('A' for Active; 'I' for Inactive)
    1  A    between atoms: C_2  and  C_24
    2  A    between atoms: C_3  and  C_14
    3  A    between atoms: C_4  and  C_37
    4  A    between atoms: C_8  and  C_43
    5  A    between atoms: C_9  and  C_33
    6  A    between atoms: C_9  and  C_49
    7  A    between atoms: C_10  and  C_32
    8  A    between atoms: C_16  and  C_17
    9  A    between atoms: C_17  and  O_23
   10  A    between atoms: C_19  and  C_40
   11  A    between atoms: C_19  and  O_45
   12  A    between atoms: C_20  and  C_46
   13  A    between atoms: C_24  and  C_49
   14  A    between atoms: C_27  and  C_54
   15  A    between atoms: C_33  and  C_36
   16  A    between atoms: C_33  and  C_52
   17  A    between atoms: C_37  and  C_40
   18  A    between atoms: C_43  and  O_51
   19  A    between atoms: O_45  and  C_49
   20  A    between atoms: O_51  and  C_54
                            x       y       z     vdW  Elec       q    Type
                         _______ _______ _______ _____ _____    ______ ____

>  <TORSDO>
F 20

$$$$
=
 OpenBabel11052419283D

 55 59  0  0  1  0  0  0  0  0999 V2000
  190.9460  171.8310  139.5830 C   0  0  2  0  0  3  0  0  0  0  0  0
  191.1830  170.3320  139.6910 C   0  0  0  0  0  2  0  0  0  0  0  0
  191.6520  171.2490  140.8100 C   0  0  1  0  0  0  0  0  0  0  0  0
  194.6800  170.4390  142.5940 C   0  0  0  0  0  0  0  0  0  0  0  0
  195.3340  174.1950  142.5490 C   0  0  1  0  0  3  0  0  0  0  0  0
  195.3980  173.5090  141.3260 O   0  0  0  0  0  0  0  0  0  0  0  0
  193.1000  171.6210  140.8930 C   0  0  0  0  0  0  0  0  0  0  0  0
  195.3330  171.4460  145.3340 C   0  0  0  0  0  1  0  0  0  0  0  0
  193.8870  171.0020  141.7320 C   0  0  0  0  0  0  0  0  0  0  0  0
  193.6770  172.6070  139.9270 C   0  0  0  0  0  2  0  0  0  0  0  0
  196.9590  170.1300  143.1990 O   0  0  0  0  0  1  0  0  0  0  0  0
  195.8830  172.1170  144.0840 C   0  0  1  0  0  0  0  0  0  0  0  0
  194.2860  169.2730  143.2370 O   0  0  0  0  0  1  0  0  0  0  0  0
  194.9480  173.2900  143.7340 C   0  0  0  0  0  2  0  0  0  0  0  0
  194.2270  173.8500  140.6290 C   0  0  2  0  0  3  0  0  0  0  0  0
  197.1540  172.6040  144.3920 O   0  0  0  0  0  1  0  0  0  0  0  0
  195.9870  171.0980  142.9300 C   0  0  2  0  0  3  0  0  0  0  0  0
  193.5560  174.9130  138.5790 O   0  0  0  0  0  1  0  0  0  0  0  0
  194.5350  174.9210  139.5760 C   0  0  1  0  0  3  0  0  0  0  0  0
  194.5680  176.1760  140.1600 F   0  0  0  0  0  0  0  0  0  0  0  0
  196.3280  176.0530  143.7220 O   0  0  0  0  0  1  0  0  0  0  0  0
  196.5830  175.0400  142.7910 C   0  0  0  0  0  2  0  0  0  0  0  0
  189.4780  172.1480  139.8430 C   0  0  0  0  0  2  0  0  0  0  0  0
  188.8970  174.1070  138.4860 C   0  0  0  0  0  2  0  0  0  0  0  0
  189.2310  173.6120  139.6760 C   0  0  0  0  0  0  0  0  0  0  0  0
  189.2130  174.4900  140.8790 C   0  0  0  0  0  2  0  0  0  0  0  0
  188.0080  175.1940  140.9380 O   0  0  0  0  0  0  0  0  0  0  0  0
  188.2010  176.1490  141.9390 C   0  0  2  0  0  3  0  0  0  0  0  0
  187.3720  175.7900  143.1760 C   0  0  0  0  0  2  0  0  0  0  0  0
  187.9430  176.3700  144.4750 C   0  0  2  0  0  3  0  0  0  0  0  0
  189.9580  178.1210  144.4810 O   0  0  0  0  0  1  0  0  0  0  0  0
  191.5250  176.7900  145.5290 C   0  0  2  0  0  3  0  0  0  0  0  0
  189.5370  175.9980  146.3500 C   0  0  0  0  0  2  0  0  0  0  0  0
  190.4680  175.7580  145.1450 C   0  0  1  0  0  0  0  0  0  0  0  0
  190.7750  177.0100  144.2630 C   0  0  1  0  0  3  0  0  0  0  0  0
  188.9400  175.4130  145.1340 C   0  0  2  0  0  3  0  0  0  0  0  0
  192.9010  176.2320  145.2210 C   0  0  2  0  0  3  0  0  0  0  0  0
  193.5960  175.8440  146.5100 C   0  0  0  0  0  1  0  0  0  0  0  0
  193.6570  177.1840  144.5660 F   0  0  0  0  0  0  0  0  0  0  0  0
  186.2570  178.0560  145.1180 C   0  0  1  0  0  3  0  0  0  0  0  0
  187.1940  177.8940  146.1570 O   0  0  0  0  0  0  0  0  0  0  0  0
  186.8320  176.7330  145.4510 C   0  0  2  0  0  3  0  0  0  0  0  0
  184.8700  178.1620  145.7150 C   0  0  0  0  0  2  0  0  0  0  0  0
  185.0530  179.7910  144.2390 C   0  0  0  0  0  1  0  0  0  0  0  0
  184.2800  179.3620  145.3130 O   0  0  0  0  0  0  0  0  0  0  0  0
  187.8860  177.5540  141.4180 C   0  0  0  0  0  2  0  0  0  0  0  0
  186.6000  177.6230  140.6560 C   0  0  0  0  0  0  0  0  0  0  0  0
  185.3900  177.7370  141.3290 O   0  0  0  0  0  1  0  0  0  0  0  0
  186.6140  177.5410  139.4000 O   0  0  0  0  0  0  0  0  0  0  0  0
  190.8930  171.2630  141.9950 O   0  0  0  0  0  0  0  0  0  0  0  0
  191.3950  172.3080  142.7850 C   0  0  0  0  0  2  0  0  0  0  0  0
  191.2790  171.9640  144.2620 C   0  0  1  0  0  0  0  0  0  0  0  0
  191.8440  170.7260  144.4990 F   0  0  0  0  0  0  0  0  0  0  0  0
  191.9320  172.9300  145.0280 O   0  0  0  0  0  1  0  0  0  0  0  0
  189.8140  171.9220  144.6500 C   0  0  0  0  0  1  0  0  0  0  0  0
  1  2  1  0  0  0  0
  1 23  1  1  0  0  0
  1  3  1  0  0  0  0
  2  3  1  0  0  0  0
  3  7  1  0  0  0  0
  3 50  1  1  0  0  0
  4 17  1  0  0  0  0
  4 13  1  0  0  0  0
  5 22  1  1  0  0  0
  5 14  1  0  0  0  0
  6  5  1  0  0  0  0
  7  9  2  0  0  0  0
  9  4  2  0  0  0  0
 10 15  1  0  0  0  0
 10  7  1  0  0  0  0
 12 16  1  0  0  0  0
 12  8  1  1  0  0  0
 14 12  1  0  0  0  0
 15 19  1  6  0  0  0
 15  6  1  0  0  0  0
 17 11  1  1  0  0  0
 17 12  1  0  0  0  0
 19 18  1  6  0  0  0
 19 20  1  0  0  0  0
 22 21  1  0  0  0  0
 24 25  2  0  0  0  0
 25 23  1  0  0  0  0
 25 26  1  0  0  0  0
 26 27  1  0  0  0  0
 27 28  1  0  0  0  0
 28 46  1  6  0  0  0
 28 29  1  0  0  0  0
 30 29  1  6  0  0  0
 32 37  1  6  0  0  0
 34 32  1  0  0  0  0
 34 33  1  1  0  0  0
 35 31  1  1  0  0  0
 35 34  1  0  0  0  0
 35 32  1  0  0  0  0
 36 30  1  6  0  0  0
 36 34  1  0  0  0  0
 36 33  1  0  0  0  0
 37 38  1  1  0  0  0
 39 37  1  0  0  0  0
 40 42  1  0  0  0  0
 40 43  1  1  0  0  0
 40 41  1  0  0  0  0
 42 30  1  6  0  0  0
 42 41  1  0  0  0  0
 44 45  1  0  0  0  0
 45 43  1  0  0  0  0
 47 48  1  0  0  0  0
 47 46  1  0  0  0  0
 49 47  2  0  0  0  0
 50 51  1  0  0  0  0
 51 52  1  0  0  0  0
 52 53  1  0  0  0  0
 52 55  1  1  0  0  0
 52 54  1  0  0  0  0
M  END
>  <MODEL>
8

>  <REMARK>
 VINA RESULT:      -5.5      2.092      8.965
  Name = 
  20 active torsions:
  status: ('A' for Active; 'I' for Inactive)
    1  A    between atoms: C_2  and  C_24
    2  A    between atoms: C_3  and  C_14
    3  A    between atoms: C_4  and  C_37
    4  A    between atoms: C_8  and  C_43
    5  A    between atoms: C_9  and  C_33
    6  A    between atoms: C_9  and  C_49
    7  A    between atoms: C_10  and  C_32
    8  A    between atoms: C_16  and  C_17
    9  A    between atoms: C_17  and  O_23
   10  A    between atoms: C_19  and  C_40
   11  A    between atoms: C_19  and  O_45
   12  A    between atoms: C_20  and  C_46
   13  A    between atoms: C_24  and  C_49
   14  A    between atoms: C_27  and  C_54
   15  A    between atoms: C_33  and  C_36
   16  A    between atoms: C_33  and  C_52
   17  A    between atoms: C_37  and  C_40
   18  A    between atoms: C_43  and  O_51
   19  A    between atoms: O_45  and  C_49
   20  A    between atoms: O_51  and  C_54
                            x       y       z     vdW  Elec       q    Type
                         _______ _______ _______ _____ _____    ______ ____

>  <TORSDO>
F 20

$$$$
=
 OpenBabel11052419283D

 55 59  0  0  1  0  0  0  0  0999 V2000
  191.6600  173.6400  141.9930 C   0  0  2  0  0  3  0  0  0  0  0  0
  191.6320  172.2300  142.5660 C   0  0  0  0  0  2  0  0  0  0  0  0
  192.8450  172.6960  141.7770 C   0  0  1  0  0  0  0  0  0  0  0  0
  194.4250  173.6660  138.6830 C   0  0  0  0  0  0  0  0  0  0  0  0
  191.1880  172.5070  137.0360 C   0  0  1  0  0  3  0  0  0  0  0  0
  192.0120  171.5270  137.6120 O   0  0  0  0  0  0  0  0  0  0  0  0
  193.0030  172.2600  140.3530 C   0  0  0  0  0  0  0  0  0  0  0  0
  193.3520  175.7610  136.8370 C   0  0  0  0  0  1  0  0  0  0  0  0
  193.7410  172.9610  139.5330 C   0  0  0  0  0  0  0  0  0  0  0  0
  192.4270  170.9560  139.8990 C   0  0  0  0  0  2  0  0  0  0  0  0
  195.4370  173.6410  136.5310 O   0  0  0  0  0  1  0  0  0  0  0  0
  193.0960  174.2800  136.6000 C   0  0  1  0  0  0  0  0  0  0  0  0
  195.2780  174.6630  139.1400 O   0  0  0  0  0  1  0  0  0  0  0  0
  191.7280  173.9390  137.2170 C   0  0  0  0  0  2  0  0  0  0  0  0
  191.3760  171.1380  138.8020 C   0  0  2  0  0  3  0  0  0  0  0  0
  193.0550  174.0760  135.2200 O   0  0  0  0  0  1  0  0  0  0  0  0
  194.2330  173.4350  137.2120 C   0  0  2  0  0  3  0  0  0  0  0  0
  190.6810  169.0460  139.7640 O   0  0  0  0  0  1  0  0  0  0  0  0
  190.6380  169.8110  138.5950 C   0  0  1  0  0  3  0  0  0  0  0  0
  189.3140  170.0430  138.2610 F   0  0  0  0  0  0  0  0  0  0  0  0
  189.5610  171.5450  135.5380 O   0  0  0  0  0  1  0  0  0  0  0  0
  190.8160  172.1600  135.5950 C   0  0  0  0  0  2  0  0  0  0  0  0
  191.9070  174.6510  143.1060 C   0  0  0  0  0  2  0  0  0  0  0  0
  191.6300  177.0860  143.0140 C   0  0  0  0  0  2  0  0  0  0  0  0
  191.0870  175.8790  142.8770 C   0  0  0  0  0  0  0  0  0  0  0  0
  189.7020  175.7410  142.3480 C   0  0  0  0  0  2  0  0  0  0  0  0
  188.7880  175.7140  143.4030 O   0  0  0  0  0  0  0  0  0  0  0  0
  188.0450  176.8890  143.2630 C   0  0  2  0  0  3  0  0  0  0  0  0
  188.1620  177.7410  144.5310 C   0  0  0  0  0  2  0  0  0  0  0  0
  188.0210  176.9260  145.8210 C   0  0  2  0  0  3  0  0  0  0  0  0
  189.9370  177.6810  147.5190 O   0  0  0  0  0  1  0  0  0  0  0  0
  191.1380  175.7100  147.5320 C   0  0  2  0  0  3  0  0  0  0  0  0
  189.0010  175.0140  147.0800 C   0  0  0  0  0  2  0  0  0  0  0  0
  190.2440  175.5060  146.3120 C   0  0  1  0  0  0  0  0  0  0  0  0
  190.7890  176.9100  146.7250 C   0  0  1  0  0  3  0  0  0  0  0  0
  188.7880  175.6030  145.7430 C   0  0  2  0  0  3  0  0  0  0  0  0
  192.5470  175.2600  147.1990 C   0  0  2  0  0  3  0  0  0  0  0  0
  193.2990  176.3910  146.5280 C   0  0  0  0  0  1  0  0  0  0  0  0
  192.5030  174.1740  146.3480 F   0  0  0  0  0  0  0  0  0  0  0  0
  185.9230  177.8980  146.6880 C   0  0  1  0  0  3  0  0  0  0  0  0
  186.3550  176.8590  147.5340 O   0  0  0  0  0  0  0  0  0  0  0  0
  186.5570  176.6710  146.1540 C   0  0  2  0  0  3  0  0  0  0  0  0
  184.4230  177.8010  146.5120 C   0  0  0  0  0  2  0  0  0  0  0  0
  184.2810  179.0590  144.7050 C   0  0  0  0  0  1  0  0  0  0  0  0
  183.9270  179.0220  146.0510 O   0  0  0  0  0  0  0  0  0  0  0  0
  186.5890  176.5730  142.9090 C   0  0  0  0  0  2  0  0  0  0  0  0
  186.1610  177.1710  141.6060 C   0  0  0  0  0  0  0  0  0  0  0  0
  186.9150  176.9670  140.4570 O   0  0  0  0  0  0  0  0  0  0  0  0
  185.1280  177.8900  141.5590 O   0  0  0  0  0  1  0  0  0  0  0  0
  194.0040  173.0210  142.5050 O   0  0  0  0  0  0  0  0  0  0  0  0
  194.5090  171.8180  143.0210 C   0  0  0  0  0  2  0  0  0  0  0  0
  194.9510  171.9990  144.4650 C   0  0  1  0  0  0  0  0  0  0  0  0
  193.8540  171.9220  145.3020 F   0  0  0  0  0  0  0  0  0  0  0  0
  195.8700  171.0080  144.8090 O   0  0  0  0  0  1  0  0  0  0  0  0
  195.5980  173.3600  144.6210 C   0  0  0  0  0  1  0  0  0  0  0  0
  1  2  1  0  0  0  0
  1 23  1  1  0  0  0
  3  1  1  0  0  0  0
  3 50  1  1  0  0  0
  3  2  1  0  0  0  0
  4 13  1  0  0  0  0
  4  9  2  0  0  0  0
  5 22  1  6  0  0  0
  5 14  1  0  0  0  0
  5  6  1  0  0  0  0
  6 15  1  0  0  0  0
  7  3  1  0  0  0  0
  9  7  2  0  0  0  0
 10  7  1  0  0  0  0
 12  8  1  1  0  0  0
 12 17  1  0  0  0  0
 12 14  1  0  0  0  0
 15 19  1  6  0  0  0
 15 10  1  0  0  0  0
 16 12  1  0  0  0  0
 17 11  1  6  0  0  0
 17  4  1  0  0  0  0
 19 20  1  1  0  0  0
 19 18  1  0  0  0  0
 21 22  1  0  0  0  0
 25 24  2  0  0  0  0
 25 23  1  0  0  0  0
 26 25  1  0  0  0  0
 26 27  1  0  0  0  0
 28 46  1  1  0  0  0
 28 27  1  0  0  0  0
 28 29  1  0  0  0  0
 30 29  1  6  0  0  0
 32 37  1  6  0  0  0
 34 35  1  0  0  0  0
 34 33  1  1  0  0  0
 34 32  1  0  0  0  0
 35 31  1  1  0  0  0
 35 32  1  0  0  0  0
 36 30  1  1  0  0  0
 36 34  1  0  0  0  0
 36 33  1  0  0  0  0
 37 38  1  6  0  0  0
 39 37  1  0  0  0  0
 40 43  1  6  0  0  0
 40 41  1  0  0  0  0
 42 30  1  1  0  0  0
 42 40  1  0  0  0  0
 42 41  1  0  0  0  0
 44 45  1  0  0  0  0
 45 43  1  0  0  0  0
 47 46  1  0  0  0  0
 48 47  2  0  0  0  0
 49 47  1  0  0  0  0
 50 51  1  0  0  0  0
 51 52  1  0  0  0  0
 52 55  1  1  0  0  0
 52 54  1  0  0  0  0
 52 53  1  0  0  0  0
M  END
>  <MODEL>
9

>  <REMARK>
 VINA RESULT:      -5.5      2.408      9.086
  Name = 
  20 active torsions:
  status: ('A' for Active; 'I' for Inactive)
    1  A    between atoms: C_2  and  C_24
    2  A    between atoms: C_3  and  C_14
    3  A    between atoms: C_4  and  C_37
    4  A    between atoms: C_8  and  C_43
    5  A    between atoms: C_9  and  C_33
    6  A    between atoms: C_9  and  C_49
    7  A    between atoms: C_10  and  C_32
    8  A    between atoms: C_16  and  C_17
    9  A    between atoms: C_17  and  O_23
   10  A    between atoms: C_19  and  C_40
   11  A    between atoms: C_19  and  O_45
   12  A    between atoms: C_20  and  C_46
   13  A    between atoms: C_24  and  C_49
   14  A    between atoms: C_27  and  C_54
   15  A    between atoms: C_33  and  C_36
   16  A    between atoms: C_33  and  C_52
   17  A    between atoms: C_37  and  C_40
   18  A    between atoms: C_43  and  O_51
   19  A    between atoms: O_45  and  C_49
   20  A    between atoms: O_51  and  C_54
                            x       y       z     vdW  Elec       q    Type
                         _______ _______ _______ _____ _____    ______ ____

>  <TORSDO>
F 20

$$$$
