=
 OpenBabel11052418533D

 34 36  0  0  1  0  0  0  0  0999 V2000
  191.9810  175.1850  146.1030 C   0  0  2  0  0  3  0  0  0  0  0  0
  189.6210  175.8910  146.3450 N   0  0  0  0  0  0  0  0  0  0  0  0
  191.2020  176.3350  148.1850 C   0  0  0  0  0  1  0  0  0  0  0  0
  191.6300  174.7940  144.6590 C   0  0  1  0  0  3  0  0  0  0  0  0
  189.4870  175.8170  144.9880 O   0  0  0  0  0  0  0  0  0  0  0  0
  190.1090  174.6180  144.6000 C   0  0  1  0  0  3  0  0  0  0  0  0
  191.0170  176.2550  146.6720 C   0  0  1  0  0  3  0  0  0  0  0  0
  188.5090  174.6200  141.1650 C   0  0  0  0  0  0  0  0  0  0  0  0
  188.6460  173.2820  140.7840 C   0  0  0  0  0  3  0  0  0  0  0  0
  189.6140  174.1370  143.2690 C   0  0  0  0  0  0  0  0  0  0  0  0
  189.2620  172.3680  141.6430 C   0  0  0  0  0  3  0  0  0  0  0  0
  188.9890  175.0460  142.4070 C   0  0  0  0  0  3  0  0  0  0  0  0
  189.7450  172.7950  142.8850 C   0  0  0  0  0  3  0  0  0  0  0  0
  187.9100  175.5040  140.3330 F   0  0  0  0  0  0  0  0  0  0  0  0
  193.7530  176.8150  146.0540 O   0  0  0  0  0  1  0  0  0  0  0  0
  193.4790  175.4700  146.3030 C   0  0  2  0  0  3  0  0  0  0  0  0
  194.2990  174.6300  145.4400 N   0  0  0  0  0  2  0  0  0  0  0  0
  195.5850  175.2920  145.2940 C   0  0  0  0  0  2  0  0  0  0  0  0
  196.4090  176.7060  143.3830 N   0  0  0  0  0  1  0  0  0  0  0  0
  195.8990  175.4640  143.8510 C   0  0  0  0  0  0  0  0  0  0  0  0
  195.5290  174.5640  143.0020 N   0  0  0  0  0  2  0  0  0  0  0  0
  192.4690  176.6370  142.8970 C   0  0  0  0  0  3  0  0  0  0  0  0
  192.0930  175.8080  143.6890 C   0  0  0  0  0  0  0  0  0  0  0  0
  188.7440  176.9770  146.7660 C   0  0  0  0  0  2  0  0  0  0  0  0
  186.2670  177.1320  146.4870 C   0  0  0  0  0  3  0  0  0  0  0  0
  187.3450  176.4670  146.9140 C   0  0  0  0  0  3  0  0  0  0  0  0
  186.3140  178.4820  145.8260 C   0  0  0  0  0  2  0  0  0  0  0  0
  183.7710  179.1160  144.4320 O   0  0  0  0  0  1  0  0  0  0  0  0
  186.0610  178.4360  144.3440 C   0  0  0  0  0  0  0  0  0  0  0  0
  184.6420  178.1750  143.8810 C   0  0  2  0  0  3  0  0  0  0  0  0
  185.6360  177.4380  141.6950 C   0  0  0  0  0  2  0  0  0  0  0  0
  186.9170  178.1980  142.0090 C   0  0  0  0  0  2  0  0  0  0  0  0
  187.1010  178.3400  143.4930 C   0  0  0  0  0  3  0  0  0  0  0  0
  184.4730  178.1590  142.3600 C   0  0  0  0  0  2  0  0  0  0  0  0
  1 16  1  6  0  0  0
  1  7  1  0  0  0  0
  2  7  1  0  0  0  0
  2 24  1  0  0  0  0
  4 23  1  6  0  0  0
  4  1  1  0  0  0  0
  5  2  1  0  0  0  0
  6 10  1  6  0  0  0
  6  4  1  0  0  0  0
  6  5  1  0  0  0  0
  7  3  1  1  0  0  0
  8 12  1  0  0  0  0
  9  8  2  0  0  0  0
  9 11  1  0  0  0  0
 11 13  2  0  0  0  0
 12 10  2  0  0  0  0
 13 10  1  0  0  0  0
 14  8  1  0  0  0  0
 16 15  1  6  0  0  0
 17 16  1  0  0  0  0
 18 17  1  0  0  0  0
 19 20  1  0  0  0  0
 20 18  1  0  0  0  0
 21 20  2  0  0  0  0
 22 23  3  0  0  0  0
 24 26  1  0  0  0  0
 25 26  2  0  0  0  0
 27 25  1  0  0  0  0
 29 27  1  0  0  0  0
 30 29  1  0  0  0  0
 30 28  1  1  0  0  0
 31 32  1  0  0  0  0
 31 34  1  0  0  0  0
 32 33  1  0  0  0  0
 33 29  2  0  0  0  0
 34 30  1  0  0  0  0
M  END
>  <MODEL>
1

>  <REMARK>
 VINA RESULT:      -7.1      0.000      0.000
  Name = 
  10 active torsions:
  status: ('A' for Active; 'I' for Inactive)
    1  A    between atoms: C_3  and  C_13
    2  A    between atoms: C_3  and  C_17
    3  A    between atoms: C_4  and  C_15
    4  A    between atoms: N_5  and  C_18
    5  A    between atoms: C_6  and  C_9
    6  A    between atoms: C_9  and  N_25
    7  A    between atoms: C_12  and  C_28
    8  A    between atoms: C_15  and  N_25
    9  A    between atoms: C_18  and  C_29
   10  A    between atoms: C_21  and  C_32
                            x       y       z     vdW  Elec       q    Type
                         _______ _______ _______ _____ _____    ______ ____

>  <TORSDO>
F 10

$$$$
=
 OpenBabel11052418533D

 34 36  0  0  1  0  0  0  0  0999 V2000
  189.5860  174.5780  144.1400 C   0  0  2  0  0  3  0  0  0  0  0  0
  190.4030  174.8770  146.4570 N   0  0  0  0  0  0  0  0  0  0  0  0
  191.6180  173.3560  144.9420 C   0  0  0  0  0  1  0  0  0  0  0  0
  188.5650  175.6850  144.4460 C   0  0  1  0  0  3  0  0  0  0  0  0
  189.6950  176.0420  146.5290 O   0  0  0  0  0  0  0  0  0  0  0  0
  188.4350  175.7670  145.9700 C   0  0  1  0  0  3  0  0  0  0  0  0
  190.8300  174.6590  145.0580 C   0  0  1  0  0  3  0  0  0  0  0  0
  186.7890  178.6330  147.8240 C   0  0  0  0  0  0  0  0  0  0  0  0
  185.4780  178.5710  147.3430 C   0  0  0  0  0  3  0  0  0  0  0  0
  187.3940  176.7420  146.4300 C   0  0  0  0  0  0  0  0  0  0  0  0
  185.1200  177.5940  146.4100 C   0  0  0  0  0  3  0  0  0  0  0  0
  187.7440  177.7180  147.3700 C   0  0  0  0  0  3  0  0  0  0  0  0
  186.0760  176.6800  145.9540 C   0  0  0  0  0  3  0  0  0  0  0  0
  187.1350  179.5780  148.7290 F   0  0  0  0  0  0  0  0  0  0  0  0
  190.8880  175.3090  142.2510 O   0  0  0  0  0  1  0  0  0  0  0  0
  189.8790  174.4270  142.6380 C   0  0  2  0  0  3  0  0  0  0  0  0
  188.6850  174.6590  141.8380 N   0  0  0  0  0  2  0  0  0  0  0  0
  188.2350  173.3640  141.3540 C   0  0  0  0  0  2  0  0  0  0  0  0
  189.7560  171.9440  139.9390 N   0  0  0  0  0  1  0  0  0  0  0  0
  188.8850  173.0620  140.0510 C   0  0  0  0  0  0  0  0  0  0  0  0
  188.8150  173.9180  139.0860 N   0  0  0  0  0  2  0  0  0  0  0  0
  189.3110  178.0430  143.4010 C   0  0  0  0  0  3  0  0  0  0  0  0
  188.9750  176.9830  143.8690 C   0  0  0  0  0  0  0  0  0  0  0  0
  191.5890  175.0890  147.2800 C   0  0  0  0  0  2  0  0  0  0  0  0
  193.3870  176.6700  146.5710 C   0  0  0  0  0  3  0  0  0  0  0  0
  192.1460  176.4530  147.0190 C   0  0  0  0  0  3  0  0  0  0  0  0
  194.3880  175.5830  146.2930 C   0  0  0  0  0  2  0  0  0  0  0  0
  196.7110  174.0880  145.2100 O   0  0  0  0  0  1  0  0  0  0  0  0
  194.8410  175.5340  144.8600 C   0  0  0  0  0  0  0  0  0  0  0  0
  196.3110  175.2750  144.5960 C   0  0  2  0  0  3  0  0  0  0  0  0
  195.9480  176.3110  142.3370 C   0  0  0  0  0  2  0  0  0  0  0  0
  194.4520  176.0540  142.4470 C   0  0  0  0  0  2  0  0  0  0  0  0
  194.0280  175.9900  143.8870 C   0  0  0  0  0  3  0  0  0  0  0  0
  196.6810  175.2270  143.1120 C   0  0  0  0  0  2  0  0  0  0  0  0
  1 16  1  6  0  0  0
  1  4  1  0  0  0  0
  1  7  1  0  0  0  0
  2  5  1  0  0  0  0
  2 24  1  0  0  0  0
  4 23  1  1  0  0  0
  4  6  1  0  0  0  0
  6 10  1  6  0  0  0
  6  5  1  0  0  0  0
  7  3  1  1  0  0  0
  7  2  1  0  0  0  0
  8 14  1  0  0  0  0
  9  8  2  0  0  0  0
 10 12  2  0  0  0  0
 11  9  1  0  0  0  0
 12  8  1  0  0  0  0
 13 11  2  0  0  0  0
 13 10  1  0  0  0  0
 16 15  1  6  0  0  0
 17 16  1  0  0  0  0
 18 17  1  0  0  0  0
 19 20  1  0  0  0  0
 20 18  1  0  0  0  0
 21 20  2  0  0  0  0
 22 23  3  0  0  0  0
 25 26  2  0  0  0  0
 26 24  1  0  0  0  0
 27 25  1  0  0  0  0
 29 27  1  0  0  0  0
 30 29  1  0  0  0  0
 30 28  1  6  0  0  0
 31 32  1  0  0  0  0
 31 34  1  0  0  0  0
 32 33  1  0  0  0  0
 33 29  2  0  0  0  0
 34 30  1  0  0  0  0
M  END
>  <MODEL>
2

>  <REMARK>
 VINA RESULT:      -6.9      3.210      7.307
  Name = 
  10 active torsions:
  status: ('A' for Active; 'I' for Inactive)
    1  A    between atoms: C_3  and  C_13
    2  A    between atoms: C_3  and  C_17
    3  A    between atoms: C_4  and  C_15
    4  A    between atoms: N_5  and  C_18
    5  A    between atoms: C_6  and  C_9
    6  A    between atoms: C_9  and  N_25
    7  A    between atoms: C_12  and  C_28
    8  A    between atoms: C_15  and  N_25
    9  A    between atoms: C_18  and  C_29
   10  A    between atoms: C_21  and  C_32
                            x       y       z     vdW  Elec       q    Type
                         _______ _______ _______ _____ _____    ______ ____

>  <TORSDO>
F 10

$$$$
=
 OpenBabel11052418533D

 34 36  0  0  1  0  0  0  0  0999 V2000
  190.4020  173.7370  141.9560 C   0  0  2  0  0  3  0  0  0  0  0  0
  188.8940  175.6850  142.1920 N   0  0  0  0  0  0  0  0  0  0  0  0
  188.7890  174.3270  140.1360 C   0  0  0  0  0  1  0  0  0  0  0  0
  190.8330  173.9990  143.4070 C   0  0  1  0  0  3  0  0  0  0  0  0
  189.0950  175.6450  143.5420 O   0  0  0  0  0  0  0  0  0  0  0  0
  190.4760  175.4550  143.7250 C   0  0  1  0  0  3  0  0  0  0  0  0
  188.9990  174.3140  141.6480 C   0  0  1  0  0  3  0  0  0  0  0  0
  192.7350  176.2750  146.6540 C   0  0  0  0  0  0  0  0  0  0  0  0
  191.8140  176.6900  147.6200 C   0  0  0  0  0  3  0  0  0  0  0  0
  190.9260  175.8980  145.0840 C   0  0  0  0  0  0  0  0  0  0  0  0
  190.4480  176.7070  147.3230 C   0  0  0  0  0  3  0  0  0  0  0  0
  192.2910  175.8770  145.3900 C   0  0  0  0  0  3  0  0  0  0  0  0
  190.0040  176.3110  146.0580 C   0  0  0  0  0  3  0  0  0  0  0  0
  194.0580  176.2580  146.9420 F   0  0  0  0  0  0  0  0  0  0  0  0
  189.5810  171.4730  141.9450 O   0  0  0  0  0  1  0  0  0  0  0  0
  190.6320  172.2820  141.5130 C   0  0  2  0  0  3  0  0  0  0  0  0
  191.8960  171.7660  142.0210 N   0  0  0  0  0  2  0  0  0  0  0  0
  191.6690  170.3840  142.4090 C   0  0  0  0  0  2  0  0  0  0  0  0
  192.7860  168.6530  143.8550 N   0  0  0  0  0  2  0  0  0  0  0  0
  192.5800  170.0210  143.5280 C   0  0  0  0  0  0  0  0  0  0  0  0
  193.0240  170.9420  144.3170 N   0  0  0  0  0  1  0  0  0  0  0  0
  189.6460  172.3060  145.1190 C   0  0  0  0  0  3  0  0  0  0  0  0
  190.1810  173.0660  144.3500 C   0  0  0  0  0  0  0  0  0  0  0  0
  187.5250  176.1560  142.0140 C   0  0  0  0  0  2  0  0  0  0  0  0
  186.5390  178.2790  142.8840 C   0  0  0  0  0  3  0  0  0  0  0  0
  187.4790  177.6430  142.1770 C   0  0  0  0  0  3  0  0  0  0  0  0
  185.4010  177.5930  143.5870 C   0  0  0  0  0  2  0  0  0  0  0  0
  183.5810  178.9470  145.5010 O   0  0  0  0  0  1  0  0  0  0  0  0
  185.5200  177.6120  145.0860 C   0  0  0  0  0  0  0  0  0  0  0  0
  184.9300  178.7980  145.8230 C   0  0  2  0  0  3  0  0  0  0  0  0
  186.4580  178.2020  147.7250 C   0  0  0  0  0  2  0  0  0  0  0  0
  186.6000  176.7870  147.1830 C   0  0  0  0  0  2  0  0  0  0  0  0
  186.3650  176.7610  145.6990 C   0  0  0  0  0  3  0  0  0  0  0  0
  185.0830  178.7290  147.3440 C   0  0  0  0  0  2  0  0  0  0  0  0
  1 16  1  1  0  0  0
  1  4  1  0  0  0  0
  2  5  1  0  0  0  0
  4  6  1  0  0  0  0
  4 23  1  1  0  0  0
  5  6  1  0  0  0  0
  6 10  1  1  0  0  0
  7  3  1  6  0  0  0
  7  1  1  0  0  0  0
  7  2  1  0  0  0  0
  8 14  1  0  0  0  0
  8  9  1  0  0  0  0
 10 12  1  0  0  0  0
 10 13  2  0  0  0  0
 11  9  2  0  0  0  0
 12  8  2  0  0  0  0
 13 11  1  0  0  0  0
 16 15  1  1  0  0  0
 16 17  1  0  0  0  0
 17 18  1  0  0  0  0
 18 20  1  0  0  0  0
 20 19  2  0  0  0  0
 20 21  1  0  0  0  0
 23 22  3  0  0  0  0
 24 26  1  0  0  0  0
 24  2  1  0  0  0  0
 25 27  1  0  0  0  0
 26 25  2  0  0  0  0
 27 29  1  0  0  0  0
 29 33  2  0  0  0  0
 29 30  1  0  0  0  0
 30 28  1  1  0  0  0
 30 34  1  0  0  0  0
 32 31  1  0  0  0  0
 33 32  1  0  0  0  0
 34 31  1  0  0  0  0
M  END
>  <MODEL>
3

>  <REMARK>
 VINA RESULT:      -6.9      2.885      5.413
  Name = 
  10 active torsions:
  status: ('A' for Active; 'I' for Inactive)
    1  A    between atoms: C_3  and  C_13
    2  A    between atoms: C_3  and  C_17
    3  A    between atoms: C_4  and  C_15
    4  A    between atoms: N_5  and  C_18
    5  A    between atoms: C_6  and  C_9
    6  A    between atoms: C_9  and  N_25
    7  A    between atoms: C_12  and  C_28
    8  A    between atoms: C_15  and  N_25
    9  A    between atoms: C_18  and  C_29
   10  A    between atoms: C_21  and  C_32
                            x       y       z     vdW  Elec       q    Type
                         _______ _______ _______ _____ _____    ______ ____

>  <TORSDO>
F 10

$$$$
=
 OpenBabel11052418533D

 34 36  0  0  1  0  0  0  0  0999 V2000
  188.9170  174.6100  143.3160 C   0  0  2  0  0  3  0  0  0  0  0  0
  188.8480  174.9890  145.7610 N   0  0  0  0  0  0  0  0  0  0  0  0
  190.2780  173.1900  144.8640 C   0  0  0  0  0  1  0  0  0  0  0  0
  188.0480  175.8690  143.1800 C   0  0  1  0  0  3  0  0  0  0  0  0
  188.3610  176.2430  145.5270 O   0  0  0  0  0  0  0  0  0  0  0  0
  187.3750  176.0980  144.5360 C   0  0  1  0  0  3  0  0  0  0  0  0
  189.7250  174.5950  144.6370 C   0  0  1  0  0  3  0  0  0  0  0  0
  184.4560  178.3200  143.5830 C   0  0  0  0  0  0  0  0  0  0  0  0
  184.5950  179.3790  144.4840 C   0  0  0  0  0  3  0  0  0  0  0  0
  186.4090  177.2450  144.5390 C   0  0  0  0  0  0  0  0  0  0  0  0
  185.6410  179.3770  145.4110 C   0  0  0  0  0  3  0  0  0  0  0  0
  185.3630  177.2560  143.6080 C   0  0  0  0  0  3  0  0  0  0  0  0
  186.5470  178.3120  145.4380 C   0  0  0  0  0  3  0  0  0  0  0  0
  183.4430  178.3220  142.6840 F   0  0  0  0  0  0  0  0  0  0  0  0
  190.9280  174.9900  142.0470 O   0  0  0  0  0  1  0  0  0  0  0  0
  189.7210  174.2910  142.0440 C   0  0  2  0  0  3  0  0  0  0  0  0
  188.9640  174.6160  140.8430 N   0  0  0  0  0  2  0  0  0  0  0  0
  188.8990  173.4080  140.0370 C   0  0  0  0  0  2  0  0  0  0  0  0
  188.5170  173.8900  137.5970 N   0  0  0  0  0  2  0  0  0  0  0  0
  189.4230  173.6860  138.6730 C   0  0  0  0  0  0  0  0  0  0  0  0
  190.6840  173.5490  138.4310 N   0  0  0  0  0  1  0  0  0  0  0  0
  189.5000  178.0010  142.4330 C   0  0  0  0  0  3  0  0  0  0  0  0
  188.8460  177.0440  142.7690 C   0  0  0  0  0  0  0  0  0  0  0  0
  189.6590  175.1030  146.9680 C   0  0  0  0  0  2  0  0  0  0  0  0
  191.7350  176.4900  146.8920 C   0  0  0  0  0  3  0  0  0  0  0  0
  190.4030  176.4030  146.9550 C   0  0  0  0  0  3  0  0  0  0  0  0
  192.6590  175.3040  146.8490 C   0  0  0  0  0  2  0  0  0  0  0  0
  193.8090  172.8000  145.7480 O   0  0  0  0  0  1  0  0  0  0  0  0
  193.3670  175.1390  145.5330 C   0  0  0  0  0  0  0  0  0  0  0  0
  194.3900  174.0260  145.4190 C   0  0  2  0  0  3  0  0  0  0  0  0
  195.3640  175.3030  143.4890 C   0  0  0  0  0  2  0  0  0  0  0  0
  194.0560  176.0600  143.3140 C   0  0  0  0  0  2  0  0  0  0  0  0
  193.2990  176.1200  144.6110 C   0  0  0  0  0  3  0  0  0  0  0  0
  195.0510  173.9220  144.0440 C   0  0  0  0  0  2  0  0  0  0  0  0
  1 16  1  6  0  0  0
  1  7  1  0  0  0  0
  2 24  1  0  0  0  0
  4 23  1  1  0  0  0
  4  1  1  0  0  0  0
  4  6  1  0  0  0  0
  5  2  1  0  0  0  0
  6 10  1  6  0  0  0
  6  5  1  0  0  0  0
  7  3  1  1  0  0  0
  7  2  1  0  0  0  0
  8 12  2  0  0  0  0
  8  9  1  0  0  0  0
  9 11  2  0  0  0  0
 10 13  2  0  0  0  0
 11 13  1  0  0  0  0
 12 10  1  0  0  0  0
 14  8  1  0  0  0  0
 16 15  1  1  0  0  0
 17 16  1  0  0  0  0
 18 17  1  0  0  0  0
 19 20  2  0  0  0  0
 20 18  1  0  0  0  0
 21 20  1  0  0  0  0
 22 23  3  0  0  0  0
 25 26  2  0  0  0  0
 26 24  1  0  0  0  0
 27 25  1  0  0  0  0
 29 27  1  0  0  0  0
 30 29  1  0  0  0  0
 30 28  1  6  0  0  0
 31 34  1  0  0  0  0
 32 31  1  0  0  0  0
 32 33  1  0  0  0  0
 33 29  2  0  0  0  0
 34 30  1  0  0  0  0
M  END
>  <MODEL>
4

>  <REMARK>
 VINA RESULT:      -6.8      2.870      6.784
  Name = 
  10 active torsions:
  status: ('A' for Active; 'I' for Inactive)
    1  A    between atoms: C_3  and  C_13
    2  A    between atoms: C_3  and  C_17
    3  A    between atoms: C_4  and  C_15
    4  A    between atoms: N_5  and  C_18
    5  A    between atoms: C_6  and  C_9
    6  A    between atoms: C_9  and  N_25
    7  A    between atoms: C_12  and  C_28
    8  A    between atoms: C_15  and  N_25
    9  A    between atoms: C_18  and  C_29
   10  A    between atoms: C_21  and  C_32
                            x       y       z     vdW  Elec       q    Type
                         _______ _______ _______ _____ _____    ______ ____

>  <TORSDO>
F 10

$$$$
=
 OpenBabel11052418533D

 34 36  0  0  1  0  0  0  0  0999 V2000
  191.4860  176.6830  146.0160 C   0  0  2  0  0  3  0  0  0  0  0  0
  190.1680  177.0940  143.9620 N   0  0  0  0  0  0  0  0  0  0  0  0
  192.5830  176.6350  143.7660 C   0  0  0  0  0  1  0  0  0  0  0  0
  190.1540  176.7230  146.7790 C   0  0  1  0  0  3  0  0  0  0  0  0
  189.0340  176.8000  144.6620 O   0  0  0  0  0  0  0  0  0  0  0  0
  189.1510  177.4680  145.8930 C   0  0  1  0  0  3  0  0  0  0  0  0
  191.2960  176.3190  144.5230 C   0  0  1  0  0  3  0  0  0  0  0  0
  185.4790  177.0640  146.7370 C   0  0  0  0  0  0  0  0  0  0  0  0
  185.2970  178.0500  147.7100 C   0  0  0  0  0  3  0  0  0  0  0  0
  187.8170  177.6780  146.5440 C   0  0  0  0  0  0  0  0  0  0  0  0
  186.3720  178.8550  148.1000 C   0  0  0  0  0  3  0  0  0  0  0  0
  186.7360  176.8800  146.1520 C   0  0  0  0  0  3  0  0  0  0  0  0
  187.6300  178.6700  147.5180 C   0  0  0  0  0  3  0  0  0  0  0  0
  184.4380  176.2850  146.3580 F   0  0  0  0  0  0  0  0  0  0  0  0
  193.7630  176.6360  146.7980 O   0  0  0  0  0  1  0  0  0  0  0  0
  192.5820  175.8960  146.7550 C   0  0  2  0  0  3  0  0  0  0  0  0
  192.8280  174.6070  146.1230 N   0  0  0  0  0  2  0  0  0  0  0  0
  194.2670  174.4700  145.9750 C   0  0  0  0  0  2  0  0  0  0  0  0
  195.4730  173.2840  144.1120 N   0  0  0  0  0  2  0  0  0  0  0  0
  194.5780  173.2300  145.2150 C   0  0  0  0  0  0  0  0  0  0  0  0
  193.8920  172.1580  145.4310 N   0  0  0  0  0  1  0  0  0  0  0  0
  189.2780  174.2590  147.3880 C   0  0  0  0  0  3  0  0  0  0  0  0
  189.6730  175.3660  147.1150 C   0  0  0  0  0  0  0  0  0  0  0  0
  189.9170  176.6360  142.6000 C   0  0  0  0  0  2  0  0  0  0  0  0
  187.6230  175.9370  141.9030 C   0  0  0  0  0  3  0  0  0  0  0  0
  188.7460  175.7040  142.5890 C   0  0  0  0  0  3  0  0  0  0  0  0
  187.3780  177.1690  141.0760 C   0  0  0  0  0  2  0  0  0  0  0  0
  186.5620  178.7710  143.4370 O   0  0  0  0  0  1  0  0  0  0  0  0
  186.0350  177.8000  141.3170 C   0  0  0  0  0  0  0  0  0  0  0  0
  185.6080  178.0150  142.7560 C   0  0  2  0  0  3  0  0  0  0  0  0
  183.2490  178.1100  141.8980 C   0  0  0  0  0  2  0  0  0  0  0  0
  183.7580  178.4270  140.4990 C   0  0  0  0  0  2  0  0  0  0  0  0
  185.1490  177.8920  140.3060 C   0  0  0  0  0  3  0  0  0  0  0  0
  184.2360  178.6740  142.9090 C   0  0  0  0  0  2  0  0  0  0  0  0
  1 16  1  1  0  0  0
  1  4  1  0  0  0  0
  2  7  1  0  0  0  0
  2  5  1  0  0  0  0
  4 23  1  6  0  0  0
  5  6  1  0  0  0  0
  6 10  1  1  0  0  0
  6  4  1  0  0  0  0
  7  3  1  6  0  0  0
  7  1  1  0  0  0  0
  8  9  1  0  0  0  0
  9 11  2  0  0  0  0
 10 13  2  0  0  0  0
 12 10  1  0  0  0  0
 12  8  2  0  0  0  0
 13 11  1  0  0  0  0
 14  8  1  0  0  0  0
 16 15  1  6  0  0  0
 17 16  1  0  0  0  0
 18 17  1  0  0  0  0
 19 20  2  0  0  0  0
 20 21  1  0  0  0  0
 20 18  1  0  0  0  0
 23 22  3  0  0  0  0
 24  2  1  0  0  0  0
 25 26  2  0  0  0  0
 26 24  1  0  0  0  0
 27 29  1  0  0  0  0
 27 25  1  0  0  0  0
 29 30  1  0  0  0  0
 30 34  1  0  0  0  0
 30 28  1  6  0  0  0
 31 34  1  0  0  0  0
 32 31  1  0  0  0  0
 33 32  1  0  0  0  0
 33 29  2  0  0  0  0
M  END
>  <MODEL>
5

>  <REMARK>
 VINA RESULT:      -6.8      2.204      4.466
  Name = 
  10 active torsions:
  status: ('A' for Active; 'I' for Inactive)
    1  A    between atoms: C_3  and  C_13
    2  A    between atoms: C_3  and  C_17
    3  A    between atoms: C_4  and  C_15
    4  A    between atoms: N_5  and  C_18
    5  A    between atoms: C_6  and  C_9
    6  A    between atoms: C_9  and  N_25
    7  A    between atoms: C_12  and  C_28
    8  A    between atoms: C_15  and  N_25
    9  A    between atoms: C_18  and  C_29
   10  A    between atoms: C_21  and  C_32
                            x       y       z     vdW  Elec       q    Type
                         _______ _______ _______ _____ _____    ______ ____

>  <TORSDO>
F 10

$$$$
=
 OpenBabel11052418533D

 34 36  0  0  1  0  0  0  0  0999 V2000
  188.9920  175.3290  143.3860 C   0  0  2  0  0  3  0  0  0  0  0  0
  190.2620  176.3400  145.2530 N   0  0  0  0  0  0  0  0  0  0  0  0
  191.4560  174.9500  143.6020 C   0  0  0  0  0  1  0  0  0  0  0  0
  187.7800  176.1300  143.8850 C   0  0  1  0  0  3  0  0  0  0  0  0
  189.2470  177.2360  145.4250 O   0  0  0  0  0  0  0  0  0  0  0  0
  188.0550  176.4940  145.3470 C   0  0  1  0  0  3  0  0  0  0  0  0
  190.3340  175.9620  143.8250 C   0  0  1  0  0  3  0  0  0  0  0  0
  186.1360  178.9440  147.5110 C   0  0  0  0  0  0  0  0  0  0  0  0
  184.8160  178.5350  147.3050 C   0  0  0  0  0  3  0  0  0  0  0  0
  186.9130  177.2010  146.0140 C   0  0  0  0  0  0  0  0  0  0  0  0
  184.5400  177.4580  146.4580 C   0  0  0  0  0  3  0  0  0  0  0  0
  187.1830  178.2750  146.8680 C   0  0  0  0  0  3  0  0  0  0  0  0
  185.5870  176.7910  145.8140 C   0  0  0  0  0  3  0  0  0  0  0  0
  186.4030  179.9860  148.3320 F   0  0  0  0  0  0  0  0  0  0  0  0
  187.6040  174.5100  141.5960 O   0  0  0  0  0  1  0  0  0  0  0  0
  188.8930  174.9510  141.8980 C   0  0  2  0  0  3  0  0  0  0  0  0
  189.8630  173.9240  141.5450 N   0  0  0  0  0  2  0  0  0  0  0  0
  189.1410  172.6660  141.4560 C   0  0  0  0  0  2  0  0  0  0  0  0
  189.4200  171.9160  143.8420 N   0  0  0  0  0  1  0  0  0  0  0  0
  189.6780  171.7070  142.4600 C   0  0  0  0  0  0  0  0  0  0  0  0
  190.5310  170.8100  142.0950 N   0  0  0  0  0  2  0  0  0  0  0  0
  187.3480  178.3200  142.3950 C   0  0  0  0  0  3  0  0  0  0  0  0
  187.5440  177.3360  143.0640 C   0  0  0  0  0  0  0  0  0  0  0  0
  191.4810  177.0580  145.6090 C   0  0  0  0  0  2  0  0  0  0  0  0
  193.4350  176.3000  146.9690 C   0  0  0  0  0  3  0  0  0  0  0  0
  192.1130  176.4160  146.8050 C   0  0  0  0  0  3  0  0  0  0  0  0
  194.4550  176.7750  145.9720 C   0  0  0  0  0  2  0  0  0  0  0  0
  196.4190  177.0640  143.7660 O   0  0  0  0  0  1  0  0  0  0  0  0
  195.0110  175.6760  145.1090 C   0  0  0  0  0  0  0  0  0  0  0  0
  195.4690  176.0430  143.7120 C   0  0  2  0  0  3  0  0  0  0  0  0
  195.2030  173.6130  143.1330 C   0  0  0  0  0  2  0  0  0  0  0  0
  195.2780  173.2430  144.6070 C   0  0  0  0  0  2  0  0  0  0  0  0
  194.8300  174.3900  145.4680 C   0  0  0  0  0  3  0  0  0  0  0  0
  196.0330  174.8680  142.9090 C   0  0  0  0  0  2  0  0  0  0  0  0
  1 16  1  6  0  0  0
  1  7  1  0  0  0  0
  1  4  1  0  0  0  0
  2  5  1  0  0  0  0
  2 24  1  0  0  0  0
  4 23  1  6  0  0  0
  4  6  1  0  0  0  0
  6  5  1  0  0  0  0
  6 10  1  6  0  0  0
  7  3  1  1  0  0  0
  7  2  1  0  0  0  0
  8 14  1  0  0  0  0
  9  8  1  0  0  0  0
 10 12  1  0  0  0  0
 11  9  2  0  0  0  0
 12  8  2  0  0  0  0
 13 10  2  0  0  0  0
 13 11  1  0  0  0  0
 16 15  1  1  0  0  0
 17 16  1  0  0  0  0
 18 17  1  0  0  0  0
 18 20  1  0  0  0  0
 20 19  1  0  0  0  0
 21 20  2  0  0  0  0
 22 23  3  0  0  0  0
 24 26  1  0  0  0  0
 26 25  2  0  0  0  0
 27 25  1  0  0  0  0
 29 33  2  0  0  0  0
 29 27  1  0  0  0  0
 30 28  1  1  0  0  0
 30 29  1  0  0  0  0
 31 32  1  0  0  0  0
 32 33  1  0  0  0  0
 34 31  1  0  0  0  0
 34 30  1  0  0  0  0
M  END
>  <MODEL>
6

>  <REMARK>
 VINA RESULT:      -6.8      2.910      7.411
  Name = 
  10 active torsions:
  status: ('A' for Active; 'I' for Inactive)
    1  A    between atoms: C_3  and  C_13
    2  A    between atoms: C_3  and  C_17
    3  A    between atoms: C_4  and  C_15
    4  A    between atoms: N_5  and  C_18
    5  A    between atoms: C_6  and  C_9
    6  A    between atoms: C_9  and  N_25
    7  A    between atoms: C_12  and  C_28
    8  A    between atoms: C_15  and  N_25
    9  A    between atoms: C_18  and  C_29
   10  A    between atoms: C_21  and  C_32
                            x       y       z     vdW  Elec       q    Type
                         _______ _______ _______ _____ _____    ______ ____

>  <TORSDO>
F 10

$$$$
=
 OpenBabel11052418533D

 34 36  0  0  1  0  0  0  0  0999 V2000
  190.2880  173.8030  141.8630 C   0  0  2  0  0  3  0  0  0  0  0  0
  188.7580  175.7200  142.1950 N   0  0  0  0  0  0  0  0  0  0  0  0
  188.5960  174.3990  140.1180 C   0  0  0  0  0  1  0  0  0  0  0  0
  190.7710  174.0450  143.3010 C   0  0  1  0  0  3  0  0  0  0  0  0
  189.0120  175.6570  143.5350 O   0  0  0  0  0  0  0  0  0  0  0  0
  190.4020  175.4880  143.6610 C   0  0  1  0  0  3  0  0  0  0  0  0
  188.8650  174.3610  141.6210 C   0  0  1  0  0  3  0  0  0  0  0  0
  192.7590  176.2810  146.5200 C   0  0  0  0  0  0  0  0  0  0  0  0
  191.8700  176.6720  147.5250 C   0  0  0  0  0  3  0  0  0  0  0  0
  190.8970  175.9140  145.0100 C   0  0  0  0  0  0  0  0  0  0  0  0
  190.4940  176.6820  147.2780 C   0  0  0  0  0  3  0  0  0  0  0  0
  192.2730  175.9000  145.2660 C   0  0  0  0  0  3  0  0  0  0  0  0
  190.0080  176.3020  146.0230 C   0  0  0  0  0  3  0  0  0  0  0  0
  194.0920  176.2710  146.7600 F   0  0  0  0  0  0  0  0  0  0  0  0
  191.6880  171.8450  141.9570 O   0  0  0  0  0  1  0  0  0  0  0  0
  190.5260  172.3610  141.3820 C   0  0  2  0  0  3  0  0  0  0  0  0
  190.6190  172.2940  139.9310 N   0  0  0  0  0  2  0  0  0  0  0  0
  190.4450  170.9010  139.5540 C   0  0  0  0  0  2  0  0  0  0  0  0
  189.8770  169.6230  137.4620 N   0  0  0  0  0  2  0  0  0  0  0  0
  189.7840  170.8200  138.2240 C   0  0  0  0  0  0  0  0  0  0  0  0
  189.3000  171.8880  137.6830 N   0  0  0  0  0  1  0  0  0  0  0  0
  189.6850  172.2950  145.0230 C   0  0  0  0  0  3  0  0  0  0  0  0
  190.1730  173.0830  144.2500 C   0  0  0  0  0  0  0  0  0  0  0  0
  187.3750  176.1690  142.0800 C   0  0  0  0  0  2  0  0  0  0  0  0
  186.3890  178.3380  142.8300 C   0  0  0  0  0  3  0  0  0  0  0  0
  187.3240  177.6630  142.1520 C   0  0  0  0  0  3  0  0  0  0  0  0
  185.2600  177.6910  143.5840 C   0  0  0  0  0  2  0  0  0  0  0  0
  183.5780  179.0380  145.6240 O   0  0  0  0  0  1  0  0  0  0  0  0
  185.4630  177.6760  145.0740 C   0  0  0  0  0  0  0  0  0  0  0  0
  184.9400  178.8570  145.8670 C   0  0  2  0  0  3  0  0  0  0  0  0
  186.5600  178.1920  147.6680 C   0  0  0  0  0  2  0  0  0  0  0  0
  186.6430  176.7870  147.0900 C   0  0  0  0  0  2  0  0  0  0  0  0
  186.3240  176.7960  145.6210 C   0  0  0  0  0  3  0  0  0  0  0  0
  185.1760  178.7520  147.3750 C   0  0  0  0  0  2  0  0  0  0  0  0
  1 16  1  1  0  0  0
  1  4  1  0  0  0  0
  2  5  1  0  0  0  0
  4  6  1  0  0  0  0
  4 23  1  1  0  0  0
  5  6  1  0  0  0  0
  6 10  1  1  0  0  0
  7  3  1  6  0  0  0
  7  1  1  0  0  0  0
  7  2  1  0  0  0  0
  8 14  1  0  0  0  0
  8  9  1  0  0  0  0
 10 12  1  0  0  0  0
 10 13  2  0  0  0  0
 11  9  2  0  0  0  0
 12  8  2  0  0  0  0
 13 11  1  0  0  0  0
 16 15  1  1  0  0  0
 17 16  1  0  0  0  0
 18 17  1  0  0  0  0
 19 20  2  0  0  0  0
 20 18  1  0  0  0  0
 21 20  1  0  0  0  0
 23 22  3  0  0  0  0
 24 26  1  0  0  0  0
 24  2  1  0  0  0  0
 25 27  1  0  0  0  0
 26 25  2  0  0  0  0
 27 29  1  0  0  0  0
 29 33  2  0  0  0  0
 29 30  1  0  0  0  0
 30 28  1  1  0  0  0
 30 34  1  0  0  0  0
 32 31  1  0  0  0  0
 33 32  1  0  0  0  0
 34 31  1  0  0  0  0
M  END
>  <MODEL>
7

>  <REMARK>
 VINA RESULT:      -6.7      3.406      5.900
  Name = 
  10 active torsions:
  status: ('A' for Active; 'I' for Inactive)
    1  A    between atoms: C_3  and  C_13
    2  A    between atoms: C_3  and  C_17
    3  A    between atoms: C_4  and  C_15
    4  A    between atoms: N_5  and  C_18
    5  A    between atoms: C_6  and  C_9
    6  A    between atoms: C_9  and  N_25
    7  A    between atoms: C_12  and  C_28
    8  A    between atoms: C_15  and  N_25
    9  A    between atoms: C_18  and  C_29
   10  A    between atoms: C_21  and  C_32
                            x       y       z     vdW  Elec       q    Type
                         _______ _______ _______ _____ _____    ______ ____

>  <TORSDO>
F 10

$$$$
=
 OpenBabel11052418533D

 34 36  0  0  1  0  0  0  0  0999 V2000
  190.9830  177.0370  145.4220 C   0  0  2  0  0  3  0  0  0  0  0  0
  189.5820  177.2190  143.3900 N   0  0  0  0  0  0  0  0  0  0  0  0
  192.0120  176.8710  143.1470 C   0  0  0  0  0  1  0  0  0  0  0  0
  189.6740  177.0680  146.2270 C   0  0  1  0  0  3  0  0  0  0  0  0
  188.4870  176.9220  144.1490 O   0  0  0  0  0  0  0  0  0  0  0  0
  188.6060  177.6890  145.3210 C   0  0  1  0  0  3  0  0  0  0  0  0
  190.7660  176.5490  143.9690 C   0  0  1  0  0  3  0  0  0  0  0  0
  184.8870  178.2130  145.8280 C   0  0  0  0  0  0  0  0  0  0  0  0
  184.7920  178.2680  147.2210 C   0  0  0  0  0  3  0  0  0  0  0  0
  187.2830  177.8800  146.0010 C   0  0  0  0  0  0  0  0  0  0  0  0
  185.9400  178.1330  148.0070 C   0  0  0  0  0  3  0  0  0  0  0  0
  186.1310  178.0230  145.2190 C   0  0  0  0  0  3  0  0  0  0  0  0
  187.1840  177.9400  147.3980 C   0  0  0  0  0  3  0  0  0  0  0  0
  183.7750  178.3460  145.0670 F   0  0  0  0  0  0  0  0  0  0  0  0
  192.0350  176.6220  147.5480 O   0  0  0  0  0  1  0  0  0  0  0  0
  192.1410  176.3670  146.1810 C   0  0  2  0  0  3  0  0  0  0  0  0
  193.4330  176.8280  145.6910 N   0  0  0  0  0  2  0  0  0  0  0  0
  194.4280  175.8700  146.1420 C   0  0  0  0  0  2  0  0  0  0  0  0
  195.5210  176.4740  143.9570 N   0  0  0  0  0  2  0  0  0  0  0  0
  195.3600  175.5510  145.0270 C   0  0  0  0  0  0  0  0  0  0  0  0
  195.8660  174.3670  144.9340 N   0  0  0  0  0  1  0  0  0  0  0  0
  188.9510  174.6170  147.0510 C   0  0  0  0  0  3  0  0  0  0  0  0
  189.2780  175.7180  146.6800 C   0  0  0  0  0  0  0  0  0  0  0  0
  189.3150  176.6440  142.0770 C   0  0  0  0  0  2  0  0  0  0  0  0
  188.2030  174.4260  141.7930 C   0  0  0  0  0  3  0  0  0  0  0  0
  188.1490  175.7090  142.1630 C   0  0  0  0  0  3  0  0  0  0  0  0
  189.4250  173.7610  141.2240 C   0  0  0  0  0  2  0  0  0  0  0  0
  188.8490  171.8860  143.4510 O   0  0  0  0  0  1  0  0  0  0  0  0
  190.3920  173.2790  142.2710 C   0  0  0  0  0  0  0  0  0  0  0  0
  189.8250  172.8700  143.6160 C   0  0  2  0  0  3  0  0  0  0  0  0
  192.1280  173.2400  144.5460 C   0  0  0  0  0  2  0  0  0  0  0  0
  192.7240  173.1130  143.1520 C   0  0  0  0  0  2  0  0  0  0  0  0
  191.7130  173.4860  142.1050 C   0  0  0  0  0  3  0  0  0  0  0  0
  190.8750  172.3800  144.6140 C   0  0  0  0  0  2  0  0  0  0  0  0
  1 16  1  1  0  0  0
  1  4  1  0  0  0  0
  2  7  1  0  0  0  0
  2  5  1  0  0  0  0
  4 23  1  6  0  0  0
  5  6  1  0  0  0  0
  6 10  1  1  0  0  0
  6  4  1  0  0  0  0
  7  3  1  6  0  0  0
  7  1  1  0  0  0  0
  8  9  1  0  0  0  0
  9 11  2  0  0  0  0
 10 13  2  0  0  0  0
 12  8  2  0  0  0  0
 12 10  1  0  0  0  0
 13 11  1  0  0  0  0
 14  8  1  0  0  0  0
 16 15  1  1  0  0  0
 17 18  1  0  0  0  0
 17 16  1  0  0  0  0
 19 20  2  0  0  0  0
 20 18  1  0  0  0  0
 21 20  1  0  0  0  0
 23 22  3  0  0  0  0
 24 26  1  0  0  0  0
 24  2  1  0  0  0  0
 25 26  2  0  0  0  0
 27 25  1  0  0  0  0
 27 29  1  0  0  0  0
 29 30  1  0  0  0  0
 30 28  1  6  0  0  0
 30 34  1  0  0  0  0
 31 34  1  0  0  0  0
 32 31  1  0  0  0  0
 33 29  2  0  0  0  0
 33 32  1  0  0  0  0
M  END
>  <MODEL>
8

>  <REMARK>
 VINA RESULT:      -6.7      2.241      5.653
  Name = 
  10 active torsions:
  status: ('A' for Active; 'I' for Inactive)
    1  A    between atoms: C_3  and  C_13
    2  A    between atoms: C_3  and  C_17
    3  A    between atoms: C_4  and  C_15
    4  A    between atoms: N_5  and  C_18
    5  A    between atoms: C_6  and  C_9
    6  A    between atoms: C_9  and  N_25
    7  A    between atoms: C_12  and  C_28
    8  A    between atoms: C_15  and  N_25
    9  A    between atoms: C_18  and  C_29
   10  A    between atoms: C_21  and  C_32
                            x       y       z     vdW  Elec       q    Type
                         _______ _______ _______ _____ _____    ______ ____

>  <TORSDO>
F 10

$$$$
=
 OpenBabel11052418533D

 34 36  0  0  1  0  0  0  0  0999 V2000
  190.3980  174.9620  142.0420 C   0  0  2  0  0  3  0  0  0  0  0  0
  190.5990  177.0230  143.3990 N   0  0  0  0  0  0  0  0  0  0  0  0
  188.6760  176.7720  141.8730 C   0  0  0  0  0  1  0  0  0  0  0  0
  191.6120  174.4320  142.8190 C   0  0  1  0  0  3  0  0  0  0  0  0
  191.4470  176.3580  144.2360 O   0  0  0  0  0  0  0  0  0  0  0  0
  192.3340  175.6480  143.4090 C   0  0  1  0  0  3  0  0  0  0  0  0
  189.6350  176.0590  142.8240 C   0  0  1  0  0  3  0  0  0  0  0  0
  195.8160  174.3020  144.0620 C   0  0  0  0  0  0  0  0  0  0  0  0
  195.9920  174.6050  145.4140 C   0  0  0  0  0  3  0  0  0  0  0  0
  193.6060  175.3010  144.1210 C   0  0  0  0  0  0  0  0  0  0  0  0
  194.9760  175.2520  146.1250 C   0  0  0  0  0  3  0  0  0  0  0  0
  194.6240  174.6470  143.4170 C   0  0  0  0  0  3  0  0  0  0  0  0
  193.7850  175.5990  145.4800 C   0  0  0  0  0  3  0  0  0  0  0  0
  196.7990  173.6740  143.3740 F   0  0  0  0  0  0  0  0  0  0  0  0
  190.3220  172.7690  141.0510 O   0  0  0  0  0  1  0  0  0  0  0  0
  189.5260  173.8430  141.4490 C   0  0  2  0  0  3  0  0  0  0  0  0
  188.7420  174.3240  140.3190 N   0  0  0  0  0  2  0  0  0  0  0  0
  188.3170  173.1560  139.5650 C   0  0  0  0  0  2  0  0  0  0  0  0
  189.1700  172.5950  137.2650 N   0  0  0  0  0  2  0  0  0  0  0  0
  188.4000  173.4430  138.1080 C   0  0  0  0  0  0  0  0  0  0  0  0
  187.9390  174.5570  137.6470 N   0  0  0  0  0  1  0  0  0  0  0  0
  190.8880  172.7010  144.7400 C   0  0  0  0  0  3  0  0  0  0  0  0
  191.2120  173.4780  143.8750 C   0  0  0  0  0  0  0  0  0  0  0  0
  189.8720  177.9640  144.2440 C   0  0  0  0  0  2  0  0  0  0  0  0
  188.9110  176.8150  146.2430 C   0  0  0  0  0  3  0  0  0  0  0  0
  189.9070  177.4950  145.6650 C   0  0  0  0  0  3  0  0  0  0  0  0
  187.6240  176.4530  145.5550 C   0  0  0  0  0  2  0  0  0  0  0  0
  185.9940  176.9710  147.9810 O   0  0  0  0  0  1  0  0  0  0  0  0
  186.5450  177.4880  145.7130 C   0  0  0  0  0  0  0  0  0  0  0  0
  185.4470  177.2110  146.7200 C   0  0  2  0  0  3  0  0  0  0  0  0
  184.0510  178.8680  145.4490 C   0  0  0  0  0  2  0  0  0  0  0  0
  185.3060  179.4750  144.8400 C   0  0  0  0  0  2  0  0  0  0  0  0
  186.4160  178.4640  144.7930 C   0  0  0  0  0  3  0  0  0  0  0  0
  184.3990  178.3210  146.8260 C   0  0  0  0  0  2  0  0  0  0  0  0
  1 16  1  1  0  0  0
  1  4  1  0  0  0  0
  1  7  1  0  0  0  0
  2  5  1  0  0  0  0
  2 24  1  0  0  0  0
  4  6  1  0  0  0  0
  4 23  1  1  0  0  0
  6 10  1  1  0  0  0
  6  5  1  0  0  0  0
  7  3  1  6  0  0  0
  7  2  1  0  0  0  0
  8  9  1  0  0  0  0
  9 11  2  0  0  0  0
 10 13  2  0  0  0  0
 12  8  2  0  0  0  0
 12 10  1  0  0  0  0
 13 11  1  0  0  0  0
 14  8  1  0  0  0  0
 16 15  1  6  0  0  0
 17 16  1  0  0  0  0
 18 17  1  0  0  0  0
 19 20  2  0  0  0  0
 20 18  1  0  0  0  0
 21 20  1  0  0  0  0
 23 22  3  0  0  0  0
 24 26  1  0  0  0  0
 26 25  2  0  0  0  0
 27 29  1  0  0  0  0
 27 25  1  0  0  0  0
 29 30  1  0  0  0  0
 30 34  1  0  0  0  0
 30 28  1  1  0  0  0
 31 34  1  0  0  0  0
 32 31  1  0  0  0  0
 33 32  1  0  0  0  0
 33 29  2  0  0  0  0
M  END
>  <MODEL>
9

>  <REMARK>
 VINA RESULT:      -6.5      3.488      5.834
  Name = 
  10 active torsions:
  status: ('A' for Active; 'I' for Inactive)
    1  A    between atoms: C_3  and  C_13
    2  A    between atoms: C_3  and  C_17
    3  A    between atoms: C_4  and  C_15
    4  A    between atoms: N_5  and  C_18
    5  A    between atoms: C_6  and  C_9
    6  A    between atoms: C_9  and  N_25
    7  A    between atoms: C_12  and  C_28
    8  A    between atoms: C_15  and  N_25
    9  A    between atoms: C_18  and  C_29
   10  A    between atoms: C_21  and  C_32
                            x       y       z     vdW  Elec       q    Type
                         _______ _______ _______ _____ _____    ______ ____

>  <TORSDO>
F 10

$$$$
