=
 OpenBabel11052418123D

 28 32  0  0  1  0  0  0  0  0999 V2000
  190.2270  176.2320  145.0670 N   0  0  0  0  0  0  0  0  0  0  0  0
  185.8450  177.0670  141.8310 C   0  0  0  0  0  2  0  0  0  0  0  0
  187.2970  177.9320  147.7980 C   0  0  0  0  0  1  0  0  0  0  0  0
  184.4600  178.3480  143.4870 C   0  0  0  0  0  0  0  0  0  0  0  0
  186.5180  177.0910  144.2590 C   0  0  1  0  0  3  0  0  0  0  0  0
  183.8300  178.3330  141.1250 C   0  0  0  0  0  0  0  0  0  0  0  0
  185.8600  177.8950  143.1220 C   0  0  1  0  0  3  0  0  0  0  0  0
  184.8360  177.7240  145.8330 C   0  0  0  0  0  2  0  0  0  0  0  0
  183.5460  178.5940  142.5450 C   0  0  0  0  0  3  0  0  0  0  0  0
  188.0400  176.0680  146.2630 C   0  0  2  0  0  3  0  0  0  0  0  0
  188.0260  176.9440  143.9510 C   0  0  0  0  0  2  0  0  0  0  0  0
  184.1460  178.7050  144.9000 C   0  0  0  0  0  2  0  0  0  0  0  0
  189.8010  174.5540  146.8280 C   0  0  0  0  0  2  0  0  0  0  0  0
  186.8690  176.9570  146.7080 C   0  0  2  0  0  3  0  0  0  0  0  0
  188.8860  175.5830  147.3510 N   0  0  0  0  0  2  0  0  0  0  0  0
  182.9460  178.5590  140.2580 O   0  0  0  0  0  0  0  0  0  0  0  0
  185.1830  177.8500  140.7020 C   0  0  0  0  0  2  0  0  0  0  0  0
  186.2760  177.7180  145.5850 N   0  0  1  0  0  0  0  0  0  0  0  0
  190.2290  174.8000  145.3660 C   0  0  0  0  0  2  0  0  0  0  0  0
  188.8700  176.8140  145.2270 C   0  0  2  0  0  3  0  0  0  0  0  0
  190.7750  176.4190  143.7250 C   0  0  0  0  0  2  0  0  0  0  0  0
  192.2150  176.8990  143.8050 C   0  0  1  0  0  3  0  0  0  0  0  0
  194.1200  176.5950  145.2800 C   0  0  0  0  0  0  0  0  0  0  0  0
  192.6640  177.0200  145.2470 C   0  0  0  0  0  2  0  0  0  0  0  0
  193.1350  175.8780  143.1780 C   0  0  0  0  0  2  0  0  0  0  0  0
  194.4510  176.0260  143.9110 C   0  0  0  0  0  2  0  0  0  0  0  0
  195.0050  177.7910  145.5680 C   0  0  0  0  0  1  0  0  0  0  0  0
  194.3240  175.5380  146.3460 C   0  0  0  0  0  1  0  0  0  0  0  0
  1 20  1  0  0  0  0
  1 19  1  0  0  0  0
  4 12  1  0  0  0  0
  5 11  1  6  0  0  0
  5 18  1  0  0  0  0
  6  9  1  0  0  0  0
  7  2  1  6  0  0  0
  7  4  1  0  0  0  0
  7  5  1  0  0  0  0
  9  4  2  0  0  0  0
 10 14  1  0  0  0  0
 10 15  1  1  0  0  0
 12  8  1  0  0  0  0
 13 15  1  0  0  0  0
 14  3  1  1  0  0  0
 16  6  2  0  0  0  0
 17  6  1  0  0  0  0
 17  2  1  0  0  0  0
 18  8  1  1  0  0  0
 18 14  1  0  0  0  0
 19 13  1  0  0  0  0
 20 11  1  6  0  0  0
 20 10  1  0  0  0  0
 21  1  1  0  0  0  0
 22 21  1  1  0  0  0
 22 24  1  0  0  0  0
 23 27  1  0  0  0  0
 23 28  1  0  0  0  0
 24 23  1  0  0  0  0
 25 22  1  0  0  0  0
 25 26  1  0  0  0  0
 26 23  1  0  0  0  0
M  END
>  <MODEL>
1

>  <REMARK>
 VINA RESULT:      -8.1      0.000      0.000
  Name = 
  2 active torsions:
  status: ('A' for Active; 'I' for Inactive)
    1  A    between atoms: N_1  and  C_2
    2  A    between atoms: C_2  and  C_3
                            x       y       z     vdW  Elec       q    Type
                         _______ _______ _______ _____ _____    ______ ____

>  <TORSDO>
F 2

$$$$
=
 OpenBabel11052418123D

 28 32  0  0  1  0  0  0  0  0999 V2000
  191.9430  176.5870  145.2920 N   0  0  0  0  0  0  0  0  0  0  0  0
  187.5800  176.9900  141.9500 C   0  0  0  0  0  2  0  0  0  0  0  0
  188.9150  178.3950  147.8410 C   0  0  0  0  0  1  0  0  0  0  0  0
  186.1270  178.3510  143.4790 C   0  0  0  0  0  0  0  0  0  0  0  0
  188.2170  177.2390  144.3740 C   0  0  1  0  0  3  0  0  0  0  0  0
  185.5310  178.1190  141.1190 C   0  0  0  0  0  0  0  0  0  0  0  0
  187.5470  177.9220  143.1680 C   0  0  1  0  0  3  0  0  0  0  0  0
  186.4910  177.9360  145.8720 C   0  0  0  0  0  2  0  0  0  0  0  0
  185.2170  178.4840  142.5090 C   0  0  0  0  0  3  0  0  0  0  0  0
  189.7460  176.4410  146.4730 C   0  0  2  0  0  3  0  0  0  0  0  0
  189.7330  177.1230  144.0970 C   0  0  0  0  0  2  0  0  0  0  0  0
  185.7790  178.8110  144.8540 C   0  0  0  0  0  2  0  0  0  0  0  0
  191.5520  175.0450  147.1810 C   0  0  0  0  0  2  0  0  0  0  0  0
  188.5380  177.3190  146.8300 C   0  0  2  0  0  3  0  0  0  0  0  0
  190.5930  176.0780  147.6070 N   0  0  0  0  0  2  0  0  0  0  0  0
  184.6520  178.2400  140.2260 O   0  0  0  0  0  0  0  0  0  0  0  0
  186.9070  177.6540  140.7520 C   0  0  0  0  0  2  0  0  0  0  0  0
  187.9340  177.9630  145.6410 N   0  0  1  0  0  0  0  0  0  0  0  0
  191.9920  175.1860  145.7090 C   0  0  0  0  0  2  0  0  0  0  0  0
  190.5630  177.1300  145.3880 C   0  0  2  0  0  3  0  0  0  0  0  0
  192.5020  176.6840  143.9460 C   0  0  0  0  0  2  0  0  0  0  0  0
  193.7930  175.8870  143.8530 C   0  0  1  0  0  3  0  0  0  0  0  0
  195.7220  175.7770  142.3810 C   0  0  0  0  0  0  0  0  0  0  0  0
  194.2070  175.6990  142.4070 C   0  0  0  0  0  2  0  0  0  0  0  0
  194.9220  176.6520  144.5020 C   0  0  0  0  0  2  0  0  0  0  0  0
  196.1710  176.2220  143.7620 C   0  0  0  0  0  2  0  0  0  0  0  0
  196.3080  174.4160  142.0630 C   0  0  0  0  0  1  0  0  0  0  0  0
  196.1690  176.7840  141.3400 C   0  0  0  0  0  1  0  0  0  0  0  0
  1 20  1  0  0  0  0
  1 19  1  0  0  0  0
  4 12  1  0  0  0  0
  5 11  1  6  0  0  0
  5 18  1  0  0  0  0
  6  9  1  0  0  0  0
  7  2  1  6  0  0  0
  7  4  1  0  0  0  0
  7  5  1  0  0  0  0
  9  4  2  0  0  0  0
 10 14  1  0  0  0  0
 10 15  1  1  0  0  0
 12  8  1  0  0  0  0
 13 15  1  0  0  0  0
 14  3  1  1  0  0  0
 16  6  2  0  0  0  0
 17  6  1  0  0  0  0
 17  2  1  0  0  0  0
 18  8  1  1  0  0  0
 18 14  1  0  0  0  0
 19 13  1  0  0  0  0
 20 11  1  6  0  0  0
 20 10  1  0  0  0  0
 21  1  1  0  0  0  0
 22 21  1  6  0  0  0
 22 25  1  0  0  0  0
 23 24  1  0  0  0  0
 23 26  1  0  0  0  0
 24 22  1  0  0  0  0
 26 25  1  0  0  0  0
 27 23  1  0  0  0  0
 28 23  1  0  0  0  0
M  END
>  <MODEL>
2

>  <REMARK>
 VINA RESULT:      -7.7      1.639      2.345
  Name = 
  2 active torsions:
  status: ('A' for Active; 'I' for Inactive)
    1  A    between atoms: N_1  and  C_2
    2  A    between atoms: C_2  and  C_3
                            x       y       z     vdW  Elec       q    Type
                         _______ _______ _______ _____ _____    ______ ____

>  <TORSDO>
F 2

$$$$
=
 OpenBabel11052418123D

 28 32  0  0  1  0  0  0  0  0999 V2000
  187.8850  176.6000  143.7240 N   0  0  0  0  0  0  0  0  0  0  0  0
  189.1610  173.8660  139.1120 C   0  0  0  0  0  2  0  0  0  0  0  0
  189.9230  173.0560  145.2130 C   0  0  0  0  0  1  0  0  0  0  0  0
  189.9730  171.7560  140.2030 C   0  0  0  0  0  0  0  0  0  0  0  0
  189.6140  173.8420  141.5900 C   0  0  1  0  0  3  0  0  0  0  0  0
  189.5090  171.7860  137.8020 C   0  0  0  0  0  0  0  0  0  0  0  0
  189.1410  173.0100  140.3850 C   0  0  1  0  0  3  0  0  0  0  0  0
  190.9970  172.0760  142.4120 C   0  0  0  0  0  2  0  0  0  0  0  0
  190.0920  171.1740  139.0060 C   0  0  0  0  0  3  0  0  0  0  0  0
  189.9580  175.2190  143.9080 C   0  0  2  0  0  3  0  0  0  0  0  0
  188.5430  174.9120  141.9030 C   0  0  0  0  0  2  0  0  0  0  0  0
  190.5150  171.0500  141.3990 C   0  0  0  0  0  2  0  0  0  0  0  0
  189.8840  177.3630  144.9590 C   0  0  0  0  0  2  0  0  0  0  0  0
  190.3960  173.7470  143.9400 C   0  0  2  0  0  3  0  0  0  0  0  0
  190.0880  175.9220  145.1810 N   0  0  0  0  0  2  0  0  0  0  0  0
  189.6490  171.2260  136.6840 O   0  0  0  0  0  0  0  0  0  0  0  0
  188.7050  173.0460  137.9090 C   0  0  0  0  0  2  0  0  0  0  0  0
  189.9090  172.9840  142.7680 N   0  0  1  0  0  0  0  0  0  0  0  0
  188.8750  177.6720  143.8330 C   0  0  0  0  0  2  0  0  0  0  0  0
  188.5300  175.3050  143.3870 C   0  0  2  0  0  3  0  0  0  0  0  0
  186.8760  177.0070  142.7490 C   0  0  0  0  0  2  0  0  0  0  0  0
  185.7130  177.6920  143.4470 C   0  0  1  0  0  3  0  0  0  0  0  0
  185.2440  178.6250  145.6400 C   0  0  0  0  0  0  0  0  0  0  0  0
  185.7060  177.3670  144.9270 C   0  0  0  0  0  2  0  0  0  0  0  0
  185.8690  179.1920  143.3620 C   0  0  0  0  0  2  0  0  0  0  0  0
  185.1930  179.7330  144.6030 C   0  0  0  0  0  2  0  0  0  0  0  0
  183.8660  178.4100  146.2330 C   0  0  0  0  0  1  0  0  0  0  0  0
  186.2250  178.9840  146.7370 C   0  0  0  0  0  1  0  0  0  0  0  0
  1 19  1  0  0  0  0
  4  7  1  0  0  0  0
  4 12  1  0  0  0  0
  5 11  1  1  0  0  0
  5 18  1  0  0  0  0
  6 17  1  0  0  0  0
  6  9  1  0  0  0  0
  7  2  1  6  0  0  0
  7  5  1  0  0  0  0
  9  4  2  0  0  0  0
 10 14  1  0  0  0  0
 10 15  1  1  0  0  0
 12  8  1  0  0  0  0
 13 15  1  0  0  0  0
 14  3  1  1  0  0  0
 16  6  2  0  0  0  0
 17  2  1  0  0  0  0
 18  8  1  6  0  0  0
 18 14  1  0  0  0  0
 19 13  1  0  0  0  0
 20 11  1  6  0  0  0
 20  1  1  0  0  0  0
 20 10  1  0  0  0  0
 21  1  1  0  0  0  0
 22 21  1  6  0  0  0
 22 24  1  0  0  0  0
 23 27  1  0  0  0  0
 23 28  1  0  0  0  0
 24 23  1  0  0  0  0
 25 22  1  0  0  0  0
 25 26  1  0  0  0  0
 26 23  1  0  0  0  0
M  END
>  <MODEL>
3

>  <REMARK>
 VINA RESULT:      -7.6      4.076      7.215
  Name = 
  2 active torsions:
  status: ('A' for Active; 'I' for Inactive)
    1  A    between atoms: N_1  and  C_2
    2  A    between atoms: C_2  and  C_3
                            x       y       z     vdW  Elec       q    Type
                         _______ _______ _______ _____ _____    ______ ____

>  <TORSDO>
F 2

$$$$
=
 OpenBabel11052418123D

 28 32  0  0  1  0  0  0  0  0999 V2000
  188.4740  176.7410  146.0580 N   0  0  0  0  0  0  0  0  0  0  0  0
  188.2290  174.1460  141.2020 C   0  0  0  0  0  2  0  0  0  0  0  0
  186.3210  179.5630  143.5410 C   0  0  0  0  0  1  0  0  0  0  0  0
  187.3020  176.0550  139.8620 C   0  0  0  0  0  0  0  0  0  0  0  0
  187.3020  176.1640  142.3910 C   0  0  1  0  0  3  0  0  0  0  0  0
  188.2240  174.1000  138.7200 C   0  0  0  0  0  0  0  0  0  0  0  0
  188.0330  175.6650  141.1310 C   0  0  1  0  0  3  0  0  0  0  0  0
  185.8550  177.5840  141.1280 C   0  0  0  0  0  2  0  0  0  0  0  0
  187.4410  175.3450  138.7390 C   0  0  0  0  0  3  0  0  0  0  0  0
  186.4590  177.3220  144.7000 C   0  0  2  0  0  3  0  0  0  0  0  0
  188.2490  176.0150  143.6040 C   0  0  0  0  0  2  0  0  0  0  0  0
  186.5640  177.3490  139.8040 C   0  0  0  0  0  2  0  0  0  0  0  0
  186.2450  177.0780  147.0670 C   0  0  0  0  0  2  0  0  0  0  0  0
  186.0800  178.0640  143.4090 C   0  0  2  0  0  3  0  0  0  0  0  0
  186.0560  177.9960  145.9310 N   0  0  0  0  0  2  0  0  0  0  0  0
  188.3270  173.4420  137.6520 O   0  0  0  0  0  0  0  0  0  0  0  0
  188.9430  173.6410  139.9510 C   0  0  0  0  0  2  0  0  0  0  0  0
  186.8160  177.5590  142.2280 N   0  0  1  0  0  0  0  0  0  0  0  0
  187.4410  176.1200  146.8880 C   0  0  0  0  0  2  0  0  0  0  0  0
  187.9580  177.0500  144.6990 C   0  0  2  0  0  3  0  0  0  0  0  0
  189.6370  175.8570  146.0390 C   0  0  0  0  0  2  0  0  0  0  0  0
  190.9190  176.6730  146.0260 C   0  0  1  0  0  3  0  0  0  0  0  0
  193.3100  176.2450  146.0680 C   0  0  0  0  0  0  0  0  0  0  0  0
  192.0130  175.9720  146.8070 C   0  0  0  0  0  2  0  0  0  0  0  0
  191.4420  176.7920  144.6140 C   0  0  0  0  0  2  0  0  0  0  0  0
  192.9440  176.9140  144.7550 C   0  0  0  0  0  2  0  0  0  0  0  0
  194.1910  177.1660  146.8880 C   0  0  0  0  0  1  0  0  0  0  0  0
  194.0360  174.9420  145.8030 C   0  0  0  0  0  1  0  0  0  0  0  0
  1 19  1  0  0  0  0
  4  7  1  0  0  0  0
  5 11  1  1  0  0  0
  6  9  1  0  0  0  0
  6 17  1  0  0  0  0
  7  2  1  1  0  0  0
  7  5  1  0  0  0  0
  9  4  2  0  0  0  0
 10 15  1  1  0  0  0
 12  4  1  0  0  0  0
 12  8  1  0  0  0  0
 14  3  1  1  0  0  0
 14 10  1  0  0  0  0
 15 13  1  0  0  0  0
 16  6  2  0  0  0  0
 17  2  1  0  0  0  0
 18  8  1  6  0  0  0
 18  5  1  0  0  0  0
 18 14  1  0  0  0  0
 19 13  1  0  0  0  0
 20 11  1  6  0  0  0
 20 10  1  0  0  0  0
 20  1  1  0  0  0  0
 21  1  1  0  0  0  0
 22 21  1  6  0  0  0
 22 24  1  0  0  0  0
 23 24  1  0  0  0  0
 23 27  1  0  0  0  0
 25 26  1  0  0  0  0
 25 22  1  0  0  0  0
 26 23  1  0  0  0  0
 28 23  1  0  0  0  0
M  END
>  <MODEL>
4

>  <REMARK>
 VINA RESULT:      -7.5      2.669      3.928
  Name = 
  2 active torsions:
  status: ('A' for Active; 'I' for Inactive)
    1  A    between atoms: N_1  and  C_2
    2  A    between atoms: C_2  and  C_3
                            x       y       z     vdW  Elec       q    Type
                         _______ _______ _______ _____ _____    ______ ____

>  <TORSDO>
F 2

$$$$
=
 OpenBabel11052418123D

 28 32  0  0  1  0  0  0  0  0999 V2000
  188.6000  175.7720  141.7660 N   0  0  0  0  0  0  0  0  0  0  0  0
  189.7560  177.1630  146.9720 C   0  0  0  0  0  2  0  0  0  0  0  0
  192.3300  173.6700  142.5420 C   0  0  0  0  0  1  0  0  0  0  0  0
  192.0570  176.1650  147.0690 C   0  0  0  0  0  0  0  0  0  0  0  0
  190.5040  175.5860  145.1560 C   0  0  1  0  0  3  0  0  0  0  0  0
  191.3260  177.7130  148.8150 C   0  0  0  0  0  0  0  0  0  0  0  0
  190.9560  176.6660  146.1560 C   0  0  1  0  0  3  0  0  0  0  0  0
  192.3710  174.1810  145.6560 C   0  0  0  0  0  2  0  0  0  0  0  0
  192.2450  176.6970  148.2810 C   0  0  0  0  0  3  0  0  0  0  0  0
  189.8760  174.0280  143.0210 C   0  0  2  0  0  3  0  0  0  0  0  0
  189.6290  176.2530  144.0710 C   0  0  0  0  0  2  0  0  0  0  0  0
  193.0640  175.1970  146.5480 C   0  0  0  0  0  2  0  0  0  0  0  0
  188.1530  173.3560  141.5070 C   0  0  0  0  0  2  0  0  0  0  0  0
  191.2670  173.7910  143.6260 C   0  0  2  0  0  3  0  0  0  0  0  0
  189.5830  173.2290  141.8330 N   0  0  0  0  0  2  0  0  0  0  0  0
  191.5170  178.1870  149.9650 O   0  0  0  0  0  0  0  0  0  0  0  0
  190.1960  178.2250  147.9750 C   0  0  0  0  0  2  0  0  0  0  0  0
  191.6630  174.8600  144.5720 N   0  0  1  0  0  0  0  0  0  0  0  0
  187.5660  174.7400  141.8550 C   0  0  0  0  0  2  0  0  0  0  0  0
  189.7030  175.5120  142.7280 C   0  0  2  0  0  3  0  0  0  0  0  0
  187.9650  177.0720  141.9630 C   0  0  0  0  0  2  0  0  0  0  0  0
  186.7150  176.9270  142.8150 C   0  0  1  0  0  3  0  0  0  0  0  0
  185.4240  178.3040  144.3430 C   0  0  0  0  0  0  0  0  0  0  0  0
  186.8180  177.7690  144.0710 C   0  0  0  0  0  2  0  0  0  0  0  0
  185.5140  177.4580  142.0680 C   0  0  0  0  0  2  0  0  0  0  0  0
  184.5680  177.9550  143.1390 C   0  0  0  0  0  2  0  0  0  0  0  0
  184.8520  177.6560  145.5880 C   0  0  0  0  0  1  0  0  0  0  0  0
  185.4770  179.8070  144.5260 C   0  0  0  0  0  1  0  0  0  0  0  0
  1 19  1  0  0  0  0
  1 21  1  0  0  0  0
  1 20  1  0  0  0  0
  2 17  1  0  0  0  0
  4  9  2  0  0  0  0
  5 11  1  6  0  0  0
  5  7  1  0  0  0  0
  6 16  2  0  0  0  0
  7  2  1  1  0  0  0
  7  4  1  0  0  0  0
  8 12  1  0  0  0  0
  9  6  1  0  0  0  0
 10 15  1  6  0  0  0
 10 14  1  0  0  0  0
 12  4  1  0  0  0  0
 13 15  1  0  0  0  0
 13 19  1  0  0  0  0
 14  3  1  6  0  0  0
 14 18  1  0  0  0  0
 17  6  1  0  0  0  0
 18  5  1  0  0  0  0
 18  8  1  1  0  0  0
 20 10  1  0  0  0  0
 20 11  1  1  0  0  0
 22 21  1  6  0  0  0
 22 24  1  0  0  0  0
 23 28  1  0  0  0  0
 23 27  1  0  0  0  0
 24 23  1  0  0  0  0
 25 22  1  0  0  0  0
 25 26  1  0  0  0  0
 26 23  1  0  0  0  0
M  END
>  <MODEL>
5

>  <REMARK>
 VINA RESULT:      -7.4      3.376      7.596
  Name = 
  2 active torsions:
  status: ('A' for Active; 'I' for Inactive)
    1  A    between atoms: N_1  and  C_2
    2  A    between atoms: C_2  and  C_3
                            x       y       z     vdW  Elec       q    Type
                         _______ _______ _______ _____ _____    ______ ____

>  <TORSDO>
F 2

$$$$
=
 OpenBabel11052418123D

 28 32  0  0  1  0  0  0  0  0999 V2000
  188.6840  176.2290  146.8880 N   0  0  0  0  0  0  0  0  0  0  0  0
  189.0280  175.1560  141.4930 C   0  0  0  0  0  2  0  0  0  0  0  0
  192.5910  174.3520  146.5050 C   0  0  0  0  0  1  0  0  0  0  0  0
  191.1330  173.7910  141.5690 C   0  0  0  0  0  0  0  0  0  0  0  0
  190.4380  175.1600  143.5810 C   0  0  1  0  0  3  0  0  0  0  0  0
  189.7460  173.7780  139.5560 C   0  0  0  0  0  0  0  0  0  0  0  0
  189.9670  174.3250  142.3770 C   0  0  1  0  0  3  0  0  0  0  0  0
  192.6990  174.4260  143.3510 C   0  0  0  0  0  2  0  0  0  0  0  0
  190.9990  173.4960  140.2730 C   0  0  0  0  0  3  0  0  0  0  0  0
  191.0180  176.2620  145.9960 C   0  0  2  0  0  3  0  0  0  0  0  0
  189.2330  175.3960  144.5200 C   0  0  0  0  0  2  0  0  0  0  0  0
  192.3970  173.4100  142.2620 C   0  0  0  0  0  2  0  0  0  0  0  0
  190.3680  177.8720  147.6380 C   0  0  0  0  0  2  0  0  0  0  0  0
  192.0790  175.3060  145.4320 C   0  0  2  0  0  3  0  0  0  0  0  0
  191.3170  176.7910  147.3240 N   0  0  0  0  0  2  0  0  0  0  0  0
  189.6500  173.5050  138.3320 O   0  0  0  0  0  0  0  0  0  0  0  0
  188.5660  174.3400  140.2890 C   0  0  0  0  0  2  0  0  0  0  0  0
  191.5780  174.5160  144.2840 N   0  0  1  0  0  0  0  0  0  0  0  0
  188.9690  177.6580  147.0240 C   0  0  0  0  0  2  0  0  0  0  0  0
  189.6620  175.5690  145.9840 C   0  0  2  0  0  3  0  0  0  0  0  0
  187.3020  176.0790  146.4400 C   0  0  0  0  0  2  0  0  0  0  0  0
  186.6600  177.4430  146.2440 C   0  0  1  0  0  3  0  0  0  0  0  0
  185.2770  178.5440  144.5780 C   0  0  0  0  0  0  0  0  0  0  0  0
  186.5830  177.7960  144.7730 C   0  0  0  0  0  2  0  0  0  0  0  0
  185.2290  177.4170  146.7290 C   0  0  0  0  0  2  0  0  0  0  0  0
  184.5020  178.4360  145.8800 C   0  0  0  0  0  2  0  0  0  0  0  0
  185.5530  180.0000  144.2630 C   0  0  0  0  0  1  0  0  0  0  0  0
  184.4870  177.9160  143.4490 C   0  0  0  0  0  1  0  0  0  0  0  0
  1 19  1  0  0  0  0
  4 12  1  0  0  0  0
  4  7  1  0  0  0  0
  5 18  1  0  0  0  0
  5 11  1  1  0  0  0
  6  9  1  0  0  0  0
  6 17  1  0  0  0  0
  7  2  1  6  0  0  0
  7  5  1  0  0  0  0
  9  4  2  0  0  0  0
 10 15  1  1  0  0  0
 12  8  1  0  0  0  0
 14 10  1  0  0  0  0
 14  3  1  1  0  0  0
 15 13  1  0  0  0  0
 16  6  2  0  0  0  0
 17  2  1  0  0  0  0
 18  8  1  6  0  0  0
 18 14  1  0  0  0  0
 19 13  1  0  0  0  0
 20 11  1  6  0  0  0
 20 10  1  0  0  0  0
 20  1  1  0  0  0  0
 21  1  1  0  0  0  0
 22 21  1  6  0  0  0
 22 25  1  0  0  0  0
 23 24  1  0  0  0  0
 23 26  1  0  0  0  0
 24 22  1  0  0  0  0
 26 25  1  0  0  0  0
 27 23  1  0  0  0  0
 28 23  1  0  0  0  0
M  END
>  <MODEL>
6

>  <REMARK>
 VINA RESULT:      -7.4      2.823      6.800
  Name = 
  2 active torsions:
  status: ('A' for Active; 'I' for Inactive)
    1  A    between atoms: N_1  and  C_2
    2  A    between atoms: C_2  and  C_3
                            x       y       z     vdW  Elec       q    Type
                         _______ _______ _______ _____ _____    ______ ____

>  <TORSDO>
F 2

$$$$
=
 OpenBabel11052418123D

 28 32  0  0  1  0  0  0  0  0999 V2000
  192.3460  174.9950  144.4590 N   0  0  0  0  0  0  0  0  0  0  0  0
  187.9610  177.6950  146.4230 C   0  0  0  0  0  2  0  0  0  0  0  0
  189.2640  174.1500  141.5050 C   0  0  0  0  0  1  0  0  0  0  0  0
  186.2710  176.7880  144.8040 C   0  0  0  0  0  0  0  0  0  0  0  0
  188.7440  176.4690  144.3670 C   0  0  1  0  0  3  0  0  0  0  0  0
  185.5240  177.9610  146.8140 C   0  0  0  0  0  0  0  0  0  0  0  0
  187.6350  176.5730  145.4290 C   0  0  1  0  0  3  0  0  0  0  0  0
  187.1710  176.2520  142.5820 C   0  0  0  0  0  2  0  0  0  0  0  0
  185.2880  177.3910  145.4790 C   0  0  0  0  0  3  0  0  0  0  0  0
  190.7730  175.7940  142.6900 C   0  0  2  0  0  3  0  0  0  0  0  0
  190.0290  175.9390  145.0430 C   0  0  0  0  0  2  0  0  0  0  0  0
  185.9550  176.1590  143.4890 C   0  0  0  0  0  2  0  0  0  0  0  0
  193.1270  175.9000  142.2980 C   0  0  0  0  0  2  0  0  0  0  0  0
  189.3570  175.5220  142.1600 C   0  0  2  0  0  3  0  0  0  0  0  0
  191.8500  175.3620  141.8020 N   0  0  0  0  0  2  0  0  0  0  0  0
  184.5850  178.5370  147.4230 O   0  0  0  0  0  0  0  0  0  0  0  0
  186.8610  177.8140  147.4740 C   0  0  0  0  0  2  0  0  0  0  0  0
  188.3260  175.6220  143.2180 N   0  0  1  0  0  0  0  0  0  0  0  0
  193.1890  176.0150  143.8350 C   0  0  0  0  0  2  0  0  0  0  0  0
  190.9220  175.1610  144.0670 C   0  0  2  0  0  3  0  0  0  0  0  0
  192.5500  175.0540  145.9040 C   0  0  0  0  0  2  0  0  0  0  0  0
  193.7740  174.2410  146.2970 C   0  0  1  0  0  3  0  0  0  0  0  0
  195.5220  172.9860  145.1710 C   0  0  0  0  0  0  0  0  0  0  0  0
  194.0160  173.1190  145.3070 C   0  0  0  0  0  2  0  0  0  0  0  0
  195.0100  175.1070  146.2390 C   0  0  0  0  0  2  0  0  0  0  0  0
  196.1430  174.1610  145.9060 C   0  0  0  0  0  2  0  0  0  0  0  0
  195.9870  171.6850  145.7930 C   0  0  0  0  0  1  0  0  0  0  0  0
  195.9120  173.0230  143.7080 C   0  0  0  0  0  1  0  0  0  0  0  0
  1 21  1  0  0  0  0
  2 17  1  0  0  0  0
  4  7  1  0  0  0  0
  4  9  2  0  0  0  0
  5 11  1  1  0  0  0
  5  7  1  0  0  0  0
  6 16  2  0  0  0  0
  6 17  1  0  0  0  0
  7  2  1  1  0  0  0
  8 12  1  0  0  0  0
  9  6  1  0  0  0  0
 10 15  1  6  0  0  0
 10 20  1  0  0  0  0
 12  4  1  0  0  0  0
 13 19  1  0  0  0  0
 14  3  1  1  0  0  0
 14 10  1  0  0  0  0
 14 18  1  0  0  0  0
 15 13  1  0  0  0  0
 18  8  1  6  0  0  0
 18  5  1  0  0  0  0
 19  1  1  0  0  0  0
 20  1  1  0  0  0  0
 20 11  1  1  0  0  0
 22 21  1  6  0  0  0
 23 24  1  0  0  0  0
 23 27  1  0  0  0  0
 23 26  1  0  0  0  0
 24 22  1  0  0  0  0
 25 22  1  0  0  0  0
 26 25  1  0  0  0  0
 28 23  1  0  0  0  0
M  END
>  <MODEL>
7

>  <REMARK>
 VINA RESULT:      -7.4      2.512      4.603
  Name = 
  2 active torsions:
  status: ('A' for Active; 'I' for Inactive)
    1  A    between atoms: N_1  and  C_2
    2  A    between atoms: C_2  and  C_3
                            x       y       z     vdW  Elec       q    Type
                         _______ _______ _______ _____ _____    ______ ____

>  <TORSDO>
F 2

$$$$
=
 OpenBabel11052418123D

 28 32  0  0  1  0  0  0  0  0999 V2000
  192.5130  174.9910  143.4630 N   0  0  0  0  0  0  0  0  0  0  0  0
  187.5530  177.3370  142.9470 C   0  0  0  0  0  2  0  0  0  0  0  0
  191.1280  175.2790  147.5780 C   0  0  0  0  0  1  0  0  0  0  0  0
  187.1240  177.7240  145.3900 C   0  0  0  0  0  0  0  0  0  0  0  0
  189.0150  176.2090  144.6610 C   0  0  1  0  0  3  0  0  0  0  0  0
  185.7240  178.8300  143.7170 C   0  0  0  0  0  0  0  0  0  0  0  0
  188.1840  177.4640  144.3390 C   0  0  1  0  0  3  0  0  0  0  0  0
  188.1520  176.0670  146.8840 C   0  0  0  0  0  2  0  0  0  0  0  0
  186.0100  178.4020  145.0950 C   0  0  0  0  0  3  0  0  0  0  0  0
  190.8920  174.3340  145.2470 C   0  0  2  0  0  3  0  0  0  0  0  0
  190.2580  176.1900  143.7410 C   0  0  0  0  0  2  0  0  0  0  0  0
  187.3990  177.3860  146.8160 C   0  0  0  0  0  2  0  0  0  0  0  0
  192.3880  172.6940  144.3620 C   0  0  0  0  0  2  0  0  0  0  0  0
  190.1580  174.9360  146.4540 C   0  0  2  0  0  3  0  0  0  0  0  0
  191.9430  173.3780  145.5870 N   0  0  0  0  0  2  0  0  0  0  0  0
  184.6620  179.4540  143.4630 O   0  0  0  0  0  0  0  0  0  0  0  0
  186.7170  178.5720  142.6250 C   0  0  0  0  0  2  0  0  0  0  0  0
  189.3830  176.1470  146.1000 N   0  0  1  0  0  0  0  0  0  0  0  0
  192.3230  173.5860  143.1040 C   0  0  0  0  0  2  0  0  0  0  0  0
  191.4460  175.4600  144.3840 C   0  0  2  0  0  3  0  0  0  0  0  0
  192.5870  175.7720  142.2310 C   0  0  0  0  0  2  0  0  0  0  0  0
  194.0090  176.2530  141.9960 C   0  0  1  0  0  3  0  0  0  0  0  0
  196.2390  175.6900  142.7780 C   0  0  0  0  0  0  0  0  0  0  0  0
  194.8500  176.0840  143.2460 C   0  0  0  0  0  2  0  0  0  0  0  0
  194.6760  175.4030  140.9400 C   0  0  0  0  0  2  0  0  0  0  0  0
  196.1490  175.4220  141.2860 C   0  0  0  0  0  2  0  0  0  0  0  0
  197.2150  176.8190  143.0420 C   0  0  0  0  0  1  0  0  0  0  0  0
  196.6920  174.4400  143.5050 C   0  0  0  0  0  1  0  0  0  0  0  0
  1 20  1  0  0  0  0
  4 12  1  0  0  0  0
  5 11  1  6  0  0  0
  5 18  1  0  0  0  0
  6  9  1  0  0  0  0
  7  2  1  6  0  0  0
  7  5  1  0  0  0  0
  7  4  1  0  0  0  0
  9  4  2  0  0  0  0
 10 15  1  1  0  0  0
 10 14  1  0  0  0  0
 12  8  1  0  0  0  0
 13 15  1  0  0  0  0
 14  3  1  1  0  0  0
 16  6  2  0  0  0  0
 17  2  1  0  0  0  0
 17  6  1  0  0  0  0
 18 14  1  0  0  0  0
 18  8  1  1  0  0  0
 19  1  1  0  0  0  0
 19 13  1  0  0  0  0
 20 11  1  6  0  0  0
 20 10  1  0  0  0  0
 21  1  1  0  0  0  0
 22 21  1  1  0  0  0
 22 24  1  0  0  0  0
 23 27  1  0  0  0  0
 23 24  1  0  0  0  0
 23 28  1  0  0  0  0
 25 26  1  0  0  0  0
 25 22  1  0  0  0  0
 26 23  1  0  0  0  0
M  END
>  <MODEL>
8

>  <REMARK>
 VINA RESULT:      -7.3      2.003      3.343
  Name = 
  2 active torsions:
  status: ('A' for Active; 'I' for Inactive)
    1  A    between atoms: N_1  and  C_2
    2  A    between atoms: C_2  and  C_3
                            x       y       z     vdW  Elec       q    Type
                         _______ _______ _______ _____ _____    ______ ____

>  <TORSDO>
F 2

$$$$
=
 OpenBabel11052418123D

 28 32  0  0  1  0  0  0  0  0999 V2000
  188.8830  177.0150  143.3800 N   0  0  0  0  0  0  0  0  0  0  0  0
  189.4010  173.2330  139.4050 C   0  0  0  0  0  2  0  0  0  0  0  0
  191.5750  174.0890  145.1500 C   0  0  0  0  0  1  0  0  0  0  0  0
  190.6590  171.5250  140.7470 C   0  0  0  0  0  0  0  0  0  0  0  0
  190.3900  173.8820  141.6290 C   0  0  1  0  0  3  0  0  0  0  0  0
  189.6770  170.9020  138.5960 C   0  0  0  0  0  0  0  0  0  0  0  0
  189.7560  172.7400  140.8140 C   0  0  1  0  0  3  0  0  0  0  0  0
  192.1040  172.4620  142.4970 C   0  0  0  0  0  2  0  0  0  0  0  0
  190.5740  170.6560  139.7350 C   0  0  0  0  0  3  0  0  0  0  0  0
  191.0840  175.8330  143.3890 C   0  0  2  0  0  3  0  0  0  0  0  0
  189.3040  174.9430  141.9210 C   0  0  0  0  0  2  0  0  0  0  0  0
  191.5260  171.1850  141.9110 C   0  0  0  0  0  2  0  0  0  0  0  0
  191.0100  178.1720  143.8730 C   0  0  0  0  0  2  0  0  0  0  0  0
  191.6770  174.4440  143.6710 C   0  0  2  0  0  3  0  0  0  0  0  0
  191.4140  176.8510  144.3820 N   0  0  0  0  0  2  0  0  0  0  0  0
  189.6270  170.0760  137.6480 O   0  0  0  0  0  0  0  0  0  0  0  0
  188.7840  172.1050  138.5840 C   0  0  0  0  0  2  0  0  0  0  0  0
  191.0290  173.3780  142.8740 N   0  0  1  0  0  0  0  0  0  0  0  0
  189.7500  178.1250  142.9830 C   0  0  0  0  0  2  0  0  0  0  0  0
  189.5750  175.7090  143.2230 C   0  0  2  0  0  3  0  0  0  0  0  0
  187.6460  177.1020  142.6090 C   0  0  0  0  0  2  0  0  0  0  0  0
  186.4610  177.3220  143.5340 C   0  0  1  0  0  3  0  0  0  0  0  0
  186.0840  177.6080  145.9170 C   0  0  0  0  0  0  0  0  0  0  0  0
  186.7070  176.6840  144.8870 C   0  0  0  0  0  2  0  0  0  0  0  0
  186.2860  178.7980  143.8080 C   0  0  0  0  0  2  0  0  0  0  0  0
  185.6710  178.8760  145.1890 C   0  0  0  0  0  2  0  0  0  0  0  0
  184.8670  176.9510  146.5360 C   0  0  0  0  0  1  0  0  0  0  0  0
  187.0960  177.9340  146.9960 C   0  0  0  0  0  1  0  0  0  0  0  0
  4  7  1  0  0  0  0
  4 12  1  0  0  0  0
  5 11  1  1  0  0  0
  5 18  1  0  0  0  0
  6  9  1  0  0  0  0
  7  2  1  6  0  0  0
  7  5  1  0  0  0  0
  9  4  2  0  0  0  0
 10 14  1  0  0  0  0
 10 15  1  1  0  0  0
 12  8  1  0  0  0  0
 13 15  1  0  0  0  0
 14  3  1  1  0  0  0
 16  6  2  0  0  0  0
 17  6  1  0  0  0  0
 17  2  1  0  0  0  0
 18  8  1  6  0  0  0
 18 14  1  0  0  0  0
 19  1  1  0  0  0  0
 19 13  1  0  0  0  0
 20 11  1  6  0  0  0
 20  1  1  0  0  0  0
 20 10  1  0  0  0  0
 21  1  1  0  0  0  0
 22 21  1  6  0  0  0
 22 25  1  0  0  0  0
 22 24  1  0  0  0  0
 23 27  1  0  0  0  0
 23 28  1  0  0  0  0
 24 23  1  0  0  0  0
 25 26  1  0  0  0  0
 26 23  1  0  0  0  0
M  END
>  <MODEL>
9

>  <REMARK>
 VINA RESULT:      -7.3      4.062      7.274
  Name = 
  2 active torsions:
  status: ('A' for Active; 'I' for Inactive)
    1  A    between atoms: N_1  and  C_2
    2  A    between atoms: C_2  and  C_3
                            x       y       z     vdW  Elec       q    Type
                         _______ _______ _______ _____ _____    ______ ____

>  <TORSDO>
F 2

$$$$
