=
 OpenBabel11052417303D

 25 28  0  0  0  0  0  0  0  0999 V2000
  187.2410  178.0150  144.2730 C   0  0  0  0  0  0  0  0  0  0  0  0
  188.5750  177.6450  144.0570 C   0  0  0  0  0  0  0  0  0  0  0  0
  186.9420  178.3570  141.8730 C   0  0  0  0  0  3  0  0  0  0  0  0
  186.4620  178.1200  145.3380 C   0  0  0  0  0  0  0  0  0  0  0  0
  184.4050  178.5020  147.1630 C   0  0  0  0  0  3  0  0  0  0  0  0
  188.2880  177.9820  141.6570 C   0  0  0  0  0  3  0  0  0  0  0  0
  185.2090  178.5330  144.9010 C   0  0  0  0  0  0  0  0  0  0  0  0
  184.1610  178.7330  145.7980 C   0  0  0  0  0  3  0  0  0  0  0  0
  190.7380  177.0430  144.0150 N   0  0  0  0  0  0  0  0  0  0  0  0
  190.4320  177.2480  142.7950 N   0  0  0  0  0  0  0  0  0  0  0  0
  185.6750  178.0800  147.6040 C   0  0  0  0  0  3  0  0  0  0  0  0
  186.4520  178.3620  143.1910 C   0  0  0  0  0  0  0  0  0  0  0  0
  185.1330  178.6990  143.6160 N   0  0  0  0  0  0  0  0  0  0  0  0
  189.5870  177.2800  144.8360 C   0  0  0  0  0  0  0  0  0  0  0  0
  186.7210  177.8820  146.6870 C   0  0  0  0  0  3  0  0  0  0  0  0
  189.0660  177.6330  142.7720 C   0  0  0  0  0  0  0  0  0  0  0  0
  189.6120  177.2040  146.3250 C   0  0  0  0  0  2  0  0  0  0  0  0
  189.5790  175.7550  146.7950 C   0  0  0  0  0  2  0  0  0  0  0  0
  190.7860  175.4210  147.6620 C   0  0  0  0  0  2  0  0  0  0  0  0
  191.9620  176.3430  147.3650 C   0  0  0  0  0  2  0  0  0  0  0  0
  194.3150  176.2320  146.4030 N   0  0  0  0  0  0  0  0  0  0  0  0
  195.3000  175.5490  145.7300 O   0  0  0  0  0  0  0  0  0  0  0  0
  194.5350  177.3960  146.7950 O   0  0  0  0  0  0  0  0  0  0  0  0
  193.0540  175.6050  146.6580 C   0  0  0  0  0  0  0  0  0  0  0  0
  192.8500  174.4240  146.2710 O   0  0  0  0  0  0  0  0  0  0  0  0
  1  4  2  0  0  0  0
  2  1  1  0  0  0  0
  2 14  2  0  0  0  0
  3 12  2  0  0  0  0
  4 15  1  0  0  0  0
  5 11  1  0  0  0  0
  6  3  1  0  0  0  0
  6 16  2  0  0  0  0
  7  4  1  0  0  0  0
  7  8  1  0  0  0  0
  8  5  2  0  0  0  0
  9 14  1  0  0  0  0
 10  9  2  0  0  0  0
 12 13  1  0  0  0  0
 12  1  1  0  0  0  0
 13  7  2  0  0  0  0
 14 17  1  0  0  0  0
 15 11  2  0  0  0  0
 16 10  1  0  0  0  0
 16  2  1  0  0  0  0
 17 18  1  0  0  0  0
 18 19  1  0  0  0  0
 20 19  1  0  0  0  0
 21 24  1  0  0  0  0
 21 23  2  0  0  0  0
 22 21  2  0  0  0  0
 24 20  1  0  0  0  0
 25 24  2  0  0  0  0
M  END
>  <MODEL>
1

>  <REMARK>
 VINA RESULT:      -8.0      0.000      0.000
  Name = 
  5 active torsions:
  status: ('A' for Active; 'I' for Inactive)
    1  A    between atoms: C_6  and  C_15
    2  A    between atoms: C_6  and  C_23
    3  A    between atoms: C_15  and  C_21
    4  A    between atoms: C_16  and  C_20
    5  A    between atoms: C_16  and  C_23
                            x       y       z     vdW  Elec       q    Type
                         _______ _______ _______ _____ _____    ______ ____

>  <TORSDO>
F 5

$$$$
=
 OpenBabel11052417303D

 25 28  0  0  0  0  0  0  0  0999 V2000
  187.3570  178.0560  144.3170 C   0  0  0  0  0  0  0  0  0  0  0  0
  188.7220  177.7950  144.1410 C   0  0  0  0  0  0  0  0  0  0  0  0
  187.0900  178.3170  141.9040 C   0  0  0  0  0  3  0  0  0  0  0  0
  186.5450  178.1190  145.3610 C   0  0  0  0  0  0  0  0  0  0  0  0
  184.4190  178.3670  147.1290 C   0  0  0  0  0  3  0  0  0  0  0  0
  188.4680  178.0530  141.7280 C   0  0  0  0  0  3  0  0  0  0  0  0
  185.2730  178.4150  144.8860 C   0  0  0  0  0  0  0  0  0  0  0  0
  184.1910  178.5450  145.7530 C   0  0  0  0  0  3  0  0  0  0  0  0
  190.9280  177.3780  144.1640 N   0  0  0  0  0  0  0  0  0  0  0  0
  190.6370  177.5280  142.9320 N   0  0  0  0  0  0  0  0  0  0  0  0
  185.7090  178.0630  147.6090 C   0  0  0  0  0  3  0  0  0  0  0  0
  186.5690  178.3110  143.2100 C   0  0  0  0  0  0  0  0  0  0  0  0
  185.2160  178.5440  143.5960 N   0  0  0  0  0  0  0  0  0  0  0  0
  189.7420  177.5350  144.9520 C   0  0  0  0  0  0  0  0  0  0  0  0
  186.7900  177.9340  146.7220 C   0  0  0  0  0  3  0  0  0  0  0  0
  189.2450  177.7960  142.8690 C   0  0  0  0  0  0  0  0  0  0  0  0
  189.7360  177.4950  146.4430 C   0  0  0  0  0  2  0  0  0  0  0  0
  190.1490  176.1190  146.9490 C   0  0  0  0  0  2  0  0  0  0  0  0
  189.0660  175.0790  146.6870 C   0  0  0  0  0  2  0  0  0  0  0  0
  189.6510  173.7910  146.1220 C   0  0  0  0  0  2  0  0  0  0  0  0
  191.5040  173.9320  144.3840 N   0  0  0  0  0  0  0  0  0  0  0  0
  191.9140  174.1380  143.0880 O   0  0  0  0  0  0  0  0  0  0  0  0
  192.3540  173.6870  145.2640 O   0  0  0  0  0  0  0  0  0  0  0  0
  190.1130  173.9860  144.7120 C   0  0  0  0  0  0  0  0  0  0  0  0
  189.2620  174.2180  143.8130 O   0  0  0  0  0  0  0  0  0  0  0  0
  1  4  2  0  0  0  0
  2  1  1  0  0  0  0
  2 14  2  0  0  0  0
  3 12  2  0  0  0  0
  4 15  1  0  0  0  0
  5 11  1  0  0  0  0
  6  3  1  0  0  0  0
  6 16  2  0  0  0  0
  7  4  1  0  0  0  0
  7  8  1  0  0  0  0
  8  5  2  0  0  0  0
  9 14  1  0  0  0  0
 10  9  2  0  0  0  0
 12 13  1  0  0  0  0
 12  1  1  0  0  0  0
 13  7  2  0  0  0  0
 14 17  1  0  0  0  0
 15 11  2  0  0  0  0
 16 10  1  0  0  0  0
 16  2  1  0  0  0  0
 17 18  1  0  0  0  0
 19 18  1  0  0  0  0
 20 19  1  0  0  0  0
 21 24  1  0  0  0  0
 21 23  2  0  0  0  0
 22 21  2  0  0  0  0
 24 20  1  0  0  0  0
 25 24  2  0  0  0  0
M  END
>  <MODEL>
2

>  <REMARK>
 VINA RESULT:      -8.0      1.641      2.110
  Name = 
  5 active torsions:
  status: ('A' for Active; 'I' for Inactive)
    1  A    between atoms: C_6  and  C_15
    2  A    between atoms: C_6  and  C_23
    3  A    between atoms: C_15  and  C_21
    4  A    between atoms: C_16  and  C_20
    5  A    between atoms: C_16  and  C_23
                            x       y       z     vdW  Elec       q    Type
                         _______ _______ _______ _____ _____    ______ ____

>  <TORSDO>
F 5

$$$$
=
 OpenBabel11052417303D

 25 28  0  0  0  0  0  0  0  0999 V2000
  185.6380  177.8320  143.7630 C   0  0  0  0  0  0  0  0  0  0  0  0
  186.3160  177.4500  142.5970 C   0  0  0  0  0  0  0  0  0  0  0  0
  183.7550  178.6120  142.4190 C   0  0  0  0  0  3  0  0  0  0  0  0
  185.9050  177.7760  145.0580 C   0  0  0  0  0  0  0  0  0  0  0  0
  185.9110  177.9100  147.8310 C   0  0  0  0  0  3  0  0  0  0  0  0
  184.4390  178.2260  141.2430 C   0  0  0  0  0  3  0  0  0  0  0  0
  184.8150  178.3140  145.7330 C   0  0  0  0  0  0  0  0  0  0  0  0
  184.7960  178.3930  147.1240 C   0  0  0  0  0  3  0  0  0  0  0  0
  187.6370  176.7750  140.9120 N   0  0  0  0  0  0  0  0  0  0  0  0
  186.5810  177.2080  140.3450 N   0  0  0  0  0  0  0  0  0  0  0  0
  187.0130  177.3620  147.1450 C   0  0  0  0  0  3  0  0  0  0  0  0
  184.3820  178.4010  143.6590 C   0  0  0  0  0  0  0  0  0  0  0  0
  183.8610  178.7110  144.9490 N   0  0  0  0  0  0  0  0  0  0  0  0
  187.4990  176.9080  142.3320 C   0  0  0  0  0  0  0  0  0  0  0  0
  187.0180  177.2880  145.7420 C   0  0  0  0  0  3  0  0  0  0  0  0
  185.7120  177.6490  141.3770 C   0  0  0  0  0  0  0  0  0  0  0  0
  188.5830  176.5640  143.2970 C   0  0  0  0  0  2  0  0  0  0  0  0
  189.7400  177.5490  143.1870 C   0  0  0  0  0  2  0  0  0  0  0  0
  190.3840  177.8080  144.5440 C   0  0  0  0  0  2  0  0  0  0  0  0
  191.0660  176.5590  145.0870 C   0  0  0  0  0  2  0  0  0  0  0  0
  189.7320  174.8870  146.4660 N   0  0  0  0  0  0  0  0  0  0  0  0
  189.1420  174.5160  147.6510 O   0  0  0  0  0  0  0  0  0  0  0  0
  189.6510  174.1300  145.4770 O   0  0  0  0  0  0  0  0  0  0  0  0
  190.4420  176.1270  146.3760 C   0  0  0  0  0  0  0  0  0  0  0  0
  190.5310  176.8750  147.3850 O   0  0  0  0  0  0  0  0  0  0  0  0
  1  4  2  0  0  0  0
  2  1  1  0  0  0  0
  3 12  2  0  0  0  0
  4  7  1  0  0  0  0
  4 15  1  0  0  0  0
  6 16  2  0  0  0  0
  6  3  1  0  0  0  0
  7  8  1  0  0  0  0
  8  5  2  0  0  0  0
  9 14  1  0  0  0  0
 10  9  2  0  0  0  0
 10 16  1  0  0  0  0
 11  5  1  0  0  0  0
 12  1  1  0  0  0  0
 12 13  1  0  0  0  0
 13  7  2  0  0  0  0
 14  2  2  0  0  0  0
 14 17  1  0  0  0  0
 15 11  2  0  0  0  0
 16  2  1  0  0  0  0
 18 17  1  0  0  0  0
 18 19  1  0  0  0  0
 19 20  1  0  0  0  0
 20 24  1  0  0  0  0
 21 22  2  0  0  0  0
 23 21  2  0  0  0  0
 24 21  1  0  0  0  0
 24 25  2  0  0  0  0
M  END
>  <MODEL>
3

>  <REMARK>
 VINA RESULT:      -7.9      2.314      3.396
  Name = 
  5 active torsions:
  status: ('A' for Active; 'I' for Inactive)
    1  A    between atoms: C_6  and  C_15
    2  A    between atoms: C_6  and  C_23
    3  A    between atoms: C_15  and  C_21
    4  A    between atoms: C_16  and  C_20
    5  A    between atoms: C_16  and  C_23
                            x       y       z     vdW  Elec       q    Type
                         _______ _______ _______ _____ _____    ______ ____

>  <TORSDO>
F 5

$$$$
=
 OpenBabel11052417303D

 25 28  0  0  0  0  0  0  0  0999 V2000
  185.7660  178.1110  144.2220 C   0  0  0  0  0  0  0  0  0  0  0  0
  186.6210  177.9430  145.3190 C   0  0  0  0  0  0  0  0  0  0  0  0
  183.9430  178.7190  145.7290 C   0  0  0  0  0  3  0  0  0  0  0  0
  185.8990  178.0010  142.9100 C   0  0  0  0  0  0  0  0  0  0  0  0
  185.5930  177.9400  140.1510 C   0  0  0  0  0  3  0  0  0  0  0  0
  184.8070  178.5490  146.8350 C   0  0  0  0  0  3  0  0  0  0  0  0
  184.6710  178.3100  142.3370 C   0  0  0  0  0  0  0  0  0  0  0  0
  184.4920  178.2860  140.9550 C   0  0  0  0  0  3  0  0  0  0  0  0
  188.1960  177.5710  146.8760 N   0  0  0  0  0  0  0  0  0  0  0  0
  187.1610  177.9180  147.5350 N   0  0  0  0  0  0  0  0  0  0  0  0
  186.8380  177.6310  140.7330 C   0  0  0  0  0  3  0  0  0  0  0  0
  184.4550  178.4920  144.4390 C   0  0  0  0  0  0  0  0  0  0  0  0
  183.7540  178.6160  143.2030 N   0  0  0  0  0  0  0  0  0  0  0  0
  187.8900  177.5820  145.4770 C   0  0  0  0  0  0  0  0  0  0  0  0
  187.0030  177.6610  142.1280 C   0  0  0  0  0  3  0  0  0  0  0  0
  186.1340  178.1640  146.5870 C   0  0  0  0  0  0  0  0  0  0  0  0
  188.8550  177.1560  144.4220 C   0  0  0  0  0  2  0  0  0  0  0  0
  190.1710  177.9120  144.5550 C   0  0  0  0  0  2  0  0  0  0  0  0
  191.3200  177.1500  143.9050 C   0  0  0  0  0  2  0  0  0  0  0  0
  191.4680  175.7520  144.4910 C   0  0  0  0  0  2  0  0  0  0  0  0
  190.9520  175.2100  146.9230 N   0  0  0  0  0  0  0  0  0  0  0  0
  191.2630  175.2990  148.2590 O   0  0  0  0  0  0  0  0  0  0  0  0
  189.9260  174.5910  146.5720 O   0  0  0  0  0  0  0  0  0  0  0  0
  191.8060  175.8150  145.9470 C   0  0  0  0  0  0  0  0  0  0  0  0
  192.8460  176.4230  146.3120 O   0  0  0  0  0  0  0  0  0  0  0  0
  1 12  1  0  0  0  0
  1  2  1  0  0  0  0
  2 14  2  0  0  0  0
  2 16  1  0  0  0  0
  3  6  1  0  0  0  0
  4  1  2  0  0  0  0
  5 11  1  0  0  0  0
  5  8  2  0  0  0  0
  7  4  1  0  0  0  0
  7 13  2  0  0  0  0
  8  7  1  0  0  0  0
  9 10  2  0  0  0  0
 11 15  2  0  0  0  0
 12  3  2  0  0  0  0
 13 12  1  0  0  0  0
 14  9  1  0  0  0  0
 15  4  1  0  0  0  0
 16  6  2  0  0  0  0
 16 10  1  0  0  0  0
 17 18  1  0  0  0  0
 17 14  1  0  0  0  0
 19 20  1  0  0  0  0
 19 18  1  0  0  0  0
 20 24  1  0  0  0  0
 21 22  2  0  0  0  0
 23 21  2  0  0  0  0
 24 25  2  0  0  0  0
 24 21  1  0  0  0  0
M  END
>  <MODEL>
4

>  <REMARK>
 VINA RESULT:      -7.8      2.053      4.111
  Name = 
  5 active torsions:
  status: ('A' for Active; 'I' for Inactive)
    1  A    between atoms: C_6  and  C_15
    2  A    between atoms: C_6  and  C_23
    3  A    between atoms: C_15  and  C_21
    4  A    between atoms: C_16  and  C_20
    5  A    between atoms: C_16  and  C_23
                            x       y       z     vdW  Elec       q    Type
                         _______ _______ _______ _____ _____    ______ ____

>  <TORSDO>
F 5

$$$$
=
 OpenBabel11052417303D

 25 28  0  0  0  0  0  0  0  0999 V2000
  186.7800  177.9660  145.2540 C   0  0  0  0  0  0  0  0  0  0  0  0
  185.8720  178.2410  144.2230 C   0  0  0  0  0  0  0  0  0  0  0  0
  184.9950  178.2230  146.9010 C   0  0  0  0  0  3  0  0  0  0  0  0
  188.0690  177.6730  145.3100 C   0  0  0  0  0  0  0  0  0  0  0  0
  190.6730  177.0280  146.0260 C   0  0  0  0  0  3  0  0  0  0  0  0
  184.0790  178.4990  145.8590 C   0  0  0  0  0  3  0  0  0  0  0  0
  188.4020  177.4970  146.6480 C   0  0  0  0  0  0  0  0  0  0  0  0
  189.7020  177.1740  147.0320 C   0  0  0  0  0  3  0  0  0  0  0  0
  184.6590  178.6730  142.3830 N   0  0  0  0  0  0  0  0  0  0  0  0
  183.8310  178.7630  143.3490 N   0  0  0  0  0  0  0  0  0  0  0  0
  190.3330  177.2040  144.6690 C   0  0  0  0  0  3  0  0  0  0  0  0
  186.3340  177.9610  146.5640 C   0  0  0  0  0  0  0  0  0  0  0  0
  187.4010  177.6560  147.4590 N   0  0  0  0  0  0  0  0  0  0  0  0
  185.9530  178.3400  142.9010 C   0  0  0  0  0  0  0  0  0  0  0  0
  189.0180  177.5280  144.2980 C   0  0  0  0  0  3  0  0  0  0  0  0
  184.5570  178.4960  144.5390 C   0  0  0  0  0  0  0  0  0  0  0  0
  187.1730  178.2310  142.0500 C   0  0  0  0  0  2  0  0  0  0  0  0
  187.1010  176.9990  141.1560 C   0  0  0  0  0  2  0  0  0  0  0  0
  187.1920  175.7130  141.9690 C   0  0  0  0  0  2  0  0  0  0  0  0
  188.3770  174.8590  141.5370 C   0  0  0  0  0  2  0  0  0  0  0  0
  189.2960  173.1220  143.1530 N   0  0  0  0  0  0  0  0  0  0  0  0
  189.2480  171.8670  143.7130 O   0  0  0  0  0  0  0  0  0  0  0  0
  190.1850  173.9200  143.5130 O   0  0  0  0  0  0  0  0  0  0  0  0
  188.3240  173.5080  142.1760 C   0  0  0  0  0  0  0  0  0  0  0  0
  187.4210  172.6990  141.8330 O   0  0  0  0  0  0  0  0  0  0  0  0
  1  4  1  0  0  0  0
  1 12  1  0  0  0  0
  2 16  1  0  0  0  0
  2  1  2  0  0  0  0
  4  7  1  0  0  0  0
  5  8  1  0  0  0  0
  6  3  2  0  0  0  0
  7  8  2  0  0  0  0
  7 13  1  0  0  0  0
  9 14  2  0  0  0  0
  9 10  1  0  0  0  0
 10 16  2  0  0  0  0
 11  5  2  0  0  0  0
 12  3  1  0  0  0  0
 12 13  2  0  0  0  0
 14  2  1  0  0  0  0
 15 11  1  0  0  0  0
 15  4  2  0  0  0  0
 16  6  1  0  0  0  0
 17 14  1  0  0  0  0
 18 19  1  0  0  0  0
 18 17  1  0  0  0  0
 20 19  1  0  0  0  0
 20 24  1  0  0  0  0
 21 23  2  0  0  0  0
 21 22  2  0  0  0  0
 24 21  1  0  0  0  0
 25 24  2  0  0  0  0
M  END
>  <MODEL>
5

>  <REMARK>
 VINA RESULT:      -7.7      2.844      5.561
  Name = 
  5 active torsions:
  status: ('A' for Active; 'I' for Inactive)
    1  A    between atoms: C_6  and  C_15
    2  A    between atoms: C_6  and  C_23
    3  A    between atoms: C_15  and  C_21
    4  A    between atoms: C_16  and  C_20
    5  A    between atoms: C_16  and  C_23
                            x       y       z     vdW  Elec       q    Type
                         _______ _______ _______ _____ _____    ______ ____

>  <TORSDO>
F 5

$$$$
=
 OpenBabel11052417303D

 25 28  0  0  0  0  0  0  0  0999 V2000
  187.9860  176.6750  144.6300 C   0  0  0  0  0  0  0  0  0  0  0  0
  188.9000  175.6130  144.6370 C   0  0  0  0  0  0  0  0  0  0  0  0
  188.2290  176.8730  142.2080 C   0  0  0  0  0  3  0  0  0  0  0  0
  187.2750  177.3010  145.5540 C   0  0  0  0  0  0  0  0  0  0  0  0
  185.5760  178.9370  147.0190 C   0  0  0  0  0  3  0  0  0  0  0  0
  189.1500  175.8010  142.2170 C   0  0  0  0  0  3  0  0  0  0  0  0
  186.5320  178.2860  144.9140 C   0  0  0  0  0  0  0  0  0  0  0  0
  185.6730  179.1200  145.6280 C   0  0  0  0  0  3  0  0  0  0  0  0
  190.3430  173.9210  144.9540 N   0  0  0  0  0  0  0  0  0  0  0  0
  190.3570  174.1320  143.6970 N   0  0  0  0  0  0  0  0  0  0  0  0
  186.3270  177.9350  147.6650 C   0  0  0  0  0  3  0  0  0  0  0  0
  187.6670  177.2840  143.4300 C   0  0  0  0  0  0  0  0  0  0  0  0
  186.7210  178.3310  143.6310 N   0  0  0  0  0  0  0  0  0  0  0  0
  189.4300  174.8350  145.5750 C   0  0  0  0  0  0  0  0  0  0  0  0
  187.1870  177.1010  146.9310 C   0  0  0  0  0  3  0  0  0  0  0  0
  189.4550  175.1990  143.4480 C   0  0  0  0  0  0  0  0  0  0  0  0
  189.2240  174.9130  147.0500 C   0  0  0  0  0  2  0  0  0  0  0  0
  190.5260  175.2610  147.7610 C   0  0  0  0  0  2  0  0  0  0  0  0
  191.1600  176.5200  147.1820 C   0  0  0  0  0  2  0  0  0  0  0  0
  192.6610  176.3530  146.9900 C   0  0  0  0  0  2  0  0  0  0  0  0
  194.3380  176.1220  145.0890 N   0  0  0  0  0  0  0  0  0  0  0  0
  194.6740  176.2860  143.7660 O   0  0  0  0  0  0  0  0  0  0  0  0
  195.1720  175.6340  145.8780 O   0  0  0  0  0  0  0  0  0  0  0  0
  193.0360  176.4990  145.5490 C   0  0  0  0  0  0  0  0  0  0  0  0
  192.1960  176.9760  144.7400 O   0  0  0  0  0  0  0  0  0  0  0  0
  1  2  1  0  0  0  0
  1  4  2  0  0  0  0
  2 14  2  0  0  0  0
  3  6  1  0  0  0  0
  3 12  2  0  0  0  0
  4 15  1  0  0  0  0
  5 11  1  0  0  0  0
  6 16  2  0  0  0  0
  7  4  1  0  0  0  0
  7  8  1  0  0  0  0
  8  5  2  0  0  0  0
  9 14  1  0  0  0  0
 10  9  2  0  0  0  0
 12 13  1  0  0  0  0
 12  1  1  0  0  0  0
 13  7  2  0  0  0  0
 14 17  1  0  0  0  0
 15 11  2  0  0  0  0
 16 10  1  0  0  0  0
 16  2  1  0  0  0  0
 17 18  1  0  0  0  0
 19 18  1  0  0  0  0
 20 19  1  0  0  0  0
 21 24  1  0  0  0  0
 21 23  2  0  0  0  0
 22 21  2  0  0  0  0
 24 20  1  0  0  0  0
 25 24  2  0  0  0  0
M  END
>  <MODEL>
6

>  <REMARK>
 VINA RESULT:      -7.7      1.644      1.975
  Name = 
  5 active torsions:
  status: ('A' for Active; 'I' for Inactive)
    1  A    between atoms: C_6  and  C_15
    2  A    between atoms: C_6  and  C_23
    3  A    between atoms: C_15  and  C_21
    4  A    between atoms: C_16  and  C_20
    5  A    between atoms: C_16  and  C_23
                            x       y       z     vdW  Elec       q    Type
                         _______ _______ _______ _____ _____    ______ ____

>  <TORSDO>
F 5

$$$$
=
 OpenBabel11052417303D

 25 28  0  0  0  0  0  0  0  0999 V2000
  185.7270  177.9410  143.8140 C   0  0  0  0  0  0  0  0  0  0  0  0
  186.2890  177.6080  142.5750 C   0  0  0  0  0  0  0  0  0  0  0  0
  183.6650  178.6270  142.7000 C   0  0  0  0  0  3  0  0  0  0  0  0
  186.1390  177.8890  145.0710 C   0  0  0  0  0  0  0  0  0  0  0  0
  186.4480  177.9980  147.8280 C   0  0  0  0  0  3  0  0  0  0  0  0
  184.2340  178.2900  141.4500 C   0  0  0  0  0  3  0  0  0  0  0  0
  185.1040  178.3590  145.8710 C   0  0  0  0  0  0  0  0  0  0  0  0
  185.2360  178.4240  147.2570 C   0  0  0  0  0  3  0  0  0  0  0  0
  187.4490  177.0220  140.7430 N   0  0  0  0  0  0  0  0  0  0  0  0
  186.3140  177.4020  140.3040 N   0  0  0  0  0  0  0  0  0  0  0  0
  187.4950  177.5180  147.0150 C   0  0  0  0  0  3  0  0  0  0  0  0
  184.4370  178.4400  143.8600 C   0  0  0  0  0  0  0  0  0  0  0  0
  184.0480  178.7090  145.2040 N   0  0  0  0  0  0  0  0  0  0  0  0
  187.4630  177.1360  142.1720 C   0  0  0  0  0  0  0  0  0  0  0  0
  187.3460  177.4580  145.6200 C   0  0  0  0  0  3  0  0  0  0  0  0
  185.5430  177.7840  141.4330 C   0  0  0  0  0  0  0  0  0  0  0  0
  188.6650  176.8440  143.0060 C   0  0  0  0  0  2  0  0  0  0  0  0
  189.7310  177.9150  142.8130 C   0  0  0  0  0  2  0  0  0  0  0  0
  190.6390  178.0250  144.0330 C   0  0  0  0  0  2  0  0  0  0  0  0
  190.9490  176.6570  144.6250 C   0  0  0  0  0  2  0  0  0  0  0  0
  192.6960  176.4570  146.4640 N   0  0  0  0  0  0  0  0  0  0  0  0
  194.0110  176.4130  146.8640 O   0  0  0  0  0  0  0  0  0  0  0  0
  191.7920  176.3790  147.3210 O   0  0  0  0  0  0  0  0  0  0  0  0
  192.3730  176.5790  145.0750 C   0  0  0  0  0  0  0  0  0  0  0  0
  193.2940  176.6410  144.2180 O   0  0  0  0  0  0  0  0  0  0  0  0
  1 12  1  0  0  0  0
  1  4  1  0  0  0  0
  2  1  2  0  0  0  0
  3 12  1  0  0  0  0
  4 15  2  0  0  0  0
  4  7  1  0  0  0  0
  6  3  2  0  0  0  0
  7  8  2  0  0  0  0
  8  5  1  0  0  0  0
  9 14  2  0  0  0  0
 10  9  1  0  0  0  0
 10 16  2  0  0  0  0
 11  5  2  0  0  0  0
 12 13  2  0  0  0  0
 13  7  1  0  0  0  0
 14  2  1  0  0  0  0
 14 17  1  0  0  0  0
 15 11  1  0  0  0  0
 16  6  1  0  0  0  0
 16  2  1  0  0  0  0
 18 17  1  0  0  0  0
 18 19  1  0  0  0  0
 19 20  1  0  0  0  0
 20 24  1  0  0  0  0
 21 22  2  0  0  0  0
 21 23  2  0  0  0  0
 24 21  1  0  0  0  0
 25 24  2  0  0  0  0
M  END
>  <MODEL>
7

>  <REMARK>
 VINA RESULT:      -7.6      1.870      2.977
  Name = 
  5 active torsions:
  status: ('A' for Active; 'I' for Inactive)
    1  A    between atoms: C_6  and  C_15
    2  A    between atoms: C_6  and  C_23
    3  A    between atoms: C_15  and  C_21
    4  A    between atoms: C_16  and  C_20
    5  A    between atoms: C_16  and  C_23
                            x       y       z     vdW  Elec       q    Type
                         _______ _______ _______ _____ _____    ______ ____

>  <TORSDO>
F 5

$$$$
=
 OpenBabel11052417303D

 25 28  0  0  0  0  0  0  0  0999 V2000
  188.0120  177.7190  145.3570 C   0  0  0  0  0  0  0  0  0  0  0  0
  189.0680  177.5490  144.4520 C   0  0  0  0  0  0  0  0  0  0  0  0
  189.5000  177.1500  147.2080 C   0  0  0  0  0  3  0  0  0  0  0  0
  186.7390  178.0630  145.2520 C   0  0  0  0  0  0  0  0  0  0  0  0
  184.0700  178.7250  145.6360 C   0  0  0  0  0  3  0  0  0  0  0  0
  190.5650  176.9780  146.2940 C   0  0  0  0  0  3  0  0  0  0  0  0
  186.1980  178.0660  146.5320 C   0  0  0  0  0  0  0  0  0  0  0  0
  184.8610  178.3950  146.7500 C   0  0  0  0  0  3  0  0  0  0  0  0
  190.5530  177.3190  142.7830 N   0  0  0  0  0  0  0  0  0  0  0  0
  191.2100  177.0570  143.8430 N   0  0  0  0  0  0  0  0  0  0  0  0
  184.6210  178.7250  144.3390 C   0  0  0  0  0  3  0  0  0  0  0  0
  188.2400  177.5200  146.7070 C   0  0  0  0  0  0  0  0  0  0  0  0
  187.0490  177.7470  147.4580 N   0  0  0  0  0  0  0  0  0  0  0  0
  189.2010  177.6390  143.1340 C   0  0  0  0  0  0  0  0  0  0  0  0
  185.9700  178.3930  144.1360 C   0  0  0  0  0  3  0  0  0  0  0  0
  190.3080  177.1890  144.9300 C   0  0  0  0  0  0  0  0  0  0  0  0
  188.1380  177.9250  142.1270 C   0  0  0  0  0  2  0  0  0  0  0  0
  187.7860  176.6690  141.3380 C   0  0  0  0  0  2  0  0  0  0  0  0
  187.2310  175.5780  142.2440 C   0  0  0  0  0  2  0  0  0  0  0  0
  187.8370  174.2180  141.9200 C   0  0  0  0  0  2  0  0  0  0  0  0
  190.3580  173.9150  141.7580 N   0  0  0  0  0  0  0  0  0  0  0  0
  191.5830  173.7510  142.3600 O   0  0  0  0  0  0  0  0  0  0  0  0
  190.2860  173.9410  140.5130 O   0  0  0  0  0  0  0  0  0  0  0  0
  189.1810  174.0660  142.5580 C   0  0  0  0  0  0  0  0  0  0  0  0
  189.2680  174.0540  143.8150 O   0  0  0  0  0  0  0  0  0  0  0  0
  1 12  1  0  0  0  0
  2 16  1  0  0  0  0
  2  1  2  0  0  0  0
  4  1  1  0  0  0  0
  4  7  1  0  0  0  0
  5  8  1  0  0  0  0
  6  3  2  0  0  0  0
  7  8  2  0  0  0  0
  7 13  1  0  0  0  0
  9 14  2  0  0  0  0
  9 10  1  0  0  0  0
 10 16  2  0  0  0  0
 11  5  2  0  0  0  0
 12  3  1  0  0  0  0
 12 13  2  0  0  0  0
 14  2  1  0  0  0  0
 15 11  1  0  0  0  0
 15  4  2  0  0  0  0
 16  6  1  0  0  0  0
 17 14  1  0  0  0  0
 18 17  1  0  0  0  0
 18 19  1  0  0  0  0
 20 19  1  0  0  0  0
 20 24  1  0  0  0  0
 21 22  2  0  0  0  0
 21 24  1  0  0  0  0
 23 21  2  0  0  0  0
 24 25  2  0  0  0  0
M  END
>  <MODEL>
8

>  <REMARK>
 VINA RESULT:      -7.5      2.481      4.397
  Name = 
  5 active torsions:
  status: ('A' for Active; 'I' for Inactive)
    1  A    between atoms: C_6  and  C_15
    2  A    between atoms: C_6  and  C_23
    3  A    between atoms: C_15  and  C_21
    4  A    between atoms: C_16  and  C_20
    5  A    between atoms: C_16  and  C_23
                            x       y       z     vdW  Elec       q    Type
                         _______ _______ _______ _____ _____    ______ ____

>  <TORSDO>
F 5

$$$$
=
 OpenBabel11052417303D

 25 28  0  0  0  0  0  0  0  0999 V2000
  185.8180  178.0680  144.2340 C   0  0  0  0  0  0  0  0  0  0  0  0
  186.6080  177.9170  145.3810 C   0  0  0  0  0  0  0  0  0  0  0  0
  183.9160  178.7120  145.6230 C   0  0  0  0  0  3  0  0  0  0  0  0
  186.0240  177.9310  142.9340 C   0  0  0  0  0  0  0  0  0  0  0  0
  185.8740  177.8180  140.1640 C   0  0  0  0  0  3  0  0  0  0  0  0
  184.7150  178.5600  146.7800 C   0  0  0  0  0  3  0  0  0  0  0  0
  184.8320  178.2340  142.2870 C   0  0  0  0  0  0  0  0  0  0  0  0
  184.7320  178.1830  140.8980 C   0  0  0  0  0  3  0  0  0  0  0  0
  188.0910  177.5700  147.0320 N   0  0  0  0  0  0  0  0  0  0  0  0
  187.0220  177.9330  147.6240 N   0  0  0  0  0  0  0  0  0  0  0  0
  187.0830  177.5150  140.8220 C   0  0  0  0  0  3  0  0  0  0  0  0
  184.4980  178.4580  144.3690 C   0  0  0  0  0  0  0  0  0  0  0  0
  183.8690  178.5600  143.0940 N   0  0  0  0  0  0  0  0  0  0  0  0
  187.8640  177.5540  145.6170 C   0  0  0  0  0  0  0  0  0  0  0  0
  187.1690  177.5710  142.2230 C   0  0  0  0  0  3  0  0  0  0  0  0
  186.0520  178.1650  146.6150 C   0  0  0  0  0  0  0  0  0  0  0  0
  188.8860  177.1040  144.6280 C   0  0  0  0  0  2  0  0  0  0  0  0
  189.1320  175.6050  144.7470 C   0  0  0  0  0  2  0  0  0  0  0  0
  189.6240  175.0130  143.4320 C   0  0  0  0  0  2  0  0  0  0  0  0
  190.4460  176.0200  142.6380 C   0  0  0  0  0  2  0  0  0  0  0  0
  192.7920  176.3840  143.5540 N   0  0  0  0  0  0  0  0  0  0  0  0
  194.1310  176.0750  143.5660 O   0  0  0  0  0  0  0  0  0  0  0  0
  192.3620  177.2760  144.3130 O   0  0  0  0  0  0  0  0  0  0  0  0
  191.9010  175.6780  142.6840 C   0  0  0  0  0  0  0  0  0  0  0  0
  192.3440  174.7690  141.9340 O   0  0  0  0  0  0  0  0  0  0  0  0
  1 12  1  0  0  0  0
  1  2  1  0  0  0  0
  2 14  2  0  0  0  0
  2 16  1  0  0  0  0
  3  6  1  0  0  0  0
  4  1  2  0  0  0  0
  5 11  1  0  0  0  0
  5  8  2  0  0  0  0
  7  4  1  0  0  0  0
  7 13  2  0  0  0  0
  8  7  1  0  0  0  0
  9 10  2  0  0  0  0
 11 15  2  0  0  0  0
 12  3  2  0  0  0  0
 13 12  1  0  0  0  0
 14  9  1  0  0  0  0
 15  4  1  0  0  0  0
 16  6  2  0  0  0  0
 16 10  1  0  0  0  0
 17 18  1  0  0  0  0
 17 14  1  0  0  0  0
 19 18  1  0  0  0  0
 20 24  1  0  0  0  0
 20 19  1  0  0  0  0
 21 22  2  0  0  0  0
 21 23  2  0  0  0  0
 24 21  1  0  0  0  0
 25 24  2  0  0  0  0
M  END
>  <MODEL>
9

>  <REMARK>
 VINA RESULT:      -7.4      2.269      4.152
  Name = 
  5 active torsions:
  status: ('A' for Active; 'I' for Inactive)
    1  A    between atoms: C_6  and  C_15
    2  A    between atoms: C_6  and  C_23
    3  A    between atoms: C_15  and  C_21
    4  A    between atoms: C_16  and  C_20
    5  A    between atoms: C_16  and  C_23
                            x       y       z     vdW  Elec       q    Type
                         _______ _______ _______ _____ _____    ______ ____

>  <TORSDO>
F 5

$$$$
