=
 OpenBabel11052421343D

 32 36  0  0  1  0  0  0  0  0999 V2000
  184.7950  177.7740  146.5810 C   0  0  1  0  0  3  0  0  0  0  0  0
  189.6470  176.7820  144.9850 C   0  0  0  0  0  0  0  0  0  0  0  0
  189.1050  173.7620  141.2180 C   0  0  0  0  0  3  0  0  0  0  0  0
  190.4720  173.8730  140.9480 C   0  0  0  0  0  3  0  0  0  0  0  0
  187.6480  177.4490  146.2490 C   0  0  0  0  0  0  0  0  0  0  0  0
  187.3780  175.9390  144.3760 N   0  0  0  0  0  2  0  0  0  0  0  0
  185.3260  176.6510  145.6960 C   0  0  0  0  0  2  0  0  0  0  0  0
  188.5390  174.4640  142.2860 C   0  0  0  0  0  3  0  0  0  0  0  0
  188.7910  175.9580  144.1180 C   0  0  0  0  0  0  0  0  0  0  0  0
  189.3420  175.2730  143.1060 C   0  0  0  0  0  0  0  0  0  0  0  0
  191.5580  176.1220  143.6390 C   0  0  0  0  0  0  0  0  0  0  0  0
  185.7100  178.0060  147.7820 C   0  0  0  0  0  2  0  0  0  0  0  0
  186.8220  176.7220  145.4500 C   0  0  0  0  0  0  0  0  0  0  0  0
  187.1270  178.3380  147.3490 C   0  0  0  0  0  2  0  0  0  0  0  0
  191.2850  174.6700  141.7510 C   0  0  0  0  0  3  0  0  0  0  0  0
  190.7480  175.3710  142.8450 C   0  0  0  0  0  0  0  0  0  0  0  0
  189.1070  177.4800  145.9870 C   0  0  0  0  0  3  0  0  0  0  0  0
  191.0190  176.8250  144.7320 O   0  0  0  0  0  0  0  0  0  0  0  0
  184.5410  179.0580  145.7980 C   0  0  0  0  0  2  0  0  0  0  0  0
  183.9200  178.7780  144.5070 N   0  0  0  0  0  2  0  0  0  0  0  0
  184.6540  178.7930  143.2980 N   0  0  0  0  0  0  0  0  0  0  0  0
  184.2390  178.1270  142.3240 O   0  0  0  0  0  0  0  0  0  0  0  0
  185.9070  179.3680  143.2420 O   0  0  0  0  0  0  0  0  0  0  0  0
  193.0410  176.2040  143.4120 C   0  0  0  0  0  2  0  0  0  0  0  0
  195.1730  175.0810  143.8820 C   0  0  1  0  0  3  0  0  0  0  0  0
  194.9460  175.9040  145.0720 C   0  0  2  0  0  3  0  0  0  0  0  0
  193.7750  175.2780  144.3360 N   0  0  0  0  0  0  0  0  0  0  0  0
  194.3730  177.1990  145.7320 C   0  0  0  0  0  3  0  0  0  0  0  0
  195.2420  178.2940  145.6080 O   0  0  0  0  0  1  0  0  0  0  0  0
  194.0370  176.9940  147.0690 O   0  0  0  0  0  1  0  0  0  0  0  0
  195.7490  175.9920  142.7660 C   0  0  0  0  0  2  0  0  0  0  0  0
  197.1380  176.4970  143.1740 C   0  0  0  0  0  1  0  0  0  0  0  0
  1 19  1  6  0  0  0
  1 12  1  0  0  0  0
  2 17  2  0  0  0  0
  3  8  2  0  0  0  0
  4  3  1  0  0  0  0
  4 15  2  0  0  0  0
  5 14  1  0  0  0  0
  6 13  1  0  0  0  0
  7  1  1  0  0  0  0
  8 10  1  0  0  0  0
  9  6  1  0  0  0  0
  9  2  1  0  0  0  0
 10  9  2  0  0  0  0
 11 18  1  0  0  0  0
 13  7  1  0  0  0  0
 13  5  2  0  0  0  0
 14 12  1  0  0  0  0
 15 16  1  0  0  0  0
 16 10  1  0  0  0  0
 16 11  2  0  0  0  0
 17  5  1  0  0  0  0
 18  2  1  0  0  0  0
 20 19  1  0  0  0  0
 21 20  1  0  0  0  0
 22 21  2  0  0  0  0
 23 21  2  0  0  0  0
 24 11  1  0  0  0  0
 24 27  1  0  0  0  0
 25 31  1  6  0  0  0
 25 27  1  0  0  0  0
 25 26  1  0  0  0  0
 26 28  1  6  0  0  0
 27 26  1  0  0  0  0
 28 30  1  0  0  0  0
 29 28  1  0  0  0  0
 31 32  1  0  0  0  0
M  END
>  <MODEL>
1

>  <REMARK>
 VINA RESULT:      -7.5      0.000      0.000
  Name = 
  7 active torsions:
  status: ('A' for Active; 'I' for Inactive)
    1  A    between atoms: N_1  and  N_10
    2  A    between atoms: C_2  and  C_24
    3  A    between atoms: C_6  and  C_7
    4  A    between atoms: N_10  and  C_24
    5  A    between atoms: C_11  and  C_22
    6  A    between atoms: C_16  and  C_27
    7  A    between atoms: C_27  and  N_32
                            x       y       z     vdW  Elec       q    Type
                         _______ _______ _______ _____ _____    ______ ____

>  <TORSDO>
F 7

$$$$
=
 OpenBabel11052421343D

 32 36  0  0  1  0  0  0  0  0999 V2000
  185.0750  177.8250  146.7530 C   0  0  1  0  0  3  0  0  0  0  0  0
  189.8260  176.7450  144.9290 C   0  0  0  0  0  0  0  0  0  0  0  0
  189.0560  173.6500  141.2630 C   0  0  0  0  0  3  0  0  0  0  0  0
  190.4090  173.7400  140.9200 C   0  0  0  0  0  3  0  0  0  0  0  0
  187.9030  177.4620  146.2800 C   0  0  0  0  0  0  0  0  0  0  0  0
  187.5190  175.9140  144.4580 N   0  0  0  0  0  2  0  0  0  0  0  0
  185.5470  176.6770  145.8680 C   0  0  0  0  0  2  0  0  0  0  0  0
  188.5550  174.3810  142.3440 C   0  0  0  0  0  3  0  0  0  0  0  0
  188.9170  175.9110  144.1260 C   0  0  0  0  0  0  0  0  0  0  0  0
  189.4080  175.1990  143.1020 C   0  0  0  0  0  0  0  0  0  0  0  0
  191.6570  176.0350  143.4990 C   0  0  0  0  0  0  0  0  0  0  0  0
  186.0530  178.0730  147.8990 C   0  0  0  0  0  2  0  0  0  0  0  0
  187.0280  176.7270  145.5420 C   0  0  0  0  0  0  0  0  0  0  0  0
  187.4480  178.3800  147.3860 C   0  0  0  0  0  2  0  0  0  0  0  0
  191.2700  174.5450  141.6610 C   0  0  0  0  0  3  0  0  0  0  0  0
  190.7990  175.2750  142.7660 C   0  0  0  0  0  0  0  0  0  0  0  0
  189.3460  177.4710  145.9420 C   0  0  0  0  0  3  0  0  0  0  0  0
  191.1830  176.7670  144.6030 O   0  0  0  0  0  0  0  0  0  0  0  0
  184.7920  179.0950  145.9570 C   0  0  0  0  0  2  0  0  0  0  0  0
  184.0350  178.8020  144.7430 N   0  0  0  0  0  2  0  0  0  0  0  0
  184.6370  178.7810  143.4640 N   0  0  0  0  0  0  0  0  0  0  0  0
  184.1390  178.0670  142.5660 O   0  0  0  0  0  0  0  0  0  0  0  0
  185.8640  179.3760  143.2540 O   0  0  0  0  0  0  0  0  0  0  0  0
  193.1260  176.0950  143.1940 C   0  0  0  0  0  2  0  0  0  0  0  0
  194.2490  174.8950  145.0190 C   0  0  1  0  0  3  0  0  0  0  0  0
  195.3310  175.6500  144.3830 C   0  0  2  0  0  3  0  0  0  0  0  0
  193.9300  176.2280  144.4530 N   0  0  0  0  0  0  0  0  0  0  0  0
  195.9730  176.2780  143.1040 C   0  0  0  0  0  3  0  0  0  0  0  0
  196.3910  175.3070  142.1810 O   0  0  0  0  0  1  0  0  0  0  0  0
  197.0270  177.1340  143.4210 O   0  0  0  0  0  1  0  0  0  0  0  0
  193.9820  173.6240  144.1700 C   0  0  0  0  0  2  0  0  0  0  0  0
  192.9640  172.7270  144.8850 C   0  0  0  0  0  1  0  0  0  0  0  0
  1 19  1  6  0  0  0
  1 12  1  0  0  0  0
  2 17  2  0  0  0  0
  3  8  2  0  0  0  0
  4  3  1  0  0  0  0
  4 15  2  0  0  0  0
  5 14  1  0  0  0  0
  6 13  1  0  0  0  0
  7  1  1  0  0  0  0
  8 10  1  0  0  0  0
  9  6  1  0  0  0  0
  9  2  1  0  0  0  0
 10  9  2  0  0  0  0
 11 18  1  0  0  0  0
 13  7  1  0  0  0  0
 13  5  2  0  0  0  0
 14 12  1  0  0  0  0
 15 16  1  0  0  0  0
 16 10  1  0  0  0  0
 16 11  2  0  0  0  0
 17  5  1  0  0  0  0
 18  2  1  0  0  0  0
 20 19  1  0  0  0  0
 21 20  1  0  0  0  0
 22 21  2  0  0  0  0
 23 21  2  0  0  0  0
 24 11  1  0  0  0  0
 24 27  1  0  0  0  0
 25 31  1  6  0  0  0
 26 28  1  6  0  0  0
 26 27  1  0  0  0  0
 26 25  1  0  0  0  0
 27 25  1  0  0  0  0
 28 30  1  0  0  0  0
 29 28  1  0  0  0  0
 31 32  1  0  0  0  0
M  END
>  <MODEL>
2

>  <REMARK>
 VINA RESULT:      -7.3      1.261      1.810
  Name = 
  7 active torsions:
  status: ('A' for Active; 'I' for Inactive)
    1  A    between atoms: N_1  and  N_10
    2  A    between atoms: C_2  and  C_24
    3  A    between atoms: C_6  and  C_7
    4  A    between atoms: N_10  and  C_24
    5  A    between atoms: C_11  and  C_22
    6  A    between atoms: C_16  and  C_27
    7  A    between atoms: C_27  and  N_32
                            x       y       z     vdW  Elec       q    Type
                         _______ _______ _______ _____ _____    ______ ____

>  <TORSDO>
F 7

$$$$
=
 OpenBabel11052421343D

 32 36  0  0  1  0  0  0  0  0999 V2000
  193.0000  174.9950  146.5170 C   0  0  1  0  0  3  0  0  0  0  0  0
  188.4210  175.9720  144.2490 C   0  0  2  0  0  3  0  0  0  0  0  0
  185.8310  178.2710  147.6580 C   0  0  0  0  0  3  0  0  0  0  0  0
  184.8380  178.5330  146.7080 C   0  0  0  0  0  3  0  0  0  0  0  0
  190.6430  175.1120  144.8470 C   0  0  0  0  0  0  0  0  0  0  0  0
  189.3510  176.2520  146.5480 N   0  0  0  0  0  0  0  0  0  0  0  0
  191.6570  175.3590  147.1390 C   0  0  0  0  0  2  0  0  0  0  0  0
  186.9870  177.5730  147.2930 C   0  0  0  0  0  3  0  0  0  0  0  0
  188.2700  176.4660  145.6270 C   0  0  0  0  0  0  0  0  0  0  0  0
  187.1520  177.1180  145.9750 C   0  0  0  0  0  0  0  0  0  0  0  0
  186.2420  176.9120  143.7290 C   0  0  0  0  0  0  0  0  0  0  0  0
  192.8300  173.9610  145.4060 C   0  0  0  0  0  2  0  0  0  0  0  0
  190.5530  175.5820  146.1210 C   0  0  0  0  0  0  0  0  0  0  0  0
  191.8940  174.4580  144.3180 C   0  0  0  0  0  2  0  0  0  0  0  0
  184.9840  178.0880  145.3970 C   0  0  0  0  0  3  0  0  0  0  0  0
  186.1260  177.3660  145.0060 C   0  0  0  0  0  0  0  0  0  0  0  0
  189.5360  175.3340  143.8870 C   0  0  0  0  0  3  0  0  0  0  0  0
  187.3860  176.1920  143.3380 O   0  0  0  0  0  0  0  0  0  0  0  0
  193.7720  176.2230  146.0420 C   0  0  0  0  0  2  0  0  0  0  0  0
  195.0790  175.8530  145.5070 N   0  0  0  0  0  2  0  0  0  0  0  0
  195.4640  176.1550  144.1800 N   0  0  0  0  0  0  0  0  0  0  0  0
  194.5820  176.2880  143.3030 O   0  0  0  0  0  0  0  0  0  0  0  0
  196.7910  176.1120  143.8050 O   0  0  0  0  0  0  0  0  0  0  0  0
  185.1600  177.1200  142.7080 C   0  0  0  0  0  2  0  0  0  0  0  0
  186.1690  178.3700  140.8510 C   0  0  1  0  0  3  0  0  0  0  0  0
  184.7300  178.5430  140.6430 C   0  0  2  0  0  3  0  0  0  0  0  0
  185.2980  178.4600  142.0480 N   0  0  0  0  0  0  0  0  0  0  0  0
  183.2710  177.9950  140.7560 C   0  0  0  0  0  3  0  0  0  0  0  0
  182.8880  177.2520  139.6280 O   0  0  0  0  0  1  0  0  0  0  0  0
  182.3520  179.0140  141.0020 O   0  0  0  0  0  1  0  0  0  0  0  0
  186.5720  176.9750  140.3040 C   0  0  0  0  0  2  0  0  0  0  0  0
  186.4850  176.9730  138.7730 C   0  0  0  0  0  1  0  0  0  0  0  0
  1 19  1  6  0  0  0
  1  7  1  0  0  0  0
  2 17  1  6  0  0  0
  2  9  1  0  0  0  0
  4  3  1  0  0  0  0
  5 13  1  0  0  0  0
  8  3  2  0  0  0  0
  9 10  2  0  0  0  0
  9  6  1  0  0  0  0
 10  8  1  0  0  0  0
 11 16  2  0  0  0  0
 12  1  1  0  0  0  0
 13  6  2  0  0  0  0
 13  7  1  0  0  0  0
 14  5  1  0  0  0  0
 14 12  1  0  0  0  0
 15  4  2  0  0  0  0
 16 15  1  0  0  0  0
 16 10  1  0  0  0  0
 17  5  2  0  0  0  0
 18 11  1  0  0  0  0
 18  2  1  0  0  0  0
 20 19  1  0  0  0  0
 21 20  1  0  0  0  0
 22 21  2  0  0  0  0
 23 21  2  0  0  0  0
 24 11  1  0  0  0  0
 25 31  1  6  0  0  0
 25 27  1  0  0  0  0
 26 28  1  6  0  0  0
 26 25  1  0  0  0  0
 26 27  1  0  0  0  0
 27 24  1  0  0  0  0
 28 30  1  0  0  0  0
 29 28  1  0  0  0  0
 32 31  1  0  0  0  0
M  END
>  <MODEL>
3

>  <REMARK>
 VINA RESULT:      -7.0      2.726      8.590
  Name = 
  7 active torsions:
  status: ('A' for Active; 'I' for Inactive)
    1  A    between atoms: N_1  and  N_10
    2  A    between atoms: C_2  and  C_24
    3  A    between atoms: C_6  and  C_7
    4  A    between atoms: N_10  and  C_24
    5  A    between atoms: C_11  and  C_22
    6  A    between atoms: C_16  and  C_27
    7  A    between atoms: C_27  and  N_32
                            x       y       z     vdW  Elec       q    Type
                         _______ _______ _______ _____ _____    ______ ____

>  <TORSDO>
F 7

$$$$
=
 OpenBabel11052421343D

 32 36  0  0  1  0  0  0  0  0999 V2000
  185.1070  179.2390  143.5270 C   0  0  1  0  0  3  0  0  0  0  0  0
  188.5740  175.3600  143.4820 C   0  0  2  0  0  3  0  0  0  0  0  0
  191.6520  176.4270  147.0860 C   0  0  0  0  0  3  0  0  0  0  0  0
  192.2590  175.1780  146.9210 C   0  0  0  0  0  3  0  0  0  0  0  0
  186.8040  176.9740  142.9370 C   0  0  0  0  0  0  0  0  0  0  0  0
  188.3410  177.5100  144.7280 N   0  0  0  0  0  0  0  0  0  0  0  0
  186.4960  179.1600  144.1480 C   0  0  0  0  0  2  0  0  0  0  0  0
  190.5710  176.7960  146.2810 C   0  0  0  0  0  3  0  0  0  0  0  0
  189.0470  176.2740  144.5330 C   0  0  0  0  0  0  0  0  0  0  0  0
  190.0950  175.9220  145.2900 C   0  0  0  0  0  0  0  0  0  0  0  0
  190.3120  173.7940  144.1330 C   0  0  0  0  0  0  0  0  0  0  0  0
  185.1030  178.6620  142.1120 C   0  0  0  0  0  2  0  0  0  0  0  0
  187.1930  177.8310  143.9190 C   0  0  0  0  0  0  0  0  0  0  0  0
  185.5760  177.2200  142.0960 C   0  0  0  0  0  2  0  0  0  0  0  0
  191.8020  174.2980  145.9430 C   0  0  0  0  0  3  0  0  0  0  0  0
  190.7300  174.6500  145.1040 C   0  0  0  0  0  0  0  0  0  0  0  0
  187.5210  175.6930  142.7310 C   0  0  0  0  0  3  0  0  0  0  0  0
  189.2380  174.1470  143.2960 O   0  0  0  0  0  0  0  0  0  0  0  0
  184.0390  178.5980  144.4080 C   0  0  0  0  0  2  0  0  0  0  0  0
  184.2210  178.9620  145.8100 N   0  0  0  0  0  2  0  0  0  0  0  0
  184.7190  178.0480  146.7680 N   0  0  0  0  0  0  0  0  0  0  0  0
  185.1920  178.4850  147.8400 O   0  0  0  0  0  0  0  0  0  0  0  0
  184.8690  176.7130  146.4550 O   0  0  0  0  0  0  0  0  0  0  0  0
  190.9900  172.4760  143.8900 C   0  0  0  0  0  2  0  0  0  0  0  0
  193.2400  171.8540  143.1260 C   0  0  1  0  0  3  0  0  0  0  0  0
  192.3570  171.2770  142.1100 C   0  0  2  0  0  3  0  0  0  0  0  0
  191.9980  172.5880  142.7840 N   0  0  0  0  0  0  0  0  0  0  0  0
  190.9920  170.6280  141.7140 C   0  0  0  0  0  3  0  0  0  0  0  0
  190.9370  169.2610  142.0240 O   0  0  0  0  0  1  0  0  0  0  0  0
  190.6920  170.8340  140.3680 O   0  0  0  0  0  1  0  0  0  0  0  0
  193.2510  170.9040  144.3520 C   0  0  0  0  0  2  0  0  0  0  0  0
  194.2440  171.4220  145.4000 C   0  0  0  0  0  1  0  0  0  0  0  0
  1  7  1  0  0  0  0
  1 19  1  1  0  0  0
  2 17  1  1  0  0  0
  2  9  1  0  0  0  0
  4  3  1  0  0  0  0
  5 13  1  0  0  0  0
  8  3  2  0  0  0  0
  9  6  1  0  0  0  0
  9 10  2  0  0  0  0
 10  8  1  0  0  0  0
 11 16  2  0  0  0  0
 12  1  1  0  0  0  0
 13  7  1  0  0  0  0
 13  6  2  0  0  0  0
 14 12  1  0  0  0  0
 14  5  1  0  0  0  0
 15  4  2  0  0  0  0
 16 10  1  0  0  0  0
 16 15  1  0  0  0  0
 17  5  2  0  0  0  0
 18  2  1  0  0  0  0
 18 11  1  0  0  0  0
 19 20  1  0  0  0  0
 20 21  1  0  0  0  0
 21 22  2  0  0  0  0
 23 21  2  0  0  0  0
 24 11  1  0  0  0  0
 25 31  1  1  0  0  0
 26 28  1  1  0  0  0
 26 27  1  0  0  0  0
 26 25  1  0  0  0  0
 27 25  1  0  0  0  0
 27 24  1  0  0  0  0
 28 29  1  0  0  0  0
 30 28  1  0  0  0  0
 31 32  1  0  0  0  0
M  END
>  <MODEL>
4

>  <REMARK>
 VINA RESULT:      -6.9      3.437      4.972
  Name = 
  7 active torsions:
  status: ('A' for Active; 'I' for Inactive)
    1  A    between atoms: N_1  and  N_10
    2  A    between atoms: C_2  and  C_24
    3  A    between atoms: C_6  and  C_7
    4  A    between atoms: N_10  and  C_24
    5  A    between atoms: C_11  and  C_22
    6  A    between atoms: C_16  and  C_27
    7  A    between atoms: C_27  and  N_32
                            x       y       z     vdW  Elec       q    Type
                         _______ _______ _______ _____ _____    ______ ____

>  <TORSDO>
F 7

$$$$
=
 OpenBabel11052421343D

 32 36  0  0  1  0  0  0  0  0999 V2000
  184.5450  179.3490  144.9570 C   0  0  1  0  0  3  0  0  0  0  0  0
  187.8650  176.2240  142.4500 C   0  0  2  0  0  3  0  0  0  0  0  0
  192.1880  177.1650  144.4600 C   0  0  0  0  0  3  0  0  0  0  0  0
  192.7370  176.0950  143.7480 C   0  0  0  0  0  3  0  0  0  0  0  0
  185.9300  177.5660  143.1510 C   0  0  0  0  0  0  0  0  0  0  0  0
  188.0840  178.0410  144.1480 N   0  0  0  0  0  0  0  0  0  0  0  0
  186.0650  179.4100  144.8600 C   0  0  0  0  0  2  0  0  0  0  0  0
  190.8300  177.4720  144.3310 C   0  0  0  0  0  3  0  0  0  0  0  0
  188.7070  177.0050  143.3700 C   0  0  0  0  0  0  0  0  0  0  0  0
  190.0120  176.7180  143.4750 C   0  0  0  0  0  0  0  0  0  0  0  0
  189.8180  174.9030  141.8670 C   0  0  0  0  0  0  0  0  0  0  0  0
  183.9190  179.0420  143.5970 C   0  0  0  0  0  2  0  0  0  0  0  0
  186.6700  178.2900  144.0340 C   0  0  0  0  0  0  0  0  0  0  0  0
  184.4370  177.7330  143.0270 C   0  0  0  0  0  2  0  0  0  0  0  0
  191.9420  175.3360  142.8930 C   0  0  0  0  0  3  0  0  0  0  0  0
  190.5780  175.6340  142.7270 C   0  0  0  0  0  0  0  0  0  0  0  0
  186.5610  176.4910  142.3480 C   0  0  0  0  0  3  0  0  0  0  0  0
  188.4530  175.2010  141.7050 O   0  0  0  0  0  0  0  0  0  0  0  0
  184.0700  178.3810  146.0360 C   0  0  0  0  0  2  0  0  0  0  0  0
  184.7080  178.6640  147.3190 N   0  0  0  0  0  2  0  0  0  0  0  0
  185.9050  178.0290  147.7220 N   0  0  0  0  0  0  0  0  0  0  0  0
  186.7620  178.6860  148.3530 O   0  0  0  0  0  0  0  0  0  0  0  0
  186.2220  176.7660  147.2640 O   0  0  0  0  0  0  0  0  0  0  0  0
  190.3990  173.7930  141.0390 C   0  0  0  0  0  2  0  0  0  0  0  0
  188.9200  172.5920  139.4900 C   0  0  1  0  0  3  0  0  0  0  0  0
  189.8550  171.5600  139.9460 C   0  0  2  0  0  3  0  0  0  0  0  0
  189.4170  172.6700  140.8860 N   0  0  0  0  0  0  0  0  0  0  0  0
  191.2810  171.1460  140.4340 C   0  0  0  0  0  3  0  0  0  0  0  0
  192.2360  171.2070  139.4080 O   0  0  0  0  0  1  0  0  0  0  0  0
  191.2800  169.8830  141.0230 O   0  0  0  0  0  1  0  0  0  0  0  0
  189.6200  173.4240  138.3840 C   0  0  0  0  0  2  0  0  0  0  0  0
  188.5680  174.1600  137.5450 C   0  0  0  0  0  1  0  0  0  0  0  0
  1 19  1  1  0  0  0
  2 17  1  1  0  0  0
  2  9  1  0  0  0  0
  4  3  1  0  0  0  0
  5 13  1  0  0  0  0
  7  1  1  0  0  0  0
  8  3  2  0  0  0  0
  9 10  2  0  0  0  0
  9  6  1  0  0  0  0
 10  8  1  0  0  0  0
 11 16  2  0  0  0  0
 12  1  1  0  0  0  0
 13  6  2  0  0  0  0
 13  7  1  0  0  0  0
 14  5  1  0  0  0  0
 14 12  1  0  0  0  0
 15  4  2  0  0  0  0
 16 15  1  0  0  0  0
 16 10  1  0  0  0  0
 17  5  2  0  0  0  0
 18 11  1  0  0  0  0
 18  2  1  0  0  0  0
 19 20  1  0  0  0  0
 20 21  1  0  0  0  0
 21 22  2  0  0  0  0
 23 21  2  0  0  0  0
 24 11  1  0  0  0  0
 25 31  1  6  0  0  0
 25 26  1  0  0  0  0
 25 27  1  0  0  0  0
 26 28  1  6  0  0  0
 26 27  1  0  0  0  0
 27 24  1  0  0  0  0
 28 30  1  0  0  0  0
 29 28  1  0  0  0  0
 32 31  1  0  0  0  0
M  END
>  <MODEL>
5

>  <REMARK>
 VINA RESULT:      -6.8      3.362      5.434
  Name = 
  7 active torsions:
  status: ('A' for Active; 'I' for Inactive)
    1  A    between atoms: N_1  and  N_10
    2  A    between atoms: C_2  and  C_24
    3  A    between atoms: C_6  and  C_7
    4  A    between atoms: N_10  and  C_24
    5  A    between atoms: C_11  and  C_22
    6  A    between atoms: C_16  and  C_27
    7  A    between atoms: C_27  and  N_32
                            x       y       z     vdW  Elec       q    Type
                         _______ _______ _______ _____ _____    ______ ____

>  <TORSDO>
F 7

$$$$
=
 OpenBabel11052421343D

 32 36  0  0  1  0  0  0  0  0999 V2000
  195.8050  175.5140  144.3140 C   0  0  1  0  0  3  0  0  0  0  0  0
  190.7250  176.6350  144.4060 C   0  0  0  0  0  0  0  0  0  0  0  0
  188.7520  173.6480  141.1210 C   0  0  0  0  0  3  0  0  0  0  0  0
  187.4790  174.0520  141.5370 C   0  0  0  0  0  3  0  0  0  0  0  0
  193.1690  176.6510  144.6560 C   0  0  0  0  0  0  0  0  0  0  0  0
  192.1880  175.1680  143.0140 N   0  0  0  0  0  2  0  0  0  0  0  0
  194.7130  175.1990  143.2970 C   0  0  0  0  0  2  0  0  0  0  0  0
  189.8920  174.1770  141.7320 C   0  0  0  0  0  3  0  0  0  0  0  0
  190.8660  175.6190  143.3510 C   0  0  0  0  0  0  0  0  0  0  0  0
  189.7690  175.1290  142.7570 C   0  0  0  0  0  0  0  0  0  0  0  0
  188.3150  176.5040  144.1380 C   0  0  0  0  0  0  0  0  0  0  0  0
  195.6800  176.9470  144.8290 C   0  0  0  0  0  2  0  0  0  0  0  0
  193.3370  175.6910  143.7060 C   0  0  0  0  0  0  0  0  0  0  0  0
  194.3220  177.1970  145.4600 C   0  0  0  0  0  2  0  0  0  0  0  0
  187.3380  174.9960  142.5500 C   0  0  0  0  0  3  0  0  0  0  0  0
  188.4670  175.5610  143.1690 C   0  0  0  0  0  0  0  0  0  0  0  0
  191.8100  177.1200  145.0150 C   0  0  0  0  0  3  0  0  0  0  0  0
  189.4450  177.0660  144.7580 O   0  0  0  0  0  0  0  0  0  0  0  0
  195.8490  174.5000  145.4510 C   0  0  0  0  0  2  0  0  0  0  0  0
  195.5880  173.1470  144.9660 N   0  0  0  0  0  2  0  0  0  0  0  0
  194.4950  172.3780  145.4300 N   0  0  0  0  0  0  0  0  0  0  0  0
  193.4330  172.9570  145.7490 O   0  0  0  0  0  0  0  0  0  0  0  0
  194.6490  171.0370  145.7160 O   0  0  0  0  0  0  0  0  0  0  0  0
  186.9610  177.0050  144.5550 C   0  0  0  0  0  2  0  0  0  0  0  0
  185.8720  178.9800  143.5830 C   0  0  1  0  0  3  0  0  0  0  0  0
  185.6130  179.1130  145.0180 C   0  0  2  0  0  3  0  0  0  0  0  0
  186.9130  178.5040  144.5250 N   0  0  0  0  0  0  0  0  0  0  0  0
  185.3540  178.4570  146.4130 C   0  0  0  0  0  3  0  0  0  0  0  0
  184.0660  177.9080  146.5160 O   0  0  0  0  0  1  0  0  0  0  0  0
  185.5850  179.3520  147.4570 O   0  0  0  0  0  1  0  0  0  0  0  0
  184.8520  177.9670  142.9990 C   0  0  0  0  0  2  0  0  0  0  0  0
  184.9870  177.9160  141.4720 C   0  0  0  0  0  1  0  0  0  0  0  0
  1 12  1  0  0  0  0
  1 19  1  1  0  0  0
  2 18  1  0  0  0  0
  2 17  2  0  0  0  0
  3  4  1  0  0  0  0
  3  8  2  0  0  0  0
  4 15  2  0  0  0  0
  5 17  1  0  0  0  0
  5 14  1  0  0  0  0
  6  9  1  0  0  0  0
  6 13  1  0  0  0  0
  7 13  1  0  0  0  0
  7  1  1  0  0  0  0
  8 10  1  0  0  0  0
  9  2  1  0  0  0  0
 10 16  1  0  0  0  0
 10  9  2  0  0  0  0
 11 24  1  0  0  0  0
 11 18  1  0  0  0  0
 12 14  1  0  0  0  0
 13  5  2  0  0  0  0
 15 16  1  0  0  0  0
 16 11  2  0  0  0  0
 20 21  1  0  0  0  0
 20 19  1  0  0  0  0
 21 23  2  0  0  0  0
 21 22  2  0  0  0  0
 25 31  1  1  0  0  0
 25 27  1  0  0  0  0
 25 26  1  0  0  0  0
 26 28  1  1  0  0  0
 27 24  1  0  0  0  0
 27 26  1  0  0  0  0
 28 29  1  0  0  0  0
 28 30  1  0  0  0  0
 32 31  1  0  0  0  0
M  END
>  <MODEL>
6

>  <REMARK>
 VINA RESULT:      -6.7      2.375      8.202
  Name = 
  7 active torsions:
  status: ('A' for Active; 'I' for Inactive)
    1  A    between atoms: N_1  and  N_10
    2  A    between atoms: C_2  and  C_24
    3  A    between atoms: C_6  and  C_7
    4  A    between atoms: N_10  and  C_24
    5  A    between atoms: C_11  and  C_22
    6  A    between atoms: C_16  and  C_27
    7  A    between atoms: C_27  and  N_32
                            x       y       z     vdW  Elec       q    Type
                         _______ _______ _______ _____ _____    ______ ____

>  <TORSDO>
F 7

$$$$
=
 OpenBabel11052421343D

 32 36  0  0  1  0  0  0  0  0999 V2000
  185.5440  178.6650  142.0770 C   0  0  1  0  0  3  0  0  0  0  0  0
  189.6070  175.7820  143.5760 C   0  0  2  0  0  3  0  0  0  0  0  0
  190.6540  177.3690  148.0470 C   0  0  0  0  0  3  0  0  0  0  0  0
  191.5690  176.3220  148.1900 C   0  0  0  0  0  3  0  0  0  0  0  0
  187.8470  176.9330  142.3060 C   0  0  0  0  0  0  0  0  0  0  0  0
  188.3720  177.7290  144.5310 N   0  0  0  0  0  0  0  0  0  0  0  0
  186.5510  178.8990  143.1980 C   0  0  0  0  0  2  0  0  0  0  0  0
  189.9180  177.5040  146.8660 C   0  0  0  0  0  3  0  0  0  0  0  0
  189.3840  176.7210  144.6860 C   0  0  0  0  0  0  0  0  0  0  0  0
  190.1050  176.5980  145.8090 C   0  0  0  0  0  0  0  0  0  0  0  0
  191.2850  174.6620  144.9290 C   0  0  0  0  0  0  0  0  0  0  0  0
  186.2390  178.1890  140.8040 C   0  0  0  0  0  2  0  0  0  0  0  0
  187.5920  177.8010  143.3220 C   0  0  0  0  0  0  0  0  0  0  0  0
  187.0270  176.9130  141.0400 C   0  0  0  0  0  2  0  0  0  0  0  0
  191.7690  175.4150  147.1530 C   0  0  0  0  0  3  0  0  0  0  0  0
  191.0590  175.5380  145.9450 C   0  0  0  0  0  0  0  0  0  0  0  0
  188.8840  175.8850  142.4580 C   0  0  0  0  0  3  0  0  0  0  0  0
  190.5720  174.7840  143.7220 O   0  0  0  0  0  0  0  0  0  0  0  0
  184.4150  177.7290  142.4970 C   0  0  0  0  0  2  0  0  0  0  0  0
  183.1170  178.3920  142.4110 N   0  0  0  0  0  2  0  0  0  0  0  0
  182.2920  178.2900  141.2660 N   0  0  0  0  0  0  0  0  0  0  0  0
  181.0710  178.5380  141.3700 O   0  0  0  0  0  0  0  0  0  0  0  0
  182.7750  177.7380  140.0970 O   0  0  0  0  0  0  0  0  0  0  0  0
  192.3120  173.5710  145.0320 C   0  0  0  0  0  2  0  0  0  0  0  0
  194.4800  174.1850  144.0560 C   0  0  1  0  0  3  0  0  0  0  0  0
  194.4530  172.7250  143.9480 C   0  0  2  0  0  3  0  0  0  0  0  0
  193.1740  173.5300  143.8050 N   0  0  0  0  0  0  0  0  0  0  0  0
  194.0060  171.3350  144.5050 C   0  0  0  0  0  3  0  0  0  0  0  0
  194.6330  171.0160  145.7190 O   0  0  0  0  0  1  0  0  0  0  0  0
  194.2030  170.3170  143.5730 O   0  0  0  0  0  1  0  0  0  0  0  0
  194.8810  174.5550  145.5090 C   0  0  0  0  0  2  0  0  0  0  0  0
  196.3420  174.1630  145.7600 C   0  0  0  0  0  1  0  0  0  0  0  0
  1 19  1  1  0  0  0
  1  7  1  0  0  0  0
  2 17  1  1  0  0  0
  2 18  1  0  0  0  0
  2  9  1  0  0  0  0
  3  4  1  0  0  0  0
  5 17  2  0  0  0  0
  5 13  1  0  0  0  0
  6  9  1  0  0  0  0
  7 13  1  0  0  0  0
  8  3  2  0  0  0  0
  9 10  2  0  0  0  0
 10 16  1  0  0  0  0
 10  8  1  0  0  0  0
 11 24  1  0  0  0  0
 11 16  2  0  0  0  0
 12 14  1  0  0  0  0
 12  1  1  0  0  0  0
 13  6  2  0  0  0  0
 14  5  1  0  0  0  0
 15  4  2  0  0  0  0
 16 15  1  0  0  0  0
 18 11  1  0  0  0  0
 20 19  1  0  0  0  0
 21 22  2  0  0  0  0
 21 20  1  0  0  0  0
 23 21  2  0  0  0  0
 25 31  1  1  0  0  0
 26 25  1  0  0  0  0
 26 28  1  1  0  0  0
 27 26  1  0  0  0  0
 27 25  1  0  0  0  0
 27 24  1  0  0  0  0
 28 29  1  0  0  0  0
 30 28  1  0  0  0  0
 31 32  1  0  0  0  0
M  END
>  <MODEL>
7

>  <REMARK>
 VINA RESULT:      -6.6      3.050      4.475
  Name = 
  7 active torsions:
  status: ('A' for Active; 'I' for Inactive)
    1  A    between atoms: N_1  and  N_10
    2  A    between atoms: C_2  and  C_24
    3  A    between atoms: C_6  and  C_7
    4  A    between atoms: N_10  and  C_24
    5  A    between atoms: C_11  and  C_22
    6  A    between atoms: C_16  and  C_27
    7  A    between atoms: C_27  and  N_32
                            x       y       z     vdW  Elec       q    Type
                         _______ _______ _______ _____ _____    ______ ____

>  <TORSDO>
F 7

$$$$
=
 OpenBabel11052421343D

 32 36  0  0  1  0  0  0  0  0999 V2000
  186.8050  177.6940  143.1320 C   0  0  1  0  0  3  0  0  0  0  0  0
  190.6080  174.2450  143.9700 C   0  0  2  0  0  3  0  0  0  0  0  0
  194.2340  176.8580  145.8750 C   0  0  0  0  0  3  0  0  0  0  0  0
  194.9320  175.6750  146.1370 C   0  0  0  0  0  3  0  0  0  0  0  0
  188.5880  175.4210  143.2120 C   0  0  0  0  0  0  0  0  0  0  0  0
  190.3970  176.7250  144.1550 N   0  0  0  0  0  0  0  0  0  0  0  0
  188.2940  177.9160  143.3700 C   0  0  0  0  0  2  0  0  0  0  0  0
  192.9720  176.8120  145.2760 C   0  0  0  0  0  3  0  0  0  0  0  0
  191.1840  175.5400  144.3620 C   0  0  0  0  0  0  0  0  0  0  0  0
  192.4020  175.5790  144.9200 C   0  0  0  0  0  0  0  0  0  0  0  0
  192.6140  173.1590  144.8060 C   0  0  0  0  0  0  0  0  0  0  0  0
  186.5690  176.5350  142.1640 C   0  0  0  0  0  2  0  0  0  0  0  0
  189.0750  176.6330  143.5900 C   0  0  0  0  0  0  0  0  0  0  0  0
  187.1910  175.2470  142.6730 C   0  0  0  0  0  2  0  0  0  0  0  0
  194.3840  174.4430  145.7900 C   0  0  0  0  0  3  0  0  0  0  0  0
  193.1250  174.3670  145.1670 C   0  0  0  0  0  0  0  0  0  0  0  0
  189.3890  174.1920  143.4280 C   0  0  0  0  0  3  0  0  0  0  0  0
  191.3530  173.0840  144.1860 O   0  0  0  0  0  0  0  0  0  0  0  0
  186.0280  177.5190  144.4330 C   0  0  0  0  0  2  0  0  0  0  0  0
  186.6650  178.2400  145.5310 N   0  0  0  0  0  2  0  0  0  0  0  0
  186.9150  177.6360  146.7850 N   0  0  0  0  0  0  0  0  0  0  0  0
  187.6100  176.5980  146.8350 O   0  0  0  0  0  0  0  0  0  0  0  0
  186.2470  178.0600  147.9160 O   0  0  0  0  0  0  0  0  0  0  0  0
  193.3730  171.8800  145.0140 C   0  0  0  0  0  2  0  0  0  0  0  0
  195.4070  170.9800  143.9720 C   0  0  1  0  0  3  0  0  0  0  0  0
  194.3970  169.9540  143.7030 C   0  0  2  0  0  3  0  0  0  0  0  0
  194.0110  171.4220  143.7360 N   0  0  0  0  0  0  0  0  0  0  0  0
  193.1080  169.1790  144.1280 C   0  0  0  0  0  3  0  0  0  0  0  0
  193.3270  168.3400  145.2320 O   0  0  0  0  0  1  0  0  0  0  0  0
  192.5650  168.4560  143.0670 O   0  0  0  0  0  1  0  0  0  0  0  0
  195.9110  170.7920  145.4270 C   0  0  0  0  0  2  0  0  0  0  0  0
  196.9940  171.8320  145.7390 C   0  0  0  0  0  1  0  0  0  0  0  0
  1  7  1  0  0  0  0
  1 19  1  1  0  0  0
  2 17  1  1  0  0  0
  2 18  1  0  0  0  0
  2  9  1  0  0  0  0
  3  4  1  0  0  0  0
  5 17  2  0  0  0  0
  5 13  1  0  0  0  0
  6  9  1  0  0  0  0
  7 13  1  0  0  0  0
  8  3  2  0  0  0  0
  9 10  2  0  0  0  0
 10 16  1  0  0  0  0
 10  8  1  0  0  0  0
 11 24  1  0  0  0  0
 11 16  2  0  0  0  0
 12 14  1  0  0  0  0
 12  1  1  0  0  0  0
 13  6  2  0  0  0  0
 14  5  1  0  0  0  0
 15  4  2  0  0  0  0
 16 15  1  0  0  0  0
 18 11  1  0  0  0  0
 19 20  1  0  0  0  0
 20 21  1  0  0  0  0
 21 22  2  0  0  0  0
 21 23  2  0  0  0  0
 25 31  1  1  0  0  0
 26 27  1  0  0  0  0
 26 25  1  0  0  0  0
 26 28  1  1  0  0  0
 27 25  1  0  0  0  0
 27 24  1  0  0  0  0
 28 29  1  0  0  0  0
 30 28  1  0  0  0  0
 31 32  1  0  0  0  0
M  END
>  <MODEL>
8

>  <REMARK>
 VINA RESULT:      -6.6      3.711      5.268
  Name = 
  7 active torsions:
  status: ('A' for Active; 'I' for Inactive)
    1  A    between atoms: N_1  and  N_10
    2  A    between atoms: C_2  and  C_24
    3  A    between atoms: C_6  and  C_7
    4  A    between atoms: N_10  and  C_24
    5  A    between atoms: C_11  and  C_22
    6  A    between atoms: C_16  and  C_27
    7  A    between atoms: C_27  and  N_32
                            x       y       z     vdW  Elec       q    Type
                         _______ _______ _______ _____ _____    ______ ____

>  <TORSDO>
F 7

$$$$
=
 OpenBabel11052421343D

 32 36  0  0  1  0  0  0  0  0999 V2000
  187.5140  177.8280  141.7630 C   0  0  1  0  0  3  0  0  0  0  0  0
  191.0120  174.3310  143.3750 C   0  0  2  0  0  3  0  0  0  0  0  0
  194.2960  176.9280  145.8400 C   0  0  0  0  0  3  0  0  0  0  0  0
  194.9040  175.7400  146.2570 C   0  0  0  0  0  3  0  0  0  0  0  0
  189.1940  175.5230  142.2300 C   0  0  0  0  0  0  0  0  0  0  0  0
  190.8340  176.8190  143.4520 N   0  0  0  0  0  0  0  0  0  0  0  0
  188.9400  178.0280  142.2640 C   0  0  0  0  0  2  0  0  0  0  0  0
  193.1630  176.8890  145.0220 C   0  0  0  0  0  3  0  0  0  0  0  0
  191.5390  175.6260  143.8310 C   0  0  0  0  0  0  0  0  0  0  0  0
  192.6360  175.6570  144.6010 C   0  0  0  0  0  0  0  0  0  0  0  0
  192.8030  173.2310  144.5920 C   0  0  0  0  0  0  0  0  0  0  0  0
  187.4290  176.6450  140.8010 C   0  0  0  0  0  2  0  0  0  0  0  0
  189.6350  176.7370  142.6580 C   0  0  0  0  0  0  0  0  0  0  0  0
  187.9150  175.3610  141.4490 C   0  0  0  0  0  2  0  0  0  0  0  0
  194.3970  174.5090  145.8480 C   0  0  0  0  0  3  0  0  0  0  0  0
  193.2710  174.4390  145.0080 C   0  0  0  0  0  0  0  0  0  0  0  0
  189.9110  174.2860  142.6210 C   0  0  0  0  0  3  0  0  0  0  0  0
  191.6750  173.1630  143.7540 O   0  0  0  0  0  0  0  0  0  0  0  0
  186.5090  177.7090  142.9050 C   0  0  0  0  0  2  0  0  0  0  0  0
  185.1570  177.4880  142.4000 N   0  0  0  0  0  2  0  0  0  0  0  0
  184.0750  178.3300  142.7480 N   0  0  0  0  0  0  0  0  0  0  0  0
  184.1230  178.9750  143.8190 O   0  0  0  0  0  0  0  0  0  0  0  0
  182.8980  178.2980  142.0280 O   0  0  0  0  0  0  0  0  0  0  0  0
  193.4790  171.9440  144.9700 C   0  0  0  0  0  2  0  0  0  0  0  0
  195.6720  171.1530  144.1970 C   0  0  1  0  0  3  0  0  0  0  0  0
  194.8020  169.9870  144.0220 C   0  0  2  0  0  3  0  0  0  0  0  0
  194.2580  171.3890  143.8140 N   0  0  0  0  0  0  0  0  0  0  0  0
  193.5750  169.1340  144.4800 C   0  0  0  0  0  3  0  0  0  0  0  0
  193.8340  168.4080  145.6530 O   0  0  0  0  0  1  0  0  0  0  0  0
  193.1320  168.2820  143.4690 O   0  0  0  0  0  1  0  0  0  0  0  0
  196.0800  171.2320  145.6910 C   0  0  0  0  0  2  0  0  0  0  0  0
  197.0000  170.0550  146.0400 C   0  0  0  0  0  1  0  0  0  0  0  0
  1  7  1  0  0  0  0
  1 19  1  1  0  0  0
  2 17  1  1  0  0  0
  2 18  1  0  0  0  0
  2  9  1  0  0  0  0
  3  4  1  0  0  0  0
  5 17  2  0  0  0  0
  5 13  1  0  0  0  0
  6  9  1  0  0  0  0
  7 13  1  0  0  0  0
  8  3  2  0  0  0  0
  9 10  2  0  0  0  0
 10 16  1  0  0  0  0
 10  8  1  0  0  0  0
 11 24  1  0  0  0  0
 11 16  2  0  0  0  0
 12 14  1  0  0  0  0
 12  1  1  0  0  0  0
 13  6  2  0  0  0  0
 14  5  1  0  0  0  0
 15  4  2  0  0  0  0
 16 15  1  0  0  0  0
 18 11  1  0  0  0  0
 20 21  1  0  0  0  0
 20 19  1  0  0  0  0
 21 22  2  0  0  0  0
 23 21  2  0  0  0  0
 25 31  1  1  0  0  0
 26 25  1  0  0  0  0
 26 28  1  1  0  0  0
 27 26  1  0  0  0  0
 27 25  1  0  0  0  0
 27 24  1  0  0  0  0
 28 29  1  0  0  0  0
 30 28  1  0  0  0  0
 31 32  1  0  0  0  0
M  END
>  <MODEL>
9

>  <REMARK>
 VINA RESULT:      -6.4      3.611      5.397
  Name = 
  7 active torsions:
  status: ('A' for Active; 'I' for Inactive)
    1  A    between atoms: N_1  and  N_10
    2  A    between atoms: C_2  and  C_24
    3  A    between atoms: C_6  and  C_7
    4  A    between atoms: N_10  and  C_24
    5  A    between atoms: C_11  and  C_22
    6  A    between atoms: C_16  and  C_27
    7  A    between atoms: C_27  and  N_32
                            x       y       z     vdW  Elec       q    Type
                         _______ _______ _______ _____ _____    ______ ____

>  <TORSDO>
F 7

$$$$
