=
 OpenBabel11052418183D

 28 30  0  0  1  0  0  0  0  0999 V2000
  190.3410  177.5300  147.1920 O   0  0  0  0  0  0  0  0  0  0  0  0
  188.0380  176.5850  144.6490 C   0  0  1  0  0  3  0  0  0  0  0  0
  189.9560  178.1720  144.1070 C   0  0  0  0  0  1  0  0  0  0  0  0
  190.3380  175.4720  146.0150 C   0  0  2  0  0  3  0  0  0  0  0  0
  188.5540  175.1530  144.4010 C   0  0  0  0  0  2  0  0  0  0  0  0
  189.9350  176.9090  146.2230 C   0  0  0  0  0  0  0  0  0  0  0  0
  189.0720  177.5870  145.2000 C   0  0  2  0  0  3  0  0  0  0  0  0
  190.0020  175.0330  144.6420 N   0  0  2  0  0  0  0  0  0  0  0  0
  190.4640  173.6570  144.3800 C   0  0  1  0  0  3  0  0  0  0  0  0
  189.9750  173.1260  142.9970 C   0  0  1  0  0  3  0  0  0  0  0  0
  190.6320  173.6380  141.7760 N   0  0  0  0  0  0  0  0  0  0  0  0
  191.3200  174.9080  142.0000 C   0  0  0  0  0  2  0  0  0  0  0  0
  192.7200  174.6710  142.5670 C   0  0  0  0  0  2  0  0  0  0  0  0
  192.8230  173.3790  143.0970 O   0  0  0  0  0  0  0  0  0  0  0  0
  192.2780  173.4760  144.7300 S   0  0  0  0  0  0  0  0  0  0  0  0
  189.5780  173.9130  140.8140 C   0  0  0  0  0  1  0  0  0  0  0  0
  189.7920  171.6080  142.9670 C   0  0  0  0  0  2  0  0  0  0  0  0
  190.8330  170.9140  142.1060 C   0  0  0  0  0  1  0  0  0  0  0  0
  187.3300  176.6030  142.2310 C   0  0  0  0  0  3  0  0  0  0  0  0
  186.2450  178.1370  143.7690 C   0  0  0  0  0  0  0  0  0  0  0  0
  185.6160  178.1070  141.4260 C   0  0  0  0  0  0  0  0  0  0  0  0
  187.1830  177.1130  143.5310 C   0  0  0  0  0  0  0  0  0  0  0  0
  185.4660  178.6270  142.7160 C   0  0  0  0  0  3  0  0  0  0  0  0
  186.0240  178.8260  145.3700 Cl  0  0  0  0  0  0  0  0  0  0  0  0
  184.7830  178.6340  140.3130 C   0  0  0  0  0  1  0  0  0  0  0  0
  186.5480  177.0970  141.1850 C   0  0  0  0  0  3  0  0  0  0  0  0
  189.8040  174.5480  147.1250 C   0  0  0  0  0  2  0  0  0  0  0  0
  188.5500  174.9610  147.5800 O   0  0  0  0  0  1  0  0  0  0  0  0
  2 22  1  6  0  0  0
  2  7  1  0  0  0  0
  4  6  1  0  0  0  0
  4 27  1  1  0  0  0
  5  2  1  0  0  0  0
  6  1  2  0  0  0  0
  7  3  1  6  0  0  0
  7  6  1  0  0  0  0
  8  5  1  1  0  0  0
  8  4  1  0  0  0  0
  9  8  1  0  0  0  0
  9 15  1  6  0  0  0
 10 17  1  1  0  0  0
 10  9  1  0  0  0  0
 11 12  1  0  0  0  0
 11 10  1  0  0  0  0
 12 13  1  0  0  0  0
 13 14  1  0  0  0  0
 14 15  1  0  0  0  0
 16 11  1  0  0  0  0
 18 17  1  0  0  0  0
 19 22  1  0  0  0  0
 20 24  1  0  0  0  0
 21 23  2  0  0  0  0
 22 20  2  0  0  0  0
 23 20  1  0  0  0  0
 25 21  1  0  0  0  0
 26 21  1  0  0  0  0
 26 19  2  0  0  0  0
 27 28  1  0  0  0  0
M  END
>  <MODEL>
1

>  <REMARK>
 VINA RESULT:      -6.4      0.000      0.000
  Name = 
  4 active torsions:
  status: ('A' for Active; 'I' for Inactive)
    1  A    between atoms: C_1  and  N_27
    2  A    between atoms: C_2  and  C_7
    3  A    between atoms: C_10  and  C_13
    4  A    between atoms: C_16  and  C_19
                            x       y       z     vdW  Elec       q    Type
                         _______ _______ _______ _____ _____    ______ ____

>  <TORSDO>
F 4

$$$$
=
 OpenBabel11052418183D

 28 30  0  0  1  0  0  0  0  0999 V2000
  189.6020  177.7120  145.5370 O   0  0  0  0  0  0  0  0  0  0  0  0
  192.3750  175.8090  144.3750 C   0  0  1  0  0  3  0  0  0  0  0  0
  190.8870  174.8930  146.2290 C   0  0  0  0  0  1  0  0  0  0  0  0
  189.6720  176.4340  143.5410 C   0  0  2  0  0  3  0  0  0  0  0  0
  191.7740  175.3320  143.0380 C   0  0  0  0  0  2  0  0  0  0  0  0
  190.1770  176.8440  144.9010 C   0  0  0  0  0  0  0  0  0  0  0  0
  191.3610  176.1370  145.4900 C   0  0  2  0  0  3  0  0  0  0  0  0
  190.3120  175.1710  143.1100 N   0  0  2  0  0  0  0  0  0  0  0  0
  189.7740  174.6990  141.8200 C   0  0  1  0  0  3  0  0  0  0  0  0
  190.6880  173.6210  141.1610 C   0  0  1  0  0  3  0  0  0  0  0  0
  190.6850  172.2550  141.7260 N   0  0  0  0  0  0  0  0  0  0  0  0
  190.1890  172.2200  143.1000 C   0  0  0  0  0  2  0  0  0  0  0  0
  188.6610  172.1550  143.1220 C   0  0  0  0  0  2  0  0  0  0  0  0
  188.1360  172.5550  141.8870 O   0  0  0  0  0  0  0  0  0  0  0  0
  187.9730  174.2690  141.9570 S   0  0  0  0  0  0  0  0  0  0  0  0
  192.0690  171.8190  141.7840 C   0  0  0  0  0  1  0  0  0  0  0  0
  190.6110  173.6190  139.6340 C   0  0  0  0  0  2  0  0  0  0  0  0
  189.8710  172.4080  139.0910 C   0  0  0  0  0  1  0  0  0  0  0  0
  193.6000  173.6170  144.5750 C   0  0  0  0  0  3  0  0  0  0  0  0
  194.6290  175.6090  145.5060 C   0  0  0  0  0  0  0  0  0  0  0  0
  195.7510  173.4650  145.6700 C   0  0  0  0  0  0  0  0  0  0  0  0
  193.5610  174.9980  144.8210 C   0  0  0  0  0  0  0  0  0  0  0  0
  195.7190  174.8390  145.9250 C   0  0  0  0  0  3  0  0  0  0  0  0
  194.6320  177.3310  145.8550 Cl  0  0  0  0  0  0  0  0  0  0  0  0
  196.9130  172.6540  146.1190 C   0  0  0  0  0  1  0  0  0  0  0  0
  194.6920  172.8540  144.9960 C   0  0  0  0  0  3  0  0  0  0  0  0
  189.7660  177.5770  142.5130 C   0  0  0  0  0  2  0  0  0  0  0  0
  188.5030  178.0730  142.1790 O   0  0  0  0  0  1  0  0  0  0  0  0
  2 22  1  1  0  0  0
  2  7  1  0  0  0  0
  4 27  1  6  0  0  0
  4  6  1  0  0  0  0
  5  2  1  0  0  0  0
  6  7  1  0  0  0  0
  6  1  2  0  0  0  0
  7  3  1  6  0  0  0
  8  5  1  6  0  0  0
  8  4  1  0  0  0  0
  9 15  1  1  0  0  0
  9  8  1  0  0  0  0
 10 17  1  6  0  0  0
 10 11  1  0  0  0  0
 10  9  1  0  0  0  0
 11 16  1  0  0  0  0
 11 12  1  0  0  0  0
 12 13  1  0  0  0  0
 14 15  1  0  0  0  0
 14 13  1  0  0  0  0
 18 17  1  0  0  0  0
 19 22  2  0  0  0  0
 19 26  1  0  0  0  0
 20 24  1  0  0  0  0
 20 23  2  0  0  0  0
 21 23  1  0  0  0  0
 21 25  1  0  0  0  0
 22 20  1  0  0  0  0
 26 21  2  0  0  0  0
 28 27  1  0  0  0  0
M  END
>  <MODEL>
2

>  <REMARK>
 VINA RESULT:      -6.2      3.323      6.329
  Name = 
  4 active torsions:
  status: ('A' for Active; 'I' for Inactive)
    1  A    between atoms: C_1  and  N_27
    2  A    between atoms: C_2  and  C_7
    3  A    between atoms: C_10  and  C_13
    4  A    between atoms: C_16  and  C_19
                            x       y       z     vdW  Elec       q    Type
                         _______ _______ _______ _____ _____    ______ ____

>  <TORSDO>
F 4

$$$$
=
 OpenBabel11052418183D

 28 30  0  0  1  0  0  0  0  0999 V2000
  190.0610  171.8840  141.2240 O   0  0  0  0  0  0  0  0  0  0  0  0
  189.9980  174.9190  143.0800 C   0  0  1  0  0  3  0  0  0  0  0  0
  189.6800  172.6900  144.2710 C   0  0  0  0  0  1  0  0  0  0  0  0
  191.9540  173.1480  141.8850 C   0  0  2  0  0  3  0  0  0  0  0  0
  191.5110  175.2150  143.0750 C   0  0  0  0  0  2  0  0  0  0  0  0
  190.4990  172.7630  141.9480 C   0  0  0  0  0  0  0  0  0  0  0  0
  189.6020  173.4350  142.9460 C   0  0  2  0  0  3  0  0  0  0  0  0
  192.3200  173.9850  143.0500 N   0  0  2  0  0  0  0  0  0  0  0  0
  193.7600  174.3050  143.0630 C   0  0  1  0  0  3  0  0  0  0  0  0
  194.1150  175.3730  144.1420 C   0  0  1  0  0  3  0  0  0  0  0  0
  194.1390  174.9570  145.5610 N   0  0  0  0  0  0  0  0  0  0  0  0
  193.3740  173.7350  145.7990 C   0  0  0  0  0  2  0  0  0  0  0  0
  194.2240  172.4990  145.4980 C   0  0  0  0  0  2  0  0  0  0  0  0
  195.3260  172.8430  144.7050 O   0  0  0  0  0  0  0  0  0  0  0  0
  194.7940  172.7630  143.0680 S   0  0  0  0  0  0  0  0  0  0  0  0
  193.4740  176.0040  146.3180 C   0  0  0  0  0  1  0  0  0  0  0  0
  195.3260  176.2280  143.7670 C   0  0  0  0  0  2  0  0  0  0  0  0
  195.5240  176.3270  142.2640 C   0  0  0  0  0  1  0  0  0  0  0  0
  189.8520  175.9580  145.3700 C   0  0  0  0  0  3  0  0  0  0  0  0
  187.9190  176.0970  143.9090 C   0  0  0  0  0  0  0  0  0  0  0  0
  187.8420  177.0700  146.1290 C   0  0  0  0  0  0  0  0  0  0  0  0
  189.2440  175.6790  144.1360 C   0  0  0  0  0  0  0  0  0  0  0  0
  187.2260  176.7910  144.9060 C   0  0  0  0  0  3  0  0  0  0  0  0
  187.0980  175.7640  142.3910 Cl  0  0  0  0  0  0  0  0  0  0  0  0
  187.0990  177.8080  147.1830 C   0  0  0  0  0  1  0  0  0  0  0  0
  189.1550  176.6520  146.3610 C   0  0  0  0  0  3  0  0  0  0  0  0
  192.3430  173.7510  140.5230 C   0  0  0  0  0  2  0  0  0  0  0  0
  193.0370  172.8330  139.7330 O   0  0  0  0  0  1  0  0  0  0  0  0
  1  6  2  0  0  0  0
  2 22  1  1  0  0  0
  4 27  1  6  0  0  0
  4  6  1  0  0  0  0
  4  8  1  0  0  0  0
  5  2  1  0  0  0  0
  6  7  1  0  0  0  0
  7  2  1  0  0  0  0
  7  3  1  1  0  0  0
  8  9  1  0  0  0  0
  8  5  1  6  0  0  0
  9 15  1  1  0  0  0
  9 10  1  0  0  0  0
 10 17  1  6  0  0  0
 10 11  1  0  0  0  0
 11 12  1  0  0  0  0
 11 16  1  0  0  0  0
 13 12  1  0  0  0  0
 14 13  1  0  0  0  0
 15 14  1  0  0  0  0
 18 17  1  0  0  0  0
 19 26  1  0  0  0  0
 20 22  1  0  0  0  0
 20 23  2  0  0  0  0
 21 26  2  0  0  0  0
 21 25  1  0  0  0  0
 22 19  2  0  0  0  0
 23 21  1  0  0  0  0
 24 20  1  0  0  0  0
 28 27  1  0  0  0  0
M  END
>  <MODEL>
3

>  <REMARK>
 VINA RESULT:      -6.1      3.069      5.331
  Name = 
  4 active torsions:
  status: ('A' for Active; 'I' for Inactive)
    1  A    between atoms: C_1  and  N_27
    2  A    between atoms: C_2  and  C_7
    3  A    between atoms: C_10  and  C_13
    4  A    between atoms: C_16  and  C_19
                            x       y       z     vdW  Elec       q    Type
                         _______ _______ _______ _____ _____    ______ ____

>  <TORSDO>
F 4

$$$$
=
 OpenBabel11052418183D

 28 30  0  0  1  0  0  0  0  0999 V2000
  189.6040  177.8870  145.8410 O   0  0  0  0  0  0  0  0  0  0  0  0
  189.8720  175.0930  143.6530 C   0  0  1  0  0  3  0  0  0  0  0  0
  190.7020  177.3830  142.9050 C   0  0  0  0  0  1  0  0  0  0  0  0
  191.2450  176.1810  145.9600 C   0  0  2  0  0  3  0  0  0  0  0  0
  191.0590  174.3860  144.3380 C   0  0  0  0  0  2  0  0  0  0  0  0
  190.1550  176.9600  145.2700 C   0  0  0  0  0  0  0  0  0  0  0  0
  189.7900  176.6190  143.8560 C   0  0  2  0  0  3  0  0  0  0  0  0
  191.9760  175.3380  144.9870 N   0  0  2  0  0  0  0  0  0  0  0  0
  193.1050  174.6290  145.6180 C   0  0  1  0  0  3  0  0  0  0  0  0
  193.7240  173.5520  144.6740 C   0  0  1  0  0  3  0  0  0  0  0  0
  194.5650  174.0040  143.5460 N   0  0  0  0  0  0  0  0  0  0  0  0
  194.3210  175.4010  143.1910 C   0  0  0  0  0  2  0  0  0  0  0  0
  195.1400  176.3360  144.0820 C   0  0  0  0  0  2  0  0  0  0  0  0
  195.5690  175.6640  145.2340 O   0  0  0  0  0  0  0  0  0  0  0  0
  194.3020  175.8200  146.3920 S   0  0  0  0  0  0  0  0  0  0  0  0
  194.1760  173.2190  142.3880 C   0  0  0  0  0  1  0  0  0  0  0  0
  194.3460  172.3770  145.4300 C   0  0  0  0  0  2  0  0  0  0  0  0
  195.8650  172.4130  145.4110 C   0  0  0  0  0  1  0  0  0  0  0  0
  190.6700  174.0090  141.5230 C   0  0  0  0  0  3  0  0  0  0  0  0
  188.3900  174.8390  141.6190 C   0  0  0  0  0  0  0  0  0  0  0  0
  189.2240  173.7910  139.5960 C   0  0  0  0  0  0  0  0  0  0  0  0
  189.6370  174.6320  142.2410 C   0  0  0  0  0  0  0  0  0  0  0  0
  188.1910  174.4160  140.3010 C   0  0  0  0  0  3  0  0  0  0  0  0
  187.0630  175.6250  142.4600 Cl  0  0  0  0  0  0  0  0  0  0  0  0
  189.0040  173.3440  138.1960 C   0  0  0  0  0  1  0  0  0  0  0  0
  190.4630  173.5890  140.2070 C   0  0  0  0  0  3  0  0  0  0  0  0
  190.7300  175.4210  147.1960 C   0  0  0  0  0  2  0  0  0  0  0  0
  191.1930  175.9950  148.3830 O   0  0  0  0  0  1  0  0  0  0  0  0
  2 22  1  6  0  0  0
  2  7  1  0  0  0  0
  2  5  1  0  0  0  0
  4 27  1  1  0  0  0
  6  1  2  0  0  0  0
  6  4  1  0  0  0  0
  7  3  1  6  0  0  0
  7  6  1  0  0  0  0
  8  5  1  1  0  0  0
  8  9  1  0  0  0  0
  8  4  1  0  0  0  0
  9 15  1  6  0  0  0
 10 17  1  1  0  0  0
 10  9  1  0  0  0  0
 11 10  1  0  0  0  0
 12 11  1  0  0  0  0
 12 13  1  0  0  0  0
 13 14  1  0  0  0  0
 14 15  1  0  0  0  0
 16 11  1  0  0  0  0
 18 17  1  0  0  0  0
 19 22  1  0  0  0  0
 20 22  2  0  0  0  0
 20 24  1  0  0  0  0
 21 26  1  0  0  0  0
 21 23  2  0  0  0  0
 23 20  1  0  0  0  0
 25 21  1  0  0  0  0
 26 19  2  0  0  0  0
 27 28  1  0  0  0  0
M  END
>  <MODEL>
4

>  <REMARK>
 VINA RESULT:      -6.0      2.862      3.973
  Name = 
  4 active torsions:
  status: ('A' for Active; 'I' for Inactive)
    1  A    between atoms: C_1  and  N_27
    2  A    between atoms: C_2  and  C_7
    3  A    between atoms: C_10  and  C_13
    4  A    between atoms: C_16  and  C_19
                            x       y       z     vdW  Elec       q    Type
                         _______ _______ _______ _____ _____    ______ ____

>  <TORSDO>
F 4

$$$$
=
 OpenBabel11052418183D

 28 30  0  0  1  0  0  0  0  0999 V2000
  194.4110  177.5040  145.3190 O   0  0  0  0  0  0  0  0  0  0  0  0
  191.1850  176.0200  145.5630 C   0  0  1  0  0  3  0  0  0  0  0  0
  191.6890  177.6760  143.6940 C   0  0  0  0  0  1  0  0  0  0  0  0
  193.8350  175.3100  144.6290 C   0  0  2  0  0  3  0  0  0  0  0  0
  191.5440  174.6180  145.0320 C   0  0  0  0  0  2  0  0  0  0  0  0
  193.5140  176.7220  145.0480 C   0  0  0  0  0  0  0  0  0  0  0  0
  192.0840  177.1750  145.0760 C   0  0  2  0  0  3  0  0  0  0  0  0
  192.6400  174.6580  144.0480 N   0  0  2  0  0  0  0  0  0  0  0  0
  192.9450  173.3040  143.5500 C   0  0  1  0  0  3  0  0  0  0  0  0
  191.6530  172.4860  143.2400 C   0  0  1  0  0  3  0  0  0  0  0  0
  190.8840  172.8210  142.0230 N   0  0  0  0  0  0  0  0  0  0  0  0
  191.1720  174.1670  141.5320 C   0  0  0  0  0  2  0  0  0  0  0  0
  192.4230  174.1640  140.6520 C   0  0  0  0  0  2  0  0  0  0  0  0
  193.1780  173.0060  140.8770 O   0  0  0  0  0  0  0  0  0  0  0  0
  194.2230  173.3520  142.2030 S   0  0  0  0  0  0  0  0  0  0  0  0
  189.4800  172.8200  142.3980 C   0  0  0  0  0  1  0  0  0  0  0  0
  191.8400  170.9790  143.4140 C   0  0  0  0  0  2  0  0  0  0  0  0
  193.0240  170.6380  144.3010 C   0  0  0  0  0  1  0  0  0  0  0  0
  188.9150  175.7990  144.4940 C   0  0  0  0  0  3  0  0  0  0  0  0
  189.1190  177.1190  146.5210 C   0  0  0  0  0  0  0  0  0  0  0  0
  186.9630  176.8710  145.4360 C   0  0  0  0  0  0  0  0  0  0  0  0
  189.7110  176.3120  145.5300 C   0  0  0  0  0  0  0  0  0  0  0  0
  187.7480  177.3930  146.4680 C   0  0  0  0  0  3  0  0  0  0  0  0
  190.0640  177.8030  147.8350 Cl  0  0  0  0  0  0  0  0  0  0  0  0
  185.5080  177.1670  145.3880 C   0  0  0  0  0  1  0  0  0  0  0  0
  187.5480  176.0760  144.4490 C   0  0  0  0  0  3  0  0  0  0  0  0
  194.5130  174.5060  145.7530 C   0  0  0  0  0  2  0  0  0  0  0  0
  195.9040  174.5220  145.6300 O   0  0  0  0  0  1  0  0  0  0  0  0
  2 22  1  6  0  0  0
  4  6  1  0  0  0  0
  4 27  1  1  0  0  0
  5  2  1  0  0  0  0
  6  7  1  0  0  0  0
  6  1  2  0  0  0  0
  7  3  1  6  0  0  0
  7  2  1  0  0  0  0
  8  4  1  0  0  0  0
  8  5  1  1  0  0  0
  9 15  1  6  0  0  0
  9  8  1  0  0  0  0
 10 17  1  6  0  0  0
 10  9  1  0  0  0  0
 11 16  1  0  0  0  0
 11 10  1  0  0  0  0
 12 11  1  0  0  0  0
 13 14  1  0  0  0  0
 13 12  1  0  0  0  0
 14 15  1  0  0  0  0
 17 18  1  0  0  0  0
 19 22  1  0  0  0  0
 20 24  1  0  0  0  0
 21 23  2  0  0  0  0
 22 20  2  0  0  0  0
 23 20  1  0  0  0  0
 25 21  1  0  0  0  0
 26 19  2  0  0  0  0
 26 21  1  0  0  0  0
 28 27  1  0  0  0  0
M  END
>  <MODEL>
5

>  <REMARK>
 VINA RESULT:      -5.9      2.805      3.595
  Name = 
  4 active torsions:
  status: ('A' for Active; 'I' for Inactive)
    1  A    between atoms: C_1  and  N_27
    2  A    between atoms: C_2  and  C_7
    3  A    between atoms: C_10  and  C_13
    4  A    between atoms: C_16  and  C_19
                            x       y       z     vdW  Elec       q    Type
                         _______ _______ _______ _____ _____    ______ ____

>  <TORSDO>
F 4

$$$$
=
 OpenBabel11052418183D

 28 30  0  0  1  0  0  0  0  0999 V2000
  193.4110  176.7910  145.3260 O   0  0  0  0  0  0  0  0  0  0  0  0
  190.0400  175.8120  144.7400 C   0  0  1  0  0  3  0  0  0  0  0  0
  191.1980  177.4190  143.1390 C   0  0  0  0  0  1  0  0  0  0  0  0
  192.7050  174.7300  144.3920 C   0  0  2  0  0  3  0  0  0  0  0  0
  190.3090  174.3860  144.2200 C   0  0  0  0  0  2  0  0  0  0  0  0
  192.5000  176.1630  144.8110 C   0  0  0  0  0  0  0  0  0  0  0  0
  191.1830  176.8280  144.5410 C   0  0  2  0  0  3  0  0  0  0  0  0
  191.5990  174.2830  143.5160 N   0  0  2  0  0  0  0  0  0  0  0  0
  191.8150  172.9110  143.0180 C   0  0  1  0  0  3  0  0  0  0  0  0
  190.5580  172.3450  142.2900 C   0  0  1  0  0  3  0  0  0  0  0  0
  190.2440  172.8460  140.9350 N   0  0  0  0  0  0  0  0  0  0  0  0
  190.8760  174.1330  140.6550 C   0  0  0  0  0  2  0  0  0  0  0  0
  192.3130  173.9350  140.1700 C   0  0  0  0  0  2  0  0  0  0  0  0
  192.7720  172.6560  140.5070 O   0  0  0  0  0  0  0  0  0  0  0  0
  193.4230  172.7730  142.0990 S   0  0  0  0  0  0  0  0  0  0  0  0
  188.8110  173.0820  140.8940 C   0  0  0  0  0  1  0  0  0  0  0  0
  190.4410  170.8230  142.3890 C   0  0  0  0  0  2  0  0  0  0  0  0
  190.8210  170.1250  141.0950 C   0  0  0  0  0  1  0  0  0  0  0  0
  188.1080  176.0330  143.1390 C   0  0  0  0  0  3  0  0  0  0  0  0
  187.9530  177.1260  145.3010 C   0  0  0  0  0  0  0  0  0  0  0  0
  186.1310  177.3040  143.7090 C   0  0  0  0  0  0  0  0  0  0  0  0
  188.6710  176.3270  144.3900 C   0  0  0  0  0  0  0  0  0  0  0  0
  186.6860  177.6090  144.9560 C   0  0  0  0  0  3  0  0  0  0  0  0
  188.6100  177.5410  146.8770 Cl  0  0  0  0  0  0  0  0  0  0  0  0
  184.7850  177.8210  143.3510 C   0  0  0  0  0  1  0  0  0  0  0  0
  186.8430  176.5170  142.8010 C   0  0  0  0  0  3  0  0  0  0  0  0
  192.9800  173.8020  145.5890 C   0  0  0  0  0  2  0  0  0  0  0  0
  194.3330  173.4690  145.6830 O   0  0  0  0  0  1  0  0  0  0  0  0
  2 22  1  6  0  0  0
  4  6  1  0  0  0  0
  4 27  1  1  0  0  0
  5  2  1  0  0  0  0
  6  1  2  0  0  0  0
  7  3  1  6  0  0  0
  7  2  1  0  0  0  0
  7  6  1  0  0  0  0
  8  5  1  1  0  0  0
  8  4  1  0  0  0  0
  9 15  1  6  0  0  0
  9  8  1  0  0  0  0
 10 17  1  6  0  0  0
 10  9  1  0  0  0  0
 11 10  1  0  0  0  0
 12 11  1  0  0  0  0
 13 14  1  0  0  0  0
 13 12  1  0  0  0  0
 14 15  1  0  0  0  0
 16 11  1  0  0  0  0
 18 17  1  0  0  0  0
 19 22  1  0  0  0  0
 20 24  1  0  0  0  0
 21 23  2  0  0  0  0
 22 20  2  0  0  0  0
 23 20  1  0  0  0  0
 25 21  1  0  0  0  0
 26 19  2  0  0  0  0
 26 21  1  0  0  0  0
 27 28  1  0  0  0  0
M  END
>  <MODEL>
6

>  <REMARK>
 VINA RESULT:      -5.9      2.147      2.606
  Name = 
  4 active torsions:
  status: ('A' for Active; 'I' for Inactive)
    1  A    between atoms: C_1  and  N_27
    2  A    between atoms: C_2  and  C_7
    3  A    between atoms: C_10  and  C_13
    4  A    between atoms: C_16  and  C_19
                            x       y       z     vdW  Elec       q    Type
                         _______ _______ _______ _____ _____    ______ ____

>  <TORSDO>
F 4

$$$$
=
 OpenBabel11052418183D

 28 30  0  0  1  0  0  0  0  0999 V2000
  190.7640  173.1030  140.2740 O   0  0  0  0  0  0  0  0  0  0  0  0
  192.1950  173.2090  143.5310 C   0  0  1  0  0  3  0  0  0  0  0  0
  192.8790  174.9300  141.7810 C   0  0  0  0  0  1  0  0  0  0  0  0
  189.7240  173.9660  142.2220 C   0  0  2  0  0  3  0  0  0  0  0  0
  190.9850  173.7920  144.2880 C   0  0  0  0  0  2  0  0  0  0  0  0
  190.9100  173.4920  141.4220 C   0  0  0  0  0  0  0  0  0  0  0  0
  192.2800  173.5530  142.0300 C   0  0  2  0  0  3  0  0  0  0  0  0
  190.1720  174.6800  143.4390 N   0  0  2  0  0  0  0  0  0  0  0  0
  189.0340  175.2310  144.1990 C   0  0  1  0  0  3  0  0  0  0  0  0
  189.4600  175.7330  145.6130 C   0  0  1  0  0  3  0  0  0  0  0  0
  190.2120  177.0020  145.7110 N   0  0  0  0  0  0  0  0  0  0  0  0
  190.8580  177.3680  144.4530 C   0  0  0  0  0  2  0  0  0  0  0  0
  189.8790  178.1040  143.5370 C   0  0  0  0  0  2  0  0  0  0  0  0
  188.5590  177.8770  143.9460 O   0  0  0  0  0  0  0  0  0  0  0  0
  188.0510  176.4240  143.1700 S   0  0  0  0  0  0  0  0  0  0  0  0
  191.2840  176.7840  146.6670 C   0  0  0  0  0  1  0  0  0  0  0  0
  188.3370  175.6420  146.6460 C   0  0  0  0  0  2  0  0  0  0  0  0
  187.6360  176.9720  146.8630 C   0  0  0  0  0  1  0  0  0  0  0  0
  193.7250  174.4730  145.0840 C   0  0  0  0  0  3  0  0  0  0  0  0
  194.4890  172.3570  144.1720 C   0  0  0  0  0  0  0  0  0  0  0  0
  195.9150  173.6270  145.6670 C   0  0  0  0  0  0  0  0  0  0  0  0
  193.4910  173.3440  144.2820 C   0  0  0  0  0  0  0  0  0  0  0  0
  195.6940  172.5030  144.8660 C   0  0  0  0  0  3  0  0  0  0  0  0
  194.2620  170.9290  143.1730 Cl  0  0  0  0  0  0  0  0  0  0  0  0
  197.1980  173.7750  146.4010 C   0  0  0  0  0  1  0  0  0  0  0  0
  194.9300  174.6120  145.7740 C   0  0  0  0  0  3  0  0  0  0  0  0
  188.7070  172.8410  142.4850 C   0  0  0  0  0  2  0  0  0  0  0  0
  187.5800  172.9650  141.6690 O   0  0  0  0  0  1  0  0  0  0  0  0
  1  6  2  0  0  0  0
  2 22  1  1  0  0  0
  2  5  1  0  0  0  0
  4 27  1  1  0  0  0
  4  8  1  0  0  0  0
  6  7  1  0  0  0  0
  6  4  1  0  0  0  0
  7  3  1  1  0  0  0
  7  2  1  0  0  0  0
  8  9  1  0  0  0  0
  8  5  1  1  0  0  0
  9 15  1  6  0  0  0
  9 10  1  0  0  0  0
 10 11  1  0  0  0  0
 10 17  1  1  0  0  0
 11 16  1  0  0  0  0
 12 11  1  0  0  0  0
 13 14  1  0  0  0  0
 13 12  1  0  0  0  0
 15 14  1  0  0  0  0
 17 18  1  0  0  0  0
 19 26  1  0  0  0  0
 20 22  1  0  0  0  0
 20 23  2  0  0  0  0
 21 26  2  0  0  0  0
 21 25  1  0  0  0  0
 22 19  2  0  0  0  0
 23 21  1  0  0  0  0
 24 20  1  0  0  0  0
 28 27  1  0  0  0  0
M  END
>  <MODEL>
7

>  <REMARK>
 VINA RESULT:      -5.9      3.658      7.386
  Name = 
  4 active torsions:
  status: ('A' for Active; 'I' for Inactive)
    1  A    between atoms: C_1  and  N_27
    2  A    between atoms: C_2  and  C_7
    3  A    between atoms: C_10  and  C_13
    4  A    between atoms: C_16  and  C_19
                            x       y       z     vdW  Elec       q    Type
                         _______ _______ _______ _____ _____    ______ ____

>  <TORSDO>
F 4

$$$$
=
 OpenBabel11052418183D

 28 30  0  0  1  0  0  0  0  0999 V2000
  190.2250  173.5410  139.9190 O   0  0  0  0  0  0  0  0  0  0  0  0
  191.2660  172.5040  143.1600 C   0  0  1  0  0  3  0  0  0  0  0  0
  192.8470  173.8490  141.6820 C   0  0  0  0  0  1  0  0  0  0  0  0
  189.6080  174.5590  141.9690 C   0  0  2  0  0  3  0  0  0  0  0  0
  190.4540  173.5170  143.9910 C   0  0  0  0  0  2  0  0  0  0  0  0
  190.4570  173.6570  141.1110 C   0  0  0  0  0  0  0  0  0  0  0  0
  191.6240  172.9420  141.7260 C   0  0  2  0  0  3  0  0  0  0  0  0
  190.2570  174.7920  143.2790 N   0  0  2  0  0  0  0  0  0  0  0  0
  189.4920  175.7410  144.1080 C   0  0  1  0  0  3  0  0  0  0  0  0
  190.0580  175.8460  145.5570 C   0  0  1  0  0  3  0  0  0  0  0  0
  191.3180  176.5920  145.7680 N   0  0  0  0  0  0  0  0  0  0  0  0
  192.1000  176.7260  144.5410 C   0  0  0  0  0  2  0  0  0  0  0  0
  191.6150  177.9200  143.7180 C   0  0  0  0  0  2  0  0  0  0  0  0
  190.3320  178.3070  144.1250 O   0  0  0  0  0  0  0  0  0  0  0  0
  189.2230  177.3490  143.2180 S   0  0  0  0  0  0  0  0  0  0  0  0
  192.1270  175.8020  146.6800 C   0  0  0  0  0  1  0  0  0  0  0  0
  188.9930  176.1990  146.5950 C   0  0  0  0  0  2  0  0  0  0  0  0
  188.6500  175.0270  147.4990 C   0  0  0  0  0  1  0  0  0  0  0  0
  193.1110  172.6250  144.8710 C   0  0  0  0  0  3  0  0  0  0  0  0
  192.7620  170.5340  143.6890 C   0  0  0  0  0  0  0  0  0  0  0  0
  194.5260  170.7210  145.3440 C   0  0  0  0  0  0  0  0  0  0  0  0
  192.3960  171.8730  143.9260 C   0  0  0  0  0  0  0  0  0  0  0  0
  193.8240  169.9650  144.4000 C   0  0  0  0  0  3  0  0  0  0  0  0
  191.9150  169.5450  142.5080 Cl  0  0  0  0  0  0  0  0  0  0  0  0
  195.6520  170.1080  146.0950 C   0  0  0  0  0  1  0  0  0  0  0  0
  194.1700  172.0500  145.5780 C   0  0  0  0  0  3  0  0  0  0  0  0
  188.1490  174.0770  142.0620 C   0  0  0  0  0  2  0  0  0  0  0  0
  188.0470  172.7000  141.8500 O   0  0  0  0  0  1  0  0  0  0  0  0
  1  6  2  0  0  0  0
  2 22  1  1  0  0  0
  2  5  1  0  0  0  0
  4 27  1  1  0  0  0
  4  8  1  0  0  0  0
  6  7  1  0  0  0  0
  6  4  1  0  0  0  0
  7  3  1  1  0  0  0
  7  2  1  0  0  0  0
  8  5  1  1  0  0  0
  8  9  1  0  0  0  0
  9 15  1  6  0  0  0
  9 10  1  0  0  0  0
 10 11  1  0  0  0  0
 10 17  1  1  0  0  0
 11 16  1  0  0  0  0
 12 11  1  0  0  0  0
 13 14  1  0  0  0  0
 13 12  1  0  0  0  0
 15 14  1  0  0  0  0
 17 18  1  0  0  0  0
 19 26  1  0  0  0  0
 20 22  1  0  0  0  0
 20 23  2  0  0  0  0
 21 26  2  0  0  0  0
 21 25  1  0  0  0  0
 22 19  2  0  0  0  0
 23 21  1  0  0  0  0
 24 20  1  0  0  0  0
 28 27  1  0  0  0  0
M  END
>  <MODEL>
8

>  <REMARK>
 VINA RESULT:      -5.8      3.642      7.372
  Name = 
  4 active torsions:
  status: ('A' for Active; 'I' for Inactive)
    1  A    between atoms: C_1  and  N_27
    2  A    between atoms: C_2  and  C_7
    3  A    between atoms: C_10  and  C_13
    4  A    between atoms: C_16  and  C_19
                            x       y       z     vdW  Elec       q    Type
                         _______ _______ _______ _____ _____    ______ ____

>  <TORSDO>
F 4

$$$$
=
 OpenBabel11052418183D

 28 30  0  0  1  0  0  0  0  0999 V2000
  192.4550  178.2020  142.7600 O   0  0  0  0  0  0  0  0  0  0  0  0
  189.8130  176.5540  144.4840 C   0  0  1  0  0  3  0  0  0  0  0  0
  189.3140  177.9190  142.3920 C   0  0  0  0  0  1  0  0  0  0  0  0
  191.9420  175.8910  142.6340 C   0  0  2  0  0  3  0  0  0  0  0  0
  190.1100  175.1130  144.0220 C   0  0  0  0  0  2  0  0  0  0  0  0
  191.6340  177.3250  142.9770 C   0  0  0  0  0  0  0  0  0  0  0  0
  190.2870  177.6750  143.5370 C   0  0  2  0  0  3  0  0  0  0  0  0
  190.7100  175.0710  142.6780 N   0  0  2  0  0  0  0  0  0  0  0  0
  190.9650  173.6790  142.2630 C   0  0  1  0  0  3  0  0  0  0  0  0
  189.7260  172.7610  142.4930 C   0  0  1  0  0  3  0  0  0  0  0  0
  188.5770  172.8840  141.5700 N   0  0  0  0  0  0  0  0  0  0  0  0
  188.5640  174.1630  140.8620 C   0  0  0  0  0  2  0  0  0  0  0  0
  189.4590  174.1040  139.6240 C   0  0  0  0  0  2  0  0  0  0  0  0
  190.3520  173.0290  139.7150 O   0  0  0  0  0  0  0  0  0  0  0  0
  191.7300  173.6090  140.5720 S   0  0  0  0  0  0  0  0  0  0  0  0
  187.3760  172.8610  142.3870 C   0  0  0  0  0  1  0  0  0  0  0  0
  190.1000  171.3030  142.7640 C   0  0  0  0  0  2  0  0  0  0  0  0
  191.4580  171.1650  143.4290 C   0  0  0  0  0  1  0  0  0  0  0  0
  187.3110  176.4150  144.2300 C   0  0  0  0  0  3  0  0  0  0  0  0
  188.2190  177.2420  146.3240 C   0  0  0  0  0  0  0  0  0  0  0  0
  185.8190  177.0890  146.0100 C   0  0  0  0  0  0  0  0  0  0  0  0
  188.4220  176.7340  145.0260 C   0  0  0  0  0  0  0  0  0  0  0  0
  186.9190  177.4150  146.8090 C   0  0  0  0  0  3  0  0  0  0  0  0
  189.5690  177.6720  147.3630 Cl  0  0  0  0  0  0  0  0  0  0  0  0
  184.4410  177.2760  146.5340 C   0  0  0  0  0  1  0  0  0  0  0  0
  186.0150  176.5900  144.7210 C   0  0  0  0  0  3  0  0  0  0  0  0
  193.1080  175.3270  143.4660 C   0  0  0  0  0  2  0  0  0  0  0  0
  194.3460  175.7100  142.9420 O   0  0  0  0  0  1  0  0  0  0  0  0
  1  6  2  0  0  0  0
  2 22  1  6  0  0  0
  4  8  1  0  0  0  0
  4  6  1  0  0  0  0
  4 27  1  1  0  0  0
  5  2  1  0  0  0  0
  6  7  1  0  0  0  0
  7  3  1  6  0  0  0
  7  2  1  0  0  0  0
  8  5  1  1  0  0  0
  9 15  1  6  0  0  0
  9 10  1  0  0  0  0
  9  8  1  0  0  0  0
 10 17  1  6  0  0  0
 11 16  1  0  0  0  0
 11 10  1  0  0  0  0
 12 11  1  0  0  0  0
 13 14  1  0  0  0  0
 13 12  1  0  0  0  0
 14 15  1  0  0  0  0
 17 18  1  0  0  0  0
 19 26  2  0  0  0  0
 19 22  1  0  0  0  0
 20 23  1  0  0  0  0
 20 24  1  0  0  0  0
 21 25  1  0  0  0  0
 21 23  2  0  0  0  0
 22 20  2  0  0  0  0
 26 21  1  0  0  0  0
 28 27  1  0  0  0  0
M  END
>  <MODEL>
9

>  <REMARK>
 VINA RESULT:      -5.6      2.797      3.631
  Name = 
  4 active torsions:
  status: ('A' for Active; 'I' for Inactive)
    1  A    between atoms: C_1  and  N_27
    2  A    between atoms: C_2  and  C_7
    3  A    between atoms: C_10  and  C_13
    4  A    between atoms: C_16  and  C_19
                            x       y       z     vdW  Elec       q    Type
                         _______ _______ _______ _____ _____    ______ ____

>  <TORSDO>
F 4

$$$$
