=
 OpenBabel11052418063D

 28 31  0  0  1  0  0  0  0  0999 V2000
  186.4160  178.8540  143.5580 C   0  0  1  0  0  3  0  0  0  0  0  0
  185.7780  177.8250  148.3060 C   0  0  0  0  0  1  0  0  0  0  0  0
  188.3980  176.0380  145.2040 C   0  0  2  0  0  3  0  0  0  0  0  0
  186.7150  177.6610  147.1250 C   0  0  1  0  0  3  0  0  0  0  0  0
  188.1520  177.3930  144.5490 C   0  0  0  0  0  2  0  0  0  0  0  0
  185.7280  179.5440  145.7590 C   0  0  0  0  0  2  0  0  0  0  0  0
  187.2010  176.2180  147.0880 C   0  0  0  0  0  2  0  0  0  0  0  0
  185.9910  178.0510  145.8260 C   0  0  1  0  0  3  0  0  0  0  0  0
  188.5100  176.1790  146.5940 O   0  0  0  0  0  0  0  0  0  0  0  0
  185.5260  179.8410  144.2910 C   0  0  0  0  0  2  0  0  0  0  0  0
  186.6550  177.6740  144.4870 C   0  0  1  0  0  3  0  0  0  0  0  0
  190.7470  175.3430  145.4000 C   0  0  0  0  0  3  0  0  0  0  0  0
  190.5250  175.5910  142.3060 C   0  0  0  0  0  2  0  0  0  0  0  0
  192.5650  175.4330  143.7370 C   0  0  0  0  0  0  0  0  0  0  0  0
  189.6340  175.3880  144.6410 C   0  0  0  0  0  0  0  0  0  0  0  0
  188.2280  174.7100  142.6450 C   0  0  0  0  0  1  0  0  0  0  0  0
  191.9720  175.1160  142.3990 C   0  0  0  0  0  2  0  0  0  0  0  0
  189.6240  174.7940  143.2440 C   0  0  1  0  0  3  0  0  0  0  0  0
  193.2850  176.4830  143.8750 N   0  0  0  0  0  2  0  0  0  0  0  0
  192.0410  174.7290  144.9490 C   0  0  0  0  0  2  0  0  0  0  0  0
  185.8310  178.4300  142.2430 C   0  0  0  0  0  0  0  0  0  0  0  0
  184.4390  178.4590  142.1040 C   0  0  0  0  0  3  0  0  0  0  0  0
  186.0180  177.6450  139.9460 C   0  0  0  0  0  0  0  0  0  0  0  0
  183.8380  178.0840  140.9010 C   0  0  0  0  0  3  0  0  0  0  0  0
  188.0140  177.9840  141.2570 O   0  0  0  0  0  1  0  0  0  0  0  0
  186.6270  178.0200  141.1510 C   0  0  0  0  0  0  0  0  0  0  0  0
  186.7750  177.2500  138.8930 F   0  0  0  0  0  0  0  0  0  0  0  0
  184.6270  177.6770  139.8230 C   0  0  0  0  0  3  0  0  0  0  0  0
  1 21  1  6  0  0  0
  1 10  1  0  0  0  0
  1 11  1  0  0  0  0
  3 15  1  6  0  0  0
  3  9  1  0  0  0  0
  4  2  1  1  0  0  0
  5  3  1  0  0  0  0
  7  4  1  0  0  0  0
  8  6  1  6  0  0  0
  8  4  1  0  0  0  0
  9  7  1  0  0  0  0
 10  6  1  0  0  0  0
 11  5  1  1  0  0  0
 11  8  1  0  0  0  0
 13 17  1  0  0  0  0
 13 18  1  0  0  0  0
 14 19  2  0  0  0  0
 14 20  1  0  0  0  0
 15 12  2  0  0  0  0
 17 14  1  0  0  0  0
 18 16  1  6  0  0  0
 18 15  1  0  0  0  0
 20 12  1  0  0  0  0
 22 21  1  0  0  0  0
 23 26  1  0  0  0  0
 24 22  2  0  0  0  0
 26 25  1  0  0  0  0
 26 21  2  0  0  0  0
 27 23  1  0  0  0  0
 28 23  2  0  0  0  0
 28 24  1  0  0  0  0
M  END
>  <MODEL>
1

>  <REMARK>
 VINA RESULT:      -8.3      0.000      0.000
  Name = 
  2 active torsions:
  status: ('A' for Active; 'I' for Inactive)
    1  A    between atoms: C_1  and  C_2
    2  A    between atoms: C_10  and  C_13
                            x       y       z     vdW  Elec       q    Type
                         _______ _______ _______ _____ _____    ______ ____

>  <TORSDO>
F 2

$$$$
=
 OpenBabel11052418063D

 28 31  0  0  1  0  0  0  0  0999 V2000
  187.5740  176.4410  146.4030 C   0  0  1  0  0  3  0  0  0  0  0  0
  184.3420  179.3430  144.1360 C   0  0  0  0  0  1  0  0  0  0  0  0
  187.6950  176.8710  142.6120 C   0  0  2  0  0  3  0  0  0  0  0  0
  185.3270  178.2070  143.9400 C   0  0  1  0  0  3  0  0  0  0  0  0
  187.4710  176.1630  143.9440 C   0  0  0  0  0  2  0  0  0  0  0  0
  185.4360  177.5470  146.3750 C   0  0  0  0  0  2  0  0  0  0  0  0
  186.1480  178.4870  142.6870 C   0  0  0  0  0  2  0  0  0  0  0  0
  186.2180  178.0670  145.1840 C   0  0  1  0  0  3  0  0  0  0  0  0
  186.4720  177.2780  142.0620 O   0  0  0  0  0  0  0  0  0  0  0  0
  186.4780  176.9730  147.3080 C   0  0  0  0  0  2  0  0  0  0  0  0
  187.4750  177.1820  145.0790 C   0  0  1  0  0  3  0  0  0  0  0  0
  187.7840  175.5220  140.5590 C   0  0  0  0  0  3  0  0  0  0  0  0
  190.0090  174.1120  142.2160 C   0  0  0  0  0  2  0  0  0  0  0  0
  188.8370  173.3310  140.1540 C   0  0  0  0  0  0  0  0  0  0  0  0
  188.4320  175.9780  141.6490 C   0  0  0  0  0  0  0  0  0  0  0  0
  190.5140  176.4020  143.0300 C   0  0  0  0  0  1  0  0  0  0  0  0
  190.1140  173.2890  140.9350 C   0  0  0  0  0  2  0  0  0  0  0  0
  189.8810  175.5990  141.9040 C   0  0  1  0  0  3  0  0  0  0  0  0
  187.9970  172.3700  140.2660 N   0  0  0  0  0  2  0  0  0  0  0  0
  188.4070  174.6220  139.5320 C   0  0  0  0  0  2  0  0  0  0  0  0
  188.9350  176.5680  147.0220 C   0  0  0  0  0  0  0  0  0  0  0  0
  189.2980  177.8080  147.5580 C   0  0  0  0  0  3  0  0  0  0  0  0
  191.0960  175.6720  147.6940 C   0  0  0  0  0  0  0  0  0  0  0  0
  190.5480  177.9840  148.1560 C   0  0  0  0  0  3  0  0  0  0  0  0
  189.5100  174.2440  146.5720 O   0  0  0  0  0  1  0  0  0  0  0  0
  189.8440  175.4900  147.0930 C   0  0  0  0  0  0  0  0  0  0  0  0
  191.9760  174.6430  147.7660 F   0  0  0  0  0  0  0  0  0  0  0  0
  191.4460  176.9170  148.2230 C   0  0  0  0  0  3  0  0  0  0  0  0
  1 21  1  1  0  0  0
  1 10  1  0  0  0  0
  3 15  1  6  0  0  0
  3  5  1  0  0  0  0
  4  2  1  1  0  0  0
  4  8  1  0  0  0  0
  6 10  1  0  0  0  0
  7  4  1  0  0  0  0
  8  6  1  1  0  0  0
  9  3  1  0  0  0  0
  9  7  1  0  0  0  0
 11  5  1  6  0  0  0
 11  8  1  0  0  0  0
 11  1  1  0  0  0  0
 12 15  2  0  0  0  0
 14 19  2  0  0  0  0
 14 17  1  0  0  0  0
 15 18  1  0  0  0  0
 17 13  1  0  0  0  0
 18 13  1  0  0  0  0
 18 16  1  1  0  0  0
 20 14  1  0  0  0  0
 20 12  1  0  0  0  0
 21 26  2  0  0  0  0
 21 22  1  0  0  0  0
 22 24  2  0  0  0  0
 23 27  1  0  0  0  0
 23 28  2  0  0  0  0
 24 28  1  0  0  0  0
 25 26  1  0  0  0  0
 26 23  1  0  0  0  0
M  END
>  <MODEL>
2

>  <REMARK>
 VINA RESULT:      -7.6      3.128      5.782
  Name = 
  2 active torsions:
  status: ('A' for Active; 'I' for Inactive)
    1  A    between atoms: C_1  and  C_2
    2  A    between atoms: C_10  and  C_13
                            x       y       z     vdW  Elec       q    Type
                         _______ _______ _______ _____ _____    ______ ____

>  <TORSDO>
F 2

$$$$
=
 OpenBabel11052418063D

 28 31  0  0  1  0  0  0  0  0999 V2000
  190.6270  173.1670  143.2740 C   0  0  1  0  0  3  0  0  0  0  0  0
  193.9400  175.2490  146.2240 C   0  0  0  0  0  1  0  0  0  0  0  0
  189.9700  176.6090  144.7880 C   0  0  2  0  0  3  0  0  0  0  0  0
  192.4840  175.2650  145.8020 C   0  0  1  0  0  3  0  0  0  0  0  0
  189.7970  175.1100  144.5660 C   0  0  0  0  0  2  0  0  0  0  0  0
  192.4940  172.9550  144.7800 C   0  0  0  0  0  2  0  0  0  0  0  0
  192.0520  176.7120  145.6040 C   0  0  0  0  0  2  0  0  0  0  0  0
  192.3020  174.4370  144.5200 C   0  0  1  0  0  3  0  0  0  0  0  0
  190.7050  176.8490  145.9570 O   0  0  0  0  0  0  0  0  0  0  0  0
  191.7900  172.2620  143.6350 C   0  0  0  0  0  2  0  0  0  0  0  0
  190.9700  174.5680  143.7560 C   0  0  1  0  0  3  0  0  0  0  0  0
  188.0760  177.5130  146.0660 C   0  0  0  0  0  3  0  0  0  0  0  0
  186.6570  176.9280  143.3590 C   0  0  0  0  0  2  0  0  0  0  0  0
  185.6580  177.4020  145.5970 C   0  0  0  0  0  0  0  0  0  0  0  0
  188.6320  177.2980  144.8580 C   0  0  0  0  0  0  0  0  0  0  0  0
  188.8110  177.6460  142.3540 C   0  0  0  0  0  1  0  0  0  0  0  0
  185.4760  177.5280  144.1170 C   0  0  0  0  0  2  0  0  0  0  0  0
  187.9270  177.7410  143.5880 C   0  0  1  0  0  3  0  0  0  0  0  0
  185.0950  176.4350  146.2220 N   0  0  0  0  0  2  0  0  0  0  0  0
  186.7460  178.1820  146.2660 C   0  0  0  0  0  2  0  0  0  0  0  0
  190.3140  173.1340  141.8070 C   0  0  0  0  0  0  0  0  0  0  0  0
  191.3400  173.4490  140.9100 C   0  0  0  0  0  3  0  0  0  0  0  0
  188.8150  172.7660  139.9250 C   0  0  0  0  0  0  0  0  0  0  0  0
  191.1110  173.4260  139.5330 C   0  0  0  0  0  3  0  0  0  0  0  0
  188.0000  172.4660  142.1740 O   0  0  0  0  0  1  0  0  0  0  0  0
  189.0400  172.7870  141.3070 C   0  0  0  0  0  0  0  0  0  0  0  0
  187.5950  172.4350  139.4360 F   0  0  0  0  0  0  0  0  0  0  0  0
  189.8490  173.0850  139.0410 C   0  0  0  0  0  3  0  0  0  0  0  0
  1 21  1  6  0  0  0
  1 10  1  0  0  0  0
  1 11  1  0  0  0  0
  3 15  1  1  0  0  0
  3  9  1  0  0  0  0
  4  2  1  6  0  0  0
  5  3  1  0  0  0  0
  7  4  1  0  0  0  0
  7  9  1  0  0  0  0
  8  6  1  1  0  0  0
  8  4  1  0  0  0  0
 10  6  1  0  0  0  0
 11  8  1  0  0  0  0
 11  5  1  1  0  0  0
 12 20  1  0  0  0  0
 13 18  1  0  0  0  0
 13 17  1  0  0  0  0
 14 19  2  0  0  0  0
 14 20  1  0  0  0  0
 15 12  2  0  0  0  0
 17 14  1  0  0  0  0
 18 16  1  6  0  0  0
 18 15  1  0  0  0  0
 22 21  2  0  0  0  0
 23 26  2  0  0  0  0
 24 22  1  0  0  0  0
 26 21  1  0  0  0  0
 26 25  1  0  0  0  0
 27 23  1  0  0  0  0
 28 24  2  0  0  0  0
 28 23  1  0  0  0  0
M  END
>  <MODEL>
3

>  <REMARK>
 VINA RESULT:      -7.5      2.904      6.341
  Name = 
  2 active torsions:
  status: ('A' for Active; 'I' for Inactive)
    1  A    between atoms: C_1  and  C_2
    2  A    between atoms: C_10  and  C_13
                            x       y       z     vdW  Elec       q    Type
                         _______ _______ _______ _____ _____    ______ ____

>  <TORSDO>
F 2

$$$$
=
 OpenBabel11052418063D

 28 31  0  0  1  0  0  0  0  0999 V2000
  187.5340  177.8660  142.8860 C   0  0  1  0  0  3  0  0  0  0  0  0
  185.0490  178.2740  147.0890 C   0  0  0  0  0  1  0  0  0  0  0  0
  188.9160  176.3380  146.0990 C   0  0  2  0  0  3  0  0  0  0  0  0
  186.4120  177.9920  146.4860 C   0  0  1  0  0  3  0  0  0  0  0  0
  188.8280  177.3010  144.9190 C   0  0  0  0  0  2  0  0  0  0  0  0
  185.9050  179.0170  144.2330 C   0  0  0  0  0  2  0  0  0  0  0  0
  187.0190  176.7910  147.1990 C   0  0  0  0  0  2  0  0  0  0  0  0
  186.2730  177.7460  144.9740 C   0  0  1  0  0  3  0  0  0  0  0  0
  188.4100  176.9380  147.2590 O   0  0  0  0  0  0  0  0  0  0  0  0
  186.3160  178.7690  142.8000 C   0  0  0  0  0  2  0  0  0  0  0  0
  187.4790  177.1490  144.2250 C   0  0  1  0  0  3  0  0  0  0  0  0
  191.1800  176.6990  146.9840 C   0  0  0  0  0  3  0  0  0  0  0  0
  191.8250  174.7170  144.6740 C   0  0  0  0  0  2  0  0  0  0  0  0
  193.3700  176.1820  145.9790 C   0  0  0  0  0  0  0  0  0  0  0  0
  190.3360  175.8870  146.3170 C   0  0  0  0  0  0  0  0  0  0  0  0
  189.6650  173.6650  145.3000 C   0  0  0  0  0  1  0  0  0  0  0  0
  193.2340  174.8900  145.2350 C   0  0  0  0  0  2  0  0  0  0  0  0
  190.8060  174.5410  145.7950 C   0  0  1  0  0  3  0  0  0  0  0  0
  193.8760  177.2000  145.3880 N   0  0  0  0  0  2  0  0  0  0  0  0
  192.6180  176.3660  147.2590 C   0  0  0  0  0  2  0  0  0  0  0  0
  187.6140  176.9090  141.7330 C   0  0  0  0  0  0  0  0  0  0  0  0
  188.3620  175.7390  141.9030 C   0  0  0  0  0  3  0  0  0  0  0  0
  187.0660  176.2000  139.4700 C   0  0  0  0  0  0  0  0  0  0  0  0
  188.4660  174.8070  140.8690 C   0  0  0  0  0  3  0  0  0  0  0  0
  186.2040  178.2910  140.3050 O   0  0  0  0  0  1  0  0  0  0  0  0
  186.9590  177.1390  140.5030 C   0  0  0  0  0  0  0  0  0  0  0  0
  186.4410  176.4120  138.2860 F   0  0  0  0  0  0  0  0  0  0  0  0
  187.8190  175.0370  139.6540 C   0  0  0  0  0  3  0  0  0  0  0  0
  1 21  1  6  0  0  0
  1 11  1  0  0  0  0
  3 15  1  1  0  0  0
  3  9  1  0  0  0  0
  4  2  1  1  0  0  0
  4  7  1  0  0  0  0
  5  3  1  0  0  0  0
  7  9  1  0  0  0  0
  8  6  1  6  0  0  0
  8  4  1  0  0  0  0
 10  1  1  0  0  0  0
 10  6  1  0  0  0  0
 11  5  1  1  0  0  0
 11  8  1  0  0  0  0
 12 20  1  0  0  0  0
 13 17  1  0  0  0  0
 13 18  1  0  0  0  0
 14 20  1  0  0  0  0
 15 12  2  0  0  0  0
 17 14  1  0  0  0  0
 18 16  1  6  0  0  0
 18 15  1  0  0  0  0
 19 14  2  0  0  0  0
 21 22  1  0  0  0  0
 23 28  2  0  0  0  0
 23 26  1  0  0  0  0
 24 22  2  0  0  0  0
 25 26  1  0  0  0  0
 26 21  2  0  0  0  0
 27 23  1  0  0  0  0
 28 24  1  0  0  0  0
M  END
>  <MODEL>
4

>  <REMARK>
 VINA RESULT:      -7.4      1.535      2.443
  Name = 
  2 active torsions:
  status: ('A' for Active; 'I' for Inactive)
    1  A    between atoms: C_1  and  C_2
    2  A    between atoms: C_10  and  C_13
                            x       y       z     vdW  Elec       q    Type
                         _______ _______ _______ _____ _____    ______ ____

>  <TORSDO>
F 2

$$$$
=
 OpenBabel11052418063D

 28 31  0  0  1  0  0  0  0  0999 V2000
  188.0780  176.1470  142.4020 C   0  0  1  0  0  3  0  0  0  0  0  0
  185.8510  177.8310  146.4280 C   0  0  0  0  0  1  0  0  0  0  0  0
  190.0150  176.5040  145.6720 C   0  0  2  0  0  3  0  0  0  0  0  0
  187.1970  177.6020  145.7700 C   0  0  1  0  0  3  0  0  0  0  0  0
  189.6040  176.8120  144.2350 C   0  0  0  0  0  2  0  0  0  0  0  0
  186.2960  177.4070  143.4180 C   0  0  0  0  0  2  0  0  0  0  0  0
  188.1420  176.9900  146.7960 C   0  0  0  0  0  2  0  0  0  0  0  0
  187.0300  176.6960  144.5390 C   0  0  1  0  0  3  0  0  0  0  0  0
  189.4460  177.4330  146.5530 O   0  0  0  0  0  0  0  0  0  0  0  0
  186.6650  176.6460  142.1640 C   0  0  0  0  0  2  0  0  0  0  0  0
  188.2990  176.0950  143.9050 C   0  0  1  0  0  3  0  0  0  0  0  0
  192.2530  177.1650  144.8990 C   0  0  0  0  0  3  0  0  0  0  0  0
  192.9740  174.5620  146.4440 C   0  0  0  0  0  2  0  0  0  0  0  0
  194.3410  175.8590  144.8060 C   0  0  0  0  0  0  0  0  0  0  0  0
  191.5150  176.5000  145.8090 C   0  0  0  0  0  0  0  0  0  0  0  0
  191.1930  175.2910  148.0130 C   0  0  0  0  0  1  0  0  0  0  0  0
  194.3780  174.9760  146.0140 C   0  0  0  0  0  2  0  0  0  0  0  0
  192.1810  175.7600  146.9560 C   0  0  1  0  0  3  0  0  0  0  0  0
  194.5330  175.3490  143.6460 N   0  0  0  0  0  2  0  0  0  0  0  0
  193.7520  177.2290  144.9240 C   0  0  0  0  0  2  0  0  0  0  0  0
  188.3300  174.8200  141.7460 C   0  0  0  0  0  0  0  0  0  0  0  0
  188.7050  173.7470  142.5620 C   0  0  0  0  0  3  0  0  0  0  0  0
  188.4330  173.3530  139.8080 C   0  0  0  0  0  0  0  0  0  0  0  0
  188.9440  172.4870  142.0090 C   0  0  0  0  0  3  0  0  0  0  0  0
  187.8170  175.6660  139.5200 O   0  0  0  0  0  1  0  0  0  0  0  0
  188.1920  174.6190  140.3560 C   0  0  0  0  0  0  0  0  0  0  0  0
  188.3030  173.1500  138.4740 F   0  0  0  0  0  0  0  0  0  0  0  0
  188.8090  172.2900  140.6340 C   0  0  0  0  0  3  0  0  0  0  0  0
  1 21  1  1  0  0  0
  1 11  1  0  0  0  0
  3 15  1  6  0  0  0
  3  9  1  0  0  0  0
  4  2  1  1  0  0  0
  4  7  1  0  0  0  0
  5  3  1  0  0  0  0
  8  6  1  6  0  0  0
  8  4  1  0  0  0  0
  9  7  1  0  0  0  0
 10  1  1  0  0  0  0
 10  6  1  0  0  0  0
 11  5  1  6  0  0  0
 11  8  1  0  0  0  0
 12 20  1  0  0  0  0
 12 15  2  0  0  0  0
 13 18  1  0  0  0  0
 14 20  1  0  0  0  0
 14 17  1  0  0  0  0
 15 18  1  0  0  0  0
 17 13  1  0  0  0  0
 18 16  1  1  0  0  0
 19 14  2  0  0  0  0
 21 22  1  0  0  0  0
 23 26  1  0  0  0  0
 23 28  2  0  0  0  0
 24 22  2  0  0  0  0
 25 26  1  0  0  0  0
 26 21  2  0  0  0  0
 27 23  1  0  0  0  0
 28 24  1  0  0  0  0
M  END
>  <MODEL>
5

>  <REMARK>
 VINA RESULT:      -7.3      2.146      3.903
  Name = 
  2 active torsions:
  status: ('A' for Active; 'I' for Inactive)
    1  A    between atoms: C_1  and  C_2
    2  A    between atoms: C_10  and  C_13
                            x       y       z     vdW  Elec       q    Type
                         _______ _______ _______ _____ _____    ______ ____

>  <TORSDO>
F 2

$$$$
=
 OpenBabel11052418063D

 28 31  0  0  1  0  0  0  0  0999 V2000
  189.3830  175.0730  141.8330 C   0  0  1  0  0  3  0  0  0  0  0  0
  186.5460  177.9540  144.6010 C   0  0  0  0  0  1  0  0  0  0  0  0
  190.7000  176.4880  145.1250 C   0  0  2  0  0  3  0  0  0  0  0  0
  187.9770  177.5350  144.3220 C   0  0  1  0  0  3  0  0  0  0  0  0
  190.5780  176.3090  143.6150 C   0  0  0  0  0  2  0  0  0  0  0  0
  187.5160  176.5800  142.0290 C   0  0  0  0  0  2  0  0  0  0  0  0
  188.6800  177.2970  145.6520 C   0  0  0  0  0  2  0  0  0  0  0  0
  187.9900  176.2770  143.4380 C   0  0  1  0  0  3  0  0  0  0  0  0
  190.0300  177.6480  145.5360 O   0  0  0  0  0  0  0  0  0  0  0  0
  188.0680  175.4570  141.1810 C   0  0  0  0  0  2  0  0  0  0  0  0
  189.3200  175.5140  143.2870 C   0  0  1  0  0  3  0  0  0  0  0  0
  193.0070  177.2710  144.8080 C   0  0  0  0  0  3  0  0  0  0  0  0
  193.5530  174.6420  146.3810 C   0  0  0  0  0  2  0  0  0  0  0  0
  195.1370  176.0580  145.0700 C   0  0  0  0  0  0  0  0  0  0  0  0
  192.1460  176.5410  145.5430 C   0  0  0  0  0  0  0  0  0  0  0  0
  191.4760  175.2340  147.6080 C   0  0  0  0  0  1  0  0  0  0  0  0
  194.9910  175.1310  146.2360 C   0  0  0  0  0  2  0  0  0  0  0  0
  192.6210  175.7850  146.7710 C   0  0  1  0  0  3  0  0  0  0  0  0
  195.5670  175.6030  143.9530 N   0  0  0  0  0  2  0  0  0  0  0  0
  194.4710  177.3970  145.1180 C   0  0  0  0  0  2  0  0  0  0  0  0
  189.6790  173.6080  141.6980 C   0  0  0  0  0  0  0  0  0  0  0  0
  189.5220  172.8000  142.8290 C   0  0  0  0  0  3  0  0  0  0  0  0
  190.3430  171.6460  140.4190 C   0  0  0  0  0  0  0  0  0  0  0  0
  189.7740  171.4280  142.7620 C   0  0  0  0  0  3  0  0  0  0  0  0
  190.2530  173.7990  139.3380 O   0  0  0  0  0  1  0  0  0  0  0  0
  190.0920  173.0230  140.4810 C   0  0  0  0  0  0  0  0  0  0  0  0
  190.7410  171.0760  139.2550 F   0  0  0  0  0  0  0  0  0  0  0  0
  190.1850  170.8520  141.5570 C   0  0  0  0  0  3  0  0  0  0  0  0
  1 21  1  1  0  0  0
  1 11  1  0  0  0  0
  3  9  1  0  0  0  0
  3 15  1  6  0  0  0
  4  2  1  1  0  0  0
  4  7  1  0  0  0  0
  5  3  1  0  0  0  0
  8  6  1  6  0  0  0
  8  4  1  0  0  0  0
  9  7  1  0  0  0  0
 10  1  1  0  0  0  0
 10  6  1  0  0  0  0
 11  8  1  0  0  0  0
 11  5  1  6  0  0  0
 12 20  1  0  0  0  0
 12 15  2  0  0  0  0
 13 18  1  0  0  0  0
 14 20  1  0  0  0  0
 14 17  1  0  0  0  0
 15 18  1  0  0  0  0
 17 13  1  0  0  0  0
 18 16  1  6  0  0  0
 19 14  2  0  0  0  0
 21 22  1  0  0  0  0
 23 26  1  0  0  0  0
 23 28  2  0  0  0  0
 24 22  2  0  0  0  0
 25 26  1  0  0  0  0
 26 21  2  0  0  0  0
 27 23  1  0  0  0  0
 28 24  1  0  0  0  0
M  END
>  <MODEL>
6

>  <REMARK>
 VINA RESULT:      -7.3      2.844      5.169
  Name = 
  2 active torsions:
  status: ('A' for Active; 'I' for Inactive)
    1  A    between atoms: C_1  and  C_2
    2  A    between atoms: C_10  and  C_13
                            x       y       z     vdW  Elec       q    Type
                         _______ _______ _______ _____ _____    ______ ____

>  <TORSDO>
F 2

$$$$
=
 OpenBabel11052418063D

 28 31  0  0  1  0  0  0  0  0999 V2000
  191.4430  172.9940  143.5170 C   0  0  1  0  0  3  0  0  0  0  0  0
  195.3120  174.6290  146.0390 C   0  0  0  0  0  1  0  0  0  0  0  0
  191.3100  176.3810  145.2710 C   0  0  2  0  0  3  0  0  0  0  0  0
  193.8170  174.7850  145.8380 C   0  0  1  0  0  3  0  0  0  0  0  0
  190.9780  174.9160  145.0060 C   0  0  0  0  0  2  0  0  0  0  0  0
  193.4810  172.5460  144.7180 C   0  0  0  0  0  2  0  0  0  0  0  0
  193.4890  176.2710  145.7750 C   0  0  0  0  0  2  0  0  0  0  0  0
  193.3830  174.0510  144.5590 C   0  0  1  0  0  3  0  0  0  0  0  0
  192.2230  176.4920  146.3280 O   0  0  0  0  0  0  0  0  0  0  0  0
  192.5630  171.9790  143.6580 C   0  0  0  0  0  2  0  0  0  0  0  0
  191.9720  174.3320  144.0080 C   0  0  1  0  0  3  0  0  0  0  0  0
  189.6200  177.2260  146.8420 C   0  0  0  0  0  3  0  0  0  0  0  0
  187.9520  177.2370  144.2150 C   0  0  0  0  0  2  0  0  0  0  0  0
  187.1760  177.4170  146.5810 C   0  0  0  0  0  0  0  0  0  0  0  0
  190.0610  177.1670  145.5700 C   0  0  0  0  0  0  0  0  0  0  0  0
  190.0900  177.9140  143.1490 C   0  0  0  0  0  1  0  0  0  0  0  0
  186.9010  177.8060  145.1630 C   0  0  0  0  0  2  0  0  0  0  0  0
  189.3140  177.8800  144.4570 C   0  0  1  0  0  3  0  0  0  0  0  0
  186.5630  176.4140  147.0910 N   0  0  0  0  0  2  0  0  0  0  0  0
  188.3870  177.9700  147.2650 C   0  0  0  0  0  2  0  0  0  0  0  0
  190.9210  173.0720  142.1120 C   0  0  0  0  0  0  0  0  0  0  0  0
  191.8250  173.3910  141.0930 C   0  0  0  0  0  3  0  0  0  0  0  0
  189.1480  172.9060  140.4530 C   0  0  0  0  0  0  0  0  0  0  0  0
  191.3990  173.4700  139.7660 C   0  0  0  0  0  3  0  0  0  0  0  0
  188.6470  172.5020  142.7760 O   0  0  0  0  0  1  0  0  0  0  0  0
  189.5690  172.8250  141.7860 C   0  0  0  0  0  0  0  0  0  0  0  0
  187.8520  172.6710  140.1300 F   0  0  0  0  0  0  0  0  0  0  0  0
  190.0620  173.2270  139.4460 C   0  0  0  0  0  3  0  0  0  0  0  0
  1 21  1  6  0  0  0
  1 10  1  0  0  0  0
  1 11  1  0  0  0  0
  3 15  1  1  0  0  0
  3  9  1  0  0  0  0
  4  2  1  6  0  0  0
  5  3  1  0  0  0  0
  7  4  1  0  0  0  0
  7  9  1  0  0  0  0
  8  6  1  1  0  0  0
  8  4  1  0  0  0  0
 10  6  1  0  0  0  0
 11  8  1  0  0  0  0
 11  5  1  1  0  0  0
 12 20  1  0  0  0  0
 13 18  1  0  0  0  0
 13 17  1  0  0  0  0
 14 19  2  0  0  0  0
 14 20  1  0  0  0  0
 15 12  2  0  0  0  0
 17 14  1  0  0  0  0
 18 16  1  6  0  0  0
 18 15  1  0  0  0  0
 22 21  2  0  0  0  0
 23 26  2  0  0  0  0
 24 22  1  0  0  0  0
 26 21  1  0  0  0  0
 26 25  1  0  0  0  0
 27 23  1  0  0  0  0
 28 24  2  0  0  0  0
 28 23  1  0  0  0  0
M  END
>  <MODEL>
7

>  <REMARK>
 VINA RESULT:      -7.2      3.256      6.665
  Name = 
  2 active torsions:
  status: ('A' for Active; 'I' for Inactive)
    1  A    between atoms: C_1  and  C_2
    2  A    between atoms: C_10  and  C_13
                            x       y       z     vdW  Elec       q    Type
                         _______ _______ _______ _____ _____    ______ ____

>  <TORSDO>
F 2

$$$$
=
 OpenBabel11052418063D

 28 31  0  0  1  0  0  0  0  0999 V2000
  189.4570  177.1500  143.6380 C   0  0  1  0  0  3  0  0  0  0  0  0
  192.7880  174.5680  146.1380 C   0  0  0  0  0  1  0  0  0  0  0  0
  190.5200  173.6900  142.4280 C   0  0  2  0  0  3  0  0  0  0  0  0
  192.1000  174.7190  144.7950 C   0  0  1  0  0  3  0  0  0  0  0  0
  190.3980  175.2100  142.4210 C   0  0  0  0  0  2  0  0  0  0  0  0
  191.2990  177.0820  145.1870 C   0  0  0  0  0  2  0  0  0  0  0  0
  191.7010  173.3350  144.2960 C   0  0  0  0  0  2  0  0  0  0  0  0
  190.8820  175.6460  144.9330 C   0  0  1  0  0  3  0  0  0  0  0  0
  191.7810  173.3020  142.8990 O   0  0  0  0  0  0  0  0  0  0  0  0
  190.1060  177.9150  144.7770 C   0  0  0  0  0  2  0  0  0  0  0  0
  189.8730  175.6940  143.7680 C   0  0  1  0  0  3  0  0  0  0  0  0
  191.3390  172.8340  140.2740 C   0  0  0  0  0  3  0  0  0  0  0  0
  188.5270  173.8440  139.4070 C   0  0  0  0  0  2  0  0  0  0  0  0
  190.4890  173.2250  137.9940 C   0  0  0  0  0  0  0  0  0  0  0  0
  190.2780  173.1270  141.0520 C   0  0  0  0  0  0  0  0  0  0  0  0
  187.8160  173.0410  141.6460 C   0  0  0  0  0  1  0  0  0  0  0  0
  188.9950  173.2790  138.0690 C   0  0  0  0  0  2  0  0  0  0  0  0
  188.8630  172.8950  140.5520 C   0  0  1  0  0  3  0  0  0  0  0  0
  191.1260  174.1660  137.4020 N   0  0  0  0  0  2  0  0  0  0  0  0
  191.2290  172.2770  138.8850 C   0  0  0  0  0  2  0  0  0  0  0  0
  187.9650  177.3140  143.6200 C   0  0  0  0  0  0  0  0  0  0  0  0
  187.2680  177.0960  144.8130 C   0  0  0  0  0  3  0  0  0  0  0  0
  185.8610  177.8330  142.5120 C   0  0  0  0  0  0  0  0  0  0  0  0
  185.8800  177.2420  144.8590 C   0  0  0  0  0  3  0  0  0  0  0  0
  187.9200  177.9160  141.2600 O   0  0  0  0  0  1  0  0  0  0  0  0
  187.2530  177.6880  142.4590 C   0  0  0  0  0  0  0  0  0  0  0  0
  185.1690  178.1920  141.4030 F   0  0  0  0  0  0  0  0  0  0  0  0
  185.1780  177.6100  143.7100 C   0  0  0  0  0  3  0  0  0  0  0  0
  1 21  1  1  0  0  0
  1 11  1  0  0  0  0
  1 10  1  0  0  0  0
  3 15  1  6  0  0  0
  3  9  1  0  0  0  0
  4  8  1  0  0  0  0
  4  2  1  1  0  0  0
  5  3  1  0  0  0  0
  7  4  1  0  0  0  0
  8  6  1  6  0  0  0
  9  7  1  0  0  0  0
 10  6  1  0  0  0  0
 11  5  1  6  0  0  0
 11  8  1  0  0  0  0
 12 15  2  0  0  0  0
 13 18  1  0  0  0  0
 14 17  1  0  0  0  0
 14 20  1  0  0  0  0
 17 13  1  0  0  0  0
 18 15  1  0  0  0  0
 18 16  1  1  0  0  0
 19 14  2  0  0  0  0
 20 12  1  0  0  0  0
 21 22  1  0  0  0  0
 22 24  2  0  0  0  0
 23 28  2  0  0  0  0
 25 26  1  0  0  0  0
 26 23  1  0  0  0  0
 26 21  2  0  0  0  0
 27 23  1  0  0  0  0
 28 24  1  0  0  0  0
M  END
>  <MODEL>
8

>  <REMARK>
 VINA RESULT:      -7.2      2.873      4.850
  Name = 
  2 active torsions:
  status: ('A' for Active; 'I' for Inactive)
    1  A    between atoms: C_1  and  C_2
    2  A    between atoms: C_10  and  C_13
                            x       y       z     vdW  Elec       q    Type
                         _______ _______ _______ _____ _____    ______ ____

>  <TORSDO>
F 2

$$$$
=
 OpenBabel11052418063D

 28 31  0  0  1  0  0  0  0  0999 V2000
  192.6920  175.4150  142.4880 C   0  0  1  0  0  3  0  0  0  0  0  0
  190.5880  172.1980  139.4500 C   0  0  0  0  0  1  0  0  0  0  0  0
  188.9440  174.7220  142.7070 C   0  0  2  0  0  3  0  0  0  0  0  0
  190.3260  173.3660  140.3820 C   0  0  1  0  0  3  0  0  0  0  0  0
  190.2190  175.5110  142.4210 C   0  0  0  0  0  2  0  0  0  0  0  0
  192.7090  174.2030  140.4090 C   0  0  0  0  0  2  0  0  0  0  0  0
  189.1110  173.0390  141.2410 C   0  0  0  0  0  2  0  0  0  0  0  0
  191.5720  173.6390  141.2390 C   0  0  1  0  0  3  0  0  0  0  0  0
  188.4050  174.2150  141.5170 O   0  0  0  0  0  0  0  0  0  0  0  0
  193.6150  174.8940  141.4020 C   0  0  0  0  0  2  0  0  0  0  0  0
  191.4240  174.5770  142.4530 C   0  0  1  0  0  3  0  0  0  0  0  0
  186.8100  175.9390  142.7640 C   0  0  0  0  0  3  0  0  0  0  0  0
  188.3900  177.5400  144.9140 C   0  0  0  0  0  2  0  0  0  0  0  0
  186.2730  178.1400  143.7340 C   0  0  0  0  0  0  0  0  0  0  0  0
  187.9320  175.5810  143.4180 C   0  0  0  0  0  0  0  0  0  0  0  0
  189.3540  175.3290  145.5010 C   0  0  0  0  0  1  0  0  0  0  0  0
  187.0590  178.2830  145.0000 C   0  0  0  0  0  2  0  0  0  0  0  0
  188.1740  176.0320  144.8480 C   0  0  1  0  0  3  0  0  0  0  0  0
  186.3170  179.0720  142.8560 N   0  0  0  0  0  2  0  0  0  0  0  0
  185.7320  176.7960  143.3610 C   0  0  0  0  0  2  0  0  0  0  0  0
  193.3420  175.4020  143.8410 C   0  0  0  0  0  0  0  0  0  0  0  0
  194.2810  174.4000  144.1080 C   0  0  0  0  0  3  0  0  0  0  0  0
  193.7000  176.2990  146.0750 C   0  0  0  0  0  0  0  0  0  0  0  0
  194.9250  174.3430  145.3450 C   0  0  0  0  0  3  0  0  0  0  0  0
  192.1250  177.3720  144.5990 O   0  0  0  0  0  1  0  0  0  0  0  0
  193.0510  176.3610  144.8360 C   0  0  0  0  0  0  0  0  0  0  0  0
  193.4270  177.2150  147.0370 F   0  0  0  0  0  0  0  0  0  0  0  0
  194.6340  175.2910  146.3280 C   0  0  0  0  0  3  0  0  0  0  0  0
  1 21  1  1  0  0  0
  3 15  1  6  0  0  0
  4  2  1  6  0  0  0
  4  8  1  0  0  0  0
  4  7  1  0  0  0  0
  5  3  1  0  0  0  0
  6 10  1  0  0  0  0
  7  9  1  0  0  0  0
  8  6  1  6  0  0  0
  8 11  1  0  0  0  0
  9  3  1  0  0  0  0
 10  1  1  0  0  0  0
 11  5  1  6  0  0  0
 11  1  1  0  0  0  0
 12 20  1  0  0  0  0
 12 15  2  0  0  0  0
 13 17  1  0  0  0  0
 14 17  1  0  0  0  0
 15 18  1  0  0  0  0
 18 13  1  0  0  0  0
 18 16  1  6  0  0  0
 19 14  2  0  0  0  0
 20 14  1  0  0  0  0
 21 22  2  0  0  0  0
 21 26  1  0  0  0  0
 22 24  1  0  0  0  0
 23 28  1  0  0  0  0
 23 27  1  0  0  0  0
 24 28  2  0  0  0  0
 25 26  1  0  0  0  0
 26 23  2  0  0  0  0
M  END
>  <MODEL>
9

>  <REMARK>
 VINA RESULT:      -7.2      3.253      7.809
  Name = 
  2 active torsions:
  status: ('A' for Active; 'I' for Inactive)
    1  A    between atoms: C_1  and  C_2
    2  A    between atoms: C_10  and  C_13
                            x       y       z     vdW  Elec       q    Type
                         _______ _______ _______ _____ _____    ______ ____

>  <TORSDO>
F 2

$$$$
