=
 OpenBabel11052421293D

 32 36  0  0  1  0  0  0  0  0999 V2000
  191.3410  172.9650  143.1290 C   0  0  2  0  0  3  0  0  0  0  0  0
  189.3590  174.2440  146.1590 C   0  0  0  0  0  2  0  0  0  0  0  0
  189.4500  176.7880  144.1700 C   0  0  0  0  0  2  0  0  0  0  0  0
  184.8500  176.8580  146.5860 C   0  0  0  0  0  2  0  0  0  0  0  0
  184.4270  178.2090  146.0270 C   0  0  0  0  0  2  0  0  0  0  0  0
  191.3750  176.2390  145.7610 C   0  0  1  0  0  3  0  0  0  0  0  0
  189.6110  177.5480  147.1910 C   0  0  0  0  0  2  0  0  0  0  0  0
  190.1510  173.5200  143.9000 C   0  0  0  0  0  2  0  0  0  0  0  0
  189.7860  175.0030  147.4100 C   0  0  0  0  0  2  0  0  0  0  0  0
  186.0890  176.9640  147.4150 C   0  0  0  0  0  3  0  0  0  0  0  0
  188.3990  177.4920  146.3130 C   0  0  0  0  0  0  0  0  0  0  0  0
  187.2450  177.2250  146.8700 C   0  0  0  0  0  0  0  0  0  0  0  0
  187.2010  177.9290  144.0710 C   0  0  2  0  0  3  0  0  0  0  0  0
  192.5130  173.9040  143.1880 C   0  0  0  0  0  3  0  0  0  0  0  0
  192.7210  174.7140  144.2360 C   0  0  0  0  0  3  0  0  0  0  0  0
  190.9530  172.7220  141.6860 C   0  0  0  0  0  1  0  0  0  0  0  0
  190.5050  176.3110  147.0430 C   0  0  1  0  0  3  0  0  0  0  0  0
  191.7660  174.7930  145.4070 C   0  0  2  0  0  3  0  0  0  0  0  0
  190.5730  173.8020  145.3370 C   0  0  1  0  0  3  0  0  0  0  0  0
  184.9730  178.4170  144.6220 C   0  0  0  0  0  2  0  0  0  0  0  0
  186.3330  178.9290  144.6800 N   0  0  0  0  0  2  0  0  0  0  0  0
  190.8940  177.0650  144.5550 C   0  0  0  0  0  2  0  0  0  0  0  0
  188.5330  177.8080  144.8390 C   0  0  2  0  0  3  0  0  0  0  0  0
  187.3850  178.1970  142.5610 C   0  0  0  0  0  2  0  0  0  0  0  0
  188.1790  176.1360  141.2670 C   0  0  0  0  0  2  0  0  0  0  0  0
  187.8560  175.2130  140.1230 C   0  0  0  0  0  0  0  0  0  0  0  0
  186.2720  177.5510  140.3610 C   0  0  0  0  0  0  0  0  0  0  0  0
  186.7240  177.1000  139.0000 C   0  0  0  0  0  2  0  0  0  0  0  0
  187.1720  175.6650  139.0630 C   0  0  0  0  0  3  0  0  0  0  0  0
  188.2220  173.9070  140.1860 F   0  0  0  0  0  0  0  0  0  0  0  0
  185.3130  178.2970  140.4630 O   0  0  0  0  0  0  0  0  0  0  0  0
  186.9960  177.0620  141.5980 C   0  0  2  0  0  3  0  0  0  0  0  0
  1 16  1  6  0  0  0
  1 14  1  0  0  0  0
  1  8  1  0  0  0  0
  2  9  1  0  0  0  0
  3 22  1  0  0  0  0
  4 10  1  0  0  0  0
  5  4  1  0  0  0  0
  6 22  1  6  0  0  0
  6 17  1  0  0  0  0
 11 12  2  0  0  0  0
 11  7  1  0  0  0  0
 12 10  2  0  0  0  0
 13 24  1  6  0  0  0
 13 21  1  0  0  0  0
 13 23  1  0  0  0  0
 14 15  2  0  0  0  0
 17  7  1  6  0  0  0
 17  9  1  0  0  0  0
 18 15  1  6  0  0  0
 18  6  1  0  0  0  0
 19  8  1  6  0  0  0
 19 18  1  0  0  0  0
 19  2  1  0  0  0  0
 20 21  1  0  0  0  0
 20  5  1  0  0  0  0
 23  3  1  6  0  0  0
 23 11  1  0  0  0  0
 25 32  1  0  0  0  0
 26 30  1  0  0  0  0
 26 25  1  0  0  0  0
 27 31  2  0  0  0  0
 27 32  1  0  0  0  0
 28 29  1  0  0  0  0
 28 27  1  0  0  0  0
 29 26  2  0  0  0  0
 32 24  1  6  0  0  0
M  END
>  <MODEL>
1

>  <REMARK>
 VINA RESULT:      -9.4      0.000      0.000
  Name = 
  2 active torsions:
  status: ('A' for Active; 'I' for Inactive)
    1  A    between atoms: C_16  and  C_27
    2  A    between atoms: C_27  and  C_32
                            x       y       z     vdW  Elec       q    Type
                         _______ _______ _______ _____ _____    ______ ____

>  <TORSDO>
F 2

$$$$
=
 OpenBabel11052421293D

 32 36  0  0  1  0  0  0  0  0999 V2000
  188.2880  178.0360  142.4280 C   0  0  2  0  0  3  0  0  0  0  0  0
  191.7480  177.0400  143.7620 C   0  0  0  0  0  2  0  0  0  0  0  0
  189.9450  174.4070  144.2640 C   0  0  0  0  0  2  0  0  0  0  0  0
  194.7340  172.8090  143.0360 C   0  0  0  0  0  2  0  0  0  0  0  0
  194.4570  171.3370  143.3100 C   0  0  0  0  0  2  0  0  0  0  0  0
  189.9660  176.3710  145.9020 C   0  0  1  0  0  3  0  0  0  0  0  0
  192.0670  174.9210  146.4910 C   0  0  0  0  0  2  0  0  0  0  0  0
  189.5880  177.2490  142.5190 C   0  0  0  0  0  2  0  0  0  0  0  0
  192.3550  177.0880  145.1590 C   0  0  0  0  0  2  0  0  0  0  0  0
  194.5570  173.6440  144.2610 C   0  0  0  0  0  3  0  0  0  0  0  0
  192.1850  174.0420  145.2840 C   0  0  0  0  0  0  0  0  0  0  0  0
  193.3760  173.8490  144.7750 C   0  0  0  0  0  0  0  0  0  0  0  0
  191.2110  172.3190  143.6300 C   0  0  2  0  0  3  0  0  0  0  0  0
  187.4930  177.9190  143.6990 C   0  0  0  0  0  3  0  0  0  0  0  0
  188.0810  177.7450  144.8910 C   0  0  0  0  0  3  0  0  0  0  0  0
  187.4620  177.5370  141.2610 C   0  0  0  0  0  1  0  0  0  0  0  0
  191.4940  176.3030  146.1620 C   0  0  1  0  0  3  0  0  0  0  0  0
  189.5780  177.5910  145.0450 C   0  0  2  0  0  3  0  0  0  0  0  0
  190.3840  177.7320  143.7260 C   0  0  1  0  0  3  0  0  0  0  0  0
  193.0190  170.9760  142.9690 C   0  0  0  0  0  2  0  0  0  0  0  0
  192.1410  171.2930  144.0840 N   0  0  0  0  0  2  0  0  0  0  0  0
  189.2830  175.0640  145.4650 C   0  0  0  0  0  2  0  0  0  0  0  0
  190.9490  173.3610  144.7360 C   0  0  2  0  0  3  0  0  0  0  0  0
  189.9200  171.6890  143.0620 C   0  0  0  0  0  2  0  0  0  0  0  0
  190.8080  172.4710  140.7920 C   0  0  0  0  0  2  0  0  0  0  0  0
  190.4110  173.0230  139.4490 C   0  0  0  0  0  0  0  0  0  0  0  0
  188.3870  172.9060  141.4290 C   0  0  0  0  0  0  0  0  0  0  0  0
  188.4790  174.1120  140.5380 C   0  0  0  0  0  2  0  0  0  0  0  0
  189.3180  173.7890  139.3310 C   0  0  0  0  0  3  0  0  0  0  0  0
  191.1380  172.7070  138.3470 F   0  0  0  0  0  0  0  0  0  0  0  0
  187.3410  172.6590  142.0070 O   0  0  0  0  0  0  0  0  0  0  0  0
  189.5840  171.9930  141.5920 C   0  0  2  0  0  3  0  0  0  0  0  0
  1 16  1  6  0  0  0
  1  8  1  0  0  0  0
  1 14  1  0  0  0  0
  2  9  1  0  0  0  0
  3 22  1  0  0  0  0
  4  5  1  0  0  0  0
  4 10  1  0  0  0  0
  6 22  1  6  0  0  0
  6 17  1  0  0  0  0
 10 12  2  0  0  0  0
 11  7  1  0  0  0  0
 12 11  2  0  0  0  0
 13 24  1  1  0  0  0
 13 21  1  0  0  0  0
 13 23  1  0  0  0  0
 14 15  2  0  0  0  0
 17  9  1  6  0  0  0
 17  7  1  0  0  0  0
 18 15  1  6  0  0  0
 18  6  1  0  0  0  0
 19  8  1  6  0  0  0
 19  2  1  0  0  0  0
 19 18  1  0  0  0  0
 20  5  1  0  0  0  0
 20 21  1  0  0  0  0
 23  3  1  6  0  0  0
 23 11  1  0  0  0  0
 25 32  1  0  0  0  0
 26 25  1  0  0  0  0
 27 32  1  0  0  0  0
 27 31  2  0  0  0  0
 28 27  1  0  0  0  0
 29 26  2  0  0  0  0
 29 28  1  0  0  0  0
 30 26  1  0  0  0  0
 32 24  1  1  0  0  0
M  END
>  <MODEL>
2

>  <REMARK>
 VINA RESULT:      -8.4      2.742      6.163
  Name = 
  2 active torsions:
  status: ('A' for Active; 'I' for Inactive)
    1  A    between atoms: C_16  and  C_27
    2  A    between atoms: C_27  and  C_32
                            x       y       z     vdW  Elec       q    Type
                         _______ _______ _______ _____ _____    ______ ____

>  <TORSDO>
F 2

$$$$
=
 OpenBabel11052421293D

 32 36  0  0  1  0  0  0  0  0999 V2000
  187.6080  176.8710  142.1550 C   0  0  2  0  0  3  0  0  0  0  0  0
  190.4300  177.8250  144.5780 C   0  0  0  0  0  2  0  0  0  0  0  0
  190.1990  174.6180  144.8920 C   0  0  0  0  0  2  0  0  0  0  0  0
  195.2180  175.8770  145.3710 C   0  0  0  0  0  2  0  0  0  0  0  0
  195.6700  174.4750  145.7560 C   0  0  0  0  0  2  0  0  0  0  0  0
  188.6690  176.2220  146.1680 C   0  0  1  0  0  3  0  0  0  0  0  0
  190.8920  176.0960  147.5500 C   0  0  0  0  0  2  0  0  0  0  0  0
  189.0150  176.8980  142.7360 C   0  0  0  0  0  2  0  0  0  0  0  0
  190.4330  178.1330  146.0700 C   0  0  0  0  0  2  0  0  0  0  0  0
  194.2480  176.4390  146.3580 C   0  0  0  0  0  3  0  0  0  0  0  0
  191.8320  175.4660  146.5690 C   0  0  0  0  0  0  0  0  0  0  0  0
  193.0400  175.9590  146.4660 C   0  0  0  0  0  0  0  0  0  0  0  0
  192.4870  173.5570  144.9620 C   0  0  2  0  0  3  0  0  0  0  0  0
  186.6260  176.2970  143.1380 C   0  0  0  0  0  3  0  0  0  0  0  0
  186.7950  176.4160  144.4630 C   0  0  0  0  0  3  0  0  0  0  0  0
  187.5910  176.0560  140.8800 C   0  0  0  0  0  1  0  0  0  0  0  0
  189.8300  176.9700  146.8750 C   0  0  1  0  0  3  0  0  0  0  0  0
  188.0100  177.0790  145.0720 C   0  0  2  0  0  3  0  0  0  0  0  0
  189.0030  177.6820  144.0430 C   0  0  1  0  0  3  0  0  0  0  0  0
  194.8280  173.4160  145.0610 C   0  0  0  0  0  2  0  0  0  0  0  0
  193.6070  173.1690  145.8110 N   0  0  0  0  0  2  0  0  0  0  0  0
  188.9460  174.7710  145.7390 C   0  0  0  0  0  2  0  0  0  0  0  0
  191.3820  174.2530  145.7830 C   0  0  2  0  0  3  0  0  0  0  0  0
  191.9750  172.3590  144.1340 C   0  0  0  0  0  2  0  0  0  0  0  0
  192.5260  173.8790  142.1500 C   0  0  0  0  0  2  0  0  0  0  0  0
  192.2570  174.1290  140.6910 C   0  0  0  0  0  0  0  0  0  0  0  0
  190.6270  172.2000  141.9760 C   0  0  0  0  0  0  0  0  0  0  0  0
  190.0040  173.1630  141.0050 C   0  0  0  0  0  2  0  0  0  0  0  0
  191.0760  173.7910  140.1550 C   0  0  0  0  0  3  0  0  0  0  0  0
  193.2290  174.6590  139.9060 F   0  0  0  0  0  0  0  0  0  0  0  0
  190.0550  171.1560  142.2430 O   0  0  0  0  0  0  0  0  0  0  0  0
  191.9680  172.5200  142.6040 C   0  0  2  0  0  3  0  0  0  0  0  0
  1 16  1  6  0  0  0
  1  8  1  0  0  0  0
  1 14  1  0  0  0  0
  2  9  1  0  0  0  0
  3 22  1  0  0  0  0
  4  5  1  0  0  0  0
  4 10  1  0  0  0  0
  6 22  1  6  0  0  0
  6 17  1  0  0  0  0
 10 12  2  0  0  0  0
 11  7  1  0  0  0  0
 12 11  2  0  0  0  0
 13 24  1  1  0  0  0
 13 23  1  0  0  0  0
 13 21  1  0  0  0  0
 14 15  2  0  0  0  0
 17  9  1  6  0  0  0
 17  7  1  0  0  0  0
 18 15  1  6  0  0  0
 18  6  1  0  0  0  0
 19  8  1  6  0  0  0
 19  2  1  0  0  0  0
 19 18  1  0  0  0  0
 20  5  1  0  0  0  0
 20 21  1  0  0  0  0
 23  3  1  6  0  0  0
 23 11  1  0  0  0  0
 25 32  1  0  0  0  0
 26 25  1  0  0  0  0
 27 31  2  0  0  0  0
 27 32  1  0  0  0  0
 28 27  1  0  0  0  0
 29 26  2  0  0  0  0
 29 28  1  0  0  0  0
 30 26  1  0  0  0  0
 32 24  1  1  0  0  0
M  END
>  <MODEL>
3

>  <REMARK>
 VINA RESULT:      -8.2      2.890      6.231
  Name = 
  2 active torsions:
  status: ('A' for Active; 'I' for Inactive)
    1  A    between atoms: C_16  and  C_27
    2  A    between atoms: C_27  and  C_32
                            x       y       z     vdW  Elec       q    Type
                         _______ _______ _______ _____ _____    ______ ____

>  <TORSDO>
F 2

$$$$
=
 OpenBabel11052421293D

 32 36  0  0  1  0  0  0  0  0999 V2000
  194.0220  175.6420  144.6870 C   0  0  2  0  0  3  0  0  0  0  0  0
  191.7390  174.5880  141.7850 C   0  0  0  0  0  2  0  0  0  0  0  0
  189.6740  175.3620  144.1460 C   0  0  0  0  0  2  0  0  0  0  0  0
  187.5020  176.7820  139.6440 C   0  0  0  0  0  2  0  0  0  0  0  0
  186.1630  177.1660  140.2580 C   0  0  0  0  0  2  0  0  0  0  0  0
  190.7790  173.0600  144.0080 C   0  0  1  0  0  3  0  0  0  0  0  0
  188.7270  172.9710  142.3810 C   0  0  0  0  0  2  0  0  0  0  0  0
  192.9560  175.7900  143.6090 C   0  0  0  0  0  2  0  0  0  0  0  0
  191.0880  173.2560  141.4320 C   0  0  0  0  0  2  0  0  0  0  0  0
  187.8160  175.3370  139.8560 C   0  0  0  0  0  3  0  0  0  0  0  0
  188.3830  174.4220  142.2370 C   0  0  0  0  0  0  0  0  0  0  0  0
  188.1020  174.8750  141.0420 C   0  0  0  0  0  0  0  0  0  0  0  0
  187.7430  176.7100  143.2420 C   0  0  2  0  0  3  0  0  0  0  0  0
  193.6330  174.5980  145.6960 C   0  0  0  0  0  3  0  0  0  0  0  0
  192.8690  173.5460  145.3710 C   0  0  0  0  0  3  0  0  0  0  0  0
  194.2410  176.9690  145.3820 C   0  0  0  0  0  1  0  0  0  0  0  0
  190.2260  172.7380  142.5950 C   0  0  1  0  0  3  0  0  0  0  0  0
  192.2890  173.3580  143.9860 C   0  0  2  0  0  3  0  0  0  0  0  0
  192.7160  174.4350  142.9530 C   0  0  1  0  0  3  0  0  0  0  0  0
  186.3430  177.7320  141.6580 C   0  0  0  0  0  2  0  0  0  0  0  0
  186.4190  176.6550  142.6330 N   0  0  0  0  0  2  0  0  0  0  0  0
  189.9630  174.0500  144.8570 C   0  0  0  0  0  2  0  0  0  0  0  0
  188.3070  175.2930  143.4730 C   0  0  2  0  0  3  0  0  0  0  0  0
  187.7340  177.5830  144.5150 C   0  0  0  0  0  2  0  0  0  0  0  0
  185.5820  178.7020  145.3340 C   0  0  0  0  0  2  0  0  0  0  0  0
  184.5440  178.7030  146.4230 C   0  0  0  0  0  0  0  0  0  0  0  0
  186.8460  177.1090  146.8580 C   0  0  0  0  0  0  0  0  0  0  0  0
  186.2800  177.9140  147.9940 C   0  0  0  0  0  2  0  0  0  0  0  0
  184.8720  178.3310  147.6680 C   0  0  0  0  0  3  0  0  0  0  0  0
  183.2610  179.0410  146.1340 F   0  0  0  0  0  0  0  0  0  0  0  0
  187.5700  176.1560  147.0930 O   0  0  0  0  0  0  0  0  0  0  0  0
  186.5000  177.4720  145.4280 C   0  0  2  0  0  3  0  0  0  0  0  0
  1 16  1  1  0  0  0
  1 14  1  0  0  0  0
  3 22  1  0  0  0  0
  4 10  1  0  0  0  0
  4  5  1  0  0  0  0
  5 20  1  0  0  0  0
  6 22  1  6  0  0  0
  7 17  1  0  0  0  0
  8  1  1  0  0  0  0
  9  2  1  0  0  0  0
 10 12  2  0  0  0  0
 11  7  1  0  0  0  0
 11 23  1  0  0  0  0
 12 11  2  0  0  0  0
 13 23  1  0  0  0  0
 13 24  1  1  0  0  0
 15 14  2  0  0  0  0
 17  9  1  6  0  0  0
 17  6  1  0  0  0  0
 18  6  1  0  0  0  0
 18 15  1  1  0  0  0
 19  2  1  6  0  0  0
 19  8  1  0  0  0  0
 19 18  1  0  0  0  0
 20 21  1  0  0  0  0
 21 13  1  0  0  0  0
 23  3  1  6  0  0  0
 25 32  1  0  0  0  0
 25 26  1  0  0  0  0
 26 29  2  0  0  0  0
 27 31  2  0  0  0  0
 27 28  1  0  0  0  0
 29 28  1  0  0  0  0
 30 26  1  0  0  0  0
 32 24  1  6  0  0  0
 32 27  1  0  0  0  0
M  END
>  <MODEL>
4

>  <REMARK>
 VINA RESULT:      -8.1      2.589      5.541
  Name = 
  2 active torsions:
  status: ('A' for Active; 'I' for Inactive)
    1  A    between atoms: C_16  and  C_27
    2  A    between atoms: C_27  and  C_32
                            x       y       z     vdW  Elec       q    Type
                         _______ _______ _______ _____ _____    ______ ____

>  <TORSDO>
F 2

$$$$
=
 OpenBabel11052421293D

 32 36  0  0  1  0  0  0  0  0999 V2000
  186.9990  177.6840  144.5380 C   0  0  2  0  0  3  0  0  0  0  0  0
  190.6730  177.5700  145.6510 C   0  0  0  0  0  2  0  0  0  0  0  0
  189.9970  174.4980  144.9130 C   0  0  0  0  0  2  0  0  0  0  0  0
  194.9350  175.3810  143.5570 C   0  0  0  0  0  2  0  0  0  0  0  0
  195.2360  173.9320  143.2000 C   0  0  0  0  0  2  0  0  0  0  0  0
  189.4200  175.5060  147.1920 C   0  0  1  0  0  3  0  0  0  0  0  0
  191.9440  174.8120  147.3300 C   0  0  0  0  0  2  0  0  0  0  0  0
  188.5000  177.4580  144.4170 C   0  0  0  0  0  2  0  0  0  0  0  0
  191.3210  177.2730  146.9980 C   0  0  0  0  0  2  0  0  0  0  0  0
  194.5560  175.5320  144.9940 C   0  0  0  0  0  3  0  0  0  0  0  0
  192.2850  174.5970  145.8880 C   0  0  0  0  0  0  0  0  0  0  0  0
  193.4230  175.0690  145.4460 C   0  0  0  0  0  0  0  0  0  0  0  0
  191.8880  173.4530  143.6100 C   0  0  2  0  0  3  0  0  0  0  0  0
  186.3980  176.7900  145.5860 C   0  0  0  0  0  3  0  0  0  0  0  0
  187.0950  176.3810  146.6550 C   0  0  0  0  0  3  0  0  0  0  0  0
  186.3300  177.4300  143.2040 C   0  0  0  0  0  1  0  0  0  0  0  0
  190.8820  175.8990  147.5310 C   0  0  1  0  0  3  0  0  0  0  0  0
  188.5520  176.7330  146.8610 C   0  0  2  0  0  3  0  0  0  0  0  0
  189.1510  177.6720  145.7790 C   0  0  1  0  0  3  0  0  0  0  0  0
  194.0080  173.2420  142.6240 C   0  0  0  0  0  2  0  0  0  0  0  0
  193.1600  172.7450  143.6960 N   0  0  0  0  0  2  0  0  0  0  0  0
  189.2320  174.3310  146.2160 C   0  0  0  0  0  2  0  0  0  0  0  0
  191.3460  173.7930  145.0130 C   0  0  2  0  0  3  0  0  0  0  0  0
  190.8790  172.6810  142.7330 C   0  0  0  0  0  2  0  0  0  0  0  0
  189.0110  174.0300  141.6190 C   0  0  0  0  0  2  0  0  0  0  0  0
  188.4340  174.4580  140.2970 C   0  0  0  0  0  0  0  0  0  0  0  0
  190.4760  172.4940  140.2230 C   0  0  0  0  0  0  0  0  0  0  0  0
  189.2860  172.3570  139.3160 C   0  0  0  0  0  2  0  0  0  0  0  0
  188.5660  173.6750  139.2180 C   0  0  0  0  0  3  0  0  0  0  0  0
  187.8170  175.6620  140.1870 F   0  0  0  0  0  0  0  0  0  0  0  0
  191.5110  171.9050  139.9560 O   0  0  0  0  0  0  0  0  0  0  0  0
  190.3930  173.3780  141.4500 C   0  0  2  0  0  3  0  0  0  0  0  0
  1 16  1  6  0  0  0
  1 14  1  0  0  0  0
  2 19  1  0  0  0  0
  2  9  1  0  0  0  0
  3 22  1  0  0  0  0
  4 10  1  0  0  0  0
  5  4  1  0  0  0  0
  6 22  1  6  0  0  0
  6 17  1  0  0  0  0
  7 17  1  0  0  0  0
  8  1  1  0  0  0  0
 10 12  2  0  0  0  0
 11  7  1  0  0  0  0
 12 11  2  0  0  0  0
 13 24  1  1  0  0  0
 13 21  1  0  0  0  0
 13 23  1  0  0  0  0
 14 15  2  0  0  0  0
 17  9  1  6  0  0  0
 18 15  1  6  0  0  0
 18  6  1  0  0  0  0
 19  8  1  6  0  0  0
 19 18  1  0  0  0  0
 20  5  1  0  0  0  0
 20 21  1  0  0  0  0
 23  3  1  6  0  0  0
 23 11  1  0  0  0  0
 26 25  1  0  0  0  0
 27 32  1  0  0  0  0
 28 27  1  0  0  0  0
 29 28  1  0  0  0  0
 29 26  2  0  0  0  0
 30 26  1  0  0  0  0
 31 27  2  0  0  0  0
 32 25  1  0  0  0  0
 32 24  1  1  0  0  0
M  END
>  <MODEL>
5

>  <REMARK>
 VINA RESULT:      -8.0      2.720      6.114
  Name = 
  2 active torsions:
  status: ('A' for Active; 'I' for Inactive)
    1  A    between atoms: C_16  and  C_27
    2  A    between atoms: C_27  and  C_32
                            x       y       z     vdW  Elec       q    Type
                         _______ _______ _______ _____ _____    ______ ____

>  <TORSDO>
F 2

$$$$
=
 OpenBabel11052421293D

 32 36  0  0  1  0  0  0  0  0999 V2000
  185.2000  177.6400  146.9550 C   0  0  2  0  0  3  0  0  0  0  0  0
  185.5670  176.4150  143.3340 C   0  0  0  0  0  2  0  0  0  0  0  0
  188.6170  176.7820  144.3330 C   0  0  0  0  0  2  0  0  0  0  0  0
  188.5010  172.6810  141.1450 C   0  0  0  0  0  2  0  0  0  0  0  0
  190.0120  172.4880  141.1220 C   0  0  0  0  0  2  0  0  0  0  0  0
  187.2330  178.7410  143.4470 C   0  0  1  0  0  3  0  0  0  0  0  0
  188.1810  177.5160  141.3330 C   0  0  0  0  0  2  0  0  0  0  0  0
  185.6100  176.7150  145.8160 C   0  0  0  0  0  2  0  0  0  0  0  0
  185.7390  177.1630  142.0170 C   0  0  0  0  0  2  0  0  0  0  0  0
  188.1040  174.0150  140.6010 C   0  0  0  0  0  3  0  0  0  0  0  0
  188.6380  176.2110  141.9110 C   0  0  0  0  0  0  0  0  0  0  0  0
  188.3650  175.1140  141.2510 C   0  0  0  0  0  0  0  0  0  0  0  0
  190.0460  174.8420  143.5840 C   0  0  2  0  0  3  0  0  0  0  0  0
  185.8600  178.9840  146.8270 C   0  0  0  0  0  3  0  0  0  0  0  0
  186.1870  179.5040  145.6350 C   0  0  0  0  0  3  0  0  0  0  0  0
  185.5660  177.0150  148.2840 C   0  0  0  0  0  1  0  0  0  0  0  0
  186.9630  178.0910  142.0650 C   0  0  1  0  0  3  0  0  0  0  0  0
  185.9760  178.7580  144.3360 C   0  0  2  0  0  3  0  0  0  0  0  0
  185.2770  177.3800  144.4860 C   0  0  1  0  0  3  0  0  0  0  0  0
  190.6340  172.8690  142.4570 C   0  0  0  0  0  2  0  0  0  0  0  0
  190.8730  174.3030  142.5110 N   0  0  0  0  0  2  0  0  0  0  0  0
  188.5070  178.2910  144.1830 C   0  0  0  0  0  2  0  0  0  0  0  0
  189.4480  176.2090  143.1900 C   0  0  2  0  0  3  0  0  0  0  0  0
  190.8170  174.8720  144.9210 C   0  0  0  0  0  2  0  0  0  0  0  0
  193.1010  173.9570  145.6270 C   0  0  0  0  0  2  0  0  0  0  0  0
  194.5610  174.2940  145.7700 C   0  0  0  0  0  0  0  0  0  0  0  0
  192.8090  176.4420  145.1830 C   0  0  0  0  0  0  0  0  0  0  0  0
  193.9160  176.6430  146.1790 C   0  0  0  0  0  2  0  0  0  0  0  0
  194.9410  175.5530  146.0260 C   0  0  0  0  0  3  0  0  0  0  0  0
  195.4970  173.3260  145.5960 F   0  0  0  0  0  0  0  0  0  0  0  0
  192.2990  177.4090  144.6420 O   0  0  0  0  0  0  0  0  0  0  0  0
  192.3440  175.0410  144.8410 C   0  0  2  0  0  3  0  0  0  0  0  0
  1 16  1  1  0  0  0
  5  4  1  0  0  0  0
  5 20  1  0  0  0  0
  6 22  1  1  0  0  0
  6 18  1  0  0  0  0
  7 11  1  0  0  0  0
  8  1  1  0  0  0  0
  9 17  1  0  0  0  0
  9  2  1  0  0  0  0
 10  4  1  0  0  0  0
 10 12  2  0  0  0  0
 11 23  1  0  0  0  0
 12 11  2  0  0  0  0
 13 24  1  1  0  0  0
 14  1  1  0  0  0  0
 15 14  2  0  0  0  0
 17  7  1  1  0  0  0
 17  6  1  0  0  0  0
 18 19  1  0  0  0  0
 18 15  1  1  0  0  0
 19  2  1  6  0  0  0
 19  8  1  0  0  0  0
 20 21  1  0  0  0  0
 21 13  1  0  0  0  0
 22  3  1  0  0  0  0
 23 13  1  0  0  0  0
 23  3  1  1  0  0  0
 25 26  1  0  0  0  0
 26 29  2  0  0  0  0
 27 28  1  0  0  0  0
 29 28  1  0  0  0  0
 30 26  1  0  0  0  0
 31 27  2  0  0  0  0
 32 24  1  1  0  0  0
 32 27  1  0  0  0  0
 32 25  1  0  0  0  0
M  END
>  <MODEL>
6

>  <REMARK>
 VINA RESULT:      -8.0      2.946      7.211
  Name = 
  2 active torsions:
  status: ('A' for Active; 'I' for Inactive)
    1  A    between atoms: C_16  and  C_27
    2  A    between atoms: C_27  and  C_32
                            x       y       z     vdW  Elec       q    Type
                         _______ _______ _______ _____ _____    ______ ____

>  <TORSDO>
F 2

$$$$
=
 OpenBabel11052421293D

 32 36  0  0  1  0  0  0  0  0999 V2000
  194.1370  173.1480  140.7430 C   0  0  2  0  0  3  0  0  0  0  0  0
  193.0200  173.0790  144.4160 C   0  0  0  0  0  2  0  0  0  0  0  0
  192.7130  176.1840  143.5770 C   0  0  0  0  0  2  0  0  0  0  0  0
  188.8620  175.0720  146.8840 C   0  0  0  0  0  2  0  0  0  0  0  0
  188.3660  176.5070  146.9970 C   0  0  0  0  0  2  0  0  0  0  0  0
  194.9490  175.1930  144.3210 C   0  0  1  0  0  3  0  0  0  0  0  0
  193.6480  175.7640  146.5230 C   0  0  0  0  0  2  0  0  0  0  0  0
  193.1980  173.3020  141.9310 C   0  0  0  0  0  2  0  0  0  0  0  0
  193.7720  173.3380  145.7160 C   0  0  0  0  0  2  0  0  0  0  0  0
  190.2710  174.9320  147.3620 C   0  0  0  0  0  3  0  0  0  0  0  0
  192.2540  175.9700  146.0140 C   0  0  0  0  0  0  0  0  0  0  0  0
  191.2650  175.4460  146.6920 C   0  0  0  0  0  0  0  0  0  0  0  0
  190.5560  177.1440  144.4670 C   0  0  2  0  0  3  0  0  0  0  0  0
  195.3220  174.0640  140.8640 C   0  0  0  0  0  3  0  0  0  0  0  0
  195.8150  174.4330  142.0550 C   0  0  0  0  0  3  0  0  0  0  0  0
  193.3940  173.4400  139.4560 C   0  0  0  0  0  1  0  0  0  0  0  0
  194.4280  174.7280  145.7070 C   0  0  1  0  0  3  0  0  0  0  0  0
  195.1840  174.0100  143.3640 C   0  0  2  0  0  3  0  0  0  0  0  0
  193.9730  173.0500  143.2190 C   0  0  1  0  0  3  0  0  0  0  0  0
  188.5540  177.2580  145.6880 C   0  0  0  0  0  2  0  0  0  0  0  0
  189.9050  177.7890  145.6010 N   0  0  0  0  0  2  0  0  0  0  0  0
  194.2170  176.3800  143.6730 C   0  0  0  0  0  2  0  0  0  0  0  0
  192.0310  176.8220  144.7830 C   0  0  2  0  0  3  0  0  0  0  0  0
  190.3700  177.9680  143.1750 C   0  0  0  0  0  2  0  0  0  0  0  0
  187.9300  178.4390  142.5620 C   0  0  0  0  0  2  0  0  0  0  0  0
  186.7130  177.8790  141.8760 C   0  0  0  0  0  0  0  0  0  0  0  0
  188.8910  176.1070  142.2550 C   0  0  0  0  0  0  0  0  0  0  0  0
  187.4900  175.6130  142.4820 C   0  0  0  0  0  2  0  0  0  0  0  0
  186.5090  176.5550  141.8380 C   0  0  0  0  0  3  0  0  0  0  0  0
  185.8410  178.7160  141.2580 F   0  0  0  0  0  0  0  0  0  0  0  0
  189.7870  175.3060  142.0420 O   0  0  0  0  0  0  0  0  0  0  0  0
  189.1820  177.5930  142.2730 C   0  0  2  0  0  3  0  0  0  0  0  0
  1 16  1  6  0  0  0
  1 14  1  0  0  0  0
  1  8  1  0  0  0  0
  2  9  1  0  0  0  0
  3 22  1  0  0  0  0
  4  5  1  0  0  0  0
  4 10  1  0  0  0  0
  6 22  1  6  0  0  0
  6 17  1  0  0  0  0
 11  7  1  0  0  0  0
 11 12  2  0  0  0  0
 12 10  2  0  0  0  0
 13 24  1  6  0  0  0
 13 23  1  0  0  0  0
 13 21  1  0  0  0  0
 14 15  2  0  0  0  0
 17  9  1  6  0  0  0
 17  7  1  0  0  0  0
 18 15  1  6  0  0  0
 18  6  1  0  0  0  0
 19  8  1  6  0  0  0
 19 18  1  0  0  0  0
 19  2  1  0  0  0  0
 20  5  1  0  0  0  0
 21 20  1  0  0  0  0
 23  3  1  6  0  0  0
 23 11  1  0  0  0  0
 26 25  1  0  0  0  0
 27 32  1  0  0  0  0
 27 28  1  0  0  0  0
 29 26  2  0  0  0  0
 29 28  1  0  0  0  0
 30 26  1  0  0  0  0
 31 27  2  0  0  0  0
 32 25  1  0  0  0  0
 32 24  1  1  0  0  0
M  END
>  <MODEL>
7

>  <REMARK>
 VINA RESULT:      -7.9      2.480      3.957
  Name = 
  2 active torsions:
  status: ('A' for Active; 'I' for Inactive)
    1  A    between atoms: C_16  and  C_27
    2  A    between atoms: C_27  and  C_32
                            x       y       z     vdW  Elec       q    Type
                         _______ _______ _______ _____ _____    ______ ____

>  <TORSDO>
F 2

$$$$
=
 OpenBabel11052421293D

 32 36  0  0  1  0  0  0  0  0999 V2000
  187.3710  177.6290  142.4970 C   0  0  2  0  0  3  0  0  0  0  0  0
  190.0720  177.9160  145.2110 C   0  0  0  0  0  2  0  0  0  0  0  0
  190.2030  174.8130  144.3220 C   0  0  0  0  0  2  0  0  0  0  0  0
  195.0490  176.3250  145.4270 C   0  0  0  0  0  2  0  0  0  0  0  0
  195.6560  174.9360  145.2910 C   0  0  0  0  0  2  0  0  0  0  0  0
  188.5040  175.6650  146.0330 C   0  0  1  0  0  3  0  0  0  0  0  0
  190.7290  175.2720  147.3610 C   0  0  0  0  0  2  0  0  0  0  0  0
  188.7670  177.5880  143.1030 C   0  0  0  0  0  2  0  0  0  0  0  0
  190.0420  177.6510  146.7120 C   0  0  0  0  0  2  0  0  0  0  0  0
  194.0240  176.3790  146.5120 C   0  0  0  0  0  3  0  0  0  0  0  0
  191.7320  175.1500  146.2560 C   0  0  0  0  0  0  0  0  0  0  0  0
  192.8770  175.7700  146.3890 C   0  0  0  0  0  0  0  0  0  0  0  0
  192.5950  174.0470  144.0890 C   0  0  2  0  0  3  0  0  0  0  0  0
  186.4610  176.6340  143.1610 C   0  0  0  0  0  3  0  0  0  0  0  0
  186.6170  176.2750  144.4430 C   0  0  0  0  0  3  0  0  0  0  0  0
  187.4440  177.3440  141.0120 C   0  0  0  0  0  1  0  0  0  0  0  0
  189.5750  176.2180  147.0110 C   0  0  1  0  0  3  0  0  0  0  0  0
  187.7510  176.7910  145.3010 C   0  0  2  0  0  3  0  0  0  0  0  0
  188.6700  177.8310  144.6050 C   0  0  1  0  0  3  0  0  0  0  0  0
  194.9370  174.1250  144.2240 C   0  0  0  0  0  2  0  0  0  0  0  0
  193.7530  173.4930  144.7820 N   0  0  0  0  0  2  0  0  0  0  0  0
  188.9410  174.5110  145.1140 C   0  0  0  0  0  2  0  0  0  0  0  0
  191.4200  174.2710  145.0630 C   0  0  2  0  0  3  0  0  0  0  0  0
  192.2190  173.1900  142.8610 C   0  0  0  0  0  2  0  0  0  0  0  0
  193.3030  170.8810  142.6510 C   0  0  0  0  0  2  0  0  0  0  0  0
  193.0300  169.4020  142.6180 C   0  0  0  0  0  0  0  0  0  0  0  0
  190.7770  171.1180  142.5110 C   0  0  0  0  0  0  0  0  0  0  0  0
  190.8160  169.8950  141.6380 C   0  0  0  0  0  2  0  0  0  0  0  0
  191.8630  168.9410  142.1450 C   0  0  0  0  0  3  0  0  0  0  0  0
  193.9510  168.5340  143.1090 F   0  0  0  0  0  0  0  0  0  0  0  0
  189.7070  171.6450  142.7660 O   0  0  0  0  0  0  0  0  0  0  0  0
  192.0620  171.6770  143.0870 C   0  0  2  0  0  3  0  0  0  0  0  0
  1 16  1  6  0  0  0
  1  8  1  0  0  0  0
  1 14  1  0  0  0  0
  2  9  1  0  0  0  0
  3 22  1  0  0  0  0
  4 10  1  0  0  0  0
  5  4  1  0  0  0  0
  6 22  1  6  0  0  0
  6 17  1  0  0  0  0
 11 12  2  0  0  0  0
 11  7  1  0  0  0  0
 12 10  2  0  0  0  0
 13 24  1  6  0  0  0
 13 21  1  0  0  0  0
 13 23  1  0  0  0  0
 14 15  2  0  0  0  0
 17  9  1  6  0  0  0
 17  7  1  0  0  0  0
 18 15  1  6  0  0  0
 18  6  1  0  0  0  0
 19  8  1  6  0  0  0
 19  2  1  0  0  0  0
 19 18  1  0  0  0  0
 20 21  1  0  0  0  0
 20  5  1  0  0  0  0
 23  3  1  6  0  0  0
 23 11  1  0  0  0  0
 25 32  1  0  0  0  0
 26 25  1  0  0  0  0
 26 30  1  0  0  0  0
 27 31  2  0  0  0  0
 27 32  1  0  0  0  0
 28 29  1  0  0  0  0
 28 27  1  0  0  0  0
 29 26  2  0  0  0  0
 32 24  1  6  0  0  0
M  END
>  <MODEL>
8

>  <REMARK>
 VINA RESULT:      -7.8      3.238      6.801
  Name = 
  2 active torsions:
  status: ('A' for Active; 'I' for Inactive)
    1  A    between atoms: C_16  and  C_27
    2  A    between atoms: C_27  and  C_32
                            x       y       z     vdW  Elec       q    Type
                         _______ _______ _______ _____ _____    ______ ____

>  <TORSDO>
F 2

$$$$
=
 OpenBabel11052421293D

 32 36  0  0  1  0  0  0  0  0999 V2000
  195.2420  172.4020  141.6910 C   0  0  2  0  0  3  0  0  0  0  0  0
  194.2580  173.5180  145.2310 C   0  0  0  0  0  2  0  0  0  0  0  0
  192.7920  175.6640  143.3130 C   0  0  0  0  0  2  0  0  0  0  0  0
  189.6720  174.8180  147.3820 C   0  0  0  0  0  2  0  0  0  0  0  0
  188.6700  175.9020  147.0080 C   0  0  0  0  0  2  0  0  0  0  0  0
  195.2420  175.9100  144.0020 C   0  0  1  0  0  3  0  0  0  0  0  0
  193.8360  176.8780  145.9900 C   0  0  0  0  0  2  0  0  0  0  0  0
  194.3220  172.7140  142.8640 C   0  0  0  0  0  2  0  0  0  0  0  0
  194.8650  174.5420  146.1830 C   0  0  0  0  0  2  0  0  0  0  0  0
  191.0320  175.3840  147.6350 C   0  0  0  0  0  3  0  0  0  0  0  0
  192.4650  176.3600  145.6800 C   0  0  0  0  0  0  0  0  0  0  0  0
  191.7530  175.8700  146.6630 C   0  0  0  0  0  0  0  0  0  0  0  0
  190.4380  176.1120  144.1040 C   0  0  2  0  0  3  0  0  0  0  0  0
  195.9930  173.6260  141.2480 C   0  0  0  0  0  3  0  0  0  0  0  0
  196.3160  174.6080  142.1010 C   0  0  0  0  0  3  0  0  0  0  0  0
  194.4350  171.8500  140.5350 C   0  0  0  0  0  1  0  0  0  0  0  0
  194.9450  175.9280  145.5250 C   0  0  1  0  0  3  0  0  0  0  0  0
  195.9020  174.5920  143.5560 C   0  0  2  0  0  3  0  0  0  0  0  0
  195.1440  173.3120  144.0000 C   0  0  1  0  0  3  0  0  0  0  0  0
  188.5510  176.0420  145.4980 C   0  0  0  0  0  2  0  0  0  0  0  0
  189.5990  176.9120  144.9880 N   0  0  0  0  0  2  0  0  0  0  0  0
  194.1100  176.3830  143.0740 C   0  0  0  0  0  2  0  0  0  0  0  0
  191.9270  176.4790  144.2700 C   0  0  2  0  0  3  0  0  0  0  0  0
  189.9450  176.1940  142.6430 C   0  0  0  0  0  2  0  0  0  0  0  0
  190.1910  173.8440  141.6580 C   0  0  0  0  0  2  0  0  0  0  0  0
  189.4940  172.7730  140.8640 C   0  0  0  0  0  0  0  0  0  0  0  0
  188.2140  175.2970  141.0000 C   0  0  0  0  0  0  0  0  0  0  0  0
  188.2300  174.5480  139.6980 C   0  0  0  0  0  2  0  0  0  0  0  0
  188.5740  173.1040  139.9470 C   0  0  0  0  0  3  0  0  0  0  0  0
  189.7670  171.4660  141.1070 F   0  0  0  0  0  0  0  0  0  0  0  0
  187.3780  176.1660  141.1870 O   0  0  0  0  0  0  0  0  0  0  0  0
  189.2200  174.9590  142.0810 C   0  0  2  0  0  3  0  0  0  0  0  0
  1 16  1  6  0  0  0
  1  8  1  0  0  0  0
  2  9  1  0  0  0  0
  4 10  1  0  0  0  0
  5  4  1  0  0  0  0
  6 22  1  6  0  0  0
  6 17  1  0  0  0  0
 11  7  1  0  0  0  0
 11 12  2  0  0  0  0
 12 10  2  0  0  0  0
 13 24  1  6  0  0  0
 13 23  1  0  0  0  0
 13 21  1  0  0  0  0
 14  1  1  0  0  0  0
 14 15  2  0  0  0  0
 17  7  1  6  0  0  0
 17  9  1  0  0  0  0
 18 15  1  6  0  0  0
 18 19  1  0  0  0  0
 18  6  1  0  0  0  0
 19  8  1  6  0  0  0
 19  2  1  0  0  0  0
 20  5  1  0  0  0  0
 21 20  1  0  0  0  0
 22  3  1  0  0  0  0
 23  3  1  6  0  0  0
 23 11  1  0  0  0  0
 25 32  1  0  0  0  0
 26 30  1  0  0  0  0
 26 25  1  0  0  0  0
 27 31  2  0  0  0  0
 27 32  1  0  0  0  0
 28 29  1  0  0  0  0
 28 27  1  0  0  0  0
 29 26  2  0  0  0  0
 32 24  1  6  0  0  0
M  END
>  <MODEL>
9

>  <REMARK>
 VINA RESULT:      -7.6      2.436      4.082
  Name = 
  2 active torsions:
  status: ('A' for Active; 'I' for Inactive)
    1  A    between atoms: C_16  and  C_27
    2  A    between atoms: C_27  and  C_32
                            x       y       z     vdW  Elec       q    Type
                         _______ _______ _______ _____ _____    ______ ____

>  <TORSDO>
F 2

$$$$
