=
 OpenBabel11052418123D

 28 31  0  0  1  0  0  0  0  0999 V2000
  189.0810  175.0510  144.7020 C   0  0  0  0  0  0  0  0  0  0  0  0
  186.1850  177.8640  141.4400 C   0  0  0  0  0  2  0  0  0  0  0  0
  187.1170  178.3410  147.6340 O   0  0  0  0  0  1  0  0  0  0  0  0
  184.4670  177.9720  143.2880 C   0  0  2  0  0  3  0  0  0  0  0  0
  186.9280  177.9260  143.8850 C   0  0  2  0  0  3  0  0  0  0  0  0
  183.7790  178.2390  140.9280 C   0  0  0  0  0  0  0  0  0  0  0  0
  185.8880  178.3750  142.8520 C   0  0  1  0  0  3  0  0  0  0  0  0
  185.2480  179.1970  145.3950 C   0  0  0  0  0  2  0  0  0  0  0  0
  183.4280  178.5750  142.3480 C   0  0  0  0  0  2  0  0  0  0  0  0
  187.9760  176.5990  146.2280 C   0  0  0  0  0  0  0  0  0  0  0  0
  187.0890  176.4000  143.9070 C   0  0  0  0  0  2  0  0  0  0  0  0
  184.1580  178.3380  144.7480 C   0  0  0  0  0  2  0  0  0  0  0  0
  189.8460  175.2570  146.9980 C   0  0  0  0  0  3  0  0  0  0  0  0
  186.8650  177.5860  146.4860 C   0  0  2  0  0  3  0  0  0  0  0  0
  188.8550  176.2090  147.2480 C   0  0  0  0  0  3  0  0  0  0  0  0
  182.9140  177.8590  140.1560 O   0  0  0  0  0  0  0  0  0  0  0  0
  185.1830  178.4500  140.4440 C   0  0  0  0  0  2  0  0  0  0  0  0
  186.6300  178.5320  145.2930 C   0  0  1  0  0  3  0  0  0  0  0  0
  189.9580  174.6810  145.7320 C   0  0  0  0  0  3  0  0  0  0  0  0
  188.0790  176.0050  144.9590 C   0  0  0  0  0  0  0  0  0  0  0  0
  189.2000  174.4120  143.3480 C   0  0  2  0  0  3  0  0  0  0  0  0
  189.7150  173.1220  143.4770 O   0  0  0  0  0  1  0  0  0  0  0  0
  190.0810  175.2220  142.3960 C   0  0  0  0  0  2  0  0  0  0  0  0
  192.5020  175.9120  142.7490 C   0  0  0  0  0  1  0  0  0  0  0  0
  191.0430  176.1830  143.1000 C   0  0  1  0  0  3  0  0  0  0  0  0
  190.6530  177.6220  142.9340 C   0  0  0  0  0  0  0  0  0  0  0  0
  191.3190  178.5970  143.6650 O   0  0  0  0  0  1  0  0  0  0  0  0
  189.7150  177.9560  142.1640 O   0  0  0  0  0  0  0  0  0  0  0  0
  1 20  2  0  0  0  0
  1 19  1  0  0  0  0
  4  9  1  6  0  0  0
  4 12  1  0  0  0  0
  5 11  1  1  0  0  0
  5 18  1  0  0  0  0
  6  9  1  0  0  0  0
  7  2  1  6  0  0  0
  7  4  1  0  0  0  0
  7  5  1  0  0  0  0
 10 14  1  0  0  0  0
 10 15  2  0  0  0  0
 11 20  1  0  0  0  0
 12  8  1  0  0  0  0
 13 15  1  0  0  0  0
 14  3  1  1  0  0  0
 16  6  2  0  0  0  0
 17  6  1  0  0  0  0
 17  2  1  0  0  0  0
 18  8  1  6  0  0  0
 18 14  1  0  0  0  0
 19 13  2  0  0  0  0
 20 10  1  0  0  0  0
 21 22  1  1  0  0  0
 21  1  1  0  0  0  0
 23 25  1  0  0  0  0
 23 21  1  0  0  0  0
 25 24  1  6  0  0  0
 26 25  1  0  0  0  0
 26 27  1  0  0  0  0
 28 26  2  0  0  0  0
M  END
>  <MODEL>
1

>  <REMARK>
 VINA RESULT:      -8.0      0.000      0.000
  Name = 
  4 active torsions:
  status: ('A' for Active; 'I' for Inactive)
    1  A    between atoms: C_1  and  C_2
    2  A    between atoms: C_2  and  C_3
    3  A    between atoms: C_3  and  C_11
    4  A    between atoms: C_6  and  C_11
                            x       y       z     vdW  Elec       q    Type
                         _______ _______ _______ _____ _____    ______ ____

>  <TORSDO>
F 4

$$$$
=
 OpenBabel11052418123D

 28 31  0  0  1  0  0  0  0  0999 V2000
  187.3760  176.9350  142.9450 C   0  0  0  0  0  0  0  0  0  0  0  0
  191.7410  174.2630  143.8060 C   0  0  0  0  0  2  0  0  0  0  0  0
  187.1430  176.0710  147.6860 O   0  0  0  0  0  1  0  0  0  0  0  0
  191.9230  175.5400  145.9780 C   0  0  2  0  0  3  0  0  0  0  0  0
  189.6310  174.9500  145.0750 C   0  0  2  0  0  3  0  0  0  0  0  0
  193.9450  174.5930  144.9150 C   0  0  0  0  0  0  0  0  0  0  0  0
  191.0990  174.5190  145.1720 C   0  0  1  0  0  3  0  0  0  0  0  0
  190.0220  175.0980  147.6340 C   0  0  0  0  0  2  0  0  0  0  0  0
  193.3360  175.0180  146.2190 C   0  0  0  0  0  2  0  0  0  0  0  0
  187.3150  176.6530  145.3650 C   0  0  0  0  0  0  0  0  0  0  0  0
  189.4570  176.1840  144.1800 C   0  0  0  0  0  2  0  0  0  0  0  0
  191.2570  175.9420  147.3030 C   0  0  0  0  0  2  0  0  0  0  0  0
  185.3450  177.4320  144.1820 C   0  0  0  0  0  3  0  0  0  0  0  0
  188.0420  176.3240  146.6470 C   0  0  2  0  0  3  0  0  0  0  0  0
  185.9820  177.0860  145.3750 C   0  0  0  0  0  3  0  0  0  0  0  0
  195.0940  174.9030  144.6460 O   0  0  0  0  0  0  0  0  0  0  0  0
  193.1600  173.7190  143.9820 C   0  0  0  0  0  2  0  0  0  0  0  0
  188.9950  175.1240  146.4900 C   0  0  1  0  0  3  0  0  0  0  0  0
  186.0380  177.3570  142.9730 C   0  0  0  0  0  3  0  0  0  0  0  0
  188.0170  176.5950  144.1500 C   0  0  0  0  0  0  0  0  0  0  0  0
  188.1170  176.8740  141.6400 C   0  0  2  0  0  3  0  0  0  0  0  0
  187.8760  178.0350  140.9040 O   0  0  0  0  0  1  0  0  0  0  0  0
  187.7330  175.6510  140.8070 C   0  0  0  0  0  2  0  0  0  0  0  0
  188.1750  173.4350  141.9700 C   0  0  0  0  0  1  0  0  0  0  0  0
  188.6850  174.4620  140.9660 C   0  0  1  0  0  3  0  0  0  0  0  0
  189.0850  173.8580  139.6530 C   0  0  0  0  0  0  0  0  0  0  0  0
  188.1070  173.5530  138.7160 O   0  0  0  0  0  0  0  0  0  0  0  0
  190.2910  173.5990  139.3980 O   0  0  0  0  0  1  0  0  0  0  0  0
  1 19  2  0  0  0  0
  1 20  1  0  0  0  0
  2 17  1  0  0  0  0
  4  9  1  1  0  0  0
  4 12  1  0  0  0  0
  5 11  1  1  0  0  0
  5  7  1  0  0  0  0
  5 18  1  0  0  0  0
  6  9  1  0  0  0  0
  7  2  1  6  0  0  0
  7  4  1  0  0  0  0
 10 15  1  0  0  0  0
 10 14  1  0  0  0  0
 12  8  1  0  0  0  0
 13 15  2  0  0  0  0
 14  3  1  1  0  0  0
 16  6  2  0  0  0  0
 17  6  1  0  0  0  0
 18 14  1  0  0  0  0
 18  8  1  1  0  0  0
 19 13  1  0  0  0  0
 20 11  1  0  0  0  0
 20 10  2  0  0  0  0
 21 22  1  6  0  0  0
 21  1  1  0  0  0  0
 23 25  1  0  0  0  0
 23 21  1  0  0  0  0
 25 24  1  1  0  0  0
 26 25  1  0  0  0  0
 27 26  2  0  0  0  0
 28 26  1  0  0  0  0
M  END
>  <MODEL>
2

>  <REMARK>
 VINA RESULT:      -7.6      2.433      6.409
  Name = 
  4 active torsions:
  status: ('A' for Active; 'I' for Inactive)
    1  A    between atoms: C_1  and  C_2
    2  A    between atoms: C_2  and  C_3
    3  A    between atoms: C_3  and  C_11
    4  A    between atoms: C_6  and  C_11
                            x       y       z     vdW  Elec       q    Type
                         _______ _______ _______ _____ _____    ______ ____

>  <TORSDO>
F 4

$$$$
=
 OpenBabel11052418123D

 28 31  0  0  1  0  0  0  0  0999 V2000
  186.0460  177.4750  141.9980 C   0  0  0  0  0  0  0  0  0  0  0  0
  189.4840  175.4070  145.2910 C   0  0  0  0  0  2  0  0  0  0  0  0
  184.0940  178.4740  146.2960 O   0  0  0  0  0  1  0  0  0  0  0  0
  189.0650  177.4170  146.7630 C   0  0  2  0  0  3  0  0  0  0  0  0
  187.1680  176.4880  145.3650 C   0  0  2  0  0  3  0  0  0  0  0  0
  191.1960  176.1720  146.9280 C   0  0  0  0  0  0  0  0  0  0  0  0
  188.4480  176.1520  146.1380 C   0  0  1  0  0  3  0  0  0  0  0  0
  186.6720  177.6040  147.6510 C   0  0  0  0  0  2  0  0  0  0  0  0
  190.2330  177.0500  147.6730 C   0  0  0  0  0  2  0  0  0  0  0  0
  185.1230  178.1330  144.1560 C   0  0  0  0  0  0  0  0  0  0  0  0
  187.4660  177.2850  144.0880 C   0  0  0  0  0  2  0  0  0  0  0  0
  188.0390  178.2800  147.5130 C   0  0  0  0  0  2  0  0  0  0  0  0
  183.7920  178.3690  142.1410 C   0  0  0  0  0  3  0  0  0  0  0  0
  185.3190  178.3290  145.6400 C   0  0  2  0  0  3  0  0  0  0  0  0
  183.9320  178.5140  143.5230 C   0  0  0  0  0  3  0  0  0  0  0  0
  192.3960  176.3770  147.0040 O   0  0  0  0  0  0  0  0  0  0  0  0
  190.6770  174.9950  146.1550 C   0  0  0  0  0  2  0  0  0  0  0  0
  186.1120  177.1760  146.2850 C   0  0  1  0  0  3  0  0  0  0  0  0
  184.8430  177.8520  141.3830 C   0  0  0  0  0  3  0  0  0  0  0  0
  186.1870  177.6290  143.3900 C   0  0  0  0  0  0  0  0  0  0  0  0
  187.1760  176.9350  141.1700 C   0  0  2  0  0  3  0  0  0  0  0  0
  186.9520  177.2170  139.8220 O   0  0  0  0  0  1  0  0  0  0  0  0
  187.3670  175.4280  141.3530 C   0  0  0  0  0  2  0  0  0  0  0  0
  189.6300  174.3570  141.7900 C   0  0  0  0  0  1  0  0  0  0  0  0
  188.6600  174.8830  140.7390 C   0  0  1  0  0  3  0  0  0  0  0  0
  188.4100  173.9110  139.6250 C   0  0  0  0  0  0  0  0  0  0  0  0
  188.0040  174.3850  138.3850 O   0  0  0  0  0  0  0  0  0  0  0  0
  188.5370  172.6710  139.8040 O   0  0  0  0  0  1  0  0  0  0  0  0
  1 20  1  0  0  0  0
  2 17  1  0  0  0  0
  4 12  1  1  0  0  0
  4  9  1  0  0  0  0
  5 11  1  6  0  0  0
  5  7  1  0  0  0  0
  5 18  1  0  0  0  0
  6 16  2  0  0  0  0
  6  9  1  0  0  0  0
  7  2  1  6  0  0  0
  7  4  1  0  0  0  0
 10 14  1  0  0  0  0
 12  8  1  0  0  0  0
 13 15  2  0  0  0  0
 14 18  1  0  0  0  0
 14  3  1  1  0  0  0
 15 10  1  0  0  0  0
 17  6  1  0  0  0  0
 18  8  1  1  0  0  0
 19  1  2  0  0  0  0
 19 13  1  0  0  0  0
 20 11  1  0  0  0  0
 20 10  2  0  0  0  0
 21 22  1  6  0  0  0
 21 23  1  0  0  0  0
 21  1  1  0  0  0  0
 25 23  1  0  0  0  0
 25 24  1  1  0  0  0
 26 28  1  0  0  0  0
 26 25  1  0  0  0  0
 27 26  2  0  0  0  0
M  END
>  <MODEL>
3

>  <REMARK>
 VINA RESULT:      -7.6      2.206      5.826
  Name = 
  4 active torsions:
  status: ('A' for Active; 'I' for Inactive)
    1  A    between atoms: C_1  and  C_2
    2  A    between atoms: C_2  and  C_3
    3  A    between atoms: C_3  and  C_11
    4  A    between atoms: C_6  and  C_11
                            x       y       z     vdW  Elec       q    Type
                         _______ _______ _______ _____ _____    ______ ____

>  <TORSDO>
F 4

$$$$
=
 OpenBabel11052418123D

 28 31  0  0  1  0  0  0  0  0999 V2000
  192.1430  175.4420  144.4810 C   0  0  0  0  0  0  0  0  0  0  0  0
  187.3740  177.3700  145.1740 C   0  0  0  0  0  2  0  0  0  0  0  0
  189.7880  173.7980  140.6050 O   0  0  0  0  0  1  0  0  0  0  0  0
  187.3260  177.7580  142.6780 C   0  0  2  0  0  3  0  0  0  0  0  0
  188.5810  175.7590  143.5980 C   0  0  2  0  0  3  0  0  0  0  0  0
  185.9010  179.1130  144.1790 C   0  0  0  0  0  0  0  0  0  0  0  0
  187.3880  176.7010  143.7970 C   0  0  1  0  0  3  0  0  0  0  0  0
  187.4520  175.6260  141.2680 C   0  0  0  0  0  2  0  0  0  0  0  0
  186.0420  178.5750  142.7850 C   0  0  0  0  0  2  0  0  0  0  0  0
  191.0210  174.7360  142.4360 C   0  0  0  0  0  0  0  0  0  0  0  0
  189.9180  176.4720  143.8430 C   0  0  0  0  0  2  0  0  0  0  0  0
  187.4740  177.1570  141.2720 C   0  0  0  0  0  2  0  0  0  0  0  0
  193.1810  173.8000  143.0230 C   0  0  0  0  0  3  0  0  0  0  0  0
  189.8610  174.8830  141.4820 C   0  0  2  0  0  3  0  0  0  0  0  0
  192.0960  173.8830  142.1490 C   0  0  0  0  0  3  0  0  0  0  0  0
  185.5680  180.2720  144.3580 O   0  0  0  0  0  0  0  0  0  0  0  0
  186.0970  178.1940  145.3490 C   0  0  0  0  0  2  0  0  0  0  0  0
  188.5140  175.0410  142.2130 C   0  0  1  0  0  3  0  0  0  0  0  0
  193.2050  174.5750  144.1840 C   0  0  0  0  0  3  0  0  0  0  0  0
  191.0540  175.5290  143.5950 C   0  0  0  0  0  0  0  0  0  0  0  0
  192.1870  176.2840  145.7240 C   0  0  2  0  0  3  0  0  0  0  0  0
  193.4450  176.8730  145.8530 O   0  0  0  0  0  1  0  0  0  0  0  0
  191.8660  175.4810  146.9860 C   0  0  0  0  0  2  0  0  0  0  0  0
  190.1800  177.3210  147.4650 C   0  0  0  0  0  1  0  0  0  0  0  0
  190.5290  175.8470  147.6370 C   0  0  1  0  0  3  0  0  0  0  0  0
  189.4170  174.9250  147.2380 C   0  0  0  0  0  0  0  0  0  0  0  0
  189.6880  173.8520  146.4000 O   0  0  0  0  0  0  0  0  0  0  0  0
  188.2360  175.1240  147.6290 O   0  0  0  0  0  1  0  0  0  0  0  0
  1 21  1  0  0  0  0
  2 17  1  0  0  0  0
  4 12  1  6  0  0  0
  4  9  1  0  0  0  0
  4  7  1  0  0  0  0
  5  7  1  0  0  0  0
  5 11  1  6  0  0  0
  6 16  2  0  0  0  0
  6 17  1  0  0  0  0
  7  2  1  1  0  0  0
  8 12  1  0  0  0  0
  9  6  1  0  0  0  0
 10 20  1  0  0  0  0
 13 19  2  0  0  0  0
 14  3  1  6  0  0  0
 14 18  1  0  0  0  0
 14 10  1  0  0  0  0
 15 10  2  0  0  0  0
 15 13  1  0  0  0  0
 18  8  1  6  0  0  0
 18  5  1  0  0  0  0
 19  1  1  0  0  0  0
 20 11  1  0  0  0  0
 20  1  2  0  0  0  0
 21 22  1  1  0  0  0
 21 23  1  0  0  0  0
 23 25  1  0  0  0  0
 25 24  1  6  0  0  0
 26 28  1  0  0  0  0
 26 25  1  0  0  0  0
 27 26  2  0  0  0  0
M  END
>  <MODEL>
4

>  <REMARK>
 VINA RESULT:      -7.6      2.242      4.946
  Name = 
  4 active torsions:
  status: ('A' for Active; 'I' for Inactive)
    1  A    between atoms: C_1  and  C_2
    2  A    between atoms: C_2  and  C_3
    3  A    between atoms: C_3  and  C_11
    4  A    between atoms: C_6  and  C_11
                            x       y       z     vdW  Elec       q    Type
                         _______ _______ _______ _____ _____    ______ ____

>  <TORSDO>
F 4

$$$$
=
 OpenBabel11052418123D

 28 31  0  0  1  0  0  0  0  0999 V2000
  189.3430  174.2580  143.6390 C   0  0  0  0  0  0  0  0  0  0  0  0
  186.2930  177.4820  140.9480 C   0  0  0  0  0  2  0  0  0  0  0  0
  188.2400  177.6200  146.9200 O   0  0  0  0  0  1  0  0  0  0  0  0
  184.9110  177.6970  143.0510 C   0  0  2  0  0  3  0  0  0  0  0  0
  187.4160  177.3720  143.2420 C   0  0  2  0  0  3  0  0  0  0  0  0
  183.8910  178.1250  140.8390 C   0  0  0  0  0  0  0  0  0  0  0  0
  186.2800  177.9660  142.4000 C   0  0  1  0  0  3  0  0  0  0  0  0
  186.1450  178.7520  145.0310 C   0  0  0  0  0  2  0  0  0  0  0  0
  183.8080  178.4410  142.3040 C   0  0  0  0  0  2  0  0  0  0  0  0
  188.6700  175.8530  145.3560 C   0  0  0  0  0  0  0  0  0  0  0  0
  187.4100  175.8380  143.2050 C   0  0  0  0  0  2  0  0  0  0  0  0
  184.8790  178.0360  144.5500 C   0  0  0  0  0  2  0  0  0  0  0  0
  190.4800  174.2950  145.7860 C   0  0  0  0  0  3  0  0  0  0  0  0
  187.7280  176.9400  145.8110 C   0  0  2  0  0  3  0  0  0  0  0  0
  189.6520  175.3340  146.2120 C   0  0  0  0  0  3  0  0  0  0  0  0
  182.8780  177.8680  140.2100 O   0  0  0  0  0  0  0  0  0  0  0  0
  185.2150  178.2060  140.1390 C   0  0  0  0  0  2  0  0  0  0  0  0
  187.4120  177.9510  144.6920 C   0  0  1  0  0  3  0  0  0  0  0  0
  190.3270  173.7590  144.5060 C   0  0  0  0  0  3  0  0  0  0  0  0
  188.5050  175.3010  144.0740 C   0  0  0  0  0  0  0  0  0  0  0  0
  189.1770  173.6630  142.2700 C   0  0  2  0  0  3  0  0  0  0  0  0
  189.0740  172.2750  142.3670 O   0  0  0  0  0  1  0  0  0  0  0  0
  190.3270  174.0270  141.3310 C   0  0  0  0  0  2  0  0  0  0  0  0
  190.7280  172.2920  139.5180 C   0  0  0  0  0  1  0  0  0  0  0  0
  190.0910  173.6310  139.8700 C   0  0  1  0  0  3  0  0  0  0  0  0
  188.6500  173.7240  139.4690 C   0  0  0  0  0  0  0  0  0  0  0  0
  187.9250  172.5600  139.2530 O   0  0  0  0  0  0  0  0  0  0  0  0
  188.0930  174.8410  139.2980 O   0  0  0  0  0  1  0  0  0  0  0  0
  1 20  2  0  0  0  0
  1 19  1  0  0  0  0
  4  9  1  6  0  0  0
  4 12  1  0  0  0  0
  5 11  1  1  0  0  0
  5 18  1  0  0  0  0
  6  9  1  0  0  0  0
  7  2  1  6  0  0  0
  7  4  1  0  0  0  0
  7  5  1  0  0  0  0
 10 14  1  0  0  0  0
 10 15  2  0  0  0  0
 11 20  1  0  0  0  0
 12  8  1  0  0  0  0
 13 15  1  0  0  0  0
 14  3  1  1  0  0  0
 16  6  2  0  0  0  0
 17  6  1  0  0  0  0
 17  2  1  0  0  0  0
 18  8  1  1  0  0  0
 18 14  1  0  0  0  0
 19 13  2  0  0  0  0
 20 10  1  0  0  0  0
 21 22  1  1  0  0  0
 21  1  1  0  0  0  0
 23 21  1  0  0  0  0
 25 24  1  1  0  0  0
 25 23  1  0  0  0  0
 26 25  1  0  0  0  0
 27 26  2  0  0  0  0
 28 26  1  0  0  0  0
M  END
>  <MODEL>
5

>  <REMARK>
 VINA RESULT:      -7.5      1.896      2.631
  Name = 
  4 active torsions:
  status: ('A' for Active; 'I' for Inactive)
    1  A    between atoms: C_1  and  C_2
    2  A    between atoms: C_2  and  C_3
    3  A    between atoms: C_3  and  C_11
    4  A    between atoms: C_6  and  C_11
                            x       y       z     vdW  Elec       q    Type
                         _______ _______ _______ _____ _____    ______ ____

>  <TORSDO>
F 4

$$$$
=
 OpenBabel11052418123D

 28 31  0  0  1  0  0  0  0  0999 V2000
  185.9750  177.3320  145.7430 C   0  0  0  0  0  0  0  0  0  0  0  0
  190.1090  175.5930  143.1300 C   0  0  0  0  0  2  0  0  0  0  0  0
  184.9680  178.6530  141.2130 O   0  0  0  0  0  1  0  0  0  0  0  0
  188.4990  174.9690  141.2860 C   0  0  2  0  0  3  0  0  0  0  0  0
  188.0290  177.0170  142.7020 C   0  0  2  0  0  3  0  0  0  0  0  0
  190.6680  173.7990  141.4980 C   0  0  0  0  0  0  0  0  0  0  0  0
  189.1180  176.1260  142.0920 C   0  0  1  0  0  3  0  0  0  0  0  0
  187.2840  176.9530  140.2190 C   0  0  0  0  0  2  0  0  0  0  0  0
  189.5830  174.1970  140.5400 C   0  0  0  0  0  2  0  0  0  0  0  0
  185.3680  177.8660  143.4430 C   0  0  0  0  0  0  0  0  0  0  0  0
  187.2690  176.2990  143.8250 C   0  0  0  0  0  2  0  0  0  0  0  0
  187.3960  175.4290  140.3210 C   0  0  0  0  0  2  0  0  0  0  0  0
  184.0960  178.8020  145.2850 C   0  0  0  0  0  3  0  0  0  0  0  0
  185.5930  177.6550  141.9650 C   0  0  2  0  0  3  0  0  0  0  0  0
  184.3140  178.6620  143.9130 C   0  0  0  0  0  3  0  0  0  0  0  0
  191.1290  172.6700  141.4670 O   0  0  0  0  0  0  0  0  0  0  0  0
  191.2340  174.8200  142.4400 C   0  0  0  0  0  2  0  0  0  0  0  0
  187.0890  177.6000  141.6000 C   0  0  1  0  0  3  0  0  0  0  0  0
  184.9220  178.1410  146.1950 C   0  0  0  0  0  3  0  0  0  0  0  0
  186.1880  177.1870  144.3590 C   0  0  0  0  0  0  0  0  0  0  0  0
  186.8470  176.6120  146.7310 C   0  0  2  0  0  3  0  0  0  0  0  0
  186.3010  176.7210  148.0110 O   0  0  0  0  0  1  0  0  0  0  0  0
  188.2820  177.1430  146.7400 C   0  0  0  0  0  2  0  0  0  0  0  0
  189.2050  174.7790  146.6040 C   0  0  0  0  0  1  0  0  0  0  0  0
  189.3140  176.1450  147.2720 C   0  0  1  0  0  3  0  0  0  0  0  0
  190.7090  176.6940  147.2700 C   0  0  0  0  0  0  0  0  0  0  0  0
  191.4320  176.7140  146.0840 O   0  0  0  0  0  0  0  0  0  0  0  0
  191.2440  177.1140  148.3300 O   0  0  0  0  0  1  0  0  0  0  0  0
  1 19  1  0  0  0  0
  1 21  1  0  0  0  0
  4 12  1  6  0  0  0
  4  7  1  0  0  0  0
  5 11  1  1  0  0  0
  6 17  1  0  0  0  0
  7  5  1  0  0  0  0
  7  2  1  1  0  0  0
  8 12  1  0  0  0  0
  9  4  1  0  0  0  0
  9  6  1  0  0  0  0
 10 15  2  0  0  0  0
 10 20  1  0  0  0  0
 11 20  1  0  0  0  0
 13 19  2  0  0  0  0
 14  3  1  6  0  0  0
 14 10  1  0  0  0  0
 15 13  1  0  0  0  0
 16  6  2  0  0  0  0
 17  2  1  0  0  0  0
 18  8  1  6  0  0  0
 18 14  1  0  0  0  0
 18  5  1  0  0  0  0
 20  1  2  0  0  0  0
 21 23  1  0  0  0  0
 21 22  1  1  0  0  0
 23 25  1  0  0  0  0
 25 24  1  6  0  0  0
 26 25  1  0  0  0  0
 26 28  1  0  0  0  0
 27 26  2  0  0  0  0
M  END
>  <MODEL>
6

>  <REMARK>
 VINA RESULT:      -7.5      1.779      5.602
  Name = 
  4 active torsions:
  status: ('A' for Active; 'I' for Inactive)
    1  A    between atoms: C_1  and  C_2
    2  A    between atoms: C_2  and  C_3
    3  A    between atoms: C_3  and  C_11
    4  A    between atoms: C_6  and  C_11
                            x       y       z     vdW  Elec       q    Type
                         _______ _______ _______ _____ _____    ______ ____

>  <TORSDO>
F 4

$$$$
=
 OpenBabel11052418123D

 28 31  0  0  1  0  0  0  0  0999 V2000
  188.7010  176.8480  144.0930 C   0  0  0  0  0  0  0  0  0  0  0  0
  193.3200  175.3300  142.2770 C   0  0  0  0  0  2  0  0  0  0  0  0
  191.1330  175.8660  148.1420 O   0  0  0  0  0  1  0  0  0  0  0  0
  194.3330  176.5710  144.2290 C   0  0  2  0  0  3  0  0  0  0  0  0
  192.0810  175.4460  144.5100 C   0  0  2  0  0  3  0  0  0  0  0  0
  195.6580  176.1760  142.1780 C   0  0  0  0  0  0  0  0  0  0  0  0
  193.4390  175.3920  143.8010 C   0  0  1  0  0  3  0  0  0  0  0  0
  193.6980  175.6390  146.5270 C   0  0  0  0  0  2  0  0  0  0  0  0
  195.7390  176.4120  143.6580 C   0  0  0  0  0  2  0  0  0  0  0  0
  189.9590  176.5150  146.1540 C   0  0  0  0  0  0  0  0  0  0  0  0
  191.2220  176.6140  144.0070 C   0  0  0  0  0  2  0  0  0  0  0  0
  194.3820  176.7700  145.7510 C   0  0  0  0  0  2  0  0  0  0  0  0
  187.5500  176.8010  146.2320 C   0  0  0  0  0  3  0  0  0  0  0  0
  191.2920  176.3530  146.8420 C   0  0  2  0  0  3  0  0  0  0  0  0
  188.7670  176.6030  146.8870 C   0  0  0  0  0  3  0  0  0  0  0  0
  196.4110  176.7670  141.4220 O   0  0  0  0  0  0  0  0  0  0  0  0
  194.7010  175.1520  141.6440 C   0  0  0  0  0  2  0  0  0  0  0  0
  192.2480  175.4310  146.0620 C   0  0  1  0  0  3  0  0  0  0  0  0
  187.5170  176.9230  144.8410 C   0  0  0  0  0  3  0  0  0  0  0  0
  189.9260  176.6550  144.7560 C   0  0  0  0  0  0  0  0  0  0  0  0
  188.6550  176.9980  142.5990 C   0  0  2  0  0  3  0  0  0  0  0  0
  188.9990  178.3020  142.2430 O   0  0  0  0  0  1  0  0  0  0  0  0
  187.2820  176.6540  142.0190 C   0  0  0  0  0  2  0  0  0  0  0  0
  186.0860  177.5720  139.9730 C   0  0  0  0  0  1  0  0  0  0  0  0
  186.5500  177.8480  141.3980 C   0  0  1  0  0  3  0  0  0  0  0  0
  185.4630  178.3860  142.2800 C   0  0  0  0  0  0  0  0  0  0  0  0
  185.7460  179.4280  143.1520 O   0  0  0  0  0  1  0  0  0  0  0  0
  184.3050  177.8900  142.2610 O   0  0  0  0  0  0  0  0  0  0  0  0
  1 20  2  0  0  0  0
  1 19  1  0  0  0  0
  4  9  1  1  0  0  0
  4 12  1  0  0  0  0
  5 11  1  1  0  0  0
  5 18  1  0  0  0  0
  6  9  1  0  0  0  0
  7  2  1  6  0  0  0
  7  4  1  0  0  0  0
  7  5  1  0  0  0  0
 10 14  1  0  0  0  0
 10 15  2  0  0  0  0
 11 20  1  0  0  0  0
 12  8  1  0  0  0  0
 13 15  1  0  0  0  0
 14  3  1  1  0  0  0
 16  6  2  0  0  0  0
 17  6  1  0  0  0  0
 17  2  1  0  0  0  0
 18  8  1  6  0  0  0
 18 14  1  0  0  0  0
 19 13  2  0  0  0  0
 20 10  1  0  0  0  0
 21 22  1  1  0  0  0
 21  1  1  0  0  0  0
 23 21  1  0  0  0  0
 25 24  1  6  0  0  0
 25 23  1  0  0  0  0
 25 26  1  0  0  0  0
 26 27  1  0  0  0  0
 28 26  2  0  0  0  0
M  END
>  <MODEL>
7

>  <REMARK>
 VINA RESULT:      -7.5      2.550      7.051
  Name = 
  4 active torsions:
  status: ('A' for Active; 'I' for Inactive)
    1  A    between atoms: C_1  and  C_2
    2  A    between atoms: C_2  and  C_3
    3  A    between atoms: C_3  and  C_11
    4  A    between atoms: C_6  and  C_11
                            x       y       z     vdW  Elec       q    Type
                         _______ _______ _______ _____ _____    ______ ____

>  <TORSDO>
F 4

$$$$
=
 OpenBabel11052418123D

 28 31  0  0  1  0  0  0  0  0999 V2000
  188.7810  177.1680  144.0840 C   0  0  0  0  0  0  0  0  0  0  0  0
  193.3400  175.3230  142.4260 C   0  0  0  0  0  2  0  0  0  0  0  0
  191.1580  176.4180  148.2150 O   0  0  0  0  0  1  0  0  0  0  0  0
  194.3970  176.6760  144.2790 C   0  0  2  0  0  3  0  0  0  0  0  0
  192.1000  175.6690  144.6350 C   0  0  2  0  0  3  0  0  0  0  0  0
  195.7110  176.0640  142.2760 C   0  0  0  0  0  0  0  0  0  0  0  0
  193.4570  175.5040  143.9420 C   0  0  1  0  0  3  0  0  0  0  0  0
  193.7170  175.9590  146.6400 C   0  0  0  0  0  2  0  0  0  0  0  0
  195.7970  176.4150  143.7330 C   0  0  0  0  0  2  0  0  0  0  0  0
  190.0170  176.9510  146.1730 C   0  0  0  0  0  0  0  0  0  0  0  0
  191.2910  176.8270  144.0340 C   0  0  0  0  0  2  0  0  0  0  0  0
  194.4480  176.9940  145.7810 C   0  0  0  0  0  2  0  0  0  0  0  0
  187.6220  177.3400  146.2120 C   0  0  0  0  0  3  0  0  0  0  0  0
  191.3400  176.7920  146.8810 C   0  0  2  0  0  3  0  0  0  0  0  0
  188.8270  177.1460  146.8890 C   0  0  0  0  0  3  0  0  0  0  0  0
  196.4900  176.5620  141.4790 O   0  0  0  0  0  0  0  0  0  0  0  0
  194.7150  175.0400  141.8190 C   0  0  0  0  0  2  0  0  0  0  0  0
  192.2610  175.7720  146.1840 C   0  0  1  0  0  3  0  0  0  0  0  0
  187.5980  177.3520  144.8160 C   0  0  0  0  0  3  0  0  0  0  0  0
  189.9950  176.9810  144.7690 C   0  0  0  0  0  0  0  0  0  0  0  0
  188.7460  177.1990  142.5830 C   0  0  2  0  0  3  0  0  0  0  0  0
  187.9950  178.2920  142.1490 O   0  0  0  0  0  1  0  0  0  0  0  0
  188.1720  175.9130  141.9850 C   0  0  0  0  0  2  0  0  0  0  0  0
  189.2590  173.8100  142.9080 C   0  0  0  0  0  1  0  0  0  0  0  0
  189.2110  174.8110  141.7600 C   0  0  1  0  0  3  0  0  0  0  0  0
  189.0860  174.1610  140.4140 C   0  0  0  0  0  0  0  0  0  0  0  0
  189.9900  173.1730  140.0480 O   0  0  0  0  0  1  0  0  0  0  0  0
  188.1930  174.5160  139.6010 O   0  0  0  0  0  0  0  0  0  0  0  0
  1 20  2  0  0  0  0
  1 19  1  0  0  0  0
  4  9  1  1  0  0  0
  4 12  1  0  0  0  0
  5 11  1  6  0  0  0
  5 18  1  0  0  0  0
  6  9  1  0  0  0  0
  7  2  1  6  0  0  0
  7  4  1  0  0  0  0
  7  5  1  0  0  0  0
 10 14  1  0  0  0  0
 10 15  2  0  0  0  0
 11 20  1  0  0  0  0
 12  8  1  0  0  0  0
 13 15  1  0  0  0  0
 14  3  1  1  0  0  0
 16  6  2  0  0  0  0
 17  6  1  0  0  0  0
 17  2  1  0  0  0  0
 18  8  1  6  0  0  0
 18 14  1  0  0  0  0
 19 13  2  0  0  0  0
 20 10  1  0  0  0  0
 21 22  1  1  0  0  0
 21  1  1  0  0  0  0
 23 21  1  0  0  0  0
 25 23  1  0  0  0  0
 25 24  1  1  0  0  0
 26 25  1  0  0  0  0
 27 26  1  0  0  0  0
 28 26  2  0  0  0  0
M  END
>  <MODEL>
8

>  <REMARK>
 VINA RESULT:      -7.5      2.857      6.922
  Name = 
  4 active torsions:
  status: ('A' for Active; 'I' for Inactive)
    1  A    between atoms: C_1  and  C_2
    2  A    between atoms: C_2  and  C_3
    3  A    between atoms: C_3  and  C_11
    4  A    between atoms: C_6  and  C_11
                            x       y       z     vdW  Elec       q    Type
                         _______ _______ _______ _____ _____    ______ ____

>  <TORSDO>
F 4

$$$$
=
 OpenBabel11052418123D

 28 31  0  0  1  0  0  0  0  0999 V2000
  187.9160  175.6330  142.8630 C   0  0  0  0  0  0  0  0  0  0  0  0
  192.2790  173.7570  144.9560 C   0  0  0  0  0  2  0  0  0  0  0  0
  187.8460  177.5470  147.2910 O   0  0  0  0  0  1  0  0  0  0  0  0
  192.5550  176.0170  146.0500 C   0  0  2  0  0  3  0  0  0  0  0  0
  190.2250  175.0940  145.6820 C   0  0  2  0  0  3  0  0  0  0  0  0
  194.5260  174.5800  145.6430 C   0  0  0  0  0  0  0  0  0  0  0  0
  191.6900  174.7450  145.9660 C   0  0  1  0  0  3  0  0  0  0  0  0
  190.7100  176.6230  147.7190 C   0  0  0  0  0  2  0  0  0  0  0  0
  193.9690  175.6740  146.5060 C   0  0  0  0  0  2  0  0  0  0  0  0
  187.9400  176.7400  145.0340 C   0  0  0  0  0  0  0  0  0  0  0  0
  190.0320  175.6290  144.2570 C   0  0  0  0  0  2  0  0  0  0  0  0
  191.9410  177.1050  146.9450 C   0  0  0  0  0  2  0  0  0  0  0  0
  185.9370  176.7910  143.6660 C   0  0  0  0  0  3  0  0  0  0  0  0
  188.7100  177.1550  146.2650 C   0  0  2  0  0  3  0  0  0  0  0  0
  186.6130  177.1460  144.8350 C   0  0  0  0  0  3  0  0  0  0  0  0
  195.6670  174.6550  145.2190 O   0  0  0  0  0  0  0  0  0  0  0  0
  193.6970  173.3600  145.3700 C   0  0  0  0  0  2  0  0  0  0  0  0
  189.6430  176.0410  146.7780 C   0  0  1  0  0  3  0  0  0  0  0  0
  186.5850  176.0390  142.6850 C   0  0  0  0  0  3  0  0  0  0  0  0
  188.5970  175.9980  144.0390 C   0  0  0  0  0  0  0  0  0  0  0  0
  188.6090  174.8370  141.7940 C   0  0  2  0  0  3  0  0  0  0  0  0
  188.1940  175.2750  140.5350 O   0  0  0  0  0  1  0  0  0  0  0  0
  188.3510  173.3350  141.9240 C   0  0  0  0  0  2  0  0  0  0  0  0
  189.3160  171.9160  143.7980 C   0  0  0  0  0  1  0  0  0  0  0  0
  189.5560  172.5360  142.4270 C   0  0  1  0  0  3  0  0  0  0  0  0
  190.0650  171.5540  141.4140 C   0  0  0  0  0  0  0  0  0  0  0  0
  189.8630  171.8000  140.0630 O   0  0  0  0  0  0  0  0  0  0  0  0
  190.6500  170.4970  141.7710 O   0  0  0  0  0  1  0  0  0  0  0  0
  1 20  1  0  0  0  0
  2 17  1  0  0  0  0
  4  9  1  1  0  0  0
  4 12  1  0  0  0  0
  5 11  1  6  0  0  0
  5  7  1  0  0  0  0
  5 18  1  0  0  0  0
  6  9  1  0  0  0  0
  7  2  1  6  0  0  0
  7  4  1  0  0  0  0
 10 14  1  0  0  0  0
 12  8  1  0  0  0  0
 13 15  2  0  0  0  0
 14 18  1  0  0  0  0
 14  3  1  1  0  0  0
 15 10  1  0  0  0  0
 16  6  2  0  0  0  0
 17  6  1  0  0  0  0
 18  8  1  6  0  0  0
 19  1  2  0  0  0  0
 19 13  1  0  0  0  0
 20 11  1  0  0  0  0
 20 10  2  0  0  0  0
 21 22  1  6  0  0  0
 21 23  1  0  0  0  0
 21  1  1  0  0  0  0
 23 25  1  0  0  0  0
 25 24  1  1  0  0  0
 26 28  1  0  0  0  0
 26 25  1  0  0  0  0
 27 26  2  0  0  0  0
M  END
>  <MODEL>
9

>  <REMARK>
 VINA RESULT:      -7.4      2.617      6.730
  Name = 
  4 active torsions:
  status: ('A' for Active; 'I' for Inactive)
    1  A    between atoms: C_1  and  C_2
    2  A    between atoms: C_2  and  C_3
    3  A    between atoms: C_3  and  C_11
    4  A    between atoms: C_6  and  C_11
                            x       y       z     vdW  Elec       q    Type
                         _______ _______ _______ _____ _____    ______ ____

>  <TORSDO>
F 4

$$$$
