=
 OpenBabel11052420043D

 37 38  0  0  1  0  0  0  0  0999 V2000
  191.7090  174.9550  144.6240 C   0  0  1  0  0  3  0  0  0  0  0  0
  190.9300  178.7760  143.7880 C   0  0  0  0  0  2  0  0  0  0  0  0
  191.0550  176.2370  144.8940 N   0  0  0  0  0  0  0  0  0  0  0  0
  190.1050  177.0170  145.5630 C   0  0  1  0  0  3  0  0  0  0  0  0
  190.7590  177.7040  144.5470 C   0  0  0  0  0  0  0  0  0  0  0  0
  188.7210  176.5370  145.1480 C   0  0  0  0  0  2  0  0  0  0  0  0
  187.7510  176.4530  146.3230 C   0  0  0  0  0  2  0  0  0  0  0  0
  185.3910  177.1170  146.8020 C   0  0  0  0  0  3  0  0  0  0  0  0
  186.5670  177.3180  146.0690 C   0  0  0  0  0  0  0  0  0  0  0  0
  186.6250  178.3320  145.0990 C   0  0  0  0  0  3  0  0  0  0  0  0
  185.5620  180.1390  143.9020 O   0  0  0  0  0  1  0  0  0  0  0  0
  184.3270  178.9240  145.5910 C   0  0  0  0  0  3  0  0  0  0  0  0
  185.5050  179.1320  144.8600 C   0  0  0  0  0  0  0  0  0  0  0  0
  184.2720  177.9190  146.5630 C   0  0  0  0  0  3  0  0  0  0  0  0
  191.3280  174.4210  143.2200 C   0  0  2  0  0  3  0  0  0  0  0  0
  189.5270  175.3980  141.9010 C   0  0  0  0  0  0  0  0  0  0  0  0
  188.2930  175.2850  141.4890 C   0  0  0  0  0  3  0  0  0  0  0  0
  190.7630  175.4910  142.3110 C   0  0  0  0  0  3  0  0  0  0  0  0
  188.1610  177.7360  141.6690 C   0  0  0  0  0  1  0  0  0  0  0  0
  187.5320  176.4950  141.0660 C   0  0  0  0  0  2  0  0  0  0  0  0
  190.4630  173.2270  143.3240 N   0  0  0  0  0  0  0  0  0  0  0  0
  191.1390  171.9910  142.9040 C   0  0  0  0  0  1  0  0  0  0  0  0
  189.4970  171.6550  145.0220 C   0  0  0  0  0  1  0  0  0  0  0  0
  189.8810  173.0940  144.6680 C   0  0  0  0  0  2  0  0  0  0  0  0
  193.2490  175.0350  144.8650 C   0  0  2  0  0  0  0  0  0  0  0  0
  194.2930  176.6940  146.5230 C   0  0  0  0  0  1  0  0  0  0  0  0
  193.5810  175.3660  146.3350 C   0  0  0  0  0  2  0  0  0  0  0  0
  193.8230  176.1970  144.0380 C   0  0  0  0  0  2  0  0  0  0  0  0
  196.0710  176.4540  143.0540 C   0  0  0  0  0  1  0  0  0  0  0  0
  194.7260  175.7710  142.8850 C   0  0  2  0  0  3  0  0  0  0  0  0
  194.2630  175.1060  140.8100 C   0  0  0  0  0  1  0  0  0  0  0  0
  194.1490  176.1890  141.6840 O   0  0  0  0  0  0  0  0  0  0  0  0
  193.9270  173.7130  144.4310 C   0  0  0  0  0  2  0  0  0  0  0  0
  194.3860  172.8390  145.5980 C   0  0  0  0  0  2  0  0  0  0  0  0
  195.8630  172.5250  145.4700 C   0  0  0  0  0  2  0  0  0  0  0  0
  196.6970  173.6770  146.0010 C   0  0  0  0  0  2  0  0  0  0  0  0
  197.8380  173.9770  145.0500 C   0  0  0  0  0  1  0  0  0  0  0  0
  1 15  1  6  0  0  0
  1 25  1  0  0  0  0
  1  3  1  0  0  0  0
  2  5  2  0  0  0  0
  3  4  1  0  0  0  0
  4  6  1  6  0  0  0
  5  3  1  0  0  0  0
  5  4  1  0  0  0  0
  6  7  1  0  0  0  0
  9  7  1  0  0  0  0
  9  8  2  0  0  0  0
 10  9  1  0  0  0  0
 11 13  1  0  0  0  0
 12 14  2  0  0  0  0
 13 10  2  0  0  0  0
 13 12  1  0  0  0  0
 14  8  1  0  0  0  0
 15 18  1  6  0  0  0
 15 21  1  0  0  0  0
 16 18  2  0  0  0  0
 17 16  2  0  0  0  0
 20 17  1  0  0  0  0
 20 19  1  0  0  0  0
 21 24  1  0  0  0  0
 22 21  1  0  0  0  0
 24 23  1  0  0  0  0
 25 28  1  6  0  0  0
 25 27  1  0  0  0  0
 27 26  1  0  0  0  0
 30 29  1  1  0  0  0
 30 28  1  0  0  0  0
 31 32  1  0  0  0  0
 32 30  1  0  0  0  0
 33 25  1  0  0  0  0
 33 34  1  0  0  0  0
 35 34  1  0  0  0  0
 35 36  1  0  0  0  0
 37 36  1  0  0  0  0
M  END
>  <MODEL>
1

>  <REMARK>
 VINA RESULT:      -6.2      0.000      0.000
  Name = 
  18 active torsions:
  status: ('A' for Active; 'I' for Inactive)
    1  A    between atoms: N_1  and  C_23
    2  A    between atoms: N_1  and  C_36
    3  A    between atoms: C_3  and  C_32
    4  A    between atoms: C_6  and  C_31
    5  A    between atoms: C_9  and  C_13
    6  A    between atoms: C_9  and  C_32
    7  A    between atoms: N_10  and  C_29
    8  A    between atoms: C_13  and  C_20
    9  A    between atoms: C_14  and  C_37
   10  A    between atoms: C_16  and  C_20
   11  A    between atoms: C_16  and  C_24
   12  A    between atoms: C_20  and  C_25
   13  A    between atoms: C_20  and  C_29
   14  A    between atoms: C_24  and  O_28
   15  A    between atoms: C_26  and  C_34
   16  A    between atoms: C_29  and  C_36
   17  A    between atoms: C_31  and  C_37
   18  A    between atoms: C_33  and  C_36
                            x       y       z     vdW  Elec       q    Type
                         _______ _______ _______ _____ _____    ______ ____

>  <TORSDO>
F 18

$$$$
=
 OpenBabel11052420043D

 37 38  0  0  1  0  0  0  0  0999 V2000
  191.2980  175.7490  144.5660 C   0  0  1  0  0  3  0  0  0  0  0  0
  191.9290  177.1320  148.2540 C   0  0  0  0  0  2  0  0  0  0  0  0
  190.9240  175.9200  145.9720 N   0  0  0  0  0  0  0  0  0  0  0  0
  189.9950  175.8460  147.0140 C   0  0  1  0  0  3  0  0  0  0  0  0
  191.1800  176.4710  147.3820 C   0  0  0  0  0  0  0  0  0  0  0  0
  188.8760  176.8370  146.7230 C   0  0  0  0  0  2  0  0  0  0  0  0
  187.5220  176.1590  146.5390 C   0  0  0  0  0  2  0  0  0  0  0  0
  185.3180  177.2680  146.9310 C   0  0  0  0  0  3  0  0  0  0  0  0
  186.4920  177.1690  146.1740 C   0  0  0  0  0  0  0  0  0  0  0  0
  186.6940  178.0220  145.0770 C   0  0  0  0  0  3  0  0  0  0  0  0
  185.9160  179.8080  143.6500 O   0  0  0  0  0  1  0  0  0  0  0  0
  184.5400  179.0520  145.4910 C   0  0  0  0  0  3  0  0  0  0  0  0
  185.7170  178.9610  144.7360 C   0  0  0  0  0  0  0  0  0  0  0  0
  184.3430  178.2080  146.5890 C   0  0  0  0  0  3  0  0  0  0  0  0
  192.7570  175.2430  144.4370 C   0  0  2  0  0  3  0  0  0  0  0  0
  193.5180  173.0920  145.2920 C   0  0  0  0  0  0  0  0  0  0  0  0
  193.8550  171.8630  145.0060 C   0  0  0  0  0  3  0  0  0  0  0  0
  193.1680  174.3200  145.5640 C   0  0  0  0  0  3  0  0  0  0  0  0
  196.1570  171.6380  145.8480 C   0  0  0  0  0  1  0  0  0  0  0  0
  194.7430  171.0970  145.9270 C   0  0  0  0  0  2  0  0  0  0  0  0
  193.6930  176.3690  144.2340 N   0  0  0  0  0  0  0  0  0  0  0  0
  194.4040  176.7530  145.4620 C   0  0  0  0  0  1  0  0  0  0  0  0
  196.0960  176.1450  143.5550 C   0  0  0  0  0  1  0  0  0  0  0  0
  194.6270  176.1070  143.1290 C   0  0  0  0  0  2  0  0  0  0  0  0
  190.2620  174.8680  143.8000 C   0  0  2  0  0  0  0  0  0  0  0  0
  190.1290  172.4560  144.6710 C   0  0  0  0  0  1  0  0  0  0  0  0
  189.5610  173.8630  144.7390 C   0  0  0  0  0  2  0  0  0  0  0  0
  191.0060  174.0140  142.7600 C   0  0  0  0  0  2  0  0  0  0  0  0
  189.5210  172.8410  141.1760 C   0  0  0  0  0  1  0  0  0  0  0  0
  190.4090  174.0590  141.3560 C   0  0  2  0  0  3  0  0  0  0  0  0
  192.5530  173.5090  141.1120 C   0  0  0  0  0  1  0  0  0  0  0  0
  191.4480  174.0100  140.4240 O   0  0  0  0  0  0  0  0  0  0  0  0
  189.2260  175.7650  143.0810 C   0  0  0  0  0  2  0  0  0  0  0  0
  189.6650  177.2210  142.9310 C   0  0  0  0  0  2  0  0  0  0  0  0
  188.7090  177.9680  142.0220 C   0  0  0  0  0  2  0  0  0  0  0  0
  187.5360  177.0810  141.6450 C   0  0  0  0  0  2  0  0  0  0  0  0
  186.9470  177.5290  140.3230 C   0  0  0  0  0  1  0  0  0  0  0  0
  1 15  1  1  0  0  0
  1  3  1  0  0  0  0
  3  4  1  0  0  0  0
  3  5  1  0  0  0  0
  4  6  1  6  0  0  0
  4  5  1  0  0  0  0
  5  2  2  0  0  0  0
  7  6  1  0  0  0  0
  9  7  1  0  0  0  0
  9  8  2  0  0  0  0
 10  9  1  0  0  0  0
 11 13  1  0  0  0  0
 12 14  2  0  0  0  0
 13 10  2  0  0  0  0
 13 12  1  0  0  0  0
 14  8  1  0  0  0  0
 15 18  1  1  0  0  0
 16 18  2  0  0  0  0
 17 16  2  0  0  0  0
 17 20  1  0  0  0  0
 19 20  1  0  0  0  0
 21 15  1  0  0  0  0
 21 22  1  0  0  0  0
 24 23  1  0  0  0  0
 24 21  1  0  0  0  0
 25 28  1  6  0  0  0
 25  1  1  0  0  0  0
 25 27  1  0  0  0  0
 26 27  1  0  0  0  0
 30 29  1  6  0  0  0
 30 28  1  0  0  0  0
 32 31  1  0  0  0  0
 32 30  1  0  0  0  0
 33 25  1  0  0  0  0
 34 33  1  0  0  0  0
 35 34  1  0  0  0  0
 36 35  1  0  0  0  0
 37 36  1  0  0  0  0
M  END
>  <MODEL>
2

>  <REMARK>
 VINA RESULT:      -6.1      1.544      5.600
  Name = 
  18 active torsions:
  status: ('A' for Active; 'I' for Inactive)
    1  A    between atoms: N_1  and  C_23
    2  A    between atoms: N_1  and  C_36
    3  A    between atoms: C_3  and  C_32
    4  A    between atoms: C_6  and  C_31
    5  A    between atoms: C_9  and  C_13
    6  A    between atoms: C_9  and  C_32
    7  A    between atoms: N_10  and  C_29
    8  A    between atoms: C_13  and  C_20
    9  A    between atoms: C_14  and  C_37
   10  A    between atoms: C_16  and  C_20
   11  A    between atoms: C_16  and  C_24
   12  A    between atoms: C_20  and  C_25
   13  A    between atoms: C_20  and  C_29
   14  A    between atoms: C_24  and  O_28
   15  A    between atoms: C_26  and  C_34
   16  A    between atoms: C_29  and  C_36
   17  A    between atoms: C_31  and  C_37
   18  A    between atoms: C_33  and  C_36
                            x       y       z     vdW  Elec       q    Type
                         _______ _______ _______ _____ _____    ______ ____

>  <TORSDO>
F 18

$$$$
=
 OpenBabel11052420043D

 37 38  0  0  1  0  0  0  0  0999 V2000
  191.8520  176.1380  144.8500 C   0  0  1  0  0  3  0  0  0  0  0  0
  191.7000  177.1790  148.6980 C   0  0  0  0  0  2  0  0  0  0  0  0
  191.2440  176.1060  146.1830 N   0  0  0  0  0  0  0  0  0  0  0  0
  190.1850  175.8020  147.0440 C   0  0  1  0  0  3  0  0  0  0  0  0
  191.1970  176.5280  147.6590 C   0  0  0  0  0  0  0  0  0  0  0  0
  188.9950  176.6700  146.6570 C   0  0  0  0  0  2  0  0  0  0  0  0
  187.6570  175.9760  146.8990 C   0  0  0  0  0  2  0  0  0  0  0  0
  185.8200  177.6050  147.3580 C   0  0  0  0  0  3  0  0  0  0  0  0
  186.5420  176.8440  146.4310 C   0  0  0  0  0  0  0  0  0  0  0  0
  186.2150  176.9030  145.0670 C   0  0  0  0  0  3  0  0  0  0  0  0
  184.8350  177.7740  143.2870 O   0  0  0  0  0  1  0  0  0  0  0  0
  184.4340  178.4670  145.5700 C   0  0  0  0  0  3  0  0  0  0  0  0
  185.1600  177.7130  144.6380 C   0  0  0  0  0  0  0  0  0  0  0  0
  184.7660  178.4150  146.9280 C   0  0  0  0  0  3  0  0  0  0  0  0
  193.3470  175.7370  144.9120 C   0  0  2  0  0  3  0  0  0  0  0  0
  194.1770  173.5160  145.4720 C   0  0  0  0  0  0  0  0  0  0  0  0
  194.7220  172.4130  145.0320 C   0  0  0  0  0  3  0  0  0  0  0  0
  193.6220  174.6200  145.8950 C   0  0  0  0  0  3  0  0  0  0  0  0
  196.9540  171.5430  145.5960 C   0  0  0  0  0  1  0  0  0  0  0  0
  195.4830  171.5310  145.9640 C   0  0  0  0  0  2  0  0  0  0  0  0
  194.2050  176.9220  145.1200 N   0  0  0  0  0  0  0  0  0  0  0  0
  194.5250  177.1580  146.5350 C   0  0  0  0  0  1  0  0  0  0  0  0
  195.2360  176.0710  142.9980 C   0  0  0  0  0  1  0  0  0  0  0  0
  195.4210  176.8630  144.2940 C   0  0  0  0  0  2  0  0  0  0  0  0
  191.0230  175.3040  143.8220 C   0  0  2  0  0  0  0  0  0  0  0  0
  192.2540  174.0300  141.9640 C   0  0  0  0  0  1  0  0  0  0  0  0
  191.6500  175.3490  142.4130 C   0  0  0  0  0  2  0  0  0  0  0  0
  189.6290  175.9370  143.6770 C   0  0  0  0  0  2  0  0  0  0  0  0
  189.2540  178.1140  142.5780 C   0  0  0  0  0  1  0  0  0  0  0  0
  189.3780  176.6220  142.3370 C   0  0  2  0  0  3  0  0  0  0  0  0
  187.5870  177.2300  141.1620 C   0  0  0  0  0  1  0  0  0  0  0  0
  188.1790  176.1420  141.8040 O   0  0  0  0  0  0  0  0  0  0  0  0
  190.8750  173.8450  144.3140 C   0  0  0  0  0  2  0  0  0  0  0  0
  189.4330  173.3390  144.3320 C   0  0  0  0  0  2  0  0  0  0  0  0
  189.3320  172.0140  143.6030 C   0  0  0  0  0  2  0  0  0  0  0  0
  189.1280  172.2420  142.1170 C   0  0  0  0  0  2  0  0  0  0  0  0
  187.7540  172.8300  141.8630 C   0  0  0  0  0  1  0  0  0  0  0  0
  1 15  1  1  0  0  0
  1  3  1  0  0  0  0
  3  4  1  0  0  0  0
  3  5  1  0  0  0  0
  4  6  1  6  0  0  0
  4  5  1  0  0  0  0
  5  2  2  0  0  0  0
  6  7  1  0  0  0  0
  9  7  1  0  0  0  0
  9  8  2  0  0  0  0
 10  9  1  0  0  0  0
 11 13  1  0  0  0  0
 12 14  2  0  0  0  0
 13 10  2  0  0  0  0
 13 12  1  0  0  0  0
 14  8  1  0  0  0  0
 15 21  1  0  0  0  0
 15 18  1  1  0  0  0
 16 18  2  0  0  0  0
 17 16  2  0  0  0  0
 17 20  1  0  0  0  0
 19 20  1  0  0  0  0
 21 22  1  0  0  0  0
 23 24  1  0  0  0  0
 24 21  1  0  0  0  0
 25 27  1  6  0  0  0
 25 33  1  0  0  0  0
 25  1  1  0  0  0  0
 26 27  1  0  0  0  0
 28 25  1  0  0  0  0
 30 29  1  1  0  0  0
 30 28  1  0  0  0  0
 31 32  1  0  0  0  0
 32 30  1  0  0  0  0
 33 34  1  0  0  0  0
 35 34  1  0  0  0  0
 36 35  1  0  0  0  0
 37 36  1  0  0  0  0
M  END
>  <MODEL>
3

>  <REMARK>
 VINA RESULT:      -5.9      1.822      5.519
  Name = 
  18 active torsions:
  status: ('A' for Active; 'I' for Inactive)
    1  A    between atoms: N_1  and  C_23
    2  A    between atoms: N_1  and  C_36
    3  A    between atoms: C_3  and  C_32
    4  A    between atoms: C_6  and  C_31
    5  A    between atoms: C_9  and  C_13
    6  A    between atoms: C_9  and  C_32
    7  A    between atoms: N_10  and  C_29
    8  A    between atoms: C_13  and  C_20
    9  A    between atoms: C_14  and  C_37
   10  A    between atoms: C_16  and  C_20
   11  A    between atoms: C_16  and  C_24
   12  A    between atoms: C_20  and  C_25
   13  A    between atoms: C_20  and  C_29
   14  A    between atoms: C_24  and  O_28
   15  A    between atoms: C_26  and  C_34
   16  A    between atoms: C_29  and  C_36
   17  A    between atoms: C_31  and  C_37
   18  A    between atoms: C_33  and  C_36
                            x       y       z     vdW  Elec       q    Type
                         _______ _______ _______ _____ _____    ______ ____

>  <TORSDO>
F 18

$$$$
=
 OpenBabel11052420043D

 37 38  0  0  1  0  0  0  0  0999 V2000
  191.7380  174.6460  144.8360 C   0  0  1  0  0  3  0  0  0  0  0  0
  190.4180  178.0110  143.1490 C   0  0  0  0  0  2  0  0  0  0  0  0
  190.9970  175.9090  144.8610 N   0  0  0  0  0  0  0  0  0  0  0  0
  190.0840  176.7870  145.4550 C   0  0  1  0  0  3  0  0  0  0  0  0
  190.4890  177.1930  144.1900 C   0  0  0  0  0  0  0  0  0  0  0  0
  188.7130  176.1230  145.4460 C   0  0  0  0  0  2  0  0  0  0  0  0
  187.8670  176.5040  146.6580 C   0  0  0  0  0  2  0  0  0  0  0  0
  185.4760  177.1730  146.9300 C   0  0  0  0  0  3  0  0  0  0  0  0
  186.6790  177.2870  146.2220 C   0  0  0  0  0  0  0  0  0  0  0  0
  186.7600  178.1370  145.1070 C   0  0  0  0  0  3  0  0  0  0  0  0
  185.7150  179.7050  143.5970 O   0  0  0  0  0  1  0  0  0  0  0  0
  184.4310  178.7390  145.4060 C   0  0  0  0  0  3  0  0  0  0  0  0
  185.6360  178.8610  144.7000 C   0  0  0  0  0  0  0  0  0  0  0  0
  184.3530  177.8980  146.5220 C   0  0  0  0  0  3  0  0  0  0  0  0
  191.2350  173.7290  143.6930 C   0  0  2  0  0  3  0  0  0  0  0  0
  189.9380  174.1330  141.6710 C   0  0  0  0  0  0  0  0  0  0  0  0
  189.8590  173.9760  140.3770 C   0  0  0  0  0  3  0  0  0  0  0  0
  190.0360  174.2940  142.9630 C   0  0  0  0  0  3  0  0  0  0  0  0
  188.3180  172.7360  138.9120 C   0  0  0  0  0  1  0  0  0  0  0  0
  188.5320  174.0160  139.6970 C   0  0  0  0  0  2  0  0  0  0  0  0
  191.0290  172.3470  144.1740 N   0  0  0  0  0  0  0  0  0  0  0  0
  189.6130  172.0210  144.3930 C   0  0  0  0  0  1  0  0  0  0  0  0
  190.7010  170.6370  142.3690 C   0  0  0  0  0  1  0  0  0  0  0  0
  191.6800  171.3640  143.2950 C   0  0  0  0  0  2  0  0  0  0  0  0
  193.2810  174.8880  144.8110 C   0  0  2  0  0  0  0  0  0  0  0  0
  194.3130  176.4390  146.5770 C   0  0  0  0  0  1  0  0  0  0  0  0
  193.6400  176.3310  145.2190 C   0  0  0  0  0  2  0  0  0  0  0  0
  193.7860  174.7270  143.3670 C   0  0  0  0  0  2  0  0  0  0  0  0
  194.0360  176.2700  141.4570 C   0  0  0  0  0  1  0  0  0  0  0  0
  194.5730  175.9200  142.8330 C   0  0  2  0  0  3  0  0  0  0  0  0
  196.6470  176.7170  142.9870 C   0  0  0  0  0  1  0  0  0  0  0  0
  195.9170  175.5570  142.7210 O   0  0  0  0  0  0  0  0  0  0  0  0
  193.9970  173.8630  145.7210 C   0  0  0  0  0  2  0  0  0  0  0  0
  194.7340  172.7630  144.9580 C   0  0  0  0  0  2  0  0  0  0  0  0
  195.9810  172.3440  145.7120 C   0  0  0  0  0  2  0  0  0  0  0  0
  196.7660  173.5650  146.1560 C   0  0  0  0  0  2  0  0  0  0  0  0
  197.7720  173.9540  145.0910 C   0  0  0  0  0  1  0  0  0  0  0  0
  1 15  1  6  0  0  0
  1  3  1  0  0  0  0
  2  5  2  0  0  0  0
  3  4  1  0  0  0  0
  4  6  1  6  0  0  0
  5  3  1  0  0  0  0
  5  4  1  0  0  0  0
  6  7  1  0  0  0  0
  9  7  1  0  0  0  0
  9  8  2  0  0  0  0
 10  9  1  0  0  0  0
 11 13  1  0  0  0  0
 12 14  2  0  0  0  0
 13 10  2  0  0  0  0
 13 12  1  0  0  0  0
 14  8  1  0  0  0  0
 15 18  1  1  0  0  0
 15 21  1  0  0  0  0
 16 18  2  0  0  0  0
 17 16  2  0  0  0  0
 19 20  1  0  0  0  0
 20 17  1  0  0  0  0
 21 22  1  0  0  0  0
 23 24  1  0  0  0  0
 24 21  1  0  0  0  0
 25 28  1  6  0  0  0
 25  1  1  0  0  0  0
 25 27  1  0  0  0  0
 25 33  1  0  0  0  0
 27 26  1  0  0  0  0
 30 29  1  6  0  0  0
 30 28  1  0  0  0  0
 32 30  1  0  0  0  0
 32 31  1  0  0  0  0
 34 35  1  0  0  0  0
 34 33  1  0  0  0  0
 35 36  1  0  0  0  0
 37 36  1  0  0  0  0
M  END
>  <MODEL>
4

>  <REMARK>
 VINA RESULT:      -5.8      1.137      1.730
  Name = 
  18 active torsions:
  status: ('A' for Active; 'I' for Inactive)
    1  A    between atoms: N_1  and  C_23
    2  A    between atoms: N_1  and  C_36
    3  A    between atoms: C_3  and  C_32
    4  A    between atoms: C_6  and  C_31
    5  A    between atoms: C_9  and  C_13
    6  A    between atoms: C_9  and  C_32
    7  A    between atoms: N_10  and  C_29
    8  A    between atoms: C_13  and  C_20
    9  A    between atoms: C_14  and  C_37
   10  A    between atoms: C_16  and  C_20
   11  A    between atoms: C_16  and  C_24
   12  A    between atoms: C_20  and  C_25
   13  A    between atoms: C_20  and  C_29
   14  A    between atoms: C_24  and  O_28
   15  A    between atoms: C_26  and  C_34
   16  A    between atoms: C_29  and  C_36
   17  A    between atoms: C_31  and  C_37
   18  A    between atoms: C_33  and  C_36
                            x       y       z     vdW  Elec       q    Type
                         _______ _______ _______ _____ _____    ______ ____

>  <TORSDO>
F 18

$$$$
=
 OpenBabel11052420043D

 37 38  0  0  1  0  0  0  0  0999 V2000
  191.3210  175.0990  144.4290 C   0  0  1  0  0  3  0  0  0  0  0  0
  189.4210  177.9640  142.4070 C   0  0  0  0  0  2  0  0  0  0  0  0
  190.8030  176.4610  144.2810 N   0  0  0  0  0  0  0  0  0  0  0  0
  190.4690  177.7130  144.8080 C   0  0  1  0  0  3  0  0  0  0  0  0
  190.0580  177.5470  143.4910 C   0  0  0  0  0  0  0  0  0  0  0  0
  189.3340  177.5210  145.8040 C   0  0  0  0  0  2  0  0  0  0  0  0
  188.2220  176.6260  145.2630 C   0  0  0  0  0  2  0  0  0  0  0  0
  185.9660  176.7560  146.3260 C   0  0  0  0  0  3  0  0  0  0  0  0
  186.9030  177.2930  145.4350 C   0  0  0  0  0  0  0  0  0  0  0  0
  186.5970  178.4560  144.7100 C   0  0  0  0  0  3  0  0  0  0  0  0
  185.0480  180.2230  144.1550 O   0  0  0  0  0  1  0  0  0  0  0  0
  184.4130  178.5250  145.7580 C   0  0  0  0  0  3  0  0  0  0  0  0
  185.3520  179.0700  144.8710 C   0  0  0  0  0  0  0  0  0  0  0  0
  184.7210  177.3720  146.4870 C   0  0  0  0  0  3  0  0  0  0  0  0
  190.9270  174.2200  143.2150 C   0  0  2  0  0  3  0  0  0  0  0  0
  192.0960  174.2990  141.0790 C   0  0  0  0  0  0  0  0  0  0  0  0
  192.9620  173.7230  140.2880 C   0  0  0  0  0  3  0  0  0  0  0  0
  191.2430  174.8690  141.8850 C   0  0  0  0  0  3  0  0  0  0  0  0
  194.1640  174.7520  138.4030 C   0  0  0  0  0  1  0  0  0  0  0  0
  192.9240  173.9840  138.8210 C   0  0  0  0  0  2  0  0  0  0  0  0
  189.5260  173.7630  143.3240 N   0  0  0  0  0  0  0  0  0  0  0  0
  188.6940  174.1860  142.1880 C   0  0  0  0  0  1  0  0  0  0  0  0
  189.6160  171.9070  145.0090 C   0  0  0  0  0  1  0  0  0  0  0  0
  189.4450  172.3110  143.5420 C   0  0  0  0  0  2  0  0  0  0  0  0
  192.8530  175.0970  144.7310 C   0  0  2  0  0  0  0  0  0  0  0  0
  191.9280  175.2040  147.1240 C   0  0  0  0  0  1  0  0  0  0  0  0
  193.1410  175.3620  146.2230 C   0  0  0  0  0  2  0  0  0  0  0  0
  193.5120  176.2580  143.9680 C   0  0  0  0  0  2  0  0  0  0  0  0
  195.9650  176.5080  143.8860 C   0  0  0  0  0  1  0  0  0  0  0  0
  194.7710  175.8770  143.1950 C   0  0  2  0  0  3  0  0  0  0  0  0
  195.9510  176.2780  141.3490 C   0  0  0  0  0  1  0  0  0  0  0  0
  194.6720  176.3840  141.8970 O   0  0  0  0  0  0  0  0  0  0  0  0
  193.4850  173.7600  144.2760 C   0  0  0  0  0  2  0  0  0  0  0  0
  193.6630  172.7420  145.4030 C   0  0  0  0  0  2  0  0  0  0  0  0
  195.0600  172.1570  145.3670 C   0  0  0  0  0  2  0  0  0  0  0  0
  196.0900  173.2240  145.6910 C   0  0  0  0  0  2  0  0  0  0  0  0
  197.2580  173.1300  144.7300 C   0  0  0  0  0  1  0  0  0  0  0  0
  1 15  1  6  0  0  0
  1 25  1  0  0  0  0
  2  5  2  0  0  0  0
  3  1  1  0  0  0  0
  3  4  1  0  0  0  0
  4  6  1  1  0  0  0
  5  3  1  0  0  0  0
  5  4  1  0  0  0  0
  7  9  1  0  0  0  0
  7  6  1  0  0  0  0
  8 14  1  0  0  0  0
  9  8  2  0  0  0  0
 10 13  2  0  0  0  0
 10  9  1  0  0  0  0
 11 13  1  0  0  0  0
 12 14  2  0  0  0  0
 13 12  1  0  0  0  0
 15 18  1  6  0  0  0
 15 21  1  0  0  0  0
 16 18  2  0  0  0  0
 17 16  2  0  0  0  0
 19 20  1  0  0  0  0
 20 17  1  0  0  0  0
 21 24  1  0  0  0  0
 22 21  1  0  0  0  0
 24 23  1  0  0  0  0
 25 28  1  6  0  0  0
 25 27  1  0  0  0  0
 27 26  1  0  0  0  0
 30 29  1  1  0  0  0
 30 28  1  0  0  0  0
 31 32  1  0  0  0  0
 32 30  1  0  0  0  0
 33 25  1  0  0  0  0
 33 34  1  0  0  0  0
 35 34  1  0  0  0  0
 35 36  1  0  0  0  0
 37 36  1  0  0  0  0
M  END
>  <MODEL>
5

>  <REMARK>
 VINA RESULT:      -5.7      1.131      2.190
  Name = 
  18 active torsions:
  status: ('A' for Active; 'I' for Inactive)
    1  A    between atoms: N_1  and  C_23
    2  A    between atoms: N_1  and  C_36
    3  A    between atoms: C_3  and  C_32
    4  A    between atoms: C_6  and  C_31
    5  A    between atoms: C_9  and  C_13
    6  A    between atoms: C_9  and  C_32
    7  A    between atoms: N_10  and  C_29
    8  A    between atoms: C_13  and  C_20
    9  A    between atoms: C_14  and  C_37
   10  A    between atoms: C_16  and  C_20
   11  A    between atoms: C_16  and  C_24
   12  A    between atoms: C_20  and  C_25
   13  A    between atoms: C_20  and  C_29
   14  A    between atoms: C_24  and  O_28
   15  A    between atoms: C_26  and  C_34
   16  A    between atoms: C_29  and  C_36
   17  A    between atoms: C_31  and  C_37
   18  A    between atoms: C_33  and  C_36
                            x       y       z     vdW  Elec       q    Type
                         _______ _______ _______ _____ _____    ______ ____

>  <TORSDO>
F 18

$$$$
=
 OpenBabel11052420043D

 37 38  0  0  1  0  0  0  0  0999 V2000
  190.8270  174.2660  143.9990 C   0  0  1  0  0  3  0  0  0  0  0  0
  190.4390  178.2240  144.3090 C   0  0  0  0  0  2  0  0  0  0  0  0
  190.4840  175.4850  144.7360 N   0  0  0  0  0  0  0  0  0  0  0  0
  189.8980  176.1400  145.8240 C   0  0  1  0  0  3  0  0  0  0  0  0
  190.3300  177.0100  144.8300 C   0  0  0  0  0  0  0  0  0  0  0  0
  188.3960  175.8940  145.7740 C   0  0  0  0  0  2  0  0  0  0  0  0
  187.6420  176.6350  146.8740 C   0  0  0  0  0  2  0  0  0  0  0  0
  185.2720  177.4260  146.9010 C   0  0  0  0  0  3  0  0  0  0  0  0
  186.5280  177.4260  146.2820 C   0  0  0  0  0  0  0  0  0  0  0  0
  186.7330  178.1710  145.1100 C   0  0  0  0  0  3  0  0  0  0  0  0
  185.8820  179.6430  143.3960 O   0  0  0  0  0  1  0  0  0  0  0  0
  184.4220  178.8950  145.1750 C   0  0  0  0  0  3  0  0  0  0  0  0
  185.6800  178.9030  144.5560 C   0  0  0  0  0  0  0  0  0  0  0  0
  184.2200  178.1600  146.3470 C   0  0  0  0  0  3  0  0  0  0  0  0
  190.1450  174.2470  142.6080 C   0  0  2  0  0  3  0  0  0  0  0  0
  188.3230  175.7920  142.1300 C   0  0  0  0  0  0  0  0  0  0  0  0
  187.9750  176.9390  141.6120 C   0  0  0  0  0  3  0  0  0  0  0  0
  188.6890  174.6540  142.6550 C   0  0  0  0  0  3  0  0  0  0  0  0
  186.5490  177.3650  139.6510 C   0  0  0  0  0  1  0  0  0  0  0  0
  186.5730  177.1580  141.1530 C   0  0  0  0  0  2  0  0  0  0  0  0
  190.3690  172.9550  141.9270 N   0  0  0  0  0  0  0  0  0  0  0  0
  189.3630  171.9410  142.2740 C   0  0  0  0  0  1  0  0  0  0  0  0
  189.9550  171.9260  139.6780 C   0  0  0  0  0  1  0  0  0  0  0  0
  190.4860  173.1230  140.4700 C   0  0  0  0  0  2  0  0  0  0  0  0
  192.3720  174.0480  143.9410 C   0  0  2  0  0  0  0  0  0  0  0  0
  193.4030  171.9230  144.9470 C   0  0  0  0  0  1  0  0  0  0  0  0
  192.7320  172.5610  143.7420 C   0  0  0  0  0  2  0  0  0  0  0  0
  192.9830  174.4470  145.2950 C   0  0  0  0  0  2  0  0  0  0  0  0
  195.3040  175.0850  145.8390 C   0  0  0  0  0  1  0  0  0  0  0  0
  194.0070  175.5760  145.2220 C   0  0  2  0  0  3  0  0  0  0  0  0
  194.6260  177.5090  146.1380 C   0  0  0  0  0  1  0  0  0  0  0  0
  193.5310  176.6620  145.9600 O   0  0  0  0  0  0  0  0  0  0  0  0
  192.9920  174.9190  142.8220 C   0  0  0  0  0  2  0  0  0  0  0  0
  193.9460  174.1600  141.9010 C   0  0  0  0  0  2  0  0  0  0  0  0
  194.6400  175.1210  140.9560 C   0  0  0  0  0  2  0  0  0  0  0  0
  195.1740  176.3200  141.7170 C   0  0  0  0  0  2  0  0  0  0  0  0
  196.5680  176.0290  142.2370 C   0  0  0  0  0  1  0  0  0  0  0  0
  1 15  1  6  0  0  0
  1  3  1  0  0  0  0
  2  5  2  0  0  0  0
  3  5  1  0  0  0  0
  3  4  1  0  0  0  0
  4  6  1  6  0  0  0
  5  4  1  0  0  0  0
  6  7  1  0  0  0  0
  9  7  1  0  0  0  0
  9  8  2  0  0  0  0
 10  9  1  0  0  0  0
 11 13  1  0  0  0  0
 12 14  2  0  0  0  0
 13 10  2  0  0  0  0
 13 12  1  0  0  0  0
 14  8  1  0  0  0  0
 15 18  1  1  0  0  0
 16 18  2  0  0  0  0
 17 16  2  0  0  0  0
 19 20  1  0  0  0  0
 20 17  1  0  0  0  0
 21 22  1  0  0  0  0
 21 15  1  0  0  0  0
 23 24  1  0  0  0  0
 24 21  1  0  0  0  0
 25 33  1  6  0  0  0
 25  1  1  0  0  0  0
 25 28  1  0  0  0  0
 27 25  1  0  0  0  0
 27 26  1  0  0  0  0
 30 28  1  0  0  0  0
 30 29  1  1  0  0  0
 30 32  1  0  0  0  0
 32 31  1  0  0  0  0
 34 33  1  0  0  0  0
 35 36  1  0  0  0  0
 35 34  1  0  0  0  0
 36 37  1  0  0  0  0
M  END
>  <MODEL>
6

>  <REMARK>
 VINA RESULT:      -5.7      1.486      2.794
  Name = 
  18 active torsions:
  status: ('A' for Active; 'I' for Inactive)
    1  A    between atoms: N_1  and  C_23
    2  A    between atoms: N_1  and  C_36
    3  A    between atoms: C_3  and  C_32
    4  A    between atoms: C_6  and  C_31
    5  A    between atoms: C_9  and  C_13
    6  A    between atoms: C_9  and  C_32
    7  A    between atoms: N_10  and  C_29
    8  A    between atoms: C_13  and  C_20
    9  A    between atoms: C_14  and  C_37
   10  A    between atoms: C_16  and  C_20
   11  A    between atoms: C_16  and  C_24
   12  A    between atoms: C_20  and  C_25
   13  A    between atoms: C_20  and  C_29
   14  A    between atoms: C_24  and  O_28
   15  A    between atoms: C_26  and  C_34
   16  A    between atoms: C_29  and  C_36
   17  A    between atoms: C_31  and  C_37
   18  A    between atoms: C_33  and  C_36
                            x       y       z     vdW  Elec       q    Type
                         _______ _______ _______ _____ _____    ______ ____

>  <TORSDO>
F 18

$$$$
=
 OpenBabel11052420043D

 37 38  0  0  1  0  0  0  0  0999 V2000
  191.8470  174.4790  144.2210 C   0  0  1  0  0  3  0  0  0  0  0  0
  191.4660  175.6800  148.0050 C   0  0  0  0  0  2  0  0  0  0  0  0
  191.1300  174.5510  145.4960 N   0  0  0  0  0  0  0  0  0  0  0  0
  189.9790  174.3720  146.2710 C   0  0  1  0  0  3  0  0  0  0  0  0
  190.9970  175.0340  146.9480 C   0  0  0  0  0  0  0  0  0  0  0  0
  188.9070  175.3210  145.7540 C   0  0  0  0  0  2  0  0  0  0  0  0
  188.1670  176.0420  146.8780 C   0  0  0  0  0  2  0  0  0  0  0  0
  187.5580  177.7950  145.2070 C   0  0  0  0  0  3  0  0  0  0  0  0
  187.1920  177.0090  146.3060 C   0  0  0  0  0  0  0  0  0  0  0  0
  185.9090  177.1360  146.8640 C   0  0  0  0  0  3  0  0  0  0  0  0
  183.7320  178.1800  146.8770 O   0  0  0  0  0  1  0  0  0  0  0  0
  185.3760  178.8450  145.2300 C   0  0  0  0  0  3  0  0  0  0  0  0
  185.0040  178.0540  146.3270 C   0  0  0  0  0  0  0  0  0  0  0  0
  186.6510  178.7130  144.6700 C   0  0  0  0  0  3  0  0  0  0  0  0
  193.3340  174.1000  144.4410 C   0  0  2  0  0  3  0  0  0  0  0  0
  194.0230  171.9670  145.3940 C   0  0  0  0  0  0  0  0  0  0  0  0
  194.4940  170.7710  145.1630 C   0  0  0  0  0  3  0  0  0  0  0  0
  193.5410  173.1610  145.6090 C   0  0  0  0  0  3  0  0  0  0  0  0
  194.5820  168.6480  146.4050 C   0  0  0  0  0  1  0  0  0  0  0  0
  195.2010  170.0230  146.2420 C   0  0  0  0  0  2  0  0  0  0  0  0
  194.1840  175.3080  144.5040 N   0  0  0  0  0  0  0  0  0  0  0  0
  193.5890  176.4650  143.8190 C   0  0  0  0  0  1  0  0  0  0  0  0
  194.5650  177.1380  146.1760 C   0  0  0  0  0  1  0  0  0  0  0  0
  194.5610  175.6350  145.8880 C   0  0  0  0  0  2  0  0  0  0  0  0
  191.1120  173.5530  143.2010 C   0  0  2  0  0  0  0  0  0  0  0  0
  189.0540  172.0640  143.5790 C   0  0  0  0  0  1  0  0  0  0  0  0
  190.5230  172.3020  143.8860 C   0  0  0  0  0  2  0  0  0  0  0  0
  192.1340  173.0260  142.1800 C   0  0  0  0  0  2  0  0  0  0  0  0
  193.3800  170.9630  141.6480 C   0  0  0  0  0  1  0  0  0  0  0  0
  191.9920  171.5430  141.8470 C   0  0  2  0  0  3  0  0  0  0  0  0
  191.1550  170.0460  140.4260 C   0  0  0  0  0  1  0  0  0  0  0  0
  191.2690  171.4180  140.6590 O   0  0  0  0  0  0  0  0  0  0  0  0
  190.0090  174.3460  142.4590 C   0  0  0  0  0  2  0  0  0  0  0  0
  190.2180  175.8600  142.4730 C   0  0  0  0  0  2  0  0  0  0  0  0
  188.9140  176.5740  142.1790 C   0  0  0  0  0  2  0  0  0  0  0  0
  187.8350  175.5730  141.8090 C   0  0  0  0  0  2  0  0  0  0  0  0
  186.6930  175.6460  142.8020 C   0  0  0  0  0  1  0  0  0  0  0  0
  1 15  1  1  0  0  0
  1  3  1  0  0  0  0
  3  4  1  0  0  0  0
  3  5  1  0  0  0  0
  4  6  1  6  0  0  0
  4  5  1  0  0  0  0
  5  2  2  0  0  0  0
  6  7  1  0  0  0  0
  8  9  1  0  0  0  0
  9 10  2  0  0  0  0
  9  7  1  0  0  0  0
 12 13  2  0  0  0  0
 13 10  1  0  0  0  0
 13 11  1  0  0  0  0
 14  8  2  0  0  0  0
 14 12  1  0  0  0  0
 15 21  1  0  0  0  0
 15 18  1  1  0  0  0
 16 18  2  0  0  0  0
 17 16  2  0  0  0  0
 17 20  1  0  0  0  0
 20 19  1  0  0  0  0
 21 24  1  0  0  0  0
 22 21  1  0  0  0  0
 24 23  1  0  0  0  0
 25 28  1  6  0  0  0
 25 27  1  0  0  0  0
 25  1  1  0  0  0  0
 26 27  1  0  0  0  0
 30 29  1  6  0  0  0
 30 28  1  0  0  0  0
 31 32  1  0  0  0  0
 32 30  1  0  0  0  0
 33 34  1  0  0  0  0
 33 25  1  0  0  0  0
 35 34  1  0  0  0  0
 36 35  1  0  0  0  0
 36 37  1  0  0  0  0
M  END
>  <MODEL>
7

>  <REMARK>
 VINA RESULT:      -5.6      2.045      5.827
  Name = 
  18 active torsions:
  status: ('A' for Active; 'I' for Inactive)
    1  A    between atoms: N_1  and  C_23
    2  A    between atoms: N_1  and  C_36
    3  A    between atoms: C_3  and  C_32
    4  A    between atoms: C_6  and  C_31
    5  A    between atoms: C_9  and  C_13
    6  A    between atoms: C_9  and  C_32
    7  A    between atoms: N_10  and  C_29
    8  A    between atoms: C_13  and  C_20
    9  A    between atoms: C_14  and  C_37
   10  A    between atoms: C_16  and  C_20
   11  A    between atoms: C_16  and  C_24
   12  A    between atoms: C_20  and  C_25
   13  A    between atoms: C_20  and  C_29
   14  A    between atoms: C_24  and  O_28
   15  A    between atoms: C_26  and  C_34
   16  A    between atoms: C_29  and  C_36
   17  A    between atoms: C_31  and  C_37
   18  A    between atoms: C_33  and  C_36
                            x       y       z     vdW  Elec       q    Type
                         _______ _______ _______ _____ _____    ______ ____

>  <TORSDO>
F 18

$$$$
=
 OpenBabel11052420043D

 37 38  0  0  1  0  0  0  0  0999 V2000
  188.7550  175.3740  144.8720 C   0  0  1  0  0  3  0  0  0  0  0  0
  190.5280  174.6120  141.3810 C   0  0  0  0  0  2  0  0  0  0  0  0
  189.0710  174.5030  143.7370 N   0  0  0  0  0  0  0  0  0  0  0  0
  189.1010  173.2470  143.1220 C   0  0  1  0  0  3  0  0  0  0  0  0
  189.7720  174.2260  142.3990 C   0  0  0  0  0  0  0  0  0  0  0  0
  190.0470  172.3540  143.9140 C   0  0  0  0  0  2  0  0  0  0  0  0
  190.8990  171.4600  143.0180 C   0  0  0  0  0  2  0  0  0  0  0  0
  193.0790  172.2060  142.0510 C   0  0  0  0  0  3  0  0  0  0  0  0
  192.3380  171.8100  143.1720 C   0  0  0  0  0  0  0  0  0  0  0  0
  192.9520  171.7450  144.4320 C   0  0  0  0  0  3  0  0  0  0  0  0
  194.9160  172.0050  145.8140 O   0  0  0  0  0  1  0  0  0  0  0  0
  195.0460  172.4550  143.4390 C   0  0  0  0  0  3  0  0  0  0  0  0
  194.3060  172.0670  144.5650 C   0  0  0  0  0  0  0  0  0  0  0  0
  194.4320  172.5270  142.1850 C   0  0  0  0  0  3  0  0  0  0  0  0
  190.0390  175.7730  145.6410 C   0  0  2  0  0  3  0  0  0  0  0  0
  192.2240  175.7210  144.5660 C   0  0  0  0  0  0  0  0  0  0  0  0
  193.1620  176.4070  143.9690 C   0  0  0  0  0  3  0  0  0  0  0  0
  191.2740  175.0470  145.1540 C   0  0  0  0  0  3  0  0  0  0  0  0
  195.0450  175.6600  145.3670 C   0  0  0  0  0  1  0  0  0  0  0  0
  194.5640  175.8990  143.9490 C   0  0  0  0  0  2  0  0  0  0  0  0
  189.8370  175.6660  147.1010 N   0  0  0  0  0  0  0  0  0  0  0  0
  188.9530  174.5540  147.4780 C   0  0  0  0  0  1  0  0  0  0  0  0
  191.5510  176.9570  148.3990 C   0  0  0  0  0  1  0  0  0  0  0  0
  191.1170  175.6070  147.8230 C   0  0  0  0  0  2  0  0  0  0  0  0
  187.8840  176.5940  144.4330 C   0  0  2  0  0  0  0  0  0  0  0  0
  189.4720  178.0780  143.0660 C   0  0  0  0  0  1  0  0  0  0  0  0
  188.7130  177.8930  144.3690 C   0  0  0  0  0  2  0  0  0  0  0  0
  186.8030  176.8430  145.4980 C   0  0  0  0  0  2  0  0  0  0  0  0
  186.8900  178.0890  147.6260 C   0  0  0  0  0  1  0  0  0  0  0  0
  186.8300  178.2370  146.1170 C   0  0  2  0  0  3  0  0  0  0  0  0
  184.6330  178.2770  146.4830 C   0  0  0  0  0  1  0  0  0  0  0  0
  185.6540  178.9060  145.7690 O   0  0  0  0  0  0  0  0  0  0  0  0
  187.2070  176.3050  143.0730 C   0  0  0  0  0  2  0  0  0  0  0  0
  185.7600  176.7890  142.9840 C   0  0  0  0  0  2  0  0  0  0  0  0
  185.7040  178.1620  142.3440 C   0  0  0  0  0  2  0  0  0  0  0  0
  185.5150  178.0380  140.8430 C   0  0  0  0  0  2  0  0  0  0  0  0
  184.0690  178.3060  140.4750 C   0  0  0  0  0  1  0  0  0  0  0  0
  1 15  1  6  0  0  0
  2  5  2  0  0  0  0
  3  1  1  0  0  0  0
  4  3  1  0  0  0  0
  4  6  1  1  0  0  0
  5  4  1  0  0  0  0
  5  3  1  0  0  0  0
  7  9  1  0  0  0  0
  7  6  1  0  0  0  0
  8 14  2  0  0  0  0
  8  9  1  0  0  0  0
  9 10  2  0  0  0  0
 10 13  1  0  0  0  0
 12 13  2  0  0  0  0
 13 11  1  0  0  0  0
 14 12  1  0  0  0  0
 15 18  1  6  0  0  0
 15 21  1  0  0  0  0
 16 18  2  0  0  0  0
 17 16  2  0  0  0  0
 20 17  1  0  0  0  0
 20 19  1  0  0  0  0
 21 22  1  0  0  0  0
 21 24  1  0  0  0  0
 24 23  1  0  0  0  0
 25 33  1  6  0  0  0
 25  1  1  0  0  0  0
 25 28  1  0  0  0  0
 26 27  1  0  0  0  0
 27 25  1  0  0  0  0
 28 30  1  0  0  0  0
 30 29  1  1  0  0  0
 32 30  1  0  0  0  0
 32 31  1  0  0  0  0
 34 33  1  0  0  0  0
 35 34  1  0  0  0  0
 36 35  1  0  0  0  0
 37 36  1  0  0  0  0
M  END
>  <MODEL>
8

>  <REMARK>
 VINA RESULT:      -5.4      2.118      8.341
  Name = 
  18 active torsions:
  status: ('A' for Active; 'I' for Inactive)
    1  A    between atoms: N_1  and  C_23
    2  A    between atoms: N_1  and  C_36
    3  A    between atoms: C_3  and  C_32
    4  A    between atoms: C_6  and  C_31
    5  A    between atoms: C_9  and  C_13
    6  A    between atoms: C_9  and  C_32
    7  A    between atoms: N_10  and  C_29
    8  A    between atoms: C_13  and  C_20
    9  A    between atoms: C_14  and  C_37
   10  A    between atoms: C_16  and  C_20
   11  A    between atoms: C_16  and  C_24
   12  A    between atoms: C_20  and  C_25
   13  A    between atoms: C_20  and  C_29
   14  A    between atoms: C_24  and  O_28
   15  A    between atoms: C_26  and  C_34
   16  A    between atoms: C_29  and  C_36
   17  A    between atoms: C_31  and  C_37
   18  A    between atoms: C_33  and  C_36
                            x       y       z     vdW  Elec       q    Type
                         _______ _______ _______ _____ _____    ______ ____

>  <TORSDO>
F 18

$$$$
=
 OpenBabel11052420043D

 37 38  0  0  1  0  0  0  0  0999 V2000
  191.7200  174.4690  143.8280 C   0  0  1  0  0  3  0  0  0  0  0  0
  190.8200  178.3550  143.7980 C   0  0  0  0  0  2  0  0  0  0  0  0
  191.1820  175.6830  144.4450 N   0  0  0  0  0  0  0  0  0  0  0  0
  190.4530  176.3340  145.4450 C   0  0  1  0  0  3  0  0  0  0  0  0
  190.8320  177.1780  144.4090 C   0  0  0  0  0  0  0  0  0  0  0  0
  188.9990  175.8920  145.3370 C   0  0  0  0  0  2  0  0  0  0  0  0
  188.2170  176.1210  146.6280 C   0  0  0  0  0  2  0  0  0  0  0  0
  185.8730  176.8120  147.1420 C   0  0  0  0  0  3  0  0  0  0  0  0
  187.0200  176.9620  146.3540 C   0  0  0  0  0  0  0  0  0  0  0  0
  187.0380  177.9030  145.3120 C   0  0  0  0  0  3  0  0  0  0  0  0
  185.9220  179.6150  144.0260 O   0  0  0  0  0  1  0  0  0  0  0  0
  184.7560  178.5220  145.8430 C   0  0  0  0  0  3  0  0  0  0  0  0
  185.9060  178.6810  145.0570 C   0  0  0  0  0  0  0  0  0  0  0  0
  184.7410  177.5910  146.8870 C   0  0  0  0  0  3  0  0  0  0  0  0
  190.8830  174.0560  142.5910 C   0  0  2  0  0  3  0  0  0  0  0  0
  188.8590  175.2780  142.0030 C   0  0  0  0  0  0  0  0  0  0  0  0
  187.5550  175.3170  142.0580 C   0  0  0  0  0  3  0  0  0  0  0  0
  190.1620  175.2200  141.9460 C   0  0  0  0  0  3  0  0  0  0  0  0
  187.8370  177.7330  141.6810 C   0  0  0  0  0  1  0  0  0  0  0  0
  186.8390  176.6200  141.9370 C   0  0  0  0  0  2  0  0  0  0  0  0
  189.9910  172.9210  142.9100 N   0  0  0  0  0  0  0  0  0  0  0  0
  189.7940  172.0090  141.7740 C   0  0  0  0  0  1  0  0  0  0  0  0
  189.4550  172.2950  145.2790 C   0  0  0  0  0  1  0  0  0  0  0  0
  190.4400  172.1990  144.1100 C   0  0  0  0  0  2  0  0  0  0  0  0
  193.2470  174.6050  143.5310 C   0  0  2  0  0  0  0  0  0  0  0  0
  194.2930  176.1080  141.7320 C   0  0  0  0  0  1  0  0  0  0  0  0
  193.6180  176.0360  143.0900 C   0  0  0  0  0  2  0  0  0  0  0  0
  193.6060  173.6980  142.3420 C   0  0  0  0  0  2  0  0  0  0  0  0
  195.4310  172.1780  141.6730 C   0  0  0  0  0  1  0  0  0  0  0  0
  194.3580  172.4250  142.7180 C   0  0  2  0  0  3  0  0  0  0  0  0
  194.2140  170.2270  143.0450 C   0  0  0  0  0  1  0  0  0  0  0  0
  193.4610  171.3550  142.7150 O   0  0  0  0  0  0  0  0  0  0  0  0
  194.0710  174.1780  144.7690 C   0  0  0  0  0  2  0  0  0  0  0  0
  195.0850  175.2240  145.2300 C   0  0  0  0  0  2  0  0  0  0  0  0
  196.4510  174.9280  144.6450 C   0  0  0  0  0  2  0  0  0  0  0  0
  196.8970  173.5280  145.0260 C   0  0  0  0  0  2  0  0  0  0  0  0
  197.1800  173.4570  146.5130 C   0  0  0  0  0  1  0  0  0  0  0  0
  1 15  1  6  0  0  0
  1  3  1  0  0  0  0
  2  5  2  0  0  0  0
  3  4  1  0  0  0  0
  4  6  1  6  0  0  0
  5  3  1  0  0  0  0
  5  4  1  0  0  0  0
  6  7  1  0  0  0  0
  9  7  1  0  0  0  0
  9  8  2  0  0  0  0
 10  9  1  0  0  0  0
 11 13  1  0  0  0  0
 12 14  2  0  0  0  0
 13 10  2  0  0  0  0
 13 12  1  0  0  0  0
 14  8  1  0  0  0  0
 15 18  1  1  0  0  0
 15 21  1  0  0  0  0
 16 17  2  0  0  0  0
 18 16  2  0  0  0  0
 19 20  1  0  0  0  0
 20 17  1  0  0  0  0
 21 24  1  0  0  0  0
 22 21  1  0  0  0  0
 24 23  1  0  0  0  0
 25 28  1  6  0  0  0
 25  1  1  0  0  0  0
 25 33  1  0  0  0  0
 26 27  1  0  0  0  0
 27 25  1  0  0  0  0
 28 30  1  0  0  0  0
 30 29  1  6  0  0  0
 32 30  1  0  0  0  0
 32 31  1  0  0  0  0
 33 34  1  0  0  0  0
 35 36  1  0  0  0  0
 35 34  1  0  0  0  0
 36 37  1  0  0  0  0
M  END
>  <MODEL>
9

>  <REMARK>
 VINA RESULT:      -5.4      1.522      2.107
  Name = 
  18 active torsions:
  status: ('A' for Active; 'I' for Inactive)
    1  A    between atoms: N_1  and  C_23
    2  A    between atoms: N_1  and  C_36
    3  A    between atoms: C_3  and  C_32
    4  A    between atoms: C_6  and  C_31
    5  A    between atoms: C_9  and  C_13
    6  A    between atoms: C_9  and  C_32
    7  A    between atoms: N_10  and  C_29
    8  A    between atoms: C_13  and  C_20
    9  A    between atoms: C_14  and  C_37
   10  A    between atoms: C_16  and  C_20
   11  A    between atoms: C_16  and  C_24
   12  A    between atoms: C_20  and  C_25
   13  A    between atoms: C_20  and  C_29
   14  A    between atoms: C_24  and  O_28
   15  A    between atoms: C_26  and  C_34
   16  A    between atoms: C_29  and  C_36
   17  A    between atoms: C_31  and  C_37
   18  A    between atoms: C_33  and  C_36
                            x       y       z     vdW  Elec       q    Type
                         _______ _______ _______ _____ _____    ______ ____

>  <TORSDO>
F 18

$$$$
