=
 OpenBabel11052418133D

 28 32  0  0  1  0  0  0  0  0999 V2000
  187.8880  176.5400  141.7200 C   0  0  1  0  0  3  0  0  0  0  0  0
  192.4970  176.2340  144.0020 C   0  0  0  0  0  3  0  0  0  0  0  0
  186.9770  177.1530  146.3910 C   0  0  0  0  0  1  0  0  0  0  0  0
  192.0650  176.4860  146.4180 C   0  0  2  0  0  3  0  0  0  0  0  0
  190.2380  177.0570  144.5930 C   0  0  1  0  0  3  0  0  0  0  0  0
  193.9710  175.0520  145.5990 C   0  0  0  0  0  0  0  0  0  0  0  0
  191.5980  176.5000  144.9660 C   0  0  0  0  0  0  0  0  0  0  0  0
  189.7880  177.4040  147.0080 C   0  0  0  0  0  2  0  0  0  0  0  0
  192.9780  175.2890  146.7050 C   0  0  0  0  0  2  0  0  0  0  0  0
  187.4180  176.9940  144.0800 C   0  0  2  0  0  3  0  0  0  0  0  0
  189.6630  176.4240  143.3420 C   0  0  0  0  0  2  0  0  0  0  0  0
  190.9210  176.4840  147.4320 C   0  0  0  0  0  2  0  0  0  0  0  0
  186.1090  178.2530  142.2660 C   0  0  0  0  0  2  0  0  0  0  0  0
  189.2080  176.8650  145.7030 C   0  0  1  0  0  3  0  0  0  0  0  0
  186.1100  177.7290  143.7000 C   0  0  0  0  0  2  0  0  0  0  0  0
  194.8470  174.2150  145.7460 O   0  0  0  0  0  0  0  0  0  0  0  0
  193.9150  175.8520  144.3290 C   0  0  0  0  0  2  0  0  0  0  0  0
  187.9410  177.5270  145.3570 N   0  0  0  0  0  0  0  0  0  0  0  0
  186.5400  177.1490  141.3110 C   0  0  0  0  0  2  0  0  0  0  0  0
  188.4150  177.0970  142.9880 N   0  0  1  0  0  0  0  0  0  0  0  0
  187.8730  174.9990  141.6210 C   0  0  0  0  0  2  0  0  0  0  0  0
  188.6500  174.4490  140.4670 C   0  0  0  0  0  0  0  0  0  0  0  0
  190.1030  173.3870  138.3230 C   0  0  0  0  0  0  0  0  0  0  0  0
  188.1220  174.4930  139.1700 C   0  0  0  0  0  3  0  0  0  0  0  0
  189.9090  173.8800  140.6850 C   0  0  0  0  0  3  0  0  0  0  0  0
  190.6340  173.3480  139.6150 C   0  0  0  0  0  3  0  0  0  0  0  0
  190.8400  172.8440  137.2340 N   0  0  0  0  0  1  0  0  0  0  0  0
  188.8470  173.9620  138.1000 C   0  0  0  0  0  3  0  0  0  0  0  0
  1 21  1  1  0  0  0
  1 20  1  0  0  0  0
  2 17  1  0  0  0  0
  2  7  2  0  0  0  0
  4  9  1  6  0  0  0
  4 12  1  0  0  0  0
  5 11  1  6  0  0  0
  5  7  1  0  0  0  0
  5 14  1  0  0  0  0
  6 16  2  0  0  0  0
  6  9  1  0  0  0  0
  7  4  1  0  0  0  0
  8 12  1  0  0  0  0
 10 15  1  6  0  0  0
 10 18  1  0  0  0  0
 13 15  1  0  0  0  0
 14  8  1  1  0  0  0
 17  6  1  0  0  0  0
 18 14  1  0  0  0  0
 18  3  1  0  0  0  0
 19  1  1  0  0  0  0
 19 13  1  0  0  0  0
 20 11  1  1  0  0  0
 20 10  1  0  0  0  0
 22 25  1  0  0  0  0
 22 21  1  0  0  0  0
 23 26  1  0  0  0  0
 24 22  2  0  0  0  0
 26 25  2  0  0  0  0
 27 23  1  0  0  0  0
 28 23  2  0  0  0  0
 28 24  1  0  0  0  0
M  END
>  <MODEL>
1

>  <REMARK>
 VINA RESULT:      -7.6      0.000      0.000
  Name = 
  2 active torsions:
  status: ('A' for Active; 'I' for Inactive)
    1  A    between atoms: C_1  and  C_2
    2  A    between atoms: C_2  and  C_3
                            x       y       z     vdW  Elec       q    Type
                         _______ _______ _______ _____ _____    ______ ____

>  <TORSDO>
F 2

$$$$
=
 OpenBabel11052418133D

 28 32  0  0  1  0  0  0  0  0999 V2000
  191.3220  175.0050  142.7520 C   0  0  1  0  0  3  0  0  0  0  0  0
  186.8450  177.4940  143.3030 C   0  0  0  0  0  3  0  0  0  0  0  0
  190.5000  175.0010  147.4790 C   0  0  0  0  0  1  0  0  0  0  0  0
  186.4140  177.5650  145.7310 C   0  0  2  0  0  3  0  0  0  0  0  0
  188.2610  175.9950  144.6740 C   0  0  1  0  0  3  0  0  0  0  0  0
  185.6270  179.4360  144.2330 C   0  0  0  0  0  0  0  0  0  0  0  0
  187.2260  177.0930  144.5290 C   0  0  0  0  0  0  0  0  0  0  0  0
  187.8060  175.9740  147.1120 C   0  0  0  0  0  2  0  0  0  0  0  0
  186.0590  179.0530  145.6240 C   0  0  0  0  0  2  0  0  0  0  0  0
  190.8540  174.8690  145.1510 C   0  0  2  0  0  3  0  0  0  0  0  0
  189.3840  176.1050  143.6620 C   0  0  0  0  0  2  0  0  0  0  0  0
  187.1050  177.3220  147.0730 C   0  0  0  0  0  2  0  0  0  0  0  0
  191.9600  172.8790  143.9660 C   0  0  0  0  0  2  0  0  0  0  0  0
  188.9080  175.9870  146.0570 C   0  0  1  0  0  3  0  0  0  0  0  0
  191.7710  173.6290  145.2810 C   0  0  0  0  0  2  0  0  0  0  0  0
  185.1910  180.5570  144.0270 O   0  0  0  0  0  0  0  0  0  0  0  0
  185.6980  178.4480  143.1050 C   0  0  0  0  0  2  0  0  0  0  0  0
  189.8120  174.8350  146.2000 N   0  0  0  0  0  0  0  0  0  0  0  0
  192.3360  173.8580  142.8620 C   0  0  0  0  0  2  0  0  0  0  0  0
  190.2690  174.9490  143.7920 N   0  0  1  0  0  0  0  0  0  0  0  0
  192.0220  176.3710  142.5800 C   0  0  0  0  0  2  0  0  0  0  0  0
  193.5120  176.3200  142.7080 C   0  0  0  0  0  0  0  0  0  0  0  0
  196.3010  176.2570  142.9310 C   0  0  0  0  0  0  0  0  0  0  0  0
  194.1150  176.3010  143.9720 C   0  0  0  0  0  3  0  0  0  0  0  0
  194.3080  176.2990  141.5580 C   0  0  0  0  0  3  0  0  0  0  0  0
  195.7010  176.2700  141.6680 C   0  0  0  0  0  3  0  0  0  0  0  0
  197.7190  176.2280  143.0440 N   0  0  0  0  0  1  0  0  0  0  0  0
  195.5080  176.2700  144.0820 C   0  0  0  0  0  3  0  0  0  0  0  0
  1 21  1  1  0  0  0
  1 19  1  0  0  0  0
  1 20  1  0  0  0  0
  2  7  2  0  0  0  0
  4  9  1  6  0  0  0
  4 12  1  0  0  0  0
  5 11  1  6  0  0  0
  5 14  1  0  0  0  0
  6  9  1  0  0  0  0
  7  5  1  0  0  0  0
  7  4  1  0  0  0  0
 10 15  1  6  0  0  0
 10 18  1  0  0  0  0
 12  8  1  0  0  0  0
 13 15  1  0  0  0  0
 14 18  1  0  0  0  0
 14  8  1  1  0  0  0
 16  6  2  0  0  0  0
 17  2  1  0  0  0  0
 17  6  1  0  0  0  0
 18  3  1  0  0  0  0
 19 13  1  0  0  0  0
 20 11  1  1  0  0  0
 20 10  1  0  0  0  0
 21 22  1  0  0  0  0
 22 24  1  0  0  0  0
 23 27  1  0  0  0  0
 23 28  1  0  0  0  0
 24 28  2  0  0  0  0
 25 26  1  0  0  0  0
 25 22  2  0  0  0  0
 26 23  2  0  0  0  0
M  END
>  <MODEL>
2

>  <REMARK>
 VINA RESULT:      -7.5      3.606      6.384
  Name = 
  2 active torsions:
  status: ('A' for Active; 'I' for Inactive)
    1  A    between atoms: C_1  and  C_2
    2  A    between atoms: C_2  and  C_3
                            x       y       z     vdW  Elec       q    Type
                         _______ _______ _______ _____ _____    ______ ____

>  <TORSDO>
F 2

$$$$
=
 OpenBabel11052418133D

 28 32  0  0  1  0  0  0  0  0999 V2000
  192.7830  174.7360  143.5400 C   0  0  1  0  0  3  0  0  0  0  0  0
  187.8870  176.0960  142.6830 C   0  0  0  0  0  3  0  0  0  0  0  0
  191.1840  176.2770  147.7940 C   0  0  0  0  0  1  0  0  0  0  0  0
  187.0440  176.9510  144.8380 C   0  0  2  0  0  3  0  0  0  0  0  0
  189.3080  175.5970  144.6500 C   0  0  1  0  0  3  0  0  0  0  0  0
  186.1830  177.8890  142.6610 C   0  0  0  0  0  0  0  0  0  0  0  0
  188.1230  176.2790  143.9940 C   0  0  0  0  0  0  0  0  0  0  0  0
  188.4560  176.3670  146.8480 C   0  0  0  0  0  2  0  0  0  0  0  0
  186.4370  178.1610  144.1190 C   0  0  0  0  0  2  0  0  0  0  0  0
  191.9470  175.3860  145.7480 C   0  0  2  0  0  3  0  0  0  0  0  0
  190.5450  175.5930  143.7740 C   0  0  0  0  0  2  0  0  0  0  0  0
  187.5290  177.3940  146.2180 C   0  0  0  0  0  2  0  0  0  0  0  0
  193.5950  173.4290  145.5470 C   0  0  0  0  0  2  0  0  0  0  0  0
  189.6990  176.2550  145.9700 C   0  0  1  0  0  3  0  0  0  0  0  0
  193.0470  174.5420  146.4360 C   0  0  0  0  0  2  0  0  0  0  0  0
  185.5840  178.7140  141.9900 O   0  0  0  0  0  0  0  0  0  0  0  0
  186.6310  176.6030  142.0280 C   0  0  0  0  0  2  0  0  0  0  0  0
  190.7670  175.4910  146.6340 N   0  0  0  0  0  0  0  0  0  0  0  0
  193.9620  173.9920  144.1810 C   0  0  0  0  0  2  0  0  0  0  0  0
  191.5970  174.8160  144.4260 N   0  0  1  0  0  0  0  0  0  0  0  0
  193.2290  176.0690  142.8980 C   0  0  0  0  0  2  0  0  0  0  0  0
  194.3630  175.9350  141.9310 C   0  0  0  0  0  0  0  0  0  0  0  0
  196.5010  175.6630  140.1450 C   0  0  0  0  0  0  0  0  0  0  0  0
  194.1620  175.3360  140.6810 C   0  0  0  0  0  3  0  0  0  0  0  0
  195.6340  176.4040  142.2810 C   0  0  0  0  0  3  0  0  0  0  0  0
  196.7020  176.2670  141.3900 C   0  0  0  0  0  3  0  0  0  0  0  0
  197.5890  175.5230  139.2390 N   0  0  0  0  0  1  0  0  0  0  0  0
  195.2300  175.2000  139.7900 C   0  0  0  0  0  3  0  0  0  0  0  0
  1 21  1  1  0  0  0
  1 19  1  0  0  0  0
  1 20  1  0  0  0  0
  2  7  2  0  0  0  0
  4  9  1  6  0  0  0
  4 12  1  0  0  0  0
  5 11  1  6  0  0  0
  5 14  1  0  0  0  0
  6  9  1  0  0  0  0
  7  5  1  0  0  0  0
  7  4  1  0  0  0  0
 10 15  1  1  0  0  0
 10 18  1  0  0  0  0
 12  8  1  0  0  0  0
 13 15  1  0  0  0  0
 14 18  1  0  0  0  0
 14  8  1  1  0  0  0
 16  6  2  0  0  0  0
 17  6  1  0  0  0  0
 17  2  1  0  0  0  0
 18  3  1  0  0  0  0
 19 13  1  0  0  0  0
 20 11  1  6  0  0  0
 20 10  1  0  0  0  0
 22 25  1  0  0  0  0
 22 21  1  0  0  0  0
 23 26  1  0  0  0  0
 24 22  2  0  0  0  0
 26 25  2  0  0  0  0
 27 23  1  0  0  0  0
 28 23  2  0  0  0  0
 28 24  1  0  0  0  0
M  END
>  <MODEL>
3

>  <REMARK>
 VINA RESULT:      -7.3      3.473      6.230
  Name = 
  2 active torsions:
  status: ('A' for Active; 'I' for Inactive)
    1  A    between atoms: C_1  and  C_2
    2  A    between atoms: C_2  and  C_3
                            x       y       z     vdW  Elec       q    Type
                         _______ _______ _______ _____ _____    ______ ____

>  <TORSDO>
F 2

$$$$
=
 OpenBabel11052418133D

 28 32  0  0  1  0  0  0  0  0999 V2000
  190.1570  176.3910  145.8800 C   0  0  1  0  0  3  0  0  0  0  0  0
  189.4010  174.6710  141.0820 C   0  0  0  0  0  3  0  0  0  0  0  0
  193.2570  172.7630  145.3840 C   0  0  0  0  0  1  0  0  0  0  0  0
  190.9390  172.7620  140.8060 C   0  0  2  0  0  3  0  0  0  0  0  0
  191.1460  174.4570  142.8260 C   0  0  1  0  0  3  0  0  0  0  0  0
  188.7200  172.8050  139.6070 C   0  0  0  0  0  0  0  0  0  0  0  0
  190.4040  173.9450  141.6070 C   0  0  0  0  0  0  0  0  0  0  0  0
  192.7660  172.5990  142.5420 C   0  0  0  0  0  2  0  0  0  0  0  0
  189.8040  171.9370  140.1900 C   0  0  0  0  0  2  0  0  0  0  0  0
  191.8420  174.6360  145.6010 C   0  0  2  0  0  3  0  0  0  0  0  0
  190.2320  175.1100  143.8430 C   0  0  0  0  0  2  0  0  0  0  0  0
  191.8400  171.8280  141.6150 C   0  0  0  0  0  2  0  0  0  0  0  0
  192.4190  176.7370  146.9570 C   0  0  0  0  0  2  0  0  0  0  0  0
  191.9010  173.3480  143.5530 C   0  0  1  0  0  3  0  0  0  0  0  0
  192.7040  175.2550  146.7270 C   0  0  0  0  0  2  0  0  0  0  0  0
  187.8160  172.2910  138.9690 O   0  0  0  0  0  0  0  0  0  0  0  0
  188.7550  174.2970  139.7750 C   0  0  0  0  0  2  0  0  0  0  0  0
  192.7070  173.9030  144.6520 N   0  0  0  0  0  0  0  0  0  0  0  0
  190.9190  176.9620  147.0840 C   0  0  0  0  0  2  0  0  0  0  0  0
  191.0360  175.6780  144.9230 N   0  0  1  0  0  0  0  0  0  0  0  0
  188.8860  175.6290  146.3170 C   0  0  0  0  0  2  0  0  0  0  0  0
  187.6200  176.4120  146.1710 C   0  0  0  0  0  0  0  0  0  0  0  0
  185.2620  177.9000  145.9240 C   0  0  0  0  0  0  0  0  0  0  0  0
  187.3100  177.0420  144.9590 C   0  0  0  0  0  3  0  0  0  0  0  0
  186.7420  176.5220  147.2550 C   0  0  0  0  0  3  0  0  0  0  0  0
  185.5650  177.2670  147.1320 C   0  0  0  0  0  3  0  0  0  0  0  0
  184.0650  178.6590  145.8000 N   0  0  0  0  0  1  0  0  0  0  0  0
  186.1330  177.7860  144.8360 C   0  0  0  0  0  3  0  0  0  0  0  0
  1 21  1  1  0  0  0
  1 19  1  0  0  0  0
  2  7  2  0  0  0  0
  4  9  1  1  0  0  0
  4  7  1  0  0  0  0
  4 12  1  0  0  0  0
  5 14  1  0  0  0  0
  5 11  1  1  0  0  0
  6 17  1  0  0  0  0
  6  9  1  0  0  0  0
  7  5  1  0  0  0  0
 10 15  1  1  0  0  0
 12  8  1  0  0  0  0
 13 19  1  0  0  0  0
 14  8  1  6  0  0  0
 14 18  1  0  0  0  0
 15 13  1  0  0  0  0
 16  6  2  0  0  0  0
 17  2  1  0  0  0  0
 18  3  1  0  0  0  0
 18 10  1  0  0  0  0
 20 11  1  6  0  0  0
 20 10  1  0  0  0  0
 20  1  1  0  0  0  0
 22 21  1  0  0  0  0
 22 25  1  0  0  0  0
 23 26  1  0  0  0  0
 24 22  2  0  0  0  0
 26 25  2  0  0  0  0
 27 23  1  0  0  0  0
 28 24  1  0  0  0  0
 28 23  2  0  0  0  0
M  END
>  <MODEL>
4

>  <REMARK>
 VINA RESULT:      -7.2      3.013      7.143
  Name = 
  2 active torsions:
  status: ('A' for Active; 'I' for Inactive)
    1  A    between atoms: C_1  and  C_2
    2  A    between atoms: C_2  and  C_3
                            x       y       z     vdW  Elec       q    Type
                         _______ _______ _______ _____ _____    ______ ____

>  <TORSDO>
F 2

$$$$
=
 OpenBabel11052418133D

 28 32  0  0  1  0  0  0  0  0999 V2000
  191.9340  175.7440  145.4800 C   0  0  1  0  0  3  0  0  0  0  0  0
  188.2250  175.8220  141.9040 C   0  0  0  0  0  3  0  0  0  0  0  0
  188.3330  178.1770  147.5130 C   0  0  0  0  0  1  0  0  0  0  0  0
  186.3720  177.1170  142.8910 C   0  0  2  0  0  3  0  0  0  0  0  0
  188.3960  176.2260  144.3410 C   0  0  1  0  0  3  0  0  0  0  0  0
  186.7890  177.1650  140.4040 C   0  0  0  0  0  0  0  0  0  0  0  0
  187.7340  176.4380  142.9940 C   0  0  0  0  0  0  0  0  0  0  0  0
  186.5130  177.4540  145.3900 C   0  0  0  0  0  2  0  0  0  0  0  0
  186.2350  177.9120  141.5870 C   0  0  0  0  0  2  0  0  0  0  0  0
  190.0600  176.8660  146.5870 C   0  0  2  0  0  3  0  0  0  0  0  0
  189.9090  176.1900  144.2570 C   0  0  0  0  0  2  0  0  0  0  0  0
  186.0570  178.0450  144.0650 C   0  0  0  0  0  2  0  0  0  0  0  0
  191.5670  175.2910  147.9410 C   0  0  0  0  0  2  0  0  0  0  0  0
  188.0320  177.3170  145.3450 C   0  0  1  0  0  3  0  0  0  0  0  0
  190.6320  176.4970  147.9760 C   0  0  0  0  0  2  0  0  0  0  0  0
  186.6320  177.6160  139.2810 O   0  0  0  0  0  0  0  0  0  0  0  0
  187.5030  175.8560  140.5850 C   0  0  0  0  0  2  0  0  0  0  0  0
  188.5900  177.0100  146.6710 N   0  0  0  0  0  0  0  0  0  0  0  0
  192.5980  175.4680  146.8360 C   0  0  0  0  0  2  0  0  0  0  0  0
  190.4600  175.8640  145.5710 N   0  0  1  0  0  0  0  0  0  0  0  0
  192.6510  176.8760  144.7120 C   0  0  0  0  0  2  0  0  0  0  0  0
  193.8010  176.4160  143.8720 C   0  0  0  0  0  0  0  0  0  0  0  0
  195.9460  175.5830  142.2780 C   0  0  0  0  0  0  0  0  0  0  0  0
  195.1030  176.4160  144.3900 C   0  0  0  0  0  3  0  0  0  0  0  0
  193.5760  175.9900  142.5580 C   0  0  0  0  0  3  0  0  0  0  0  0
  194.6470  175.5760  141.7610 C   0  0  0  0  0  3  0  0  0  0  0  0
  197.0360  175.1630  141.4670 N   0  0  0  0  0  1  0  0  0  0  0  0
  196.1730  176.0000  143.5930 C   0  0  0  0  0  3  0  0  0  0  0  0
  1 21  1  1  0  0  0
  1 20  1  0  0  0  0
  1 19  1  0  0  0  0
  2  7  2  0  0  0  0
  4  9  1  6  0  0  0
  4  7  1  0  0  0  0
  4 12  1  0  0  0  0
  5 11  1  6  0  0  0
  5 14  1  0  0  0  0
  6 17  1  0  0  0  0
  6  9  1  0  0  0  0
  7  5  1  0  0  0  0
 10 18  1  0  0  0  0
 10 15  1  1  0  0  0
 12  8  1  0  0  0  0
 13 15  1  0  0  0  0
 14  8  1  1  0  0  0
 14 18  1  0  0  0  0
 16  6  2  0  0  0  0
 17  2  1  0  0  0  0
 18  3  1  0  0  0  0
 19 13  1  0  0  0  0
 20 11  1  6  0  0  0
 20 10  1  0  0  0  0
 22 24  1  0  0  0  0
 22 21  1  0  0  0  0
 23 28  1  0  0  0  0
 25 22  2  0  0  0  0
 26 23  2  0  0  0  0
 26 25  1  0  0  0  0
 27 23  1  0  0  0  0
 28 24  2  0  0  0  0
M  END
>  <MODEL>
5

>  <REMARK>
 VINA RESULT:      -7.2      3.149      6.368
  Name = 
  2 active torsions:
  status: ('A' for Active; 'I' for Inactive)
    1  A    between atoms: C_1  and  C_2
    2  A    between atoms: C_2  and  C_3
                            x       y       z     vdW  Elec       q    Type
                         _______ _______ _______ _____ _____    ______ ____

>  <TORSDO>
F 2

$$$$
=
 OpenBabel11052418133D

 28 32  0  0  1  0  0  0  0  0999 V2000
  188.4450  174.4010  141.3160 C   0  0  1  0  0  3  0  0  0  0  0  0
  190.0110  175.0090  146.1870 C   0  0  0  0  0  3  0  0  0  0  0  0
  193.1530  173.4790  141.2060 C   0  0  0  0  0  1  0  0  0  0  0  0
  192.4440  174.6000  146.1620 C   0  0  2  0  0  3  0  0  0  0  0  0
  190.8880  173.9570  144.1240 C   0  0  1  0  0  3  0  0  0  0  0  0
  191.4350  176.2390  147.7920 C   0  0  0  0  0  0  0  0  0  0  0  0
  191.0820  174.6150  145.4750 C   0  0  0  0  0  0  0  0  0  0  0  0
  193.3160  173.4520  144.0890 C   0  0  0  0  0  2  0  0  0  0  0  0
  192.6630  175.8590  147.0100 C   0  0  0  0  0  2  0  0  0  0  0  0
  190.8160  173.7910  141.2620 C   0  0  2  0  0  3  0  0  0  0  0  0
  189.7810  174.5970  143.3090 C   0  0  0  0  0  2  0  0  0  0  0  0
  193.6190  174.4490  145.1970 C   0  0  0  0  0  2  0  0  0  0  0  0
  189.1490  172.5090  139.7910 C   0  0  0  0  0  2  0  0  0  0  0  0
  192.1520  174.0010  143.2690 C   0  0  1  0  0  3  0  0  0  0  0  0
  190.5950  172.9600  139.9750 C   0  0  0  0  0  2  0  0  0  0  0  0
  191.4980  177.1440  148.6090 O   0  0  0  0  0  0  0  0  0  0  0  0
  190.1410  175.5010  147.6030 C   0  0  0  0  0  2  0  0  0  0  0  0
  191.9620  173.2450  142.0210 N   0  0  0  0  0  0  0  0  0  0  0  0
  188.2100  173.6930  139.9740 C   0  0  0  0  0  2  0  0  0  0  0  0
  189.5810  173.8320  142.0800 N   0  0  1  0  0  0  0  0  0  0  0  0
  188.4460  175.9370  141.1600 C   0  0  0  0  0  2  0  0  0  0  0  0
  187.1760  176.6000  141.5910 C   0  0  0  0  0  0  0  0  0  0  0  0
  184.7820  177.8230  142.3700 C   0  0  0  0  0  0  0  0  0  0  0  0
  186.6250  176.3270  142.8490 C   0  0  0  0  0  3  0  0  0  0  0  0
  186.5300  177.4920  140.7280 C   0  0  0  0  0  3  0  0  0  0  0  0
  185.3330  178.1020  141.1160 C   0  0  0  0  0  3  0  0  0  0  0  0
  183.5640  178.4420  142.7640 N   0  0  0  0  0  1  0  0  0  0  0  0
  185.4290  176.9380  143.2380 C   0  0  0  0  0  3  0  0  0  0  0  0
  1 21  1  6  0  0  0
  1 20  1  0  0  0  0
  2 17  1  0  0  0  0
  3 18  1  0  0  0  0
  4 12  1  6  0  0  0
  4  9  1  0  0  0  0
  5 11  1  6  0  0  0
  5  7  1  0  0  0  0
  6 16  2  0  0  0  0
  7  4  1  0  0  0  0
  7  2  2  0  0  0  0
  8 12  1  0  0  0  0
  9  6  1  0  0  0  0
 10 15  1  6  0  0  0
 10 18  1  0  0  0  0
 10 20  1  0  0  0  0
 13 19  1  0  0  0  0
 13 15  1  0  0  0  0
 14  8  1  1  0  0  0
 14  5  1  0  0  0  0
 17  6  1  0  0  0  0
 18 14  1  0  0  0  0
 19  1  1  0  0  0  0
 20 11  1  1  0  0  0
 21 22  1  0  0  0  0
 22 24  1  0  0  0  0
 23 27  1  0  0  0  0
 23 28  1  0  0  0  0
 24 28  2  0  0  0  0
 25 26  1  0  0  0  0
 25 22  2  0  0  0  0
 26 23  2  0  0  0  0
M  END
>  <MODEL>
6

>  <REMARK>
 VINA RESULT:      -7.2      2.363      5.350
  Name = 
  2 active torsions:
  status: ('A' for Active; 'I' for Inactive)
    1  A    between atoms: C_1  and  C_2
    2  A    between atoms: C_2  and  C_3
                            x       y       z     vdW  Elec       q    Type
                         _______ _______ _______ _____ _____    ______ ____

>  <TORSDO>
F 2

$$$$
=
 OpenBabel11052418133D

 28 32  0  0  1  0  0  0  0  0999 V2000
  188.9380  175.9290  143.6790 C   0  0  1  0  0  3  0  0  0  0  0  0
  193.9500  176.0200  142.4870 C   0  0  0  0  0  3  0  0  0  0  0  0
  191.1940  176.0920  147.9110 C   0  0  0  0  0  1  0  0  0  0  0  0
  195.1490  176.0460  144.6430 C   0  0  2  0  0  3  0  0  0  0  0  0
  192.5540  176.5200  144.4700 C   0  0  1  0  0  3  0  0  0  0  0  0
  196.1580  174.9140  142.6270 C   0  0  0  0  0  0  0  0  0  0  0  0
  193.8630  176.1060  143.8260 C   0  0  0  0  0  0  0  0  0  0  0  0
  193.7340  176.6370  146.6490 C   0  0  0  0  0  2  0  0  0  0  0  0
  196.0920  174.9500  144.1300 C   0  0  0  0  0  2  0  0  0  0  0  0
  190.0630  176.1530  145.8420 C   0  0  2  0  0  3  0  0  0  0  0  0
  191.3430  175.9130  143.7900 C   0  0  0  0  0  2  0  0  0  0  0  0
  194.9200  175.8330  146.1390 C   0  0  0  0  0  2  0  0  0  0  0  0
  187.8400  177.3710  145.4430 C   0  0  0  0  0  2  0  0  0  0  0  0
  192.4810  176.1260  145.9430 C   0  0  1  0  0  3  0  0  0  0  0  0
  188.7810  176.7500  146.4710 C   0  0  0  0  0  2  0  0  0  0  0  0
  196.9650  174.1810  142.0780 O   0  0  0  0  0  0  0  0  0  0  0  0
  195.2670  175.7900  141.7950 C   0  0  0  0  0  2  0  0  0  0  0  0
  191.2550  176.6530  146.5620 N   0  0  0  0  0  0  0  0  0  0  0  0
  187.6130  176.3980  144.2950 C   0  0  0  0  0  2  0  0  0  0  0  0
  190.1260  176.4540  144.3930 N   0  0  1  0  0  0  0  0  0  0  0  0
  188.9370  174.4080  143.4100 C   0  0  0  0  0  2  0  0  0  0  0  0
  188.8380  174.0400  141.9630 C   0  0  0  0  0  0  0  0  0  0  0  0
  188.6760  173.3810  139.2470 C   0  0  0  0  0  0  0  0  0  0  0  0
  189.3150  172.8030  141.5100 C   0  0  0  0  0  3  0  0  0  0  0  0
  188.2720  174.9410  141.0540 C   0  0  0  0  0  3  0  0  0  0  0  0
  188.1930  174.6130  139.6970 C   0  0  0  0  0  3  0  0  0  0  0  0
  188.5960  173.0470  137.8670 N   0  0  0  0  0  1  0  0  0  0  0  0
  189.2340  172.4750  140.1540 C   0  0  0  0  0  3  0  0  0  0  0  0
  1 21  1  1  0  0  0
  1 19  1  0  0  0  0
  1 20  1  0  0  0  0
  2  7  2  0  0  0  0
  4  9  1  6  0  0  0
  4 12  1  0  0  0  0
  5 11  1  6  0  0  0
  5 14  1  0  0  0  0
  6  9  1  0  0  0  0
  7  5  1  0  0  0  0
  7  4  1  0  0  0  0
 10 15  1  1  0  0  0
 10 18  1  0  0  0  0
 12  8  1  0  0  0  0
 13 15  1  0  0  0  0
 14 18  1  0  0  0  0
 14  8  1  1  0  0  0
 16  6  2  0  0  0  0
 17  2  1  0  0  0  0
 17  6  1  0  0  0  0
 18  3  1  0  0  0  0
 19 13  1  0  0  0  0
 20 11  1  6  0  0  0
 20 10  1  0  0  0  0
 22 21  1  0  0  0  0
 23 26  2  0  0  0  0
 23 28  1  0  0  0  0
 24 22  1  0  0  0  0
 25 22  2  0  0  0  0
 26 25  1  0  0  0  0
 27 23  1  0  0  0  0
 28 24  2  0  0  0  0
M  END
>  <MODEL>
7

>  <REMARK>
 VINA RESULT:      -7.1      1.850      3.130
  Name = 
  2 active torsions:
  status: ('A' for Active; 'I' for Inactive)
    1  A    between atoms: C_1  and  C_2
    2  A    between atoms: C_2  and  C_3
                            x       y       z     vdW  Elec       q    Type
                         _______ _______ _______ _____ _____    ______ ____

>  <TORSDO>
F 2

$$$$
=
 OpenBabel11052418133D

 28 32  0  0  1  0  0  0  0  0999 V2000
  191.9930  175.2650  146.2970 C   0  0  1  0  0  3  0  0  0  0  0  0
  190.4580  171.9050  142.7050 C   0  0  0  0  0  3  0  0  0  0  0  0
  188.7130  177.6430  143.7280 C   0  0  0  0  0  1  0  0  0  0  0  0
  188.8090  173.1110  141.3230 C   0  0  2  0  0  3  0  0  0  0  0  0
  189.6300  174.0340  143.6610 C   0  0  1  0  0  3  0  0  0  0  0  0
  190.2840  171.3370  140.3040 C   0  0  0  0  0  0  0  0  0  0  0  0
  189.7280  173.0220  142.5370 C   0  0  0  0  0  0  0  0  0  0  0  0
  187.9090  175.2400  142.3430 C   0  0  0  0  0  2  0  0  0  0  0  0
  189.4970  172.5960  140.0540 C   0  0  0  0  0  2  0  0  0  0  0  0
  190.2240  176.4490  145.0880 C   0  0  2  0  0  3  0  0  0  0  0  0
  190.9430  174.2340  144.3920 C   0  0  0  0  0  2  0  0  0  0  0  0
  188.2790  174.5200  141.0550 C   0  0  0  0  0  2  0  0  0  0  0  0
  190.4570  176.7740  147.6230 C   0  0  0  0  0  2  0  0  0  0  0  0
  189.1820  175.4080  143.1680 C   0  0  1  0  0  3  0  0  0  0  0  0
  189.9860  177.3780  146.3030 C   0  0  0  0  0  2  0  0  0  0  0  0
  190.7790  170.7400  139.3620 O   0  0  0  0  0  0  0  0  0  0  0  0
  190.4410  170.7910  141.6940 C   0  0  0  0  0  2  0  0  0  0  0  0
  188.9780  176.3250  144.3010 N   0  0  0  0  0  0  0  0  0  0  0  0
  191.8760  176.2440  147.4730 C   0  0  0  0  0  2  0  0  0  0  0  0
  190.7340  175.1290  145.5280 N   0  0  1  0  0  0  0  0  0  0  0  0
  193.2640  175.5270  145.4600 C   0  0  0  0  0  2  0  0  0  0  0  0
  194.2930  174.4450  145.5490 C   0  0  0  0  0  0  0  0  0  0  0  0
  196.2110  172.4100  145.6800 C   0  0  0  0  0  0  0  0  0  0  0  0
  195.6400  174.7620  145.7670 C   0  0  0  0  0  3  0  0  0  0  0  0
  193.9090  173.1070  145.4050 C   0  0  0  0  0  3  0  0  0  0  0  0
  194.8670  172.0910  145.4680 C   0  0  0  0  0  3  0  0  0  0  0  0
  197.1860  171.3760  145.7440 N   0  0  0  0  0  1  0  0  0  0  0  0
  196.5970  173.7460  145.8320 C   0  0  0  0  0  3  0  0  0  0  0  0
  1 21  1  6  0  0  0
  1 19  1  0  0  0  0
  3 18  1  0  0  0  0
  4  9  1  6  0  0  0
  4  7  1  0  0  0  0
  5 11  1  6  0  0  0
  6 17  1  0  0  0  0
  7  2  2  0  0  0  0
  7  5  1  0  0  0  0
  9  6  1  0  0  0  0
 10 20  1  0  0  0  0
 10 15  1  1  0  0  0
 12  4  1  0  0  0  0
 12  8  1  0  0  0  0
 14  8  1  1  0  0  0
 14  5  1  0  0  0  0
 14 18  1  0  0  0  0
 15 13  1  0  0  0  0
 16  6  2  0  0  0  0
 17  2  1  0  0  0  0
 18 10  1  0  0  0  0
 19 13  1  0  0  0  0
 20 11  1  6  0  0  0
 20  1  1  0  0  0  0
 21 22  1  0  0  0  0
 22 24  1  0  0  0  0
 23 27  1  0  0  0  0
 23 28  1  0  0  0  0
 24 28  2  0  0  0  0
 25 26  1  0  0  0  0
 25 22  2  0  0  0  0
 26 23  2  0  0  0  0
M  END
>  <MODEL>
8

>  <REMARK>
 VINA RESULT:      -7.0      3.222      6.745
  Name = 
  2 active torsions:
  status: ('A' for Active; 'I' for Inactive)
    1  A    between atoms: C_1  and  C_2
    2  A    between atoms: C_2  and  C_3
                            x       y       z     vdW  Elec       q    Type
                         _______ _______ _______ _____ _____    ______ ____

>  <TORSDO>
F 2

$$$$
=
 OpenBabel11052418133D

 28 32  0  0  1  0  0  0  0  0999 V2000
  188.9840  175.7130  143.1460 C   0  0  1  0  0  3  0  0  0  0  0  0
  194.1030  176.0310  142.6600 C   0  0  0  0  0  3  0  0  0  0  0  0
  190.6100  176.1340  147.6410 C   0  0  0  0  0  1  0  0  0  0  0  0
  194.9840  176.1910  144.9590 C   0  0  2  0  0  3  0  0  0  0  0  0
  192.4190  176.5210  144.4090 C   0  0  1  0  0  3  0  0  0  0  0  0
  196.3200  175.0490  143.1500 C   0  0  0  0  0  0  0  0  0  0  0  0
  193.8240  176.1570  143.9700 C   0  0  0  0  0  0  0  0  0  0  0  0
  193.2730  176.7720  146.7240 C   0  0  0  0  0  2  0  0  0  0  0  0
  196.0410  175.1320  144.6270 C   0  0  0  0  0  2  0  0  0  0  0  0
  189.7800  176.0670  145.4340 C   0  0  2  0  0  3  0  0  0  0  0  0
  191.3460  175.8280  143.5910 C   0  0  0  0  0  2  0  0  0  0  0  0
  194.5560  176.0160  146.4160 C   0  0  0  0  0  2  0  0  0  0  0  0
  187.5800  177.1510  144.6810 C   0  0  0  0  0  2  0  0  0  0  0  0
  192.1590  176.1720  145.8710 C   0  0  1  0  0  3  0  0  0  0  0  0
  188.3950  176.6150  145.8540 C   0  0  0  0  0  2  0  0  0  0  0  0
  197.2300  174.3430  142.7480 O   0  0  0  0  0  0  0  0  0  0  0  0
  195.5140  175.8490  142.1680 C   0  0  0  0  0  2  0  0  0  0  0  0
  190.8330  176.6530  146.2920 N   0  0  0  0  0  0  0  0  0  0  0  0
  187.5640  176.1310  143.5520 C   0  0  0  0  0  2  0  0  0  0  0  0
  190.0330  176.3230  143.9970 N   0  0  1  0  0  0  0  0  0  0  0  0
  189.0930  174.1860  142.9400 C   0  0  0  0  0  2  0  0  0  0  0  0
  189.1350  173.7610  141.5060 C   0  0  0  0  0  0  0  0  0  0  0  0
  189.1940  172.9350  138.8320 C   0  0  0  0  0  0  0  0  0  0  0  0
  188.5390  174.5500  140.5140 C   0  0  0  0  0  3  0  0  0  0  0  0
  189.7670  172.5630  141.1540 C   0  0  0  0  0  3  0  0  0  0  0  0
  189.7950  172.1490  139.8190 C   0  0  0  0  0  3  0  0  0  0  0  0
  189.2210  172.5140  137.4740 N   0  0  0  0  0  1  0  0  0  0  0  0
  188.5680  174.1370  139.1790 C   0  0  0  0  0  3  0  0  0  0  0  0
  1 21  1  1  0  0  0
  1 19  1  0  0  0  0
  1 20  1  0  0  0  0
  2  7  2  0  0  0  0
  4  9  1  6  0  0  0
  4 12  1  0  0  0  0
  5 11  1  6  0  0  0
  5 14  1  0  0  0  0
  6  9  1  0  0  0  0
  7  5  1  0  0  0  0
  7  4  1  0  0  0  0
 10 15  1  1  0  0  0
 10 18  1  0  0  0  0
 12  8  1  0  0  0  0
 13 15  1  0  0  0  0
 14 18  1  0  0  0  0
 14  8  1  1  0  0  0
 16  6  2  0  0  0  0
 17  2  1  0  0  0  0
 17  6  1  0  0  0  0
 18  3  1  0  0  0  0
 19 13  1  0  0  0  0
 20 11  1  6  0  0  0
 20 10  1  0  0  0  0
 22 21  1  0  0  0  0
 23 28  2  0  0  0  0
 23 26  1  0  0  0  0
 24 22  2  0  0  0  0
 25 22  1  0  0  0  0
 26 25  2  0  0  0  0
 27 23  1  0  0  0  0
 28 24  1  0  0  0  0
M  END
>  <MODEL>
9

>  <REMARK>
 VINA RESULT:      -7.0      1.669      2.671
  Name = 
  2 active torsions:
  status: ('A' for Active; 'I' for Inactive)
    1  A    between atoms: C_1  and  C_2
    2  A    between atoms: C_2  and  C_3
                            x       y       z     vdW  Elec       q    Type
                         _______ _______ _______ _____ _____    ______ ____

>  <TORSDO>
F 2

$$$$
