=
 OpenBabel11052421253D

 32 37  0  0  1  0  0  0  0  0999 V2000
  192.0390  174.6060  146.4310 O   0  0  0  0  0  0  0  0  0  0  0  0
  188.3660  177.3340  143.9980 C   0  0  1  0  0  3  0  0  0  0  0  0
  186.2550  178.5430  148.2940 C   0  0  0  0  0  3  0  0  0  0  0  0
  185.0030  178.5730  147.6870 C   0  0  0  0  0  3  0  0  0  0  0  0
  186.9360  177.5690  141.9560 C   0  0  0  0  0  0  0  0  0  0  0  0
  185.6230  177.7930  141.3550 C   0  0  0  0  0  0  0  0  0  0  0  0
  190.1960  175.6780  144.4470 C   0  0  1  0  0  3  0  0  0  0  0  0
  189.7500  177.5320  146.1130 C   0  0  0  0  0  2  0  0  0  0  0  0
  183.4400  178.1130  141.2210 N   0  0  0  0  0  0  0  0  0  0  0  0
  191.6170  175.9390  146.5200 C   0  0  0  0  0  2  0  0  0  0  0  0
  187.3890  178.2600  147.5350 C   0  0  0  0  0  3  0  0  0  0  0  0
  188.4110  177.7060  145.4550 C   0  0  0  0  0  0  0  0  0  0  0  0
  187.2970  178.0020  146.1540 C   0  0  0  0  0  0  0  0  0  0  0  0
  185.8810  177.8170  144.2060 C   0  0  0  0  0  0  0  0  0  0  0  0
  183.8150  178.0950  139.8670 N   0  0  0  0  0  0  0  0  0  0  0  0
  191.9370  174.3350  144.0100 C   0  0  0  0  0  2  0  0  0  0  0  0
  190.2140  176.0860  145.9370 C   0  0  2  0  0  3  0  0  0  0  0  0
  185.2740  177.8850  139.9070 C   0  0  0  0  0  3  0  0  0  0  0  0
  190.5660  174.3330  144.3170 O   0  0  0  0  0  0  0  0  0  0  0  0
  192.8120  174.5280  145.2610 C   0  0  2  0  0  3  0  0  0  0  0  0
  184.8880  178.3240  146.3200 C   0  0  0  0  0  3  0  0  0  0  0  0
  186.0190  178.0390  145.5310 C   0  0  0  0  0  0  0  0  0  0  0  0
  184.4990  177.8300  143.5690 C   0  0  0  0  0  2  0  0  0  0  0  0
  188.8010  175.8760  143.8490 C   0  0  0  0  0  2  0  0  0  0  0  0
  187.9470  177.4030  141.2220 O   0  0  0  0  0  0  0  0  0  0  0  0
  182.0650  178.2780  141.6570 C   0  0  0  0  0  1  0  0  0  0  0  0
  187.0500  177.5540  143.3900 N   0  0  0  0  0  0  0  0  0  0  0  0
  184.5480  177.9390  142.0730 C   0  0  0  0  0  0  0  0  0  0  0  0
  193.8020  173.3810  145.3650 C   0  0  0  0  0  2  0  0  0  0  0  0
  195.1760  173.8960  145.6240 C   0  0  0  0  0  0  0  0  0  0  0  0
  195.3560  175.1910  146.0890 O   0  0  0  0  0  1  0  0  0  0  0  0
  196.1720  173.1460  145.4510 O   0  0  0  0  0  0  0  0  0  0  0  0
  1 10  1  0  0  0  0
  2 24  1  1  0  0  0
  2 12  1  0  0  0  0
  4  3  1  0  0  0  0
  5 27  1  0  0  0  0
  6  5  1  0  0  0  0
  6 28  2  0  0  0  0
  7 24  1  1  0  0  0
  7 17  1  0  0  0  0
  9 26  1  0  0  0  0
  9 28  1  0  0  0  0
 11  3  2  0  0  0  0
 12  8  1  0  0  0  0
 12 13  2  0  0  0  0
 13 11  1  0  0  0  0
 14 22  2  0  0  0  0
 15 18  2  0  0  0  0
 15  9  1  0  0  0  0
 16 19  1  0  0  0  0
 16 20  1  0  0  0  0
 17  8  1  6  0  0  0
 17 10  1  0  0  0  0
 18  6  1  0  0  0  0
 19  7  1  0  0  0  0
 20 29  1  1  0  0  0
 20  1  1  0  0  0  0
 21  4  2  0  0  0  0
 22 13  1  0  0  0  0
 22 21  1  0  0  0  0
 23 14  1  0  0  0  0
 25  5  2  0  0  0  0
 27  2  1  0  0  0  0
 27 14  1  0  0  0  0
 28 23  1  0  0  0  0
 29 30  1  0  0  0  0
 30 31  1  0  0  0  0
 32 30  2  0  0  0  0
M  END
>  <MODEL>
1

>  <REMARK>
 VINA RESULT:      -8.8      0.000      0.000
  Name = 
  2 active torsions:
  status: ('A' for Active; 'I' for Inactive)
    1  A    between atoms: C_1  and  C_10
    2  A    between atoms: C_10  and  C_24
                            x       y       z     vdW  Elec       q    Type
                         _______ _______ _______ _____ _____    ______ ____

>  <TORSDO>
F 2

$$$$
=
 OpenBabel11052421253D

 32 37  0  0  1  0  0  0  0  0999 V2000
  190.4700  171.6930  140.0910 O   0  0  0  0  0  0  0  0  0  0  0  0
  188.4730  175.7220  142.6660 C   0  0  1  0  0  3  0  0  0  0  0  0
  191.6020  175.0210  146.4210 C   0  0  0  0  0  3  0  0  0  0  0  0
  190.6550  175.5060  147.3190 C   0  0  0  0  0  3  0  0  0  0  0  0
  186.4360  177.0920  143.1620 C   0  0  0  0  0  0  0  0  0  0  0  0
  185.5660  177.7510  144.1330 C   0  0  0  0  0  0  0  0  0  0  0  0
  188.7270  173.8200  141.0520 C   0  0  1  0  0  3  0  0  0  0  0  0
  190.7610  174.7010  142.2760 C   0  0  0  0  0  2  0  0  0  0  0  0
  184.7690  178.3910  146.0930 N   0  0  0  0  0  0  0  0  0  0  0  0
  191.0270  172.8680  140.6140 C   0  0  0  0  0  2  0  0  0  0  0  0
  191.3110  174.9800  145.0580 C   0  0  0  0  0  3  0  0  0  0  0  0
  189.8110  175.3470  143.2430 C   0  0  0  0  0  0  0  0  0  0  0  0
  190.0700  175.4250  144.5650 C   0  0  0  0  0  0  0  0  0  0  0  0
  187.9070  176.3820  145.0530 C   0  0  0  0  0  0  0  0  0  0  0  0
  183.8480  178.9670  145.2030 N   0  0  0  0  0  0  0  0  0  0  0  0
  188.4060  172.6220  139.1830 C   0  0  0  0  0  2  0  0  0  0  0  0
  190.0980  173.4640  141.6690 C   0  0  2  0  0  3  0  0  0  0  0  0
  184.3440  178.5670  143.8730 C   0  0  0  0  0  3  0  0  0  0  0  0
  188.1130  172.6610  140.5560 O   0  0  0  0  0  0  0  0  0  0  0  0
  189.8180  172.0760  138.9070 C   0  0  2  0  0  3  0  0  0  0  0  0
  189.4200  175.9550  146.8510 C   0  0  0  0  0  3  0  0  0  0  0  0
  189.1040  175.9280  145.4790 C   0  0  0  0  0  0  0  0  0  0  0  0
  186.8780  176.8850  146.0560 C   0  0  0  0  0  2  0  0  0  0  0  0
  187.8140  174.4660  142.0960 C   0  0  0  0  0  2  0  0  0  0  0  0
  186.1750  177.1580  141.9310 O   0  0  0  0  0  0  0  0  0  0  0  0
  184.6570  178.5150  147.5360 C   0  0  0  0  0  1  0  0  0  0  0  0
  187.5950  176.3820  143.6370 N   0  0  0  0  0  0  0  0  0  0  0  0
  185.7810  177.6830  145.4150 C   0  0  0  0  0  0  0  0  0  0  0  0
  189.7240  170.8940  137.9570 C   0  0  0  0  0  2  0  0  0  0  0  0
  190.1510  171.2890  136.5850 C   0  0  0  0  0  0  0  0  0  0  0  0
  191.4350  171.7720  136.3700 O   0  0  0  0  0  1  0  0  0  0  0  0
  189.3590  171.1560  135.6170 O   0  0  0  0  0  0  0  0  0  0  0  0
  1 10  1  0  0  0  0
  2 24  1  1  0  0  0
  2 12  1  0  0  0  0
  2 27  1  0  0  0  0
  3  4  1  0  0  0  0
  5 27  1  0  0  0  0
  5  6  1  0  0  0  0
  6 28  2  0  0  0  0
  7 17  1  0  0  0  0
  7 24  1  1  0  0  0
  8 12  1  0  0  0  0
  9 26  1  0  0  0  0
 11  3  2  0  0  0  0
 12 13  2  0  0  0  0
 13 11  1  0  0  0  0
 13 22  1  0  0  0  0
 14 22  2  0  0  0  0
 14 23  1  0  0  0  0
 15  9  1  0  0  0  0
 16 19  1  0  0  0  0
 17 10  1  6  0  0  0
 17  8  1  0  0  0  0
 18  6  1  0  0  0  0
 18 15  2  0  0  0  0
 19  7  1  0  0  0  0
 20 29  1  6  0  0  0
 20 16  1  0  0  0  0
 20  1  1  0  0  0  0
 21  4  2  0  0  0  0
 22 21  1  0  0  0  0
 25  5  2  0  0  0  0
 27 14  1  0  0  0  0
 28 23  1  0  0  0  0
 28  9  1  0  0  0  0
 30 29  1  0  0  0  0
 31 30  1  0  0  0  0
 32 30  2  0  0  0  0
M  END
>  <MODEL>
2

>  <REMARK>
 VINA RESULT:      -8.5      3.853      5.857
  Name = 
  2 active torsions:
  status: ('A' for Active; 'I' for Inactive)
    1  A    between atoms: C_1  and  C_10
    2  A    between atoms: C_10  and  C_24
                            x       y       z     vdW  Elec       q    Type
                         _______ _______ _______ _____ _____    ______ ____

>  <TORSDO>
F 2

$$$$
=
 OpenBabel11052421253D

 32 37  0  0  1  0  0  0  0  0999 V2000
  186.7830  178.3810  146.3430 O   0  0  0  0  0  0  0  0  0  0  0  0
  189.7500  174.4050  144.8450 C   0  0  1  0  0  3  0  0  0  0  0  0
  193.7440  176.4670  146.8880 C   0  0  0  0  0  3  0  0  0  0  0  0
  194.5570  175.8900  145.9160 C   0  0  0  0  0  3  0  0  0  0  0  0
  190.1730  172.6380  143.1220 C   0  0  0  0  0  0  0  0  0  0  0  0
  191.1030  171.9270  142.2480 C   0  0  0  0  0  0  0  0  0  0  0  0
  187.8530  176.0410  144.9780 C   0  0  1  0  0  3  0  0  0  0  0  0
  189.5380  175.9230  146.8650 C   0  0  0  0  0  2  0  0  0  0  0  0
  192.9960  171.4040  141.2350 N   0  0  0  0  0  0  0  0  0  0  0  0
  187.6110  177.4880  147.0360 C   0  0  0  0  0  2  0  0  0  0  0  0
  192.3720  176.2230  146.8810 C   0  0  0  0  0  3  0  0  0  0  0  0
  190.4490  175.2030  145.9120 C   0  0  0  0  0  0  0  0  0  0  0  0
  191.7830  175.3970  145.9050 C   0  0  0  0  0  0  0  0  0  0  0  0
  192.0970  173.9880  143.9690 C   0  0  0  0  0  0  0  0  0  0  0  0
  192.1010  170.4770  140.6750 N   0  0  0  0  0  0  0  0  0  0  0  0
  185.7580  176.8150  144.7810 C   0  0  0  0  0  2  0  0  0  0  0  0
  188.5990  176.8340  146.0740 C   0  0  2  0  0  3  0  0  0  0  0  0
  190.8170  170.7880  141.3260 C   0  0  0  0  0  3  0  0  0  0  0  0
  187.0460  176.9080  144.2280 O   0  0  0  0  0  0  0  0  0  0  0  0
  185.6090  177.6660  146.0540 C   0  0  2  0  0  3  0  0  0  0  0  0
  193.9950  175.0670  144.9400 C   0  0  0  0  0  3  0  0  0  0  0  0
  192.6120  174.8010  144.9150 C   0  0  0  0  0  0  0  0  0  0  0  0
  193.0010  173.3890  142.9010 C   0  0  0  0  0  2  0  0  0  0  0  0
  188.8440  175.3420  144.0450 C   0  0  0  0  0  2  0  0  0  0  0  0
  188.9540  172.3200  143.1410 O   0  0  0  0  0  0  0  0  0  0  0  0
  194.3980  171.4740  140.8610 C   0  0  0  0  0  1  0  0  0  0  0  0
  190.6780  173.6920  143.9630 N   0  0  0  0  0  0  0  0  0  0  0  0
  192.3630  172.2420  142.1730 C   0  0  0  0  0  0  0  0  0  0  0  0
  184.4420  178.6230  145.8860 C   0  0  0  0  0  2  0  0  0  0  0  0
  184.5000  179.2920  144.5560 C   0  0  0  0  0  0  0  0  0  0  0  0
  185.5380  180.1650  144.2630 O   0  0  0  0  0  1  0  0  0  0  0  0
  183.6250  179.0410  143.6880 O   0  0  0  0  0  0  0  0  0  0  0  0
  1 10  1  0  0  0  0
  2 24  1  6  0  0  0
  2 12  1  0  0  0  0
  4  3  1  0  0  0  0
  5 25  2  0  0  0  0
  5 27  1  0  0  0  0
  6  5  1  0  0  0  0
  7 24  1  6  0  0  0
  7 17  1  0  0  0  0
  9 28  1  0  0  0  0
 11  3  2  0  0  0  0
 12  8  1  0  0  0  0
 13 12  2  0  0  0  0
 13 11  1  0  0  0  0
 14 22  2  0  0  0  0
 15  9  1  0  0  0  0
 15 18  2  0  0  0  0
 16 20  1  0  0  0  0
 17  8  1  1  0  0  0
 17 10  1  0  0  0  0
 18  6  1  0  0  0  0
 19 16  1  0  0  0  0
 19  7  1  0  0  0  0
 20 29  1  6  0  0  0
 20  1  1  0  0  0  0
 21  4  2  0  0  0  0
 22 21  1  0  0  0  0
 22 13  1  0  0  0  0
 23 14  1  0  0  0  0
 26  9  1  0  0  0  0
 27 14  1  0  0  0  0
 27  2  1  0  0  0  0
 28  6  2  0  0  0  0
 28 23  1  0  0  0  0
 30 29  1  0  0  0  0
 31 30  1  0  0  0  0
 32 30  2  0  0  0  0
M  END
>  <MODEL>
3

>  <REMARK>
 VINA RESULT:      -8.0      3.763      8.132
  Name = 
  2 active torsions:
  status: ('A' for Active; 'I' for Inactive)
    1  A    between atoms: C_1  and  C_10
    2  A    between atoms: C_10  and  C_24
                            x       y       z     vdW  Elec       q    Type
                         _______ _______ _______ _____ _____    ______ ____

>  <TORSDO>
F 2

$$$$
=
 OpenBabel11052421253D

 32 37  0  0  1  0  0  0  0  0999 V2000
  186.7170  178.0920  146.3850 O   0  0  0  0  0  0  0  0  0  0  0  0
  190.1650  175.1680  143.8520 C   0  0  1  0  0  3  0  0  0  0  0  0
  193.8120  176.7120  146.7990 C   0  0  0  0  0  3  0  0  0  0  0  0
  194.7270  176.5870  145.7570 C   0  0  0  0  0  3  0  0  0  0  0  0
  190.8580  174.1640  141.6650 C   0  0  0  0  0  0  0  0  0  0  0  0
  191.8980  173.8890  140.6770 C   0  0  0  0  0  0  0  0  0  0  0  0
  188.0970  176.4830  144.3870 C   0  0  1  0  0  3  0  0  0  0  0  0
  189.6960  175.8530  146.2470 C   0  0  0  0  0  2  0  0  0  0  0  0
  193.8820  173.9200  139.7040 N   0  0  0  0  0  0  0  0  0  0  0  0
  187.6050  177.0860  146.7910 C   0  0  0  0  0  2  0  0  0  0  0  0
  192.4760  176.3690  146.5970 C   0  0  0  0  0  3  0  0  0  0  0  0
  190.7230  175.5950  145.1820 C   0  0  0  0  0  0  0  0  0  0  0  0
  192.0270  175.8930  145.3510 C   0  0  0  0  0  0  0  0  0  0  0  0
  192.5820  175.2890  143.0800 C   0  0  0  0  0  0  0  0  0  0  0  0
  193.1200  173.1770  138.7870 N   0  0  0  0  0  0  0  0  0  0  0  0
  185.9410  177.0940  144.2990 C   0  0  0  0  0  2  0  0  0  0  0  0
  188.7010  176.9010  145.7460 C   0  0  2  0  0  3  0  0  0  0  0  0
  191.7810  173.1270  139.3990 C   0  0  0  0  0  3  0  0  0  0  0  0
  187.2360  177.4860  143.9200 O   0  0  0  0  0  0  0  0  0  0  0  0
  185.6420  177.4260  145.7720 C   0  0  2  0  0  3  0  0  0  0  0  0
  194.3040  176.1140  144.5150 C   0  0  0  0  0  3  0  0  0  0  0  0
  192.9610  175.7580  144.2880 C   0  0  0  0  0  0  0  0  0  0  0  0
  193.5940  175.1840  141.9480 C   0  0  0  0  0  2  0  0  0  0  0  0
  189.2010  176.2450  143.3540 C   0  0  0  0  0  2  0  0  0  0  0  0
  189.6800  173.7560  141.4730 O   0  0  0  0  0  0  0  0  0  0  0  0
  195.2840  174.2370  139.4930 C   0  0  0  0  0  1  0  0  0  0  0  0
  191.2050  174.8930  142.8560 N   0  0  0  0  0  0  0  0  0  0  0  0
  193.1190  174.3160  140.8200 C   0  0  0  0  0  0  0  0  0  0  0  0
  184.3870  178.2770  145.8510 C   0  0  0  0  0  2  0  0  0  0  0  0
  184.2940  179.1840  144.6730 C   0  0  0  0  0  0  0  0  0  0  0  0
  185.2560  180.1660  144.4740 O   0  0  0  0  0  1  0  0  0  0  0  0
  183.3610  179.0410  143.8410 O   0  0  0  0  0  0  0  0  0  0  0  0
  1 10  1  0  0  0  0
  2 24  1  6  0  0  0
  2 12  1  0  0  0  0
  4  3  1  0  0  0  0
  5 27  1  0  0  0  0
  6 28  2  0  0  0  0
  6  5  1  0  0  0  0
  7 24  1  6  0  0  0
  7 17  1  0  0  0  0
  9 28  1  0  0  0  0
 11  3  2  0  0  0  0
 12 13  2  0  0  0  0
 12  8  1  0  0  0  0
 13 11  1  0  0  0  0
 14 22  2  0  0  0  0
 15 18  2  0  0  0  0
 15  9  1  0  0  0  0
 16 20  1  0  0  0  0
 17  8  1  1  0  0  0
 17 10  1  0  0  0  0
 18  6  1  0  0  0  0
 19 16  1  0  0  0  0
 19  7  1  0  0  0  0
 20 29  1  6  0  0  0
 20  1  1  0  0  0  0
 21  4  2  0  0  0  0
 22 21  1  0  0  0  0
 22 13  1  0  0  0  0
 23 14  1  0  0  0  0
 25  5  2  0  0  0  0
 26  9  1  0  0  0  0
 27 14  1  0  0  0  0
 27  2  1  0  0  0  0
 28 23  1  0  0  0  0
 30 29  1  0  0  0  0
 31 30  1  0  0  0  0
 32 30  2  0  0  0  0
M  END
>  <MODEL>
4

>  <REMARK>
 VINA RESULT:      -8.0      3.689      7.976
  Name = 
  2 active torsions:
  status: ('A' for Active; 'I' for Inactive)
    1  A    between atoms: C_1  and  C_10
    2  A    between atoms: C_10  and  C_24
                            x       y       z     vdW  Elec       q    Type
                         _______ _______ _______ _____ _____    ______ ____

>  <TORSDO>
F 2

$$$$
=
 OpenBabel11052421253D

 32 37  0  0  1  0  0  0  0  0999 V2000
  194.5560  174.2610  144.0210 O   0  0  0  0  0  0  0  0  0  0  0  0
  189.5400  175.2130  144.9110 C   0  0  1  0  0  3  0  0  0  0  0  0
  188.4750  174.7100  140.1160 C   0  0  0  0  0  3  0  0  0  0  0  0
  187.4440  175.6380  140.2330 C   0  0  0  0  0  3  0  0  0  0  0  0
  187.8530  176.4380  146.2980 C   0  0  0  0  0  0  0  0  0  0  0  0
  186.6500  177.2630  146.3830 C   0  0  0  0  0  0  0  0  0  0  0  0
  192.0320  175.1310  145.1860 C   0  0  1  0  0  3  0  0  0  0  0  0
  190.9190  173.6870  143.4290 C   0  0  0  0  0  2  0  0  0  0  0  0
  184.9240  178.4730  145.7180 N   0  0  0  0  0  0  0  0  0  0  0  0
  193.3810  173.5440  143.7560 C   0  0  0  0  0  2  0  0  0  0  0  0
  189.2240  174.3570  141.2380 C   0  0  0  0  0  3  0  0  0  0  0  0
  189.7170  174.5790  143.5580 C   0  0  0  0  0  0  0  0  0  0  0  0
  188.9570  174.9220  142.4990 C   0  0  0  0  0  0  0  0  0  0  0  0
  187.5940  176.4220  143.8140 C   0  0  0  0  0  0  0  0  0  0  0  0
  184.8160  178.5560  147.1160 N   0  0  0  0  0  0  0  0  0  0  0  0
  194.0050  175.0810  146.2500 C   0  0  0  0  0  2  0  0  0  0  0  0
  192.1750  174.4780  143.7930 C   0  0  2  0  0  3  0  0  0  0  0  0
  185.9520  177.7550  147.6070 C   0  0  0  0  0  3  0  0  0  0  0  0
  193.1690  175.8990  145.4720 O   0  0  0  0  0  0  0  0  0  0  0  0
  194.8070  174.0860  145.3920 C   0  0  2  0  0  3  0  0  0  0  0  0
  187.1610  176.2090  141.4730 C   0  0  0  0  0  3  0  0  0  0  0  0
  187.9000  175.8650  142.6220 C   0  0  0  0  0  0  0  0  0  0  0  0
  186.4790  177.4530  143.9120 C   0  0  0  0  0  2  0  0  0  0  0  0
  190.7920  176.0260  145.2400 C   0  0  0  0  0  2  0  0  0  0  0  0
  188.4450  176.0730  147.3500 O   0  0  0  0  0  0  0  0  0  0  0  0
  184.0060  179.1420  144.8130 C   0  0  0  0  0  1  0  0  0  0  0  0
  188.3360  176.0440  145.0010 N   0  0  0  0  0  0  0  0  0  0  0  0
  186.0250  177.6870  145.3230 C   0  0  0  0  0  0  0  0  0  0  0  0
  196.2890  174.2560  145.6770 C   0  0  0  0  0  2  0  0  0  0  0  0
  197.0290  173.0010  145.3660 C   0  0  0  0  0  0  0  0  0  0  0  0
  196.8130  171.8610  146.1260 O   0  0  0  0  0  1  0  0  0  0  0  0
  197.8300  172.9680  144.3960 O   0  0  0  0  0  0  0  0  0  0  0  0
  1 20  1  0  0  0  0
  2 27  1  0  0  0  0
  2 24  1  6  0  0  0
  3  4  1  0  0  0  0
  3 11  2  0  0  0  0
  4 21  2  0  0  0  0
  5  6  1  0  0  0  0
  5 25  2  0  0  0  0
  6 18  1  0  0  0  0
  7 24  1  6  0  0  0
  7 19  1  0  0  0  0
  8 12  1  0  0  0  0
  9 15  1  0  0  0  0
 10 17  1  0  0  0  0
 10  1  1  0  0  0  0
 11 13  1  0  0  0  0
 12  2  1  0  0  0  0
 13 22  1  0  0  0  0
 13 12  2  0  0  0  0
 14 23  1  0  0  0  0
 14 27  1  0  0  0  0
 15 18  2  0  0  0  0
 17  8  1  1  0  0  0
 17  7  1  0  0  0  0
 19 16  1  0  0  0  0
 20 29  1  6  0  0  0
 20 16  1  0  0  0  0
 21 22  1  0  0  0  0
 22 14  2  0  0  0  0
 23 28  1  0  0  0  0
 26  9  1  0  0  0  0
 27  5  1  0  0  0  0
 28  9  1  0  0  0  0
 28  6  2  0  0  0  0
 30 29  1  0  0  0  0
 30 31  1  0  0  0  0
 32 30  2  0  0  0  0
M  END
>  <MODEL>
5

>  <REMARK>
 VINA RESULT:      -7.9      2.465      4.693
  Name = 
  2 active torsions:
  status: ('A' for Active; 'I' for Inactive)
    1  A    between atoms: C_1  and  C_10
    2  A    between atoms: C_10  and  C_24
                            x       y       z     vdW  Elec       q    Type
                         _______ _______ _______ _____ _____    ______ ____

>  <TORSDO>
F 2

$$$$
=
 OpenBabel11052421253D

 32 37  0  0  1  0  0  0  0  0999 V2000
  187.3150  178.0810  144.5080 O   0  0  0  0  0  0  0  0  0  0  0  0
  190.3840  173.9050  144.4930 C   0  0  1  0  0  3  0  0  0  0  0  0
  193.9760  176.3950  146.7890 C   0  0  0  0  0  3  0  0  0  0  0  0
  194.9410  175.6320  146.1380 C   0  0  0  0  0  3  0  0  0  0  0  0
  191.0730  171.8140  143.3000 C   0  0  0  0  0  0  0  0  0  0  0  0
  192.1290  170.9410  142.7940 C   0  0  0  0  0  0  0  0  0  0  0  0
  188.5510  175.5120  143.9050 C   0  0  1  0  0  3  0  0  0  0  0  0
  189.8370  175.8180  146.0650 C   0  0  0  0  0  2  0  0  0  0  0  0
  194.1640  170.2310  142.3040 N   0  0  0  0  0  0  0  0  0  0  0  0
  187.9660  177.3640  145.5220 C   0  0  0  0  0  2  0  0  0  0  0  0
  192.6240  176.1420  146.5670 C   0  0  0  0  0  3  0  0  0  0  0  0
  190.8910  174.9190  145.4820 C   0  0  0  0  0  0  0  0  0  0  0  0
  192.2070  175.1200  145.6930 C   0  0  0  0  0  0  0  0  0  0  0  0
  192.8410  173.3320  144.1990 C   0  0  0  0  0  0  0  0  0  0  0  0
  193.3640  169.1970  141.7890 N   0  0  0  0  0  0  0  0  0  0  0  0
  186.5580  176.2050  143.1440 C   0  0  0  0  0  2  0  0  0  0  0  0
  189.0980  176.5290  144.9310 C   0  0  2  0  0  3  0  0  0  0  0  0
  191.9890  169.6280  142.0980 C   0  0  0  0  0  3  0  0  0  0  0  0
  187.9310  176.1900  142.8460 O   0  0  0  0  0  0  0  0  0  0  0  0
  186.1960  177.3080  144.1550 C   0  0  2  0  0  3  0  0  0  0  0  0
  194.5510  174.6130  145.2690 C   0  0  0  0  0  3  0  0  0  0  0  0
  193.1910  174.3350  145.0330 C   0  0  0  0  0  0  0  0  0  0  0  0
  193.9140  172.5270  143.4780 C   0  0  0  0  0  2  0  0  0  0  0  0
  189.6800  174.6390  143.3530 C   0  0  0  0  0  2  0  0  0  0  0  0
  189.8630  171.4950  143.1490 O   0  0  0  0  0  0  0  0  0  0  0  0
  195.6130  170.2330  142.2030 C   0  0  0  0  0  1  0  0  0  0  0  0
  191.4400  173.0280  143.9800 N   0  0  0  0  0  0  0  0  0  0  0  0
  193.3900  171.2450  142.9010 C   0  0  0  0  0  0  0  0  0  0  0  0
  185.1140  178.1960  143.5640 C   0  0  0  0  0  2  0  0  0  0  0  0
  184.7760  179.3030  144.5010 C   0  0  0  0  0  0  0  0  0  0  0  0
  184.0490  179.0410  145.6540 O   0  0  0  0  0  1  0  0  0  0  0  0
  185.1750  180.4730  144.2630 O   0  0  0  0  0  0  0  0  0  0  0  0
  1 10  1  0  0  0  0
  2 24  1  6  0  0  0
  2 12  1  0  0  0  0
  4  3  1  0  0  0  0
  5 27  1  0  0  0  0
  6 28  2  0  0  0  0
  6  5  1  0  0  0  0
  7 24  1  6  0  0  0
  7 17  1  0  0  0  0
  9 28  1  0  0  0  0
 11  3  2  0  0  0  0
 12 13  2  0  0  0  0
 12  8  1  0  0  0  0
 13 11  1  0  0  0  0
 14 22  2  0  0  0  0
 15 18  2  0  0  0  0
 15  9  1  0  0  0  0
 16 20  1  0  0  0  0
 17 10  1  1  0  0  0
 17  8  1  0  0  0  0
 18  6  1  0  0  0  0
 19 16  1  0  0  0  0
 19  7  1  0  0  0  0
 20 29  1  6  0  0  0
 20  1  1  0  0  0  0
 21  4  2  0  0  0  0
 22 21  1  0  0  0  0
 22 13  1  0  0  0  0
 23 14  1  0  0  0  0
 25  5  2  0  0  0  0
 26  9  1  0  0  0  0
 27 14  1  0  0  0  0
 27  2  1  0  0  0  0
 28 23  1  0  0  0  0
 29 30  1  0  0  0  0
 30 31  1  0  0  0  0
 32 30  2  0  0  0  0
M  END
>  <MODEL>
6

>  <REMARK>
 VINA RESULT:      -7.7      3.815      8.701
  Name = 
  2 active torsions:
  status: ('A' for Active; 'I' for Inactive)
    1  A    between atoms: C_1  and  C_10
    2  A    between atoms: C_10  and  C_24
                            x       y       z     vdW  Elec       q    Type
                         _______ _______ _______ _____ _____    ______ ____

>  <TORSDO>
F 2

$$$$
=
 OpenBabel11052421253D

 32 37  0  0  1  0  0  0  0  0999 V2000
  186.1450  178.4660  142.8180 O   0  0  0  0  0  0  0  0  0  0  0  0
  190.2360  175.3750  143.5690 C   0  0  1  0  0  3  0  0  0  0  0  0
  190.9130  177.1820  148.1130 C   0  0  0  0  0  3  0  0  0  0  0  0
  192.2860  176.9800  148.0050 C   0  0  0  0  0  3  0  0  0  0  0  0
  192.1960  174.2040  142.5390 C   0  0  0  0  0  0  0  0  0  0  0  0
  193.6140  173.8590  142.5660 C   0  0  0  0  0  0  0  0  0  0  0  0
  188.4390  176.7120  142.4390 C   0  0  1  0  0  3  0  0  0  0  0  0
  188.2790  176.2470  144.9230 C   0  0  0  0  0  2  0  0  0  0  0  0
  195.7210  173.8270  143.2370 N   0  0  0  0  0  0  0  0  0  0  0  0
  186.4550  177.5030  143.7890 C   0  0  0  0  0  2  0  0  0  0  0  0
  190.0710  176.8130  147.0660 C   0  0  0  0  0  3  0  0  0  0  0  0
  189.7430  175.9130  144.8840 C   0  0  0  0  0  0  0  0  0  0  0  0
  190.5820  176.2340  145.8890 C   0  0  0  0  0  0  0  0  0  0  0  0
  192.5200  175.4530  144.6770 C   0  0  0  0  0  0  0  0  0  0  0  0
  195.7660  173.0070  142.0980 N   0  0  0  0  0  0  0  0  0  0  0  0
  186.9740  177.2960  140.8460 C   0  0  0  0  0  2  0  0  0  0  0  0
  187.9590  177.2430  143.8080 C   0  0  2  0  0  3  0  0  0  0  0  0
  194.3740  172.9950  141.6140 C   0  0  0  0  0  3  0  0  0  0  0  0
  188.1900  177.6670  141.4440 O   0  0  0  0  0  0  0  0  0  0  0  0
  185.7590  177.7430  141.6770 C   0  0  2  0  0  3  0  0  0  0  0  0
  192.8140  176.4060  146.8490 C   0  0  0  0  0  3  0  0  0  0  0  0
  191.9840  176.0210  145.7790 C   0  0  0  0  0  0  0  0  0  0  0  0
  194.0270  175.2660  144.5700 C   0  0  0  0  0  2  0  0  0  0  0  0
  189.9370  176.4000  142.4750 C   0  0  0  0  0  2  0  0  0  0  0  0
  191.4570  173.7720  141.6130 O   0  0  0  0  0  0  0  0  0  0  0  0
  196.8940  174.1380  144.0340 C   0  0  0  0  0  1  0  0  0  0  0  0
  191.6610  175.0290  143.5890 N   0  0  0  0  0  0  0  0  0  0  0  0
  194.4190  174.3060  143.4860 C   0  0  0  0  0  0  0  0  0  0  0  0
  184.8400  178.5880  140.8110 C   0  0  0  0  0  2  0  0  0  0  0  0
  183.4130  178.2580  141.0840 C   0  0  0  0  0  0  0  0  0  0  0  0
  182.9220  178.3190  142.3800 O   0  0  0  0  0  1  0  0  0  0  0  0
  182.6460  177.9530  140.1340 O   0  0  0  0  0  0  0  0  0  0  0  0
  1 10  1  0  0  0  0
  2 24  1  6  0  0  0
  2 27  1  0  0  0  0
  2 12  1  0  0  0  0
  4  3  1  0  0  0  0
  5  6  1  0  0  0  0
  5 27  1  0  0  0  0
  6 28  2  0  0  0  0
  7 24  1  1  0  0  0
  7 17  1  0  0  0  0
  9 28  1  0  0  0  0
  9 26  1  0  0  0  0
 11  3  2  0  0  0  0
 12  8  1  0  0  0  0
 12 13  2  0  0  0  0
 13 11  1  0  0  0  0
 14 22  2  0  0  0  0
 15  9  1  0  0  0  0
 16 19  1  0  0  0  0
 16 20  1  0  0  0  0
 17 10  1  6  0  0  0
 17  8  1  0  0  0  0
 18 15  2  0  0  0  0
 18  6  1  0  0  0  0
 19  7  1  0  0  0  0
 20 29  1  6  0  0  0
 20  1  1  0  0  0  0
 21  4  2  0  0  0  0
 22 13  1  0  0  0  0
 22 21  1  0  0  0  0
 23 14  1  0  0  0  0
 25  5  2  0  0  0  0
 27 14  1  0  0  0  0
 28 23  1  0  0  0  0
 29 30  1  0  0  0  0
 30 31  1  0  0  0  0
 32 30  2  0  0  0  0
M  END
>  <MODEL>
7

>  <REMARK>
 VINA RESULT:      -7.6      3.529      8.556
  Name = 
  2 active torsions:
  status: ('A' for Active; 'I' for Inactive)
    1  A    between atoms: C_1  and  C_10
    2  A    between atoms: C_10  and  C_24
                            x       y       z     vdW  Elec       q    Type
                         _______ _______ _______ _____ _____    ______ ____

>  <TORSDO>
F 2

$$$$
=
 OpenBabel11052421253D

 32 37  0  0  1  0  0  0  0  0999 V2000
  186.6420  176.7100  144.8760 O   0  0  0  0  0  0  0  0  0  0  0  0
  191.5150  175.1040  144.1530 C   0  0  1  0  0  3  0  0  0  0  0  0
  190.0470  171.7830  140.8070 C   0  0  0  0  0  3  0  0  0  0  0  0
  191.0850  170.9320  141.1760 C   0  0  0  0  0  3  0  0  0  0  0  0
  193.7710  174.7260  145.1730 C   0  0  0  0  0  0  0  0  0  0  0  0
  194.9320  173.8650  145.3810 C   0  0  0  0  0  0  0  0  0  0  0  0
  189.4820  176.1430  145.1900 C   0  0  1  0  0  3  0  0  0  0  0  0
  189.4530  175.5130  142.7370 C   0  0  0  0  0  2  0  0  0  0  0  0
  196.2170  172.0680  145.2800 N   0  0  0  0  0  0  0  0  0  0  0  0
  187.4640  176.6180  143.7450 C   0  0  0  0  0  2  0  0  0  0  0  0
  189.9140  173.0250  141.4260 C   0  0  0  0  0  3  0  0  0  0  0  0
  190.6420  174.6400  143.0200 C   0  0  0  0  0  0  0  0  0  0  0  0
  190.8150  173.4430  142.4230 C   0  0  0  0  0  0  0  0  0  0  0  0
  192.7790  172.9400  143.7360 C   0  0  0  0  0  0  0  0  0  0  0  0
  197.0020  172.9450  146.0470 N   0  0  0  0  0  0  0  0  0  0  0  0
  188.2860  177.5390  146.4740 C   0  0  0  0  0  2  0  0  0  0  0  0
  188.6150  175.6520  144.0090 C   0  0  2  0  0  3  0  0  0  0  0  0
  196.1830  174.1660  146.1390 C   0  0  0  0  0  3  0  0  0  0  0  0
  188.7070  176.2040  146.3560 O   0  0  0  0  0  0  0  0  0  0  0  0
  187.0790  177.8490  145.5720 C   0  0  2  0  0  3  0  0  0  0  0  0
  191.9910  171.3260  142.1600 C   0  0  0  0  0  3  0  0  0  0  0  0
  191.8800  172.5770  142.7970 C   0  0  0  0  0  0  0  0  0  0  0  0
  193.8910  171.9820  144.1400 C   0  0  0  0  0  2  0  0  0  0  0  0
  190.6660  175.2020  145.4210 C   0  0  0  0  0  2  0  0  0  0  0  0
  193.7380  175.8770  145.6860 O   0  0  0  0  0  0  0  0  0  0  0  0
  196.6330  170.7170  144.9510 C   0  0  0  0  0  1  0  0  0  0  0  0
  192.6810  174.2410  144.3680 N   0  0  0  0  0  0  0  0  0  0  0  0
  194.9960  172.6590  144.8960 C   0  0  0  0  0  0  0  0  0  0  0  0
  185.9480  178.4090  146.4190 C   0  0  0  0  0  2  0  0  0  0  0  0
  184.9100  179.0390  145.5560 C   0  0  0  0  0  0  0  0  0  0  0  0
  185.2870  179.8220  144.4740 O   0  0  0  0  0  0  0  0  0  0  0  0
  183.6900  178.8370  145.7910 O   0  0  0  0  0  1  0  0  0  0  0  0
  1 20  1  0  0  0  0
  2 27  1  0  0  0  0
  2 24  1  1  0  0  0
  3  4  1  0  0  0  0
  3 11  2  0  0  0  0
  4 21  2  0  0  0  0
  5  6  1  0  0  0  0
  5 25  2  0  0  0  0
  6 18  1  0  0  0  0
  7 24  1  1  0  0  0
  7 19  1  0  0  0  0
  8 12  1  0  0  0  0
  9 15  1  0  0  0  0
 10 17  1  0  0  0  0
 10  1  1  0  0  0  0
 11 13  1  0  0  0  0
 12  2  1  0  0  0  0
 13 22  1  0  0  0  0
 13 12  2  0  0  0  0
 14 23  1  0  0  0  0
 14 27  1  0  0  0  0
 15 18  2  0  0  0  0
 17  8  1  6  0  0  0
 17  7  1  0  0  0  0
 19 16  1  0  0  0  0
 20 29  1  1  0  0  0
 20 16  1  0  0  0  0
 21 22  1  0  0  0  0
 22 14  2  0  0  0  0
 23 28  1  0  0  0  0
 26  9  1  0  0  0  0
 27  5  1  0  0  0  0
 28  9  1  0  0  0  0
 28  6  2  0  0  0  0
 30 32  1  0  0  0  0
 30 29  1  0  0  0  0
 31 30  2  0  0  0  0
M  END
>  <MODEL>
8

>  <REMARK>
 VINA RESULT:      -7.4      3.929      9.411
  Name = 
  2 active torsions:
  status: ('A' for Active; 'I' for Inactive)
    1  A    between atoms: C_1  and  C_10
    2  A    between atoms: C_10  and  C_24
                            x       y       z     vdW  Elec       q    Type
                         _______ _______ _______ _____ _____    ______ ____

>  <TORSDO>
F 2

$$$$
=
 OpenBabel11052421253D

 32 37  0  0  1  0  0  0  0  0999 V2000
  185.6930  177.8620  143.5330 O   0  0  0  0  0  0  0  0  0  0  0  0
  190.0970  175.1480  143.2270 C   0  0  1  0  0  3  0  0  0  0  0  0
  188.5980  172.9650  139.0600 C   0  0  0  0  0  3  0  0  0  0  0  0
  189.3110  171.8150  139.3890 C   0  0  0  0  0  3  0  0  0  0  0  0
  191.9480  174.0080  144.4710 C   0  0  0  0  0  0  0  0  0  0  0  0
  192.8090  172.8440  144.6610 C   0  0  0  0  0  0  0  0  0  0  0  0
  188.1980  176.5050  144.1430 C   0  0  1  0  0  3  0  0  0  0  0  0
  188.5170  176.3330  141.6370 C   0  0  0  0  0  2  0  0  0  0  0  0
  193.6290  170.8120  144.3700 N   0  0  0  0  0  0  0  0  0  0  0  0
  186.6820  177.7450  142.5460 C   0  0  0  0  0  2  0  0  0  0  0  0
  188.6370  174.0730  139.9050 C   0  0  0  0  0  3  0  0  0  0  0  0
  189.3860  175.1360  141.9010 C   0  0  0  0  0  0  0  0  0  0  0  0
  189.3910  174.0560  141.0940 C   0  0  0  0  0  0  0  0  0  0  0  0
  190.8760  172.8280  142.5480 C   0  0  0  0  0  0  0  0  0  0  0  0
  194.4270  171.3010  145.4180 N   0  0  0  0  0  0  0  0  0  0  0  0
  187.1280  177.9330  145.5030 C   0  0  0  0  0  2  0  0  0  0  0  0
  187.4970  176.4740  142.7670 C   0  0  2  0  0  3  0  0  0  0  0  0
  193.9150  172.6640  145.6470 C   0  0  0  0  0  3  0  0  0  0  0  0
  187.2390  176.5740  145.1640 O   0  0  0  0  0  0  0  0  0  0  0  0
  186.2350  178.7060  144.5160 C   0  0  2  0  0  3  0  0  0  0  0  0
  190.0660  171.7780  140.5610 C   0  0  0  0  0  3  0  0  0  0  0  0
  190.1250  172.8860  141.4280 C   0  0  0  0  0  0  0  0  0  0  0  0
  191.6270  171.5510  142.9000 C   0  0  0  0  0  2  0  0  0  0  0  0
  189.0570  175.2550  144.3420 C   0  0  0  0  0  2  0  0  0  0  0  0
  192.0830  175.0220  145.2090 O   0  0  0  0  0  0  0  0  0  0  0  0
  193.7750  169.4750  143.8240 C   0  0  0  0  0  1  0  0  0  0  0  0
  190.9600  173.9800  143.4250 N   0  0  0  0  0  0  0  0  0  0  0  0
  192.6850  171.7660  143.9430 C   0  0  0  0  0  0  0  0  0  0  0  0
  185.1200  179.3970  145.2830 C   0  0  0  0  0  2  0  0  0  0  0  0
  184.8220  178.6650  146.5460 C   0  0  0  0  0  0  0  0  0  0  0  0
  184.0670  177.5010  146.5130 O   0  0  0  0  0  0  0  0  0  0  0  0
  185.2790  179.0870  147.6400 O   0  0  0  0  0  1  0  0  0  0  0  0
  1 20  1  0  0  0  0
  2 27  1  0  0  0  0
  2 24  1  1  0  0  0
  3  4  1  0  0  0  0
  3 11  2  0  0  0  0
  4 21  2  0  0  0  0
  5  6  1  0  0  0  0
  5 25  2  0  0  0  0
  6 18  1  0  0  0  0
  7 24  1  1  0  0  0
  7 19  1  0  0  0  0
  8 12  1  0  0  0  0
  9 15  1  0  0  0  0
 10 17  1  0  0  0  0
 10  1  1  0  0  0  0
 11 13  1  0  0  0  0
 12  2  1  0  0  0  0
 13 22  1  0  0  0  0
 13 12  2  0  0  0  0
 14 23  1  0  0  0  0
 14 27  1  0  0  0  0
 15 18  2  0  0  0  0
 17  8  1  6  0  0  0
 17  7  1  0  0  0  0
 19 16  1  0  0  0  0
 20 29  1  1  0  0  0
 20 16  1  0  0  0  0
 21 22  1  0  0  0  0
 22 14  2  0  0  0  0
 23 28  1  0  0  0  0
 26  9  1  0  0  0  0
 27  5  1  0  0  0  0
 28  9  1  0  0  0  0
 28  6  2  0  0  0  0
 29 30  1  0  0  0  0
 30 32  1  0  0  0  0
 31 30  2  0  0  0  0
M  END
>  <MODEL>
9

>  <REMARK>
 VINA RESULT:      -7.4      4.063      8.889
  Name = 
  2 active torsions:
  status: ('A' for Active; 'I' for Inactive)
    1  A    between atoms: C_1  and  C_10
    2  A    between atoms: C_10  and  C_24
                            x       y       z     vdW  Elec       q    Type
                         _______ _______ _______ _____ _____    ______ ____

>  <TORSDO>
F 2

$$$$
