=
 OpenBabel11052417293D

 25 28  0  0  1  0  0  0  0  0999 V2000
  185.8960  177.4000  143.9810 N   0  0  0  0  0  0  0  0  0  0  0  0
  186.6510  176.7370  142.9660 C   0  0  0  0  0  0  0  0  0  0  0  0
  184.5070  178.5200  142.3740 C   0  0  0  0  0  3  0  0  0  0  0  0
  185.7510  177.1130  145.3950 C   0  0  2  0  0  3  0  0  0  0  0  0
  185.5360  178.4090  147.9610 C   0  0  0  0  0  3  0  0  0  0  0  0
  185.3330  177.9270  141.2890 C   0  0  0  0  0  3  0  0  0  0  0  0
  184.6180  178.0330  145.7770 C   0  0  0  0  0  0  0  0  0  0  0  0
  184.4550  178.4530  147.1700 C   0  0  0  0  0  3  0  0  0  0  0  0
  187.1460  176.4570  140.4860 C   0  0  0  0  0  0  0  0  0  0  0  0
  186.9130  176.7650  139.1500 O   0  0  0  0  0  1  0  0  0  0  0  0
  187.6200  175.8630  143.2490 C   0  0  0  0  0  3  0  0  0  0  0  0
  186.8600  177.9970  147.4210 C   0  0  0  0  0  3  0  0  0  0  0  0
  184.8040  178.2330  143.6430 C   0  0  0  0  0  0  0  0  0  0  0  0
  184.0710  178.6590  144.7800 N   0  0  0  0  0  0  0  0  0  0  0  0
  188.1070  175.5860  140.8080 C   0  0  0  0  0  3  0  0  0  0  0  0
  186.9780  177.4490  146.2010 C   0  0  0  0  0  3  0  0  0  0  0  0
  188.3640  175.2500  142.1830 N   0  0  0  0  0  0  0  0  0  0  0  0
  186.3430  177.0780  141.5580 C   0  0  0  0  0  0  0  0  0  0  0  0
  189.4370  174.3260  142.5030 C   0  0  0  0  0  2  0  0  0  0  0  0
  190.5160  175.0400  143.3010 C   0  0  0  0  0  2  0  0  0  0  0  0
  190.7150  174.3640  144.6480 C   0  0  2  0  0  3  0  0  0  0  0  0
  189.9480  172.7160  144.6260 S   0  0  0  0  0  1  0  0  0  0  0  0
  190.1510  175.1880  145.7680 C   0  0  0  0  0  0  0  0  0  0  0  0
  190.3900  176.3830  145.8120 O   0  0  0  0  0  0  0  0  0  0  0  0
  189.3070  174.5680  146.8350 C   0  0  0  0  0  1  0  0  0  0  0  0
  1  4  1  0  0  0  0
  2 11  2  0  0  0  0
  2  1  1  0  0  0  0
  3 13  2  0  0  0  0
  4  7  1  0  0  0  0
  4 16  1  1  0  0  0
  6 18  2  0  0  0  0
  6  3  1  0  0  0  0
  7  8  1  0  0  0  0
  8  5  2  0  0  0  0
  9 15  2  0  0  0  0
  9 18  1  0  0  0  0
 10  9  1  0  0  0  0
 12  5  1  0  0  0  0
 13  1  1  0  0  0  0
 13 14  1  0  0  0  0
 14  7  2  0  0  0  0
 15 17  1  0  0  0  0
 16 12  2  0  0  0  0
 17 19  1  0  0  0  0
 17 11  1  0  0  0  0
 18  2  1  0  0  0  0
 19 20  1  0  0  0  0
 20 21  1  0  0  0  0
 21 22  1  6  0  0  0
 21 23  1  0  0  0  0
 23 24  2  0  0  0  0
 23 25  1  0  0  0  0
M  END
>  <MODEL>
1

>  <REMARK>
 VINA RESULT:      -7.0      0.000      0.000
  Name = 
  4 active torsions:
  status: ('A' for Active; 'I' for Inactive)
    1  A    between atoms: C_2  and  C_21
    2  A    between atoms: C_6  and  C_15
    3  A    between atoms: C_6  and  N_23
    4  A    between atoms: C_15  and  C_21
                            x       y       z     vdW  Elec       q    Type
                         _______ _______ _______ _____ _____    ______ ____

>  <TORSDO>
F 4

$$$$
=
 OpenBabel11052417293D

 25 28  0  0  1  0  0  0  0  0999 V2000
  185.8270  177.4880  143.9750 N   0  0  0  0  0  0  0  0  0  0  0  0
  186.5490  176.8750  142.9050 C   0  0  0  0  0  0  0  0  0  0  0  0
  184.3370  178.6220  142.4720 C   0  0  0  0  0  3  0  0  0  0  0  0
  185.7570  177.1530  145.3850 C   0  0  2  0  0  3  0  0  0  0  0  0
  185.6340  178.3630  147.9980 C   0  0  0  0  0  3  0  0  0  0  0  0
  185.1240  178.0840  141.3300 C   0  0  0  0  0  3  0  0  0  0  0  0
  184.6220  178.0320  145.8480 C   0  0  0  0  0  0  0  0  0  0  0  0
  184.5160  178.4050  147.2610 C   0  0  0  0  0  3  0  0  0  0  0  0
  186.9310  176.6850  140.3960 C   0  0  0  0  0  0  0  0  0  0  0  0
  186.6270  177.0290  139.0840 O   0  0  0  0  0  1  0  0  0  0  0  0
  187.5500  176.0180  143.1140 C   0  0  0  0  0  3  0  0  0  0  0  0
  186.9400  178.0010  147.3840 C   0  0  0  0  0  3  0  0  0  0  0  0
  184.7010  178.3030  143.7160 C   0  0  0  0  0  0  0  0  0  0  0  0
  184.0130  178.6750  144.8990 N   0  0  0  0  0  0  0  0  0  0  0  0
  187.9260  175.8290  140.6450 C   0  0  0  0  0  3  0  0  0  0  0  0
  187.0120  177.4950  146.1420 C   0  0  0  0  0  3  0  0  0  0  0  0
  188.2560  175.4570  141.9950 N   0  0  0  0  0  0  0  0  0  0  0  0
  186.1660  177.2520  141.5240 C   0  0  0  0  0  0  0  0  0  0  0  0
  189.3640  174.5500  142.2340 C   0  0  0  0  0  2  0  0  0  0  0  0
  189.7370  174.5630  143.7080 C   0  0  0  0  0  2  0  0  0  0  0  0
  191.0080  175.3680  143.9280 C   0  0  2  0  0  3  0  0  0  0  0  0
  192.2470  174.3380  144.7680 S   0  0  0  0  0  1  0  0  0  0  0  0
  190.7420  176.6150  144.7180 C   0  0  0  0  0  0  0  0  0  0  0  0
  190.6380  176.5460  145.9310 O   0  0  0  0  0  0  0  0  0  0  0  0
  190.5940  177.9410  144.0430 C   0  0  0  0  0  1  0  0  0  0  0  0
  1  4  1  0  0  0  0
  2 11  2  0  0  0  0
  2  1  1  0  0  0  0
  3 13  2  0  0  0  0
  4  7  1  0  0  0  0
  4 16  1  1  0  0  0
  6 18  2  0  0  0  0
  6  3  1  0  0  0  0
  7  8  1  0  0  0  0
  8  5  2  0  0  0  0
  9 15  2  0  0  0  0
  9 18  1  0  0  0  0
 10  9  1  0  0  0  0
 12  5  1  0  0  0  0
 13  1  1  0  0  0  0
 13 14  1  0  0  0  0
 14  7  2  0  0  0  0
 15 17  1  0  0  0  0
 16 12  2  0  0  0  0
 17 19  1  0  0  0  0
 17 11  1  0  0  0  0
 18  2  1  0  0  0  0
 19 20  1  0  0  0  0
 20 21  1  0  0  0  0
 21 23  1  0  0  0  0
 21 22  1  1  0  0  0
 23 24  2  0  0  0  0
 25 23  1  0  0  0  0
M  END
>  <MODEL>
2

>  <REMARK>
 VINA RESULT:      -6.9      0.996      1.199
  Name = 
  4 active torsions:
  status: ('A' for Active; 'I' for Inactive)
    1  A    between atoms: C_2  and  C_21
    2  A    between atoms: C_6  and  C_15
    3  A    between atoms: C_6  and  N_23
    4  A    between atoms: C_15  and  C_21
                            x       y       z     vdW  Elec       q    Type
                         _______ _______ _______ _____ _____    ______ ____

>  <TORSDO>
F 4

$$$$
=
 OpenBabel11052417293D

 25 28  0  0  1  0  0  0  0  0999 V2000
  187.6980  176.4470  144.9180 N   0  0  0  0  0  0  0  0  0  0  0  0
  188.9980  175.9080  144.6790 C   0  0  0  0  0  0  0  0  0  0  0  0
  187.0410  176.1810  142.6240 C   0  0  0  0  0  3  0  0  0  0  0  0
  186.9570  176.6230  146.1530 C   0  0  2  0  0  3  0  0  0  0  0  0
  185.1750  178.4560  147.4850 C   0  0  0  0  0  3  0  0  0  0  0  0
  188.4170  175.7080  142.3140 C   0  0  0  0  0  3  0  0  0  0  0  0
  185.5880  176.9840  145.6360 C   0  0  0  0  0  0  0  0  0  0  0  0
  184.6560  177.7260  146.4880 C   0  0  0  0  0  3  0  0  0  0  0  0
  190.7030  175.0660  142.9870 C   0  0  0  0  0  0  0  0  0  0  0  0
  191.0860  174.7600  141.6860 O   0  0  0  0  0  1  0  0  0  0  0  0
  189.8930  175.7340  145.6540 C   0  0  0  0  0  3  0  0  0  0  0  0
  186.6480  178.5460  147.6770 C   0  0  0  0  0  3  0  0  0  0  0  0
  186.7390  176.5120  143.8810 C   0  0  0  0  0  0  0  0  0  0  0  0
  185.4580  176.9080  144.3460 N   0  0  0  0  0  0  0  0  0  0  0  0
  191.5720  174.9040  143.9900 C   0  0  0  0  0  3  0  0  0  0  0  0
  187.4900  177.7380  147.0140 C   0  0  0  0  0  3  0  0  0  0  0  0
  191.1970  175.2130  145.3440 N   0  0  0  0  0  0  0  0  0  0  0  0
  189.3460  175.5680  143.2790 C   0  0  0  0  0  0  0  0  0  0  0  0
  192.1730  175.0580  146.4070 C   0  0  0  0  0  2  0  0  0  0  0  0
  193.4440  174.4320  145.8550 C   0  0  0  0  0  2  0  0  0  0  0  0
  194.6540  175.2770  146.2200 C   0  0  2  0  0  3  0  0  0  0  0  0
  194.3520  177.0090  145.7600 S   0  0  0  0  0  1  0  0  0  0  0  0
  195.9010  174.7700  145.5580 C   0  0  0  0  0  0  0  0  0  0  0  0
  196.2850  175.2900  144.5240 O   0  0  0  0  0  0  0  0  0  0  0  0
  196.6780  173.6340  146.1400 C   0  0  0  0  0  1  0  0  0  0  0  0
  1  4  1  0  0  0  0
  2  1  1  0  0  0  0
  2 11  2  0  0  0  0
  3 13  2  0  0  0  0
  4 16  1  1  0  0  0
  5 12  1  0  0  0  0
  6  3  1  0  0  0  0
  6 18  2  0  0  0  0
  7  4  1  0  0  0  0
  7  8  1  0  0  0  0
  8  5  2  0  0  0  0
  9 18  1  0  0  0  0
  9 15  2  0  0  0  0
 10  9  1  0  0  0  0
 13 14  1  0  0  0  0
 13  1  1  0  0  0  0
 14  7  2  0  0  0  0
 15 17  1  0  0  0  0
 16 12  2  0  0  0  0
 17 11  1  0  0  0  0
 17 19  1  0  0  0  0
 18  2  1  0  0  0  0
 20 21  1  0  0  0  0
 20 19  1  0  0  0  0
 21 22  1  6  0  0  0
 23 25  1  0  0  0  0
 23 21  1  0  0  0  0
 24 23  2  0  0  0  0
M  END
>  <MODEL>
3

>  <REMARK>
 VINA RESULT:      -6.7      3.042      3.992
  Name = 
  4 active torsions:
  status: ('A' for Active; 'I' for Inactive)
    1  A    between atoms: C_2  and  C_21
    2  A    between atoms: C_6  and  C_15
    3  A    between atoms: C_6  and  N_23
    4  A    between atoms: C_15  and  C_21
                            x       y       z     vdW  Elec       q    Type
                         _______ _______ _______ _____ _____    ______ ____

>  <TORSDO>
F 4

$$$$
=
 OpenBabel11052417293D

 25 28  0  0  1  0  0  0  0  0999 V2000
  186.1770  177.7560  143.1260 N   0  0  0  0  0  0  0  0  0  0  0  0
  186.5200  177.8000  144.5120 C   0  0  0  0  0  0  0  0  0  0  0  0
  184.0010  178.6930  143.5180 C   0  0  0  0  0  3  0  0  0  0  0  0
  187.0130  177.6350  141.9470 C   0  0  2  0  0  3  0  0  0  0  0  0
  187.0980  176.3880  139.3490 C   0  0  0  0  0  3  0  0  0  0  0  0
  184.2820  178.6620  144.9790 C   0  0  0  0  0  3  0  0  0  0  0  0
  186.0240  177.9260  140.8450 C   0  0  0  0  0  0  0  0  0  0  0  0
  186.2790  177.4400  139.4870 C   0  0  0  0  0  3  0  0  0  0  0  0
  185.7710  178.2490  146.9030 C   0  0  0  0  0  0  0  0  0  0  0  0
  184.8120  178.6360  147.8310 O   0  0  0  0  0  1  0  0  0  0  0  0
  187.7190  177.4290  144.9660 C   0  0  0  0  0  3  0  0  0  0  0  0
  187.6810  175.7130  140.5400 C   0  0  0  0  0  3  0  0  0  0  0  0
  184.9380  178.2620  142.6700 C   0  0  0  0  0  0  0  0  0  0  0  0
  184.8500  178.2960  141.2550 N   0  0  0  0  0  0  0  0  0  0  0  0
  186.9840  177.8710  147.3200 C   0  0  0  0  0  3  0  0  0  0  0  0
  187.5910  176.2560  141.7650 C   0  0  0  0  0  3  0  0  0  0  0  0
  187.9930  177.4690  146.3770 N   0  0  0  0  0  0  0  0  0  0  0  0
  185.4710  178.2490  145.4580 C   0  0  0  0  0  0  0  0  0  0  0  0
  189.2900  177.0340  146.8630 C   0  0  0  0  0  2  0  0  0  0  0  0
  189.3050  175.5210  147.0150 C   0  0  0  0  0  2  0  0  0  0  0  0
  190.4860  174.9240  146.2660 C   0  0  2  0  0  3  0  0  0  0  0  0
  191.6900  176.2290  145.8800 S   0  0  0  0  0  1  0  0  0  0  0  0
  190.0490  174.2290  145.0100 C   0  0  0  0  0  0  0  0  0  0  0  0
  189.9720  174.8610  143.9710 O   0  0  0  0  0  0  0  0  0  0  0  0
  189.6990  172.7750  145.0140 C   0  0  0  0  0  1  0  0  0  0  0  0
  1  2  1  0  0  0  0
  2 11  2  0  0  0  0
  2 18  1  0  0  0  0
  3  6  1  0  0  0  0
  4 16  1  6  0  0  0
  4  1  1  0  0  0  0
  5  8  2  0  0  0  0
  5 12  1  0  0  0  0
  6 18  2  0  0  0  0
  7 14  2  0  0  0  0
  7  4  1  0  0  0  0
  8  7  1  0  0  0  0
  9 15  2  0  0  0  0
  9 10  1  0  0  0  0
 11 17  1  0  0  0  0
 12 16  2  0  0  0  0
 13  1  1  0  0  0  0
 13  3  2  0  0  0  0
 14 13  1  0  0  0  0
 17 19  1  0  0  0  0
 17 15  1  0  0  0  0
 18  9  1  0  0  0  0
 19 20  1  0  0  0  0
 21 22  1  6  0  0  0
 21 20  1  0  0  0  0
 23 25  1  0  0  0  0
 23 21  1  0  0  0  0
 24 23  2  0  0  0  0
M  END
>  <MODEL>
4

>  <REMARK>
 VINA RESULT:      -6.7      2.101      4.874
  Name = 
  4 active torsions:
  status: ('A' for Active; 'I' for Inactive)
    1  A    between atoms: C_2  and  C_21
    2  A    between atoms: C_6  and  C_15
    3  A    between atoms: C_6  and  N_23
    4  A    between atoms: C_15  and  C_21
                            x       y       z     vdW  Elec       q    Type
                         _______ _______ _______ _____ _____    ______ ____

>  <TORSDO>
F 4

$$$$
=
 OpenBabel11052417293D

 25 28  0  0  1  0  0  0  0  0999 V2000
  187.1470  177.3440  143.8060 N   0  0  0  0  0  0  0  0  0  0  0  0
  188.4400  177.0400  144.3300 C   0  0  0  0  0  0  0  0  0  0  0  0
  186.0530  176.7660  145.8640 C   0  0  0  0  0  3  0  0  0  0  0  0
  186.7510  178.1330  142.6540 C   0  0  2  0  0  3  0  0  0  0  0  0
  184.8360  178.1970  140.5020 C   0  0  0  0  0  3  0  0  0  0  0  0
  187.3690  176.3450  146.4130 C   0  0  0  0  0  3  0  0  0  0  0  0
  185.2620  178.2460  142.8620 C   0  0  0  0  0  0  0  0  0  0  0  0
  184.3830  178.5170  141.7220 C   0  0  0  0  0  3  0  0  0  0  0  0
  189.8190  176.0950  146.2480 C   0  0  0  0  0  0  0  0  0  0  0  0
  189.9280  175.5380  147.5170 O   0  0  0  0  0  1  0  0  0  0  0  0
  189.5590  177.2200  143.6250 C   0  0  0  0  0  3  0  0  0  0  0  0
  186.1610  177.5440  140.3260 C   0  0  0  0  0  3  0  0  0  0  0  0
  185.9940  177.2470  144.6200 C   0  0  0  0  0  0  0  0  0  0  0  0
  184.8330  177.7560  143.9850 N   0  0  0  0  0  0  0  0  0  0  0  0
  190.9180  176.2900  145.5130 C   0  0  0  0  0  3  0  0  0  0  0  0
  187.0360  177.4540  141.3410 C   0  0  0  0  0  3  0  0  0  0  0  0
  190.8300  176.8680  144.1980 N   0  0  0  0  0  0  0  0  0  0  0  0
  188.5040  176.4770  145.6990 C   0  0  0  0  0  0  0  0  0  0  0  0
  192.0380  177.0370  143.4110 C   0  0  0  0  0  2  0  0  0  0  0  0
  192.9940  175.8850  143.6760 C   0  0  0  0  0  2  0  0  0  0  0  0
  194.4010  176.4080  143.9170 C   0  0  2  0  0  3  0  0  0  0  0  0
  195.6160  175.1850  143.3390 S   0  0  0  0  0  1  0  0  0  0  0  0
  194.6310  176.7280  145.3640 C   0  0  0  0  0  0  0  0  0  0  0  0
  194.8960  177.8730  145.6900 O   0  0  0  0  0  0  0  0  0  0  0  0
  194.5460  175.6670  146.4140 C   0  0  0  0  0  1  0  0  0  0  0  0
  1  2  1  0  0  0  0
  1 13  1  0  0  0  0
  2 18  1  0  0  0  0
  3  6  1  0  0  0  0
  4 16  1  6  0  0  0
  4  7  1  0  0  0  0
  4  1  1  0  0  0  0
  5  8  2  0  0  0  0
  7 14  2  0  0  0  0
  8  7  1  0  0  0  0
  9 10  1  0  0  0  0
 11 17  1  0  0  0  0
 11  2  2  0  0  0  0
 12  5  1  0  0  0  0
 12 16  2  0  0  0  0
 13  3  2  0  0  0  0
 14 13  1  0  0  0  0
 15  9  2  0  0  0  0
 17 15  1  0  0  0  0
 18  9  1  0  0  0  0
 18  6  2  0  0  0  0
 19 20  1  0  0  0  0
 19 17  1  0  0  0  0
 20 21  1  0  0  0  0
 21 22  1  1  0  0  0
 21 23  1  0  0  0  0
 23 24  2  0  0  0  0
 23 25  1  0  0  0  0
M  END
>  <MODEL>
5

>  <REMARK>
 VINA RESULT:      -6.7      2.821      4.850
  Name = 
  4 active torsions:
  status: ('A' for Active; 'I' for Inactive)
    1  A    between atoms: C_2  and  C_21
    2  A    between atoms: C_6  and  C_15
    3  A    between atoms: C_6  and  N_23
    4  A    between atoms: C_15  and  C_21
                            x       y       z     vdW  Elec       q    Type
                         _______ _______ _______ _____ _____    ______ ____

>  <TORSDO>
F 4

$$$$
=
 OpenBabel11052417293D

 25 28  0  0  1  0  0  0  0  0999 V2000
  191.6200  175.6600  143.5780 N   0  0  0  0  0  0  0  0  0  0  0  0
  190.2630  175.5450  143.1490 C   0  0  0  0  0  0  0  0  0  0  0  0
  192.4340  174.3750  141.7190 C   0  0  0  0  0  3  0  0  0  0  0  0
  192.2480  176.5880  144.4990 C   0  0  2  0  0  3  0  0  0  0  0  0
  194.2560  176.7220  146.5630 C   0  0  0  0  0  3  0  0  0  0  0  0
  191.0260  174.1490  141.2960 C   0  0  0  0  0  3  0  0  0  0  0  0
  193.7100  176.3050  144.2640 C   0  0  0  0  0  0  0  0  0  0  0  0
  194.6940  176.6300  145.3000 C   0  0  0  0  0  3  0  0  0  0  0  0
  188.5960  174.5120  141.5260 C   0  0  0  0  0  0  0  0  0  0  0  0
  188.2910  173.7100  140.4330 O   0  0  0  0  0  1  0  0  0  0  0  0
  189.2550  176.1380  143.7930 C   0  0  0  0  0  3  0  0  0  0  0  0
  192.8320  176.4500  146.8980 C   0  0  0  0  0  3  0  0  0  0  0  0
  192.6710  175.1120  142.8070 C   0  0  0  0  0  0  0  0  0  0  0  0
  193.9530  175.4770  143.2940 N   0  0  0  0  0  0  0  0  0  0  0  0
  187.6140  175.1230  142.1960 C   0  0  0  0  0  3  0  0  0  0  0  0
  191.9000  176.3240  145.9400 C   0  0  0  0  0  3  0  0  0  0  0  0
  187.9060  175.9610  143.3290 N   0  0  0  0  0  0  0  0  0  0  0  0
  189.9940  174.7030  141.9600 C   0  0  0  0  0  0  0  0  0  0  0  0
  186.8140  176.5830  144.0550 C   0  0  0  0  0  2  0  0  0  0  0  0
  187.2940  177.8710  144.7070 C   0  0  0  0  0  2  0  0  0  0  0  0
  186.3330  178.3010  145.8040 C   0  0  2  0  0  3  0  0  0  0  0  0
  185.6990  176.8360  146.6720 S   0  0  0  0  0  1  0  0  0  0  0  0
  185.1980  179.1150  145.2550 C   0  0  0  0  0  0  0  0  0  0  0  0
  184.0940  179.0250  145.7660 O   0  0  0  0  0  0  0  0  0  0  0  0
  185.3960  180.0300  144.0900 C   0  0  0  0  0  1  0  0  0  0  0  0
  1  4  1  0  0  0  0
  2  1  1  0  0  0  0
  2 11  2  0  0  0  0
  3 13  2  0  0  0  0
  4 16  1  1  0  0  0
  5 12  1  0  0  0  0
  6  3  1  0  0  0  0
  6 18  2  0  0  0  0
  7  4  1  0  0  0  0
  7  8  1  0  0  0  0
  8  5  2  0  0  0  0
  9 18  1  0  0  0  0
  9 15  2  0  0  0  0
 10  9  1  0  0  0  0
 13 14  1  0  0  0  0
 13  1  1  0  0  0  0
 14  7  2  0  0  0  0
 15 17  1  0  0  0  0
 16 12  2  0  0  0  0
 17 11  1  0  0  0  0
 17 19  1  0  0  0  0
 18  2  1  0  0  0  0
 19 20  1  0  0  0  0
 20 21  1  0  0  0  0
 21 22  1  6  0  0  0
 23 24  2  0  0  0  0
 23 21  1  0  0  0  0
 25 23  1  0  0  0  0
M  END
>  <MODEL>
6

>  <REMARK>
 VINA RESULT:      -6.4      3.193      6.460
  Name = 
  4 active torsions:
  status: ('A' for Active; 'I' for Inactive)
    1  A    between atoms: C_2  and  C_21
    2  A    between atoms: C_6  and  C_15
    3  A    between atoms: C_6  and  N_23
    4  A    between atoms: C_15  and  C_21
                            x       y       z     vdW  Elec       q    Type
                         _______ _______ _______ _____ _____    ______ ____

>  <TORSDO>
F 4

$$$$
=
 OpenBabel11052417293D

 25 28  0  0  1  0  0  0  0  0999 V2000
  188.0260  177.2150  144.2270 N   0  0  0  0  0  0  0  0  0  0  0  0
  189.3180  176.9160  144.7550 C   0  0  0  0  0  0  0  0  0  0  0  0
  186.9430  176.7860  146.3270 C   0  0  0  0  0  3  0  0  0  0  0  0
  187.6340  177.9410  143.0340 C   0  0  2  0  0  3  0  0  0  0  0  0
  185.6960  177.9160  140.9000 C   0  0  0  0  0  3  0  0  0  0  0  0
  188.2570  176.3710  146.8870 C   0  0  0  0  0  3  0  0  0  0  0  0
  186.1500  178.0980  143.2490 C   0  0  0  0  0  0  0  0  0  0  0  0
  185.2640  178.3190  142.1030 C   0  0  0  0  0  3  0  0  0  0  0  0
  190.6990  176.0590  146.7140 C   0  0  0  0  0  0  0  0  0  0  0  0
  190.8100  175.5780  148.0130 O   0  0  0  0  0  1  0  0  0  0  0  0
  190.4330  177.0280  144.0300 C   0  0  0  0  0  3  0  0  0  0  0  0
  187.0050  177.2250  140.7510 C   0  0  0  0  0  3  0  0  0  0  0  0
  186.8810  177.1930  145.0570 C   0  0  0  0  0  0  0  0  0  0  0  0
  185.7230  177.6860  144.4030 N   0  0  0  0  0  0  0  0  0  0  0  0
  191.7930  176.1860  145.9570 C   0  0  0  0  0  3  0  0  0  0  0  0
  187.8890  177.1780  141.7610 C   0  0  0  0  0  3  0  0  0  0  0  0
  191.7020  176.6840  144.6100 N   0  0  0  0  0  0  0  0  0  0  0  0
  189.3860  176.4350  146.1550 C   0  0  0  0  0  0  0  0  0  0  0  0
  192.9050  176.7800  143.8030 C   0  0  0  0  0  2  0  0  0  0  0  0
  194.1220  176.4260  144.6420 C   0  0  0  0  0  2  0  0  0  0  0  0
  195.0920  175.5740  143.8400 C   0  0  2  0  0  3  0  0  0  0  0  0
  196.0770  174.5410  144.9650 S   0  0  0  0  0  1  0  0  0  0  0  0
  195.9900  176.4170  142.9830 C   0  0  0  0  0  0  0  0  0  0  0  0
  196.8170  177.1390  143.5120 O   0  0  0  0  0  0  0  0  0  0  0  0
  195.8820  176.3920  141.4930 C   0  0  0  0  0  1  0  0  0  0  0  0
  1  2  1  0  0  0  0
  1 13  1  0  0  0  0
  2 18  1  0  0  0  0
  3  6  1  0  0  0  0
  4 16  1  6  0  0  0
  4  7  1  0  0  0  0
  4  1  1  0  0  0  0
  5  8  2  0  0  0  0
  7 14  2  0  0  0  0
  8  7  1  0  0  0  0
  9 10  1  0  0  0  0
 11 17  1  0  0  0  0
 11  2  2  0  0  0  0
 12  5  1  0  0  0  0
 12 16  2  0  0  0  0
 13  3  2  0  0  0  0
 14 13  1  0  0  0  0
 15  9  2  0  0  0  0
 17 15  1  0  0  0  0
 18  9  1  0  0  0  0
 18  6  2  0  0  0  0
 19 17  1  0  0  0  0
 19 20  1  0  0  0  0
 21 20  1  0  0  0  0
 21 22  1  1  0  0  0
 23 24  2  0  0  0  0
 23 21  1  0  0  0  0
 25 23  1  0  0  0  0
M  END
>  <MODEL>
7

>  <REMARK>
 VINA RESULT:      -6.4      3.229      5.532
  Name = 
  4 active torsions:
  status: ('A' for Active; 'I' for Inactive)
    1  A    between atoms: C_2  and  C_21
    2  A    between atoms: C_6  and  C_15
    3  A    between atoms: C_6  and  N_23
    4  A    between atoms: C_15  and  C_21
                            x       y       z     vdW  Elec       q    Type
                         _______ _______ _______ _____ _____    ______ ____

>  <TORSDO>
F 4

$$$$
=
 OpenBabel11052417293D

 25 28  0  0  1  0  0  0  0  0999 V2000
  185.8500  177.4970  143.9360 N   0  0  0  0  0  0  0  0  0  0  0  0
  186.5290  176.9200  142.8200 C   0  0  0  0  0  0  0  0  0  0  0  0
  184.2940  178.6660  142.5290 C   0  0  0  0  0  3  0  0  0  0  0  0
  185.8380  177.1200  145.3370 C   0  0  2  0  0  3  0  0  0  0  0  0
  185.8190  178.2540  147.9870 C   0  0  0  0  0  3  0  0  0  0  0  0
  185.0350  178.1660  141.3410 C   0  0  0  0  0  3  0  0  0  0  0  0
  184.7200  177.9790  145.8720 C   0  0  0  0  0  0  0  0  0  0  0  0
  184.6710  178.3100  147.2980 C   0  0  0  0  0  3  0  0  0  0  0  0
  186.8080  176.8050  140.2930 C   0  0  0  0  0  0  0  0  0  0  0  0
  186.4480  177.1850  139.0050 O   0  0  0  0  0  1  0  0  0  0  0  0
  187.5420  176.0620  142.9620 C   0  0  0  0  0  3  0  0  0  0  0  0
  187.1000  177.9170  147.3090 C   0  0  0  0  0  3  0  0  0  0  0  0
  184.7100  178.3130  143.7480 C   0  0  0  0  0  0  0  0  0  0  0  0
  184.0700  178.6460  144.9680 N   0  0  0  0  0  0  0  0  0  0  0  0
  187.8160  175.9470  140.4750 C   0  0  0  0  0  3  0  0  0  0  0  0
  187.1230  177.4470  146.0520 C   0  0  0  0  0  3  0  0  0  0  0  0
  188.2040  175.5380  141.7990 N   0  0  0  0  0  0  0  0  0  0  0  0
  186.0880  177.3340  141.4680 C   0  0  0  0  0  0  0  0  0  0  0  0
  189.3240  174.6310  141.9650 C   0  0  0  0  0  2  0  0  0  0  0  0
  189.8310  174.6900  143.3980 C   0  0  0  0  0  2  0  0  0  0  0  0
  191.1200  173.8960  143.5380 C   0  0  2  0  0  3  0  0  0  0  0  0
  191.9230  173.7390  141.9150 S   0  0  0  0  0  1  0  0  0  0  0  0
  190.8720  172.5410  144.1320 C   0  0  0  0  0  0  0  0  0  0  0  0
  191.6440  171.6300  143.8880 O   0  0  0  0  0  0  0  0  0  0  0  0
  189.6920  172.2880  145.0130 C   0  0  0  0  0  1  0  0  0  0  0  0
  1  4  1  0  0  0  0
  2 11  2  0  0  0  0
  2  1  1  0  0  0  0
  3 13  2  0  0  0  0
  4  7  1  0  0  0  0
  4 16  1  1  0  0  0
  6 18  2  0  0  0  0
  6  3  1  0  0  0  0
  7  8  1  0  0  0  0
  8  5  2  0  0  0  0
  9 15  2  0  0  0  0
  9 18  1  0  0  0  0
 10  9  1  0  0  0  0
 12  5  1  0  0  0  0
 13  1  1  0  0  0  0
 13 14  1  0  0  0  0
 14  7  2  0  0  0  0
 15 17  1  0  0  0  0
 16 12  2  0  0  0  0
 17 19  1  0  0  0  0
 17 11  1  0  0  0  0
 18  2  1  0  0  0  0
 19 20  1  0  0  0  0
 20 21  1  0  0  0  0
 21 22  1  6  0  0  0
 21 23  1  0  0  0  0
 23 25  1  0  0  0  0
 24 23  2  0  0  0  0
M  END
>  <MODEL>
8

>  <REMARK>
 VINA RESULT:      -6.4      1.545      1.599
  Name = 
  4 active torsions:
  status: ('A' for Active; 'I' for Inactive)
    1  A    between atoms: C_2  and  C_21
    2  A    between atoms: C_6  and  C_15
    3  A    between atoms: C_6  and  N_23
    4  A    between atoms: C_15  and  C_21
                            x       y       z     vdW  Elec       q    Type
                         _______ _______ _______ _____ _____    ______ ____

>  <TORSDO>
F 4

$$$$
=
 OpenBabel11052417293D

 25 28  0  0  1  0  0  0  0  0999 V2000
  186.1790  177.9320  143.8770 N   0  0  0  0  0  0  0  0  0  0  0  0
  185.6050  177.9970  142.5700 C   0  0  0  0  0  0  0  0  0  0  0  0
  188.2930  177.1640  143.0330 C   0  0  0  0  0  3  0  0  0  0  0  0
  185.7680  178.5460  145.1250 C   0  0  2  0  0  3  0  0  0  0  0  0
  185.5850  178.0270  147.9540 C   0  0  0  0  0  3  0  0  0  0  0  0
  187.7010  177.1230  141.6690 C   0  0  0  0  0  3  0  0  0  0  0  0
  186.9620  178.2730  146.0050 C   0  0  0  0  0  0  0  0  0  0  0  0
  186.8090  178.2620  147.4610 C   0  0  0  0  0  3  0  0  0  0  0  0
  185.8520  177.5170  140.0830 C   0  0  0  0  0  0  0  0  0  0  0  0
  186.5820  177.0550  138.9940 O   0  0  0  0  0  1  0  0  0  0  0  0
  184.3640  178.4370  142.3540 C   0  0  0  0  0  3  0  0  0  0  0  0
  184.4410  177.7380  147.0480 C   0  0  0  0  0  3  0  0  0  0  0  0
  187.5340  177.5670  144.0550 C   0  0  0  0  0  0  0  0  0  0  0  0
  187.9710  177.7300  145.3950 N   0  0  0  0  0  0  0  0  0  0  0  0
  184.6060  177.9660  139.9050 C   0  0  0  0  0  3  0  0  0  0  0  0
  184.5370  177.9170  145.7210 C   0  0  0  0  0  3  0  0  0  0  0  0
  183.8330  178.4510  141.0180 N   0  0  0  0  0  0  0  0  0  0  0  0
  186.4350  177.5210  141.4390 C   0  0  0  0  0  0  0  0  0  0  0  0
  182.4710  178.9010  140.7970 C   0  0  0  0  0  2  0  0  0  0  0  0
  181.4950  177.9500  141.4710 C   0  0  0  0  0  2  0  0  0  0  0  0
  180.0710  178.2500  141.0320 C   0  0  2  0  0  3  0  0  0  0  0  0
  179.9420  179.9880  140.5180 S   0  0  0  0  0  1  0  0  0  0  0  0
  179.0830  177.9510  142.1200 C   0  0  0  0  0  0  0  0  0  0  0  0
  178.8160  176.7910  142.3860 O   0  0  0  0  0  0  0  0  0  0  0  0
  178.4140  179.0510  142.8790 C   0  0  0  0  0  1  0  0  0  0  0  0
  1 13  1  0  0  0  0
  1  4  1  0  0  0  0
  2  1  1  0  0  0  0
  3 13  2  0  0  0  0
  4 16  1  1  0  0  0
  4  7  1  0  0  0  0
  6  3  1  0  0  0  0
  7  8  1  0  0  0  0
  8  5  2  0  0  0  0
  9 18  1  0  0  0  0
 10  9  1  0  0  0  0
 11  2  2  0  0  0  0
 12  5  1  0  0  0  0
 13 14  1  0  0  0  0
 14  7  2  0  0  0  0
 15  9  2  0  0  0  0
 15 17  1  0  0  0  0
 16 12  2  0  0  0  0
 17 11  1  0  0  0  0
 18  6  2  0  0  0  0
 18  2  1  0  0  0  0
 19 17  1  0  0  0  0
 19 20  1  0  0  0  0
 21 22  1  1  0  0  0
 21 20  1  0  0  0  0
 21 23  1  0  0  0  0
 23 24  2  0  0  0  0
 23 25  1  0  0  0  0
M  END
>  <MODEL>
9

>  <REMARK>
 VINA RESULT:      -6.3      3.946      6.541
  Name = 
  4 active torsions:
  status: ('A' for Active; 'I' for Inactive)
    1  A    between atoms: C_2  and  C_21
    2  A    between atoms: C_6  and  C_15
    3  A    between atoms: C_6  and  N_23
    4  A    between atoms: C_15  and  C_21
                            x       y       z     vdW  Elec       q    Type
                         _______ _______ _______ _____ _____    ______ ____

>  <TORSDO>
F 4

$$$$
