=
 OpenBabel11052417413D

 31 34  0  0  1  0  0  0  0  0999 V2000
  185.1680  177.7830  141.2040 C   0  0  0  0  0  0  0  0  0  0  0  0
  186.9120  176.5100  144.3400 C   0  0  1  0  0  3  0  0  0  0  0  0
  186.8220  177.6000  145.4080 C   0  0  0  0  0  0  0  0  0  0  0  0
  191.8050  177.4600  142.4420 O   0  0  0  0  0  0  0  0  0  0  0  0
  191.8890  176.7020  143.4450 C   0  0  0  0  0  0  0  0  0  0  0  0
  184.7100  178.5750  146.2650 C   0  0  0  0  0  3  0  0  0  0  0  0
  186.6750  177.0340  142.9480 C   0  0  0  0  0  0  0  0  0  0  0  0
  186.2620  178.1420  140.4110 C   0  0  0  0  0  3  0  0  0  0  0  0
  185.7840  178.6700  145.2360 C   0  0  0  0  0  2  0  0  0  0  0  0
  189.3600  176.3900  143.6470 C   0  0  0  0  0  0  0  0  0  0  0  0
  183.5400  178.0360  140.6140 Cl  0  0  0  0  0  0  0  0  0  0  0  0
  188.7650  176.6310  146.6380 C   0  0  0  0  0  2  0  0  0  0  0  0
  184.9510  178.7770  147.5570 C   0  0  0  0  0  3  0  0  0  0  0  0
  189.1060  177.1160  142.5950 N   0  0  0  0  0  0  0  0  0  0  0  0
  188.2250  175.7000  144.3870 C   0  0  1  0  0  3  0  0  0  0  0  0
  190.7150  176.1350  144.0410 N   0  0  0  0  0  2  0  0  0  0  0  0
  185.3730  177.2330  142.4730 C   0  0  0  0  0  3  0  0  0  0  0  0
  186.2920  179.0230  148.1170 C   0  0  0  0  0  3  0  0  0  0  0  0
  187.7730  177.3770  142.1410 C   0  0  0  0  0  0  0  0  0  0  0  0
  187.5640  177.9370  140.8770 C   0  0  0  0  0  3  0  0  0  0  0  0
  188.5760  175.3550  145.8300 C   0  0  0  0  0  2  0  0  0  0  0  0
  187.5920  177.5640  146.5250 C   0  0  0  0  0  0  0  0  0  0  0  0
  187.4380  178.5030  147.6590 C   0  0  0  0  0  3  0  0  0  0  0  0
  193.9310  175.5050  143.2860 F   0  0  0  0  0  0  0  0  0  0  0  0
  193.2330  176.4270  144.0450 C   0  0  2  0  0  3  0  0  0  0  0  0
  193.1850  174.4740  145.6380 C   0  0  0  0  0  1  0  0  0  0  0  0
  193.1770  175.9910  145.5170 C   0  0  1  0  0  3  0  0  0  0  0  0
  194.2250  176.6390  146.4350 C   0  0  0  0  0  0  0  0  0  0  0  0
  194.9150  177.6360  145.7660 F   0  0  0  0  0  0  0  0  0  0  0  0
  193.6160  177.1800  147.5520 F   0  0  0  0  0  0  0  0  0  0  0  0
  195.1260  175.6760  146.8500 F   0  0  0  0  0  0  0  0  0  0  0  0
  1 17  1  0  0  0  0
  2  7  1  6  0  0  0
  2 15  1  0  0  0  0
  2  3  1  0  0  0  0
  3 22  2  0  0  0  0
  4  5  2  0  0  0  0
  5 16  1  0  0  0  0
  5 25  1  0  0  0  0
  6 13  2  0  0  0  0
  8 20  1  0  0  0  0
  8  1  2  0  0  0  0
  9  3  1  0  0  0  0
  9  6  1  0  0  0  0
 10 16  1  0  0  0  0
 10 15  1  0  0  0  0
 11  1  1  0  0  0  0
 13 18  1  0  0  0  0
 14 10  2  0  0  0  0
 15 21  1  1  0  0  0
 17  7  2  0  0  0  0
 19 14  1  0  0  0  0
 19  7  1  0  0  0  0
 20 19  2  0  0  0  0
 21 12  1  0  0  0  0
 22 12  1  0  0  0  0
 22 23  1  0  0  0  0
 23 18  2  0  0  0  0
 25 24  1  6  0  0  0
 25 27  1  0  0  0  0
 27 26  1  6  0  0  0
 27 28  1  0  0  0  0
 28 31  1  0  0  0  0
 28 30  1  0  0  0  0
 29 28  1  0  0  0  0
M  END
>  <MODEL>
1

>  <REMARK>
 VINA RESULT:      -8.9      0.000      0.000
  Name = 
  3 active torsions:
  status: ('A' for Active; 'I' for Inactive)
    1  A    between atoms: C_1  and  C_19
    2  A    between atoms: C_9  and  C_22
    3  A    between atoms: C_19  and  C_22
                            x       y       z     vdW  Elec       q    Type
                         _______ _______ _______ _____ _____    ______ ____

>  <TORSDO>
F 3

$$$$
=
 OpenBabel11052417413D

 31 34  0  0  1  0  0  0  0  0999 V2000
  191.1400  177.1700  148.4070 C   0  0  0  0  0  0  0  0  0  0  0  0
  188.9350  177.6880  145.3470 C   0  0  1  0  0  3  0  0  0  0  0  0
  187.4820  177.4600  145.7650 C   0  0  0  0  0  0  0  0  0  0  0  0
  190.0730  172.9100  143.2690 O   0  0  0  0  0  0  0  0  0  0  0  0
  189.5400  173.6310  142.3840 C   0  0  0  0  0  0  0  0  0  0  0  0
  186.3090  178.7120  147.5550 C   0  0  0  0  0  3  0  0  0  0  0  0
  189.9220  177.0890  146.3130 C   0  0  0  0  0  0  0  0  0  0  0  0
  191.6510  175.8920  148.1610 C   0  0  0  0  0  3  0  0  0  0  0  0
  187.1520  177.5280  147.2270 C   0  0  0  0  0  2  0  0  0  0  0  0
  189.5560  175.7370  143.8330 C   0  0  0  0  0  0  0  0  0  0  0  0
  191.5730  178.0170  149.8760 Cl  0  0  0  0  0  0  0  0  0  0  0  0
  186.8140  177.0200  143.4020 C   0  0  0  0  0  2  0  0  0  0  0  0
  185.0680  178.8440  147.0930 C   0  0  0  0  0  3  0  0  0  0  0  0
  190.1490  175.1420  144.8310 N   0  0  0  0  0  0  0  0  0  0  0  0
  189.2480  177.2230  143.9090 C   0  0  1  0  0  3  0  0  0  0  0  0
  189.3020  175.0260  142.6140 N   0  0  0  0  0  2  0  0  0  0  0  0
  190.2740  177.7670  147.4870 C   0  0  0  0  0  3  0  0  0  0  0  0
  184.4320  177.9010  146.1550 C   0  0  0  0  0  3  0  0  0  0  0  0
  190.4530  175.8140  146.0580 C   0  0  0  0  0  0  0  0  0  0  0  0
  191.3110  175.2150  146.9860 C   0  0  0  0  0  3  0  0  0  0  0  0
  188.1290  177.6500  142.9650 C   0  0  0  0  0  2  0  0  0  0  0  0
  186.4980  177.2880  144.8460 C   0  0  0  0  0  0  0  0  0  0  0  0
  185.0590  177.2180  145.1890 C   0  0  0  0  0  3  0  0  0  0  0  0
  189.5410  171.6940  141.0130 F   0  0  0  0  0  0  0  0  0  0  0  0
  189.1140  173.0080  141.0910 C   0  0  2  0  0  3  0  0  0  0  0  0
  190.9590  173.4030  139.4190 C   0  0  0  0  0  1  0  0  0  0  0  0
  189.5540  173.7980  139.8480 C   0  0  1  0  0  3  0  0  0  0  0  0
  188.5710  173.7700  138.6690 C   0  0  0  0  0  0  0  0  0  0  0  0
  187.7630  174.8950  138.6740 F   0  0  0  0  0  0  0  0  0  0  0  0
  189.2580  173.7110  137.4710 F   0  0  0  0  0  0  0  0  0  0  0  0
  187.7700  172.6480  138.7700 F   0  0  0  0  0  0  0  0  0  0  0  0
  1 11  1  0  0  0  0
  2  3  1  1  0  0  0
  2  7  1  0  0  0  0
  3  9  1  0  0  0  0
  5 16  1  0  0  0  0
  5  4  2  0  0  0  0
  7 17  1  0  0  0  0
  8  1  1  0  0  0  0
  9  6  1  0  0  0  0
 10 15  1  0  0  0  0
 10 14  2  0  0  0  0
 12 22  1  0  0  0  0
 13  6  2  0  0  0  0
 14 19  1  0  0  0  0
 15 21  1  6  0  0  0
 15  2  1  0  0  0  0
 16 10  1  0  0  0  0
 17  1  2  0  0  0  0
 18 13  1  0  0  0  0
 19  7  2  0  0  0  0
 19 20  1  0  0  0  0
 20  8  2  0  0  0  0
 21 12  1  0  0  0  0
 22 23  1  0  0  0  0
 22  3  2  0  0  0  0
 23 18  2  0  0  0  0
 25 24  1  6  0  0  0
 25  5  1  0  0  0  0
 27 26  1  6  0  0  0
 27 25  1  0  0  0  0
 28 29  1  0  0  0  0
 28 31  1  0  0  0  0
 28 27  1  0  0  0  0
 30 28  1  0  0  0  0
M  END
>  <MODEL>
2

>  <REMARK>
 VINA RESULT:      -8.8      4.253      6.380
  Name = 
  3 active torsions:
  status: ('A' for Active; 'I' for Inactive)
    1  A    between atoms: C_1  and  C_19
    2  A    between atoms: C_9  and  C_22
    3  A    between atoms: C_19  and  C_22
                            x       y       z     vdW  Elec       q    Type
                         _______ _______ _______ _____ _____    ______ ____

>  <TORSDO>
F 3

$$$$
=
 OpenBabel11052417413D

 31 34  0  0  1  0  0  0  0  0999 V2000
  190.5530  172.8100  140.1360 C   0  0  0  0  0  0  0  0  0  0  0  0
  191.1020  175.6850  142.5720 C   0  0  1  0  0  3  0  0  0  0  0  0
  191.5610  175.0950  143.9050 C   0  0  0  0  0  0  0  0  0  0  0  0
  185.9000  176.3130  143.5650 O   0  0  0  0  0  0  0  0  0  0  0  0
  186.5270  177.3260  143.9770 C   0  0  0  0  0  0  0  0  0  0  0  0
  193.5690  173.6730  144.2110 C   0  0  0  0  0  3  0  0  0  0  0  0
  190.4300  174.6700  141.6840 C   0  0  0  0  0  0  0  0  0  0  0  0
  189.1600  172.7030  140.1510 C   0  0  0  0  0  3  0  0  0  0  0  0
  192.1100  173.6980  143.9050 C   0  0  0  0  0  2  0  0  0  0  0  0
  188.7530  176.5860  142.9610 C   0  0  0  0  0  0  0  0  0  0  0  0
  191.5050  171.7080  139.1650 Cl  0  0  0  0  0  0  0  0  0  0  0  0
  190.8400  177.1490  145.1250 C   0  0  0  0  0  2  0  0  0  0  0  0
  194.0480  174.0440  145.3960 C   0  0  0  0  0  3  0  0  0  0  0  0
  188.2430  175.5110  142.4280 N   0  0  0  0  0  0  0  0  0  0  0  0
  190.2120  176.9360  142.7200 C   0  0  1  0  0  3  0  0  0  0  0  0
  187.9150  177.5080  143.6730 N   0  0  0  0  0  2  0  0  0  0  0  0
  191.1890  173.7910  140.9030 C   0  0  0  0  0  3  0  0  0  0  0  0
  193.2200  174.5960  146.4830 C   0  0  0  0  0  3  0  0  0  0  0  0
  189.0280  174.5740  141.6830 C   0  0  0  0  0  0  0  0  0  0  0  0
  188.3960  173.5850  140.9220 C   0  0  0  0  0  3  0  0  0  0  0  0
  190.7870  177.8650  143.7830 C   0  0  0  0  0  2  0  0  0  0  0  0
  191.5580  175.8310  145.0450 C   0  0  0  0  0  0  0  0  0  0  0  0
  192.1330  175.3620  146.3260 C   0  0  0  0  0  3  0  0  0  0  0  0
  185.9450  179.6030  144.3050 F   0  0  0  0  0  0  0  0  0  0  0  0
  185.8160  178.3300  144.8300 C   0  0  2  0  0  3  0  0  0  0  0  0
  185.6170  179.4550  147.0770 C   0  0  0  0  0  1  0  0  0  0  0  0
  186.2440  178.3030  146.3060 C   0  0  1  0  0  3  0  0  0  0  0  0
  186.0410  176.9610  147.0250 C   0  0  0  0  0  0  0  0  0  0  0  0
  187.0950  176.1010  146.7690 F   0  0  0  0  0  0  0  0  0  0  0  0
  185.9370  177.1570  148.3900 F   0  0  0  0  0  0  0  0  0  0  0  0
  184.8710  176.3760  146.5770 F   0  0  0  0  0  0  0  0  0  0  0  0
  1  8  2  0  0  0  0
  1 17  1  0  0  0  0
  2  7  1  1  0  0  0
  2 15  1  0  0  0  0
  2  3  1  0  0  0  0
  3 22  2  0  0  0  0
  4  5  2  0  0  0  0
  5 25  1  0  0  0  0
  6 13  2  0  0  0  0
  8 20  1  0  0  0  0
  9  3  1  0  0  0  0
  9  6  1  0  0  0  0
 10 16  1  0  0  0  0
 11  1  1  0  0  0  0
 13 18  1  0  0  0  0
 14 10  2  0  0  0  0
 15 10  1  0  0  0  0
 15 21  1  1  0  0  0
 16  5  1  0  0  0  0
 17  7  2  0  0  0  0
 19  7  1  0  0  0  0
 19 14  1  0  0  0  0
 20 19  2  0  0  0  0
 21 12  1  0  0  0  0
 22 12  1  0  0  0  0
 22 23  1  0  0  0  0
 23 18  2  0  0  0  0
 25 24  1  6  0  0  0
 25 27  1  0  0  0  0
 27 28  1  0  0  0  0
 27 26  1  1  0  0  0
 28 30  1  0  0  0  0
 29 28  1  0  0  0  0
 31 28  1  0  0  0  0
M  END
>  <MODEL>
3

>  <REMARK>
 VINA RESULT:      -8.5      4.181      6.828
  Name = 
  3 active torsions:
  status: ('A' for Active; 'I' for Inactive)
    1  A    between atoms: C_1  and  C_19
    2  A    between atoms: C_9  and  C_22
    3  A    between atoms: C_19  and  C_22
                            x       y       z     vdW  Elec       q    Type
                         _______ _______ _______ _____ _____    ______ ____

>  <TORSDO>
F 3

$$$$
=
 OpenBabel11052417413D

 31 34  0  0  1  0  0  0  0  0999 V2000
  185.7900  177.6980  141.2460 C   0  0  0  0  0  0  0  0  0  0  0  0
  187.1050  176.4590  144.5980 C   0  0  1  0  0  3  0  0  0  0  0  0
  186.8380  177.5430  145.6420 C   0  0  0  0  0  0  0  0  0  0  0  0
  192.1920  177.5350  143.4090 O   0  0  0  0  0  0  0  0  0  0  0  0
  192.1510  176.7770  144.4150 C   0  0  0  0  0  0  0  0  0  0  0  0
  184.6020  178.4630  146.1910 C   0  0  0  0  0  3  0  0  0  0  0  0
  187.0540  176.9810  143.1860 C   0  0  0  0  0  0  0  0  0  0  0  0
  186.9760  178.0860  140.6150 C   0  0  0  0  0  3  0  0  0  0  0  0
  185.8080  178.5870  145.3240 C   0  0  0  0  0  2  0  0  0  0  0  0
  189.6280  176.4020  144.2580 C   0  0  0  0  0  0  0  0  0  0  0  0
  184.2560  177.9130  140.4320 Cl  0  0  0  0  0  0  0  0  0  0  0  0
  188.6120  176.6190  147.1340 C   0  0  0  0  0  2  0  0  0  0  0  0
  184.6540  178.6680  147.5050 C   0  0  0  0  0  3  0  0  0  0  0  0
  189.5070  177.1250  143.1800 N   0  0  0  0  0  0  0  0  0  0  0  0
  188.4180  175.6820  144.8310 C   0  0  1  0  0  3  0  0  0  0  0  0
  190.9200  176.1790  144.8390 N   0  0  0  0  0  2  0  0  0  0  0  0
  185.8270  177.1490  142.5310 C   0  0  0  0  0  3  0  0  0  0  0  0
  185.8960  178.9450  148.2480 C   0  0  0  0  0  3  0  0  0  0  0  0
  188.2460  177.3530  142.5420 C   0  0  0  0  0  0  0  0  0  0  0  0
  188.2040  177.9120  141.2610 C   0  0  0  0  0  3  0  0  0  0  0  0
  188.5700  175.3410  146.3080 C   0  0  0  0  0  2  0  0  0  0  0  0
  187.4430  177.5230  146.8560 C   0  0  0  0  0  0  0  0  0  0  0  0
  187.1070  178.4550  147.9560 C   0  0  0  0  0  3  0  0  0  0  0  0
  194.2820  177.5950  145.0660 F   0  0  0  0  0  0  0  0  0  0  0  0
  193.4040  176.5330  145.1980 C   0  0  2  0  0  3  0  0  0  0  0  0
  195.5980  175.2940  145.1080 C   0  0  0  0  0  1  0  0  0  0  0  0
  194.1000  175.2060  144.8570 C   0  0  1  0  0  3  0  0  0  0  0  0
  193.4870  173.9570  145.5080 C   0  0  0  0  0  0  0  0  0  0  0  0
  192.8540  174.2810  146.6960 F   0  0  0  0  0  0  0  0  0  0  0  0
  192.5730  173.3680  144.6540 F   0  0  0  0  0  0  0  0  0  0  0  0
  194.4900  173.0430  145.7730 F   0  0  0  0  0  0  0  0  0  0  0  0
  1 17  1  0  0  0  0
  2  7  1  6  0  0  0
  2 15  1  0  0  0  0
  2  3  1  0  0  0  0
  3 22  2  0  0  0  0
  4  5  2  0  0  0  0
  5 16  1  0  0  0  0
  5 25  1  0  0  0  0
  6 13  2  0  0  0  0
  8  1  2  0  0  0  0
  8 20  1  0  0  0  0
  9  3  1  0  0  0  0
  9  6  1  0  0  0  0
 10 15  1  0  0  0  0
 10 16  1  0  0  0  0
 11  1  1  0  0  0  0
 13 18  1  0  0  0  0
 14 10  2  0  0  0  0
 15 21  1  1  0  0  0
 17  7  2  0  0  0  0
 19 14  1  0  0  0  0
 19  7  1  0  0  0  0
 20 19  2  0  0  0  0
 21 12  1  0  0  0  0
 22 12  1  0  0  0  0
 22 23  1  0  0  0  0
 23 18  2  0  0  0  0
 25 24  1  6  0  0  0
 27 26  1  1  0  0  0
 27 25  1  0  0  0  0
 27 28  1  0  0  0  0
 28 31  1  0  0  0  0
 28 29  1  0  0  0  0
 30 28  1  0  0  0  0
M  END
>  <MODEL>
4

>  <REMARK>
 VINA RESULT:      -8.4      1.150      1.640
  Name = 
  3 active torsions:
  status: ('A' for Active; 'I' for Inactive)
    1  A    between atoms: C_1  and  C_19
    2  A    between atoms: C_9  and  C_22
    3  A    between atoms: C_19  and  C_22
                            x       y       z     vdW  Elec       q    Type
                         _______ _______ _______ _____ _____    ______ ____

>  <TORSDO>
F 3

$$$$
=
 OpenBabel11052417413D

 31 34  0  0  1  0  0  0  0  0999 V2000
  195.0850  174.6300  145.7680 C   0  0  0  0  0  0  0  0  0  0  0  0
  191.7660  173.3790  144.3840 C   0  0  1  0  0  3  0  0  0  0  0  0
  191.7240  173.7010  142.8910 C   0  0  0  0  0  0  0  0  0  0  0  0
  188.9920  177.5050  146.3140 O   0  0  0  0  0  0  0  0  0  0  0  0
  188.1950  176.5880  145.9790 C   0  0  0  0  0  0  0  0  0  0  0  0
  193.3870  172.9240  141.2240 C   0  0  0  0  0  3  0  0  0  0  0  0
  192.7880  174.1960  145.1300 C   0  0  0  0  0  0  0  0  0  0  0  0
  194.6870  175.8090  146.4060 C   0  0  0  0  0  3  0  0  0  0  0  0
  193.0220  173.9930  142.1970 C   0  0  0  0  0  2  0  0  0  0  0  0
  190.0520  174.9010  145.4920 C   0  0  0  0  0  0  0  0  0  0  0  0
  196.7730  174.1680  145.7590 Cl  0  0  0  0  0  0  0  0  0  0  0  0
  189.2330  173.5500  142.8730 C   0  0  0  0  0  2  0  0  0  0  0  0
  192.6610  172.6840  140.1350 C   0  0  0  0  0  3  0  0  0  0  0  0
  191.0000  175.7210  145.8500 N   0  0  0  0  0  0  0  0  0  0  0  0
  190.3930  173.4780  145.0810 C   0  0  1  0  0  3  0  0  0  0  0  0
  188.6760  175.2920  145.6020 N   0  0  0  0  0  2  0  0  0  0  0  0
  194.1380  173.8250  145.1280 C   0  0  0  0  0  3  0  0  0  0  0  0
  191.3940  173.3690  139.8200 C   0  0  0  0  0  3  0  0  0  0  0  0
  192.3870  175.3700  145.7880 C   0  0  0  0  0  0  0  0  0  0  0  0
  193.3390  176.1780  146.4190 C   0  0  0  0  0  3  0  0  0  0  0  0
  189.3180  172.8330  144.2140 C   0  0  0  0  0  2  0  0  0  0  0  0
  190.5660  173.6440  142.1850 C   0  0  0  0  0  0  0  0  0  0  0  0
  190.4930  173.7940  140.7140 C   0  0  0  0  0  3  0  0  0  0  0  0
  186.1670  176.4130  144.7580 F   0  0  0  0  0  0  0  0  0  0  0  0
  186.7260  176.8760  145.9360 C   0  0  2  0  0  3  0  0  0  0  0  0
  185.6690  178.9400  144.9460 C   0  0  0  0  0  1  0  0  0  0  0  0
  186.3780  178.3560  146.1600 C   0  0  1  0  0  3  0  0  0  0  0  0
  185.6220  178.6640  147.4610 C   0  0  0  0  0  0  0  0  0  0  0  0
  185.9800  179.9070  147.9550 F   0  0  0  0  0  0  0  0  0  0  0  0
  184.2570  178.6390  147.2430 F   0  0  0  0  0  0  0  0  0  0  0  0
  185.9330  177.7040  148.4060 F   0  0  0  0  0  0  0  0  0  0  0  0
  1  8  1  0  0  0  0
  2  3  1  6  0  0  0
  2 15  1  0  0  0  0
  2  7  1  0  0  0  0
  5  4  2  0  0  0  0
  6  9  1  0  0  0  0
  7 19  2  0  0  0  0
  8 20  2  0  0  0  0
  9  3  1  0  0  0  0
 10 16  1  0  0  0  0
 10 14  2  0  0  0  0
 11  1  1  0  0  0  0
 12 21  1  0  0  0  0
 13  6  2  0  0  0  0
 15 21  1  6  0  0  0
 15 10  1  0  0  0  0
 16  5  1  0  0  0  0
 17  7  1  0  0  0  0
 17  1  2  0  0  0  0
 18 13  1  0  0  0  0
 18 23  2  0  0  0  0
 19 14  1  0  0  0  0
 19 20  1  0  0  0  0
 22 12  1  0  0  0  0
 22  3  2  0  0  0  0
 23 22  1  0  0  0  0
 25 24  1  6  0  0  0
 25  5  1  0  0  0  0
 25 27  1  0  0  0  0
 27 26  1  6  0  0  0
 27 28  1  0  0  0  0
 28 29  1  0  0  0  0
 28 31  1  0  0  0  0
 30 28  1  0  0  0  0
M  END
>  <MODEL>
5

>  <REMARK>
 VINA RESULT:      -8.1      4.726      8.250
  Name = 
  3 active torsions:
  status: ('A' for Active; 'I' for Inactive)
    1  A    between atoms: C_1  and  C_19
    2  A    between atoms: C_9  and  C_22
    3  A    between atoms: C_19  and  C_22
                            x       y       z     vdW  Elec       q    Type
                         _______ _______ _______ _____ _____    ______ ____

>  <TORSDO>
F 3

$$$$
=
 OpenBabel11052417413D

 31 34  0  0  1  0  0  0  0  0999 V2000
  195.2910  174.3650  145.8100 C   0  0  0  0  0  0  0  0  0  0  0  0
  191.9010  173.2360  144.4950 C   0  0  1  0  0  3  0  0  0  0  0  0
  191.9000  173.4090  142.9760 C   0  0  0  0  0  0  0  0  0  0  0  0
  189.4330  177.7330  145.9540 O   0  0  0  0  0  0  0  0  0  0  0  0
  188.5710  176.8500  145.6960 C   0  0  0  0  0  0  0  0  0  0  0  0
  193.5160  172.3460  141.4260 C   0  0  0  0  0  3  0  0  0  0  0  0
  192.9740  174.0440  145.1750 C   0  0  0  0  0  0  0  0  0  0  0  0
  194.9780  175.6290  146.3200 C   0  0  0  0  0  3  0  0  0  0  0  0
  193.2240  173.5310  142.2810 C   0  0  0  0  0  2  0  0  0  0  0  0
  190.2970  174.9870  145.4150 C   0  0  0  0  0  0  0  0  0  0  0  0
  196.9380  173.7780  145.8780 Cl  0  0  0  0  0  0  0  0  0  0  0  0
  189.4050  173.4460  142.9270 C   0  0  0  0  0  2  0  0  0  0  0  0
  192.7860  172.0530  140.3530 C   0  0  0  0  0  3  0  0  0  0  0  0
  191.3020  175.7650  145.7060 N   0  0  0  0  0  0  0  0  0  0  0  0
  190.5320  173.5080  145.1520 C   0  0  1  0  0  3  0  0  0  0  0  0
  188.9550  175.4900  145.4590 N   0  0  0  0  0  2  0  0  0  0  0  0
  194.2920  173.5740  145.2350 C   0  0  0  0  0  3  0  0  0  0  0  0
  191.5800  172.7960  139.9480 C   0  0  0  0  0  3  0  0  0  0  0  0
  192.6580  175.3060  145.7060 C   0  0  0  0  0  0  0  0  0  0  0  0
  193.6620  176.0990  146.2710 C   0  0  0  0  0  3  0  0  0  0  0  0
  189.4200  172.8630  144.3330 C   0  0  0  0  0  2  0  0  0  0  0  0
  190.7490  173.3690  142.2580 C   0  0  0  0  0  0  0  0  0  0  0  0
  190.7040  173.3760  140.7790 C   0  0  0  0  0  3  0  0  0  0  0  0
  186.3100  176.2310  146.0670 F   0  0  0  0  0  0  0  0  0  0  0  0
  187.1290  177.2430  145.5980 C   0  0  2  0  0  3  0  0  0  0  0  0
  186.3080  176.4810  143.3390 C   0  0  0  0  0  1  0  0  0  0  0  0
  186.7010  177.6810  144.1890 C   0  0  1  0  0  3  0  0  0  0  0  0
  185.6340  178.7850  144.1390 C   0  0  0  0  0  0  0  0  0  0  0  0
  185.9830  179.8440  144.9610 F   0  0  0  0  0  0  0  0  0  0  0  0
  185.4800  179.2470  142.8450 F   0  0  0  0  0  0  0  0  0  0  0  0
  184.4250  178.2700  144.5670 F   0  0  0  0  0  0  0  0  0  0  0  0
  1 11  1  0  0  0  0
  1  8  1  0  0  0  0
  2  3  1  6  0  0  0
  2 15  1  0  0  0  0
  2  7  1  0  0  0  0
  5  4  2  0  0  0  0
  6  9  1  0  0  0  0
  7 17  1  0  0  0  0
  7 19  2  0  0  0  0
  9  3  1  0  0  0  0
 10 16  1  0  0  0  0
 10 14  2  0  0  0  0
 12 21  1  0  0  0  0
 13  6  2  0  0  0  0
 15 21  1  6  0  0  0
 15 10  1  0  0  0  0
 16  5  1  0  0  0  0
 17  1  2  0  0  0  0
 18 13  1  0  0  0  0
 18 23  2  0  0  0  0
 19 14  1  0  0  0  0
 19 20  1  0  0  0  0
 20  8  2  0  0  0  0
 22 12  1  0  0  0  0
 22  3  2  0  0  0  0
 23 22  1  0  0  0  0
 25  5  1  0  0  0  0
 25 24  1  6  0  0  0
 27 26  1  1  0  0  0
 27 25  1  0  0  0  0
 28 27  1  0  0  0  0
 28 31  1  0  0  0  0
 28 29  1  0  0  0  0
 30 28  1  0  0  0  0
M  END
>  <MODEL>
6

>  <REMARK>
 VINA RESULT:      -7.8      4.900      8.393
  Name = 
  3 active torsions:
  status: ('A' for Active; 'I' for Inactive)
    1  A    between atoms: C_1  and  C_19
    2  A    between atoms: C_9  and  C_22
    3  A    between atoms: C_19  and  C_22
                            x       y       z     vdW  Elec       q    Type
                         _______ _______ _______ _____ _____    ______ ____

>  <TORSDO>
F 3

$$$$
=
 OpenBabel11052417413D

 31 34  0  0  1  0  0  0  0  0999 V2000
  185.4910  178.0880  146.3620 C   0  0  0  0  0  0  0  0  0  0  0  0
  188.5850  177.8970  144.1510 C   0  0  1  0  0  3  0  0  0  0  0  0
  188.3700  176.7790  143.1310 C   0  0  0  0  0  0  0  0  0  0  0  0
  191.4750  175.2940  147.8000 O   0  0  0  0  0  0  0  0  0  0  0  0
  192.2420  175.7470  146.9080 C   0  0  0  0  0  0  0  0  0  0  0  0
  186.4880  176.6710  141.5200 C   0  0  0  0  0  3  0  0  0  0  0  0
  187.6680  177.7870  145.3410 C   0  0  0  0  0  0  0  0  0  0  0  0
  185.9420  177.4430  147.5180 C   0  0  0  0  0  3  0  0  0  0  0  0
  186.9650  176.3110  142.8860 C   0  0  0  0  0  2  0  0  0  0  0  0
  190.3970  177.0750  145.7400 C   0  0  0  0  0  0  0  0  0  0  0  0
  183.8430  178.6720  146.2730 Cl  0  0  0  0  0  0  0  0  0  0  0  0
  190.8280  176.5770  142.7530 C   0  0  0  0  0  2  0  0  0  0  0  0
  187.0350  176.1540  140.4230 C   0  0  0  0  0  3  0  0  0  0  0  0
  189.4890  176.7320  146.6110 N   0  0  0  0  0  0  0  0  0  0  0  0
  190.0490  178.0390  144.6180 C   0  0  1  0  0  3  0  0  0  0  0  0
  191.7560  176.6460  145.9040 N   0  0  0  0  0  2  0  0  0  0  0  0
  186.3510  178.2580  145.2730 C   0  0  0  0  0  3  0  0  0  0  0  0
  188.2050  175.2590  140.4270 C   0  0  0  0  0  3  0  0  0  0  0  0
  188.1250  177.1570  146.5100 C   0  0  0  0  0  0  0  0  0  0  0  0
  187.2590  176.9800  147.5940 C   0  0  0  0  0  3  0  0  0  0  0  0
  190.9920  177.9330  143.4250 C   0  0  0  0  0  2  0  0  0  0  0  0
  189.3980  176.2780  142.4010 C   0  0  0  0  0  0  0  0  0  0  0  0
  189.2240  175.3080  141.2960 C   0  0  0  0  0  3  0  0  0  0  0  0
  194.5260  176.3910  146.9140 F   0  0  0  0  0  0  0  0  0  0  0  0
  193.6710  175.3030  146.8790 C   0  0  2  0  0  3  0  0  0  0  0  0
  192.7730  173.6450  145.2060 C   0  0  0  0  0  1  0  0  0  0  0  0
  194.0100  174.3820  145.6960 C   0  0  1  0  0  3  0  0  0  0  0  0
  194.7690  175.0510  144.5390 C   0  0  0  0  0  0  0  0  0  0  0  0
  194.1610  176.2410  144.1750 F   0  0  0  0  0  0  0  0  0  0  0  0
  196.0780  175.3030  144.9050 F   0  0  0  0  0  0  0  0  0  0  0  0
  194.7740  174.2020  143.4480 F   0  0  0  0  0  0  0  0  0  0  0  0
  1  8  1  0  0  0  0
  2  3  1  6  0  0  0
  2 15  1  0  0  0  0
  2  7  1  0  0  0  0
  5  4  2  0  0  0  0
  6  9  1  0  0  0  0
  7 19  2  0  0  0  0
  8 20  2  0  0  0  0
  9  3  1  0  0  0  0
 10 16  1  0  0  0  0
 10 14  2  0  0  0  0
 11  1  1  0  0  0  0
 12 21  1  0  0  0  0
 13 18  1  0  0  0  0
 13  6  2  0  0  0  0
 15 21  1  6  0  0  0
 15 10  1  0  0  0  0
 16  5  1  0  0  0  0
 17  7  1  0  0  0  0
 17  1  2  0  0  0  0
 18 23  2  0  0  0  0
 19 14  1  0  0  0  0
 19 20  1  0  0  0  0
 22 12  1  0  0  0  0
 22  3  2  0  0  0  0
 23 22  1  0  0  0  0
 25  5  1  0  0  0  0
 25 24  1  6  0  0  0
 27 26  1  6  0  0  0
 27 25  1  0  0  0  0
 28 30  1  0  0  0  0
 28 27  1  0  0  0  0
 29 28  1  0  0  0  0
 31 28  1  0  0  0  0
M  END
>  <MODEL>
7

>  <REMARK>
 VINA RESULT:      -7.7      2.165      4.589
  Name = 
  3 active torsions:
  status: ('A' for Active; 'I' for Inactive)
    1  A    between atoms: C_1  and  C_19
    2  A    between atoms: C_9  and  C_22
    3  A    between atoms: C_19  and  C_22
                            x       y       z     vdW  Elec       q    Type
                         _______ _______ _______ _____ _____    ______ ____

>  <TORSDO>
F 3

$$$$
=
 OpenBabel11052417413D

 31 34  0  0  1  0  0  0  0  0999 V2000
  194.4330  174.8480  143.9300 C   0  0  0  0  0  0  0  0  0  0  0  0
  191.0300  173.6040  142.7600 C   0  0  1  0  0  3  0  0  0  0  0  0
  190.9450  173.8080  141.2480 C   0  0  0  0  0  0  0  0  0  0  0  0
  188.4560  177.9620  144.4420 O   0  0  0  0  0  0  0  0  0  0  0  0
  187.6190  177.0490  144.2080 C   0  0  0  0  0  0  0  0  0  0  0  0
  192.5230  172.8460  139.5950 C   0  0  0  0  0  3  0  0  0  0  0  0
  192.1020  174.4430  143.4040 C   0  0  0  0  0  0  0  0  0  0  0  0
  194.0950  176.0870  144.4830 C   0  0  0  0  0  3  0  0  0  0  0  0
  192.2260  174.0000  140.4910 C   0  0  0  0  0  2  0  0  0  0  0  0
  189.4050  175.2670  143.7980 C   0  0  0  0  0  0  0  0  0  0  0  0
  196.1050  174.3300  143.9030 Cl  0  0  0  0  0  0  0  0  0  0  0  0
  188.4520  173.7410  141.3240 C   0  0  0  0  0  2  0  0  0  0  0  0
  191.7520  172.5450  138.5540 C   0  0  0  0  0  3  0  0  0  0  0  0
  190.3900  176.0800  144.0570 N   0  0  0  0  0  0  0  0  0  0  0  0
  189.6860  173.8050  143.4910 C   0  0  1  0  0  3  0  0  0  0  0  0
  188.0460  175.7120  143.9210 N   0  0  0  0  0  2  0  0  0  0  0  0
  193.4400  174.0280  143.3880 C   0  0  0  0  0  3  0  0  0  0  0  0
  190.4970  173.2450  138.2260 C   0  0  0  0  0  3  0  0  0  0  0  0
  191.7620  175.6790  143.9790 C   0  0  0  0  0  0  0  0  0  0  0  0
  192.7600  176.5020  144.5110 C   0  0  0  0  0  3  0  0  0  0  0  0
  188.5610  173.1300  142.7140 C   0  0  0  0  0  2  0  0  0  0  0  0
  189.7620  173.7340  140.5880 C   0  0  0  0  0  0  0  0  0  0  0  0
  189.6420  173.7700  139.1120 C   0  0  0  0  0  3  0  0  0  0  0  0
  185.7090  177.5570  142.8940 F   0  0  0  0  0  0  0  0  0  0  0  0
  186.1600  177.3820  144.1900 C   0  0  2  0  0  3  0  0  0  0  0  0
  185.4590  179.8040  144.2040 C   0  0  0  0  0  1  0  0  0  0  0  0
  185.7900  178.5920  145.0630 C   0  0  1  0  0  3  0  0  0  0  0  0
  184.7060  178.3330  146.1210 C   0  0  0  0  0  0  0  0  0  0  0  0
  183.4940  178.8730  145.7260 F   0  0  0  0  0  0  0  0  0  0  0  0
  184.5520  176.9750  146.3290 F   0  0  0  0  0  0  0  0  0  0  0  0
  185.0860  178.9190  147.3140 F   0  0  0  0  0  0  0  0  0  0  0  0
  1  8  1  0  0  0  0
  2  3  1  6  0  0  0
  2  7  1  0  0  0  0
  2 15  1  0  0  0  0
  5  4  2  0  0  0  0
  6  9  1  0  0  0  0
  7 19  2  0  0  0  0
  8 20  2  0  0  0  0
  9  3  1  0  0  0  0
 10 16  1  0  0  0  0
 10 14  2  0  0  0  0
 11  1  1  0  0  0  0
 12 21  1  0  0  0  0
 13  6  2  0  0  0  0
 15 21  1  6  0  0  0
 15 10  1  0  0  0  0
 16  5  1  0  0  0  0
 17  7  1  0  0  0  0
 17  1  2  0  0  0  0
 18 13  1  0  0  0  0
 18 23  2  0  0  0  0
 19 14  1  0  0  0  0
 19 20  1  0  0  0  0
 22  3  2  0  0  0  0
 22 12  1  0  0  0  0
 23 22  1  0  0  0  0
 25 24  1  6  0  0  0
 25  5  1  0  0  0  0
 25 27  1  0  0  0  0
 27 26  1  6  0  0  0
 27 28  1  0  0  0  0
 28 30  1  0  0  0  0
 28 31  1  0  0  0  0
 29 28  1  0  0  0  0
M  END
>  <MODEL>
8

>  <REMARK>
 VINA RESULT:      -7.6      5.039      8.261
  Name = 
  3 active torsions:
  status: ('A' for Active; 'I' for Inactive)
    1  A    between atoms: C_1  and  C_19
    2  A    between atoms: C_9  and  C_22
    3  A    between atoms: C_19  and  C_22
                            x       y       z     vdW  Elec       q    Type
                         _______ _______ _______ _____ _____    ______ ____

>  <TORSDO>
F 3

$$$$
=
 OpenBabel11052417413D

 31 34  0  0  1  0  0  0  0  0999 V2000
  185.1480  177.9430  142.2990 C   0  0  0  0  0  0  0  0  0  0  0  0
  188.8710  177.1450  142.2290 C   0  0  1  0  0  3  0  0  0  0  0  0
  189.0340  175.6820  141.8180 C   0  0  0  0  0  0  0  0  0  0  0  0
  189.2370  176.6750  147.5290 O   0  0  0  0  0  0  0  0  0  0  0  0
  190.3940  176.7780  147.0400 C   0  0  0  0  0  0  0  0  0  0  0  0
  188.1820  174.6990  139.7070 C   0  0  0  0  0  3  0  0  0  0  0  0
  187.4850  177.4610  142.7270 C   0  0  0  0  0  0  0  0  0  0  0  0
  184.8880  177.9070  143.6720 C   0  0  0  0  0  3  0  0  0  0  0  0
  187.8800  175.0110  141.1330 C   0  0  0  0  0  2  0  0  0  0  0  0
  189.5490  177.2770  144.6800 C   0  0  0  0  0  0  0  0  0  0  0  0
  183.8480  178.2570  141.1700 Cl  0  0  0  0  0  0  0  0  0  0  0  0
  191.3120  175.5950  142.8320 C   0  0  0  0  0  2  0  0  0  0  0  0
  189.1210  173.8220  139.3600 C   0  0  0  0  0  3  0  0  0  0  0  0
  188.2950  177.2480  145.0370 N   0  0  0  0  0  0  0  0  0  0  0  0
  189.9250  177.6250  143.2490 C   0  0  1  0  0  3  0  0  0  0  0  0
  190.5840  177.1040  145.6580 N   0  0  0  0  0  2  0  0  0  0  0  0
  186.4440  177.7180  141.8250 C   0  0  0  0  0  3  0  0  0  0  0  0
  190.0090  173.1420  140.3200 C   0  0  0  0  0  3  0  0  0  0  0  0
  187.2250  177.4450  144.1070 C   0  0  0  0  0  0  0  0  0  0  0  0
  185.9250  177.6610  144.5760 C   0  0  0  0  0  3  0  0  0  0  0  0
  191.3060  177.1170  142.8540 C   0  0  0  0  0  2  0  0  0  0  0  0
  190.2110  175.0260  141.9820 C   0  0  0  0  0  0  0  0  0  0  0  0
  190.4710  173.6640  141.4630 C   0  0  0  0  0  3  0  0  0  0  0  0
  192.1420  177.7030  148.3530 F   0  0  0  0  0  0  0  0  0  0  0  0
  191.5830  176.5160  147.9120 C   0  0  2  0  0  3  0  0  0  0  0  0
  192.0130  174.6420  146.2810 C   0  0  0  0  0  1  0  0  0  0  0  0
  192.6480  175.6230  147.2560 C   0  0  1  0  0  3  0  0  0  0  0  0
  193.8310  176.3700  146.6210 C   0  0  0  0  0  0  0  0  0  0  0  0
  194.1430  177.5060  147.3480 F   0  0  0  0  0  0  0  0  0  0  0  0
  194.9420  175.5490  146.5620 F   0  0  0  0  0  0  0  0  0  0  0  0
  193.4940  176.7440  145.3330 F   0  0  0  0  0  0  0  0  0  0  0  0
  1  8  1  0  0  0  0
  2  3  1  1  0  0  0
  2  7  1  0  0  0  0
  2 15  1  0  0  0  0
  3 22  2  0  0  0  0
  5  4  2  0  0  0  0
  5 25  1  0  0  0  0
  6  9  1  0  0  0  0
  7 19  2  0  0  0  0
  8 20  2  0  0  0  0
  9  3  1  0  0  0  0
 10 14  2  0  0  0  0
 10 16  1  0  0  0  0
 11  1  1  0  0  0  0
 12 21  1  0  0  0  0
 13  6  2  0  0  0  0
 13 18  1  0  0  0  0
 15 21  1  6  0  0  0
 15 10  1  0  0  0  0
 16  5  1  0  0  0  0
 17  1  2  0  0  0  0
 17  7  1  0  0  0  0
 18 23  2  0  0  0  0
 19 20  1  0  0  0  0
 19 14  1  0  0  0  0
 22 12  1  0  0  0  0
 23 22  1  0  0  0  0
 25 24  1  6  0  0  0
 27 26  1  6  0  0  0
 27 25  1  0  0  0  0
 28 27  1  0  0  0  0
 28 29  1  0  0  0  0
 30 28  1  0  0  0  0
 31 28  1  0  0  0  0
M  END
>  <MODEL>
9

>  <REMARK>
 VINA RESULT:      -7.5      2.328      4.673
  Name = 
  3 active torsions:
  status: ('A' for Active; 'I' for Inactive)
    1  A    between atoms: C_1  and  C_19
    2  A    between atoms: C_9  and  C_22
    3  A    between atoms: C_19  and  C_22
                            x       y       z     vdW  Elec       q    Type
                         _______ _______ _______ _____ _____    ______ ____

>  <TORSDO>
F 3

$$$$
