=
 OpenBabel11052419433D

 55 60  0  0  1  0  0  0  0  0999 V2000
  193.2770  172.5700  143.9410 C   0  0  0  0  0  0  0  0  0  0  0  0
  189.7010  172.4650  145.1720 C   0  0  0  0  0  1  0  0  0  0  0  0
  189.4150  174.0260  140.4910 C   0  0  0  0  0  3  0  0  0  0  0  0
  188.5410  174.1000  139.4030 C   0  0  0  0  0  3  0  0  0  0  0  0
  190.2120  171.9080  139.6590 C   0  0  0  0  0  0  0  0  0  0  0  0
  189.2930  171.9940  138.6130 C   0  0  0  0  0  3  0  0  0  0  0  0
  190.4510  173.2200  143.0090 O   0  0  0  0  0  0  0  0  0  0  0  0
  188.4900  173.0840  138.4980 N   0  0  0  0  0  0  0  0  0  0  0  0
  190.2330  172.9100  140.6490 C   0  0  0  0  0  0  0  0  0  0  0  0
  193.2230  171.5580  142.8050 C   0  0  0  0  0  2  0  0  0  0  0  0
  192.2940  170.8390  140.5850 C   0  0  2  0  0  3  0  0  0  0  0  0
  191.1120  170.7990  139.7310 N   0  0  0  0  0  2  0  0  0  0  0  0
  192.1610  172.8900  144.6610 C   0  0  0  0  0  0  0  0  0  0  0  0
  190.8160  172.4560  144.1310 C   0  0  1  0  0  3  0  0  0  0  0  0
  191.1660  172.8330  141.8370 C   0  0  2  0  0  3  0  0  0  0  0  0
  191.9570  171.4840  141.9350 C   0  0  2  0  0  3  0  0  0  0  0  0
  195.3710  172.7030  145.3440 C   0  0  0  0  0  3  0  0  0  0  0  0
  196.4130  174.6900  143.6890 C   0  0  0  0  0  0  0  0  0  0  0  0
  195.1530  174.1440  143.4240 C   0  0  0  0  0  3  0  0  0  0  0  0
  196.6260  173.2500  145.6150 C   0  0  0  0  0  3  0  0  0  0  0  0
  194.6310  173.1280  144.2300 C   0  0  0  0  0  0  0  0  0  0  0  0
  196.9250  175.6740  142.8670 O   0  0  0  0  0  1  0  0  0  0  0  0
  197.1560  174.2400  144.7790 C   0  0  0  0  0  3  0  0  0  0  0  0
  194.7370  170.5950  139.9210 C   0  0  0  0  0  2  0  0  0  0  0  0
  195.6160  171.6970  137.7980 C   0  0  2  0  0  3  0  0  0  0  0  0
  193.2020  172.0500  138.4730 C   0  0  0  0  0  2  0  0  0  0  0  0
  194.1480  171.5080  137.4070 C   0  0  0  0  0  2  0  0  0  0  0  0
  195.9040  171.3190  139.2590 C   0  0  0  0  0  2  0  0  0  0  0  0
  193.4980  171.4890  139.8760 C   0  0  1  0  0  3  0  0  0  0  0  0
  196.0460  173.1390  137.5570 C   0  0  0  0  0  2  0  0  0  0  0  0
  196.6190  173.7650  138.8230 C   0  0  0  0  0  2  0  0  0  0  0  0
  195.7860  174.9460  139.2840 C   0  0  0  0  0  1  0  0  0  0  0  0
  192.1840  173.7800  145.8580 C   0  0  0  0  0  3  0  0  0  0  0  0
  192.2300  175.1110  145.8230 C   0  0  0  0  0  0  0  0  0  0  0  0
  192.2860  175.7890  144.6110 O   0  0  0  0  0  1  0  0  0  0  0  0
  192.2960  175.8620  147.1140 C   0  0  0  0  0  2  0  0  0  0  0  0
  191.2000  176.9080  147.2400 C   0  0  2  0  0  3  0  0  0  0  0  0
  191.1810  177.4560  148.5140 F   0  0  0  0  0  0  0  0  0  0  0  0
  189.9520  176.3530  146.8980 O   0  0  0  0  0  0  0  0  0  0  0  0
  189.2380  177.3460  146.1870 C   0  0  1  0  0  3  0  0  0  0  0  0
  190.0150  177.8620  145.1340 O   0  0  0  0  0  1  0  0  0  0  0  0
  185.0820  178.2840  147.3700 C   0  0  0  0  0  2  0  0  0  0  0  0
  185.8730  175.7970  143.6170 O   0  0  0  0  0  0  0  0  0  0  0  0
  187.8690  176.8050  145.7010 C   0  0  1  0  0  0  0  0  0  0  0  0
  187.4690  178.8510  144.3790 O   0  0  0  0  0  1  0  0  0  0  0  0
  187.3920  177.4520  144.3620 C   0  0  2  0  0  3  0  0  0  0  0  0
  186.5680  178.1640  147.0710 C   0  0  0  0  0  2  0  0  0  0  0  0
  184.8430  177.9030  143.7290 C   0  0  1  0  0  3  0  0  0  0  0  0
  184.2250  177.8690  146.1670 C   0  0  0  0  0  2  0  0  0  0  0  0
  186.0230  176.9760  143.9160 C   0  0  0  0  0  0  0  0  0  0  0  0
  188.0780  175.4690  145.4150 F   0  0  0  0  0  0  0  0  0  0  0  0
  184.5500  178.7460  144.9720 C   0  0  0  0  0  2  0  0  0  0  0  0
  186.8890  176.8420  146.7290 O   0  0  0  0  0  0  0  0  0  0  0  0
  185.0840  178.7790  142.5950 N   0  0  0  0  0  2  0  0  0  0  0  0
  184.3390  178.2350  141.4740 C   0  0  0  0  0  1  0  0  0  0  0  0
  1 21  1  0  0  0  0
  1 13  2  0  0  0  0
  3  9  1  0  0  0  0
  4  3  2  0  0  0  0
  5 12  1  0  0  0  0
  5  9  2  0  0  0  0
  6  5  1  0  0  0  0
  7 14  1  0  0  0  0
  8  6  2  0  0  0  0
  8  4  1  0  0  0  0
 10  1  1  0  0  0  0
 11 12  1  6  0  0  0
 11 16  1  0  0  0  0
 13 33  1  0  0  0  0
 14 13  1  0  0  0  0
 14  2  1  1  0  0  0
 15  9  1  6  0  0  0
 15 16  1  0  0  0  0
 15  7  1  0  0  0  0
 16 10  1  6  0  0  0
 17 20  1  0  0  0  0
 18 23  1  0  0  0  0
 19 18  2  0  0  0  0
 19 21  1  0  0  0  0
 21 17  2  0  0  0  0
 22 18  1  0  0  0  0
 23 20  2  0  0  0  0
 25 30  1  1  0  0  0
 25 28  1  0  0  0  0
 27 25  1  0  0  0  0
 27 26  1  0  0  0  0
 28 24  1  0  0  0  0
 29 26  1  6  0  0  0
 29 24  1  0  0  0  0
 29 11  1  0  0  0  0
 30 31  1  0  0  0  0
 31 32  1  0  0  0  0
 34 33  2  0  0  0  0
 34 36  1  0  0  0  0
 35 34  1  0  0  0  0
 36 37  1  0  0  0  0
 37 38  1  1  0  0  0
 39 37  1  0  0  0  0
 40 41  1  6  0  0  0
 40 39  1  0  0  0  0
 43 50  2  0  0  0  0
 44 51  1  6  0  0  0
 44 40  1  0  0  0  0
 44 53  1  0  0  0  0
 46 45  1  1  0  0  0
 46 44  1  0  0  0  0
 47 42  1  0  0  0  0
 48 54  1  6  0  0  0
 48 50  1  0  0  0  0
 48 52  1  0  0  0  0
 49 42  1  0  0  0  0
 50 46  1  0  0  0  0
 52 49  1  0  0  0  0
 53 47  1  0  0  0  0
 55 54  1  0  0  0  0
M  END
>  <MODEL>
1

>  <REMARK>
 VINA RESULT:      -7.9      0.000      0.000
  Name = 
  11 active torsions:
  status: ('A' for Active; 'I' for Inactive)
    1  A    between atoms: C_2  and  C_44
    2  A    between atoms: C_4  and  C_37
    3  A    between atoms: C_6  and  C_20
    4  A    between atoms: C_7  and  C_8
    5  A    between atoms: C_7  and  O_22
    6  A    between atoms: C_8  and  C_35
    7  A    between atoms: C_10  and  C_18
    8  A    between atoms: C_10  and  C_32
    9  A    between atoms: N_11  and  C_29
   10  A    between atoms: C_20  and  O_22
   11  A    between atoms: C_33  and  C_52
                            x       y       z     vdW  Elec       q    Type
                         _______ _______ _______ _____ _____    ______ ____

>  <TORSDO>
F 11

$$$$
=
 OpenBabel11052419433D

 55 60  0  0  1  0  0  0  0  0999 V2000
  193.4200  172.8930  143.4540 C   0  0  0  0  0  0  0  0  0  0  0  0
  189.9320  172.2680  144.7770 C   0  0  0  0  0  1  0  0  0  0  0  0
  189.2830  174.1860  140.2680 C   0  0  0  0  0  3  0  0  0  0  0  0
  188.3620  174.2530  139.2180 C   0  0  0  0  0  3  0  0  0  0  0  0
  190.2790  172.2550  139.2240 C   0  0  0  0  0  0  0  0  0  0  0  0
  189.3140  172.3240  138.2180 C   0  0  0  0  0  3  0  0  0  0  0  0
  190.5030  173.2900  142.6700 O   0  0  0  0  0  0  0  0  0  0  0  0
  188.3900  173.3200  138.2260 N   0  0  0  0  0  0  0  0  0  0  0  0
  190.2260  173.1630  140.2990 C   0  0  0  0  0  0  0  0  0  0  0  0
  193.4350  171.9840  142.2320 C   0  0  0  0  0  2  0  0  0  0  0  0
  192.5040  171.3580  139.9850 C   0  0  2  0  0  3  0  0  0  0  0  0
  191.3000  171.2550  139.1670 N   0  0  0  0  0  2  0  0  0  0  0  0
  192.3060  173.0180  144.2330 C   0  0  0  0  0  0  0  0  0  0  0  0
  190.9980  172.4790  143.7070 C   0  0  1  0  0  3  0  0  0  0  0  0
  191.2100  173.0910  141.4460 C   0  0  2  0  0  3  0  0  0  0  0  0
  192.1510  171.8400  141.3980 C   0  0  2  0  0  3  0  0  0  0  0  0
  195.6110  173.0560  144.6950 C   0  0  0  0  0  3  0  0  0  0  0  0
  196.2140  175.4590  143.4160 C   0  0  0  0  0  0  0  0  0  0  0  0
  195.0150  174.7960  143.1370 C   0  0  0  0  0  3  0  0  0  0  0  0
  196.8070  173.7190  144.9800 C   0  0  0  0  0  3  0  0  0  0  0  0
  194.7130  173.5770  143.7510 C   0  0  0  0  0  0  0  0  0  0  0  0
  196.5080  176.6490  142.7800 O   0  0  0  0  0  1  0  0  0  0  0  0
  197.1160  174.9190  144.3300 C   0  0  0  0  0  3  0  0  0  0  0  0
  194.0130  171.6150  137.9540 C   0  0  0  0  0  2  0  0  0  0  0  0
  194.7300  173.9270  137.1610 C   0  0  2  0  0  3  0  0  0  0  0  0
  193.3110  173.7140  139.2460 C   0  0  0  0  0  2  0  0  0  0  0  0
  193.4010  174.2820  137.8330 C   0  0  0  0  0  2  0  0  0  0  0  0
  195.1350  172.4590  137.3610 C   0  0  0  0  0  2  0  0  0  0  0  0
  193.5970  172.2020  139.3020 C   0  0  1  0  0  3  0  0  0  0  0  0
  195.8420  174.8310  137.6780 C   0  0  0  0  0  2  0  0  0  0  0  0
  196.8980  174.0340  138.4350 C   0  0  0  0  0  2  0  0  0  0  0  0
  197.0730  174.5480  139.8510 C   0  0  0  0  0  1  0  0  0  0  0  0
  192.2760  173.7970  145.5040 C   0  0  0  0  0  3  0  0  0  0  0  0
  192.1500  175.1210  145.5900 C   0  0  0  0  0  0  0  0  0  0  0  0
  192.0570  175.9020  144.4440 O   0  0  0  0  0  1  0  0  0  0  0  0
  192.1860  175.7610  146.9410 C   0  0  0  0  0  2  0  0  0  0  0  0
  191.0860  176.7920  147.1310 C   0  0  2  0  0  3  0  0  0  0  0  0
  191.1120  177.3150  148.4150 F   0  0  0  0  0  0  0  0  0  0  0  0
  189.8300  176.2300  146.8270 O   0  0  0  0  0  0  0  0  0  0  0  0
  189.1170  177.1900  146.0730 C   0  0  1  0  0  3  0  0  0  0  0  0
  190.0000  178.0140  145.3510 O   0  0  0  0  0  1  0  0  0  0  0  0
  185.0600  178.4040  144.8000 C   0  0  0  0  0  2  0  0  0  0  0  0
  187.1310  174.8840  142.7470 O   0  0  0  0  0  0  0  0  0  0  0  0
  188.0640  176.5110  145.1600 C   0  0  1  0  0  0  0  0  0  0  0  0
  188.6080  178.0410  143.3010 O   0  0  0  0  0  1  0  0  0  0  0  0
  188.3520  176.7050  143.6380 C   0  0  2  0  0  3  0  0  0  0  0  0
  186.4840  178.2140  145.2990 C   0  0  0  0  0  2  0  0  0  0  0  0
  186.4710  176.9090  141.7620 C   0  0  1  0  0  3  0  0  0  0  0  0
  184.8040  177.6270  143.5030 C   0  0  0  0  0  2  0  0  0  0  0  0
  187.2900  176.0990  142.7410 C   0  0  0  0  0  0  0  0  0  0  0  0
  188.1920  175.1540  145.3930 F   0  0  0  0  0  0  0  0  0  0  0  0
  185.7610  178.0930  142.4210 C   0  0  0  0  0  2  0  0  0  0  0  0
  186.7370  176.8540  145.5350 O   0  0  0  0  0  0  0  0  0  0  0  0
  187.3270  177.3930  140.6910 N   0  0  0  0  0  2  0  0  0  0  0  0
  186.4900  177.5380  139.5130 C   0  0  0  0  0  1  0  0  0  0  0  0
  1 21  1  0  0  0  0
  1 13  2  0  0  0  0
  3  9  1  0  0  0  0
  4  3  2  0  0  0  0
  5  9  2  0  0  0  0
  6  8  2  0  0  0  0
  6  5  1  0  0  0  0
  7 14  1  0  0  0  0
  8  4  1  0  0  0  0
 10  1  1  0  0  0  0
 11 12  1  6  0  0  0
 11 16  1  0  0  0  0
 12  5  1  0  0  0  0
 13 33  1  0  0  0  0
 14 13  1  0  0  0  0
 14  2  1  1  0  0  0
 15  9  1  6  0  0  0
 15  7  1  0  0  0  0
 16 15  1  0  0  0  0
 16 10  1  6  0  0  0
 17 20  1  0  0  0  0
 18 23  1  0  0  0  0
 19 18  2  0  0  0  0
 19 21  1  0  0  0  0
 21 17  2  0  0  0  0
 22 18  1  0  0  0  0
 23 20  2  0  0  0  0
 25 28  1  0  0  0  0
 25 30  1  1  0  0  0
 25 27  1  0  0  0  0
 26 29  1  0  0  0  0
 27 26  1  0  0  0  0
 28 24  1  0  0  0  0
 29 24  1  6  0  0  0
 29 11  1  0  0  0  0
 30 31  1  0  0  0  0
 31 32  1  0  0  0  0
 33 34  2  0  0  0  0
 34 36  1  0  0  0  0
 35 34  1  0  0  0  0
 36 37  1  0  0  0  0
 37 38  1  1  0  0  0
 39 37  1  0  0  0  0
 40 41  1  6  0  0  0
 40 39  1  0  0  0  0
 42 47  1  0  0  0  0
 44 51  1  1  0  0  0
 44 53  1  0  0  0  0
 44 40  1  0  0  0  0
 46 45  1  1  0  0  0
 46 44  1  0  0  0  0
 47 53  1  0  0  0  0
 48 54  1  6  0  0  0
 48 52  1  0  0  0  0
 48 50  1  0  0  0  0
 49 42  1  0  0  0  0
 50 43  2  0  0  0  0
 50 46  1  0  0  0  0
 52 49  1  0  0  0  0
 55 54  1  0  0  0  0
M  END
>  <MODEL>
2

>  <REMARK>
 VINA RESULT:      -7.8      1.143      1.426
  Name = 
  11 active torsions:
  status: ('A' for Active; 'I' for Inactive)
    1  A    between atoms: C_2  and  C_44
    2  A    between atoms: C_4  and  C_37
    3  A    between atoms: C_6  and  C_20
    4  A    between atoms: C_7  and  C_8
    5  A    between atoms: C_7  and  O_22
    6  A    between atoms: C_8  and  C_35
    7  A    between atoms: C_10  and  C_18
    8  A    between atoms: C_10  and  C_32
    9  A    between atoms: N_11  and  C_29
   10  A    between atoms: C_20  and  O_22
   11  A    between atoms: C_33  and  C_52
                            x       y       z     vdW  Elec       q    Type
                         _______ _______ _______ _____ _____    ______ ____

>  <TORSDO>
F 11

$$$$
=
 OpenBabel11052419433D

 55 60  0  0  1  0  0  0  0  0999 V2000
  192.8600  173.1160  143.3140 C   0  0  0  0  0  0  0  0  0  0  0  0
  189.3410  171.9610  144.0820 C   0  0  0  0  0  1  0  0  0  0  0  0
  189.0550  174.1280  139.6490 C   0  0  0  0  0  3  0  0  0  0  0  0
  188.2850  174.1610  138.4830 C   0  0  0  0  0  3  0  0  0  0  0  0
  190.4340  172.4230  138.6460 C   0  0  0  0  0  0  0  0  0  0  0  0
  189.6130  172.4490  137.5180 C   0  0  0  0  0  3  0  0  0  0  0  0
  190.0500  173.2070  142.1440 O   0  0  0  0  0  0  0  0  0  0  0  0
  188.5710  173.3190  137.4520 N   0  0  0  0  0  0  0  0  0  0  0  0
  190.1150  173.2310  139.7540 C   0  0  0  0  0  0  0  0  0  0  0  0
  193.1610  172.3140  142.0560 C   0  0  0  0  0  2  0  0  0  0  0  0
  192.6350  171.7530  139.6650 C   0  0  2  0  0  3  0  0  0  0  0  0
  191.5770  171.5650  138.6770 N   0  0  0  0  0  2  0  0  0  0  0  0
  191.6440  173.0400  143.9310 C   0  0  0  0  0  0  0  0  0  0  0  0
  190.5030  172.3850  143.1910 C   0  0  1  0  0  3  0  0  0  0  0  0
  190.9350  173.1930  141.0250 C   0  0  2  0  0  3  0  0  0  0  0  0
  192.0330  172.0760  141.0390 C   0  0  2  0  0  3  0  0  0  0  0  0
  194.5250  173.7080  145.1160 C   0  0  0  0  0  3  0  0  0  0  0  0
  195.5640  175.7670  143.5480 C   0  0  0  0  0  0  0  0  0  0  0  0
  194.5100  174.9830  143.0700 C   0  0  0  0  0  3  0  0  0  0  0  0
  195.5750  174.4930  145.5990 C   0  0  0  0  0  3  0  0  0  0  0  0
  193.9980  173.9300  143.8350 C   0  0  0  0  0  0  0  0  0  0  0  0
  196.0760  176.7840  142.7690 O   0  0  0  0  0  1  0  0  0  0  0  0
  196.1050  175.5190  144.8090 C   0  0  0  0  0  3  0  0  0  0  0  0
  193.4140  174.1720  139.7610 C   0  0  0  0  0  2  0  0  0  0  0  0
  195.8900  174.7420  139.5690 C   0  0  2  0  0  3  0  0  0  0  0  0
  195.1510  172.3290  139.3670 C   0  0  0  0  0  2  0  0  0  0  0  0
  195.9900  173.3300  140.1540 C   0  0  0  0  0  2  0  0  0  0  0  0
  194.4510  175.1470  139.2150 C   0  0  0  0  0  2  0  0  0  0  0  0
  193.6870  172.7770  139.1980 C   0  0  1  0  0  3  0  0  0  0  0  0
  196.7670  174.8640  138.3300 C   0  0  0  0  0  2  0  0  0  0  0  0
  195.9520  175.2930  137.1150 C   0  0  0  0  0  2  0  0  0  0  0  0
  195.7750  174.1510  136.1330 C   0  0  0  0  0  1  0  0  0  0  0  0
  191.3390  173.7090  145.2290 C   0  0  0  0  0  3  0  0  0  0  0  0
  191.0720  175.0060  145.3800 C   0  0  0  0  0  0  0  0  0  0  0  0
  191.0840  175.8650  144.2880 O   0  0  0  0  0  1  0  0  0  0  0  0
  190.8320  175.5350  146.7580 C   0  0  0  0  0  2  0  0  0  0  0  0
  189.3610  175.5340  147.1380 C   0  0  2  0  0  3  0  0  0  0  0  0
  188.6600  174.5860  146.4080 F   0  0  0  0  0  0  0  0  0  0  0  0
  188.8130  176.8210  146.9750 O   0  0  0  0  0  0  0  0  0  0  0  0
  187.5530  176.6590  146.3530 C   0  0  1  0  0  3  0  0  0  0  0  0
  186.5320  176.5470  147.3140 O   0  0  0  0  0  1  0  0  0  0  0  0
  188.6510  177.1730  142.1000 C   0  0  0  0  0  2  0  0  0  0  0  0
  185.6180  180.0000  144.0240 O   0  0  0  0  0  0  0  0  0  0  0  0
  187.2830  177.7990  145.3370 C   0  0  1  0  0  0  0  0  0  0  0  0
  185.5060  176.4790  144.2440 O   0  0  0  0  0  1  0  0  0  0  0  0
  185.8490  177.7520  144.7240 C   0  0  2  0  0  3  0  0  0  0  0  0
  188.3240  176.7670  143.5290 C   0  0  0  0  0  2  0  0  0  0  0  0
  185.2410  178.5170  142.2450 C   0  0  1  0  0  3  0  0  0  0  0  0
  187.6340  178.1790  141.5480 C   0  0  0  0  0  2  0  0  0  0  0  0
  185.6020  178.8240  143.6810 C   0  0  0  0  0  0  0  0  0  0  0  0
  187.3370  178.9690  146.0710 F   0  0  0  0  0  0  0  0  0  0  0  0
  186.2420  177.5760  141.5720 C   0  0  0  0  0  2  0  0  0  0  0  0
  188.3140  177.8950  144.3630 O   0  0  0  0  0  0  0  0  0  0  0  0
  183.9120  177.9310  142.1890 N   0  0  0  0  0  2  0  0  0  0  0  0
  183.3490  178.2820  140.8970 C   0  0  0  0  0  1  0  0  0  0  0  0
  1 21  1  0  0  0  0
  1 13  2  0  0  0  0
  3  9  1  0  0  0  0
  4  3  2  0  0  0  0
  5 12  1  0  0  0  0
  5  9  2  0  0  0  0
  6  5  1  0  0  0  0
  7 14  1  0  0  0  0
  8  6  2  0  0  0  0
  8  4  1  0  0  0  0
 10  1  1  0  0  0  0
 11 12  1  6  0  0  0
 11 16  1  0  0  0  0
 13 33  1  0  0  0  0
 14 13  1  0  0  0  0
 14  2  1  1  0  0  0
 15  9  1  6  0  0  0
 15 16  1  0  0  0  0
 15  7  1  0  0  0  0
 16 10  1  1  0  0  0
 17 20  1  0  0  0  0
 18 23  1  0  0  0  0
 19 18  2  0  0  0  0
 19 21  1  0  0  0  0
 21 17  2  0  0  0  0
 22 18  1  0  0  0  0
 23 20  2  0  0  0  0
 25 30  1  6  0  0  0
 25 27  1  0  0  0  0
 26 27  1  0  0  0  0
 28 25  1  0  0  0  0
 28 24  1  0  0  0  0
 29 26  1  1  0  0  0
 29 11  1  0  0  0  0
 29 24  1  0  0  0  0
 31 30  1  0  0  0  0
 32 31  1  0  0  0  0
 33 34  2  0  0  0  0
 34 36  1  0  0  0  0
 35 34  1  0  0  0  0
 36 37  1  0  0  0  0
 37 38  1  6  0  0  0
 39 37  1  0  0  0  0
 40 39  1  0  0  0  0
 40 41  1  1  0  0  0
 42 47  1  0  0  0  0
 44 51  1  1  0  0  0
 44 40  1  0  0  0  0
 46 45  1  6  0  0  0
 46 44  1  0  0  0  0
 47 53  1  0  0  0  0
 48 54  1  1  0  0  0
 48 50  1  0  0  0  0
 49 52  1  0  0  0  0
 49 42  1  0  0  0  0
 50 43  2  0  0  0  0
 50 46  1  0  0  0  0
 52 48  1  0  0  0  0
 53 44  1  0  0  0  0
 55 54  1  0  0  0  0
M  END
>  <MODEL>
3

>  <REMARK>
 VINA RESULT:      -7.8      1.476      2.499
  Name = 
  11 active torsions:
  status: ('A' for Active; 'I' for Inactive)
    1  A    between atoms: C_2  and  C_44
    2  A    between atoms: C_4  and  C_37
    3  A    between atoms: C_6  and  C_20
    4  A    between atoms: C_7  and  C_8
    5  A    between atoms: C_7  and  O_22
    6  A    between atoms: C_8  and  C_35
    7  A    between atoms: C_10  and  C_18
    8  A    between atoms: C_10  and  C_32
    9  A    between atoms: N_11  and  C_29
   10  A    between atoms: C_20  and  O_22
   11  A    between atoms: C_33  and  C_52
                            x       y       z     vdW  Elec       q    Type
                         _______ _______ _______ _____ _____    ______ ____

>  <TORSDO>
F 11

$$$$
=
 OpenBabel11052419433D

 55 60  0  0  1  0  0  0  0  0999 V2000
  194.0820  172.3520  143.9630 C   0  0  0  0  0  0  0  0  0  0  0  0
  190.3600  172.3070  144.6370 C   0  0  0  0  0  1  0  0  0  0  0  0
  190.7960  173.4470  139.8480 C   0  0  0  0  0  3  0  0  0  0  0  0
  190.0990  173.4130  138.6370 C   0  0  0  0  0  3  0  0  0  0  0  0
  191.7110  171.2750  139.3400 C   0  0  0  0  0  0  0  0  0  0  0  0
  190.9630  171.2560  138.1620 C   0  0  0  0  0  3  0  0  0  0  0  0
  191.4330  172.8800  142.5560 O   0  0  0  0  0  0  0  0  0  0  0  0
  190.1880  172.3210  137.8280 N   0  0  0  0  0  0  0  0  0  0  0  0
  191.5790  172.3600  140.2270 C   0  0  0  0  0  0  0  0  0  0  0  0
  194.2030  171.2430  142.9270 C   0  0  0  0  0  2  0  0  0  0  0  0
  193.6260  170.3190  140.6630 C   0  0  2  0  0  3  0  0  0  0  0  0
  192.5880  170.1880  139.6460 N   0  0  0  0  0  2  0  0  0  0  0  0
  192.8690  172.7190  144.4730 C   0  0  0  0  0  0  0  0  0  0  0  0
  191.6210  172.2220  143.7840 C   0  0  1  0  0  3  0  0  0  0  0  0
  192.3200  172.4000  141.5460 C   0  0  2  0  0  3  0  0  0  0  0  0
  193.0850  171.0760  141.8840 C   0  0  2  0  0  3  0  0  0  0  0  0
  195.9850  172.5610  145.6080 C   0  0  0  0  0  3  0  0  0  0  0  0
  197.1690  174.5540  144.0580 C   0  0  0  0  0  0  0  0  0  0  0  0
  195.9660  173.9690  143.6510 C   0  0  0  0  0  3  0  0  0  0  0  0
  197.1840  173.1470  146.0200 C   0  0  0  0  0  3  0  0  0  0  0  0
  195.3760  172.9500  144.4050 C   0  0  0  0  0  0  0  0  0  0  0  0
  197.7530  175.5400  143.2880 O   0  0  0  0  0  1  0  0  0  0  0  0
  197.7860  174.1390  145.2370 C   0  0  0  0  0  3  0  0  0  0  0  0
  196.1110  169.9710  140.2530 C   0  0  0  0  0  2  0  0  0  0  0  0
  197.2540  171.0510  138.2480 C   0  0  2  0  0  3  0  0  0  0  0  0
  194.8000  171.5070  138.6740 C   0  0  0  0  0  2  0  0  0  0  0  0
  195.8270  170.9320  137.7040 C   0  0  0  0  0  2  0  0  0  0  0  0
  197.3720  170.6470  139.7250 C   0  0  0  0  0  2  0  0  0  0  0  0
  194.9240  170.9200  140.0920 C   0  0  1  0  0  3  0  0  0  0  0  0
  197.7700  172.4730  138.0730 C   0  0  0  0  0  2  0  0  0  0  0  0
  197.3240  173.0660  136.7410 C   0  0  0  0  0  2  0  0  0  0  0  0
  196.7890  174.4750  136.9120 C   0  0  0  0  0  1  0  0  0  0  0  0
  192.7090  173.7100  145.5750 C   0  0  0  0  0  3  0  0  0  0  0  0
  192.7160  175.0340  145.4230 C   0  0  0  0  0  0  0  0  0  0  0  0
  192.9070  175.6040  144.1700 O   0  0  0  0  0  1  0  0  0  0  0  0
  192.5900  175.8980  146.6370 C   0  0  0  0  0  2  0  0  0  0  0  0
  191.1680  175.9580  147.1680 C   0  0  2  0  0  3  0  0  0  0  0  0
  191.0670  175.3090  148.3900 F   0  0  0  0  0  0  0  0  0  0  0  0
  190.2700  175.4240  146.2240 O   0  0  0  0  0  0  0  0  0  0  0  0
  189.3450  176.4470  145.9080 C   0  0  1  0  0  3  0  0  0  0  0  0
  189.5110  177.5520  146.7610 O   0  0  0  0  0  1  0  0  0  0  0  0
  188.1370  174.3520  142.2050 C   0  0  0  0  0  2  0  0  0  0  0  0
  189.3200  178.7640  142.0400 O   0  0  0  0  0  0  0  0  0  0  0  0
  189.4390  176.8380  144.4100 C   0  0  1  0  0  0  0  0  0  0  0  0
  187.0320  177.3810  144.3440 O   0  0  0  0  0  1  0  0  0  0  0  0
  188.3080  177.8130  143.9560 C   0  0  2  0  0  3  0  0  0  0  0  0
  188.4110  174.9180  143.5890 C   0  0  0  0  0  2  0  0  0  0  0  0
  187.2270  177.8390  141.5210 C   0  0  1  0  0  3  0  0  0  0  0  0
  187.9660  175.4620  141.1610 C   0  0  0  0  0  2  0  0  0  0  0  0
  188.3560  178.1470  142.4780 C   0  0  0  0  0  0  0  0  0  0  0  0
  190.6170  177.5510  144.2870 F   0  0  0  0  0  0  0  0  0  0  0  0
  186.8110  176.3670  141.5500 C   0  0  0  0  0  2  0  0  0  0  0  0
  189.5770  175.6990  143.5720 O   0  0  0  0  0  0  0  0  0  0  0  0
  186.0780  178.6730  141.8350 N   0  0  0  0  0  2  0  0  0  0  0  0
  184.8950  177.9290  141.4430 C   0  0  0  0  0  1  0  0  0  0  0  0
  1 21  1  0  0  0  0
  1 13  2  0  0  0  0
  3  9  1  0  0  0  0
  4  3  2  0  0  0  0
  5 12  1  0  0  0  0
  5  9  2  0  0  0  0
  6  5  1  0  0  0  0
  7 14  1  0  0  0  0
  8  6  2  0  0  0  0
  8  4  1  0  0  0  0
 10  1  1  0  0  0  0
 11 12  1  6  0  0  0
 11 16  1  0  0  0  0
 13 33  1  0  0  0  0
 14 13  1  0  0  0  0
 14  2  1  1  0  0  0
 15  9  1  6  0  0  0
 15 16  1  0  0  0  0
 15  7  1  0  0  0  0
 16 10  1  1  0  0  0
 17 20  1  0  0  0  0
 18 23  1  0  0  0  0
 19 18  2  0  0  0  0
 19 21  1  0  0  0  0
 21 17  2  0  0  0  0
 22 18  1  0  0  0  0
 23 20  2  0  0  0  0
 25 30  1  1  0  0  0
 25 28  1  0  0  0  0
 27 25  1  0  0  0  0
 27 26  1  0  0  0  0
 28 24  1  0  0  0  0
 29 26  1  6  0  0  0
 29 24  1  0  0  0  0
 29 11  1  0  0  0  0
 31 32  1  0  0  0  0
 31 30  1  0  0  0  0
 34 33  2  0  0  0  0
 34 36  1  0  0  0  0
 35 34  1  0  0  0  0
 36 37  1  0  0  0  0
 37 38  1  1  0  0  0
 39 37  1  0  0  0  0
 40 39  1  0  0  0  0
 40 41  1  1  0  0  0
 42 47  1  0  0  0  0
 43 50  2  0  0  0  0
 44 51  1  6  0  0  0
 44 40  1  0  0  0  0
 46 45  1  6  0  0  0
 46 44  1  0  0  0  0
 48 52  1  0  0  0  0
 48 54  1  1  0  0  0
 48 50  1  0  0  0  0
 49 52  1  0  0  0  0
 49 42  1  0  0  0  0
 50 46  1  0  0  0  0
 53 47  1  0  0  0  0
 53 44  1  0  0  0  0
 55 54  1  0  0  0  0
M  END
>  <MODEL>
4

>  <REMARK>
 VINA RESULT:      -7.3      1.799      2.371
  Name = 
  11 active torsions:
  status: ('A' for Active; 'I' for Inactive)
    1  A    between atoms: C_2  and  C_44
    2  A    between atoms: C_4  and  C_37
    3  A    between atoms: C_6  and  C_20
    4  A    between atoms: C_7  and  C_8
    5  A    between atoms: C_7  and  O_22
    6  A    between atoms: C_8  and  C_35
    7  A    between atoms: C_10  and  C_18
    8  A    between atoms: C_10  and  C_32
    9  A    between atoms: N_11  and  C_29
   10  A    between atoms: C_20  and  O_22
   11  A    between atoms: C_33  and  C_52
                            x       y       z     vdW  Elec       q    Type
                         _______ _______ _______ _____ _____    ______ ____

>  <TORSDO>
F 11

$$$$
=
 OpenBabel11052419433D

 55 60  0  0  1  0  0  0  0  0999 V2000
  192.3310  174.4160  141.8720 C   0  0  0  0  0  0  0  0  0  0  0  0
  195.3950  175.4320  143.8440 C   0  0  0  0  0  1  0  0  0  0  0  0
  196.3450  170.8540  142.2420 C   0  0  0  0  0  3  0  0  0  0  0  0
  197.3970  169.9790  141.9590 C   0  0  0  0  0  3  0  0  0  0  0  0
  196.3870  171.5880  139.9460 C   0  0  0  0  0  0  0  0  0  0  0  0
  197.4690  170.7380  139.7130 C   0  0  0  0  0  3  0  0  0  0  0  0
  195.0040  173.2920  142.8050 O   0  0  0  0  0  0  0  0  0  0  0  0
  197.9410  169.9460  140.7110 N   0  0  0  0  0  0  0  0  0  0  0  0
  195.8550  171.6940  141.2450 C   0  0  0  0  0  0  0  0  0  0  0  0
  192.9320  174.2050  140.4890 C   0  0  0  0  0  2  0  0  0  0  0  0
  194.5250  172.9800  138.9820 C   0  0  2  0  0  3  0  0  0  0  0  0
  195.8400  172.3580  138.8720 N   0  0  0  0  0  2  0  0  0  0  0  0
  193.1090  174.7610  142.9400 C   0  0  0  0  0  0  0  0  0  0  0  0
  194.6080  174.6420  142.8040 C   0  0  1  0  0  3  0  0  0  0  0  0
  194.7240  172.6480  141.5640 C   0  0  2  0  0  3  0  0  0  0  0  0
  194.3380  173.5930  140.3760 C   0  0  2  0  0  3  0  0  0  0  0  0
  190.2520  173.0670  142.3490 C   0  0  0  0  0  3  0  0  0  0  0  0
  188.6310  175.2060  141.5940 C   0  0  0  0  0  0  0  0  0  0  0  0
  190.0230  175.3280  141.5460 C   0  0  0  0  0  3  0  0  0  0  0  0
  188.8620  172.9400  142.3930 C   0  0  0  0  0  3  0  0  0  0  0  0
  190.8470  174.2720  141.9480 C   0  0  0  0  0  0  0  0  0  0  0  0
  187.8320  176.2670  141.2190 O   0  0  0  0  0  1  0  0  0  0  0  0
  188.0470  174.0160  142.0250 C   0  0  0  0  0  3  0  0  0  0  0  0
  192.6220  172.5210  137.3590 C   0  0  0  0  0  2  0  0  0  0  0  0
  191.9740  170.1270  136.7700 C   0  0  2  0  0  3  0  0  0  0  0  0
  193.8060  170.5370  138.4680 C   0  0  0  0  0  2  0  0  0  0  0  0
  193.4500  169.9210  137.1190 C   0  0  0  0  0  2  0  0  0  0  0  0
  191.4820  171.5560  137.0490 C   0  0  0  0  0  2  0  0  0  0  0  0
  193.3930  172.0160  138.5780 C   0  0  1  0  0  3  0  0  0  0  0  0
  191.1060  169.1390  137.5380 C   0  0  0  0  0  2  0  0  0  0  0  0
  190.3410  169.8280  138.6620 C   0  0  0  0  0  2  0  0  0  0  0  0
  190.7870  169.3310  140.0230 C   0  0  0  0  0  1  0  0  0  0  0  0
  192.5570  175.0980  144.2830 C   0  0  0  0  0  3  0  0  0  0  0  0
  192.3520  174.2250  145.2700 C   0  0  0  0  0  0  0  0  0  0  0  0
  192.6310  172.8750  145.0930 O   0  0  0  0  0  1  0  0  0  0  0  0
  191.7450  174.7120  146.5460 C   0  0  0  0  0  2  0  0  0  0  0  0
  191.4290  176.1980  146.5150 C   0  0  2  0  0  3  0  0  0  0  0  0
  192.3370  176.9150  147.2810 F   0  0  0  0  0  0  0  0  0  0  0  0
  190.1040  176.4260  146.9360 O   0  0  0  0  0  0  0  0  0  0  0  0
  189.4850  177.2200  145.9440 C   0  0  1  0  0  3  0  0  0  0  0  0
  190.3060  177.3310  144.8080 O   0  0  0  0  0  1  0  0  0  0  0  0
  185.4880  178.0600  147.6400 C   0  0  0  0  0  2  0  0  0  0  0  0
  185.8540  175.7250  143.7280 O   0  0  0  0  0  0  0  0  0  0  0  0
  188.0720  176.6810  145.6010 C   0  0  1  0  0  0  0  0  0  0  0  0
  187.5030  178.7690  144.4150 O   0  0  0  0  0  1  0  0  0  0  0  0
  187.4360  177.3700  144.3540 C   0  0  2  0  0  3  0  0  0  0  0  0
  186.9300  177.9710  147.1660 C   0  0  0  0  0  2  0  0  0  0  0  0
  184.8260  177.8110  144.0410 C   0  0  1  0  0  3  0  0  0  0  0  0
  184.5000  177.6790  146.5310 C   0  0  0  0  0  2  0  0  0  0  0  0
  186.0280  176.8930  144.0530 C   0  0  0  0  0  0  0  0  0  0  0  0
  188.2580  175.3590  145.2420 F   0  0  0  0  0  0  0  0  0  0  0  0
  184.6740  178.6040  145.3410 C   0  0  0  0  0  2  0  0  0  0  0  0
  187.2200  176.6660  146.7380 O   0  0  0  0  0  0  0  0  0  0  0  0
  184.9250  178.7330  142.9210 N   0  0  0  0  0  2  0  0  0  0  0  0
  183.9670  178.2910  141.9240 C   0  0  0  0  0  1  0  0  0  0  0  0
  1 21  1  0  0  0  0
  1 13  2  0  0  0  0
  4  3  1  0  0  0  0
  5  9  1  0  0  0  0
  6  5  2  0  0  0  0
  6  8  1  0  0  0  0
  8  4  2  0  0  0  0
  9  3  2  0  0  0  0
 10  1  1  0  0  0  0
 11 12  1  1  0  0  0
 11 16  1  0  0  0  0
 12  5  1  0  0  0  0
 13 33  1  0  0  0  0
 14  7  1  0  0  0  0
 14 13  1  0  0  0  0
 14  2  1  1  0  0  0
 15  9  1  6  0  0  0
 15  7  1  0  0  0  0
 16 10  1  1  0  0  0
 16 15  1  0  0  0  0
 17 20  1  0  0  0  0
 18 23  1  0  0  0  0
 19 18  2  0  0  0  0
 19 21  1  0  0  0  0
 21 17  2  0  0  0  0
 22 18  1  0  0  0  0
 23 20  2  0  0  0  0
 25 28  1  0  0  0  0
 25 27  1  0  0  0  0
 25 30  1  1  0  0  0
 26 29  1  0  0  0  0
 27 26  1  0  0  0  0
 28 24  1  0  0  0  0
 29 24  1  6  0  0  0
 29 11  1  0  0  0  0
 30 31  1  0  0  0  0
 31 32  1  0  0  0  0
 33 34  2  0  0  0  0
 34 36  1  0  0  0  0
 35 34  1  0  0  0  0
 37 36  1  0  0  0  0
 37 39  1  0  0  0  0
 37 38  1  1  0  0  0
 40 41  1  6  0  0  0
 40 39  1  0  0  0  0
 43 50  2  0  0  0  0
 44 51  1  6  0  0  0
 44 40  1  0  0  0  0
 44 53  1  0  0  0  0
 46 45  1  1  0  0  0
 46 44  1  0  0  0  0
 47 42  1  0  0  0  0
 48 54  1  6  0  0  0
 48 50  1  0  0  0  0
 48 52  1  0  0  0  0
 49 42  1  0  0  0  0
 50 46  1  0  0  0  0
 52 49  1  0  0  0  0
 53 47  1  0  0  0  0
 55 54  1  0  0  0  0
M  END
>  <MODEL>
5

>  <REMARK>
 VINA RESULT:      -7.2      2.056      4.716
  Name = 
  11 active torsions:
  status: ('A' for Active; 'I' for Inactive)
    1  A    between atoms: C_2  and  C_44
    2  A    between atoms: C_4  and  C_37
    3  A    between atoms: C_6  and  C_20
    4  A    between atoms: C_7  and  C_8
    5  A    between atoms: C_7  and  O_22
    6  A    between atoms: C_8  and  C_35
    7  A    between atoms: C_10  and  C_18
    8  A    between atoms: C_10  and  C_32
    9  A    between atoms: N_11  and  C_29
   10  A    between atoms: C_20  and  O_22
   11  A    between atoms: C_33  and  C_52
                            x       y       z     vdW  Elec       q    Type
                         _______ _______ _______ _____ _____    ______ ____

>  <TORSDO>
F 11

$$$$
=
 OpenBabel11052419433D

 55 60  0  0  1  0  0  0  0  0999 V2000
  193.9090  173.2940  141.9780 C   0  0  0  0  0  0  0  0  0  0  0  0
  190.3990  172.3020  142.9810 C   0  0  0  0  0  1  0  0  0  0  0  0
  190.0300  173.8020  138.2860 C   0  0  0  0  0  3  0  0  0  0  0  0
  189.2340  173.6730  137.1450 C   0  0  0  0  0  3  0  0  0  0  0  0
  191.3720  171.9540  137.5140 C   0  0  0  0  0  0  0  0  0  0  0  0
  190.5260  171.8250  136.4110 C   0  0  0  0  0  3  0  0  0  0  0  0
  191.0730  173.2440  140.8670 O   0  0  0  0  0  0  0  0  0  0  0  0
  189.4900  172.6870  136.2410 N   0  0  0  0  0  0  0  0  0  0  0  0
  191.0850  172.9180  138.4990 C   0  0  0  0  0  0  0  0  0  0  0  0
  194.1750  172.3140  140.8440 C   0  0  0  0  0  2  0  0  0  0  0  0
  193.5910  171.4160  138.5720 C   0  0  2  0  0  3  0  0  0  0  0  0
  192.5100  171.0980  137.6460 N   0  0  0  0  0  2  0  0  0  0  0  0
  192.7070  173.3220  142.6250 C   0  0  0  0  0  0  0  0  0  0  0  0
  191.5450  172.5790  142.0130 C   0  0  1  0  0  3  0  0  0  0  0  0
  191.9340  173.0580  139.7440 C   0  0  2  0  0  3  0  0  0  0  0  0
  193.0230  171.9420  139.8970 C   0  0  2  0  0  3  0  0  0  0  0  0
  195.3050  175.3770  141.6900 C   0  0  0  0  0  3  0  0  0  0  0  0
  197.0690  174.5280  143.6760 C   0  0  0  0  0  0  0  0  0  0  0  0
  195.9720  173.7360  143.3250 C   0  0  0  0  0  3  0  0  0  0  0  0
  196.4030  176.1680  142.0340 C   0  0  0  0  0  3  0  0  0  0  0  0
  195.0640  174.1630  142.3510 C   0  0  0  0  0  0  0  0  0  0  0  0
  197.9400  174.1050  144.6590 O   0  0  0  0  0  1  0  0  0  0  0  0
  197.2830  175.7490  143.0380 C   0  0  0  0  0  3  0  0  0  0  0  0
  195.5060  171.6210  136.9120 C   0  0  0  0  0  2  0  0  0  0  0  0
  195.9440  173.8250  135.7090 C   0  0  2  0  0  3  0  0  0  0  0  0
  194.0910  173.6940  137.4290 C   0  0  0  0  0  2  0  0  0  0  0  0
  194.4410  173.9620  135.9690 C   0  0  0  0  0  2  0  0  0  0  0  0
  196.5590  172.5810  136.3690 C   0  0  0  0  0  2  0  0  0  0  0  0
  194.6400  172.3500  137.9390 C   0  0  1  0  0  3  0  0  0  0  0  0
  196.6800  175.0670  136.1940 C   0  0  0  0  0  2  0  0  0  0  0  0
  197.8550  174.7010  137.0930 C   0  0  0  0  0  2  0  0  0  0  0  0
  197.7620  175.3940  138.4380 C   0  0  0  0  0  1  0  0  0  0  0  0
  192.4370  174.1760  143.8180 C   0  0  0  0  0  3  0  0  0  0  0  0
  192.7410  173.8560  145.0750 C   0  0  0  0  0  0  0  0  0  0  0  0
  193.3360  172.6360  145.3740 O   0  0  0  0  0  1  0  0  0  0  0  0
  192.3610  174.8010  146.1700 C   0  0  0  0  0  2  0  0  0  0  0  0
  192.0820  176.2050  145.6610 C   0  0  2  0  0  3  0  0  0  0  0  0
  193.0290  177.1020  146.1340 F   0  0  0  0  0  0  0  0  0  0  0  0
  190.7760  176.6010  146.0080 O   0  0  0  0  0  0  0  0  0  0  0  0
  190.2100  177.2120  144.8640 C   0  0  1  0  0  3  0  0  0  0  0  0
  191.1650  177.3310  143.8380 O   0  0  0  0  0  1  0  0  0  0  0  0
  185.9050  177.9250  145.5770 C   0  0  0  0  0  2  0  0  0  0  0  0
  187.2160  174.8870  142.4230 O   0  0  0  0  0  0  0  0  0  0  0  0
  188.9380  176.4560  144.4020 C   0  0  1  0  0  0  0  0  0  0  0  0
  188.4720  178.1750  142.6930 O   0  0  0  0  0  1  0  0  0  0  0  0
  188.5180  176.7950  142.9380 C   0  0  2  0  0  3  0  0  0  0  0  0
  187.4150  177.9040  145.4030 C   0  0  0  0  0  2  0  0  0  0  0  0
  186.0000  176.8630  142.0680 C   0  0  1  0  0  3  0  0  0  0  0  0
  185.1900  177.2130  144.4220 C   0  0  0  0  0  2  0  0  0  0  0  0
  187.2380  176.1100  142.5020 C   0  0  0  0  0  0  0  0  0  0  0  0
  189.2860  175.1180  144.3900 F   0  0  0  0  0  0  0  0  0  0  0  0
  185.5340  177.8850  143.1060 C   0  0  0  0  0  2  0  0  0  0  0  0
  187.8770  176.5810  145.3400 O   0  0  0  0  0  0  0  0  0  0  0  0
  186.2570  177.5370  140.8060 N   0  0  0  0  0  2  0  0  0  0  0  0
  185.1160  178.3960  140.5450 C   0  0  0  0  0  1  0  0  0  0  0  0
  1 21  1  0  0  0  0
  1 13  2  0  0  0  0
  3  9  1  0  0  0  0
  4  3  2  0  0  0  0
  5 12  1  0  0  0  0
  5  9  2  0  0  0  0
  6  5  1  0  0  0  0
  7 14  1  0  0  0  0
  8  6  2  0  0  0  0
  8  4  1  0  0  0  0
 10  1  1  0  0  0  0
 11 12  1  6  0  0  0
 11 16  1  0  0  0  0
 13 33  1  0  0  0  0
 14 13  1  0  0  0  0
 14  2  1  1  0  0  0
 15  9  1  6  0  0  0
 15 16  1  0  0  0  0
 15  7  1  0  0  0  0
 16 10  1  1  0  0  0
 17 20  2  0  0  0  0
 17 21  1  0  0  0  0
 18 22  1  0  0  0  0
 19 18  1  0  0  0  0
 20 23  1  0  0  0  0
 21 19  2  0  0  0  0
 23 18  2  0  0  0  0
 25 27  1  0  0  0  0
 25 30  1  1  0  0  0
 25 28  1  0  0  0  0
 26 29  1  0  0  0  0
 27 26  1  0  0  0  0
 28 24  1  0  0  0  0
 29 24  1  6  0  0  0
 29 11  1  0  0  0  0
 30 31  1  0  0  0  0
 31 32  1  0  0  0  0
 33 34  2  0  0  0  0
 34 35  1  0  0  0  0
 34 36  1  0  0  0  0
 37 39  1  0  0  0  0
 37 38  1  1  0  0  0
 37 36  1  0  0  0  0
 40 41  1  6  0  0  0
 40 39  1  0  0  0  0
 43 50  2  0  0  0  0
 44 51  1  6  0  0  0
 44 40  1  0  0  0  0
 44 53  1  0  0  0  0
 46 45  1  1  0  0  0
 46 44  1  0  0  0  0
 47 42  1  0  0  0  0
 48 54  1  6  0  0  0
 48 50  1  0  0  0  0
 48 52  1  0  0  0  0
 49 42  1  0  0  0  0
 50 46  1  0  0  0  0
 52 49  1  0  0  0  0
 53 47  1  0  0  0  0
 55 54  1  0  0  0  0
M  END
>  <MODEL>
6

>  <REMARK>
 VINA RESULT:      -7.2      1.832      2.369
  Name = 
  11 active torsions:
  status: ('A' for Active; 'I' for Inactive)
    1  A    between atoms: C_2  and  C_44
    2  A    between atoms: C_4  and  C_37
    3  A    between atoms: C_6  and  C_20
    4  A    between atoms: C_7  and  C_8
    5  A    between atoms: C_7  and  O_22
    6  A    between atoms: C_8  and  C_35
    7  A    between atoms: C_10  and  C_18
    8  A    between atoms: C_10  and  C_32
    9  A    between atoms: N_11  and  C_29
   10  A    between atoms: C_20  and  O_22
   11  A    between atoms: C_33  and  C_52
                            x       y       z     vdW  Elec       q    Type
                         _______ _______ _______ _____ _____    ______ ____

>  <TORSDO>
F 11

$$$$
=
 OpenBabel11052419433D

 55 60  0  0  1  0  0  0  0  0999 V2000
  192.2690  173.4530  143.0990 C   0  0  0  0  0  0  0  0  0  0  0  0
  194.6540  174.2830  145.9150 C   0  0  0  0  0  1  0  0  0  0  0  0
  195.9820  169.7780  144.3780 C   0  0  0  0  0  3  0  0  0  0  0  0
  197.0650  168.8930  144.3540 C   0  0  0  0  0  3  0  0  0  0  0  0
  196.6820  170.6350  142.2370 C   0  0  0  0  0  0  0  0  0  0  0  0
  197.7790  169.7720  142.2700 C   0  0  0  0  0  3  0  0  0  0  0  0
  194.5560  172.2140  144.6830 O   0  0  0  0  0  0  0  0  0  0  0  0
  197.9410  168.9150  143.3120 N   0  0  0  0  0  0  0  0  0  0  0  0
  195.8040  170.6830  143.3360 C   0  0  0  0  0  0  0  0  0  0  0  0
  193.2370  173.3030  141.9330 C   0  0  0  0  0  2  0  0  0  0  0  0
  195.1830  172.1230  140.8690 C   0  0  2  0  0  3  0  0  0  0  0  0
  196.4700  171.4760  141.1000 N   0  0  0  0  0  2  0  0  0  0  0  0
  192.7140  173.7190  144.3620 C   0  0  0  0  0  0  0  0  0  0  0  0
  194.1880  173.5700  144.6500 C   0  0  1  0  0  3  0  0  0  0  0  0
  194.6360  171.6450  143.3770 C   0  0  2  0  0  3  0  0  0  0  0  0
  194.6120  172.6640  142.1870 C   0  0  2  0  0  3  0  0  0  0  0  0
  189.9860  172.4130  143.3770 C   0  0  0  0  0  3  0  0  0  0  0  0
  188.9520  174.0200  141.3460 C   0  0  0  0  0  0  0  0  0  0  0  0
  190.2990  174.1230  141.7070 C   0  0  0  0  0  3  0  0  0  0  0  0
  188.6410  172.3050  143.0160 C   0  0  0  0  0  3  0  0  0  0  0  0
  190.8240  173.3420  142.7410 C   0  0  0  0  0  0  0  0  0  0  0  0
  188.4440  174.8180  140.3410 O   0  0  0  0  0  1  0  0  0  0  0  0
  188.1180  173.1180  142.0050 C   0  0  0  0  0  3  0  0  0  0  0  0
  194.5440  171.1330  138.6160 C   0  0  0  0  0  2  0  0  0  0  0  0
  193.4360  168.8420  138.4780 C   0  0  2  0  0  3  0  0  0  0  0  0
  193.9620  169.8330  140.7470 C   0  0  0  0  0  2  0  0  0  0  0  0
  194.2160  168.6780  139.7850 C   0  0  0  0  0  2  0  0  0  0  0  0
  193.5080  170.2670  137.9080 C   0  0  0  0  0  2  0  0  0  0  0  0
  194.2050  171.2110  140.1040 C   0  0  1  0  0  3  0  0  0  0  0  0
  191.9770  168.4540  138.6810 C   0  0  0  0  0  2  0  0  0  0  0  0
  191.0380  169.5380  138.1630 C   0  0  0  0  0  2  0  0  0  0  0  0
  190.3950  170.3050  139.3020 C   0  0  0  0  0  1  0  0  0  0  0  0
  191.8040  173.9950  145.5110 C   0  0  0  0  0  3  0  0  0  0  0  0
  191.3840  175.2040  145.8840 C   0  0  0  0  0  0  0  0  0  0  0  0
  191.8060  176.3430  145.2080 O   0  0  0  0  0  1  0  0  0  0  0  0
  190.5090  175.3200  147.0900 C   0  0  0  0  0  2  0  0  0  0  0  0
  189.0290  175.2850  146.7470 C   0  0  2  0  0  3  0  0  0  0  0  0
  188.8170  174.6590  145.5270 F   0  0  0  0  0  0  0  0  0  0  0  0
  188.4920  176.5870  146.7600 O   0  0  0  0  0  0  0  0  0  0  0  0
  187.2450  176.5280  146.0960 C   0  0  1  0  0  3  0  0  0  0  0  0
  186.1880  176.4770  147.0220 O   0  0  0  0  0  1  0  0  0  0  0  0
  189.4660  177.6010  142.4250 C   0  0  0  0  0  2  0  0  0  0  0  0
  185.5350  179.7160  143.4060 O   0  0  0  0  0  0  0  0  0  0  0  0
  187.0940  177.6990  145.0900 C   0  0  1  0  0  0  0  0  0  0  0  0
  186.0000  176.2180  143.4460 O   0  0  0  0  0  1  0  0  0  0  0  0
  185.9460  177.4790  144.0570 C   0  0  2  0  0  3  0  0  0  0  0  0
  188.8020  177.0180  143.6620 C   0  0  0  0  0  2  0  0  0  0  0  0
  185.9890  178.3630  141.5430 C   0  0  1  0  0  3  0  0  0  0  0  0
  188.5000  178.4780  141.6210 C   0  0  0  0  0  2  0  0  0  0  0  0
  185.8360  178.5900  143.0310 C   0  0  0  0  0  0  0  0  0  0  0  0
  186.7100  178.7890  145.8480 F   0  0  0  0  0  0  0  0  0  0  0  0
  187.2990  177.6600  141.1830 C   0  0  0  0  0  2  0  0  0  0  0  0
  188.3360  178.0480  144.4930 O   0  0  0  0  0  0  0  0  0  0  0  0
  184.8680  177.5790  141.0500 N   0  0  0  0  0  2  0  0  0  0  0  0
  183.8670  178.5210  140.5810 C   0  0  0  0  0  1  0  0  0  0  0  0
  1 13  2  0  0  0  0
  4  3  1  0  0  0  0
  5  6  2  0  0  0  0
  5  9  1  0  0  0  0
  6  8  1  0  0  0  0
  8  4  2  0  0  0  0
  9  3  2  0  0  0  0
 10  1  1  0  0  0  0
 11 12  1  1  0  0  0
 11 16  1  0  0  0  0
 12  5  1  0  0  0  0
 13 14  1  0  0  0  0
 13 33  1  0  0  0  0
 14  7  1  0  0  0  0
 14  2  1  1  0  0  0
 15  9  1  1  0  0  0
 15  7  1  0  0  0  0
 16 10  1  6  0  0  0
 16 15  1  0  0  0  0
 18 19  2  0  0  0  0
 18 23  1  0  0  0  0
 19 21  1  0  0  0  0
 20 17  1  0  0  0  0
 21  1  1  0  0  0  0
 21 17  2  0  0  0  0
 22 18  1  0  0  0  0
 23 20  2  0  0  0  0
 25 30  1  1  0  0  0
 25 27  1  0  0  0  0
 27 26  1  0  0  0  0
 28 25  1  0  0  0  0
 28 24  1  0  0  0  0
 29 24  1  6  0  0  0
 29 26  1  0  0  0  0
 29 11  1  0  0  0  0
 31 30  1  0  0  0  0
 31 32  1  0  0  0  0
 33 34  2  0  0  0  0
 34 36  1  0  0  0  0
 35 34  1  0  0  0  0
 37 38  1  6  0  0  0
 37 39  1  0  0  0  0
 37 36  1  0  0  0  0
 40 39  1  0  0  0  0
 40 41  1  1  0  0  0
 42 47  1  0  0  0  0
 44 51  1  1  0  0  0
 44 40  1  0  0  0  0
 46 45  1  6  0  0  0
 46 44  1  0  0  0  0
 47 53  1  0  0  0  0
 48 54  1  1  0  0  0
 48 50  1  0  0  0  0
 49 42  1  0  0  0  0
 50 43  2  0  0  0  0
 50 46  1  0  0  0  0
 52 48  1  0  0  0  0
 52 49  1  0  0  0  0
 53 44  1  0  0  0  0
 55 54  1  0  0  0  0
M  END
>  <MODEL>
7

>  <REMARK>
 VINA RESULT:      -7.2      2.469      5.168
  Name = 
  11 active torsions:
  status: ('A' for Active; 'I' for Inactive)
    1  A    between atoms: C_2  and  C_44
    2  A    between atoms: C_4  and  C_37
    3  A    between atoms: C_6  and  C_20
    4  A    between atoms: C_7  and  C_8
    5  A    between atoms: C_7  and  O_22
    6  A    between atoms: C_8  and  C_35
    7  A    between atoms: C_10  and  C_18
    8  A    between atoms: C_10  and  C_32
    9  A    between atoms: N_11  and  C_29
   10  A    between atoms: C_20  and  O_22
   11  A    between atoms: C_33  and  C_52
                            x       y       z     vdW  Elec       q    Type
                         _______ _______ _______ _____ _____    ______ ____

>  <TORSDO>
F 11

$$$$
=
 OpenBabel11052419433D

 55 60  0  0  1  0  0  0  0  0999 V2000
  192.4600  173.4280  141.6570 C   0  0  0  0  0  0  0  0  0  0  0  0
  188.8680  172.2450  141.5520 C   0  0  0  0  0  1  0  0  0  0  0  0
  189.6740  174.3310  137.1450 C   0  0  0  0  0  3  0  0  0  0  0  0
  189.2160  174.3340  135.8240 C   0  0  0  0  0  3  0  0  0  0  0  0
  191.2690  172.6250  136.5480 C   0  0  0  0  0  0  0  0  0  0  0  0
  190.7530  172.6220  135.2510 C   0  0  0  0  0  3  0  0  0  0  0  0
  190.0260  173.4650  139.8260 O   0  0  0  0  0  0  0  0  0  0  0  0
  189.7540  173.4780  134.9120 N   0  0  0  0  0  0  0  0  0  0  0  0
  190.6800  173.4480  137.5260 C   0  0  0  0  0  0  0  0  0  0  0  0
  193.0690  172.6070  140.5280 C   0  0  0  0  0  2  0  0  0  0  0  0
  193.1550  171.9980  138.0920 C   0  0  2  0  0  3  0  0  0  0  0  0
  192.3760  171.7810  136.8780 N   0  0  0  0  0  2  0  0  0  0  0  0
  191.1300  173.3490  141.9550 C   0  0  0  0  0  0  0  0  0  0  0  0
  190.2120  172.6670  140.9680 C   0  0  1  0  0  3  0  0  0  0  0  0
  191.1610  173.4420  138.9610 C   0  0  2  0  0  3  0  0  0  0  0  0
  192.2290  172.3380  139.2680 C   0  0  2  0  0  3  0  0  0  0  0  0
  194.0860  175.3500  141.8310 C   0  0  0  0  0  3  0  0  0  0  0  0
  194.6620  174.6870  144.4770 C   0  0  0  0  0  0  0  0  0  0  0  0
  193.7460  173.9260  143.7450 C   0  0  0  0  0  3  0  0  0  0  0  0
  195.0060  176.1090  142.5570 C   0  0  0  0  0  3  0  0  0  0  0  0
  193.4270  174.2640  142.4260 C   0  0  0  0  0  0  0  0  0  0  0  0
  194.9450  174.3560  145.7870 O   0  0  0  0  0  1  0  0  0  0  0  0
  195.2880  175.7850  143.8880 C   0  0  0  0  0  3  0  0  0  0  0  0
  195.6330  172.4980  138.3630 C   0  0  0  0  0  2  0  0  0  0  0  0
  196.8280  174.0390  136.7220 C   0  0  2  0  0  3  0  0  0  0  0  0
  194.3390  173.6490  136.4730 C   0  0  0  0  0  2  0  0  0  0  0  0
  195.7100  173.5110  135.8190 C   0  0  0  0  0  2  0  0  0  0  0  0
  196.6910  173.5820  138.1820 C   0  0  0  0  0  2  0  0  0  0  0  0
  194.2830  173.0260  137.8810 C   0  0  1  0  0  3  0  0  0  0  0  0
  196.8730  175.5610  136.6730 C   0  0  0  0  0  2  0  0  0  0  0  0
  197.1510  176.0630  135.2610 C   0  0  0  0  0  2  0  0  0  0  0  0
  196.3630  177.3210  134.9540 C   0  0  0  0  0  1  0  0  0  0  0  0
  190.5090  174.0360  143.1230 C   0  0  0  0  0  3  0  0  0  0  0  0
  190.2890  173.4780  144.3140 C   0  0  0  0  0  0  0  0  0  0  0  0
  190.6190  172.1490  144.5470 O   0  0  0  0  0  1  0  0  0  0  0  0
  189.6120  174.2870  145.3730 C   0  0  0  0  0  2  0  0  0  0  0  0
  190.5530  175.2680  146.0530 C   0  0  2  0  0  3  0  0  0  0  0  0
  191.3260  174.6310  147.0120 F   0  0  0  0  0  0  0  0  0  0  0  0
  189.8260  176.3410  146.6030 O   0  0  0  0  0  0  0  0  0  0  0  0
  188.4850  176.1950  146.1790 C   0  0  1  0  0  3  0  0  0  0  0  0
  187.6690  175.7720  147.2430 O   0  0  0  0  0  1  0  0  0  0  0  0
  188.8380  177.7900  142.0700 C   0  0  0  0  0  2  0  0  0  0  0  0
  185.9400  179.7330  145.0230 O   0  0  0  0  0  0  0  0  0  0  0  0
  187.9650  177.4980  145.5180 C   0  0  1  0  0  0  0  0  0  0  0  0
  186.1460  176.2660  144.3930 O   0  0  0  0  0  1  0  0  0  0  0  0
  186.4590  177.4260  145.1160 C   0  0  2  0  0  3  0  0  0  0  0  0
  188.7790  177.0340  143.3880 C   0  0  0  0  0  2  0  0  0  0  0  0
  185.4000  178.6620  143.0060 C   0  0  1  0  0  3  0  0  0  0  0  0
  187.6680  178.7710  141.9250 C   0  0  0  0  0  2  0  0  0  0  0  0
  185.9620  178.6720  144.4100 C   0  0  0  0  0  0  0  0  0  0  0  0
  188.0430  178.4680  146.5000 F   0  0  0  0  0  0  0  0  0  0  0  0
  186.3510  178.0210  141.9930 C   0  0  0  0  0  2  0  0  0  0  0  0
  188.8140  177.9330  144.4640 O   0  0  0  0  0  0  0  0  0  0  0  0
  184.1300  177.9550  142.9930 N   0  0  0  0  0  2  0  0  0  0  0  0
  183.4840  178.2670  141.7310 C   0  0  0  0  0  1  0  0  0  0  0  0
  1 13  2  0  0  0  0
  1 21  1  0  0  0  0
  3  9  1  0  0  0  0
  4  3  2  0  0  0  0
  5 12  1  0  0  0  0
  5  9  2  0  0  0  0
  6  5  1  0  0  0  0
  7 14  1  0  0  0  0
  8  6  2  0  0  0  0
  8  4  1  0  0  0  0
 10  1  1  0  0  0  0
 11 12  1  6  0  0  0
 11 16  1  0  0  0  0
 13 33  1  0  0  0  0
 14  2  1  1  0  0  0
 14 13  1  0  0  0  0
 15  9  1  6  0  0  0
 15 16  1  0  0  0  0
 15  7  1  0  0  0  0
 16 10  1  1  0  0  0
 17 21  2  0  0  0  0
 17 20  1  0  0  0  0
 18 22  1  0  0  0  0
 19 18  2  0  0  0  0
 20 23  2  0  0  0  0
 21 19  1  0  0  0  0
 23 18  1  0  0  0  0
 25 30  1  1  0  0  0
 25 28  1  0  0  0  0
 27 26  1  0  0  0  0
 27 25  1  0  0  0  0
 28 24  1  0  0  0  0
 29 26  1  6  0  0  0
 29 11  1  0  0  0  0
 29 24  1  0  0  0  0
 31 30  1  0  0  0  0
 32 31  1  0  0  0  0
 33 34  2  0  0  0  0
 34 35  1  0  0  0  0
 34 36  1  0  0  0  0
 36 37  1  0  0  0  0
 37 39  1  0  0  0  0
 37 38  1  1  0  0  0
 40 39  1  0  0  0  0
 40 41  1  1  0  0  0
 42 47  1  0  0  0  0
 44 40  1  0  0  0  0
 44 51  1  1  0  0  0
 46 45  1  6  0  0  0
 46 44  1  0  0  0  0
 47 53  1  0  0  0  0
 48 54  1  1  0  0  0
 48 50  1  0  0  0  0
 49 52  1  0  0  0  0
 49 42  1  0  0  0  0
 50 43  2  0  0  0  0
 50 46  1  0  0  0  0
 52 48  1  0  0  0  0
 53 44  1  0  0  0  0
 55 54  1  0  0  0  0
M  END
>  <MODEL>
8

>  <REMARK>
 VINA RESULT:      -6.7      2.179      3.235
  Name = 
  11 active torsions:
  status: ('A' for Active; 'I' for Inactive)
    1  A    between atoms: C_2  and  C_44
    2  A    between atoms: C_4  and  C_37
    3  A    between atoms: C_6  and  C_20
    4  A    between atoms: C_7  and  C_8
    5  A    between atoms: C_7  and  O_22
    6  A    between atoms: C_8  and  C_35
    7  A    between atoms: C_10  and  C_18
    8  A    between atoms: C_10  and  C_32
    9  A    between atoms: N_11  and  C_29
   10  A    between atoms: C_20  and  O_22
   11  A    between atoms: C_33  and  C_52
                            x       y       z     vdW  Elec       q    Type
                         _______ _______ _______ _____ _____    ______ ____

>  <TORSDO>
F 11

$$$$
=
 OpenBabel11052419433D

 55 60  0  0  1  0  0  0  0  0999 V2000
  194.3870  172.9470  142.2580 C   0  0  0  0  0  0  0  0  0  0  0  0
  191.0520  171.9900  143.7650 C   0  0  0  0  0  1  0  0  0  0  0  0
  190.0810  173.0440  139.0350 C   0  0  0  0  0  3  0  0  0  0  0  0
  189.1570  172.7960  138.0150 C   0  0  0  0  0  3  0  0  0  0  0  0
  191.3730  171.1570  138.2730 C   0  0  0  0  0  0  0  0  0  0  0  0
  190.4050  170.9110  137.2980 C   0  0  0  0  0  3  0  0  0  0  0  0
  191.4410  172.7450  141.5090 O   0  0  0  0  0  0  0  0  0  0  0  0
  189.3310  171.7360  137.1790 N   0  0  0  0  0  0  0  0  0  0  0  0
  191.1780  172.2020  139.1960 C   0  0  0  0  0  0  0  0  0  0  0  0
  194.5430  171.8710  141.1920 C   0  0  0  0  0  2  0  0  0  0  0  0
  193.7170  170.7570  139.0970 C   0  0  2  0  0  3  0  0  0  0  0  0
  192.5420  170.3360  138.3420 N   0  0  0  0  0  2  0  0  0  0  0  0
  193.2700  173.0140  143.0410 C   0  0  0  0  0  0  0  0  0  0  0  0
  192.0650  172.1960  142.6440 C   0  0  1  0  0  3  0  0  0  0  0  0
  192.1650  172.4710  140.3110 C   0  0  2  0  0  3  0  0  0  0  0  0
  193.2960  171.3930  140.4290 C   0  0  2  0  0  3  0  0  0  0  0  0
  196.6370  173.5380  143.2350 C   0  0  0  0  0  3  0  0  0  0  0  0
  196.6220  175.9930  141.9120 C   0  0  0  0  0  0  0  0  0  0  0  0
  195.5460  175.1110  141.7710 C   0  0  0  0  0  3  0  0  0  0  0  0
  197.7110  174.4180  143.3830 C   0  0  0  0  0  3  0  0  0  0  0  0
  195.5530  173.8660  142.4070 C   0  0  0  0  0  0  0  0  0  0  0  0
  196.6100  177.2070  141.2550 O   0  0  0  0  0  1  0  0  0  0  0  0
  197.7100  175.6460  142.7110 C   0  0  0  0  0  3  0  0  0  0  0  0
  195.8450  170.8600  137.7090 C   0  0  0  0  0  2  0  0  0  0  0  0
  196.0510  172.5130  135.7800 C   0  0  2  0  0  3  0  0  0  0  0  0
  193.9540  172.5140  137.1990 C   0  0  0  0  0  2  0  0  0  0  0  0
  194.5320  172.3210  135.8010 C   0  0  0  0  0  2  0  0  0  0  0  0
  196.7630  171.8070  136.9440 C   0  0  0  0  0  2  0  0  0  0  0  0
  194.6560  171.6460  138.2600 C   0  0  1  0  0  3  0  0  0  0  0  0
  196.3980  173.9960  135.8030 C   0  0  0  0  0  2  0  0  0  0  0  0
  197.2410  174.3490  137.0230 C   0  0  0  0  0  2  0  0  0  0  0  0
  196.4300  175.1030  138.0590 C   0  0  0  0  0  1  0  0  0  0  0  0
  193.1210  173.9690  144.1760 C   0  0  0  0  0  3  0  0  0  0  0  0
  193.4690  173.7200  145.4390 C   0  0  0  0  0  0  0  0  0  0  0  0
  193.9970  172.4870  145.8010 O   0  0  0  0  0  1  0  0  0  0  0  0
  193.2110  174.7670  146.4750 C   0  0  0  0  0  2  0  0  0  0  0  0
  191.7460  175.1630  146.5560 C   0  0  2  0  0  3  0  0  0  0  0  0
  190.9270  174.1180  146.1570 F   0  0  0  0  0  0  0  0  0  0  0  0
  191.5100  176.3240  145.7950 O   0  0  0  0  0  0  0  0  0  0  0  0
  190.1360  176.6330  145.9260 C   0  0  1  0  0  3  0  0  0  0  0  0
  189.9300  177.5600  146.9640 O   0  0  0  0  0  1  0  0  0  0  0  0
  188.6200  174.4490  142.3930 C   0  0  0  0  0  2  0  0  0  0  0  0
  187.8710  178.9410  142.7830 O   0  0  0  0  0  0  0  0  0  0  0  0
  189.5430  177.1160  144.5770 C   0  0  1  0  0  0  0  0  0  0  0  0
  187.2550  176.5710  145.3250 O   0  0  0  0  0  1  0  0  0  0  0  0
  188.0420  177.5330  144.6780 C   0  0  2  0  0  3  0  0  0  0  0  0
  189.1190  174.9930  143.7220 C   0  0  0  0  0  2  0  0  0  0  0  0
  186.2590  177.2360  142.7200 C   0  0  1  0  0  3  0  0  0  0  0  0
  187.6820  175.4370  141.6900 C   0  0  0  0  0  2  0  0  0  0  0  0
  187.4390  177.9440  143.3490 C   0  0  0  0  0  0  0  0  0  0  0  0
  190.2310  178.2730  144.2630 F   0  0  0  0  0  0  0  0  0  0  0  0
  186.4820  175.7300  142.5720 C   0  0  0  0  0  2  0  0  0  0  0  0
  189.8070  176.2000  143.5240 O   0  0  0  0  0  0  0  0  0  0  0  0
  185.0660  177.4730  143.5170 N   0  0  0  0  0  2  0  0  0  0  0  0
  184.1360  178.2070  142.6770 C   0  0  0  0  0  1  0  0  0  0  0  0
  1 21  1  0  0  0  0
  1 13  2  0  0  0  0
  3  9  1  0  0  0  0
  4  3  2  0  0  0  0
  5 12  1  0  0  0  0
  5  9  2  0  0  0  0
  6  5  1  0  0  0  0
  7 14  1  0  0  0  0
  8  6  2  0  0  0  0
  8  4  1  0  0  0  0
 10  1  1  0  0  0  0
 11 12  1  6  0  0  0
 11 16  1  0  0  0  0
 13 33  1  0  0  0  0
 14 13  1  0  0  0  0
 14  2  1  1  0  0  0
 15  9  1  6  0  0  0
 15 16  1  0  0  0  0
 15  7  1  0  0  0  0
 16 10  1  6  0  0  0
 17 20  1  0  0  0  0
 18 23  1  0  0  0  0
 19 18  2  0  0  0  0
 19 21  1  0  0  0  0
 21 17  2  0  0  0  0
 22 18  1  0  0  0  0
 23 20  2  0  0  0  0
 24 29  1  0  0  0  0
 25 27  1  0  0  0  0
 25 30  1  1  0  0  0
 25 28  1  0  0  0  0
 27 26  1  0  0  0  0
 28 24  1  0  0  0  0
 29 26  1  6  0  0  0
 29 11  1  0  0  0  0
 30 31  1  0  0  0  0
 31 32  1  0  0  0  0
 33 34  2  0  0  0  0
 34 35  1  0  0  0  0
 34 36  1  0  0  0  0
 36 37  1  0  0  0  0
 37 38  1  6  0  0  0
 39 40  1  0  0  0  0
 39 37  1  0  0  0  0
 40 41  1  1  0  0  0
 42 47  1  0  0  0  0
 43 50  2  0  0  0  0
 44 51  1  6  0  0  0
 44 46  1  0  0  0  0
 44 40  1  0  0  0  0
 46 45  1  6  0  0  0
 48 50  1  0  0  0  0
 48 54  1  1  0  0  0
 49 42  1  0  0  0  0
 49 52  1  0  0  0  0
 50 46  1  0  0  0  0
 52 48  1  0  0  0  0
 53 47  1  0  0  0  0
 53 44  1  0  0  0  0
 55 54  1  0  0  0  0
M  END
>  <MODEL>
9

>  <REMARK>
 VINA RESULT:      -6.7      1.820      2.694
  Name = 
  11 active torsions:
  status: ('A' for Active; 'I' for Inactive)
    1  A    between atoms: C_2  and  C_44
    2  A    between atoms: C_4  and  C_37
    3  A    between atoms: C_6  and  C_20
    4  A    between atoms: C_7  and  C_8
    5  A    between atoms: C_7  and  O_22
    6  A    between atoms: C_8  and  C_35
    7  A    between atoms: C_10  and  C_18
    8  A    between atoms: C_10  and  C_32
    9  A    between atoms: N_11  and  C_29
   10  A    between atoms: C_20  and  O_22
   11  A    between atoms: C_33  and  C_52
                            x       y       z     vdW  Elec       q    Type
                         _______ _______ _______ _____ _____    ______ ____

>  <TORSDO>
F 11

$$$$
