=
 OpenBabel11052419493D

 55 62  0  0  1  0  0  0  0  0999 V2000
  197.3190  174.5510  144.1670 C   0  0  0  0  0  2  0  0  0  0  0  0
  195.3260  177.0720  144.6050 O   0  0  0  0  0  1  0  0  0  0  0  0
  195.0880  172.9680  138.5840 C   0  0  2  0  0  0  0  0  0  0  0  0
  195.3080  171.5780  141.5330 C   0  0  1  0  0  3  0  0  0  0  0  0
  194.4590  171.5370  140.2690 C   0  0  0  0  0  2  0  0  0  0  0  0
  194.1260  173.2420  143.8600 O   0  0  0  0  0  0  0  0  0  0  0  0
  196.4910  174.4590  137.5720 C   0  0  0  0  0  2  0  0  0  0  0  0
  196.0170  173.1310  137.5320 O   0  0  0  0  0  0  0  0  0  0  0  0
  193.5670  172.4490  142.9730 O   0  0  0  0  0  0  0  0  0  0  0  0
  193.6070  175.4110  144.7760 C   0  0  1  0  0  3  0  0  0  0  0  0
  195.4120  174.0580  139.6260 C   0  0  2  0  0  3  0  0  0  0  0  0
  196.4930  172.5770  141.6120 C   0  0  1  0  0  3  0  0  0  0  0  0
  194.4990  171.4150  142.8250 C   0  0  1  0  0  3  0  0  0  0  0  0
  193.1000  174.0070  144.4230 C   0  0  1  0  0  3  0  0  0  0  0  0
  197.2240  174.7760  142.6530 C   0  0  0  0  0  2  0  0  0  0  0  0
  196.0550  174.8270  144.9940 C   0  0  0  0  0  2  0  0  0  0  0  0
  195.0330  175.7400  144.3170 C   0  0  2  0  0  3  0  0  0  0  0  0
  195.8920  175.1770  138.7600 C   0  0  0  0  0  2  0  0  0  0  0  0
  196.5800  173.7000  140.5590 C   0  0  2  0  0  3  0  0  0  0  0  0
  192.7420  175.1950  143.5380 C   0  0  1  0  0  3  0  0  0  0  0  0
  195.2650  171.6690  139.1260 O   0  0  0  0  0  0  0  0  0  0  0  0
  196.1050  174.0030  141.9650 C   0  0  1  0  0  3  0  0  0  0  0  0
  193.0640  171.8870  137.6440 O   0  0  0  0  0  0  0  0  0  0  0  0
  193.6120  173.8530  136.3110 S   0  0  0  0  0  0  0  0  0  0  0  0
  192.9170  172.1840  136.2820 C   0  0  0  0  0  2  0  0  0  0  0  0
  193.6370  173.1280  137.9790 C   0  0  2  0  0  0  0  0  0  0  0  0
  192.6840  173.9300  138.8810 C   0  0  0  0  0  2  0  0  0  0  0  0
  191.3550  173.2220  139.1450 C   0  0  1  0  0  3  0  0  0  0  0  0
  190.6930  171.7980  141.1330 C   0  0  0  0  0  1  0  0  0  0  0  0
  191.0050  173.2010  140.6320 C   0  0  0  0  0  2  0  0  0  0  0  0
  190.3350  173.8380  138.4160 O   0  0  0  0  0  0  0  0  0  0  0  0
  189.6170  172.7830  137.8470 C   0  0  0  0  0  1  0  0  0  0  0  0
  193.8000  170.0600  142.8580 C   0  0  0  0  0  2  0  0  0  0  0  0
  192.9360  169.9090  144.0990 C   0  0  0  0  0  2  0  0  0  0  0  0
  193.6870  169.3690  145.1420 O   0  0  0  0  0  1  0  0  0  0  0  0
  191.2800  175.6450  143.7480 C   0  0  1  0  0  3  0  0  0  0  0  0
  191.1480  176.8070  144.7370 C   0  0  0  0  0  2  0  0  0  0  0  0
  190.2300  176.4800  145.8670 C   0  0  0  0  0  0  0  0  0  0  0  0
  189.2890  174.7420  147.4010 C   0  0  0  0  0  3  0  0  0  0  0  0
  187.9400  177.3080  146.3220 C   0  0  0  0  0  0  0  0  0  0  0  0
  189.4010  177.5800  146.4430 C   0  0  0  0  0  2  0  0  0  0  0  0
  188.0550  175.1930  147.6530 C   0  0  0  0  0  3  0  0  0  0  0  0
  190.2050  175.2360  146.3540 C   0  0  0  0  0  3  0  0  0  0  0  0
  187.0850  178.3090  145.6320 C   0  0  0  0  0  1  0  0  0  0  0  0
  187.3540  176.2800  146.9380 C   0  0  0  0  0  3  0  0  0  0  0  0
  190.6210  175.9660  142.5230 O   0  0  0  0  0  0  0  0  0  0  0  0
  188.9750  177.7310  142.1210 C   0  0  0  0  0  3  0  0  0  0  0  0
  186.6110  177.2360  142.3530 C   0  0  0  0  0  0  0  0  0  0  0  0
  188.2670  175.5050  142.7490 C   0  0  0  0  0  3  0  0  0  0  0  0
  186.9320  175.9140  142.6940 C   0  0  0  0  0  3  0  0  0  0  0  0
  187.6410  178.1420  142.0680 C   0  0  0  0  0  3  0  0  0  0  0  0
  189.2960  176.4070  142.4620 C   0  0  0  0  0  0  0  0  0  0  0  0
  185.2070  177.6720  142.2940 C   0  0  0  0  0  0  0  0  0  0  0  0
  184.5270  177.7800  143.3490 O   0  0  0  0  0  1  0  0  0  0  0  0
  184.6180  177.9670  141.0710 O   0  0  0  0  0  0  0  0  0  0  0  0
  1 16  1  0  0  0  0
  3  8  1  6  0  0  0
  3 21  1  0  0  0  0
  3 11  1  0  0  0  0
  4  5  1  6  0  0  0
  4 12  1  0  0  0  0
  4 13  1  0  0  0  0
  6 14  1  0  0  0  0
  7 18  1  0  0  0  0
  8  7  1  0  0  0  0
  9  6  1  0  0  0  0
 11 19  1  0  0  0  0
 12 22  1  0  0  0  0
 13 33  1  0  0  0  0
 13  9  1  0  0  0  0
 14 10  1  0  0  0  0
 15  1  1  0  0  0  0
 17  2  1  0  0  0  0
 17 10  1  0  0  0  0
 17 16  1  0  0  0  0
 18 11  1  0  0  0  0
 19 12  1  0  0  0  0
 19 22  1  0  0  0  0
 20 36  1  0  0  0  0
 20 14  1  0  0  0  0
 20 10  1  0  0  0  0
 21  5  1  0  0  0  0
 22 15  1  0  0  0  0
 23 26  1  0  0  0  0
 24 26  1  0  0  0  0
 25 24  1  0  0  0  0
 25 23  1  0  0  0  0
 26  3  1  0  0  0  0
 26 27  1  0  0  0  0
 27 28  1  0  0  0  0
 28 30  1  0  0  0  0
 30 29  1  0  0  0  0
 31 28  1  0  0  0  0
 32 31  1  0  0  0  0
 33 34  1  0  0  0  0
 34 35  1  0  0  0  0
 36 37  1  0  0  0  0
 37 38  1  0  0  0  0
 38 43  2  0  0  0  0
 38 41  1  0  0  0  0
 39 42  2  0  0  0  0
 40 41  1  0  0  0  0
 40 45  2  0  0  0  0
 43 39  1  0  0  0  0
 44 40  1  0  0  0  0
 45 42  1  0  0  0  0
 46 36  1  0  0  0  0
 47 52  1  0  0  0  0
 48 50  2  0  0  0  0
 50 49  1  0  0  0  0
 51 47  2  0  0  0  0
 51 48  1  0  0  0  0
 52 46  1  0  0  0  0
 52 49  2  0  0  0  0
 53 48  1  0  0  0  0
 53 54  1  0  0  0  0
 55 53  2  0  0  0  0
M  END
>  <MODEL>
1

>  <REMARK>
 VINA RESULT:      -6.9      0.000      0.000
  Name = 
  13 active torsions:
  status: ('A' for Active; 'I' for Inactive)
    1  A    between atoms: C_2  and  C_28
    2  A    between atoms: C_6  and  C_53
    3  A    between atoms: C_10  and  C_32
    4  A    between atoms: C_11  and  C_29
    5  A    between atoms: C_16  and  C_17
    6  A    between atoms: C_17  and  C_23
    7  A    between atoms: O_25  and  C_29
    8  A    between atoms: C_28  and  C_49
    9  A    between atoms: C_29  and  C_38
   10  A    between atoms: O_33  and  C_49
   11  A    between atoms: O_33  and  C_52
   12  A    between atoms: C_38  and  C_53
   13  A    between atoms: C_45  and  C_49
                            x       y       z     vdW  Elec       q    Type
                         _______ _______ _______ _____ _____    ______ ____

>  <TORSDO>
F 13

$$$$
=
 OpenBabel11052419493D

 55 62  0  0  1  0  0  0  0  0999 V2000
  192.3600  169.8040  138.9250 C   0  0  0  0  0  2  0  0  0  0  0  0
  190.2760  169.8170  141.4100 O   0  0  0  0  0  1  0  0  0  0  0  0
  196.6520  173.3410  141.7040 C   0  0  2  0  0  0  0  0  0  0  0  0
  194.7600  173.5520  139.0490 C   0  0  1  0  0  3  0  0  0  0  0  0
  195.4760  174.4350  140.0620 C   0  0  0  0  0  2  0  0  0  0  0  0
  191.7330  173.1510  139.5590 O   0  0  0  0  0  0  0  0  0  0  0  0
  197.5680  171.4960  142.6920 C   0  0  0  0  0  2  0  0  0  0  0  0
  197.8670  172.6660  141.9610 O   0  0  0  0  0  0  0  0  0  0  0  0
  192.5180  174.1960  139.6990 O   0  0  0  0  0  0  0  0  0  0  0  0
  189.9900  172.1370  140.8810 C   0  0  1  0  0  3  0  0  0  0  0  0
  195.5360  172.2820  141.8030 C   0  0  2  0  0  3  0  0  0  0  0  0
  194.8420  172.0100  139.2040 C   0  0  1  0  0  3  0  0  0  0  0  0
  193.3940  174.0960  138.6120 C   0  0  1  0  0  3  0  0  0  0  0  0
  190.5640  173.4250  140.2740 C   0  0  1  0  0  3  0  0  0  0  0  0
  193.5100  169.9710  139.9260 C   0  0  0  0  0  2  0  0  0  0  0  0
  191.0400  170.5150  139.2540 C   0  0  0  0  0  2  0  0  0  0  0  0
  190.8590  170.8830  140.7260 C   0  0  2  0  0  3  0  0  0  0  0  0
  196.0710  171.3670  142.8560 C   0  0  0  0  0  2  0  0  0  0  0  0
  195.3690  171.4310  140.5330 C   0  0  2  0  0  3  0  0  0  0  0  0
  190.7400  173.1350  141.7610 C   0  0  1  0  0  3  0  0  0  0  0  0
  196.7260  173.8900  140.3990 O   0  0  0  0  0  0  0  0  0  0  0  0
  193.8860  171.4170  140.2250 C   0  0  1  0  0  3  0  0  0  0  0  0
  196.6650  175.7640  142.2280 O   0  0  0  0  0  0  0  0  0  0  0  0
  197.8650  174.5620  143.9760 S   0  0  0  0  0  0  0  0  0  0  0  0
  197.7600  176.1030  143.0350 C   0  0  0  0  0  2  0  0  0  0  0  0
  196.4940  174.4830  142.7830 C   0  0  2  0  0  0  0  0  0  0  0  0
  195.1680  174.4100  143.5600 C   0  0  0  0  0  2  0  0  0  0  0  0
  195.3550  174.3040  145.0740 C   0  0  1  0  0  3  0  0  0  0  0  0
  194.3810  176.6370  144.9040 C   0  0  0  0  0  1  0  0  0  0  0  0
  194.6710  175.4530  145.8150 C   0  0  0  0  0  2  0  0  0  0  0  0
  194.8670  173.0760  145.5280 O   0  0  0  0  0  0  0  0  0  0  0  0
  193.4830  173.1560  145.3540 C   0  0  0  0  0  1  0  0  0  0  0  0
  193.5460  175.4470  137.9230 C   0  0  0  0  0  2  0  0  0  0  0  0
  192.8210  175.4760  136.5880 C   0  0  0  0  0  2  0  0  0  0  0  0
  193.4720  174.6520  135.6720 O   0  0  0  0  0  1  0  0  0  0  0  0
  189.7920  173.9920  142.6280 C   0  0  1  0  0  3  0  0  0  0  0  0
  188.3420  173.9640  142.1360 C   0  0  0  0  0  2  0  0  0  0  0  0
  187.7340  175.3260  142.1040 C   0  0  0  0  0  0  0  0  0  0  0  0
  187.7220  177.6210  141.1080 C   0  0  0  0  0  3  0  0  0  0  0  0
  186.9740  176.7530  143.9820 C   0  0  0  0  0  0  0  0  0  0  0  0
  186.6320  175.6290  143.0640 C   0  0  0  0  0  2  0  0  0  0  0  0
  187.3050  178.3900  142.1200 C   0  0  0  0  0  3  0  0  0  0  0  0
  188.1590  176.2140  141.2020 C   0  0  0  0  0  3  0  0  0  0  0  0
  186.9060  176.5200  145.4490 C   0  0  0  0  0  1  0  0  0  0  0  0
  187.1920  177.9920  143.5390 C   0  0  0  0  0  3  0  0  0  0  0  0
  189.8480  173.6460  144.0120 O   0  0  0  0  0  0  0  0  0  0  0  0
  189.6490  174.3210  146.3540 C   0  0  0  0  0  3  0  0  0  0  0  0
  190.3920  176.5300  147.0300 C   0  0  0  0  0  0  0  0  0  0  0  0
  190.5750  175.8340  144.7110 C   0  0  0  0  0  3  0  0  0  0  0  0
  190.7620  176.7990  145.7040 C   0  0  0  0  0  3  0  0  0  0  0  0
  189.8340  175.2850  147.3480 C   0  0  0  0  0  3  0  0  0  0  0  0
  190.0200  174.5910  145.0280 C   0  0  0  0  0  0  0  0  0  0  0  0
  190.5870  177.5420  148.0800 C   0  0  0  0  0  0  0  0  0  0  0  0
  189.7700  178.4920  148.2100 O   0  0  0  0  0  0  0  0  0  0  0  0
  191.6780  177.4600  148.9360 O   0  0  0  0  0  1  0  0  0  0  0  0
  1 16  1  0  0  0  0
  1 15  1  0  0  0  0
  3 21  1  6  0  0  0
  3 11  1  0  0  0  0
  3  8  1  0  0  0  0
  3 26  1  0  0  0  0
  4 12  1  0  0  0  0
  4  5  1  1  0  0  0
  5 21  1  0  0  0  0
  6  9  1  0  0  0  0
  6 14  1  0  0  0  0
  7 18  1  0  0  0  0
  8  7  1  0  0  0  0
 10 20  1  0  0  0  0
 11 18  1  0  0  0  0
 12 22  1  0  0  0  0
 12 19  1  0  0  0  0
 13  4  1  0  0  0  0
 13  9  1  0  0  0  0
 14 10  1  0  0  0  0
 14 20  1  0  0  0  0
 15 22  1  0  0  0  0
 16 17  1  0  0  0  0
 17 10  1  0  0  0  0
 17  2  1  0  0  0  0
 19 11  1  0  0  0  0
 20 36  1  0  0  0  0
 22 19  1  0  0  0  0
 23 26  1  0  0  0  0
 23 25  1  0  0  0  0
 25 24  1  0  0  0  0
 26 27  1  0  0  0  0
 26 24  1  0  0  0  0
 27 28  1  0  0  0  0
 28 31  1  0  0  0  0
 28 30  1  0  0  0  0
 29 30  1  0  0  0  0
 32 31  1  0  0  0  0
 33 13  1  0  0  0  0
 34 33  1  0  0  0  0
 35 34  1  0  0  0  0
 36 46  1  0  0  0  0
 37 36  1  0  0  0  0
 38 37  1  0  0  0  0
 38 41  1  0  0  0  0
 39 43  1  0  0  0  0
 39 42  2  0  0  0  0
 40 44  1  0  0  0  0
 41 40  1  0  0  0  0
 42 45  1  0  0  0  0
 43 38  2  0  0  0  0
 45 40  2  0  0  0  0
 46 52  1  0  0  0  0
 47 51  1  0  0  0  0
 48 51  2  0  0  0  0
 48 53  1  0  0  0  0
 49 52  1  0  0  0  0
 49 50  2  0  0  0  0
 50 48  1  0  0  0  0
 52 47  2  0  0  0  0
 53 54  2  0  0  0  0
 53 55  1  0  0  0  0
M  END
>  <MODEL>
2

>  <REMARK>
 VINA RESULT:      -6.8      2.543      6.145
  Name = 
  13 active torsions:
  status: ('A' for Active; 'I' for Inactive)
    1  A    between atoms: C_2  and  C_28
    2  A    between atoms: C_6  and  C_53
    3  A    between atoms: C_10  and  C_32
    4  A    between atoms: C_11  and  C_29
    5  A    between atoms: C_16  and  C_17
    6  A    between atoms: C_17  and  C_23
    7  A    between atoms: O_25  and  C_29
    8  A    between atoms: C_28  and  C_49
    9  A    between atoms: C_29  and  C_38
   10  A    between atoms: O_33  and  C_49
   11  A    between atoms: O_33  and  C_52
   12  A    between atoms: C_38  and  C_53
   13  A    between atoms: C_45  and  C_49
                            x       y       z     vdW  Elec       q    Type
                         _______ _______ _______ _____ _____    ______ ____

>  <TORSDO>
F 13

$$$$
=
 OpenBabel11052419493D

 55 62  0  0  1  0  0  0  0  0999 V2000
  196.1770  174.6440  145.8740 C   0  0  0  0  0  2  0  0  0  0  0  0
  194.2450  177.2440  145.7310 O   0  0  0  0  0  1  0  0  0  0  0  0
  195.3370  172.9290  139.9580 C   0  0  2  0  0  0  0  0  0  0  0  0
  194.7610  171.6430  142.9050 C   0  0  1  0  0  3  0  0  0  0  0  0
  194.2520  171.5840  141.4710 C   0  0  0  0  0  2  0  0  0  0  0  0
  193.1090  173.4320  144.8170 O   0  0  0  0  0  0  0  0  0  0  0  0
  197.0090  174.3340  139.2870 C   0  0  0  0  0  2  0  0  0  0  0  0
  196.5050  173.0220  139.1660 O   0  0  0  0  0  0  0  0  0  0  0  0
  192.7550  172.6250  143.8410 O   0  0  0  0  0  0  0  0  0  0  0  0
  192.4700  175.6490  145.5150 C   0  0  1  0  0  3  0  0  0  0  0  0
  195.4380  174.0460  141.0160 C   0  0  2  0  0  3  0  0  0  0  0  0
  195.9300  172.6050  143.2500 C   0  0  1  0  0  3  0  0  0  0  0  0
  193.6500  171.5560  143.9580 C   0  0  1  0  0  3  0  0  0  0  0  0
  192.0080  174.2510  145.0850 C   0  0  1  0  0  3  0  0  0  0  0  0
  196.4700  174.8150  144.3790 C   0  0  0  0  0  2  0  0  0  0  0  0
  194.7610  174.9930  146.3520 C   0  0  0  0  0  2  0  0  0  0  0  0
  193.9770  175.9130  145.4160 C   0  0  2  0  0  3  0  0  0  0  0  0
  196.1640  175.1150  140.2670 C   0  0  0  0  0  2  0  0  0  0  0  0
  196.3220  173.6840  142.2210 C   0  0  2  0  0  3  0  0  0  0  0  0
  191.9310  175.4170  144.1060 C   0  0  1  0  0  3  0  0  0  0  0  0
  195.3210  171.6470  140.5620 O   0  0  0  0  0  0  0  0  0  0  0  0
  195.5260  174.0550  143.4550 C   0  0  1  0  0  3  0  0  0  0  0  0
  194.3900  173.9200  137.8920 O   0  0  0  0  0  0  0  0  0  0  0  0
  192.7810  174.1660  139.7060 S   0  0  0  0  0  0  0  0  0  0  0  0
  193.4380  174.9040  138.1910 C   0  0  0  0  0  2  0  0  0  0  0  0
  194.0900  173.1150  139.0060 C   0  0  2  0  0  0  0  0  0  0  0  0
  193.4650  171.7850  138.5520 C   0  0  0  0  0  2  0  0  0  0  0  0
  191.9360  171.7990  138.5540 C   0  0  1  0  0  3  0  0  0  0  0  0
  190.4950  172.9740  136.8330 C   0  0  0  0  0  1  0  0  0  0  0  0
  191.3630  171.7620  137.1380 C   0  0  0  0  0  2  0  0  0  0  0  0
  191.4520  170.7240  139.3020 O   0  0  0  0  0  0  0  0  0  0  0  0
  192.2770  169.6500  138.9580 C   0  0  0  0  0  1  0  0  0  0  0  0
  192.9100  170.2270  143.8540 C   0  0  0  0  0  2  0  0  0  0  0  0
  193.3610  169.2520  144.9290 C   0  0  0  0  0  2  0  0  0  0  0  0
  194.5340  169.7090  145.5280 O   0  0  0  0  0  1  0  0  0  0  0  0
  190.4820  175.9230  143.9320 C   0  0  1  0  0  3  0  0  0  0  0  0
  189.4340  174.8340  144.1760 C   0  0  0  0  0  2  0  0  0  0  0  0
  188.9090  174.2660  142.9010 C   0  0  0  0  0  0  0  0  0  0  0  0
  189.2140  172.6530  141.0120 C   0  0  0  0  0  3  0  0  0  0  0  0
  187.8300  175.4200  140.9910 C   0  0  0  0  0  0  0  0  0  0  0  0
  187.6410  174.8280  142.3470 C   0  0  0  0  0  2  0  0  0  0  0  0
  188.6240  173.2730  139.9830 C   0  0  0  0  0  3  0  0  0  0  0  0
  189.5570  173.2550  142.3150 C   0  0  0  0  0  3  0  0  0  0  0  0
  187.4390  176.8380  140.7740 C   0  0  0  0  0  1  0  0  0  0  0  0
  188.1930  174.6860  139.9390 C   0  0  0  0  0  3  0  0  0  0  0  0
  190.1990  177.0660  144.7390 O   0  0  0  0  0  0  0  0  0  0  0  0
  187.9640  177.9150  144.2200 C   0  0  0  0  0  3  0  0  0  0  0  0
  186.3180  178.1100  145.9930 C   0  0  0  0  0  0  0  0  0  0  0  0
  188.5450  177.2750  146.4790 C   0  0  0  0  0  3  0  0  0  0  0  0
  187.2590  177.6160  146.9070 C   0  0  0  0  0  3  0  0  0  0  0  0
  186.6790  178.2590  144.6470 C   0  0  0  0  0  3  0  0  0  0  0  0
  188.9050  177.4190  145.1360 C   0  0  0  0  0  0  0  0  0  0  0  0
  184.9630  178.4720  146.4370 C   0  0  0  0  0  0  0  0  0  0  0  0
  184.6120  178.2850  147.6330 O   0  0  0  0  0  1  0  0  0  0  0  0
  184.0560  179.0200  145.5400 O   0  0  0  0  0  0  0  0  0  0  0  0
  1 16  1  0  0  0  0
  3  8  1  6  0  0  0
  3 21  1  0  0  0  0
  3 11  1  0  0  0  0
  4  5  1  6  0  0  0
  4 12  1  0  0  0  0
  4 13  1  0  0  0  0
  6 14  1  0  0  0  0
  7 18  1  0  0  0  0
  8  7  1  0  0  0  0
  9 13  1  0  0  0  0
  9  6  1  0  0  0  0
 11 19  1  0  0  0  0
 12 22  1  0  0  0  0
 14 10  1  0  0  0  0
 15  1  1  0  0  0  0
 17 10  1  0  0  0  0
 17  2  1  0  0  0  0
 17 16  1  0  0  0  0
 18 11  1  0  0  0  0
 19 12  1  0  0  0  0
 19 22  1  0  0  0  0
 20 14  1  0  0  0  0
 20 10  1  0  0  0  0
 21  5  1  0  0  0  0
 22 15  1  0  0  0  0
 23 25  1  0  0  0  0
 23 26  1  0  0  0  0
 25 24  1  0  0  0  0
 26 24  1  0  0  0  0
 26  3  1  0  0  0  0
 27 28  1  0  0  0  0
 27 26  1  0  0  0  0
 28 31  1  0  0  0  0
 29 30  1  0  0  0  0
 30 28  1  0  0  0  0
 32 31  1  0  0  0  0
 33 13  1  0  0  0  0
 33 34  1  0  0  0  0
 34 35  1  0  0  0  0
 36 20  1  0  0  0  0
 36 37  1  0  0  0  0
 36 46  1  0  0  0  0
 38 37  1  0  0  0  0
 39 43  1  0  0  0  0
 40 41  1  0  0  0  0
 41 38  1  0  0  0  0
 42 39  2  0  0  0  0
 43 38  2  0  0  0  0
 44 40  1  0  0  0  0
 45 42  1  0  0  0  0
 45 40  2  0  0  0  0
 46 52  1  0  0  0  0
 47 51  2  0  0  0  0
 47 52  1  0  0  0  0
 48 53  1  0  0  0  0
 48 50  2  0  0  0  0
 49 50  1  0  0  0  0
 51 48  1  0  0  0  0
 52 49  2  0  0  0  0
 53 54  1  0  0  0  0
 55 53  2  0  0  0  0
M  END
>  <MODEL>
3

>  <REMARK>
 VINA RESULT:      -6.6      1.781      3.267
  Name = 
  13 active torsions:
  status: ('A' for Active; 'I' for Inactive)
    1  A    between atoms: C_2  and  C_28
    2  A    between atoms: C_6  and  C_53
    3  A    between atoms: C_10  and  C_32
    4  A    between atoms: C_11  and  C_29
    5  A    between atoms: C_16  and  C_17
    6  A    between atoms: C_17  and  C_23
    7  A    between atoms: O_25  and  C_29
    8  A    between atoms: C_28  and  C_49
    9  A    between atoms: C_29  and  C_38
   10  A    between atoms: O_33  and  C_49
   11  A    between atoms: O_33  and  C_52
   12  A    between atoms: C_38  and  C_53
   13  A    between atoms: C_45  and  C_49
                            x       y       z     vdW  Elec       q    Type
                         _______ _______ _______ _____ _____    ______ ____

>  <TORSDO>
F 13

$$$$
=
 OpenBabel11052419493D

 55 62  0  0  1  0  0  0  0  0999 V2000
  193.4100  176.3820  146.7340 C   0  0  0  0  0  2  0  0  0  0  0  0
  190.7220  177.6050  145.3940 O   0  0  0  0  0  1  0  0  0  0  0  0
  195.8430  174.2740  141.4160 C   0  0  2  0  0  0  0  0  0  0  0  0
  194.8330  172.9790  144.2400 C   0  0  1  0  0  3  0  0  0  0  0  0
  195.0140  172.6150  142.7730 C   0  0  0  0  0  2  0  0  0  0  0  0
  191.9440  173.7240  145.0660 O   0  0  0  0  0  0  0  0  0  0  0  0
  196.7820  176.3150  141.0060 C   0  0  0  0  0  2  0  0  0  0  0  0
  197.0370  174.9280  141.0370 O   0  0  0  0  0  0  0  0  0  0  0  0
  192.4170  172.8160  144.2410 O   0  0  0  0  0  0  0  0  0  0  0  0
  190.1340  175.3150  144.9970 C   0  0  1  0  0  3  0  0  0  0  0  0
  194.9930  175.3180  142.1660 C   0  0  2  0  0  3  0  0  0  0  0  0
  195.1820  174.4180  144.7080 C   0  0  1  0  0  3  0  0  0  0  0  0
  193.5800  172.3680  144.8780 C   0  0  1  0  0  3  0  0  0  0  0  0
  190.5840  173.8650  144.7760 C   0  0  1  0  0  3  0  0  0  0  0  0
  194.1460  176.6270  145.4120 C   0  0  0  0  0  2  0  0  0  0  0  0
  191.9350  175.9660  146.6450 C   0  0  0  0  0  2  0  0  0  0  0  0
  191.2490  176.3160  145.3240 C   0  0  2  0  0  3  0  0  0  0  0  0
  195.3650  176.5820  141.4620 C   0  0  0  0  0  2  0  0  0  0  0  0
  195.3940  175.5080  143.6380 C   0  0  2  0  0  3  0  0  0  0  0  0
  190.3630  174.7880  143.5830 C   0  0  1  0  0  3  0  0  0  0  0  0
  196.1900  173.1890  142.2610 O   0  0  0  0  0  0  0  0  0  0  0  0
  194.1080  175.4570  144.4360 C   0  0  1  0  0  3  0  0  0  0  0  0
  195.4900  174.5170  138.9740 O   0  0  0  0  0  0  0  0  0  0  0  0
  193.3470  174.0830  140.0510 S   0  0  0  0  0  0  0  0  0  0  0  0
  194.1810  174.9310  138.6890 C   0  0  0  0  0  2  0  0  0  0  0  0
  195.1360  173.7550  140.1020 C   0  0  2  0  0  0  0  0  0  0  0  0
  195.3710  172.2590  139.8320 C   0  0  0  0  0  2  0  0  0  0  0  0
  194.1180  171.5220  139.3590 C   0  0  1  0  0  3  0  0  0  0  0  0
  193.2740  171.7220  136.9780 C   0  0  0  0  0  1  0  0  0  0  0  0
  194.2540  171.0330  137.9170 C   0  0  0  0  0  2  0  0  0  0  0  0
  193.8470  170.4490  140.2110 O   0  0  0  0  0  0  0  0  0  0  0  0
  195.0140  169.6810  140.1990 C   0  0  0  0  0  1  0  0  0  0  0  0
  193.6480  170.8450  144.8510 C   0  0  0  0  0  2  0  0  0  0  0  0
  194.6960  170.3180  145.8180 C   0  0  0  0  0  2  0  0  0  0  0  0
  194.5460  168.9420  145.9830 O   0  0  0  0  0  1  0  0  0  0  0  0
  189.0430  174.4670  142.8480 C   0  0  1  0  0  3  0  0  0  0  0  0
  188.8020  175.3640  141.6310 C   0  0  0  0  0  2  0  0  0  0  0  0
  187.5420  176.1510  141.7540 C   0  0  0  0  0  0  0  0  0  0  0  0
  186.0270  177.8960  140.7940 C   0  0  0  0  0  3  0  0  0  0  0  0
  186.5240  177.1850  143.7630 C   0  0  0  0  0  0  0  0  0  0  0  0
  186.6920  175.9380  142.9630 C   0  0  0  0  0  2  0  0  0  0  0  0
  185.4720  178.4480  141.8780 C   0  0  0  0  0  3  0  0  0  0  0  0
  187.1890  176.9870  140.7730 C   0  0  0  0  0  3  0  0  0  0  0  0
  186.9100  177.1670  145.1990 C   0  0  0  0  0  1  0  0  0  0  0  0
  185.9050  178.2620  143.2790 C   0  0  0  0  0  3  0  0  0  0  0  0
  188.9410  173.0930  142.4740 O   0  0  0  0  0  0  0  0  0  0  0  0
  188.1360  172.8660  140.1750 C   0  0  0  0  0  3  0  0  0  0  0  0
  189.5110  171.7220  138.5350 C   0  0  0  0  0  0  0  0  0  0  0  0
  190.2830  171.9590  140.8250 C   0  0  0  0  0  3  0  0  0  0  0  0
  190.4840  171.5010  139.5200 C   0  0  0  0  0  3  0  0  0  0  0  0
  188.3360  172.4060  138.8710 C   0  0  0  0  0  3  0  0  0  0  0  0
  189.1110  172.6450  141.1600 C   0  0  0  0  0  0  0  0  0  0  0  0
  189.7180  171.2420  137.1600 C   0  0  0  0  0  0  0  0  0  0  0  0
  190.0590  170.0480  136.9450 O   0  0  0  0  0  1  0  0  0  0  0  0
  189.5410  172.1030  136.0840 O   0  0  0  0  0  0  0  0  0  0  0  0
  3  8  1  6  0  0  0
  3 11  1  0  0  0  0
  3 21  1  0  0  0  0
  4  5  1  6  0  0  0
  4 12  1  0  0  0  0
  4 13  1  0  0  0  0
  7  8  1  0  0  0  0
  7 18  1  0  0  0  0
  9 13  1  0  0  0  0
  9  6  1  0  0  0  0
 10 17  1  0  0  0  0
 11 19  1  0  0  0  0
 14 10  1  0  0  0  0
 14  6  1  0  0  0  0
 15  1  1  0  0  0  0
 16  1  1  0  0  0  0
 17  2  1  0  0  0  0
 17 16  1  0  0  0  0
 18 11  1  0  0  0  0
 19 22  1  0  0  0  0
 19 12  1  0  0  0  0
 20 14  1  0  0  0  0
 20 10  1  0  0  0  0
 21  5  1  0  0  0  0
 22 12  1  0  0  0  0
 22 15  1  0  0  0  0
 23 26  1  0  0  0  0
 24 26  1  0  0  0  0
 25 23  1  0  0  0  0
 25 24  1  0  0  0  0
 26  3  1  0  0  0  0
 27 26  1  0  0  0  0
 28 27  1  0  0  0  0
 28 31  1  0  0  0  0
 29 30  1  0  0  0  0
 30 28  1  0  0  0  0
 32 31  1  0  0  0  0
 33 13  1  0  0  0  0
 33 34  1  0  0  0  0
 34 35  1  0  0  0  0
 36 20  1  0  0  0  0
 37 38  1  0  0  0  0
 37 36  1  0  0  0  0
 38 41  1  0  0  0  0
 39 42  2  0  0  0  0
 40 44  1  0  0  0  0
 41 40  1  0  0  0  0
 42 45  1  0  0  0  0
 43 39  1  0  0  0  0
 43 38  2  0  0  0  0
 45 40  2  0  0  0  0
 46 36  1  0  0  0  0
 47 52  1  0  0  0  0
 48 51  1  0  0  0  0
 48 50  2  0  0  0  0
 49 52  2  0  0  0  0
 50 49  1  0  0  0  0
 51 47  2  0  0  0  0
 52 46  1  0  0  0  0
 53 48  1  0  0  0  0
 54 53  1  0  0  0  0
 55 53  2  0  0  0  0
M  END
>  <MODEL>
4

>  <REMARK>
 VINA RESULT:      -6.5      2.258      4.776
  Name = 
  13 active torsions:
  status: ('A' for Active; 'I' for Inactive)
    1  A    between atoms: C_2  and  C_28
    2  A    between atoms: C_6  and  C_53
    3  A    between atoms: C_10  and  C_32
    4  A    between atoms: C_11  and  C_29
    5  A    between atoms: C_16  and  C_17
    6  A    between atoms: C_17  and  C_23
    7  A    between atoms: O_25  and  C_29
    8  A    between atoms: C_28  and  C_49
    9  A    between atoms: C_29  and  C_38
   10  A    between atoms: O_33  and  C_49
   11  A    between atoms: O_33  and  C_52
   12  A    between atoms: C_38  and  C_53
   13  A    between atoms: C_45  and  C_49
                            x       y       z     vdW  Elec       q    Type
                         _______ _______ _______ _____ _____    ______ ____

>  <TORSDO>
F 13

$$$$
=
 OpenBabel11052419493D

 55 62  0  0  1  0  0  0  0  0999 V2000
  197.0800  171.5590  145.1250 C   0  0  0  0  0  2  0  0  0  0  0  0
  195.0070  169.3740  143.9230 O   0  0  0  0  0  1  0  0  0  0  0  0
  193.0290  176.2740  145.2000 C   0  0  2  0  0  0  0  0  0  0  0  0
  195.8660  175.6080  143.7240 C   0  0  1  0  0  3  0  0  0  0  0  0
  194.6030  176.4370  143.5340 C   0  0  0  0  0  2  0  0  0  0  0  0
  195.9360  172.9370  142.1600 O   0  0  0  0  0  0  0  0  0  0  0  0
  192.2720  175.6240  147.2550 C   0  0  0  0  0  2  0  0  0  0  0  0
  192.7120  176.7320  146.4990 O   0  0  0  0  0  0  0  0  0  0  0  0
  195.4770  174.1280  141.8470 O   0  0  0  0  0  0  0  0  0  0  0  0
  195.1270  170.6780  141.9160 C   0  0  1  0  0  3  0  0  0  0  0  0
  193.3130  174.7640  145.3270 C   0  0  2  0  0  3  0  0  0  0  0  0
  195.9940  174.7060  144.9810 C   0  0  1  0  0  3  0  0  0  0  0  0
  196.4070  175.0000  142.4240 C   0  0  1  0  0  3  0  0  0  0  0  0
  195.3800  172.0360  141.2470 C   0  0  1  0  0  3  0  0  0  0  0  0
  195.8940  172.2920  145.7630 C   0  0  0  0  0  2  0  0  0  0  0  0
  196.8410  170.9010  143.7590 C   0  0  0  0  0  2  0  0  0  0  0  0
  195.3740  170.6250  143.4280 C   0  0  2  0  0  3  0  0  0  0  0  0
  192.3800  174.3660  146.4240 C   0  0  0  0  0  2  0  0  0  0  0  0
  194.7310  174.4360  145.8240 C   0  0  2  0  0  3  0  0  0  0  0  0
  193.9660  171.6340  141.6530 C   0  0  1  0  0  3  0  0  0  0  0  0
  194.1780  176.9790  144.7580 O   0  0  0  0  0  0  0  0  0  0  0  0
  195.2710  173.3740  144.8890 C   0  0  1  0  0  3  0  0  0  0  0  0
  192.0240  177.6800  143.4220 O   0  0  0  0  0  0  0  0  0  0  0  0
  190.3520  177.2540  145.1440 S   0  0  0  0  0  0  0  0  0  0  0  0
  190.9560  178.4390  143.9190 C   0  0  0  0  0  2  0  0  0  0  0  0
  191.7930  176.5760  144.2640 C   0  0  2  0  0  0  0  0  0  0  0  0
  191.3400  175.3600  143.4390 C   0  0  0  0  0  2  0  0  0  0  0  0
  189.8470  175.0590  143.5690 C   0  0  1  0  0  3  0  0  0  0  0  0
  187.6370  175.3340  142.3600 C   0  0  0  0  0  1  0  0  0  0  0  0
  189.1350  175.1060  142.2170 C   0  0  0  0  0  2  0  0  0  0  0  0
  189.6640  173.8110  144.1690 O   0  0  0  0  0  0  0  0  0  0  0  0
  190.5070  172.9490  143.4630 C   0  0  0  0  0  1  0  0  0  0  0  0
  196.7940  176.0950  141.4360 C   0  0  0  0  0  2  0  0  0  0  0  0
  196.6560  175.6230  139.9980 C   0  0  0  0  0  2  0  0  0  0  0  0
  197.8400  175.8550  139.3020 O   0  0  0  0  0  1  0  0  0  0  0  0
  193.1170  171.2150  140.4320 C   0  0  1  0  0  3  0  0  0  0  0  0
  193.3330  169.7550  140.0260 C   0  0  0  0  0  2  0  0  0  0  0  0
  193.1880  169.5550  138.5550 C   0  0  0  0  0  0  0  0  0  0  0  0
  194.0530  170.0250  136.2550 C   0  0  0  0  0  3  0  0  0  0  0  0
  191.1370  169.5350  137.1640 C   0  0  0  0  0  0  0  0  0  0  0  0
  192.0310  168.7500  138.0630 C   0  0  0  0  0  2  0  0  0  0  0  0
  192.9460  170.0060  135.5030 C   0  0  0  0  0  3  0  0  0  0  0  0
  194.1080  170.0600  137.7290 C   0  0  0  0  0  3  0  0  0  0  0  0
  189.6950  169.6400  137.5120 C   0  0  0  0  0  1  0  0  0  0  0  0
  191.5520  170.0160  135.9920 C   0  0  0  0  0  3  0  0  0  0  0  0
  191.7250  171.4740  140.6150 O   0  0  0  0  0  0  0  0  0  0  0  0
  191.5640  172.9590  138.6780 C   0  0  0  0  0  3  0  0  0  0  0  0
  189.3850  173.7360  137.9460 C   0  0  0  0  0  0  0  0  0  0  0  0
  189.5760  172.2640  139.8670 C   0  0  0  0  0  3  0  0  0  0  0  0
  188.7880  173.0100  138.9860 C   0  0  0  0  0  3  0  0  0  0  0  0
  190.7780  173.7070  137.7980 C   0  0  0  0  0  3  0  0  0  0  0  0
  190.9660  172.2320  139.7190 C   0  0  0  0  0  0  0  0  0  0  0  0
  188.5610  174.5230  137.0150 C   0  0  0  0  0  0  0  0  0  0  0  0
  188.8730  174.6040  135.7970 O   0  0  0  0  0  0  0  0  0  0  0  0
  187.4310  175.1880  137.4730 O   0  0  0  0  0  1  0  0  0  0  0  0
  1 15  1  0  0  0  0
  3 21  1  6  0  0  0
  3 11  1  0  0  0  0
  3  8  1  0  0  0  0
  4  5  1  6  0  0  0
  4 12  1  0  0  0  0
  5 21  1  0  0  0  0
  8  7  1  0  0  0  0
  9  6  1  0  0  0  0
  9 13  1  0  0  0  0
 10 17  1  0  0  0  0
 11 19  1  0  0  0  0
 11 18  1  0  0  0  0
 12 19  1  0  0  0  0
 13  4  1  0  0  0  0
 14 20  1  0  0  0  0
 14 10  1  0  0  0  0
 14  6  1  0  0  0  0
 16  1  1  0  0  0  0
 17 16  1  0  0  0  0
 17  2  1  0  0  0  0
 18  7  1  0  0  0  0
 20 10  1  0  0  0  0
 22 12  1  0  0  0  0
 22 15  1  0  0  0  0
 22 19  1  0  0  0  0
 23 25  1  0  0  0  0
 23 26  1  0  0  0  0
 25 24  1  0  0  0  0
 26 24  1  0  0  0  0
 26  3  1  0  0  0  0
 27 28  1  0  0  0  0
 27 26  1  0  0  0  0
 28 31  1  0  0  0  0
 30 29  1  0  0  0  0
 30 28  1  0  0  0  0
 32 31  1  0  0  0  0
 33 13  1  0  0  0  0
 34 33  1  0  0  0  0
 35 34  1  0  0  0  0
 36 46  1  0  0  0  0
 36 20  1  0  0  0  0
 37 36  1  0  0  0  0
 38 37  1  0  0  0  0
 39 43  1  0  0  0  0
 40 44  1  0  0  0  0
 40 41  1  0  0  0  0
 41 38  1  0  0  0  0
 42 45  1  0  0  0  0
 42 39  2  0  0  0  0
 43 38  2  0  0  0  0
 45 40  2  0  0  0  0
 47 52  1  0  0  0  0
 48 50  2  0  0  0  0
 50 49  1  0  0  0  0
 51 48  1  0  0  0  0
 51 47  2  0  0  0  0
 52 49  2  0  0  0  0
 52 46  1  0  0  0  0
 53 55  1  0  0  0  0
 53 48  1  0  0  0  0
 54 53  2  0  0  0  0
M  END
>  <MODEL>
5

>  <REMARK>
 VINA RESULT:      -6.4      2.844      7.627
  Name = 
  13 active torsions:
  status: ('A' for Active; 'I' for Inactive)
    1  A    between atoms: C_2  and  C_28
    2  A    between atoms: C_6  and  C_53
    3  A    between atoms: C_10  and  C_32
    4  A    between atoms: C_11  and  C_29
    5  A    between atoms: C_16  and  C_17
    6  A    between atoms: C_17  and  C_23
    7  A    between atoms: O_25  and  C_29
    8  A    between atoms: C_28  and  C_49
    9  A    between atoms: C_29  and  C_38
   10  A    between atoms: O_33  and  C_49
   11  A    between atoms: O_33  and  C_52
   12  A    between atoms: C_38  and  C_53
   13  A    between atoms: C_45  and  C_49
                            x       y       z     vdW  Elec       q    Type
                         _______ _______ _______ _____ _____    ______ ____

>  <TORSDO>
F 13

$$$$
=
 OpenBabel11052419493D

 55 62  0  0  1  0  0  0  0  0999 V2000
  194.9290  171.6420  145.1040 C   0  0  0  0  0  2  0  0  0  0  0  0
  192.8740  169.6060  143.6380 O   0  0  0  0  0  1  0  0  0  0  0  0
  190.9860  176.4440  145.3170 C   0  0  2  0  0  0  0  0  0  0  0  0
  193.8820  175.8120  143.9440 C   0  0  1  0  0  3  0  0  0  0  0  0
  192.6500  176.6860  143.7520 C   0  0  0  0  0  2  0  0  0  0  0  0
  193.9760  173.2610  142.1930 O   0  0  0  0  0  0  0  0  0  0  0  0
  190.1060  175.6670  147.2770 C   0  0  0  0  0  2  0  0  0  0  0  0
  190.6100  176.8150  146.6280 O   0  0  0  0  0  0  0  0  0  0  0  0
  193.5610  174.4830  141.9450 O   0  0  0  0  0  0  0  0  0  0  0  0
  193.1320  171.0480  141.7420 C   0  0  1  0  0  3  0  0  0  0  0  0
  191.2290  174.9220  145.3470 C   0  0  2  0  0  3  0  0  0  0  0  0
  193.9230  174.8190  145.1370 C   0  0  1  0  0  3  0  0  0  0  0  0
  194.4780  175.2870  142.6330 C   0  0  1  0  0  3  0  0  0  0  0  0
  193.4500  172.4440  141.1890 C   0  0  1  0  0  3  0  0  0  0  0  0
  193.7270  172.3570  145.7320 C   0  0  0  0  0  2  0  0  0  0  0  0
  194.7490  171.0910  143.6820 C   0  0  0  0  0  2  0  0  0  0  0  0
  193.2960  170.8790  143.2570 C   0  0  2  0  0  3  0  0  0  0  0  0
  190.2300  174.4700  146.3610 C   0  0  0  0  0  2  0  0  0  0  0  0
  192.6100  174.5220  145.8900 C   0  0  2  0  0  3  0  0  0  0  0  0
  192.0080  172.0500  141.4900 C   0  0  1  0  0  3  0  0  0  0  0  0
  192.1720  177.1490  144.9890 O   0  0  0  0  0  0  0  0  0  0  0  0
  193.1760  173.5160  144.9090 C   0  0  1  0  0  3  0  0  0  0  0  0
  189.1520  175.7200  143.8150 O   0  0  0  0  0  0  0  0  0  0  0  0
  190.3710  177.5480  142.7620 S   0  0  0  0  0  0  0  0  0  0  0  0
  189.4410  176.0240  142.4770 C   0  0  0  0  0  2  0  0  0  0  0  0
  189.8090  176.8460  144.3430 C   0  0  2  0  0  0  0  0  0  0  0  0
  188.7930  177.8100  144.9770 C   0  0  0  0  0  2  0  0  0  0  0  0
  187.3570  177.2840  144.9530 C   0  0  1  0  0  3  0  0  0  0  0  0
  185.6780  177.4970  146.8380 C   0  0  0  0  0  1  0  0  0  0  0  0
  186.9140  176.7720  146.3230 C   0  0  0  0  0  2  0  0  0  0  0  0
  186.4920  178.2840  144.5050 O   0  0  0  0  0  0  0  0  0  0  0  0
  186.6130  178.2640  143.1140 C   0  0  0  0  0  1  0  0  0  0  0  0
  194.9430  176.4400  141.7500 C   0  0  0  0  0  2  0  0  0  0  0  0
  196.4550  176.4520  141.6010 C   0  0  0  0  0  2  0  0  0  0  0  0
  196.8130  176.0340  140.3200 O   0  0  0  0  0  1  0  0  0  0  0  0
  191.2170  171.7440  140.1990 C   0  0  1  0  0  3  0  0  0  0  0  0
  190.7470  170.2890  140.1170 C   0  0  0  0  0  2  0  0  0  0  0  0
  191.1350  169.6470  138.8280 C   0  0  0  0  0  0  0  0  0  0  0  0
  192.9530  168.7040  137.3900 C   0  0  0  0  0  3  0  0  0  0  0  0
  190.3470  170.1310  136.5290 C   0  0  0  0  0  0  0  0  0  0  0  0
  190.0710  169.4140  137.8070 C   0  0  0  0  0  2  0  0  0  0  0  0
  192.5230  168.9590  136.1490 C   0  0  0  0  0  3  0  0  0  0  0  0
  192.4010  169.2640  138.6390 C   0  0  0  0  0  3  0  0  0  0  0  0
  189.3200  171.0680  136.0030 C   0  0  0  0  0  1  0  0  0  0  0  0
  191.4080  169.8520  135.7710 C   0  0  0  0  0  3  0  0  0  0  0  0
  190.1120  172.6280  140.0080 O   0  0  0  0  0  0  0  0  0  0  0  0
  188.6140  173.7850  138.4590 C   0  0  0  0  0  3  0  0  0  0  0  0
  189.5080  174.7270  136.4100 C   0  0  0  0  0  0  0  0  0  0  0  0
  190.9710  173.5700  137.9640 C   0  0  0  0  0  3  0  0  0  0  0  0
  190.7830  174.2670  136.7670 C   0  0  0  0  0  3  0  0  0  0  0  0
  188.4240  174.4800  137.2620 C   0  0  0  0  0  3  0  0  0  0  0  0
  189.8910  173.3260  138.8170 C   0  0  0  0  0  0  0  0  0  0  0  0
  189.3040  175.4610  135.1510 C   0  0  0  0  0  0  0  0  0  0  0  0
  188.1900  175.4270  134.5650 O   0  0  0  0  0  0  0  0  0  0  0  0
  190.3430  176.1970  134.5950 O   0  0  0  0  0  1  0  0  0  0  0  0
  1 15  1  0  0  0  0
  3 21  1  6  0  0  0
  3 11  1  0  0  0  0
  3  8  1  0  0  0  0
  4  5  1  6  0  0  0
  4 12  1  0  0  0  0
  5 21  1  0  0  0  0
  8  7  1  0  0  0  0
  9  6  1  0  0  0  0
  9 13  1  0  0  0  0
 10 17  1  0  0  0  0
 11 19  1  0  0  0  0
 11 18  1  0  0  0  0
 12 19  1  0  0  0  0
 13  4  1  0  0  0  0
 14 20  1  0  0  0  0
 14 10  1  0  0  0  0
 14  6  1  0  0  0  0
 16  1  1  0  0  0  0
 17  2  1  0  0  0  0
 17 16  1  0  0  0  0
 18  7  1  0  0  0  0
 20 10  1  0  0  0  0
 22 12  1  0  0  0  0
 22 15  1  0  0  0  0
 22 19  1  0  0  0  0
 23 26  1  0  0  0  0
 24 26  1  0  0  0  0
 25 24  1  0  0  0  0
 25 23  1  0  0  0  0
 26 27  1  0  0  0  0
 26  3  1  0  0  0  0
 28 27  1  0  0  0  0
 28 30  1  0  0  0  0
 30 29  1  0  0  0  0
 31 28  1  0  0  0  0
 32 31  1  0  0  0  0
 33 13  1  0  0  0  0
 34 33  1  0  0  0  0
 35 34  1  0  0  0  0
 36 20  1  0  0  0  0
 37 36  1  0  0  0  0
 38 37  1  0  0  0  0
 39 43  1  0  0  0  0
 40 41  1  0  0  0  0
 41 38  1  0  0  0  0
 42 39  2  0  0  0  0
 43 38  2  0  0  0  0
 44 40  1  0  0  0  0
 45 42  1  0  0  0  0
 45 40  2  0  0  0  0
 46 36  1  0  0  0  0
 47 52  1  0  0  0  0
 48 50  2  0  0  0  0
 48 51  1  0  0  0  0
 49 52  2  0  0  0  0
 50 49  1  0  0  0  0
 51 47  2  0  0  0  0
 52 46  1  0  0  0  0
 53 48  1  0  0  0  0
 54 53  2  0  0  0  0
 55 53  1  0  0  0  0
M  END
>  <MODEL>
6

>  <REMARK>
 VINA RESULT:      -6.3      2.539      8.042
  Name = 
  13 active torsions:
  status: ('A' for Active; 'I' for Inactive)
    1  A    between atoms: C_2  and  C_28
    2  A    between atoms: C_6  and  C_53
    3  A    between atoms: C_10  and  C_32
    4  A    between atoms: C_11  and  C_29
    5  A    between atoms: C_16  and  C_17
    6  A    between atoms: C_17  and  C_23
    7  A    between atoms: O_25  and  C_29
    8  A    between atoms: C_28  and  C_49
    9  A    between atoms: C_29  and  C_38
   10  A    between atoms: O_33  and  C_49
   11  A    between atoms: O_33  and  C_52
   12  A    between atoms: C_38  and  C_53
   13  A    between atoms: C_45  and  C_49
                            x       y       z     vdW  Elec       q    Type
                         _______ _______ _______ _____ _____    ______ ____

>  <TORSDO>
F 13

$$$$
=
 OpenBabel11052419493D

 55 62  0  0  1  0  0  0  0  0999 V2000
  192.4900  175.4620  147.2890 C   0  0  0  0  0  2  0  0  0  0  0  0
  190.3980  177.1950  145.5170 O   0  0  0  0  0  1  0  0  0  0  0  0
  196.5790  174.5530  142.6950 C   0  0  2  0  0  0  0  0  0  0  0  0
  194.6890  172.6830  144.5940 C   0  0  1  0  0  3  0  0  0  0  0  0
  195.3540  172.6830  143.2240 C   0  0  0  0  0  2  0  0  0  0  0  0
  191.6860  173.4320  144.6000 O   0  0  0  0  0  0  0  0  0  0  0  0
  197.5870  176.5490  143.1640 C   0  0  0  0  0  2  0  0  0  0  0  0
  197.8270  175.1810  142.9110 O   0  0  0  0  0  0  0  0  0  0  0  0
  192.4140  172.7230  143.7660 O   0  0  0  0  0  0  0  0  0  0  0  0
  189.9930  175.1330  144.3650 C   0  0  1  0  0  3  0  0  0  0  0  0
  195.5190  175.4440  143.3740 C   0  0  2  0  0  3  0  0  0  0  0  0
  194.8510  173.9260  145.5090 C   0  0  1  0  0  3  0  0  0  0  0  0
  193.2990  172.0370  144.6050 C   0  0  1  0  0  3  0  0  0  0  0  0
  190.5000  173.7510  143.9310 C   0  0  1  0  0  3  0  0  0  0  0  0
  193.6240  175.9680  146.3910 C   0  0  0  0  0  2  0  0  0  0  0  0
  191.1320  175.2030  146.6190 C   0  0  0  0  0  2  0  0  0  0  0  0
  190.9270  175.9250  145.2870 C   0  0  2  0  0  3  0  0  0  0  0  0
  196.0980  176.8080  143.1860 C   0  0  0  0  0  2  0  0  0  0  0  0
  195.4020  175.2270  144.8920 C   0  0  2  0  0  3  0  0  0  0  0  0
  190.6860  174.9570  143.0160 C   0  0  1  0  0  3  0  0  0  0  0  0
  196.6300  173.2680  143.2920 O   0  0  0  0  0  0  0  0  0  0  0  0
  193.9240  175.0840  145.1860 C   0  0  1  0  0  3  0  0  0  0  0  0
  196.4910  173.1140  140.6790 O   0  0  0  0  0  0  0  0  0  0  0  0
  197.7010  175.1620  140.1460 S   0  0  0  0  0  0  0  0  0  0  0  0
  197.5570  173.3900  139.8110 C   0  0  0  0  0  2  0  0  0  0  0  0
  196.3570  174.4370  141.1360 C   0  0  2  0  0  0  0  0  0  0  0  0
  195.0200  175.0330  140.6630 C   0  0  0  0  0  2  0  0  0  0  0  0
  194.4840  174.3880  139.3840 C   0  0  1  0  0  3  0  0  0  0  0  0
  193.0200  172.6360  140.4820 C   0  0  0  0  0  1  0  0  0  0  0  0
  193.0650  173.8520  139.5670 C   0  0  0  0  0  2  0  0  0  0  0  0
  194.5230  175.3090  138.3350 O   0  0  0  0  0  0  0  0  0  0  0  0
  194.7230  174.5360  137.1890 C   0  0  0  0  0  1  0  0  0  0  0  0
  193.3830  170.5680  144.2050 C   0  0  0  0  0  2  0  0  0  0  0  0
  194.4570  169.8360  144.9930 C   0  0  0  0  0  2  0  0  0  0  0  0
  195.2510  169.0810  144.1320 O   0  0  0  0  0  1  0  0  0  0  0  0
  189.6910  174.9380  141.8350 C   0  0  1  0  0  3  0  0  0  0  0  0
  188.6760  173.7960  141.9260 C   0  0  0  0  0  2  0  0  0  0  0  0
  188.9160  172.7490  140.8920 C   0  0  0  0  0  0  0  0  0  0  0  0
  190.1320  170.6660  140.2240 C   0  0  0  0  0  3  0  0  0  0  0  0
  189.1370  172.9850  138.4350 C   0  0  0  0  0  0  0  0  0  0  0  0
  188.1990  172.8660  139.5880 C   0  0  0  0  0  2  0  0  0  0  0  0
  190.2440  170.7910  138.8970 C   0  0  0  0  0  3  0  0  0  0  0  0
  189.7260  171.7230  141.1710 C   0  0  0  0  0  3  0  0  0  0  0  0
  189.0060  174.1570  137.5300 C   0  0  0  0  0  1  0  0  0  0  0  0
  189.9840  172.0100  138.1040 C   0  0  0  0  0  3  0  0  0  0  0  0
  189.0140  176.1840  141.6660 O   0  0  0  0  0  0  0  0  0  0  0  0
  188.2460  177.8340  143.3000 C   0  0  0  0  0  3  0  0  0  0  0  0
  186.0730  177.5590  144.3440 C   0  0  0  0  0  0  0  0  0  0  0  0
  186.8630  175.9360  142.7210 C   0  0  0  0  0  3  0  0  0  0  0  0
  185.8780  176.3830  143.6070 C   0  0  0  0  0  3  0  0  0  0  0  0
  187.2630  178.2810  144.1870 C   0  0  0  0  0  3  0  0  0  0  0  0
  188.0500  176.6570  142.5610 C   0  0  0  0  0  0  0  0  0  0  0  0
  185.0390  178.0350  145.2780 C   0  0  0  0  0  0  0  0  0  0  0  0
  185.1160  177.7680  146.5060 O   0  0  0  0  0  1  0  0  0  0  0  0
  183.9650  178.7820  144.8100 O   0  0  0  0  0  0  0  0  0  0  0  0
  3  8  1  1  0  0  0
  3 21  1  0  0  0  0
  3 11  1  0  0  0  0
  4  5  1  6  0  0  0
  4 13  1  0  0  0  0
  4 12  1  0  0  0  0
  5 21  1  0  0  0  0
  7 18  1  0  0  0  0
  8  7  1  0  0  0  0
  9  6  1  0  0  0  0
  9 13  1  0  0  0  0
 10 17  1  0  0  0  0
 11 19  1  0  0  0  0
 14 10  1  0  0  0  0
 14  6  1  0  0  0  0
 15  1  1  0  0  0  0
 16  1  1  0  0  0  0
 17  2  1  0  0  0  0
 17 16  1  0  0  0  0
 18 11  1  0  0  0  0
 19 22  1  0  0  0  0
 19 12  1  0  0  0  0
 20 14  1  0  0  0  0
 20 10  1  0  0  0  0
 22 12  1  0  0  0  0
 22 15  1  0  0  0  0
 23 26  1  0  0  0  0
 24 26  1  0  0  0  0
 25 24  1  0  0  0  0
 25 23  1  0  0  0  0
 26  3  1  0  0  0  0
 27 26  1  0  0  0  0
 28 30  1  0  0  0  0
 28 27  1  0  0  0  0
 30 29  1  0  0  0  0
 31 28  1  0  0  0  0
 32 31  1  0  0  0  0
 33 13  1  0  0  0  0
 33 34  1  0  0  0  0
 35 34  1  0  0  0  0
 36 37  1  0  0  0  0
 36 20  1  0  0  0  0
 38 43  2  0  0  0  0
 38 37  1  0  0  0  0
 39 43  1  0  0  0  0
 40 41  1  0  0  0  0
 41 38  1  0  0  0  0
 42 39  2  0  0  0  0
 44 40  1  0  0  0  0
 45 40  2  0  0  0  0
 45 42  1  0  0  0  0
 46 36  1  0  0  0  0
 46 52  1  0  0  0  0
 47 51  1  0  0  0  0
 48 53  1  0  0  0  0
 49 50  2  0  0  0  0
 50 48  1  0  0  0  0
 51 48  2  0  0  0  0
 52 49  1  0  0  0  0
 52 47  2  0  0  0  0
 53 54  1  0  0  0  0
 55 53  2  0  0  0  0
M  END
>  <MODEL>
7

>  <REMARK>
 VINA RESULT:      -6.3      2.096      4.832
  Name = 
  13 active torsions:
  status: ('A' for Active; 'I' for Inactive)
    1  A    between atoms: C_2  and  C_28
    2  A    between atoms: C_6  and  C_53
    3  A    between atoms: C_10  and  C_32
    4  A    between atoms: C_11  and  C_29
    5  A    between atoms: C_16  and  C_17
    6  A    between atoms: C_17  and  C_23
    7  A    between atoms: O_25  and  C_29
    8  A    between atoms: C_28  and  C_49
    9  A    between atoms: C_29  and  C_38
   10  A    between atoms: O_33  and  C_49
   11  A    between atoms: O_33  and  C_52
   12  A    between atoms: C_38  and  C_53
   13  A    between atoms: C_45  and  C_49
                            x       y       z     vdW  Elec       q    Type
                         _______ _______ _______ _____ _____    ______ ____

>  <TORSDO>
F 13

$$$$
=
 OpenBabel11052419493D

 55 62  0  0  1  0  0  0  0  0999 V2000
  193.9000  176.7760  146.1800 C   0  0  0  0  0  2  0  0  0  0  0  0
  191.0720  177.8340  144.9980 O   0  0  0  0  0  1  0  0  0  0  0  0
  195.6290  173.7610  141.0250 C   0  0  2  0  0  0  0  0  0  0  0  0
  194.9760  172.9740  144.1280 C   0  0  1  0  0  3  0  0  0  0  0  0
  194.9680  172.3700  142.7300 C   0  0  0  0  0  2  0  0  0  0  0  0
  192.2190  173.9210  145.1700 O   0  0  0  0  0  0  0  0  0  0  0  0
  196.5210  175.6820  140.1700 C   0  0  0  0  0  2  0  0  0  0  0  0
  196.7700  174.3120  140.3980 O   0  0  0  0  0  0  0  0  0  0  0  0
  192.5790  172.8780  144.4540 O   0  0  0  0  0  0  0  0  0  0  0  0
  190.4250  175.5280  145.0620 C   0  0  1  0  0  3  0  0  0  0  0  0
  194.8870  174.9370  141.6910 C   0  0  2  0  0  3  0  0  0  0  0  0
  195.3900  174.4600  144.3040 C   0  0  1  0  0  3  0  0  0  0  0  0
  193.8100  172.5090  145.0080 C   0  0  1  0  0  3  0  0  0  0  0  0
  190.8340  174.0490  145.0310 C   0  0  1  0  0  3  0  0  0  0  0  0
  194.4650  176.7820  144.7540 C   0  0  0  0  0  2  0  0  0  0  0  0
  192.4230  176.3910  146.3440 C   0  0  0  0  0  2  0  0  0  0  0  0
  191.5780  176.5380  145.0790 C   0  0  2  0  0  3  0  0  0  0  0  0
  195.1750  176.0580  140.7470 C   0  0  0  0  0  2  0  0  0  0  0  0
  195.4720  175.3540  143.0500 C   0  0  2  0  0  3  0  0  0  0  0  0
  190.4700  174.7700  143.7380 C   0  0  1  0  0  3  0  0  0  0  0  0
  196.0740  172.8200  141.9890 O   0  0  0  0  0  0  0  0  0  0  0  0
  194.2970  175.4690  143.9990 C   0  0  1  0  0  3  0  0  0  0  0  0
  194.4590  171.7190  140.2450 O   0  0  0  0  0  0  0  0  0  0  0  0
  195.6680  172.7110  138.3750 S   0  0  0  0  0  0  0  0  0  0  0  0
  195.0940  171.1680  139.1240 C   0  0  0  0  0  2  0  0  0  0  0  0
  194.7590  173.0530  139.9130 C   0  0  2  0  0  0  0  0  0  0  0  0
  193.4720  173.8200  139.5650 C   0  0  0  0  0  2  0  0  0  0  0  0
  193.3760  174.2100  138.0900 C   0  0  1  0  0  3  0  0  0  0  0  0
  191.8860  172.8660  136.5430 C   0  0  0  0  0  1  0  0  0  0  0  0
  191.9640  174.0150  137.5390 C   0  0  0  0  0  2  0  0  0  0  0  0
  193.7830  175.5350  137.9210 O   0  0  0  0  0  0  0  0  0  0  0  0
  194.0770  175.6470  136.5600 C   0  0  0  0  0  1  0  0  0  0  0  0
  193.8650  171.0010  145.2260 C   0  0  0  0  0  2  0  0  0  0  0  0
  195.1590  170.5840  145.9060 C   0  0  0  0  0  2  0  0  0  0  0  0
  194.9760  169.3820  146.5870 O   0  0  0  0  0  1  0  0  0  0  0  0
  189.0650  174.3680  143.2350 C   0  0  1  0  0  3  0  0  0  0  0  0
  188.6900  175.0380  141.9110 C   0  0  0  0  0  2  0  0  0  0  0  0
  187.6330  176.0760  142.0870 C   0  0  0  0  0  0  0  0  0  0  0  0
  186.6650  178.2650  141.3550 C   0  0  0  0  0  3  0  0  0  0  0  0
  186.6600  176.9920  144.1740 C   0  0  0  0  0  0  0  0  0  0  0  0
  186.6300  175.8840  143.1760 C   0  0  0  0  0  2  0  0  0  0  0  0
  186.1330  178.7540  142.4810 C   0  0  0  0  0  3  0  0  0  0  0  0
  187.5880  177.1170  141.2510 C   0  0  0  0  0  3  0  0  0  0  0  0
  186.8720  176.6520  145.6060 C   0  0  0  0  0  1  0  0  0  0  0  0
  186.3580  178.2490  143.8510 C   0  0  0  0  0  3  0  0  0  0  0  0
  188.9010  172.9540  143.1340 O   0  0  0  0  0  0  0  0  0  0  0  0
  190.4350  171.1290  142.5880 C   0  0  0  0  0  3  0  0  0  0  0  0
  190.9190  170.6300  140.2630 C   0  0  0  0  0  0  0  0  0  0  0  0
  189.4030  172.4380  140.8350 C   0  0  0  0  0  3  0  0  0  0  0  0
  190.0670  171.6720  139.8720 C   0  0  0  0  0  3  0  0  0  0  0  0
  191.1010  170.3640  141.6260 C   0  0  0  0  0  3  0  0  0  0  0  0
  189.5810  172.1710  142.1960 C   0  0  0  0  0  0  0  0  0  0  0  0
  191.6210  169.8210  139.2540 C   0  0  0  0  0  0  0  0  0  0  0  0
  191.4080  170.0060  138.0260 O   0  0  0  0  0  0  0  0  0  0  0  0
  192.5230  168.8400  139.6480 O   0  0  0  0  0  1  0  0  0  0  0  0
  1 16  1  0  0  0  0
  2 17  1  0  0  0  0
  3  8  1  6  0  0  0
  3 11  1  0  0  0  0
  3 21  1  0  0  0  0
  4  5  1  6  0  0  0
  4 12  1  0  0  0  0
  4 13  1  0  0  0  0
  7  8  1  0  0  0  0
  7 18  1  0  0  0  0
  9 13  1  0  0  0  0
  9  6  1  0  0  0  0
 10 17  1  0  0  0  0
 11 19  1  0  0  0  0
 13 33  1  0  0  0  0
 14 10  1  0  0  0  0
 14  6  1  0  0  0  0
 15  1  1  0  0  0  0
 17 16  1  0  0  0  0
 18 11  1  0  0  0  0
 19 22  1  0  0  0  0
 19 12  1  0  0  0  0
 20 14  1  0  0  0  0
 20 10  1  0  0  0  0
 21  5  1  0  0  0  0
 22 12  1  0  0  0  0
 22 15  1  0  0  0  0
 24 25  1  0  0  0  0
 24 26  1  0  0  0  0
 25 23  1  0  0  0  0
 26 23  1  0  0  0  0
 26  3  1  0  0  0  0
 27 26  1  0  0  0  0
 28 27  1  0  0  0  0
 29 30  1  0  0  0  0
 30 28  1  0  0  0  0
 31 28  1  0  0  0  0
 32 31  1  0  0  0  0
 33 34  1  0  0  0  0
 34 35  1  0  0  0  0
 36 20  1  0  0  0  0
 37 38  1  0  0  0  0
 37 36  1  0  0  0  0
 38 41  1  0  0  0  0
 39 42  2  0  0  0  0
 40 44  1  0  0  0  0
 41 40  1  0  0  0  0
 42 45  1  0  0  0  0
 43 39  1  0  0  0  0
 43 38  2  0  0  0  0
 45 40  2  0  0  0  0
 46 36  1  0  0  0  0
 48 51  1  0  0  0  0
 49 52  2  0  0  0  0
 50 48  2  0  0  0  0
 50 49  1  0  0  0  0
 51 47  2  0  0  0  0
 52 47  1  0  0  0  0
 52 46  1  0  0  0  0
 53 55  1  0  0  0  0
 53 48  1  0  0  0  0
 54 53  2  0  0  0  0
M  END
>  <MODEL>
8

>  <REMARK>
 VINA RESULT:      -6.3      2.286      4.761
  Name = 
  13 active torsions:
  status: ('A' for Active; 'I' for Inactive)
    1  A    between atoms: C_2  and  C_28
    2  A    between atoms: C_6  and  C_53
    3  A    between atoms: C_10  and  C_32
    4  A    between atoms: C_11  and  C_29
    5  A    between atoms: C_16  and  C_17
    6  A    between atoms: C_17  and  C_23
    7  A    between atoms: O_25  and  C_29
    8  A    between atoms: C_28  and  C_49
    9  A    between atoms: C_29  and  C_38
   10  A    between atoms: O_33  and  C_49
   11  A    between atoms: O_33  and  C_52
   12  A    between atoms: C_38  and  C_53
   13  A    between atoms: C_45  and  C_49
                            x       y       z     vdW  Elec       q    Type
                         _______ _______ _______ _____ _____    ______ ____

>  <TORSDO>
F 13

$$$$
=
 OpenBabel11052419493D

 55 62  0  0  1  0  0  0  0  0999 V2000
  192.1280  169.9590  138.0170 C   0  0  0  0  0  2  0  0  0  0  0  0
  189.9970  170.0750  140.4600 O   0  0  0  0  0  1  0  0  0  0  0  0
  196.4990  173.3480  140.8560 C   0  0  2  0  0  0  0  0  0  0  0  0
  194.6700  173.6120  138.1620 C   0  0  1  0  0  3  0  0  0  0  0  0
  195.4000  174.4750  139.1820 C   0  0  0  0  0  2  0  0  0  0  0  0
  191.6200  173.3340  138.6140 O   0  0  0  0  0  0  0  0  0  0  0  0
  197.3230  171.4780  141.8760 C   0  0  0  0  0  2  0  0  0  0  0  0
  197.6810  172.6290  141.1430 O   0  0  0  0  0  0  0  0  0  0  0  0
  192.4430  174.3490  138.7610 O   0  0  0  0  0  0  0  0  0  0  0  0
  189.8130  172.3990  139.9080 C   0  0  1  0  0  3  0  0  0  0  0  0
  195.3400  172.3350  140.9400 C   0  0  2  0  0  3  0  0  0  0  0  0
  194.6890  172.0690  138.3300 C   0  0  1  0  0  3  0  0  0  0  0  0
  193.3360  174.2050  137.6940 C   0  0  1  0  0  3  0  0  0  0  0  0
  190.4480  173.6580  139.3030 C   0  0  1  0  0  3  0  0  0  0  0  0
  193.2630  170.0900  139.0400 C   0  0  0  0  0  2  0  0  0  0  0  0
  190.8300  170.7250  138.3130 C   0  0  0  0  0  2  0  0  0  0  0  0
  190.6350  171.1120  139.7790 C   0  0  2  0  0  3  0  0  0  0  0  0
  195.8180  171.4090  142.0100 C   0  0  0  0  0  2  0  0  0  0  0  0
  195.1650  171.4810  139.6740 C   0  0  2  0  0  3  0  0  0  0  0  0
  190.5830  173.3740  140.7950 C   0  0  1  0  0  3  0  0  0  0  0  0
  196.6210  173.8840  139.5490 O   0  0  0  0  0  0  0  0  0  0  0  0
  193.6900  171.5230  139.3360 C   0  0  1  0  0  3  0  0  0  0  0  0
  196.9850  175.6930  141.4980 O   0  0  0  0  0  0  0  0  0  0  0  0
  197.3650  174.2440  143.4200 S   0  0  0  0  0  0  0  0  0  0  0  0
  197.8900  175.7500  142.5670 C   0  0  0  0  0  2  0  0  0  0  0  0
  196.3640  174.5050  141.9240 C   0  0  2  0  0  0  0  0  0  0  0  0
  194.9110  174.7820  142.3440 C   0  0  0  0  0  2  0  0  0  0  0  0
  194.6540  174.5530  143.8340 C   0  0  1  0  0  3  0  0  0  0  0  0
  194.9690  176.7260  145.0980 C   0  0  0  0  0  1  0  0  0  0  0  0
  193.9700  175.7550  144.4860 C   0  0  0  0  0  2  0  0  0  0  0  0
  193.8850  173.4010  144.0140 O   0  0  0  0  0  0  0  0  0  0  0  0
  193.7300  173.2890  145.3970 C   0  0  0  0  0  1  0  0  0  0  0  0
  193.5540  175.5440  136.9980 C   0  0  0  0  0  2  0  0  0  0  0  0
  194.9470  175.6380  136.3960 C   0  0  0  0  0  2  0  0  0  0  0  0
  194.8620  175.9120  135.0320 O   0  0  0  0  0  1  0  0  0  0  0  0
  189.6530  174.2750  141.6360 C   0  0  1  0  0  3  0  0  0  0  0  0
  190.4040  175.3820  142.3790 C   0  0  0  0  0  2  0  0  0  0  0  0
  190.2790  175.2490  143.8600 C   0  0  0  0  0  0  0  0  0  0  0  0
  189.9810  173.7430  145.8370 C   0  0  0  0  0  3  0  0  0  0  0  0
  189.0340  176.6650  145.4680 C   0  0  0  0  0  0  0  0  0  0  0  0
  190.2910  176.4930  144.6840 C   0  0  0  0  0  2  0  0  0  0  0  0
  189.3160  174.5110  146.7070 C   0  0  0  0  0  3  0  0  0  0  0  0
  190.2000  174.0320  144.4050 C   0  0  0  0  0  3  0  0  0  0  0  0
  188.2570  177.9210  145.2970 C   0  0  0  0  0  1  0  0  0  0  0  0
  188.6650  175.8060  146.4180 C   0  0  0  0  0  3  0  0  0  0  0  0
  188.5870  174.8340  140.8680 O   0  0  0  0  0  0  0  0  0  0  0  0
  187.3100  176.9180  140.7560 C   0  0  0  0  0  3  0  0  0  0  0  0
  185.7350  177.4500  142.5230 C   0  0  0  0  0  0  0  0  0  0  0  0
  187.0180  175.3910  142.6090 C   0  0  0  0  0  3  0  0  0  0  0  0
  186.0680  176.2510  143.1680 C   0  0  0  0  0  3  0  0  0  0  0  0
  186.3620  177.7790  141.3140 C   0  0  0  0  0  3  0  0  0  0  0  0
  187.6430  175.7170  141.4020 C   0  0  0  0  0  0  0  0  0  0  0  0
  184.7350  178.3600  143.1060 C   0  0  0  0  0  0  0  0  0  0  0  0
  183.5480  178.3590  142.6840 O   0  0  0  0  0  0  0  0  0  0  0  0
  185.0940  179.2300  144.1270 O   0  0  0  0  0  1  0  0  0  0  0  0
  1 16  1  0  0  0  0
  1 15  1  0  0  0  0
  3 21  1  6  0  0  0
  3 11  1  0  0  0  0
  3  8  1  0  0  0  0
  3 26  1  0  0  0  0
  4 12  1  0  0  0  0
  4  5  1  1  0  0  0
  5 21  1  0  0  0  0
  6  9  1  0  0  0  0
  6 14  1  0  0  0  0
  7 18  1  0  0  0  0
  8  7  1  0  0  0  0
 10 20  1  0  0  0  0
 11 18  1  0  0  0  0
 12 22  1  0  0  0  0
 12 19  1  0  0  0  0
 13  4  1  0  0  0  0
 13  9  1  0  0  0  0
 14 10  1  0  0  0  0
 14 20  1  0  0  0  0
 15 22  1  0  0  0  0
 16 17  1  0  0  0  0
 17 10  1  0  0  0  0
 17  2  1  0  0  0  0
 19 11  1  0  0  0  0
 20 36  1  0  0  0  0
 22 19  1  0  0  0  0
 23 26  1  0  0  0  0
 23 25  1  0  0  0  0
 25 24  1  0  0  0  0
 26 27  1  0  0  0  0
 26 24  1  0  0  0  0
 27 28  1  0  0  0  0
 28 31  1  0  0  0  0
 28 30  1  0  0  0  0
 30 29  1  0  0  0  0
 31 32  1  0  0  0  0
 33 13  1  0  0  0  0
 34 33  1  0  0  0  0
 35 34  1  0  0  0  0
 36 37  1  0  0  0  0
 37 38  1  0  0  0  0
 38 43  2  0  0  0  0
 38 41  1  0  0  0  0
 39 42  2  0  0  0  0
 40 45  2  0  0  0  0
 41 40  1  0  0  0  0
 43 39  1  0  0  0  0
 44 40  1  0  0  0  0
 45 42  1  0  0  0  0
 46 52  1  0  0  0  0
 46 36  1  0  0  0  0
 47 51  2  0  0  0  0
 47 52  1  0  0  0  0
 48 53  1  0  0  0  0
 48 50  2  0  0  0  0
 49 50  1  0  0  0  0
 51 48  1  0  0  0  0
 52 49  2  0  0  0  0
 53 55  1  0  0  0  0
 54 53  2  0  0  0  0
M  END
>  <MODEL>
9

>  <REMARK>
 VINA RESULT:      -6.3      2.071      5.370
  Name = 
  13 active torsions:
  status: ('A' for Active; 'I' for Inactive)
    1  A    between atoms: C_2  and  C_28
    2  A    between atoms: C_6  and  C_53
    3  A    between atoms: C_10  and  C_32
    4  A    between atoms: C_11  and  C_29
    5  A    between atoms: C_16  and  C_17
    6  A    between atoms: C_17  and  C_23
    7  A    between atoms: O_25  and  C_29
    8  A    between atoms: C_28  and  C_49
    9  A    between atoms: C_29  and  C_38
   10  A    between atoms: O_33  and  C_49
   11  A    between atoms: O_33  and  C_52
   12  A    between atoms: C_38  and  C_53
   13  A    between atoms: C_45  and  C_49
                            x       y       z     vdW  Elec       q    Type
                         _______ _______ _______ _____ _____    ______ ____

>  <TORSDO>
F 13

$$$$
