=
 OpenBabel11052421103D

 43 49  0  0  1  0  0  0  0  0999 V2000
  189.1580  173.2660  138.8310 C   0  0  0  0  0  0  0  0  0  0  0  0
  187.3800  177.4780  140.9120 C   0  0  1  0  0  3  0  0  0  0  0  0
  187.7810  175.2040  139.3190 C   0  0  0  0  0  0  0  0  0  0  0  0
  189.6290  173.2600  140.1460 C   0  0  0  0  0  3  0  0  0  0  0  0
  189.6340  172.2380  137.8700 C   0  0  0  0  0  1  0  0  0  0  0  0
  188.2790  175.2150  140.6470 C   0  0  0  0  0  0  0  0  0  0  0  0
  188.2380  174.2340  138.4200 C   0  0  0  0  0  3  0  0  0  0  0  0
  189.1840  174.2260  141.0520 C   0  0  0  0  0  3  0  0  0  0  0  0
  188.5610  176.6390  142.8080 C   0  0  1  0  0  3  0  0  0  0  0  0
  187.7020  176.1970  141.6300 C   0  0  1  0  0  3  0  0  0  0  0  0
  186.2840  177.2140  139.8920 C   0  0  0  0  0  2  0  0  0  0  0  0
  187.1380  178.4930  142.0060 C   0  0  2  0  0  3  0  0  0  0  0  0
  188.2050  178.1120  143.0340 C   0  0  0  0  0  2  0  0  0  0  0  0
  186.8330  176.2710  138.8080 C   0  0  0  0  0  2  0  0  0  0  0  0
  185.7370  178.3500  142.6100 C   0  0  0  0  0  2  0  0  0  0  0  0
  185.4420  179.4500  143.6230 C   0  0  0  0  0  2  0  0  0  0  0  0
  184.9690  176.6980  146.2770 C   0  0  0  0  0  2  0  0  0  0  0  0
  185.7820  179.3080  147.4050 C   0  0  0  0  0  2  0  0  0  0  0  0
  186.2230  178.0050  148.0760 C   0  0  0  0  0  2  0  0  0  0  0  0
  185.3070  177.3540  144.9430 C   0  0  0  0  0  2  0  0  0  0  0  0
  185.2380  178.8760  145.0170 C   0  0  0  0  0  3  0  0  0  0  0  0
  186.1840  176.7530  147.1910 C   0  0  0  0  0  2  0  0  0  0  0  0
  186.2820  179.4420  145.9750 C   0  0  0  0  0  2  0  0  0  0  0  0
  188.1750  175.8640  144.0610 C   0  0  0  0  0  2  0  0  0  0  0  0
  189.3410  175.7490  145.0290 C   0  0  1  0  0  3  0  0  0  0  0  0
  191.6000  175.0680  147.2870 C   0  0  0  0  0  1  0  0  0  0  0  0
  192.4170  175.2820  146.0100 C   0  0  2  0  0  0  0  0  0  0  0  0
  190.5930  175.3870  144.3210 C   0  0  2  0  0  3  0  0  0  0  0  0
  189.7120  177.1060  145.5460 C   0  0  0  0  0  2  0  0  0  0  0  0
  190.8320  173.8820  144.2710 C   0  0  0  0  0  2  0  0  0  0  0  0
  191.6640  176.1060  145.0250 N   0  0  1  0  0  0  0  0  0  0  0  0
  192.7500  173.8820  145.4350 C   0  0  0  0  0  2  0  0  0  0  0  0
  191.1180  177.1930  145.6600 O   0  0  0  0  0  0  0  0  0  0  0  0
  192.2090  173.6600  144.1560 O   0  0  0  0  0  0  0  0  0  0  0  0
  193.7250  176.0170  146.3420 C   0  0  0  0  0  2  0  0  0  0  0  0
  194.3680  176.7440  145.1590 C   0  0  1  0  0  3  0  0  0  0  0  0
  194.7010  178.0310  145.5380 F   0  0  0  0  0  0  0  0  0  0  0  0
  195.5920  176.0320  144.6830 C   0  0  0  0  0  0  0  0  0  0  0  0
  197.0040  175.4210  142.7260 C   0  0  0  0  0  2  0  0  0  0  0  0
  197.2120  174.2790  144.8900 C   0  0  0  0  0  3  0  0  0  0  0  0
  197.7110  174.4890  143.6690 C   0  0  0  0  0  3  0  0  0  0  0  0
  196.0520  175.0000  145.3340 N   0  0  0  0  0  0  0  0  0  0  0  0
  196.3380  176.5680  143.4920 C   0  0  0  0  0  2  0  0  0  0  0  0
  1  4  1  0  0  0  0
  2 11  1  1  0  0  0
  2 10  1  0  0  0  0
  2 12  1  0  0  0  0
  3  6  2  0  0  0  0
  4  8  2  0  0  0  0
  5  1  1  0  0  0  0
  6  8  1  0  0  0  0
  7  1  2  0  0  0  0
  7  3  1  0  0  0  0
  9 13  1  0  0  0  0
  9 24  1  1  0  0  0
 10  6  1  6  0  0  0
 10  9  1  0  0  0  0
 12 15  1  1  0  0  0
 12 13  1  0  0  0  0
 14  3  1  0  0  0  0
 14 11  1  0  0  0  0
 15 16  1  0  0  0  0
 16 21  1  0  0  0  0
 17 22  1  0  0  0  0
 18 19  1  0  0  0  0
 20 21  1  0  0  0  0
 20 17  1  0  0  0  0
 21 23  1  0  0  0  0
 22 19  1  0  0  0  0
 23 18  1  0  0  0  0
 25 24  1  6  0  0  0
 25 29  1  0  0  0  0
 27 35  1  0  0  0  0
 27 26  1  1  0  0  0
 28 30  1  1  0  0  0
 28 31  1  0  0  0  0
 28 25  1  0  0  0  0
 29 33  1  0  0  0  0
 31 33  1  1  0  0  0
 31 27  1  0  0  0  0
 32 27  1  0  0  0  0
 34 30  1  0  0  0  0
 34 32  1  0  0  0  0
 36 37  1  1  0  0  0
 36 35  1  0  0  0  0
 38 36  1  0  0  0  0
 38 42  2  0  0  0  0
 39 43  1  0  0  0  0
 39 41  1  0  0  0  0
 40 42  1  0  0  0  0
 41 40  2  0  0  0  0
 43 38  1  0  0  0  0
M  END
>  <MODEL>
1

>  <REMARK>
 VINA RESULT:      -9.0      0.000      0.000
  Name = 
  8 active torsions:
  status: ('A' for Active; 'I' for Inactive)
    1  A    between atoms: C_1  and  C_28
    2  A    between atoms: C_1  and  C_34
    3  A    between atoms: C_2  and  C_13
    4  A    between atoms: C_4  and  C_22
    5  A    between atoms: C_11  and  C_14
    6  A    between atoms: C_13  and  C_27
    7  A    between atoms: C_14  and  C_22
    8  A    between atoms: C_28  and  C_35
                            x       y       z     vdW  Elec       q    Type
                         _______ _______ _______ _____ _____    ______ ____

>  <TORSDO>
F 8

$$$$
=
 OpenBabel11052421103D

 43 49  0  0  1  0  0  0  0  0999 V2000
  184.5540  178.5920  144.0190 C   0  0  0  0  0  0  0  0  0  0  0  0
  188.8430  177.1410  146.1940 C   0  0  1  0  0  3  0  0  0  0  0  0
  186.1630  177.4340  145.4200 C   0  0  0  0  0  0  0  0  0  0  0  0
  185.5590  178.8880  143.0960 C   0  0  0  0  0  3  0  0  0  0  0  0
  183.1610  179.0440  143.7690 C   0  0  0  0  0  1  0  0  0  0  0  0
  187.1890  177.7570  144.4950 C   0  0  0  0  0  0  0  0  0  0  0  0
  184.8560  177.8680  145.1760 C   0  0  0  0  0  3  0  0  0  0  0  0
  186.8700  178.4640  143.3300 C   0  0  0  0  0  3  0  0  0  0  0  0
  189.7620  177.9510  144.1450 C   0  0  1  0  0  3  0  0  0  0  0  0
  188.5680  177.1960  144.7170 C   0  0  1  0  0  3  0  0  0  0  0  0
  187.8830  176.1580  146.8420 C   0  0  0  0  0  2  0  0  0  0  0  0
  190.3320  176.9000  146.3080 C   0  0  2  0  0  3  0  0  0  0  0  0
  190.8810  177.7690  145.1750 C   0  0  0  0  0  2  0  0  0  0  0  0
  186.4520  176.7090  146.7200 C   0  0  0  0  0  2  0  0  0  0  0  0
  190.6850  175.4280  146.0740 C   0  0  0  0  0  2  0  0  0  0  0  0
  191.9670  175.0320  146.7970 C   0  0  0  0  0  2  0  0  0  0  0  0
  195.4530  175.6780  145.2910 C   0  0  0  0  0  2  0  0  0  0  0  0
  194.2200  173.1480  144.3860 C   0  0  0  0  0  2  0  0  0  0  0  0
  195.7410  173.2590  144.5270 C   0  0  0  0  0  2  0  0  0  0  0  0
  194.3060  175.6880  146.2940 C   0  0  0  0  0  2  0  0  0  0  0  0
  193.1190  174.8560  145.8200 C   0  0  0  0  0  3  0  0  0  0  0  0
  196.2440  174.3860  145.4360 C   0  0  0  0  0  2  0  0  0  0  0  0
  193.4800  173.3790  145.6940 C   0  0  0  0  0  2  0  0  0  0  0  0
  190.2130  177.3100  142.8400 C   0  0  0  0  0  2  0  0  0  0  0  0
  190.3280  175.8000  142.9690 C   0  0  1  0  0  3  0  0  0  0  0  0
  190.2840  172.6140  143.6890 C   0  0  0  0  0  1  0  0  0  0  0  0
  189.8560  172.6600  142.2200 C   0  0  2  0  0  0  0  0  0  0  0  0
  189.5420  175.1090  141.9180 C   0  0  2  0  0  3  0  0  0  0  0  0
  191.7110  175.3580  142.5980 C   0  0  0  0  0  2  0  0  0  0  0  0
  188.1220  174.7740  142.3630 C   0  0  0  0  0  2  0  0  0  0  0  0
  190.3200  173.9150  141.5650 N   0  0  1  0  0  0  0  0  0  0  0  0
  188.3120  172.5450  142.1850 C   0  0  0  0  0  2  0  0  0  0  0  0
  191.6360  174.1390  141.8870 O   0  0  0  0  0  0  0  0  0  0  0  0
  187.6800  173.6710  141.6250 O   0  0  0  0  0  0  0  0  0  0  0  0
  190.4690  171.4740  141.4590 C   0  0  0  0  0  2  0  0  0  0  0  0
  190.9180  170.3090  142.3440 C   0  0  1  0  0  3  0  0  0  0  0  0
  190.4370  169.1230  141.8190 F   0  0  0  0  0  0  0  0  0  0  0  0
  192.4070  170.2430  142.4430 C   0  0  0  0  0  0  0  0  0  0  0  0
  194.5660  170.2340  141.2060 C   0  0  0  0  0  2  0  0  0  0  0  0
  194.4040  169.5210  143.5500 C   0  0  0  0  0  3  0  0  0  0  0  0
  195.1880  169.8450  142.5180 C   0  0  0  0  0  3  0  0  0  0  0  0
  192.9760  169.6230  143.4380 N   0  0  0  0  0  0  0  0  0  0  0  0
  193.2450  170.9730  141.4290 C   0  0  0  0  0  2  0  0  0  0  0  0
  1  7  1  0  0  0  0
  2 12  1  0  0  0  0
  2 11  1  6  0  0  0
  3 14  1  0  0  0  0
  4  8  1  0  0  0  0
  4  1  2  0  0  0  0
  5  1  1  0  0  0  0
  6  3  1  0  0  0  0
  7  3  2  0  0  0  0
  8  6  2  0  0  0  0
  9 24  1  6  0  0  0
  9 10  1  0  0  0  0
  9 13  1  0  0  0  0
 10  6  1  1  0  0  0
 10  2  1  0  0  0  0
 12 15  1  6  0  0  0
 13 12  1  0  0  0  0
 14 11  1  0  0  0  0
 15 16  1  0  0  0  0
 17 22  1  0  0  0  0
 17 20  1  0  0  0  0
 18 19  1  0  0  0  0
 18 23  1  0  0  0  0
 19 22  1  0  0  0  0
 21 20  1  0  0  0  0
 21 16  1  0  0  0  0
 23 21  1  0  0  0  0
 25 24  1  6  0  0  0
 27 26  1  1  0  0  0
 28 30  1  1  0  0  0
 28 25  1  0  0  0  0
 29 25  1  0  0  0  0
 31 33  1  1  0  0  0
 31 28  1  0  0  0  0
 31 27  1  0  0  0  0
 32 27  1  0  0  0  0
 33 29  1  0  0  0  0
 34 32  1  0  0  0  0
 34 30  1  0  0  0  0
 35 27  1  0  0  0  0
 35 36  1  0  0  0  0
 36 37  1  6  0  0  0
 36 38  1  0  0  0  0
 38 42  2  0  0  0  0
 39 43  1  0  0  0  0
 39 41  1  0  0  0  0
 41 40  2  0  0  0  0
 42 40  1  0  0  0  0
 43 38  1  0  0  0  0
M  END
>  <MODEL>
2

>  <REMARK>
 VINA RESULT:      -9.0      3.120      7.022
  Name = 
  8 active torsions:
  status: ('A' for Active; 'I' for Inactive)
    1  A    between atoms: C_1  and  C_28
    2  A    between atoms: C_1  and  C_34
    3  A    between atoms: C_2  and  C_13
    4  A    between atoms: C_4  and  C_22
    5  A    between atoms: C_11  and  C_14
    6  A    between atoms: C_13  and  C_27
    7  A    between atoms: C_14  and  C_22
    8  A    between atoms: C_28  and  C_35
                            x       y       z     vdW  Elec       q    Type
                         _______ _______ _______ _____ _____    ______ ____

>  <TORSDO>
F 8

$$$$
=
 OpenBabel11052421103D

 43 49  0  0  1  0  0  0  0  0999 V2000
  184.4110  178.0880  142.2210 C   0  0  0  0  0  0  0  0  0  0  0  0
  188.2450  177.5230  145.4160 C   0  0  1  0  0  3  0  0  0  0  0  0
  185.7580  177.4140  144.1240 C   0  0  0  0  0  0  0  0  0  0  0  0
  185.5650  178.2480  141.4510 C   0  0  0  0  0  3  0  0  0  0  0  0
  183.0780  178.3570  141.6220 C   0  0  0  0  0  1  0  0  0  0  0  0
  186.9320  177.6010  143.3500 C   0  0  0  0  0  0  0  0  0  0  0  0
  184.5080  177.6740  143.5520 C   0  0  0  0  0  3  0  0  0  0  0  0
  186.8200  177.9970  142.0120 C   0  0  0  0  0  3  0  0  0  0  0  0
  189.5150  177.9190  143.4340 C   0  0  1  0  0  3  0  0  0  0  0  0
  188.2610  177.2190  143.9450 C   0  0  1  0  0  3  0  0  0  0  0  0
  187.2140  176.6380  146.0960 C   0  0  0  0  0  2  0  0  0  0  0  0
  189.6910  177.4370  145.8510 C   0  0  2  0  0  3  0  0  0  0  0  0
  190.4180  178.0670  144.6630 C   0  0  0  0  0  2  0  0  0  0  0  0
  185.8150  177.0290  145.5900 C   0  0  0  0  0  2  0  0  0  0  0  0
  190.1370  175.9830  146.0440 C   0  0  0  0  0  2  0  0  0  0  0  0
  190.9650  175.8080  147.3110 C   0  0  0  0  0  2  0  0  0  0  0  0
  193.6540  173.4920  145.8170 C   0  0  0  0  0  2  0  0  0  0  0  0
  194.6630  176.1800  146.5200 C   0  0  0  0  0  2  0  0  0  0  0  0
  195.2650  175.4140  145.3390 C   0  0  0  0  0  2  0  0  0  0  0  0
  192.2880  174.1160  146.0710 C   0  0  0  0  0  2  0  0  0  0  0  0
  192.3720  175.3310  146.9880 C   0  0  0  0  0  3  0  0  0  0  0  0
  194.3920  174.2960  144.7560 C   0  0  0  0  0  2  0  0  0  0  0  0
  193.1770  176.4620  146.3550 C   0  0  0  0  0  2  0  0  0  0  0  0
  190.2350  177.0370  142.4230 C   0  0  0  0  0  2  0  0  0  0  0  0
  190.1900  175.5730  142.8270 C   0  0  1  0  0  3  0  0  0  0  0  0
  189.6890  172.5690  144.0080 C   0  0  0  0  0  1  0  0  0  0  0  0
  189.7340  172.3600  142.4920 C   0  0  2  0  0  0  0  0  0  0  0  0
  189.7120  174.7220  141.7110 C   0  0  2  0  0  3  0  0  0  0  0  0
  191.5830  175.0430  142.9860 C   0  0  0  0  0  2  0  0  0  0  0  0
  188.2030  174.5010  141.7380 C   0  0  0  0  0  2  0  0  0  0  0  0
  190.4690  173.4670  141.8200 N   0  0  1  0  0  0  0  0  0  0  0  0
  188.2690  172.2730  141.9950 C   0  0  0  0  0  2  0  0  0  0  0  0
  191.6360  173.7180  142.4960 O   0  0  0  0  0  0  0  0  0  0  0  0
  187.9250  173.2930  141.0890 O   0  0  0  0  0  0  0  0  0  0  0  0
  190.4580  171.0440  142.1660 C   0  0  0  0  0  2  0  0  0  0  0  0
  191.4320  171.1250  140.9880 C   0  0  1  0  0  3  0  0  0  0  0  0
  192.5160  170.3020  141.2320 F   0  0  0  0  0  0  0  0  0  0  0  0
  190.7740  170.7180  139.7100 C   0  0  0  0  0  0  0  0  0  0  0  0
  190.6470  169.0200  137.8960 C   0  0  0  0  0  2  0  0  0  0  0  0
  189.6760  171.2620  137.6520 C   0  0  0  0  0  3  0  0  0  0  0  0
  189.7930  170.0220  137.1700 C   0  0  0  0  0  3  0  0  0  0  0  0
  190.2930  171.6180  138.8990 N   0  0  0  0  0  0  0  0  0  0  0  0
  190.5970  169.2550  139.4070 C   0  0  0  0  0  2  0  0  0  0  0  0
  1  7  1  0  0  0  0
  2 12  1  0  0  0  0
  2 11  1  1  0  0  0
  3 14  1  0  0  0  0
  4  8  1  0  0  0  0
  4  1  2  0  0  0  0
  5  1  1  0  0  0  0
  6  3  1  0  0  0  0
  7  3  2  0  0  0  0
  8  6  2  0  0  0  0
  9 24  1  6  0  0  0
  9 10  1  0  0  0  0
  9 13  1  0  0  0  0
 10  6  1  6  0  0  0
 10  2  1  0  0  0  0
 12 15  1  6  0  0  0
 13 12  1  0  0  0  0
 14 11  1  0  0  0  0
 15 16  1  0  0  0  0
 17 20  1  0  0  0  0
 19 18  1  0  0  0  0
 20 21  1  0  0  0  0
 21 16  1  0  0  0  0
 22 19  1  0  0  0  0
 22 17  1  0  0  0  0
 23 18  1  0  0  0  0
 23 21  1  0  0  0  0
 25 24  1  6  0  0  0
 25 29  1  0  0  0  0
 27 26  1  1  0  0  0
 28 30  1  1  0  0  0
 28 31  1  0  0  0  0
 28 25  1  0  0  0  0
 31 27  1  0  0  0  0
 31 33  1  1  0  0  0
 32 27  1  0  0  0  0
 33 29  1  0  0  0  0
 34 30  1  0  0  0  0
 34 32  1  0  0  0  0
 35 27  1  0  0  0  0
 36 37  1  1  0  0  0
 36 35  1  0  0  0  0
 38 36  1  0  0  0  0
 39 43  1  0  0  0  0
 40 42  1  0  0  0  0
 41 40  2  0  0  0  0
 41 39  1  0  0  0  0
 42 38  2  0  0  0  0
 43 38  1  0  0  0  0
M  END
>  <MODEL>
3

>  <REMARK>
 VINA RESULT:      -8.7      2.695      6.989
  Name = 
  8 active torsions:
  status: ('A' for Active; 'I' for Inactive)
    1  A    between atoms: C_1  and  C_28
    2  A    between atoms: C_1  and  C_34
    3  A    between atoms: C_2  and  C_13
    4  A    between atoms: C_4  and  C_22
    5  A    between atoms: C_11  and  C_14
    6  A    between atoms: C_13  and  C_27
    7  A    between atoms: C_14  and  C_22
    8  A    between atoms: C_28  and  C_35
                            x       y       z     vdW  Elec       q    Type
                         _______ _______ _______ _____ _____    ______ ____

>  <TORSDO>
F 8

$$$$
=
 OpenBabel11052421103D

 43 49  0  0  1  0  0  0  0  0999 V2000
  186.6760  177.2670  145.4300 C   0  0  0  0  0  0  0  0  0  0  0  0
  191.4730  176.2770  146.5420 C   0  0  1  0  0  3  0  0  0  0  0  0
  188.6710  176.2890  146.4050 C   0  0  0  0  0  0  0  0  0  0  0  0
  187.4080  177.6600  144.3070 C   0  0  0  0  0  3  0  0  0  0  0  0
  185.2240  177.5730  145.5120 C   0  0  0  0  0  1  0  0  0  0  0  0
  189.4210  176.7110  145.2770 C   0  0  0  0  0  0  0  0  0  0  0  0
  187.3060  176.5850  146.4740 C   0  0  0  0  0  3  0  0  0  0  0  0
  188.7730  177.3740  144.2280 C   0  0  0  0  0  3  0  0  0  0  0  0
  191.8120  177.1650  144.3530 C   0  0  1  0  0  3  0  0  0  0  0  0
  190.8630  176.2950  145.1680 C   0  0  1  0  0  3  0  0  0  0  0  0
  190.7910  175.2040  147.3750 C   0  0  0  0  0  2  0  0  0  0  0  0
  192.9650  176.1900  146.3090 C   0  0  2  0  0  3  0  0  0  0  0  0
  193.1500  177.1040  145.0970 C   0  0  0  0  0  2  0  0  0  0  0  0
  189.3220  175.6040  147.5920 C   0  0  0  0  0  2  0  0  0  0  0  0
  193.4030  174.7610  145.9750 C   0  0  0  0  0  2  0  0  0  0  0  0
  194.9090  174.6640  145.7670 C   0  0  0  0  0  2  0  0  0  0  0  0
  197.1720  171.5600  145.4860 C   0  0  0  0  0  2  0  0  0  0  0  0
  194.3570  171.0460  144.7430 C   0  0  0  0  0  2  0  0  0  0  0  0
  195.2010  169.9410  145.3840 C   0  0  0  0  0  2  0  0  0  0  0  0
  196.6250  172.8870  145.9960 C   0  0  0  0  0  2  0  0  0  0  0  0
  195.3150  173.2690  145.3160 C   0  0  0  0  0  3  0  0  0  0  0  0
  196.4360  170.4120  146.1620 C   0  0  0  0  0  2  0  0  0  0  0  0
  194.2030  172.2720  145.6300 C   0  0  0  0  0  2  0  0  0  0  0  0
  192.0160  176.5660  142.9680 C   0  0  0  0  0  2  0  0  0  0  0  0
  191.6240  175.0980  142.9310 C   0  0  1  0  0  3  0  0  0  0  0  0
  190.4610  172.0630  143.2550 C   0  0  0  0  0  1  0  0  0  0  0  0
  190.3110  172.3510  141.7590 C   0  0  2  0  0  0  0  0  0  0  0  0
  190.8400  174.7820  141.7120 C   0  0  2  0  0  3  0  0  0  0  0  0
  192.8380  174.2510  142.6920 C   0  0  0  0  0  2  0  0  0  0  0  0
  189.3350  174.9030  141.9280 C   0  0  0  0  0  2  0  0  0  0  0  0
  191.2470  173.4250  141.3240 N   0  0  1  0  0  0  0  0  0  0  0  0
  188.8370  172.7560  141.5120 C   0  0  0  0  0  2  0  0  0  0  0  0
  192.4960  173.1790  141.8370 O   0  0  0  0  0  0  0  0  0  0  0  0
  188.6920  174.0630  141.0120 O   0  0  0  0  0  0  0  0  0  0  0  0
  190.6320  171.0860  140.9480 C   0  0  0  0  0  2  0  0  0  0  0  0
  191.5250  171.3170  139.7270 C   0  0  1  0  0  3  0  0  0  0  0  0
  192.5100  170.3470  139.6890 F   0  0  0  0  0  0  0  0  0  0  0  0
  190.7350  171.2770  138.4600 C   0  0  0  0  0  0  0  0  0  0  0  0
  190.5170  170.2900  136.1860 C   0  0  0  0  0  2  0  0  0  0  0  0
  189.3080  172.3220  136.8450 C   0  0  0  0  0  3  0  0  0  0  0  0
  189.4760  171.3460  135.9490 C   0  0  0  0  0  3  0  0  0  0  0  0
  190.0570  172.3200  138.0700 N   0  0  0  0  0  0  0  0  0  0  0  0
  190.6600  169.9920  137.6800 C   0  0  0  0  0  2  0  0  0  0  0  0
  1  5  1  0  0  0  0
  1  7  1  0  0  0  0
  2 11  1  1  0  0  0
  3  7  2  0  0  0  0
  3 14  1  0  0  0  0
  4  1  2  0  0  0  0
  6  3  1  0  0  0  0
  8  4  1  0  0  0  0
  8  6  2  0  0  0  0
  9 24  1  6  0  0  0
  9 13  1  0  0  0  0
  9 10  1  0  0  0  0
 10  6  1  1  0  0  0
 10  2  1  0  0  0  0
 11 14  1  0  0  0  0
 12 15  1  6  0  0  0
 12  2  1  0  0  0  0
 13 12  1  0  0  0  0
 16 15  1  0  0  0  0
 17 20  1  0  0  0  0
 17 22  1  0  0  0  0
 18 19  1  0  0  0  0
 18 23  1  0  0  0  0
 19 22  1  0  0  0  0
 21 23  1  0  0  0  0
 21 16  1  0  0  0  0
 21 20  1  0  0  0  0
 25 24  1  6  0  0  0
 27 26  1  1  0  0  0
 28 30  1  1  0  0  0
 28 25  1  0  0  0  0
 29 25  1  0  0  0  0
 31 28  1  0  0  0  0
 31 27  1  0  0  0  0
 31 33  1  1  0  0  0
 32 27  1  0  0  0  0
 33 29  1  0  0  0  0
 34 32  1  0  0  0  0
 34 30  1  0  0  0  0
 35 27  1  0  0  0  0
 36 37  1  6  0  0  0
 36 35  1  0  0  0  0
 38 36  1  0  0  0  0
 39 43  1  0  0  0  0
 40 42  1  0  0  0  0
 41 39  1  0  0  0  0
 41 40  2  0  0  0  0
 42 38  2  0  0  0  0
 43 38  1  0  0  0  0
M  END
>  <MODEL>
4

>  <REMARK>
 VINA RESULT:      -8.5      2.991      8.452
  Name = 
  8 active torsions:
  status: ('A' for Active; 'I' for Inactive)
    1  A    between atoms: C_1  and  C_28
    2  A    between atoms: C_1  and  C_34
    3  A    between atoms: C_2  and  C_13
    4  A    between atoms: C_4  and  C_22
    5  A    between atoms: C_11  and  C_14
    6  A    between atoms: C_13  and  C_27
    7  A    between atoms: C_14  and  C_22
    8  A    between atoms: C_28  and  C_35
                            x       y       z     vdW  Elec       q    Type
                         _______ _______ _______ _____ _____    ______ ____

>  <TORSDO>
F 8

$$$$
=
 OpenBabel11052421103D

 43 49  0  0  1  0  0  0  0  0999 V2000
  189.1150  173.6680  138.5670 C   0  0  0  0  0  0  0  0  0  0  0  0
  192.2330  170.7950  141.2620 C   0  0  1  0  0  3  0  0  0  0  0  0
  190.9510  172.2160  139.2110 C   0  0  0  0  0  0  0  0  0  0  0  0
  189.0200  174.1410  139.8780 C   0  0  0  0  0  3  0  0  0  0  0  0
  188.1950  174.1870  137.5230 C   0  0  0  0  0  1  0  0  0  0  0  0
  190.8370  172.6770  140.5480 C   0  0  0  0  0  0  0  0  0  0  0  0
  190.0770  172.7090  138.2370 C   0  0  0  0  0  3  0  0  0  0  0  0
  189.8840  173.6540  140.8620 C   0  0  0  0  0  3  0  0  0  0  0  0
  191.4470  172.1900  143.0320 C   0  0  1  0  0  3  0  0  0  0  0  0
  191.8490  172.2170  141.5620 C   0  0  1  0  0  3  0  0  0  0  0  0
  192.9370  170.7430  139.9160 C   0  0  0  0  0  2  0  0  0  0  0  0
  192.9650  170.3160  142.4950 C   0  0  2  0  0  3  0  0  0  0  0  0
  192.1540  170.9640  143.6180 C   0  0  0  0  0  2  0  0  0  0  0  0
  191.9330  171.1300  138.8160 C   0  0  0  0  0  2  0  0  0  0  0  0
  194.4130  170.8170  142.5220 C   0  0  0  0  0  2  0  0  0  0  0  0
  194.9170  171.0180  143.9460 C   0  0  0  0  0  2  0  0  0  0  0  0
  196.0500  174.5450  142.8920 C   0  0  0  0  0  2  0  0  0  0  0  0
  195.9920  174.1430  145.8200 C   0  0  0  0  0  2  0  0  0  0  0  0
  195.6970  175.5230  145.2240 C   0  0  0  0  0  2  0  0  0  0  0  0
  195.3120  173.2120  142.8590 C   0  0  0  0  0  2  0  0  0  0  0  0
  195.5620  172.3850  144.1150 C   0  0  0  0  0  3  0  0  0  0  0  0
  195.2740  175.5340  143.7500 C   0  0  0  0  0  2  0  0  0  0  0  0
  195.0130  173.0730  145.3620 C   0  0  0  0  0  2  0  0  0  0  0  0
  191.9790  173.4260  143.7450 C   0  0  0  0  0  2  0  0  0  0  0  0
  190.9790  173.9620  144.7550 C   0  0  1  0  0  3  0  0  0  0  0  0
  189.0500  174.7720  147.2650 C   0  0  0  0  0  1  0  0  0  0  0  0
  189.5630  176.1200  146.7520 C   0  0  2  0  0  0  0  0  0  0  0  0
  191.2990  175.3590  145.1400 C   0  0  2  0  0  3  0  0  0  0  0  0
  189.6470  174.1690  144.0970 C   0  0  0  0  0  2  0  0  0  0  0  0
  192.1900  175.4440  146.3750 C   0  0  0  0  0  2  0  0  0  0  0  0
  190.0020  176.0210  145.3320 N   0  0  1  0  0  0  0  0  0  0  0  0
  190.7320  176.5500  147.6730 C   0  0  0  0  0  2  0  0  0  0  0  0
  189.0540  175.3460  144.6060 O   0  0  0  0  0  0  0  0  0  0  0  0
  191.9590  176.6760  146.9970 O   0  0  0  0  0  0  0  0  0  0  0  0
  188.4440  177.1700  146.8300 C   0  0  0  0  0  2  0  0  0  0  0  0
  187.0250  176.5980  146.7780 C   0  0  1  0  0  3  0  0  0  0  0  0
  186.5330  176.4770  148.0640 F   0  0  0  0  0  0  0  0  0  0  0  0
  186.1170  177.4710  145.9750 C   0  0  0  0  0  0  0  0  0  0  0  0
  185.9510  179.2680  144.2610 C   0  0  0  0  0  2  0  0  0  0  0  0
  184.0560  178.6610  145.7010 C   0  0  0  0  0  3  0  0  0  0  0  0
  184.4980  179.3380  144.6370 C   0  0  0  0  0  3  0  0  0  0  0  0
  184.9440  177.8050  146.4360 N   0  0  0  0  0  0  0  0  0  0  0  0
  186.5330  177.8910  144.5920 C   0  0  0  0  0  2  0  0  0  0  0  0
  1  4  1  0  0  0  0
  2 11  1  6  0  0  0
  2 10  1  0  0  0  0
  2 12  1  0  0  0  0
  3  6  2  0  0  0  0
  4  8  2  0  0  0  0
  5  1  1  0  0  0  0
  6  8  1  0  0  0  0
  7  1  2  0  0  0  0
  7  3  1  0  0  0  0
  9 13  1  0  0  0  0
  9 24  1  1  0  0  0
 10  6  1  6  0  0  0
 10  9  1  0  0  0  0
 12 15  1  6  0  0  0
 12 13  1  0  0  0  0
 14  3  1  0  0  0  0
 14 11  1  0  0  0  0
 15 16  1  0  0  0  0
 16 21  1  0  0  0  0
 17 22  1  0  0  0  0
 19 18  1  0  0  0  0
 20 17  1  0  0  0  0
 20 21  1  0  0  0  0
 21 23  1  0  0  0  0
 22 19  1  0  0  0  0
 23 18  1  0  0  0  0
 25 24  1  6  0  0  0
 25 28  1  0  0  0  0
 27 35  1  0  0  0  0
 27 26  1  1  0  0  0
 27 32  1  0  0  0  0
 28 31  1  0  0  0  0
 28 30  1  1  0  0  0
 29 33  1  0  0  0  0
 29 25  1  0  0  0  0
 30 34  1  0  0  0  0
 31 33  1  6  0  0  0
 31 27  1  0  0  0  0
 34 32  1  0  0  0  0
 36 35  1  0  0  0  0
 36 37  1  1  0  0  0
 38 42  2  0  0  0  0
 38 36  1  0  0  0  0
 39 43  1  0  0  0  0
 39 41  1  0  0  0  0
 40 42  1  0  0  0  0
 41 40  2  0  0  0  0
 43 38  1  0  0  0  0
M  END
>  <MODEL>
5

>  <REMARK>
 VINA RESULT:      -8.3      2.735      8.014
  Name = 
  8 active torsions:
  status: ('A' for Active; 'I' for Inactive)
    1  A    between atoms: C_1  and  C_28
    2  A    between atoms: C_1  and  C_34
    3  A    between atoms: C_2  and  C_13
    4  A    between atoms: C_4  and  C_22
    5  A    between atoms: C_11  and  C_14
    6  A    between atoms: C_13  and  C_27
    7  A    between atoms: C_14  and  C_22
    8  A    between atoms: C_28  and  C_35
                            x       y       z     vdW  Elec       q    Type
                         _______ _______ _______ _____ _____    ______ ____

>  <TORSDO>
F 8

$$$$
=
 OpenBabel11052421103D

 43 49  0  0  1  0  0  0  0  0999 V2000
  189.6750  174.1060  136.5840 C   0  0  0  0  0  0  0  0  0  0  0  0
  192.1510  172.2380  140.5350 C   0  0  1  0  0  3  0  0  0  0  0  0
  191.3680  173.7050  138.2760 C   0  0  0  0  0  0  0  0  0  0  0  0
  188.6900  173.6100  137.4420 C   0  0  0  0  0  3  0  0  0  0  0  0
  189.3030  174.5870  135.2290 C   0  0  0  0  0  1  0  0  0  0  0  0
  190.3720  173.1770  139.1380 C   0  0  0  0  0  0  0  0  0  0  0  0
  191.0080  174.1520  137.0010 C   0  0  0  0  0  3  0  0  0  0  0  0
  189.0370  173.1560  138.7170 C   0  0  0  0  0  3  0  0  0  0  0  0
  189.9340  171.7330  141.2590 C   0  0  1  0  0  3  0  0  0  0  0  0
  190.7560  172.7970  140.5420 C   0  0  1  0  0  3  0  0  0  0  0  0
  193.1230  173.3300  140.1180 C   0  0  0  0  0  2  0  0  0  0  0  0
  192.3190  171.5810  141.8870 C   0  0  2  0  0  3  0  0  0  0  0  0
  190.9430  170.9510  142.1060 C   0  0  0  0  0  2  0  0  0  0  0  0
  192.8360  173.7160  138.6570 C   0  0  0  0  0  2  0  0  0  0  0  0
  192.6180  172.6100  142.9820 C   0  0  0  0  0  2  0  0  0  0  0  0
  193.1990  171.9570  144.2300 C   0  0  0  0  0  2  0  0  0  0  0  0
  195.8160  174.3190  145.7830 C   0  0  0  0  0  2  0  0  0  0  0  0
  193.0320  174.9780  146.5290 C   0  0  0  0  0  2  0  0  0  0  0  0
  194.0800  176.0870  146.3990 C   0  0  0  0  0  2  0  0  0  0  0  0
  195.1530  173.3840  144.7790 C   0  0  0  0  0  2  0  0  0  0  0  0
  193.7380  172.9990  145.1980 C   0  0  0  0  0  3  0  0  0  0  0  0
  195.3160  175.7390  145.5610 C   0  0  0  0  0  2  0  0  0  0  0  0
  192.8110  174.2100  145.2340 C   0  0  0  0  0  2  0  0  0  0  0  0
  188.9340  172.3880  142.2030 C   0  0  0  0  0  2  0  0  0  0  0  0
  189.3990  173.7680  142.6390 C   0  0  1  0  0  3  0  0  0  0  0  0
  190.6690  176.7380  143.1210 C   0  0  0  0  0  1  0  0  0  0  0  0
  189.1730  176.9380  143.3750 C   0  0  2  0  0  0  0  0  0  0  0  0
  188.2860  174.7480  142.5950 C   0  0  2  0  0  3  0  0  0  0  0  0
  189.6930  173.7670  144.1090 C   0  0  0  0  0  2  0  0  0  0  0  0
  188.2010  175.4890  141.2650 C   0  0  0  0  0  2  0  0  0  0  0  0
  188.5130  175.6510  143.7310 N   0  0  1  0  0  0  0  0  0  0  0  0
  188.5630  177.5450  142.0870 C   0  0  0  0  0  2  0  0  0  0  0  0
  189.2690  174.9940  144.6690 O   0  0  0  0  0  0  0  0  0  0  0  0
  187.5870  176.7260  141.4910 O   0  0  0  0  0  0  0  0  0  0  0  0
  188.9660  177.9160  144.5420 C   0  0  0  0  0  2  0  0  0  0  0  0
  188.1680  177.3480  145.7190 C   0  0  1  0  0  3  0  0  0  0  0  0
  188.8200  177.6470  146.9010 F   0  0  0  0  0  0  0  0  0  0  0  0
  186.7830  177.9060  145.7570 C   0  0  0  0  0  0  0  0  0  0  0  0
  184.4360  177.5710  146.5130 C   0  0  0  0  0  2  0  0  0  0  0  0
  185.0310  179.2340  144.8060 C   0  0  0  0  0  3  0  0  0  0  0  0
  184.1040  178.7440  145.6340 C   0  0  0  0  0  3  0  0  0  0  0  0
  186.3640  178.7000  144.8120 N   0  0  0  0  0  0  0  0  0  0  0  0
  185.9040  177.6120  146.9420 C   0  0  0  0  0  2  0  0  0  0  0  0
  1  7  2  0  0  0  0
  1  4  1  0  0  0  0
  2 11  1  1  0  0  0
  2 10  1  0  0  0  0
  2 12  1  0  0  0  0
  3 14  1  0  0  0  0
  3  6  2  0  0  0  0
  4  8  2  0  0  0  0
  5  1  1  0  0  0  0
  7  3  1  0  0  0  0
  8  6  1  0  0  0  0
  9 13  1  0  0  0  0
  9 24  1  1  0  0  0
 10  6  1  6  0  0  0
 10  9  1  0  0  0  0
 12 13  1  0  0  0  0
 12 15  1  1  0  0  0
 14 11  1  0  0  0  0
 15 16  1  0  0  0  0
 16 21  1  0  0  0  0
 19 18  1  0  0  0  0
 20 21  1  0  0  0  0
 20 17  1  0  0  0  0
 21 23  1  0  0  0  0
 22 17  1  0  0  0  0
 22 19  1  0  0  0  0
 23 18  1  0  0  0  0
 25 24  1  1  0  0  0
 25 29  1  0  0  0  0
 27 26  1  6  0  0  0
 27 31  1  0  0  0  0
 27 35  1  0  0  0  0
 28 30  1  6  0  0  0
 28 25  1  0  0  0  0
 28 31  1  0  0  0  0
 29 33  1  0  0  0  0
 30 34  1  0  0  0  0
 31 33  1  1  0  0  0
 32 27  1  0  0  0  0
 34 32  1  0  0  0  0
 35 36  1  0  0  0  0
 36 38  1  0  0  0  0
 36 37  1  1  0  0  0
 38 43  1  0  0  0  0
 39 43  1  0  0  0  0
 40 42  1  0  0  0  0
 40 41  2  0  0  0  0
 41 39  1  0  0  0  0
 42 38  2  0  0  0  0
M  END
>  <MODEL>
6

>  <REMARK>
 VINA RESULT:      -8.2      2.499      7.518
  Name = 
  8 active torsions:
  status: ('A' for Active; 'I' for Inactive)
    1  A    between atoms: C_1  and  C_28
    2  A    between atoms: C_1  and  C_34
    3  A    between atoms: C_2  and  C_13
    4  A    between atoms: C_4  and  C_22
    5  A    between atoms: C_11  and  C_14
    6  A    between atoms: C_13  and  C_27
    7  A    between atoms: C_14  and  C_22
    8  A    between atoms: C_28  and  C_35
                            x       y       z     vdW  Elec       q    Type
                         _______ _______ _______ _____ _____    ______ ____

>  <TORSDO>
F 8

$$$$
=
 OpenBabel11052421103D

 43 49  0  0  1  0  0  0  0  0999 V2000
  185.6420  177.7760  145.9510 C   0  0  0  0  0  0  0  0  0  0  0  0
  190.3380  176.1180  146.6130 C   0  0  1  0  0  3  0  0  0  0  0  0
  187.5500  176.4290  146.6130 C   0  0  0  0  0  0  0  0  0  0  0  0
  186.3820  178.3200  144.8980 C   0  0  0  0  0  3  0  0  0  0  0  0
  184.2340  178.1980  146.1620 C   0  0  0  0  0  1  0  0  0  0  0  0
  188.3100  177.0000  145.5600 C   0  0  0  0  0  0  0  0  0  0  0  0
  186.2250  176.8360  146.8050 C   0  0  0  0  0  3  0  0  0  0  0  0
  187.7080  177.9260  144.6990 C   0  0  0  0  0  3  0  0  0  0  0  0
  190.7100  177.4030  144.6360 C   0  0  1  0  0  3  0  0  0  0  0  0
  189.6970  176.4790  145.3020 C   0  0  1  0  0  3  0  0  0  0  0  0
  189.5690  174.9670  147.2420 C   0  0  0  0  0  2  0  0  0  0  0  0
  191.8060  175.9380  146.2980 C   0  0  2  0  0  3  0  0  0  0  0  0
  192.0540  177.0600  145.2890 C   0  0  0  0  0  2  0  0  0  0  0  0
  188.1560  175.4540  147.6040 C   0  0  0  0  0  2  0  0  0  0  0  0
  192.0830  174.5720  145.6600 C   0  0  0  0  0  2  0  0  0  0  0  0
  193.5320  174.1420  145.8510 C   0  0  0  0  0  2  0  0  0  0  0  0
  196.1020  176.1590  143.8110 C   0  0  0  0  0  2  0  0  0  0  0  0
  195.5430  173.4790  142.6950 C   0  0  0  0  0  2  0  0  0  0  0  0
  196.9300  174.1080  142.5350 C   0  0  0  0  0  2  0  0  0  0  0  0
  195.3210  175.6430  145.0120 C   0  0  0  0  0  2  0  0  0  0  0  0
  194.3780  174.5030  144.6400 C   0  0  0  0  0  3  0  0  0  0  0  0
  197.2710  175.2270  143.5260 C   0  0  0  0  0  2  0  0  0  0  0  0
  195.1420  173.2770  144.1490 C   0  0  0  0  0  2  0  0  0  0  0  0
  190.8140  177.0860  143.1500 C   0  0  0  0  0  2  0  0  0  0  0  0
  190.8430  175.5880  142.8990 C   0  0  1  0  0  3  0  0  0  0  0  0
  190.7240  172.3240  142.8560 C   0  0  0  0  0  1  0  0  0  0  0  0
  189.9880  172.7300  141.5770 C   0  0  2  0  0  0  0  0  0  0  0  0
  189.7960  175.1860  141.9280 C   0  0  2  0  0  3  0  0  0  0  0  0
  192.0740  175.2220  142.1270 C   0  0  0  0  0  2  0  0  0  0  0  0
  188.4880  174.7800  142.6000 C   0  0  0  0  0  2  0  0  0  0  0  0
  190.3880  174.0970  141.1400 N   0  0  1  0  0  0  0  0  0  0  0  0
  188.4690  172.6570  141.8750 C   0  0  0  0  0  2  0  0  0  0  0  0
  191.7540  174.2120  141.1910 O   0  0  0  0  0  0  0  0  0  0  0  0
  187.8150  173.8960  141.7500 O   0  0  0  0  0  0  0  0  0  0  0  0
  190.3290  171.7510  140.4430 C   0  0  0  0  0  2  0  0  0  0  0  0
  189.5410  171.9710  139.1490 C   0  0  1  0  0  3  0  0  0  0  0  0
  189.4480  173.3260  138.8930 F   0  0  0  0  0  0  0  0  0  0  0  0
  190.1940  171.2880  137.9920 C   0  0  0  0  0  0  0  0  0  0  0  0
  190.0710  170.7530  135.5650 C   0  0  0  0  0  2  0  0  0  0  0  0
  191.5730  169.5500  137.0890 C   0  0  0  0  0  3  0  0  0  0  0  0
  191.2040  169.8020  135.8310 C   0  0  0  0  0  3  0  0  0  0  0  0
  190.9510  170.2440  138.1820 N   0  0  0  0  0  0  0  0  0  0  0  0
  190.0390  171.8680  136.6120 C   0  0  0  0  0  2  0  0  0  0  0  0
  1  5  1  0  0  0  0
  1  7  1  0  0  0  0
  2 11  1  6  0  0  0
  3  7  2  0  0  0  0
  3 14  1  0  0  0  0
  4  1  2  0  0  0  0
  6  3  1  0  0  0  0
  8  4  1  0  0  0  0
  8  6  2  0  0  0  0
  9 24  1  6  0  0  0
  9 13  1  0  0  0  0
  9 10  1  0  0  0  0
 10  6  1  1  0  0  0
 10  2  1  0  0  0  0
 11 14  1  0  0  0  0
 12 15  1  6  0  0  0
 12  2  1  0  0  0  0
 13 12  1  0  0  0  0
 15 16  1  0  0  0  0
 17 20  1  0  0  0  0
 18 23  1  0  0  0  0
 19 18  1  0  0  0  0
 19 22  1  0  0  0  0
 21 20  1  0  0  0  0
 21 16  1  0  0  0  0
 22 17  1  0  0  0  0
 23 21  1  0  0  0  0
 25 24  1  6  0  0  0
 27 32  1  0  0  0  0
 27 26  1  1  0  0  0
 28 30  1  1  0  0  0
 28 25  1  0  0  0  0
 29 25  1  0  0  0  0
 31 33  1  1  0  0  0
 31 27  1  0  0  0  0
 31 28  1  0  0  0  0
 33 29  1  0  0  0  0
 34 32  1  0  0  0  0
 34 30  1  0  0  0  0
 35 27  1  0  0  0  0
 36 37  1  6  0  0  0
 36 35  1  0  0  0  0
 38 42  2  0  0  0  0
 38 36  1  0  0  0  0
 39 41  1  0  0  0  0
 39 43  1  0  0  0  0
 40 42  1  0  0  0  0
 41 40  2  0  0  0  0
 43 38  1  0  0  0  0
M  END
>  <MODEL>
7

>  <REMARK>
 VINA RESULT:      -8.1      2.863      8.285
  Name = 
  8 active torsions:
  status: ('A' for Active; 'I' for Inactive)
    1  A    between atoms: C_1  and  C_28
    2  A    between atoms: C_1  and  C_34
    3  A    between atoms: C_2  and  C_13
    4  A    between atoms: C_4  and  C_22
    5  A    between atoms: C_11  and  C_14
    6  A    between atoms: C_13  and  C_27
    7  A    between atoms: C_14  and  C_22
    8  A    between atoms: C_28  and  C_35
                            x       y       z     vdW  Elec       q    Type
                         _______ _______ _______ _____ _____    ______ ____

>  <TORSDO>
F 8

$$$$
=
 OpenBabel11052421103D

 43 49  0  0  1  0  0  0  0  0999 V2000
  196.3810  169.5750  146.1020 C   0  0  0  0  0  0  0  0  0  0  0  0
  195.9160  174.5470  145.5570 C   0  0  1  0  0  3  0  0  0  0  0  0
  196.7540  171.8740  145.4170 C   0  0  0  0  0  0  0  0  0  0  0  0
  195.0270  169.8480  146.3070 C   0  0  0  0  0  3  0  0  0  0  0  0
  196.9080  168.2090  146.3520 C   0  0  0  0  0  1  0  0  0  0  0  0
  195.3840  172.1580  145.6510 C   0  0  0  0  0  0  0  0  0  0  0  0
  197.2400  170.5850  145.6590 C   0  0  0  0  0  3  0  0  0  0  0  0
  194.5300  171.1330  146.0740 C   0  0  0  0  0  3  0  0  0  0  0  0
  193.6310  174.0450  146.0300 C   0  0  1  0  0  3  0  0  0  0  0  0
  194.8540  173.5190  145.2880 C   0  0  1  0  0  3  0  0  0  0  0  0
  197.0960  174.2980  144.6320 C   0  0  0  0  0  2  0  0  0  0  0  0
  195.2010  175.8780  145.4960 C   0  0  2  0  0  3  0  0  0  0  0  0
  193.8680  175.5530  146.1720 C   0  0  0  0  0  2  0  0  0  0  0  0
  197.7380  172.9490  144.9990 C   0  0  0  0  0  2  0  0  0  0  0  0
  194.9730  176.3310  144.0500 C   0  0  0  0  0  2  0  0  0  0  0  0
  196.2490  176.8770  143.4210 C   0  0  0  0  0  2  0  0  0  0  0  0
  197.9370  175.2300  140.3750 C   0  0  0  0  0  2  0  0  0  0  0  0
  195.0330  175.6660  140.0300 C   0  0  0  0  0  2  0  0  0  0  0  0
  195.7190  174.4710  139.3630 C   0  0  0  0  0  2  0  0  0  0  0  0
  197.6540  175.5970  141.8270 C   0  0  0  0  0  2  0  0  0  0  0  0
  196.3850  176.4290  141.9730 C   0  0  0  0  0  3  0  0  0  0  0  0
  197.0640  174.0510  139.9690 C   0  0  0  0  0  2  0  0  0  0  0  0
  195.1450  175.6490  141.5470 C   0  0  0  0  0  2  0  0  0  0  0  0
  192.3780  173.8420  145.1890 C   0  0  0  0  0  2  0  0  0  0  0  0
  191.3740  174.9620  145.4040 C   0  0  1  0  0  3  0  0  0  0  0  0
  189.6400  177.6760  145.9500 C   0  0  0  0  0  1  0  0  0  0  0  0
  189.0610  177.1340  144.6400 C   0  0  2  0  0  0  0  0  0  0  0  0
  190.7030  175.3330  144.1340 C   0  0  2  0  0  3  0  0  0  0  0  0
  190.1990  174.4540  146.1850 C   0  0  0  0  0  2  0  0  0  0  0  0
  191.4100  176.4670  143.3990 C   0  0  0  0  0  2  0  0  0  0  0  0
  189.3220  175.6730  144.5040 N   0  0  1  0  0  0  0  0  0  0  0  0
  189.7120  177.9310  143.4830 C   0  0  0  0  0  2  0  0  0  0  0  0
  189.0160  175.0420  145.6830 O   0  0  0  0  0  0  0  0  0  0  0  0
  190.4670  177.1300  142.6070 O   0  0  0  0  0  0  0  0  0  0  0  0
  187.5400  177.3480  144.6110 C   0  0  0  0  0  2  0  0  0  0  0  0
  186.7850  176.4430  143.6340 C   0  0  1  0  0  3  0  0  0  0  0  0
  185.8600  175.6880  144.3310 F   0  0  0  0  0  0  0  0  0  0  0  0
  186.0880  177.2410  142.5820 C   0  0  0  0  0  0  0  0  0  0  0  0
  183.9540  178.3000  141.8590 C   0  0  0  0  0  2  0  0  0  0  0  0
  185.8110  177.9140  140.2990 C   0  0  0  0  0  3  0  0  0  0  0  0
  184.6300  178.4930  140.5310 C   0  0  0  0  0  3  0  0  0  0  0  0
  186.4760  177.1780  141.3390 N   0  0  0  0  0  0  0  0  0  0  0  0
  184.9870  178.1850  142.9830 C   0  0  0  0  0  2  0  0  0  0  0  0
  1  4  1  0  0  0  0
  1  5  1  0  0  0  0
  2 11  1  6  0  0  0
  3  6  2  0  0  0  0
  3  7  1  0  0  0  0
  6  8  1  0  0  0  0
  7  1  2  0  0  0  0
  8  4  2  0  0  0  0
  9 24  1  6  0  0  0
  9 13  1  0  0  0  0
 10  2  1  0  0  0  0
 10  6  1  1  0  0  0
 10  9  1  0  0  0  0
 11 14  1  0  0  0  0
 12 15  1  6  0  0  0
 12  2  1  0  0  0  0
 12 13  1  0  0  0  0
 14  3  1  0  0  0  0
 16 15  1  0  0  0  0
 17 20  1  0  0  0  0
 18 23  1  0  0  0  0
 19 22  1  0  0  0  0
 19 18  1  0  0  0  0
 20 21  1  0  0  0  0
 21 16  1  0  0  0  0
 22 17  1  0  0  0  0
 23 21  1  0  0  0  0
 25 24  1  6  0  0  0
 25 29  1  0  0  0  0
 27 26  1  1  0  0  0
 28 30  1  1  0  0  0
 28 31  1  0  0  0  0
 28 25  1  0  0  0  0
 31 27  1  0  0  0  0
 31 33  1  1  0  0  0
 32 27  1  0  0  0  0
 33 29  1  0  0  0  0
 34 30  1  0  0  0  0
 34 32  1  0  0  0  0
 35 27  1  0  0  0  0
 36 37  1  1  0  0  0
 36 35  1  0  0  0  0
 38 43  1  0  0  0  0
 38 36  1  0  0  0  0
 39 43  1  0  0  0  0
 40 41  2  0  0  0  0
 40 42  1  0  0  0  0
 41 39  1  0  0  0  0
 42 38  2  0  0  0  0
M  END
>  <MODEL>
8

>  <REMARK>
 VINA RESULT:      -8.0      3.167      9.619
  Name = 
  8 active torsions:
  status: ('A' for Active; 'I' for Inactive)
    1  A    between atoms: C_1  and  C_28
    2  A    between atoms: C_1  and  C_34
    3  A    between atoms: C_2  and  C_13
    4  A    between atoms: C_4  and  C_22
    5  A    between atoms: C_11  and  C_14
    6  A    between atoms: C_13  and  C_27
    7  A    between atoms: C_14  and  C_22
    8  A    between atoms: C_28  and  C_35
                            x       y       z     vdW  Elec       q    Type
                         _______ _______ _______ _____ _____    ______ ____

>  <TORSDO>
F 8

$$$$
=
 OpenBabel11052421103D

 43 49  0  0  1  0  0  0  0  0999 V2000
  197.1620  169.6320  146.0360 C   0  0  0  0  0  0  0  0  0  0  0  0
  195.9720  174.1600  144.2150 C   0  0  1  0  0  3  0  0  0  0  0  0
  197.0740  171.6160  144.6400 C   0  0  0  0  0  0  0  0  0  0  0  0
  195.8730  169.8970  146.5060 C   0  0  0  0  0  3  0  0  0  0  0  0
  197.8970  168.4370  146.5230 C   0  0  0  0  0  1  0  0  0  0  0  0
  195.7760  171.8990  145.1370 C   0  0  0  0  0  0  0  0  0  0  0  0
  197.7590  170.4900  145.1080 C   0  0  0  0  0  3  0  0  0  0  0  0
  195.1800  171.0210  146.0500 C   0  0  0  0  0  3  0  0  0  0  0  0
  193.9460  173.7320  145.4020 C   0  0  1  0  0  3  0  0  0  0  0  0
  195.0110  173.0540  144.5480 C   0  0  1  0  0  3  0  0  0  0  0  0
  196.9170  173.6860  143.1230 C   0  0  0  0  0  2  0  0  0  0  0  0
  195.1050  175.3730  143.9620 C   0  0  2  0  0  3  0  0  0  0  0  0
  194.0230  175.2170  145.0320 C   0  0  0  0  0  2  0  0  0  0  0  0
  197.7900  172.5490  143.6820 C   0  0  0  0  0  2  0  0  0  0  0  0
  194.4830  175.3410  142.5620 C   0  0  0  0  0  2  0  0  0  0  0  0
  195.0530  176.4330  141.6650 C   0  0  0  0  0  2  0  0  0  0  0  0
  197.8870  175.4330  139.2560 C   0  0  0  0  0  2  0  0  0  0  0  0
  195.3280  174.0540  138.7140 C   0  0  0  0  0  2  0  0  0  0  0  0
  196.6590  173.3530  138.4290 C   0  0  0  0  0  2  0  0  0  0  0  0
  197.1910  175.8740  140.5370 C   0  0  0  0  0  2  0  0  0  0  0  0
  195.6720  175.8450  140.4060 C   0  0  0  0  0  3  0  0  0  0  0  0
  197.8790  173.9140  139.1700 C   0  0  0  0  0  2  0  0  0  0  0  0
  195.1510  174.4290  140.1780 C   0  0  0  0  0  2  0  0  0  0  0  0
  192.5630  173.2220  145.0220 C   0  0  0  0  0  2  0  0  0  0  0  0
  191.6440  174.3580  144.6040 C   0  0  1  0  0  3  0  0  0  0  0  0
  190.0830  176.9730  143.4220 C   0  0  0  0  0  1  0  0  0  0  0  0
  189.1170  175.8180  143.1450 C   0  0  2  0  0  0  0  0  0  0  0  0
  190.5640  173.8740  143.7090 C   0  0  2  0  0  3  0  0  0  0  0  0
  190.8300  174.8160  145.7760 C   0  0  0  0  0  2  0  0  0  0  0  0
  190.9270  173.9780  142.2310 C   0  0  0  0  0  2  0  0  0  0  0  0
  189.3790  174.6700  144.0570 N   0  0  1  0  0  0  0  0  0  0  0  0
  189.2970  175.4110  141.6620 C   0  0  0  0  0  2  0  0  0  0  0  0
  189.5220  175.1300  145.3420 O   0  0  0  0  0  0  0  0  0  0  0  0
  189.7420  174.0860  141.4960 O   0  0  0  0  0  0  0  0  0  0  0  0
  187.6690  176.2810  143.3710 C   0  0  0  0  0  2  0  0  0  0  0  0
  187.5230  177.7470  143.7850 C   0  0  1  0  0  3  0  0  0  0  0  0
  187.2280  178.5110  142.6710 F   0  0  0  0  0  0  0  0  0  0  0  0
  186.4480  177.9190  144.8070 C   0  0  0  0  0  0  0  0  0  0  0  0
  185.0500  176.8190  146.5490 C   0  0  0  0  0  2  0  0  0  0  0  0
  184.4750  179.0140  145.6110 C   0  0  0  0  0  3  0  0  0  0  0  0
  184.2470  178.0890  146.5470 C   0  0  0  0  0  3  0  0  0  0  0  0
  185.5360  178.8390  144.6590 N   0  0  0  0  0  0  0  0  0  0  0  0
  186.4760  177.0760  146.0540 C   0  0  0  0  0  2  0  0  0  0  0  0
  1  4  1  0  0  0  0
  1  5  1  0  0  0  0
  2 11  1  6  0  0  0
  2 10  1  0  0  0  0
  3  7  1  0  0  0  0
  3  6  2  0  0  0  0
  6  8  1  0  0  0  0
  7  1  2  0  0  0  0
  8  4  2  0  0  0  0
  9 24  1  6  0  0  0
 10  6  1  1  0  0  0
 10  9  1  0  0  0  0
 11 14  1  0  0  0  0
 12 15  1  6  0  0  0
 12  2  1  0  0  0  0
 12 13  1  0  0  0  0
 13  9  1  0  0  0  0
 14  3  1  0  0  0  0
 16 15  1  0  0  0  0
 17 20  1  0  0  0  0
 18 23  1  0  0  0  0
 19 18  1  0  0  0  0
 19 22  1  0  0  0  0
 21 20  1  0  0  0  0
 21 16  1  0  0  0  0
 22 17  1  0  0  0  0
 23 21  1  0  0  0  0
 25 24  1  1  0  0  0
 25 29  1  0  0  0  0
 27 35  1  0  0  0  0
 27 26  1  1  0  0  0
 27 31  1  0  0  0  0
 28 30  1  6  0  0  0
 28 31  1  0  0  0  0
 28 25  1  0  0  0  0
 31 33  1  1  0  0  0
 32 27  1  0  0  0  0
 33 29  1  0  0  0  0
 34 32  1  0  0  0  0
 34 30  1  0  0  0  0
 35 36  1  0  0  0  0
 36 37  1  6  0  0  0
 36 38  1  0  0  0  0
 38 43  1  0  0  0  0
 40 41  2  0  0  0  0
 41 39  1  0  0  0  0
 42 38  2  0  0  0  0
 42 40  1  0  0  0  0
 43 39  1  0  0  0  0
M  END
>  <MODEL>
9

>  <REMARK>
 VINA RESULT:      -8.0      3.103      9.748
  Name = 
  8 active torsions:
  status: ('A' for Active; 'I' for Inactive)
    1  A    between atoms: C_1  and  C_28
    2  A    between atoms: C_1  and  C_34
    3  A    between atoms: C_2  and  C_13
    4  A    between atoms: C_4  and  C_22
    5  A    between atoms: C_11  and  C_14
    6  A    between atoms: C_13  and  C_27
    7  A    between atoms: C_14  and  C_22
    8  A    between atoms: C_28  and  C_35
                            x       y       z     vdW  Elec       q    Type
                         _______ _______ _______ _____ _____    ______ ____

>  <TORSDO>
F 8

$$$$
