=
 OpenBabel11052417243D

 25 28  0  0  1  0  0  0  0  0999 V2000
  186.7400  176.8900  144.2100 C   0  0  0  0  0  0  0  0  0  0  0  0
  187.9170  176.1540  144.0420 C   0  0  0  0  0  0  0  0  0  0  0  0
  186.2730  176.8940  141.8370 C   0  0  0  0  0  3  0  0  0  0  0  0
  186.1160  177.4020  145.3220 C   0  0  1  0  0  3  0  0  0  0  0  0
  184.4120  178.6480  147.1110 C   0  0  0  0  0  3  0  0  0  0  0  0
  187.4540  176.1630  141.6330 C   0  0  0  0  0  3  0  0  0  0  0  0
  184.9800  178.0350  144.8640 C   0  0  0  0  0  0  0  0  0  0  0  0
  184.1020  178.6720  145.7400 C   0  0  0  0  0  3  0  0  0  0  0  0
  189.5140  175.0130  142.4820 C   0  0  0  0  0  0  0  0  0  0  0  0
  189.8360  174.6690  141.3130 O   0  0  0  0  0  0  0  0  0  0  0  0
  188.7990  175.8210  145.2120 C   0  0  0  0  0  2  0  0  0  0  0  0
  185.5760  177.9980  147.5750 C   0  0  0  0  0  3  0  0  0  0  0  0
  185.9400  177.2470  143.1420 C   0  0  0  0  0  0  0  0  0  0  0  0
  184.8490  177.9530  143.5210 N   0  0  0  0  0  0  0  0  0  0  0  0
  190.4210  174.6580  143.6200 C   0  0  0  0  0  2  0  0  0  0  0  0
  186.4480  177.3620  146.6750 C   0  0  0  0  0  3  0  0  0  0  0  0
  189.6360  174.5640  144.9350 C   0  0  1  0  0  3  0  0  0  0  0  0
  188.2820  175.7950  142.7190 C   0  0  0  0  0  0  0  0  0  0  0  0
  190.4400  174.1800  146.0310 O   0  0  0  0  0  0  0  0  0  0  0  0
  190.0770  174.9400  147.1580 C   0  0  0  0  0  2  0  0  0  0  0  0
  191.3160  175.3260  147.9490 C   0  0  0  0  0  2  0  0  0  0  0  0
  191.9100  176.6310  147.4360 C   0  0  0  0  0  2  0  0  0  0  0  0
  193.0720  176.3720  146.4910 C   0  0  0  0  0  3  0  0  0  0  0  0
  194.1810  177.1050  146.9100 O   0  0  0  0  0  1  0  0  0  0  0  0
  192.7260  176.7550  145.1960 O   0  0  0  0  0  1  0  0  0  0  0  0
  1  4  1  0  0  0  0
  2  1  1  0  0  0  0
  2 11  1  0  0  0  0
  3 13  1  0  0  0  0
  4 16  1  1  0  0  0
  5 12  1  0  0  0  0
  6  3  2  0  0  0  0
  6 18  1  0  0  0  0
  7  4  1  0  0  0  0
  7  8  1  0  0  0  0
  8  5  2  0  0  0  0
  9 18  1  0  0  0  0
  9 15  1  0  0  0  0
 10  9  2  0  0  0  0
 13 14  1  0  0  0  0
 13  1  2  0  0  0  0
 14  7  2  0  0  0  0
 15 17  1  0  0  0  0
 16 12  2  0  0  0  0
 17 11  1  0  0  0  0
 17 19  1  1  0  0  0
 18  2  2  0  0  0  0
 19 20  1  0  0  0  0
 20 21  1  0  0  0  0
 22 21  1  0  0  0  0
 23 24  1  0  0  0  0
 23 22  1  0  0  0  0
 25 23  1  0  0  0  0
M  END
>  <MODEL>
1

>  <REMARK>
 VINA RESULT:      -7.3      0.000      0.000
  Name = 
  5 active torsions:
  status: ('A' for Active; 'I' for Inactive)
    1  A    between atoms: C_2  and  C_21
    2  A    between atoms: O_6  and  C_15
    3  A    between atoms: O_6  and  C_23
    4  A    between atoms: C_15  and  C_25
    5  A    between atoms: C_21  and  C_25
                            x       y       z     vdW  Elec       q    Type
                         _______ _______ _______ _____ _____    ______ ____

>  <TORSDO>
F 5

$$$$
=
 OpenBabel11052417243D

 25 28  0  0  1  0  0  0  0  0999 V2000
  185.7520  177.5960  143.6480 C   0  0  0  0  0  0  0  0  0  0  0  0
  186.4010  177.1730  144.8130 C   0  0  0  0  0  0  0  0  0  0  0  0
  183.9830  178.6760  144.8940 C   0  0  0  0  0  3  0  0  0  0  0  0
  186.0410  177.4360  142.3140 C   0  0  0  0  0  0  0  0  0  0  0  0
  186.0590  177.4690  139.5470 C   0  0  0  0  0  3  0  0  0  0  0  0
  184.6050  178.2600  146.0820 C   0  0  0  0  0  3  0  0  0  0  0  0
  185.0320  178.0780  141.6270 C   0  0  0  0  0  0  0  0  0  0  0  0
  185.0140  178.1120  140.2340 C   0  0  0  0  0  2  0  0  0  0  0  0
  186.4470  177.0910  147.3180 C   0  0  0  0  0  0  0  0  0  0  0  0
  185.9360  177.4020  148.4280 O   0  0  0  0  0  0  0  0  0  0  0  0
  187.6460  176.3340  144.7480 C   0  0  0  0  0  2  0  0  0  0  0  0
  187.0900  176.8140  140.2560 C   0  0  0  0  0  3  0  0  0  0  0  0
  184.5810  178.3270  143.6860 C   0  0  0  0  0  0  0  0  0  0  0  0
  184.1190  178.6360  142.4520 N   0  0  0  0  0  0  0  0  0  0  0  0
  187.6900  176.2550  147.2990 C   0  0  0  0  0  2  0  0  0  0  0  0
  187.0900  176.7910  141.6620 C   0  0  0  0  0  3  0  0  0  0  0  0
  188.4950  176.5020  146.0170 C   0  0  1  0  0  3  0  0  0  0  0  0
  185.8020  177.5070  146.0550 C   0  0  0  0  0  0  0  0  0  0  0  0
  189.7050  175.7750  145.9750 O   0  0  0  0  0  0  0  0  0  0  0  0
  189.9160  175.1590  147.2220 C   0  0  0  0  0  2  0  0  0  0  0  0
  191.2550  175.5920  147.7980 C   0  0  0  0  0  2  0  0  0  0  0  0
  192.4050  175.1430  146.9070 C   0  0  0  0  0  2  0  0  0  0  0  0
  193.3140  176.3110  146.5560 C   0  0  0  0  0  3  0  0  0  0  0  0
  192.9260  176.8460  145.3290 O   0  0  0  0  0  1  0  0  0  0  0  0
  194.6360  175.8740  146.4720 O   0  0  0  0  0  1  0  0  0  0  0  0
  1 13  1  0  0  0  0
  1  2  2  0  0  0  0
  2 18  1  0  0  0  0
  3  6  1  0  0  0  0
  4  1  1  0  0  0  0
  5  8  1  0  0  0  0
  5 12  2  0  0  0  0
  7  4  1  0  0  0  0
  7 14  2  0  0  0  0
  8  7  1  0  0  0  0
  9 10  2  0  0  0  0
 11  2  1  0  0  0  0
 11 17  1  0  0  0  0
 12 16  1  0  0  0  0
 13  3  2  0  0  0  0
 14 13  1  0  0  0  0
 15  9  1  0  0  0  0
 16  4  2  0  0  0  0
 17 19  1  6  0  0  0
 17 15  1  0  0  0  0
 18  6  2  0  0  0  0
 18  9  1  0  0  0  0
 19 20  1  0  0  0  0
 20 21  1  0  0  0  0
 22 21  1  0  0  0  0
 23 22  1  0  0  0  0
 24 23  1  0  0  0  0
 25 23  1  0  0  0  0
M  END
>  <MODEL>
2

>  <REMARK>
 VINA RESULT:      -7.2      1.716      4.172
  Name = 
  5 active torsions:
  status: ('A' for Active; 'I' for Inactive)
    1  A    between atoms: C_2  and  C_21
    2  A    between atoms: O_6  and  C_15
    3  A    between atoms: O_6  and  C_23
    4  A    between atoms: C_15  and  C_25
    5  A    between atoms: C_21  and  C_25
                            x       y       z     vdW  Elec       q    Type
                         _______ _______ _______ _____ _____    ______ ____

>  <TORSDO>
F 5

$$$$
=
 OpenBabel11052417243D

 25 28  0  0  1  0  0  0  0  0999 V2000
  185.7730  177.9900  143.6470 C   0  0  0  0  0  0  0  0  0  0  0  0
  186.5470  177.8070  144.7980 C   0  0  0  0  0  0  0  0  0  0  0  0
  183.8930  178.8340  144.9130 C   0  0  0  0  0  3  0  0  0  0  0  0
  186.0210  177.7630  142.3150 C   0  0  0  0  0  0  0  0  0  0  0  0
  185.8980  177.5410  139.5590 C   0  0  0  0  0  3  0  0  0  0  0  0
  184.6400  178.6530  146.0880 C   0  0  0  0  0  3  0  0  0  0  0  0
  184.8760  178.1390  141.6440 C   0  0  0  0  0  0  0  0  0  0  0  0
  184.7840  178.0390  140.2570 C   0  0  0  0  0  2  0  0  0  0  0  0
  186.7300  177.9690  147.2930 C   0  0  0  0  0  0  0  0  0  0  0  0
  186.2230  178.2810  148.4040 O   0  0  0  0  0  0  0  0  0  0  0  0
  187.9250  177.2120  144.7210 C   0  0  0  0  0  2  0  0  0  0  0  0
  187.0680  177.1580  140.2510 C   0  0  0  0  0  3  0  0  0  0  0  0
  184.4860  178.4910  143.7020 C   0  0  0  0  0  0  0  0  0  0  0  0
  183.9140  178.5920  142.4790 N   0  0  0  0  0  0  0  0  0  0  0  0
  188.1070  177.3810  147.2610 C   0  0  0  0  0  2  0  0  0  0  0  0
  187.1410  177.2670  141.6510 C   0  0  0  0  0  3  0  0  0  0  0  0
  188.7860  177.6530  145.9130 C   0  0  1  0  0  3  0  0  0  0  0  0
  185.9560  178.1380  146.0440 C   0  0  0  0  0  0  0  0  0  0  0  0
  190.1090  177.1630  145.8520 O   0  0  0  0  0  0  0  0  0  0  0  0
  190.3790  176.4170  147.0140 C   0  0  0  0  0  2  0  0  0  0  0  0
  190.8640  175.0250  146.6400 C   0  0  0  0  0  2  0  0  0  0  0  0
  189.7160  174.1620  146.1360 C   0  0  0  0  0  2  0  0  0  0  0  0
  190.0580  173.5200  144.8010 C   0  0  0  0  0  3  0  0  0  0  0  0
  189.3640  174.1730  143.7830 O   0  0  0  0  0  1  0  0  0  0  0  0
  189.6970  172.1730  144.8160 O   0  0  0  0  0  1  0  0  0  0  0  0
  1 13  1  0  0  0  0
  1  2  2  0  0  0  0
  2 18  1  0  0  0  0
  3  6  1  0  0  0  0
  4  1  1  0  0  0  0
  5 12  2  0  0  0  0
  5  8  1  0  0  0  0
  7  4  1  0  0  0  0
  7 14  2  0  0  0  0
  8  7  1  0  0  0  0
  9 10  2  0  0  0  0
 11  2  1  0  0  0  0
 11 17  1  0  0  0  0
 12 16  1  0  0  0  0
 13  3  2  0  0  0  0
 14 13  1  0  0  0  0
 15  9  1  0  0  0  0
 16  4  2  0  0  0  0
 17 19  1  1  0  0  0
 17 15  1  0  0  0  0
 18  6  2  0  0  0  0
 18  9  1  0  0  0  0
 19 20  1  0  0  0  0
 21 20  1  0  0  0  0
 22 21  1  0  0  0  0
 23 25  1  0  0  0  0
 23 22  1  0  0  0  0
 24 23  1  0  0  0  0
M  END
>  <MODEL>
3

>  <REMARK>
 VINA RESULT:      -7.0      2.035      4.717
  Name = 
  5 active torsions:
  status: ('A' for Active; 'I' for Inactive)
    1  A    between atoms: C_2  and  C_21
    2  A    between atoms: O_6  and  C_15
    3  A    between atoms: O_6  and  C_23
    4  A    between atoms: C_15  and  C_25
    5  A    between atoms: C_21  and  C_25
                            x       y       z     vdW  Elec       q    Type
                         _______ _______ _______ _____ _____    ______ ____

>  <TORSDO>
F 5

$$$$
=
 OpenBabel11052417243D

 25 28  0  0  1  0  0  0  0  0999 V2000
  186.9570  177.7350  144.2060 C   0  0  0  0  0  0  0  0  0  0  0  0
  188.2970  177.5150  144.5430 C   0  0  0  0  0  0  0  0  0  0  0  0
  186.2610  177.7370  146.5220 C   0  0  0  0  0  3  0  0  0  0  0  0
  186.3150  177.8870  143.0000 C   0  0  0  0  0  0  0  0  0  0  0  0
  184.4820  178.2610  140.9610 C   0  0  0  0  0  3  0  0  0  0  0  0
  187.5950  177.5060  146.8930 C   0  0  0  0  0  3  0  0  0  0  0  0
  184.9830  178.0800  143.2990 C   0  0  0  0  0  0  0  0  0  0  0  0
  184.0360  178.2720  142.2950 C   0  0  0  0  0  2  0  0  0  0  0  0
  190.0140  177.1580  146.3340 C   0  0  0  0  0  0  0  0  0  0  0  0
  190.3110  177.0670  147.5550 O   0  0  0  0  0  0  0  0  0  0  0  0
  189.3470  177.3460  143.4810 C   0  0  0  0  0  2  0  0  0  0  0  0
  185.8480  178.0630  140.6610 C   0  0  0  0  0  3  0  0  0  0  0  0
  185.9690  177.8460  145.1650 C   0  0  0  0  0  0  0  0  0  0  0  0
  184.7440  178.0600  144.6300 N   0  0  0  0  0  0  0  0  0  0  0  0
  191.0930  176.9850  145.3090 C   0  0  0  0  0  2  0  0  0  0  0  0
  186.7870  177.8720  141.6890 C   0  0  0  0  0  3  0  0  0  0  0  0
  190.7370  177.7240  144.0120 C   0  0  1  0  0  3  0  0  0  0  0  0
  188.6140  177.3870  145.9190 C   0  0  0  0  0  0  0  0  0  0  0  0
  191.7490  177.6350  143.0300 O   0  0  0  0  0  0  0  0  0  0  0  0
  192.0520  176.2810  142.8030 C   0  0  0  0  0  2  0  0  0  0  0  0
  193.5540  176.1010  142.6470 C   0  0  0  0  0  2  0  0  0  0  0  0
  194.1490  175.3900  143.8540 C   0  0  0  0  0  2  0  0  0  0  0  0
  195.2320  176.2330  144.5090 C   0  0  0  0  0  3  0  0  0  0  0  0
  194.6380  177.2440  145.2640 O   0  0  0  0  0  1  0  0  0  0  0  0
  196.0450  176.8050  143.5310 O   0  0  0  0  0  1  0  0  0  0  0  0
  1  2  2  0  0  0  0
  1 13  1  0  0  0  0
  2 18  1  0  0  0  0
  3  6  1  0  0  0  0
  4  7  1  0  0  0  0
  4  1  1  0  0  0  0
  5  8  1  0  0  0  0
  7 14  2  0  0  0  0
  8  7  1  0  0  0  0
  9 10  2  0  0  0  0
 11 17  1  0  0  0  0
 11  2  1  0  0  0  0
 12  5  2  0  0  0  0
 12 16  1  0  0  0  0
 13  3  2  0  0  0  0
 14 13  1  0  0  0  0
 15  9  1  0  0  0  0
 16  4  2  0  0  0  0
 17 19  1  6  0  0  0
 17 15  1  0  0  0  0
 18  9  1  0  0  0  0
 18  6  2  0  0  0  0
 20 19  1  0  0  0  0
 21 20  1  0  0  0  0
 21 22  1  0  0  0  0
 22 23  1  0  0  0  0
 23 24  1  0  0  0  0
 25 23  1  0  0  0  0
M  END
>  <MODEL>
4

>  <REMARK>
 VINA RESULT:      -7.0      2.186      4.108
  Name = 
  5 active torsions:
  status: ('A' for Active; 'I' for Inactive)
    1  A    between atoms: C_2  and  C_21
    2  A    between atoms: O_6  and  C_15
    3  A    between atoms: O_6  and  C_23
    4  A    between atoms: C_15  and  C_25
    5  A    between atoms: C_21  and  C_25
                            x       y       z     vdW  Elec       q    Type
                         _______ _______ _______ _____ _____    ______ ____

>  <TORSDO>
F 5

$$$$
=
 OpenBabel11052417243D

 25 28  0  0  1  0  0  0  0  0999 V2000
  186.4650  177.8590  143.8810 C   0  0  0  0  0  0  0  0  0  0  0  0
  187.7960  177.6510  144.2610 C   0  0  0  0  0  0  0  0  0  0  0  0
  185.7110  177.9620  146.1760 C   0  0  0  0  0  3  0  0  0  0  0  0
  185.8550  177.9590  142.6540 C   0  0  0  0  0  0  0  0  0  0  0  0
  184.0740  178.2460  140.5550 C   0  0  0  0  0  3  0  0  0  0  0  0
  187.0350  177.7460  146.5910 C   0  0  0  0  0  3  0  0  0  0  0  0
  184.5160  178.1670  142.9110 C   0  0  0  0  0  0  0  0  0  0  0  0
  183.5950  178.3160  141.8760 C   0  0  0  0  0  2  0  0  0  0  0  0
  189.4670  177.3700  146.1080 C   0  0  0  0  0  0  0  0  0  0  0  0
  189.7330  177.3310  147.3400 O   0  0  0  0  0  0  0  0  0  0  0  0
  188.8720  177.4340  143.2340 C   0  0  0  0  0  2  0  0  0  0  0  0
  185.4460  178.0330  140.2980 C   0  0  0  0  0  3  0  0  0  0  0  0
  185.4540  178.0130  144.8090 C   0  0  0  0  0  0  0  0  0  0  0  0
  184.2440  178.2040  144.2340 N   0  0  0  0  0  0  0  0  0  0  0  0
  190.5700  177.1510  145.1190 C   0  0  0  0  0  2  0  0  0  0  0  0
  186.3590  177.8850  141.3570 C   0  0  0  0  0  3  0  0  0  0  0  0
  190.2490  177.8330  143.7830 C   0  0  1  0  0  3  0  0  0  0  0  0
  188.0780  177.5830  145.6490 C   0  0  0  0  0  0  0  0  0  0  0  0
  191.2850  177.7000  142.8320 O   0  0  0  0  0  0  0  0  0  0  0  0
  192.2130  176.7480  143.2910 C   0  0  0  0  0  2  0  0  0  0  0  0
  192.2840  175.5790  142.3220 C   0  0  0  0  0  2  0  0  0  0  0  0
  191.9120  174.2730  143.0110 C   0  0  0  0  0  2  0  0  0  0  0  0
  190.5020  173.8400  142.6420 C   0  0  0  0  0  3  0  0  0  0  0  0
  190.0680  174.5720  141.5370 O   0  0  0  0  0  1  0  0  0  0  0  0
  189.6400  174.0660  143.7140 O   0  0  0  0  0  1  0  0  0  0  0  0
  1  2  2  0  0  0  0
  1 13  1  0  0  0  0
  2 18  1  0  0  0  0
  3  6  1  0  0  0  0
  4  7  1  0  0  0  0
  4  1  1  0  0  0  0
  5  8  1  0  0  0  0
  7 14  2  0  0  0  0
  8  7  1  0  0  0  0
  9 10  2  0  0  0  0
 11 17  1  0  0  0  0
 11  2  1  0  0  0  0
 12  5  2  0  0  0  0
 12 16  1  0  0  0  0
 13  3  2  0  0  0  0
 14 13  1  0  0  0  0
 15  9  1  0  0  0  0
 16  4  2  0  0  0  0
 17 19  1  6  0  0  0
 17 15  1  0  0  0  0
 18  9  1  0  0  0  0
 18  6  2  0  0  0  0
 19 20  1  0  0  0  0
 21 22  1  0  0  0  0
 21 20  1  0  0  0  0
 23 22  1  0  0  0  0
 23 25  1  0  0  0  0
 24 23  1  0  0  0  0
M  END
>  <MODEL>
5

>  <REMARK>
 VINA RESULT:      -7.0      2.071      4.523
  Name = 
  5 active torsions:
  status: ('A' for Active; 'I' for Inactive)
    1  A    between atoms: C_2  and  C_21
    2  A    between atoms: O_6  and  C_15
    3  A    between atoms: O_6  and  C_23
    4  A    between atoms: C_15  and  C_25
    5  A    between atoms: C_21  and  C_25
                            x       y       z     vdW  Elec       q    Type
                         _______ _______ _______ _____ _____    ______ ____

>  <TORSDO>
F 5

$$$$
=
 OpenBabel11052417243D

 25 28  0  0  1  0  0  0  0  0999 V2000
  185.7480  177.5860  143.9470 C   0  0  0  0  0  0  0  0  0  0  0  0
  186.5400  176.9390  142.9920 C   0  0  0  0  0  0  0  0  0  0  0  0
  184.3980  178.6660  142.2560 C   0  0  0  0  0  3  0  0  0  0  0  0
  185.7630  177.5840  145.3200 C   0  0  1  0  0  3  0  0  0  0  0  0
  185.2720  177.9970  148.0130 C   0  0  0  0  0  3  0  0  0  0  0  0
  185.1800  178.0390  141.2720 C   0  0  0  0  0  3  0  0  0  0  0  0
  184.7340  178.4140  145.7130 C   0  0  0  0  0  0  0  0  0  0  0  0
  184.4620  178.6420  147.0610 C   0  0  0  0  0  3  0  0  0  0  0  0
  187.0530  176.5250  140.5730 C   0  0  0  0  0  0  0  0  0  0  0  0
  186.7900  176.7180  139.3550 O   0  0  0  0  0  0  0  0  0  0  0  0
  187.7000  176.0760  143.4010 C   0  0  0  0  0  2  0  0  0  0  0  0
  186.3240  177.1470  147.6050 C   0  0  0  0  0  3  0  0  0  0  0  0
  184.7070  178.4210  143.5900 C   0  0  0  0  0  0  0  0  0  0  0  0
  184.0670  178.9430  144.6630 N   0  0  0  0  0  0  0  0  0  0  0  0
  188.2170  175.6550  140.9360 C   0  0  0  0  0  2  0  0  0  0  0  0
  186.5820  176.9310  146.2400 C   0  0  0  0  0  3  0  0  0  0  0  0
  188.0190  175.0290  142.3230 C   0  0  1  0  0  3  0  0  0  0  0  0
  186.2510  177.1850  141.6250 C   0  0  0  0  0  0  0  0  0  0  0  0
  189.0680  174.1570  142.6900 O   0  0  0  0  0  0  0  0  0  0  0  0
  189.8320  174.7580  143.7070 C   0  0  0  0  0  2  0  0  0  0  0  0
  189.7990  173.9000  144.9620 C   0  0  0  0  0  2  0  0  0  0  0  0
  190.7170  174.4660  146.0370 C   0  0  0  0  0  2  0  0  0  0  0  0
  189.9400  175.3110  147.0330 C   0  0  0  0  0  3  0  0  0  0  0  0
  190.8100  175.7910  148.0110 O   0  0  0  0  0  1  0  0  0  0  0  0
  188.9470  174.5410  147.6360 O   0  0  0  0  0  1  0  0  0  0  0  0
  1  4  1  0  0  0  0
  2 11  1  0  0  0  0
  2  1  1  0  0  0  0
  3 13  1  0  0  0  0
  4  7  1  0  0  0  0
  4 16  1  1  0  0  0
  6 18  1  0  0  0  0
  6  3  2  0  0  0  0
  7  8  1  0  0  0  0
  8  5  2  0  0  0  0
  9 15  1  0  0  0  0
  9 18  1  0  0  0  0
 10  9  2  0  0  0  0
 12  5  1  0  0  0  0
 13  1  2  0  0  0  0
 13 14  1  0  0  0  0
 14  7  2  0  0  0  0
 15 17  1  0  0  0  0
 16 12  2  0  0  0  0
 17 19  1  1  0  0  0
 17 11  1  0  0  0  0
 18  2  2  0  0  0  0
 19 20  1  0  0  0  0
 20 21  1  0  0  0  0
 21 22  1  0  0  0  0
 22 23  1  0  0  0  0
 23 25  1  0  0  0  0
 23 24  1  0  0  0  0
M  END
>  <MODEL>
6

>  <REMARK>
 VINA RESULT:      -6.9      1.666      2.788
  Name = 
  5 active torsions:
  status: ('A' for Active; 'I' for Inactive)
    1  A    between atoms: C_2  and  C_21
    2  A    between atoms: O_6  and  C_15
    3  A    between atoms: O_6  and  C_23
    4  A    between atoms: C_15  and  C_25
    5  A    between atoms: C_21  and  C_25
                            x       y       z     vdW  Elec       q    Type
                         _______ _______ _______ _____ _____    ______ ____

>  <TORSDO>
F 5

$$$$
=
 OpenBabel11052417243D

 25 28  0  0  1  0  0  0  0  0999 V2000
  189.9880  175.5050  144.2260 C   0  0  0  0  0  0  0  0  0  0  0  0
  189.0960  175.9110  143.2280 C   0  0  0  0  0  0  0  0  0  0  0  0
  190.8190  173.6690  142.8900 C   0  0  0  0  0  3  0  0  0  0  0  0
  190.2600  175.9910  145.4820 C   0  0  1  0  0  3  0  0  0  0  0  0
  191.2470  176.4650  148.0230 C   0  0  0  0  0  3  0  0  0  0  0  0
  189.9290  174.0450  141.8710 C   0  0  0  0  0  3  0  0  0  0  0  0
  191.2420  175.1750  146.0020 C   0  0  0  0  0  0  0  0  0  0  0  0
  191.7610  175.3880  147.2780 C   0  0  0  0  0  3  0  0  0  0  0  0
  188.1440  175.5390  140.9390 C   0  0  0  0  0  0  0  0  0  0  0  0
  188.1230  174.8850  139.8610 O   0  0  0  0  0  0  0  0  0  0  0  0
  188.1570  177.0640  143.4470 C   0  0  0  0  0  2  0  0  0  0  0  0
  190.2420  177.2980  147.4860 C   0  0  0  0  0  3  0  0  0  0  0  0
  190.8260  174.4190  144.0620 C   0  0  0  0  0  0  0  0  0  0  0  0
  191.6090  174.1970  145.1430 N   0  0  0  0  0  0  0  0  0  0  0  0
  187.1920  176.6820  141.1150 C   0  0  0  0  0  2  0  0  0  0  0  0
  189.7330  177.0660  146.1960 C   0  0  0  0  0  3  0  0  0  0  0  0
  187.7460  177.7060  142.1140 C   0  0  1  0  0  3  0  0  0  0  0  0
  189.0630  175.1520  142.0300 C   0  0  0  0  0  0  0  0  0  0  0  0
  186.9070  178.8300  142.2750 O   0  0  0  0  0  0  0  0  0  0  0  0
  185.8370  178.4900  143.1230 C   0  0  0  0  0  2  0  0  0  0  0  0
  185.5260  179.6450  144.0610 C   0  0  0  0  0  2  0  0  0  0  0  0
  185.8370  179.2770  145.5050 C   0  0  0  0  0  2  0  0  0  0  0  0
  184.7520  178.3870  146.0900 C   0  0  0  0  0  3  0  0  0  0  0  0
  183.5010  178.8730  145.7120 O   0  0  0  0  0  1  0  0  0  0  0  0
  184.8430  178.3780  147.4810 O   0  0  0  0  0  1  0  0  0  0  0  0
  1  4  1  0  0  0  0
  2 11  1  0  0  0  0
  2  1  1  0  0  0  0
  3 13  1  0  0  0  0
  4  7  1  0  0  0  0
  4 16  1  6  0  0  0
  6 18  1  0  0  0  0
  6  3  2  0  0  0  0
  7  8  1  0  0  0  0
  8  5  2  0  0  0  0
  9 15  1  0  0  0  0
  9 18  1  0  0  0  0
 10  9  2  0  0  0  0
 12  5  1  0  0  0  0
 13  1  2  0  0  0  0
 13 14  1  0  0  0  0
 14  7  2  0  0  0  0
 15 17  1  0  0  0  0
 16 12  2  0  0  0  0
 17 19  1  1  0  0  0
 17 11  1  0  0  0  0
 18  2  2  0  0  0  0
 19 20  1  0  0  0  0
 20 21  1  0  0  0  0
 21 22  1  0  0  0  0
 22 23  1  0  0  0  0
 23 25  1  0  0  0  0
 24 23  1  0  0  0  0
M  END
>  <MODEL>
7

>  <REMARK>
 VINA RESULT:      -6.8      3.288      6.028
  Name = 
  5 active torsions:
  status: ('A' for Active; 'I' for Inactive)
    1  A    between atoms: C_2  and  C_21
    2  A    between atoms: O_6  and  C_15
    3  A    between atoms: O_6  and  C_23
    4  A    between atoms: C_15  and  C_25
    5  A    between atoms: C_21  and  C_25
                            x       y       z     vdW  Elec       q    Type
                         _______ _______ _______ _____ _____    ______ ____

>  <TORSDO>
F 5

$$$$
=
 OpenBabel11052417243D

 25 28  0  0  1  0  0  0  0  0999 V2000
  185.9830  177.3700  143.7610 C   0  0  0  0  0  0  0  0  0  0  0  0
  186.9080  176.6260  143.0190 C   0  0  0  0  0  0  0  0  0  0  0  0
  184.8610  178.1630  141.7710 C   0  0  0  0  0  3  0  0  0  0  0  0
  185.8100  177.5560  145.1110 C   0  0  2  0  0  3  0  0  0  0  0  0
  184.9520  178.3160  147.6290 C   0  0  0  0  0  3  0  0  0  0  0  0
  185.7790  177.4350  140.9970 C   0  0  0  0  0  3  0  0  0  0  0  0
  184.7260  178.3970  145.2430 C   0  0  0  0  0  0  0  0  0  0  0  0
  184.2690  178.7970  146.4980 C   0  0  0  0  0  3  0  0  0  0  0  0
  187.7510  175.9030  140.7720 C   0  0  0  0  0  0  0  0  0  0  0  0
  187.6540  175.9190  139.5150 O   0  0  0  0  0  0  0  0  0  0  0  0
  188.0140  175.8660  143.6960 C   0  0  0  0  0  2  0  0  0  0  0  0
  186.0610  177.4540  147.4880 C   0  0  0  0  0  3  0  0  0  0  0  0
  184.9880  178.1140  143.1560 C   0  0  0  0  0  0  0  0  0  0  0  0
  184.2010  178.7550  144.0500 N   0  0  0  0  0  0  0  0  0  0  0  0
  188.8680  175.1310  141.4050 C   0  0  0  0  0  2  0  0  0  0  0  0
  186.5060  177.0630  146.2130 C   0  0  0  0  0  3  0  0  0  0  0  0
  188.4920  174.6940  142.8270 C   0  0  1  0  0  3  0  0  0  0  0  0
  186.8040  176.6730  141.6060 C   0  0  0  0  0  0  0  0  0  0  0  0
  189.4930  173.9150  143.4490 O   0  0  0  0  0  0  0  0  0  0  0  0
  189.9190  174.5630  144.6230 C   0  0  0  0  0  2  0  0  0  0  0  0
  191.3990  174.8950  144.5290 C   0  0  0  0  0  2  0  0  0  0  0  0
  191.6290  176.3990  144.5940 C   0  0  0  0  0  2  0  0  0  0  0  0
  191.9340  176.9670  143.2170 C   0  0  0  0  0  3  0  0  0  0  0  0
  190.8390  177.7020  142.7660 O   0  0  0  0  0  1  0  0  0  0  0  0
  192.1940  175.9300  142.3220 O   0  0  0  0  0  1  0  0  0  0  0  0
  1  4  1  0  0  0  0
  2 11  1  0  0  0  0
  2  1  1  0  0  0  0
  3 13  1  0  0  0  0
  4  7  1  0  0  0  0
  4 16  1  6  0  0  0
  6 18  1  0  0  0  0
  6  3  2  0  0  0  0
  7  8  1  0  0  0  0
  8  5  2  0  0  0  0
  9 15  1  0  0  0  0
  9 18  1  0  0  0  0
 10  9  2  0  0  0  0
 12  5  1  0  0  0  0
 13  1  2  0  0  0  0
 13 14  1  0  0  0  0
 14  7  2  0  0  0  0
 15 17  1  0  0  0  0
 16 12  2  0  0  0  0
 17 19  1  1  0  0  0
 17 11  1  0  0  0  0
 18  2  2  0  0  0  0
 19 20  1  0  0  0  0
 21 22  1  0  0  0  0
 21 20  1  0  0  0  0
 23 22  1  0  0  0  0
 24 23  1  0  0  0  0
 25 23  1  0  0  0  0
M  END
>  <MODEL>
8

>  <REMARK>
 VINA RESULT:      -6.8      1.938      2.356
  Name = 
  5 active torsions:
  status: ('A' for Active; 'I' for Inactive)
    1  A    between atoms: C_2  and  C_21
    2  A    between atoms: O_6  and  C_15
    3  A    between atoms: O_6  and  C_23
    4  A    between atoms: C_15  and  C_25
    5  A    between atoms: C_21  and  C_25
                            x       y       z     vdW  Elec       q    Type
                         _______ _______ _______ _____ _____    ______ ____

>  <TORSDO>
F 5

$$$$
=
 OpenBabel11052417243D

 25 28  0  0  1  0  0  0  0  0999 V2000
  188.3030  175.6350  142.2530 C   0  0  0  0  0  0  0  0  0  0  0  0
  188.9020  175.3070  143.4740 C   0  0  0  0  0  0  0  0  0  0  0  0
  189.4750  173.8740  141.0800 C   0  0  0  0  0  3  0  0  0  0  0  0
  187.3960  176.6020  141.8940 C   0  0  0  0  0  0  0  0  0  0  0  0
  185.6380  178.2750  140.5640 C   0  0  0  0  0  3  0  0  0  0  0  0
  190.1000  173.5250  142.2880 C   0  0  0  0  0  3  0  0  0  0  0  0
  187.1760  176.4350  140.5430 C   0  0  0  0  0  0  0  0  0  0  0  0
  186.2960  177.2610  139.8450 C   0  0  0  0  0  2  0  0  0  0  0  0
  190.4880  173.8390  144.7450 C   0  0  0  0  0  0  0  0  0  0  0  0
  191.2960  172.8720  144.7680 O   0  0  0  0  0  0  0  0  0  0  0  0
  188.6280  176.1100  144.7140 C   0  0  0  0  0  2  0  0  0  0  0  0
  185.8660  178.4410  141.9480 C   0  0  0  0  0  3  0  0  0  0  0  0
  188.5790  174.9390  141.0920 C   0  0  0  0  0  0  0  0  0  0  0  0
  187.8950  175.4140  140.0250 N   0  0  0  0  0  0  0  0  0  0  0  0
  190.2420  174.6110  146.0050 C   0  0  0  0  0  2  0  0  0  0  0  0
  186.7580  177.5970  142.6330 C   0  0  0  0  0  3  0  0  0  0  0  0
  188.8570  175.2710  145.9800 C   0  0  1  0  0  3  0  0  0  0  0  0
  189.8290  174.2330  143.4820 C   0  0  0  0  0  0  0  0  0  0  0  0
  188.5560  175.9690  147.1700 O   0  0  0  0  0  0  0  0  0  0  0  0
  187.7390  177.0720  146.8630 C   0  0  0  0  0  2  0  0  0  0  0  0
  186.3220  176.8250  147.3560 C   0  0  0  0  0  2  0  0  0  0  0  0
  185.3250  176.8800  146.2060 C   0  0  0  0  0  2  0  0  0  0  0  0
  184.3290  178.0140  146.3970 C   0  0  0  0  0  3  0  0  0  0  0  0
  184.4470  178.9160  145.3410 O   0  0  0  0  0  1  0  0  0  0  0  0
  184.5850  178.6730  147.5990 O   0  0  0  0  0  1  0  0  0  0  0  0
  1  2  2  0  0  0  0
  2 18  1  0  0  0  0
  2 11  1  0  0  0  0
  3 13  2  0  0  0  0
  3  6  1  0  0  0  0
  4  1  1  0  0  0  0
  4 16  2  0  0  0  0
  5 12  2  0  0  0  0
  6 18  2  0  0  0  0
  7  4  1  0  0  0  0
  8  7  1  0  0  0  0
  8  5  1  0  0  0  0
  9 10  2  0  0  0  0
  9 15  1  0  0  0  0
 11 17  1  0  0  0  0
 12 16  1  0  0  0  0
 13  1  1  0  0  0  0
 14  7  2  0  0  0  0
 14 13  1  0  0  0  0
 17 15  1  0  0  0  0
 17 19  1  1  0  0  0
 18  9  1  0  0  0  0
 20 19  1  0  0  0  0
 20 21  1  0  0  0  0
 22 23  1  0  0  0  0
 22 21  1  0  0  0  0
 23 25  1  0  0  0  0
 24 23  1  0  0  0  0
M  END
>  <MODEL>
9

>  <REMARK>
 VINA RESULT:      -6.6      2.748      5.090
  Name = 
  5 active torsions:
  status: ('A' for Active; 'I' for Inactive)
    1  A    between atoms: C_2  and  C_21
    2  A    between atoms: O_6  and  C_15
    3  A    between atoms: O_6  and  C_23
    4  A    between atoms: C_15  and  C_25
    5  A    between atoms: C_21  and  C_25
                            x       y       z     vdW  Elec       q    Type
                         _______ _______ _______ _____ _____    ______ ____

>  <TORSDO>
F 5

$$$$
