=
 OpenBabel11052421253D

 32 38  0  0  1  0  0  0  0  0999 V2000
  190.4240  171.1470  139.8290 C   0  0  1  0  0  3  0  0  0  0  0  0
  188.4260  174.8670  142.4890 C   0  0  0  0  0  0  0  0  0  0  0  0
  191.4380  175.4240  146.3210 C   0  0  0  0  0  2  0  0  0  0  0  0
  190.3500  176.0870  147.1430 C   0  0  0  0  0  2  0  0  0  0  0  0
  188.8110  173.2990  140.8650 C   0  0  0  0  0  0  0  0  0  0  0  0
  189.9790  173.0860  142.9340 N   0  0  0  0  0  0  0  0  0  0  0  0
  190.2300  171.3700  141.2890 C   0  0  0  0  0  2  0  0  0  0  0  0
  190.7770  174.2220  145.4950 C   0  0  0  0  0  2  0  0  0  0  0  0
  189.3320  174.2460  143.3840 C   0  0  0  0  0  0  0  0  0  0  0  0
  189.6220  174.7760  144.6470 C   0  0  0  0  0  0  0  0  0  0  0  0
  187.9320  176.5260  144.1930 C   0  0  0  0  0  0  0  0  0  0  0  0
  189.5670  171.9430  138.7950 C   0  0  1  0  0  3  0  0  0  0  0  0
  189.6950  172.6460  141.7100 C   0  0  0  0  0  0  0  0  0  0  0  0
  188.4490  172.8340  139.4990 C   0  0  0  0  0  2  0  0  0  0  0  0
  191.0230  172.3340  139.0570 C   0  0  2  0  0  3  0  0  0  0  0  0
  189.3000  176.6510  146.2380 C   0  0  0  0  0  2  0  0  0  0  0  0
  188.8680  175.8980  145.0450 C   0  0  0  0  0  0  0  0  0  0  0  0
  188.1740  174.3930  141.2630 N   0  0  0  0  0  0  0  0  0  0  0  0
  187.7160  176.0200  142.8980 C   0  0  0  0  0  0  0  0  0  0  0  0
  186.6100  176.5590  142.1020 C   0  0  0  0  0  3  0  0  0  0  0  0
  186.7210  177.5230  141.2610 N   0  0  0  0  0  2  0  0  0  0  0  0
  192.1620  171.5630  138.2140 C   0  0  0  0  0  2  0  0  0  0  0  0
  191.7650  170.9820  136.8680 C   0  0  0  0  0  0  0  0  0  0  0  0
  191.4820  171.7650  135.8080 O   0  0  0  0  0  0  0  0  0  0  0  0
  191.5950  169.7380  136.7810 O   0  0  0  0  0  1  0  0  0  0  0  0
  187.5850  177.9580  144.6260 C   0  0  0  0  0  2  0  0  0  0  0  0
  185.1890  179.1480  145.9160 C   0  0  0  0  0  0  0  0  0  0  0  0
  184.8650  178.6550  144.6670 C   0  0  0  0  0  0  0  0  0  0  0  0
  184.3010  178.0070  146.5450 C   0  0  0  0  0  2  0  0  0  0  0  0
  185.3680  178.6130  147.3890 C   0  0  0  0  0  2  0  0  0  0  0  0
  183.9880  178.4870  143.7650 O   0  0  0  0  0  0  0  0  0  0  0  0
  186.2720  178.4970  145.1780 N   0  0  0  0  0  0  0  0  0  0  0  0
  1  7  1  1  0  0  0
  2 19  2  0  0  0  0
  2  9  1  0  0  0  0
  3  4  1  0  0  0  0
  5 18  2  0  0  0  0
  5 13  1  0  0  0  0
  6  9  1  0  0  0  0
  7 13  1  0  0  0  0
  8  3  1  0  0  0  0
  9 10  2  0  0  0  0
 10 17  1  0  0  0  0
 10  8  1  0  0  0  0
 11 26  1  0  0  0  0
 11 17  2  0  0  0  0
 12 15  1  0  0  0  0
 12 14  1  1  0  0  0
 12  1  1  0  0  0  0
 13  6  2  0  0  0  0
 14  5  1  0  0  0  0
 15 22  1  6  0  0  0
 15  1  1  0  0  0  0
 16  4  1  0  0  0  0
 17 16  1  0  0  0  0
 18  2  1  0  0  0  0
 19 11  1  0  0  0  0
 20 19  1  0  0  0  0
 21 20  2  0  0  0  0
 23 22  1  0  0  0  0
 24 23  2  0  0  0  0
 25 23  1  0  0  0  0
 26 32  1  0  0  0  0
 27 29  1  0  0  0  0
 27 30  1  0  0  0  0
 28 32  1  0  0  0  0
 28 27  1  0  0  0  0
 29 30  1  0  0  0  0
 31 28  2  0  0  0  0
 32 27  1  0  0  0  0
M  END
>  <MODEL>
1

>  <REMARK>
 VINA RESULT:      -7.4      0.000      0.000
  Name = 
  5 active torsions:
  status: ('A' for Active; 'I' for Inactive)
    1  A    between atoms: C_1  and  C_10
    2  A    between atoms: C_6  and  C_31
    3  A    between atoms: C_10  and  C_24
    4  A    between atoms: C_16  and  C_27
    5  A    between atoms: C_27  and  N_32
                            x       y       z     vdW  Elec       q    Type
                         _______ _______ _______ _____ _____    ______ ____

>  <TORSDO>
F 5

$$$$
=
 OpenBabel11052421253D

 32 38  0  0  1  0  0  0  0  0999 V2000
  195.7810  174.4490  144.4220 C   0  0  1  0  0  3  0  0  0  0  0  0
  191.1600  176.0940  145.3370 C   0  0  0  0  0  0  0  0  0  0  0  0
  188.4790  174.4570  141.5670 C   0  0  0  0  0  2  0  0  0  0  0  0
  187.4270  175.5260  141.7880 C   0  0  0  0  0  2  0  0  0  0  0  0
  193.4000  175.6520  145.5110 C   0  0  0  0  0  0  0  0  0  0  0  0
  192.3500  175.3240  143.3940 N   0  0  0  0  0  0  0  0  0  0  0  0
  194.7170  175.0360  143.5610 C   0  0  0  0  0  2  0  0  0  0  0  0
  189.9180  175.1190  141.8020 C   0  0  0  0  0  2  0  0  0  0  0  0
  191.1380  175.7360  143.9660 C   0  0  0  0  0  0  0  0  0  0  0  0
  189.9600  175.7370  143.2090 C   0  0  0  0  0  0  0  0  0  0  0  0
  188.7960  176.6360  145.1990 C   0  0  0  0  0  0  0  0  0  0  0  0
  195.7500  174.6690  145.9670 C   0  0  1  0  0  3  0  0  0  0  0  0
  193.4320  175.3050  144.1690 C   0  0  0  0  0  0  0  0  0  0  0  0
  194.5860  175.6640  146.4090 C   0  0  0  0  0  2  0  0  0  0  0  0
  195.3190  173.3290  145.3680 C   0  0  2  0  0  3  0  0  0  0  0  0
  187.4970  176.0270  143.1960 C   0  0  0  0  0  2  0  0  0  0  0  0
  188.8060  176.2380  143.8430 C   0  0  0  0  0  0  0  0  0  0  0  0
  192.2710  176.0550  146.0810 N   0  0  0  0  0  0  0  0  0  0  0  0
  189.9760  176.5510  145.9610 C   0  0  0  0  0  0  0  0  0  0  0  0
  189.9990  177.1460  147.3000 C   0  0  0  0  0  3  0  0  0  0  0  0
  189.6770  178.3620  147.5610 N   0  0  0  0  0  2  0  0  0  0  0  0
  196.4720  172.2380  145.0830 C   0  0  0  0  0  2  0  0  0  0  0  0
  196.3040  170.8630  145.7040 C   0  0  0  0  0  0  0  0  0  0  0  0
  197.3440  170.0190  145.8600 O   0  0  0  0  0  0  0  0  0  0  0  0
  195.1420  170.4690  145.9800 O   0  0  0  0  0  1  0  0  0  0  0  0
  187.3850  176.6950  145.8020 C   0  0  0  0  0  2  0  0  0  0  0  0
  185.5870  179.0070  146.2970 C   0  0  0  0  0  0  0  0  0  0  0  0
  185.8850  178.9130  144.9520 C   0  0  0  0  0  0  0  0  0  0  0  0
  184.1010  178.6110  145.9470 C   0  0  0  0  0  2  0  0  0  0  0  0
  184.5850  178.3670  147.3330 C   0  0  0  0  0  2  0  0  0  0  0  0
  185.7640  179.3880  143.7810 O   0  0  0  0  0  0  0  0  0  0  0  0
  186.4390  177.8850  145.9020 N   0  0  0  0  0  0  0  0  0  0  0  0
  1  7  1  6  0  0  0
  1 15  1  0  0  0  0
  1 12  1  0  0  0  0
  2 19  1  0  0  0  0
  2 18  2  0  0  0  0
  3  4  1  0  0  0  0
  3  8  1  0  0  0  0
  4 16  1  0  0  0  0
  5 18  1  0  0  0  0
  5 14  1  0  0  0  0
  6  9  2  0  0  0  0
  6 13  1  0  0  0  0
  7 13  1  0  0  0  0
  8 10  1  0  0  0  0
  9  2  1  0  0  0  0
 10 17  2  0  0  0  0
 10  9  1  0  0  0  0
 11 26  1  0  0  0  0
 11 19  2  0  0  0  0
 12 14  1  6  0  0  0
 13  5  2  0  0  0  0
 15 22  1  1  0  0  0
 15 12  1  0  0  0  0
 16 17  1  0  0  0  0
 17 11  1  0  0  0  0
 19 20  1  0  0  0  0
 20 21  2  0  0  0  0
 22 23  1  0  0  0  0
 23 24  2  0  0  0  0
 23 25  1  0  0  0  0
 26 32  1  0  0  0  0
 27 30  1  0  0  0  0
 28 32  1  0  0  0  0
 28 27  1  0  0  0  0
 29 27  1  0  0  0  0
 29 30  1  0  0  0  0
 31 28  2  0  0  0  0
 32 27  1  0  0  0  0
M  END
>  <MODEL>
2

>  <REMARK>
 VINA RESULT:      -7.4      3.857      5.916
  Name = 
  5 active torsions:
  status: ('A' for Active; 'I' for Inactive)
    1  A    between atoms: C_1  and  C_10
    2  A    between atoms: C_6  and  C_31
    3  A    between atoms: C_10  and  C_24
    4  A    between atoms: C_16  and  C_27
    5  A    between atoms: C_27  and  N_32
                            x       y       z     vdW  Elec       q    Type
                         _______ _______ _______ _____ _____    ______ ____

>  <TORSDO>
F 5

$$$$
=
 OpenBabel11052421253D

 32 38  0  0  1  0  0  0  0  0999 V2000
  185.1460  177.7570  146.0730 C   0  0  1  0  0  3  0  0  0  0  0  0
  189.9300  176.5050  146.7480 C   0  0  0  0  0  0  0  0  0  0  0  0
  190.7970  173.0220  143.4030 C   0  0  0  0  0  2  0  0  0  0  0  0
  191.9700  172.4830  144.1970 C   0  0  0  0  0  2  0  0  0  0  0  0
  187.8830  177.5150  146.9420 C   0  0  0  0  0  0  0  0  0  0  0  0
  188.0190  175.4720  145.7160 N   0  0  0  0  0  0  0  0  0  0  0  0
  185.8710  176.4550  146.0810 C   0  0  0  0  0  2  0  0  0  0  0  0
  189.6370  173.4160  144.4340 C   0  0  0  0  0  2  0  0  0  0  0  0
  189.3960  175.4410  145.9810 C   0  0  0  0  0  0  0  0  0  0  0  0
  190.1960  174.4190  145.4560 C   0  0  0  0  0  0  0  0  0  0  0  0
  192.1150  175.4520  146.6270 C   0  0  0  0  0  0  0  0  0  0  0  0
  185.7800  179.0100  146.7560 C   0  0  1  0  0  3  0  0  0  0  0  0
  187.3110  176.4880  146.2080 C   0  0  0  0  0  0  0  0  0  0  0  0
  187.1300  178.6570  147.5250 C   0  0  0  0  0  2  0  0  0  0  0  0
  185.7980  178.8670  145.2330 C   0  0  2  0  0  3  0  0  0  0  0  0
  192.4900  173.5410  145.1190 C   0  0  0  0  0  2  0  0  0  0  0  0
  191.5520  174.4250  145.8360 C   0  0  0  0  0  0  0  0  0  0  0  0
  189.1820  177.5110  147.2170 N   0  0  0  0  0  0  0  0  0  0  0  0
  191.3050  176.5110  147.0770 C   0  0  0  0  0  0  0  0  0  0  0  0
  191.8540  177.4580  148.0510 C   0  0  0  0  0  3  0  0  0  0  0  0
  191.5280  177.4950  149.2940 N   0  0  0  0  0  2  0  0  0  0  0  0
  184.5060  179.3900  144.4230 C   0  0  0  0  0  2  0  0  0  0  0  0
  184.0610  178.5830  143.2160 C   0  0  0  0  0  0  0  0  0  0  0  0
  182.7970  178.6360  142.7480 O   0  0  0  0  0  1  0  0  0  0  0  0
  184.8740  177.7660  142.7110 O   0  0  0  0  0  0  0  0  0  0  0  0
  193.6460  175.5210  146.5300 C   0  0  0  0  0  2  0  0  0  0  0  0
  195.1600  176.1790  144.0600 C   0  0  0  0  0  0  0  0  0  0  0  0
  195.8820  175.3020  144.8440 C   0  0  0  0  0  0  0  0  0  0  0  0
  194.9870  175.0200  143.0050 C   0  0  0  0  0  2  0  0  0  0  0  0
  193.9960  176.1310  142.9960 C   0  0  0  0  0  2  0  0  0  0  0  0
  196.9480  174.6350  145.0210 O   0  0  0  0  0  0  0  0  0  0  0  0
  194.5150  175.7380  145.2970 N   0  0  0  0  0  0  0  0  0  0  0  0
  1  7  1  1  0  0  0
  1 12  1  0  0  0  0
  2 19  1  0  0  0  0
  2 18  2  0  0  0  0
  3  4  1  0  0  0  0
  3  8  1  0  0  0  0
  4 16  1  0  0  0  0
  5 18  1  0  0  0  0
  5 14  1  0  0  0  0
  6  9  2  0  0  0  0
  6 13  1  0  0  0  0
  7 13  1  0  0  0  0
  8 10  1  0  0  0  0
  9  2  1  0  0  0  0
 10 17  2  0  0  0  0
 10  9  1  0  0  0  0
 11 19  2  0  0  0  0
 12 14  1  1  0  0  0
 13  5  2  0  0  0  0
 15 22  1  6  0  0  0
 15  1  1  0  0  0  0
 15 12  1  0  0  0  0
 16 17  1  0  0  0  0
 17 11  1  0  0  0  0
 19 20  1  0  0  0  0
 20 21  2  0  0  0  0
 23 22  1  0  0  0  0
 24 23  1  0  0  0  0
 25 23  2  0  0  0  0
 26 11  1  0  0  0  0
 27 28  1  0  0  0  0
 27 32  1  0  0  0  0
 28 31  2  0  0  0  0
 28 32  1  0  0  0  0
 29 27  1  0  0  0  0
 30 29  1  0  0  0  0
 30 27  1  0  0  0  0
 32 26  1  0  0  0  0
M  END
>  <MODEL>
3

>  <REMARK>
 VINA RESULT:      -7.2      4.158      8.667
  Name = 
  5 active torsions:
  status: ('A' for Active; 'I' for Inactive)
    1  A    between atoms: C_1  and  C_10
    2  A    between atoms: C_6  and  C_31
    3  A    between atoms: C_10  and  C_24
    4  A    between atoms: C_16  and  C_27
    5  A    between atoms: C_27  and  N_32
                            x       y       z     vdW  Elec       q    Type
                         _______ _______ _______ _____ _____    ______ ____

>  <TORSDO>
F 5

$$$$
=
 OpenBabel11052421253D

 32 38  0  0  1  0  0  0  0  0999 V2000
  187.2800  177.7030  142.8800 C   0  0  1  0  0  3  0  0  0  0  0  0
  190.7450  174.1980  143.6620 C   0  0  0  0  0  0  0  0  0  0  0  0
  194.1090  176.3740  146.4940 C   0  0  0  0  0  2  0  0  0  0  0  0
  195.1780  175.3890  146.0660 C   0  0  0  0  0  2  0  0  0  0  0  0
  188.8640  175.2970  142.9560 C   0  0  0  0  0  0  0  0  0  0  0  0
  190.6730  176.5970  143.8090 N   0  0  0  0  0  0  0  0  0  0  0  0
  188.7690  177.7260  142.9060 C   0  0  0  0  0  2  0  0  0  0  0  0
  193.2230  176.7360  145.2110 C   0  0  0  0  0  2  0  0  0  0  0  0
  191.3860  175.4090  144.0220 C   0  0  0  0  0  0  0  0  0  0  0  0
  192.6550  175.4400  144.6130 C   0  0  0  0  0  0  0  0  0  0  0  0
  192.7350  172.9810  144.3400 C   0  0  0  0  0  0  0  0  0  0  0  0
  186.5210  176.3560  142.6610 C   0  0  1  0  0  3  0  0  0  0  0  0
  189.4550  176.5080  143.2780 C   0  0  0  0  0  0  0  0  0  0  0  0
  187.5150  175.1510  142.3460 C   0  0  0  0  0  2  0  0  0  0  0  0
  186.6120  176.9740  144.0570 C   0  0  2  0  0  3  0  0  0  0  0  0
  194.5400  174.1340  145.5560 C   0  0  0  0  0  2  0  0  0  0  0  0
  193.3290  174.2070  144.7190 C   0  0  0  0  0  0  0  0  0  0  0  0
  189.5150  174.1540  143.1370 N   0  0  0  0  0  0  0  0  0  0  0  0
  191.4270  172.9700  143.8210 C   0  0  0  0  0  0  0  0  0  0  0  0
  190.9010  171.7240  143.2550 C   0  0  0  0  0  3  0  0  0  0  0  0
  191.2270  171.2540  142.1050 N   0  0  0  0  0  2  0  0  0  0  0  0
  185.4980  178.0690  144.4580 C   0  0  0  0  0  2  0  0  0  0  0  0
  184.7440  177.8580  145.7600 C   0  0  0  0  0  0  0  0  0  0  0  0
  184.9060  176.7460  146.5050 O   0  0  0  0  0  1  0  0  0  0  0  0
  183.8700  178.7010  146.0880 O   0  0  0  0  0  0  0  0  0  0  0  0
  193.4270  171.7570  144.9570 C   0  0  0  0  0  2  0  0  0  0  0  0
  196.0950  170.4900  144.6430 C   0  0  0  0  0  0  0  0  0  0  0  0
  195.7870  171.2410  143.5260 C   0  0  0  0  0  0  0  0  0  0  0  0
  197.2240  171.5370  144.9790 C   0  0  0  0  0  2  0  0  0  0  0  0
  196.6820  170.7090  146.0900 C   0  0  0  0  0  2  0  0  0  0  0  0
  196.1170  171.6410  142.3670 O   0  0  0  0  0  0  0  0  0  0  0  0
  194.8180  171.2040  144.6760 N   0  0  0  0  0  0  0  0  0  0  0  0
  1  7  1  1  0  0  0
  1 15  1  0  0  0  0
  2 19  2  0  0  0  0
  2  9  1  0  0  0  0
  4  3  1  0  0  0  0
  5 18  2  0  0  0  0
  5 13  1  0  0  0  0
  6  9  1  0  0  0  0
  7 13  1  0  0  0  0
  8  3  1  0  0  0  0
  9 10  2  0  0  0  0
 10 17  1  0  0  0  0
 10  8  1  0  0  0  0
 11 17  2  0  0  0  0
 11 26  1  0  0  0  0
 12 14  1  1  0  0  0
 12  1  1  0  0  0  0
 12 15  1  0  0  0  0
 13  6  2  0  0  0  0
 14  5  1  0  0  0  0
 15 22  1  6  0  0  0
 16  4  1  0  0  0  0
 17 16  1  0  0  0  0
 18  2  1  0  0  0  0
 19 11  1  0  0  0  0
 20 19  1  0  0  0  0
 21 20  2  0  0  0  0
 22 23  1  0  0  0  0
 23 25  2  0  0  0  0
 23 24  1  0  0  0  0
 27 32  1  0  0  0  0
 27 29  1  0  0  0  0
 27 30  1  0  0  0  0
 28 27  1  0  0  0  0
 28 32  1  0  0  0  0
 29 30  1  0  0  0  0
 31 28  2  0  0  0  0
 32 26  1  0  0  0  0
M  END
>  <MODEL>
4

>  <REMARK>
 VINA RESULT:      -7.1      3.535      8.740
  Name = 
  5 active torsions:
  status: ('A' for Active; 'I' for Inactive)
    1  A    between atoms: C_1  and  C_10
    2  A    between atoms: C_6  and  C_31
    3  A    between atoms: C_10  and  C_24
    4  A    between atoms: C_16  and  C_27
    5  A    between atoms: C_27  and  N_32
                            x       y       z     vdW  Elec       q    Type
                         _______ _______ _______ _____ _____    ______ ____

>  <TORSDO>
F 5

$$$$
=
 OpenBabel11052421253D

 32 38  0  0  1  0  0  0  0  0999 V2000
  180.6430  179.2000  141.6920 C   0  0  1  0  0  3  0  0  0  0  0  0
  185.2140  177.7480  143.0710 C   0  0  0  0  0  0  0  0  0  0  0  0
  185.2120  178.0860  147.9660 C   0  0  0  0  0  2  0  0  0  0  0  0
  186.7240  178.1860  148.0090 C   0  0  0  0  0  2  0  0  0  0  0  0
  183.3690  178.2710  141.8210 C   0  0  0  0  0  0  0  0  0  0  0  0
  183.4440  179.0220  144.0840 N   0  0  0  0  0  0  0  0  0  0  0  0
  181.6120  179.7000  142.7070 C   0  0  0  0  0  2  0  0  0  0  0  0
  184.6910  178.9400  146.7160 C   0  0  0  0  0  2  0  0  0  0  0  0
  184.7000  178.4110  144.2120 C   0  0  0  0  0  0  0  0  0  0  0  0
  185.3740  178.4260  145.4400 C   0  0  0  0  0  0  0  0  0  0  0  0
  187.2230  177.2130  144.3280 C   0  0  0  0  0  0  0  0  0  0  0  0
  181.1400  178.3130  140.5070 C   0  0  1  0  0  3  0  0  0  0  0  0
  182.8300  178.9460  142.9050 C   0  0  0  0  0  0  0  0  0  0  0  0
  182.7270  178.1760  140.4820 C   0  0  0  0  0  2  0  0  0  0  0  0
  180.4140  177.6800  141.6960 C   0  0  2  0  0  3  0  0  0  0  0  0
  187.3080  177.6080  146.7580 C   0  0  0  0  0  2  0  0  0  0  0  0
  186.6620  177.8550  145.4550 C   0  0  0  0  0  0  0  0  0  0  0  0
  184.5580  177.6900  141.9060 N   0  0  0  0  0  0  0  0  0  0  0  0
  186.4910  177.1430  143.1280 C   0  0  0  0  0  0  0  0  0  0  0  0
  187.1580  176.6500  141.9200 C   0  0  0  0  0  3  0  0  0  0  0  0
  188.1320  177.2470  141.3320 N   0  0  0  0  0  2  0  0  0  0  0  0
  178.8020  177.6480  141.6500 C   0  0  0  0  0  2  0  0  0  0  0  0
  178.0550  178.2020  142.8510 C   0  0  0  0  0  0  0  0  0  0  0  0
  177.6930  179.4980  142.9300 O   0  0  0  0  0  0  0  0  0  0  0  0
  177.8680  177.4460  143.8390 O   0  0  0  0  0  1  0  0  0  0  0  0
  188.3870  176.2760  144.6820 C   0  0  0  0  0  2  0  0  0  0  0  0
  191.2500  177.0580  144.5460 C   0  0  0  0  0  0  0  0  0  0  0  0
  191.1270  175.6830  144.5120 C   0  0  0  0  0  0  0  0  0  0  0  0
  191.7460  177.0030  143.0500 C   0  0  0  0  0  2  0  0  0  0  0  0
  191.1610  178.2770  143.5490 C   0  0  0  0  0  2  0  0  0  0  0  0
  191.6930  174.5480  144.4730 O   0  0  0  0  0  0  0  0  0  0  0  0
  189.8850  176.5310  144.5690 N   0  0  0  0  0  0  0  0  0  0  0  0
  1 15  1  0  0  0  0
  1  7  1  1  0  0  0
  2 19  2  0  0  0  0
  2  9  1  0  0  0  0
  3  4  1  0  0  0  0
  5 18  2  0  0  0  0
  5 13  1  0  0  0  0
  6  9  1  0  0  0  0
  7 13  1  0  0  0  0
  8  3  1  0  0  0  0
  9 10  2  0  0  0  0
 10 17  1  0  0  0  0
 10  8  1  0  0  0  0
 11 26  1  0  0  0  0
 11 17  2  0  0  0  0
 12 14  1  1  0  0  0
 12  1  1  0  0  0  0
 12 15  1  0  0  0  0
 13  6  2  0  0  0  0
 14  5  1  0  0  0  0
 15 22  1  6  0  0  0
 16  4  1  0  0  0  0
 17 16  1  0  0  0  0
 18  2  1  0  0  0  0
 19 11  1  0  0  0  0
 20 19  1  0  0  0  0
 21 20  2  0  0  0  0
 22 23  1  0  0  0  0
 23 24  2  0  0  0  0
 23 25  1  0  0  0  0
 27 32  1  0  0  0  0
 28 27  1  0  0  0  0
 28 32  1  0  0  0  0
 29 30  1  0  0  0  0
 29 27  1  0  0  0  0
 30 27  1  0  0  0  0
 31 28  2  0  0  0  0
 32 26  1  0  0  0  0
M  END
>  <MODEL>
5

>  <REMARK>
 VINA RESULT:      -7.1      4.365      8.884
  Name = 
  5 active torsions:
  status: ('A' for Active; 'I' for Inactive)
    1  A    between atoms: C_1  and  C_10
    2  A    between atoms: C_6  and  C_31
    3  A    between atoms: C_10  and  C_24
    4  A    between atoms: C_16  and  C_27
    5  A    between atoms: C_27  and  N_32
                            x       y       z     vdW  Elec       q    Type
                         _______ _______ _______ _____ _____    ______ ____

>  <TORSDO>
F 5

$$$$
=
 OpenBabel11052421253D

 32 38  0  0  1  0  0  0  0  0999 V2000
  186.4670  178.2960  144.4730 C   0  0  1  0  0  3  0  0  0  0  0  0
  188.7400  174.4640  142.2240 C   0  0  0  0  0  0  0  0  0  0  0  0
  192.4740  173.3080  145.1890 C   0  0  0  0  0  2  0  0  0  0  0  0
  193.2300  172.6400  144.0580 C   0  0  0  0  0  2  0  0  0  0  0  0
  187.2850  176.1630  142.7160 C   0  0  0  0  0  0  0  0  0  0  0  0
  189.3580  176.0790  143.8950 N   0  0  0  0  0  0  0  0  0  0  0  0
  187.8980  177.9360  144.2640 C   0  0  0  0  0  2  0  0  0  0  0  0
  191.7820  174.6320  144.6120 C   0  0  0  0  0  2  0  0  0  0  0  0
  189.6890  174.9260  143.1690 C   0  0  0  0  0  0  0  0  0  0  0  0
  190.8880  174.2490  143.4220 C   0  0  0  0  0  0  0  0  0  0  0  0
  190.2660  172.6750  141.6170 C   0  0  0  0  0  0  0  0  0  0  0  0
  185.3620  177.6710  143.5640 C   0  0  1  0  0  3  0  0  0  0  0  0
  188.1870  176.6620  143.6420 C   0  0  0  0  0  0  0  0  0  0  0  0
  185.9770  176.7910  142.3880 C   0  0  0  0  0  2  0  0  0  0  0  0
  185.5720  177.1580  144.9900 C   0  0  2  0  0  3  0  0  0  0  0  0
  192.2780  172.2450  142.9720 C   0  0  0  0  0  2  0  0  0  0  0  0
  191.1720  173.1460  142.5940 C   0  0  0  0  0  0  0  0  0  0  0  0
  187.5710  175.0780  142.0060 N   0  0  0  0  0  0  0  0  0  0  0  0
  189.0320  173.3260  141.4370 C   0  0  0  0  0  0  0  0  0  0  0  0
  188.1910  172.9490  140.2970 C   0  0  0  0  0  3  0  0  0  0  0  0
  188.3910  173.3350  139.0880 N   0  0  0  0  0  2  0  0  0  0  0  0
  184.8060  177.9330  146.1790 C   0  0  0  0  0  2  0  0  0  0  0  0
  185.6140  178.3000  147.4110 C   0  0  0  0  0  0  0  0  0  0  0  0
  185.9410  179.5770  147.6960 O   0  0  0  0  0  0  0  0  0  0  0  0
  186.0750  177.3700  148.1220 O   0  0  0  0  0  1  0  0  0  0  0  0
  190.5500  171.2320  141.1730 C   0  0  0  0  0  2  0  0  0  0  0  0
  191.1400  170.4300  138.3740 C   0  0  0  0  0  0  0  0  0  0  0  0
  192.1050  169.9330  139.2280 C   0  0  0  0  0  0  0  0  0  0  0  0
  190.6590  168.9490  138.1320 C   0  0  0  0  0  2  0  0  0  0  0  0
  189.6910  170.0510  137.8790 C   0  0  0  0  0  2  0  0  0  0  0  0
  193.1870  169.2860  139.3780 O   0  0  0  0  0  0  0  0  0  0  0  0
  190.9550  170.7190  139.7970 N   0  0  0  0  0  0  0  0  0  0  0  0
  1  7  1  6  0  0  0
  1 15  1  0  0  0  0
  2  9  1  0  0  0  0
  4  3  1  0  0  0  0
  5 13  1  0  0  0  0
  8  3  1  0  0  0  0
  9 10  2  0  0  0  0
  9  6  1  0  0  0  0
 10  8  1  0  0  0  0
 11 17  2  0  0  0  0
 12 14  1  6  0  0  0
 12  1  1  0  0  0  0
 12 15  1  0  0  0  0
 13  6  2  0  0  0  0
 13  7  1  0  0  0  0
 14  5  1  0  0  0  0
 15 22  1  1  0  0  0
 16  4  1  0  0  0  0
 17 16  1  0  0  0  0
 17 10  1  0  0  0  0
 18  2  1  0  0  0  0
 18  5  2  0  0  0  0
 19 11  1  0  0  0  0
 19  2  2  0  0  0  0
 20 19  1  0  0  0  0
 21 20  2  0  0  0  0
 22 23  1  0  0  0  0
 23 24  2  0  0  0  0
 23 25  1  0  0  0  0
 26 11  1  0  0  0  0
 27 28  1  0  0  0  0
 27 32  1  0  0  0  0
 28 31  2  0  0  0  0
 28 32  1  0  0  0  0
 29 27  1  0  0  0  0
 30 29  1  0  0  0  0
 30 27  1  0  0  0  0
 32 26  1  0  0  0  0
M  END
>  <MODEL>
6

>  <REMARK>
 VINA RESULT:      -7.0      2.142      8.744
  Name = 
  5 active torsions:
  status: ('A' for Active; 'I' for Inactive)
    1  A    between atoms: C_1  and  C_10
    2  A    between atoms: C_6  and  C_31
    3  A    between atoms: C_10  and  C_24
    4  A    between atoms: C_16  and  C_27
    5  A    between atoms: C_27  and  N_32
                            x       y       z     vdW  Elec       q    Type
                         _______ _______ _______ _____ _____    ______ ____

>  <TORSDO>
F 5

$$$$
=
 OpenBabel11052421253D

 32 38  0  0  1  0  0  0  0  0999 V2000
  187.5880  176.5720  146.8180 C   0  0  1  0  0  3  0  0  0  0  0  0
  192.3430  175.3580  145.9130 C   0  0  0  0  0  0  0  0  0  0  0  0
  192.0970  171.4550  142.9490 C   0  0  0  0  0  2  0  0  0  0  0  0
  193.4920  171.0090  143.3390 C   0  0  0  0  0  2  0  0  0  0  0  0
  190.4630  176.4100  146.6880 C   0  0  0  0  0  0  0  0  0  0  0  0
  190.2280  174.2230  145.7630 N   0  0  0  0  0  0  0  0  0  0  0  0
  188.3130  175.2730  146.7350 C   0  0  0  0  0  2  0  0  0  0  0  0
  191.3610  171.9960  144.2650 C   0  0  0  0  0  2  0  0  0  0  0  0
  191.6100  174.2090  145.5260 C   0  0  0  0  0  0  0  0  0  0  0  0
  192.2090  173.1160  144.8860 C   0  0  0  0  0  0  0  0  0  0  0  0
  194.3810  174.2690  145.1630 C   0  0  0  0  0  0  0  0  0  0  0  0
  188.3780  177.8950  147.0690 C   0  0  1  0  0  3  0  0  0  0  0  0
  189.7040  175.3030  146.3400 C   0  0  0  0  0  0  0  0  0  0  0  0
  189.9240  177.6280  147.3490 C   0  0  0  0  0  2  0  0  0  0  0  0
  187.8650  177.5540  145.6680 C   0  0  2  0  0  3  0  0  0  0  0  0
  194.2670  172.1720  143.8760 C   0  0  0  0  0  2  0  0  0  0  0  0
  193.6110  173.1550  144.7590 C   0  0  0  0  0  0  0  0  0  0  0  0
  191.7740  176.4250  146.4850 N   0  0  0  0  0  0  0  0  0  0  0  0
  193.7450  175.3890  145.7310 C   0  0  0  0  0  0  0  0  0  0  0  0
  194.5690  176.4480  146.3200 C   0  0  0  0  0  3  0  0  0  0  0  0
  194.9280  177.5170  145.7050 N   0  0  0  0  0  2  0  0  0  0  0  0
  186.3530  177.9830  145.3070 C   0  0  0  0  0  2  0  0  0  0  0  0
  186.1470  178.8770  144.0980 C   0  0  0  0  0  0  0  0  0  0  0  0
  186.6870  178.5870  142.8960 O   0  0  0  0  0  0  0  0  0  0  0  0
  185.5450  179.9700  144.2570 O   0  0  0  0  0  1  0  0  0  0  0  0
  195.7770  174.3060  144.5230 C   0  0  0  0  0  2  0  0  0  0  0  0
  196.4320  175.4010  141.8410 C   0  0  0  0  0  0  0  0  0  0  0  0
  196.9150  176.2360  142.8300 C   0  0  0  0  0  0  0  0  0  0  0  0
  197.9250  175.0510  141.4740 C   0  0  0  0  0  2  0  0  0  0  0  0
  196.8630  174.0800  141.0950 C   0  0  0  0  0  2  0  0  0  0  0  0
  197.5130  177.3120  143.1400 O   0  0  0  0  0  0  0  0  0  0  0  0
  196.2120  174.9640  143.2200 N   0  0  0  0  0  0  0  0  0  0  0  0
  1  7  1  6  0  0  0
  1 12  1  0  0  0  0
  2 18  2  0  0  0  0
  3  4  1  0  0  0  0
  3  8  1  0  0  0  0
  4 16  1  0  0  0  0
  5 14  1  0  0  0  0
  6 13  1  0  0  0  0
  8 10  1  0  0  0  0
  9  6  2  0  0  0  0
  9  2  1  0  0  0  0
 10  9  1  0  0  0  0
 11 19  2  0  0  0  0
 12 14  1  6  0  0  0
 13  5  2  0  0  0  0
 13  7  1  0  0  0  0
 15 22  1  1  0  0  0
 15  1  1  0  0  0  0
 15 12  1  0  0  0  0
 16 17  1  0  0  0  0
 17 10  2  0  0  0  0
 17 11  1  0  0  0  0
 18  5  1  0  0  0  0
 19  2  1  0  0  0  0
 19 20  1  0  0  0  0
 21 20  2  0  0  0  0
 23 25  1  0  0  0  0
 23 22  1  0  0  0  0
 24 23  2  0  0  0  0
 26 11  1  0  0  0  0
 27 28  1  0  0  0  0
 27 32  1  0  0  0  0
 28 31  2  0  0  0  0
 28 32  1  0  0  0  0
 29 27  1  0  0  0  0
 30 29  1  0  0  0  0
 30 27  1  0  0  0  0
 32 26  1  0  0  0  0
M  END
>  <MODEL>
7

>  <REMARK>
 VINA RESULT:      -6.9      4.401      9.187
  Name = 
  5 active torsions:
  status: ('A' for Active; 'I' for Inactive)
    1  A    between atoms: C_1  and  C_10
    2  A    between atoms: C_6  and  C_31
    3  A    between atoms: C_10  and  C_24
    4  A    between atoms: C_16  and  C_27
    5  A    between atoms: C_27  and  N_32
                            x       y       z     vdW  Elec       q    Type
                         _______ _______ _______ _____ _____    ______ ____

>  <TORSDO>
F 5

$$$$
=
 OpenBabel11052421253D

 32 38  0  0  1  0  0  0  0  0999 V2000
  186.6810  177.7180  144.3370 C   0  0  1  0  0  3  0  0  0  0  0  0
  190.5260  174.7120  143.2970 C   0  0  0  0  0  0  0  0  0  0  0  0
  194.0120  175.9810  146.5090 C   0  0  0  0  0  2  0  0  0  0  0  0
  195.1030  175.4140  145.6240 C   0  0  0  0  0  2  0  0  0  0  0  0
  188.4770  175.7330  143.2690 C   0  0  0  0  0  0  0  0  0  0  0  0
  190.2530  176.8070  144.4460 N   0  0  0  0  0  0  0  0  0  0  0  0
  188.1530  177.9330  144.2540 C   0  0  0  0  0  2  0  0  0  0  0  0
  192.9380  176.7100  145.5710 C   0  0  0  0  0  2  0  0  0  0  0  0
  191.0940  175.7460  144.0830 C   0  0  0  0  0  0  0  0  0  0  0  0
  192.4200  175.7060  144.5310 C   0  0  0  0  0  0  0  0  0  0  0  0
  192.6900  173.6100  143.2420 C   0  0  0  0  0  0  0  0  0  0  0  0
  186.0290  176.4880  143.6320 C   0  0  1  0  0  3  0  0  0  0  0  0
  188.9900  176.7760  144.0240 C   0  0  0  0  0  0  0  0  0  0  0  0
  187.0800  175.6660  142.7620 C   0  0  0  0  0  2  0  0  0  0  0  0
  186.2410  176.4890  145.1470 C   0  0  2  0  0  3  0  0  0  0  0  0
  194.5230  174.4020  144.6850 C   0  0  0  0  0  2  0  0  0  0  0  0
  193.2130  174.6430  144.0540 C   0  0  0  0  0  0  0  0  0  0  0  0
  189.2480  174.7180  142.9010 N   0  0  0  0  0  0  0  0  0  0  0  0
  191.3330  173.6320  142.8710 C   0  0  0  0  0  0  0  0  0  0  0  0
  190.8560  172.6670  141.8760 C   0  0  0  0  0  3  0  0  0  0  0  0
  190.2090  171.5930  142.1570 N   0  0  0  0  0  2  0  0  0  0  0  0
  185.0910  177.1600  146.0580 C   0  0  0  0  0  2  0  0  0  0  0  0
  185.5360  178.0660  147.1920 C   0  0  0  0  0  0  0  0  0  0  0  0
  185.5670  179.4080  147.0620 O   0  0  0  0  0  0  0  0  0  0  0  0
  185.9850  177.5360  148.2400 O   0  0  0  0  0  1  0  0  0  0  0  0
  193.5660  172.3480  143.2310 C   0  0  0  0  0  2  0  0  0  0  0  0
  193.2290  169.9750  144.9850 C   0  0  0  0  0  0  0  0  0  0  0  0
  192.8200  169.6810  143.6980 C   0  0  0  0  0  0  0  0  0  0  0  0
  194.4370  168.9830  144.7760 C   0  0  0  0  0  2  0  0  0  0  0  0
  194.5700  170.0440  145.8120 C   0  0  0  0  0  2  0  0  0  0  0  0
  192.3240  168.8410  142.8870 O   0  0  0  0  0  0  0  0  0  0  0  0
  193.3750  171.0470  144.0000 N   0  0  0  0  0  0  0  0  0  0  0  0
  1  7  1  6  0  0  0
  1 15  1  0  0  0  0
  2  9  1  0  0  0  0
  4  3  1  0  0  0  0
  5 13  1  0  0  0  0
  8  3  1  0  0  0  0
  9  6  1  0  0  0  0
  9 10  2  0  0  0  0
 10  8  1  0  0  0  0
 11 17  2  0  0  0  0
 12 14  1  6  0  0  0
 12  1  1  0  0  0  0
 12 15  1  0  0  0  0
 13  7  1  0  0  0  0
 13  6  2  0  0  0  0
 14  5  1  0  0  0  0
 15 22  1  1  0  0  0
 16  4  1  0  0  0  0
 17 10  1  0  0  0  0
 17 16  1  0  0  0  0
 18  5  2  0  0  0  0
 18  2  1  0  0  0  0
 19 11  1  0  0  0  0
 19  2  2  0  0  0  0
 20 21  2  0  0  0  0
 20 19  1  0  0  0  0
 22 23  1  0  0  0  0
 23 25  1  0  0  0  0
 24 23  2  0  0  0  0
 26 11  1  0  0  0  0
 26 32  1  0  0  0  0
 27 30  1  0  0  0  0
 28 32  1  0  0  0  0
 28 27  1  0  0  0  0
 29 27  1  0  0  0  0
 29 30  1  0  0  0  0
 31 28  2  0  0  0  0
 32 27  1  0  0  0  0
M  END
>  <MODEL>
8

>  <REMARK>
 VINA RESULT:      -6.9      3.180      8.585
  Name = 
  5 active torsions:
  status: ('A' for Active; 'I' for Inactive)
    1  A    between atoms: C_1  and  C_10
    2  A    between atoms: C_6  and  C_31
    3  A    between atoms: C_10  and  C_24
    4  A    between atoms: C_16  and  C_27
    5  A    between atoms: C_27  and  N_32
                            x       y       z     vdW  Elec       q    Type
                         _______ _______ _______ _____ _____    ______ ____

>  <TORSDO>
F 5

$$$$
=
 OpenBabel11052421253D

 32 38  0  0  1  0  0  0  0  0999 V2000
  179.2700  179.1060  140.0000 C   0  0  1  0  0  3  0  0  0  0  0  0
  183.2510  178.6460  142.9750 C   0  0  0  0  0  0  0  0  0  0  0  0
  187.0200  177.9160  139.9190 C   0  0  0  0  0  2  0  0  0  0  0  0
  187.8420  177.2610  141.0110 C   0  0  0  0  0  2  0  0  0  0  0  0
  181.1140  178.9490  142.2100 C   0  0  0  0  0  0  0  0  0  0  0  0
  182.7270  178.0330  140.7090 N   0  0  0  0  0  0  0  0  0  0  0  0
  180.4520  178.1980  139.9930 C   0  0  0  0  0  2  0  0  0  0  0  0
  185.5040  177.4240  140.0740 C   0  0  0  0  0  2  0  0  0  0  0  0
  183.6830  178.1240  141.7300 C   0  0  0  0  0  0  0  0  0  0  0  0
  185.0130  177.7570  141.4910 C   0  0  0  0  0  0  0  0  0  0  0  0
  185.4850  178.2930  143.8610 C   0  0  0  0  0  0  0  0  0  0  0  0
  178.8590  179.8450  141.3120 C   0  0  1  0  0  3  0  0  0  0  0  0
  181.4850  178.4310  140.9790 C   0  0  0  0  0  0  0  0  0  0  0  0
  179.7370  179.3890  142.5600 C   0  0  0  0  0  2  0  0  0  0  0  0
  179.5880  180.5970  140.1970 C   0  0  2  0  0  3  0  0  0  0  0  0
  187.3370  177.6880  142.3540 C   0  0  0  0  0  2  0  0  0  0  0  0
  185.8870  177.8100  142.5950 C   0  0  0  0  0  0  0  0  0  0  0  0
  181.9930  179.0410  143.2000 N   0  0  0  0  0  0  0  0  0  0  0  0
  184.1610  178.7310  144.0530 C   0  0  0  0  0  0  0  0  0  0  0  0
  183.7100  179.0450  145.4120 C   0  0  0  0  0  3  0  0  0  0  0  0
  183.8730  178.2750  146.4280 N   0  0  0  0  0  2  0  0  0  0  0  0
  178.6890  181.2240  139.0140 C   0  0  0  0  0  2  0  0  0  0  0  0
  179.0530  182.6120  138.5180 C   0  0  0  0  0  0  0  0  0  0  0  0
  179.4630  182.8330  137.2520 O   0  0  0  0  0  0  0  0  0  0  0  0
  179.0710  183.5580  139.3470 O   0  0  0  0  0  1  0  0  0  0  0  0
  186.6640  178.7010  144.7560 C   0  0  0  0  0  2  0  0  0  0  0  0
  188.5010  177.1720  146.5210 C   0  0  0  0  0  0  0  0  0  0  0  0
  187.1890  176.9620  146.8980 C   0  0  0  0  0  0  0  0  0  0  0  0
  188.5590  175.6680  146.0530 C   0  0  0  0  0  2  0  0  0  0  0  0
  189.5260  176.6260  145.4540 C   0  0  0  0  0  2  0  0  0  0  0  0
  186.3680  176.4150  147.6970 O   0  0  0  0  0  0  0  0  0  0  0  0
  187.4810  177.8380  145.7100 N   0  0  0  0  0  0  0  0  0  0  0  0
  1  7  1  1  0  0  0
  1 15  1  0  0  0  0
  1 12  1  0  0  0  0
  2 18  2  0  0  0  0
  2 19  1  0  0  0  0
  3  8  1  0  0  0  0
  3  4  1  0  0  0  0
  4 16  1  0  0  0  0
  5 14  1  0  0  0  0
  5 18  1  0  0  0  0
  6 13  1  0  0  0  0
  6  9  2  0  0  0  0
  7 13  1  0  0  0  0
  8 10  1  0  0  0  0
  9  2  1  0  0  0  0
 10  9  1  0  0  0  0
 10 17  2  0  0  0  0
 11 19  2  0  0  0  0
 11 26  1  0  0  0  0
 12 14  1  1  0  0  0
 13  5  2  0  0  0  0
 15 22  1  6  0  0  0
 15 12  1  0  0  0  0
 16 17  1  0  0  0  0
 17 11  1  0  0  0  0
 19 20  1  0  0  0  0
 20 21  2  0  0  0  0
 23 22  1  0  0  0  0
 23 25  1  0  0  0  0
 24 23  2  0  0  0  0
 26 32  1  0  0  0  0
 27 28  1  0  0  0  0
 28 31  2  0  0  0  0
 29 27  1  0  0  0  0
 30 29  1  0  0  0  0
 30 27  1  0  0  0  0
 32 27  1  0  0  0  0
 32 28  1  0  0  0  0
M  END
>  <MODEL>
9

>  <REMARK>
 VINA RESULT:      -6.8      5.339      9.567
  Name = 
  5 active torsions:
  status: ('A' for Active; 'I' for Inactive)
    1  A    between atoms: C_1  and  C_10
    2  A    between atoms: C_6  and  C_31
    3  A    between atoms: C_10  and  C_24
    4  A    between atoms: C_16  and  C_27
    5  A    between atoms: C_27  and  N_32
                            x       y       z     vdW  Elec       q    Type
                         _______ _______ _______ _____ _____    ______ ____

>  <TORSDO>
F 5

$$$$
