=
 OpenBabel11052420563D

 43 47  0  0  1  0  0  0  0  0999 V2000
  195.9880  173.4050  145.8950 C   0  0  0  0  0  0  0  0  0  0  0  0
  191.5630  175.6500  144.8600 C   0  0  0  0  0  0  0  0  0  0  0  0
  189.9910  173.7540  143.4880 C   0  0  0  0  0  0  0  0  0  0  0  0
  194.1620  174.9850  145.7160 C   0  0  0  0  0  0  0  0  0  0  0  0
  195.2300  172.4450  145.2210 C   0  0  0  0  0  3  0  0  0  0  0  0
  197.2750  173.0990  146.3210 O   0  0  0  0  0  1  0  0  0  0  0  0
  193.3840  174.0210  145.0290 C   0  0  0  0  0  0  0  0  0  0  0  0
  195.4550  174.6720  146.1430 C   0  0  0  0  0  3  0  0  0  0  0  0
  193.9360  172.7500  144.7890 C   0  0  0  0  0  3  0  0  0  0  0  0
  191.2850  173.4220  143.9190 C   0  0  0  0  0  3  0  0  0  0  0  0
  192.0810  174.3530  144.6020 C   0  0  0  0  0  0  0  0  0  0  0  0
  192.3560  176.5850  145.5440 C   0  0  0  0  0  3  0  0  0  0  0  0
  190.2660  175.9860  144.4250 C   0  0  0  0  0  0  0  0  0  0  0  0
  189.4970  175.0390  143.7400 C   0  0  0  0  0  3  0  0  0  0  0  0
  193.6430  176.2540  145.9690 C   0  0  0  0  0  3  0  0  0  0  0  0
  189.1220  172.7770  142.7370 C   0  0  2  0  0  3  0  0  0  0  0  0
  188.9410  171.6220  143.5000 O   0  0  0  0  0  1  0  0  0  0  0  0
  189.6750  172.4040  141.3930 C   0  0  0  0  0  3  0  0  0  0  0  0
  189.4850  173.1490  140.3050 C   0  0  0  0  0  0  0  0  0  0  0  0
  188.7680  174.3400  140.3730 O   0  0  0  0  0  1  0  0  0  0  0  0
  190.0450  172.6960  138.9860 C   0  0  0  0  0  2  0  0  0  0  0  0
  191.2640  171.8810  139.0980 N   0  0  0  0  0  0  0  0  0  0  0  0
  191.3420  170.9380  137.9860 C   0  0  0  0  0  2  0  0  0  0  0  0
  190.8900  169.0730  139.9480 S   0  0  0  0  0  1  0  0  0  0  0  0
  190.5080  169.7030  138.2870 C   0  0  0  0  0  2  0  0  0  0  0  0
  192.4530  172.7260  139.0790 C   0  0  0  0  0  2  0  0  0  0  0  0
  193.2260  172.5420  140.3450 C   0  0  0  0  0  0  0  0  0  0  0  0
  193.3290  171.3810  140.8310 O   0  0  0  0  0  0  0  0  0  0  0  0
  193.8450  173.6910  141.0340 C   0  0  0  0  0  0  0  0  0  0  0  0
  195.7240  174.6680  142.1590 N   0  0  0  0  0  0  0  0  0  0  0  0
  193.7530  175.9790  141.8370 C   0  0  0  0  0  3  0  0  0  0  0  0
  195.0550  175.8430  142.3190 C   0  0  0  0  0  3  0  0  0  0  0  0
  193.1490  174.8980  141.1920 C   0  0  0  0  0  3  0  0  0  0  0  0
  195.1520  173.6020  141.5340 C   0  0  0  0  0  3  0  0  0  0  0  0
  189.6740  177.3400  144.6850 C   0  0  0  0  0  2  0  0  0  0  0  0
  186.4390  177.2950  146.8170 C   0  0  0  0  0  2  0  0  0  0  0  0
  185.4930  177.6340  145.6470 C   0  0  2  0  0  3  0  0  0  0  0  0
  187.4160  178.2180  144.0920 C   0  0  0  0  0  2  0  0  0  0  0  0
  187.9130  177.5360  146.4740 C   0  0  0  0  0  2  0  0  0  0  0  0
  188.1870  177.2470  144.9970 C   0  0  2  0  0  3  0  0  0  0  0  0
  186.0660  178.6710  144.6690 C   0  0  0  0  0  2  0  0  0  0  0  0
  184.1740  177.9210  146.0590 O   0  0  0  0  0  0  0  0  0  0  0  0
  184.2230  178.6780  147.2420 C   0  0  0  0  0  1  0  0  0  0  0  0
  1  8  1  0  0  0  0
  1  6  1  0  0  0  0
  2 12  1  0  0  0  0
  3 14  2  0  0  0  0
  3 10  1  0  0  0  0
  4 15  1  0  0  0  0
  4  8  2  0  0  0  0
  5  1  2  0  0  0  0
  7  4  1  0  0  0  0
  9  7  2  0  0  0  0
  9  5  1  0  0  0  0
 10 11  2  0  0  0  0
 11  2  1  0  0  0  0
 11  7  1  0  0  0  0
 12 15  2  0  0  0  0
 13 35  1  0  0  0  0
 13  2  2  0  0  0  0
 14 13  1  0  0  0  0
 16  3  1  0  0  0  0
 16 17  1  1  0  0  0
 18 16  1  0  0  0  0
 19 20  1  0  0  0  0
 19 18  2  0  0  0  0
 21 22  1  0  0  0  0
 21 19  1  0  0  0  0
 23 25  1  0  0  0  0
 23 22  1  0  0  0  0
 25 24  1  0  0  0  0
 26 22  1  0  0  0  0
 26 27  1  0  0  0  0
 27 28  2  0  0  0  0
 27 29  1  0  0  0  0
 29 33  2  0  0  0  0
 29 34  1  0  0  0  0
 30 32  1  0  0  0  0
 31 32  2  0  0  0  0
 33 31  1  0  0  0  0
 34 30  2  0  0  0  0
 37 42  1  1  0  0  0
 37 36  1  0  0  0  0
 38 41  1  0  0  0  0
 38 40  1  0  0  0  0
 39 36  1  0  0  0  0
 40 35  1  1  0  0  0
 40 39  1  0  0  0  0
 41 37  1  0  0  0  0
 42 43  1  0  0  0  0
M  END
>  <MODEL>
1

>  <REMARK>
 VINA RESULT:      -6.5      0.000      0.000
  Name = 
  12 active torsions:
  status: ('A' for Active; 'I' for Inactive)
    1  A    between atoms: C_1  and  C_34
    2  A    between atoms: C_1  and  C_35
    3  A    between atoms: C_2  and  C_6
    4  A    between atoms: C_2  and  C_13
    5  A    between atoms: C_3  and  N_4
    6  A    between atoms: C_3  and  C_12
    7  A    between atoms: N_4  and  C_15
    8  A    between atoms: N_4  and  C_22
    9  A    between atoms: C_11  and  C_14
   10  A    between atoms: C_14  and  C_22
   11  A    between atoms: C_15  and  C_42
   12  A    between atoms: C_19  and  O_25
                            x       y       z     vdW  Elec       q    Type
                         _______ _______ _______ _____ _____    ______ ____

>  <TORSDO>
F 12

$$$$
=
 OpenBabel11052420563D

 43 47  0  0  1  0  0  0  0  0999 V2000
  185.6420  177.9510  146.9360 C   0  0  0  0  0  0  0  0  0  0  0  0
  190.4800  176.4420  146.8410 C   0  0  0  0  0  0  0  0  0  0  0  0
  190.5700  174.0930  145.2820 C   0  0  0  0  0  0  0  0  0  0  0  0
  188.0350  177.7720  147.2650 C   0  0  0  0  0  0  0  0  0  0  0  0
  185.6580  176.7920  146.1570 C   0  0  0  0  0  3  0  0  0  0  0  0
  184.4450  178.6180  147.1620 O   0  0  0  0  0  1  0  0  0  0  0  0
  188.0640  176.5940  146.4780 C   0  0  0  0  0  0  0  0  0  0  0  0
  186.8280  178.4400  147.4880 C   0  0  0  0  0  3  0  0  0  0  0  0
  186.8600  176.1160  145.9290 C   0  0  0  0  0  3  0  0  0  0  0  0
  189.3520  174.7590  145.4910 C   0  0  0  0  0  3  0  0  0  0  0  0
  189.2900  175.9280  146.2640 C   0  0  0  0  0  0  0  0  0  0  0  0
  190.4230  177.6110  147.6150 C   0  0  0  0  0  3  0  0  0  0  0  0
  191.7030  175.7720  146.6360 C   0  0  0  0  0  0  0  0  0  0  0  0
  191.7350  174.6050  145.8670 C   0  0  0  0  0  3  0  0  0  0  0  0
  189.2120  178.2700  147.8230 C   0  0  0  0  0  3  0  0  0  0  0  0
  190.6610  172.8260  144.4700 C   0  0  2  0  0  3  0  0  0  0  0  0
  191.9290  172.2620  144.6160 O   0  0  0  0  0  1  0  0  0  0  0  0
  190.3740  173.0360  143.0120 C   0  0  0  0  0  3  0  0  0  0  0  0
  189.2610  172.5950  142.4280 C   0  0  0  0  0  0  0  0  0  0  0  0
  188.2880  171.9240  143.1620 O   0  0  0  0  0  1  0  0  0  0  0  0
  189.0570  172.8170  140.9550 C   0  0  0  0  0  2  0  0  0  0  0  0
  188.8600  174.2240  140.5800 N   0  0  0  0  0  0  0  0  0  0  0  0
  188.6100  174.3320  139.1450 C   0  0  0  0  0  2  0  0  0  0  0  0
  189.3710  173.7110  136.5830 S   0  0  0  0  0  1  0  0  0  0  0  0
  189.6650  173.5590  138.3700 C   0  0  0  0  0  2  0  0  0  0  0  0
  187.7270  174.7970  141.2970 C   0  0  0  0  0  2  0  0  0  0  0  0
  188.1470  176.0520  141.9920 C   0  0  0  0  0  0  0  0  0  0  0  0
  189.3760  176.2440  142.2090 O   0  0  0  0  0  0  0  0  0  0  0  0
  187.1520  177.0470  142.4360 C   0  0  0  0  0  0  0  0  0  0  0  0
  184.8660  177.7320  142.6700 N   0  0  0  0  0  0  0  0  0  0  0  0
  186.5950  179.1600  143.4910 C   0  0  0  0  0  3  0  0  0  0  0  0
  185.2430  178.8880  143.2800 C   0  0  0  0  0  3  0  0  0  0  0  0
  187.5500  178.2330  143.0670 C   0  0  0  0  0  3  0  0  0  0  0  0
  185.7810  176.8160  142.2490 C   0  0  0  0  0  3  0  0  0  0  0  0
  192.9890  176.2840  147.2180 C   0  0  0  0  0  2  0  0  0  0  0  0
  196.0560  175.2900  145.0690 C   0  0  0  0  0  2  0  0  0  0  0  0
  195.7420  176.2640  143.9150 C   0  0  2  0  0  3  0  0  0  0  0  0
  193.4240  176.7870  144.8140 C   0  0  0  0  0  2  0  0  0  0  0  0
  194.8760  175.1140  146.0310 C   0  0  0  0  0  2  0  0  0  0  0  0
  194.0710  176.4080  146.1540 C   0  0  2  0  0  3  0  0  0  0  0  0
  194.2460  176.3700  143.5850 C   0  0  0  0  0  2  0  0  0  0  0  0
  196.5550  176.0640  142.7780 O   0  0  0  0  0  0  0  0  0  0  0  0
  197.4980  175.0630  143.0650 C   0  0  0  0  0  1  0  0  0  0  0  0
  1  6  1  0  0  0  0
  1  8  1  0  0  0  0
  2 12  1  0  0  0  0
  3 10  2  0  0  0  0
  3 14  1  0  0  0  0
  4  8  2  0  0  0  0
  4 15  1  0  0  0  0
  5  1  2  0  0  0  0
  7  4  1  0  0  0  0
  9  5  1  0  0  0  0
  9  7  2  0  0  0  0
 10 11  1  0  0  0  0
 11  7  1  0  0  0  0
 11  2  2  0  0  0  0
 12 15  2  0  0  0  0
 13  2  1  0  0  0  0
 13 35  1  0  0  0  0
 14 13  2  0  0  0  0
 16 17  1  6  0  0  0
 16  3  1  0  0  0  0
 18 16  1  0  0  0  0
 19 18  2  0  0  0  0
 19 20  1  0  0  0  0
 21 19  1  0  0  0  0
 22 21  1  0  0  0  0
 22 26  1  0  0  0  0
 23 22  1  0  0  0  0
 24 25  1  0  0  0  0
 25 23  1  0  0  0  0
 26 27  1  0  0  0  0
 27 28  2  0  0  0  0
 27 29  1  0  0  0  0
 29 33  1  0  0  0  0
 30 32  2  0  0  0  0
 32 31  1  0  0  0  0
 33 31  2  0  0  0  0
 34 29  2  0  0  0  0
 34 30  1  0  0  0  0
 36 39  1  0  0  0  0
 37 42  1  6  0  0  0
 37 36  1  0  0  0  0
 38 40  1  0  0  0  0
 39 40  1  0  0  0  0
 40 35  1  1  0  0  0
 41 37  1  0  0  0  0
 41 38  1  0  0  0  0
 42 43  1  0  0  0  0
M  END
>  <MODEL>
2

>  <REMARK>
 VINA RESULT:      -6.4      2.614      7.321
  Name = 
  12 active torsions:
  status: ('A' for Active; 'I' for Inactive)
    1  A    between atoms: C_1  and  C_34
    2  A    between atoms: C_1  and  C_35
    3  A    between atoms: C_2  and  C_6
    4  A    between atoms: C_2  and  C_13
    5  A    between atoms: C_3  and  N_4
    6  A    between atoms: C_3  and  C_12
    7  A    between atoms: N_4  and  C_15
    8  A    between atoms: N_4  and  C_22
    9  A    between atoms: C_11  and  C_14
   10  A    between atoms: C_14  and  C_22
   11  A    between atoms: C_15  and  C_42
   12  A    between atoms: C_19  and  O_25
                            x       y       z     vdW  Elec       q    Type
                         _______ _______ _______ _____ _____    ______ ____

>  <TORSDO>
F 12

$$$$
=
 OpenBabel11052420563D

 43 47  0  0  1  0  0  0  0  0999 V2000
  184.9560  178.0530  146.3960 C   0  0  0  0  0  0  0  0  0  0  0  0
  188.5070  175.8030  143.5640 C   0  0  0  0  0  0  0  0  0  0  0  0
  190.8910  175.8370  145.0700 C   0  0  0  0  0  0  0  0  0  0  0  0
  186.1460  176.9190  144.6180 C   0  0  0  0  0  0  0  0  0  0  0  0
  186.1210  178.0800  147.1650 C   0  0  0  0  0  3  0  0  0  0  0  0
  183.7820  178.6030  146.8960 O   0  0  0  0  0  1  0  0  0  0  0  0
  187.3350  176.9420  145.3870 C   0  0  0  0  0  0  0  0  0  0  0  0
  184.9680  177.4730  145.1250 C   0  0  0  0  0  3  0  0  0  0  0  0
  187.3040  177.5290  146.6660 C   0  0  0  0  0  3  0  0  0  0  0  0
  189.7120  176.3890  145.5960 C   0  0  0  0  0  3  0  0  0  0  0  0
  188.5180  176.3810  144.8600 C   0  0  0  0  0  0  0  0  0  0  0  0
  187.3140  175.7930  142.8230 C   0  0  0  0  0  3  0  0  0  0  0  0
  189.6900  175.2520  143.0320 C   0  0  0  0  0  0  0  0  0  0  0  0
  190.8680  175.2800  143.7850 C   0  0  0  0  0  3  0  0  0  0  0  0
  186.1450  176.3450  143.3470 C   0  0  0  0  0  3  0  0  0  0  0  0
  192.1910  175.8470  145.8330 C   0  0  2  0  0  3  0  0  0  0  0  0
  192.0500  176.6090  146.9950 O   0  0  0  0  0  1  0  0  0  0  0  0
  193.3440  176.3720  145.0300 C   0  0  0  0  0  3  0  0  0  0  0  0
  194.6140  176.1450  145.3620 C   0  0  0  0  0  0  0  0  0  0  0  0
  194.9330  175.3780  146.4790 O   0  0  0  0  0  1  0  0  0  0  0  0
  195.7170  176.7290  144.5260 C   0  0  0  0  0  2  0  0  0  0  0  0
  196.2480  175.8150  143.5040 N   0  0  0  0  0  0  0  0  0  0  0  0
  196.9560  176.5680  142.4740 C   0  0  0  0  0  2  0  0  0  0  0  0
  196.7010  175.5340  139.9440 S   0  0  0  0  0  1  0  0  0  0  0  0
  196.1000  176.6780  141.2220 C   0  0  0  0  0  2  0  0  0  0  0  0
  197.1700  174.8540  144.0990 C   0  0  0  0  0  2  0  0  0  0  0  0
  196.8570  173.4780  143.6070 C   0  0  0  0  0  0  0  0  0  0  0  0
  197.6460  172.9310  142.7880 O   0  0  0  0  0  0  0  0  0  0  0  0
  195.6390  172.7690  144.0490 C   0  0  0  0  0  0  0  0  0  0  0  0
  194.5760  171.1740  145.4890 N   0  0  0  0  0  0  0  0  0  0  0  0
  193.2510  172.3680  143.9000 C   0  0  0  0  0  3  0  0  0  0  0  0
  193.3640  171.4280  144.9240 C   0  0  0  0  0  3  0  0  0  0  0  0
  194.3950  173.0400  143.4630 C   0  0  0  0  0  3  0  0  0  0  0  0
  195.7030  171.8180  145.0770 C   0  0  0  0  0  3  0  0  0  0  0  0
  189.7220  174.6210  141.6700 C   0  0  0  0  0  2  0  0  0  0  0  0
  190.3420  170.8300  142.1710 C   0  0  0  0  0  2  0  0  0  0  0  0
  191.5780  170.7650  141.2500 C   0  0  2  0  0  3  0  0  0  0  0  0
  191.1770  173.1000  140.3320 C   0  0  0  0  0  2  0  0  0  0  0  0
  189.5510  172.1320  142.0080 C   0  0  0  0  0  2  0  0  0  0  0  0
  190.4820  173.3020  141.6860 C   0  0  2  0  0  3  0  0  0  0  0  0
  191.4540  171.6290  139.9870 C   0  0  0  0  0  2  0  0  0  0  0  0
  192.0120  169.4480  140.9890 O   0  0  0  0  0  0  0  0  0  0  0  0
  190.8930  168.6500  140.6990 C   0  0  0  0  0  1  0  0  0  0  0  0
  1  6  1  0  0  0  0
  1  5  1  0  0  0  0
  2 11  1  0  0  0  0
  3 10  1  0  0  0  0
  3 16  1  0  0  0  0
  4  8  1  0  0  0  0
  4  7  2  0  0  0  0
  7  9  1  0  0  0  0
  8  1  2  0  0  0  0
  9  5  2  0  0  0  0
 11  7  1  0  0  0  0
 11 10  2  0  0  0  0
 12 15  2  0  0  0  0
 12  2  1  0  0  0  0
 13  2  2  0  0  0  0
 13 14  1  0  0  0  0
 14  3  2  0  0  0  0
 15  4  1  0  0  0  0
 16 17  1  1  0  0  0
 18 19  2  0  0  0  0
 18 16  1  0  0  0  0
 19 20  1  0  0  0  0
 21 19  1  0  0  0  0
 22 26  1  0  0  0  0
 22 21  1  0  0  0  0
 23 22  1  0  0  0  0
 24 25  1  0  0  0  0
 25 23  1  0  0  0  0
 27 29  1  0  0  0  0
 27 26  1  0  0  0  0
 28 27  2  0  0  0  0
 29 34  1  0  0  0  0
 31 32  2  0  0  0  0
 32 30  1  0  0  0  0
 33 31  1  0  0  0  0
 33 29  2  0  0  0  0
 34 30  2  0  0  0  0
 35 13  1  0  0  0  0
 37 42  1  6  0  0  0
 37 36  1  0  0  0  0
 38 40  1  0  0  0  0
 39 36  1  0  0  0  0
 40 35  1  6  0  0  0
 40 39  1  0  0  0  0
 41 38  1  0  0  0  0
 41 37  1  0  0  0  0
 43 42  1  0  0  0  0
M  END
>  <MODEL>
3

>  <REMARK>
 VINA RESULT:      -6.2      2.634      7.726
  Name = 
  12 active torsions:
  status: ('A' for Active; 'I' for Inactive)
    1  A    between atoms: C_1  and  C_34
    2  A    between atoms: C_1  and  C_35
    3  A    between atoms: C_2  and  C_6
    4  A    between atoms: C_2  and  C_13
    5  A    between atoms: C_3  and  N_4
    6  A    between atoms: C_3  and  C_12
    7  A    between atoms: N_4  and  C_15
    8  A    between atoms: N_4  and  C_22
    9  A    between atoms: C_11  and  C_14
   10  A    between atoms: C_14  and  C_22
   11  A    between atoms: C_15  and  C_42
   12  A    between atoms: C_19  and  O_25
                            x       y       z     vdW  Elec       q    Type
                         _______ _______ _______ _____ _____    ______ ____

>  <TORSDO>
F 12

$$$$
=
 OpenBabel11052420563D

 43 47  0  0  1  0  0  0  0  0999 V2000
  185.0750  178.2750  147.1490 C   0  0  0  0  0  0  0  0  0  0  0  0
  187.9450  176.4200  143.4060 C   0  0  0  0  0  0  0  0  0  0  0  0
  190.6030  177.1770  143.9670 C   0  0  0  0  0  0  0  0  0  0  0  0
  185.8610  177.1620  145.1470 C   0  0  0  0  0  0  0  0  0  0  0  0
  186.3820  178.6600  147.4530 C   0  0  0  0  0  3  0  0  0  0  0  0
  184.0320  178.6360  147.9920 O   0  0  0  0  0  1  0  0  0  0  0  0
  187.1910  177.5480  145.4430 C   0  0  0  0  0  0  0  0  0  0  0  0
  184.8150  177.5270  145.9990 C   0  0  0  0  0  3  0  0  0  0  0  0
  187.4350  178.3000  146.6070 C   0  0  0  0  0  3  0  0  0  0  0  0
  189.5630  177.5420  144.8360 C   0  0  0  0  0  3  0  0  0  0  0  0
  188.2360  177.1750  144.5720 C   0  0  0  0  0  0  0  0  0  0  0  0
  186.6180  176.0490  143.1370 C   0  0  0  0  0  3  0  0  0  0  0  0
  188.9870  176.0550  142.5290 C   0  0  0  0  0  0  0  0  0  0  0  0
  190.3000  176.4410  142.8150 C   0  0  0  0  0  3  0  0  0  0  0  0
  185.5870  176.4160  144.0010 C   0  0  0  0  0  3  0  0  0  0  0  0
  192.0360  177.5730  144.2200 C   0  0  2  0  0  3  0  0  0  0  0  0
  192.2710  178.8480  143.7010 O   0  0  0  0  0  1  0  0  0  0  0  0
  193.0280  176.6090  143.6400 C   0  0  0  0  0  3  0  0  0  0  0  0
  194.2340  176.4130  144.1690 C   0  0  0  0  0  0  0  0  0  0  0  0
  194.6280  177.0940  145.3180 O   0  0  0  0  0  1  0  0  0  0  0  0
  195.1870  175.4520  143.5150 C   0  0  0  0  0  2  0  0  0  0  0  0
  194.7950  174.0400  143.6350 N   0  0  0  0  0  0  0  0  0  0  0  0
  195.9320  173.1760  143.3330 C   0  0  0  0  0  2  0  0  0  0  0  0
  197.7730  171.3850  144.3020 S   0  0  0  0  0  1  0  0  0  0  0  0
  196.6350  172.7660  144.6180 C   0  0  0  0  0  2  0  0  0  0  0  0
  194.3290  173.7470  144.9860 C   0  0  0  0  0  2  0  0  0  0  0  0
  192.9210  173.2480  144.9390 C   0  0  0  0  0  0  0  0  0  0  0  0
  192.6470  172.2700  144.1910 O   0  0  0  0  0  0  0  0  0  0  0  0
  191.8580  173.8930  145.7350 C   0  0  0  0  0  0  0  0  0  0  0  0
  191.2000  175.3550  147.5190 N   0  0  0  0  0  0  0  0  0  0  0  0
  189.5110  174.2990  146.2000 C   0  0  0  0  0  3  0  0  0  0  0  0
  189.8830  175.1450  147.2450 C   0  0  0  0  0  3  0  0  0  0  0  0
  190.5050  173.6740  145.4440 C   0  0  0  0  0  3  0  0  0  0  0  0
  192.1830  174.7540  146.7940 C   0  0  0  0  0  3  0  0  0  0  0  0
  188.7280  175.2480  141.2900 C   0  0  0  0  0  2  0  0  0  0  0  0
  189.6910  171.6540  142.3720 C   0  0  0  0  0  2  0  0  0  0  0  0
  190.4620  171.3180  141.0790 C   0  0  2  0  0  3  0  0  0  0  0  0
  189.6100  173.3900  139.8790 C   0  0  0  0  0  2  0  0  0  0  0  0
  188.8340  172.9170  142.2380 C   0  0  0  0  0  2  0  0  0  0  0  0
  189.4990  173.9360  141.3100 C   0  0  2  0  0  3  0  0  0  0  0  0
  189.8020  171.8680  139.8050 C   0  0  0  0  0  2  0  0  0  0  0  0
  190.8240  169.9580  140.9810 O   0  0  0  0  0  0  0  0  0  0  0  0
  190.8160  169.5830  139.6270 C   0  0  0  0  0  1  0  0  0  0  0  0
  1  5  1  0  0  0  0
  1  6  1  0  0  0  0
  2 11  1  0  0  0  0
  3 16  1  0  0  0  0
  3 10  1  0  0  0  0
  4  7  2  0  0  0  0
  4  8  1  0  0  0  0
  7  9  1  0  0  0  0
  8  1  2  0  0  0  0
  9  5  2  0  0  0  0
 11 10  2  0  0  0  0
 11  7  1  0  0  0  0
 12  2  1  0  0  0  0
 12 15  2  0  0  0  0
 13 14  1  0  0  0  0
 13  2  2  0  0  0  0
 14  3  2  0  0  0  0
 15  4  1  0  0  0  0
 16 17  1  6  0  0  0
 18 19  2  0  0  0  0
 18 16  1  0  0  0  0
 19 20  1  0  0  0  0
 21 22  1  0  0  0  0
 21 19  1  0  0  0  0
 22 26  1  0  0  0  0
 23 22  1  0  0  0  0
 23 25  1  0  0  0  0
 24 25  1  0  0  0  0
 27 26  1  0  0  0  0
 27 29  1  0  0  0  0
 28 27  2  0  0  0  0
 29 34  1  0  0  0  0
 31 32  2  0  0  0  0
 32 30  1  0  0  0  0
 33 29  2  0  0  0  0
 33 31  1  0  0  0  0
 34 30  2  0  0  0  0
 35 13  1  0  0  0  0
 37 42  1  6  0  0  0
 37 36  1  0  0  0  0
 38 40  1  0  0  0  0
 39 36  1  0  0  0  0
 40 35  1  6  0  0  0
 40 39  1  0  0  0  0
 41 38  1  0  0  0  0
 41 37  1  0  0  0  0
 43 42  1  0  0  0  0
M  END
>  <MODEL>
4

>  <REMARK>
 VINA RESULT:      -6.2      2.664      7.656
  Name = 
  12 active torsions:
  status: ('A' for Active; 'I' for Inactive)
    1  A    between atoms: C_1  and  C_34
    2  A    between atoms: C_1  and  C_35
    3  A    between atoms: C_2  and  C_6
    4  A    between atoms: C_2  and  C_13
    5  A    between atoms: C_3  and  N_4
    6  A    between atoms: C_3  and  C_12
    7  A    between atoms: N_4  and  C_15
    8  A    between atoms: N_4  and  C_22
    9  A    between atoms: C_11  and  C_14
   10  A    between atoms: C_14  and  C_22
   11  A    between atoms: C_15  and  C_42
   12  A    between atoms: C_19  and  O_25
                            x       y       z     vdW  Elec       q    Type
                         _______ _______ _______ _____ _____    ______ ____

>  <TORSDO>
F 12

$$$$
=
 OpenBabel11052420563D

 43 47  0  0  1  0  0  0  0  0999 V2000
  188.3240  177.1840  147.0000 C   0  0  0  0  0  0  0  0  0  0  0  0
  192.8390  175.0520  146.1310 C   0  0  0  0  0  0  0  0  0  0  0  0
  192.3630  172.7370  144.5930 C   0  0  0  0  0  0  0  0  0  0  0  0
  190.6930  176.6860  146.9380 C   0  0  0  0  0  0  0  0  0  0  0  0
  188.0600  176.0450  146.2360 C   0  0  0  0  0  3  0  0  0  0  0  0
  187.2780  178.0000  147.4130 O   0  0  0  0  0  1  0  0  0  0  0  0
  190.4380  175.5270  146.1640 C   0  0  0  0  0  0  0  0  0  0  0  0
  189.6380  177.5040  147.3500 C   0  0  0  0  0  3  0  0  0  0  0  0
  189.1080  175.2200  145.8200 C   0  0  0  0  0  3  0  0  0  0  0  0
  191.2950  173.5540  144.9920 C   0  0  0  0  0  3  0  0  0  0  0  0
  191.5140  174.7090  145.7580 C   0  0  0  0  0  0  0  0  0  0  0  0
  193.0640  176.2060  146.8970 C   0  0  0  0  0  3  0  0  0  0  0  0
  193.9140  174.2300  145.7350 C   0  0  0  0  0  0  0  0  0  0  0  0
  193.6650  173.0810  144.9770 C   0  0  0  0  0  3  0  0  0  0  0  0
  192.0000  177.0160  147.2950 C   0  0  0  0  0  3  0  0  0  0  0  0
  192.1530  171.4820  143.7840 C   0  0  2  0  0  3  0  0  0  0  0  0
  193.3230  170.7190  143.7820 O   0  0  0  0  0  1  0  0  0  0  0  0
  191.7330  171.7530  142.3690 C   0  0  0  0  0  3  0  0  0  0  0  0
  190.4570  171.7600  141.9870 C   0  0  0  0  0  0  0  0  0  0  0  0
  189.4360  171.5310  142.9050 O   0  0  0  0  0  1  0  0  0  0  0  0
  190.1140  172.0100  140.5450 C   0  0  0  0  0  2  0  0  0  0  0  0
  190.3240  173.3970  140.1080 N   0  0  0  0  0  0  0  0  0  0  0  0
  190.8750  173.4210  138.7560 C   0  0  0  0  0  2  0  0  0  0  0  0
  193.0330  173.8420  137.1130 S   0  0  0  0  0  1  0  0  0  0  0  0
  192.3400  173.8260  138.7930 C   0  0  0  0  0  2  0  0  0  0  0  0
  189.0670  174.1370  140.1150 C   0  0  0  0  0  2  0  0  0  0  0  0
  188.7990  174.6700  141.4850 C   0  0  0  0  0  0  0  0  0  0  0  0
  187.8110  174.2200  142.1300 O   0  0  0  0  0  0  0  0  0  0  0  0
  189.6570  175.7150  142.0780 C   0  0  0  0  0  0  0  0  0  0  0  0
  189.8960  177.8850  143.0700 N   0  0  0  0  0  0  0  0  0  0  0  0
  191.8310  176.5110  142.8020 C   0  0  0  0  0  3  0  0  0  0  0  0
  191.2360  177.7020  143.2190 C   0  0  0  0  0  3  0  0  0  0  0  0
  191.0360  175.5160  142.2310 C   0  0  0  0  0  3  0  0  0  0  0  0
  189.1030  176.9270  142.5140 C   0  0  0  0  0  3  0  0  0  0  0  0
  195.3330  174.5590  146.0970 C   0  0  0  0  0  2  0  0  0  0  0  0
  197.6320  174.4980  142.9790 C   0  0  0  0  0  2  0  0  0  0  0  0
  197.1110  175.8260  142.3920 C   0  0  2  0  0  3  0  0  0  0  0  0
  195.1630  175.9310  144.0200 C   0  0  0  0  0  2  0  0  0  0  0  0
  196.7350  173.9530  144.0950 C   0  0  0  0  0  2  0  0  0  0  0  0
  196.1040  175.0920  144.8970 C   0  0  2  0  0  3  0  0  0  0  0  0
  195.5950  176.0190  142.5490 C   0  0  0  0  0  2  0  0  0  0  0  0
  197.5770  176.0810  141.0840 O   0  0  0  0  0  0  0  0  0  0  0  0
  196.6460  175.5700  140.1640 C   0  0  0  0  0  1  0  0  0  0  0  0
  1  8  1  0  0  0  0
  1  6  1  0  0  0  0
  2 12  1  0  0  0  0
  3 14  2  0  0  0  0
  3 10  1  0  0  0  0
  4 15  1  0  0  0  0
  4  8  2  0  0  0  0
  5  1  2  0  0  0  0
  7  4  1  0  0  0  0
  9  7  2  0  0  0  0
  9  5  1  0  0  0  0
 10 11  2  0  0  0  0
 11  2  1  0  0  0  0
 11  7  1  0  0  0  0
 12 15  2  0  0  0  0
 13 35  1  0  0  0  0
 13  2  2  0  0  0  0
 14 13  1  0  0  0  0
 16 17  1  6  0  0  0
 16  3  1  0  0  0  0
 18 16  1  0  0  0  0
 19 18  2  0  0  0  0
 19 20  1  0  0  0  0
 21 19  1  0  0  0  0
 22 26  1  0  0  0  0
 22 21  1  0  0  0  0
 23 25  1  0  0  0  0
 23 22  1  0  0  0  0
 24 25  1  0  0  0  0
 26 27  1  0  0  0  0
 27 29  1  0  0  0  0
 27 28  2  0  0  0  0
 29 33  2  0  0  0  0
 29 34  1  0  0  0  0
 30 32  1  0  0  0  0
 31 32  2  0  0  0  0
 33 31  1  0  0  0  0
 34 30  2  0  0  0  0
 36 39  1  0  0  0  0
 37 42  1  6  0  0  0
 37 41  1  0  0  0  0
 37 36  1  0  0  0  0
 38 40  1  0  0  0  0
 39 40  1  0  0  0  0
 40 35  1  1  0  0  0
 41 38  1  0  0  0  0
 43 42  1  0  0  0  0
M  END
>  <MODEL>
5

>  <REMARK>
 VINA RESULT:      -6.1      2.495      6.605
  Name = 
  12 active torsions:
  status: ('A' for Active; 'I' for Inactive)
    1  A    between atoms: C_1  and  C_34
    2  A    between atoms: C_1  and  C_35
    3  A    between atoms: C_2  and  C_6
    4  A    between atoms: C_2  and  C_13
    5  A    between atoms: C_3  and  N_4
    6  A    between atoms: C_3  and  C_12
    7  A    between atoms: N_4  and  C_15
    8  A    between atoms: N_4  and  C_22
    9  A    between atoms: C_11  and  C_14
   10  A    between atoms: C_14  and  C_22
   11  A    between atoms: C_15  and  C_42
   12  A    between atoms: C_19  and  O_25
                            x       y       z     vdW  Elec       q    Type
                         _______ _______ _______ _____ _____    ______ ____

>  <TORSDO>
F 12

$$$$
=
 OpenBabel11052420563D

 43 47  0  0  1  0  0  0  0  0999 V2000
  184.7770  178.5330  144.1450 C   0  0  0  0  0  0  0  0  0  0  0  0
  188.9850  175.7810  144.7810 C   0  0  0  0  0  0  0  0  0  0  0  0
  189.2100  174.1040  142.5250 C   0  0  0  0  0  0  0  0  0  0  0  0
  186.8240  177.5700  145.0100 C   0  0  0  0  0  0  0  0  0  0  0  0
  184.8650  177.7170  143.0150 C   0  0  0  0  0  3  0  0  0  0  0  0
  183.7150  179.4180  144.2790 O   0  0  0  0  0  1  0  0  0  0  0  0
  186.9240  176.7360  143.8700 C   0  0  0  0  0  0  0  0  0  0  0  0
  185.7540  178.4600  145.1400 C   0  0  0  0  0  3  0  0  0  0  0  0
  185.9310  176.8230  142.8770 C   0  0  0  0  0  3  0  0  0  0  0  0
  188.1350  175.0000  142.6380 C   0  0  0  0  0  3  0  0  0  0  0  0
  188.0080  175.8400  143.7540 C   0  0  0  0  0  0  0  0  0  0  0  0
  188.8620  176.6190  145.9000 C   0  0  0  0  0  3  0  0  0  0  0  0
  190.0630  174.8790  144.6720 C   0  0  0  0  0  0  0  0  0  0  0  0
  190.1610  174.0480  143.5510 C   0  0  0  0  0  3  0  0  0  0  0  0
  187.7920  177.5070  146.0110 C   0  0  0  0  0  3  0  0  0  0  0  0
  189.3610  173.1790  141.3440 C   0  0  2  0  0  3  0  0  0  0  0  0
  189.4030  171.8550  141.7840 O   0  0  0  0  0  1  0  0  0  0  0  0
  190.5790  173.4690  140.5170 C   0  0  0  0  0  3  0  0  0  0  0  0
  190.5930  173.3470  139.1900 C   0  0  0  0  0  0  0  0  0  0  0  0
  189.4500  172.9580  138.4980 O   0  0  0  0  0  1  0  0  0  0  0  0
  191.8600  173.6260  138.4320 C   0  0  0  0  0  2  0  0  0  0  0  0
  192.9910  172.7690  138.8140 N   0  0  0  0  0  0  0  0  0  0  0  0
  193.2060  171.7380  137.8030 C   0  0  0  0  0  2  0  0  0  0  0  0
  191.2980  169.8540  137.2170 S   0  0  0  0  0  1  0  0  0  0  0  0
  192.6580  170.4050  138.2880 C   0  0  0  0  0  2  0  0  0  0  0  0
  194.2130  173.5550  138.9480 C   0  0  0  0  0  2  0  0  0  0  0  0
  194.2740  174.1690  140.3090 C   0  0  0  0  0  0  0  0  0  0  0  0
  194.0210  175.3990  140.4320 O   0  0  0  0  0  0  0  0  0  0  0  0
  194.6420  173.3660  141.4920 C   0  0  0  0  0  0  0  0  0  0  0  0
  196.3240  172.3810  142.8880 N   0  0  0  0  0  0  0  0  0  0  0  0
  194.0240  172.1020  143.4680 C   0  0  0  0  0  3  0  0  0  0  0  0
  195.3760  171.8740  143.7230 C   0  0  0  0  0  3  0  0  0  0  0  0
  193.6590  172.8510  142.3480 C   0  0  0  0  0  3  0  0  0  0  0  0
  195.9890  173.1130  141.7900 C   0  0  0  0  0  3  0  0  0  0  0  0
  191.1250  174.7890  145.7280 C   0  0  0  0  0  2  0  0  0  0  0  0
  194.0680  176.4130  143.8010 C   0  0  0  0  0  2  0  0  0  0  0  0
  195.1630  175.5490  144.4590 C   0  0  2  0  0  3  0  0  0  0  0  0
  193.5670  174.6300  146.2100 C   0  0  0  0  0  2  0  0  0  0  0  0
  192.7250  176.3230  144.5330 C   0  0  0  0  0  2  0  0  0  0  0  0
  192.5180  174.9300  145.1300 C   0  0  2  0  0  3  0  0  0  0  0  0
  194.9310  175.2900  145.9550 C   0  0  0  0  0  2  0  0  0  0  0  0
  196.4730  175.9830  144.1610 O   0  0  0  0  0  0  0  0  0  0  0  0
  196.4740  176.5810  142.8900 C   0  0  0  0  0  1  0  0  0  0  0  0
  1  6  1  0  0  0  0
  1  8  1  0  0  0  0
  2 12  1  0  0  0  0
  3 10  2  0  0  0  0
  3 14  1  0  0  0  0
  4  8  2  0  0  0  0
  4 15  1  0  0  0  0
  5  1  2  0  0  0  0
  7  4  1  0  0  0  0
  9  5  1  0  0  0  0
  9  7  2  0  0  0  0
 10 11  1  0  0  0  0
 11  7  1  0  0  0  0
 11  2  2  0  0  0  0
 12 15  2  0  0  0  0
 13  2  1  0  0  0  0
 13 35  1  0  0  0  0
 14 13  2  0  0  0  0
 16 17  1  1  0  0  0
 16  3  1  0  0  0  0
 18 16  1  0  0  0  0
 19 18  2  0  0  0  0
 20 19  1  0  0  0  0
 21 22  1  0  0  0  0
 21 19  1  0  0  0  0
 22 26  1  0  0  0  0
 23 25  1  0  0  0  0
 23 22  1  0  0  0  0
 24 25  1  0  0  0  0
 26 27  1  0  0  0  0
 27 28  2  0  0  0  0
 27 29  1  0  0  0  0
 29 34  2  0  0  0  0
 29 33  1  0  0  0  0
 30 32  2  0  0  0  0
 31 32  1  0  0  0  0
 33 31  2  0  0  0  0
 34 30  1  0  0  0  0
 36 37  1  0  0  0  0
 36 39  1  0  0  0  0
 37 42  1  1  0  0  0
 37 41  1  0  0  0  0
 39 40  1  0  0  0  0
 40 35  1  1  0  0  0
 40 38  1  0  0  0  0
 41 38  1  0  0  0  0
 43 42  1  0  0  0  0
M  END
>  <MODEL>
6

>  <REMARK>
 VINA RESULT:      -6.1      1.742      6.372
  Name = 
  12 active torsions:
  status: ('A' for Active; 'I' for Inactive)
    1  A    between atoms: C_1  and  C_34
    2  A    between atoms: C_1  and  C_35
    3  A    between atoms: C_2  and  C_6
    4  A    between atoms: C_2  and  C_13
    5  A    between atoms: C_3  and  N_4
    6  A    between atoms: C_3  and  C_12
    7  A    between atoms: N_4  and  C_15
    8  A    between atoms: N_4  and  C_22
    9  A    between atoms: C_11  and  C_14
   10  A    between atoms: C_14  and  C_22
   11  A    between atoms: C_15  and  C_42
   12  A    between atoms: C_19  and  O_25
                            x       y       z     vdW  Elec       q    Type
                         _______ _______ _______ _____ _____    ______ ____

>  <TORSDO>
F 12

$$$$
=
 OpenBabel11052420563D

 43 47  0  0  1  0  0  0  0  0999 V2000
  185.2340  178.3500  144.6680 C   0  0  0  0  0  0  0  0  0  0  0  0
  189.5040  175.6330  144.9390 C   0  0  0  0  0  0  0  0  0  0  0  0
  189.6130  174.0520  142.6070 C   0  0  0  0  0  0  0  0  0  0  0  0
  187.3400  177.3810  145.3700 C   0  0  0  0  0  0  0  0  0  0  0  0
  185.2640  177.5810  143.5020 C   0  0  0  0  0  3  0  0  0  0  0  0
  184.1720  179.2140  144.9020 O   0  0  0  0  0  1  0  0  0  0  0  0
  187.3810  176.5950  144.1920 C   0  0  0  0  0  0  0  0  0  0  0  0
  186.2700  178.2500  145.5990 C   0  0  0  0  0  3  0  0  0  0  0  0
  186.3290  176.7090  143.2640 C   0  0  0  0  0  3  0  0  0  0  0  0
  188.5360  174.9270  142.8200 C   0  0  0  0  0  3  0  0  0  0  0  0
  188.4670  175.7200  143.9750 C   0  0  0  0  0  0  0  0  0  0  0  0
  189.4390  176.4240  146.0970 C   0  0  0  0  0  3  0  0  0  0  0  0
  190.5840  174.7510  144.7290 C   0  0  0  0  0  0  0  0  0  0  0  0
  190.6240  173.9680  143.5710 C   0  0  0  0  0  3  0  0  0  0  0  0
  188.3670  177.2910  146.3080 C   0  0  0  0  0  3  0  0  0  0  0  0
  189.7030  173.1770  141.3820 C   0  0  2  0  0  3  0  0  0  0  0  0
  188.4230  172.9360  140.8780 O   0  0  0  0  0  1  0  0  0  0  0  0
  190.3920  171.8690  141.6380 C   0  0  0  0  0  3  0  0  0  0  0  0
  191.1060  171.2380  140.7070 C   0  0  0  0  0  0  0  0  0  0  0  0
  191.2640  171.7850  139.4370 O   0  0  0  0  0  1  0  0  0  0  0  0
  191.7430  169.9160  141.0290 C   0  0  0  0  0  2  0  0  0  0  0  0
  192.6660  169.9540  142.1720 N   0  0  0  0  0  0  0  0  0  0  0  0
  192.6840  168.6590  142.8480 C   0  0  0  0  0  2  0  0  0  0  0  0
  194.3980  168.2430  144.9510 S   0  0  0  0  0  1  0  0  0  0  0  0
  192.7950  168.8540  144.3520 C   0  0  0  0  0  2  0  0  0  0  0  0
  194.0200  170.2720  141.7330 C   0  0  0  0  0  2  0  0  0  0  0  0
  194.4390  171.5920  142.2940 C   0  0  0  0  0  0  0  0  0  0  0  0
  194.7430  171.6640  143.5170 O   0  0  0  0  0  0  0  0  0  0  0  0
  194.4810  172.8010  141.4480 C   0  0  0  0  0  0  0  0  0  0  0  0
  195.4590  174.0310  139.6370 N   0  0  0  0  0  0  0  0  0  0  0  0
  193.6160  174.9790  140.8230 C   0  0  0  0  0  3  0  0  0  0  0  0
  194.5790  175.0540  139.8170 C   0  0  0  0  0  3  0  0  0  0  0  0
  193.5690  173.8470  141.6390 C   0  0  0  0  0  3  0  0  0  0  0  0
  195.4310  172.9190  140.4220 C   0  0  0  0  0  3  0  0  0  0  0  0
  191.7080  174.6330  145.7160 C   0  0  0  0  0  2  0  0  0  0  0  0
  194.7360  176.4060  144.0710 C   0  0  0  0  0  2  0  0  0  0  0  0
  195.7210  175.2400  144.2940 C   0  0  2  0  0  3  0  0  0  0  0  0
  194.1210  174.0120  145.8400 C   0  0  0  0  0  2  0  0  0  0  0  0
  193.4480  176.2540  144.8870 C   0  0  0  0  0  2  0  0  0  0  0  0
  193.0630  174.7820  145.0370 C   0  0  2  0  0  3  0  0  0  0  0  0
  195.5520  174.5370  145.6500 C   0  0  0  0  0  2  0  0  0  0  0  0
  197.0600  175.5750  143.9990 O   0  0  0  0  0  0  0  0  0  0  0  0
  197.2930  175.3530  142.6320 C   0  0  0  0  0  1  0  0  0  0  0  0
  1  6  1  0  0  0  0
  1  8  1  0  0  0  0
  2 12  1  0  0  0  0
  3 10  2  0  0  0  0
  3 14  1  0  0  0  0
  4  8  2  0  0  0  0
  4 15  1  0  0  0  0
  5  1  2  0  0  0  0
  7  4  1  0  0  0  0
  9  5  1  0  0  0  0
  9  7  2  0  0  0  0
 10 11  1  0  0  0  0
 11  7  1  0  0  0  0
 11  2  2  0  0  0  0
 12 15  2  0  0  0  0
 13  2  1  0  0  0  0
 13 35  1  0  0  0  0
 14 13  2  0  0  0  0
 16 17  1  1  0  0  0
 16 18  1  0  0  0  0
 16  3  1  0  0  0  0
 19 21  1  0  0  0  0
 19 18  2  0  0  0  0
 20 19  1  0  0  0  0
 21 22  1  0  0  0  0
 22 23  1  0  0  0  0
 23 25  1  0  0  0  0
 25 24  1  0  0  0  0
 26 22  1  0  0  0  0
 26 27  1  0  0  0  0
 27 28  2  0  0  0  0
 29 33  1  0  0  0  0
 29 27  1  0  0  0  0
 30 32  2  0  0  0  0
 30 34  1  0  0  0  0
 31 33  2  0  0  0  0
 32 31  1  0  0  0  0
 34 29  2  0  0  0  0
 36 37  1  0  0  0  0
 36 39  1  0  0  0  0
 37 42  1  1  0  0  0
 37 41  1  0  0  0  0
 39 40  1  0  0  0  0
 40 35  1  1  0  0  0
 40 38  1  0  0  0  0
 41 38  1  0  0  0  0
 43 42  1  0  0  0  0
M  END
>  <MODEL>
7

>  <REMARK>
 VINA RESULT:      -6.0      2.185      6.592
  Name = 
  12 active torsions:
  status: ('A' for Active; 'I' for Inactive)
    1  A    between atoms: C_1  and  C_34
    2  A    between atoms: C_1  and  C_35
    3  A    between atoms: C_2  and  C_6
    4  A    between atoms: C_2  and  C_13
    5  A    between atoms: C_3  and  N_4
    6  A    between atoms: C_3  and  C_12
    7  A    between atoms: N_4  and  C_15
    8  A    between atoms: N_4  and  C_22
    9  A    between atoms: C_11  and  C_14
   10  A    between atoms: C_14  and  C_22
   11  A    between atoms: C_15  and  C_42
   12  A    between atoms: C_19  and  O_25
                            x       y       z     vdW  Elec       q    Type
                         _______ _______ _______ _____ _____    ______ ____

>  <TORSDO>
F 12

$$$$
=
 OpenBabel11052420563D

 43 47  0  0  1  0  0  0  0  0999 V2000
  185.7490  179.3430  143.9450 C   0  0  0  0  0  0  0  0  0  0  0  0
  188.0710  175.5880  141.4550 C   0  0  0  0  0  0  0  0  0  0  0  0
  189.3910  174.0210  143.3930 C   0  0  0  0  0  0  0  0  0  0  0  0
  186.5830  177.8490  142.2310 C   0  0  0  0  0  0  0  0  0  0  0  0
  186.3900  178.5830  144.9260 C   0  0  0  0  0  3  0  0  0  0  0  0
  185.0150  180.4650  144.3070 O   0  0  0  0  0  1  0  0  0  0  0  0
  187.2400  177.0710  143.2170 C   0  0  0  0  0  0  0  0  0  0  0  0
  185.8450  178.9770  142.6010 C   0  0  0  0  0  3  0  0  0  0  0  0
  187.1310  177.4540  144.5660 C   0  0  0  0  0  3  0  0  0  0  0  0
  188.6460  175.1460  143.7790 C   0  0  0  0  0  3  0  0  0  0  0  0
  187.9840  175.9370  142.8280 C   0  0  0  0  0  0  0  0  0  0  0  0
  187.4100  176.3760  140.4990 C   0  0  0  0  0  3  0  0  0  0  0  0
  188.8230  174.4620  141.0640 C   0  0  0  0  0  0  0  0  0  0  0  0
  189.4780  173.6950  142.0340 C   0  0  0  0  0  3  0  0  0  0  0  0
  186.6720  177.4950  140.8850 C   0  0  0  0  0  3  0  0  0  0  0  0
  190.1260  173.1650  144.3930 C   0  0  2  0  0  3  0  0  0  0  0  0
  189.6760  173.4550  145.6830 O   0  0  0  0  0  1  0  0  0  0  0  0
  191.6160  173.3340  144.3350 C   0  0  0  0  0  3  0  0  0  0  0  0
  192.4450  172.3210  144.0850 C   0  0  0  0  0  0  0  0  0  0  0  0
  191.9550  171.0410  143.8420 O   0  0  0  0  0  1  0  0  0  0  0  0
  193.9280  172.5610  144.0730 C   0  0  0  0  0  2  0  0  0  0  0  0
  194.3550  173.7360  144.8460 N   0  0  0  0  0  0  0  0  0  0  0  0
  195.5800  173.4370  145.5820 C   0  0  0  0  0  2  0  0  0  0  0  0
  197.9370  172.8900  144.2880 S   0  0  0  0  0  1  0  0  0  0  0  0
  196.3330  172.3020  144.9070 C   0  0  0  0  0  2  0  0  0  0  0  0
  194.6040  174.8720  143.9650 C   0  0  0  0  0  2  0  0  0  0  0  0
  194.3460  176.1490  144.6970 C   0  0  0  0  0  0  0  0  0  0  0  0
  195.3150  176.9240  144.9280 O   0  0  0  0  0  0  0  0  0  0  0  0
  192.9890  176.4980  145.1640 C   0  0  0  0  0  0  0  0  0  0  0  0
  191.3420  176.5390  146.9060 N   0  0  0  0  0  0  0  0  0  0  0  0
  190.8030  177.4750  144.7750 C   0  0  0  0  0  3  0  0  0  0  0  0
  190.4490  177.1610  146.0880 C   0  0  0  0  0  3  0  0  0  0  0  0
  192.0790  177.1420  144.3150 C   0  0  0  0  0  3  0  0  0  0  0  0
  192.5900  176.2050  146.4760 C   0  0  0  0  0  3  0  0  0  0  0  0
  188.9350  174.0490  139.6260 C   0  0  0  0  0  2  0  0  0  0  0  0
  190.1890  170.5180  138.6390 C   0  0  0  0  0  2  0  0  0  0  0  0
  191.6810  170.9060  138.5900 C   0  0  2  0  0  3  0  0  0  0  0  0
  191.1730  173.3920  138.7440 C   0  0  0  0  0  2  0  0  0  0  0  0
  189.2630  171.7380  138.6810 C   0  0  0  0  0  2  0  0  0  0  0  0
  189.9070  172.8910  139.4530 C   0  0  2  0  0  3  0  0  0  0  0  0
  191.9390  172.2960  137.9870 C   0  0  0  0  0  2  0  0  0  0  0  0
  192.5040  169.8970  138.0460 O   0  0  0  0  0  0  0  0  0  0  0  0
  193.8460  170.2060  138.3250 C   0  0  0  0  0  1  0  0  0  0  0  0
  1  6  1  0  0  0  0
  1  5  1  0  0  0  0
  2 11  1  0  0  0  0
  3 10  1  0  0  0  0
  3 16  1  0  0  0  0
  4  8  1  0  0  0  0
  4  7  2  0  0  0  0
  7  9  1  0  0  0  0
  8  1  2  0  0  0  0
  9  5  2  0  0  0  0
 11  7  1  0  0  0  0
 11 10  2  0  0  0  0
 12 15  2  0  0  0  0
 12  2  1  0  0  0  0
 13  2  2  0  0  0  0
 13 14  1  0  0  0  0
 14  3  2  0  0  0  0
 15  4  1  0  0  0  0
 16 17  1  1  0  0  0
 18 16  1  0  0  0  0
 19 18  2  0  0  0  0
 20 19  1  0  0  0  0
 21 19  1  0  0  0  0
 21 22  1  0  0  0  0
 22 23  1  0  0  0  0
 24 25  1  0  0  0  0
 25 23  1  0  0  0  0
 26 27  1  0  0  0  0
 26 22  1  0  0  0  0
 27 28  2  0  0  0  0
 27 29  1  0  0  0  0
 29 34  1  0  0  0  0
 31 32  2  0  0  0  0
 32 30  1  0  0  0  0
 33 31  1  0  0  0  0
 33 29  2  0  0  0  0
 34 30  2  0  0  0  0
 35 13  1  0  0  0  0
 36 39  1  0  0  0  0
 37 42  1  6  0  0  0
 37 36  1  0  0  0  0
 38 40  1  0  0  0  0
 39 40  1  0  0  0  0
 40 35  1  6  0  0  0
 41 37  1  0  0  0  0
 41 38  1  0  0  0  0
 42 43  1  0  0  0  0
M  END
>  <MODEL>
8

>  <REMARK>
 VINA RESULT:      -5.8      2.717      8.045
  Name = 
  12 active torsions:
  status: ('A' for Active; 'I' for Inactive)
    1  A    between atoms: C_1  and  C_34
    2  A    between atoms: C_1  and  C_35
    3  A    between atoms: C_2  and  C_6
    4  A    between atoms: C_2  and  C_13
    5  A    between atoms: C_3  and  N_4
    6  A    between atoms: C_3  and  C_12
    7  A    between atoms: N_4  and  C_15
    8  A    between atoms: N_4  and  C_22
    9  A    between atoms: C_11  and  C_14
   10  A    between atoms: C_14  and  C_22
   11  A    between atoms: C_15  and  C_42
   12  A    between atoms: C_19  and  O_25
                            x       y       z     vdW  Elec       q    Type
                         _______ _______ _______ _____ _____    ______ ____

>  <TORSDO>
F 12

$$$$
=
 OpenBabel11052420563D

 43 47  0  0  1  0  0  0  0  0999 V2000
  184.7320  178.2870  144.8530 C   0  0  0  0  0  0  0  0  0  0  0  0
  188.9160  175.4270  144.8230 C   0  0  0  0  0  0  0  0  0  0  0  0
  189.3320  174.6210  142.1530 C   0  0  0  0  0  0  0  0  0  0  0  0
  186.7210  177.0590  145.4870 C   0  0  0  0  0  0  0  0  0  0  0  0
  184.9150  177.9050  143.5220 C   0  0  0  0  0  3  0  0  0  0  0  0
  183.6510  179.0870  145.2020 O   0  0  0  0  0  1  0  0  0  0  0  0
  186.9170  176.6640  144.1410 C   0  0  0  0  0  0  0  0  0  0  0  0
  185.6320  177.8650  145.8330 C   0  0  0  0  0  3  0  0  0  0  0  0
  186.0000  177.0990  143.1670 C   0  0  0  0  0  3  0  0  0  0  0  0
  188.2400  175.4380  142.4850 C   0  0  0  0  0  3  0  0  0  0  0  0
  188.0180  175.8480  143.8080 C   0  0  0  0  0  0  0  0  0  0  0  0
  188.6990  175.8340  146.1490 C   0  0  0  0  0  3  0  0  0  0  0  0
  190.0110  174.6030  144.4930 C   0  0  0  0  0  0  0  0  0  0  0  0
  190.2040  174.2050  143.1670 C   0  0  0  0  0  3  0  0  0  0  0  0
  187.6110  176.6440  146.4770 C   0  0  0  0  0  3  0  0  0  0  0  0
  189.5830  174.1540  140.7420 C   0  0  2  0  0  3  0  0  0  0  0  0
  188.3990  173.6630  140.1890 O   0  0  0  0  0  1  0  0  0  0  0  0
  190.6500  173.1030  140.6470 C   0  0  0  0  0  3  0  0  0  0  0  0
  191.3080  172.8450  139.5180 C   0  0  0  0  0  0  0  0  0  0  0  0
  191.0430  173.5670  138.3580 O   0  0  0  0  0  1  0  0  0  0  0  0
  192.3430  171.7560  139.4930 C   0  0  0  0  0  2  0  0  0  0  0  0
  193.6640  172.1700  139.9890 N   0  0  0  0  0  0  0  0  0  0  0  0
  194.2550  171.1040  140.7940 C   0  0  0  0  0  2  0  0  0  0  0  0
  192.7990  170.1780  142.9290 S   0  0  0  0  0  1  0  0  0  0  0  0
  194.0070  171.3660  142.2710 C   0  0  0  0  0  2  0  0  0  0  0  0
  194.5620  172.4700  138.8790 C   0  0  0  0  0  2  0  0  0  0  0  0
  194.6180  173.9470  138.6580 C   0  0  0  0  0  0  0  0  0  0  0  0
  194.2650  174.4080  137.5380 O   0  0  0  0  0  0  0  0  0  0  0  0
  195.0940  174.8590  139.7180 C   0  0  0  0  0  0  0  0  0  0  0  0
  196.8950  175.9850  140.8300 N   0  0  0  0  0  0  0  0  0  0  0  0
  194.6580  176.3430  141.5860 C   0  0  0  0  0  3  0  0  0  0  0  0
  196.0280  176.5870  141.6890 C   0  0  0  0  0  3  0  0  0  0  0  0
  194.1930  175.4760  140.5960 C   0  0  0  0  0  3  0  0  0  0  0  0
  196.4610  175.1360  139.8580 C   0  0  0  0  0  3  0  0  0  0  0  0
  190.9920  174.1430  145.5320 C   0  0  0  0  0  2  0  0  0  0  0  0
  194.4660  175.8450  145.3140 C   0  0  0  0  0  2  0  0  0  0  0  0
  195.1990  174.6020  144.7680 C   0  0  2  0  0  3  0  0  0  0  0  0
  193.2250  173.0720  145.2380 C   0  0  0  0  0  2  0  0  0  0  0  0
  193.0760  175.5150  145.8690 C   0  0  0  0  0  2  0  0  0  0  0  0
  192.4280  174.3750  145.0820 C   0  0  2  0  0  3  0  0  0  0  0  0
  194.7380  173.2830  145.4050 C   0  0  0  0  0  2  0  0  0  0  0  0
  196.6020  174.7500  144.7370 O   0  0  0  0  0  0  0  0  0  0  0  0
  197.1760  173.8260  145.6260 C   0  0  0  0  0  1  0  0  0  0  0  0
  1  6  1  0  0  0  0
  1  8  1  0  0  0  0
  2 12  1  0  0  0  0
  3 10  2  0  0  0  0
  3 14  1  0  0  0  0
  4  8  2  0  0  0  0
  4 15  1  0  0  0  0
  5  1  2  0  0  0  0
  7  4  1  0  0  0  0
  9  5  1  0  0  0  0
  9  7  2  0  0  0  0
 10 11  1  0  0  0  0
 11  7  1  0  0  0  0
 11  2  2  0  0  0  0
 12 15  2  0  0  0  0
 13  2  1  0  0  0  0
 13 35  1  0  0  0  0
 14 13  2  0  0  0  0
 16 17  1  1  0  0  0
 16  3  1  0  0  0  0
 18 16  1  0  0  0  0
 19 18  2  0  0  0  0
 20 19  1  0  0  0  0
 21 19  1  0  0  0  0
 21 22  1  0  0  0  0
 22 23  1  0  0  0  0
 23 25  1  0  0  0  0
 25 24  1  0  0  0  0
 26 22  1  0  0  0  0
 27 26  1  0  0  0  0
 27 29  1  0  0  0  0
 28 27  2  0  0  0  0
 29 34  2  0  0  0  0
 29 33  1  0  0  0  0
 30 32  2  0  0  0  0
 31 32  1  0  0  0  0
 33 31  2  0  0  0  0
 34 30  1  0  0  0  0
 36 39  1  0  0  0  0
 37 42  1  1  0  0  0
 37 36  1  0  0  0  0
 37 41  1  0  0  0  0
 38 41  1  0  0  0  0
 40 38  1  0  0  0  0
 40 35  1  1  0  0  0
 40 39  1  0  0  0  0
 42 43  1  0  0  0  0
M  END
>  <MODEL>
9

>  <REMARK>
 VINA RESULT:      -5.8      1.837      6.555
  Name = 
  12 active torsions:
  status: ('A' for Active; 'I' for Inactive)
    1  A    between atoms: C_1  and  C_34
    2  A    between atoms: C_1  and  C_35
    3  A    between atoms: C_2  and  C_6
    4  A    between atoms: C_2  and  C_13
    5  A    between atoms: C_3  and  N_4
    6  A    between atoms: C_3  and  C_12
    7  A    between atoms: N_4  and  C_15
    8  A    between atoms: N_4  and  C_22
    9  A    between atoms: C_11  and  C_14
   10  A    between atoms: C_14  and  C_22
   11  A    between atoms: C_15  and  C_42
   12  A    between atoms: C_19  and  O_25
                            x       y       z     vdW  Elec       q    Type
                         _______ _______ _______ _____ _____    ______ ____

>  <TORSDO>
F 12

$$$$
