=
 OpenBabel11052417563D

 31 34  0  0  1  0  0  0  0  0999 V2000
  185.6820  177.9250  140.6040 C   0  0  0  0  0  0  0  0  0  0  0  0
  186.8960  176.5700  143.9940 C   0  0  1  0  0  3  0  0  0  0  0  0
  186.2670  177.5370  144.9920 C   0  0  0  0  0  0  0  0  0  0  0  0
  184.3440  178.8550  145.7000 C   0  0  0  0  0  3  0  0  0  0  0  0
  186.7660  176.8750  142.5100 C   0  0  0  0  0  0  0  0  0  0  0  0
  186.4820  177.1830  139.7330 C   0  0  0  0  0  3  0  0  0  0  0  0
  184.9860  178.0590  144.7530 C   0  0  0  0  0  3  0  0  0  0  0  0
  188.9100  175.2120  143.3880 C   0  0  0  0  0  0  0  0  0  0  0  0
  184.7660  178.7910  140.1090 F   0  0  0  0  0  0  0  0  0  0  0  0
  188.2110  177.1650  146.6020 C   0  0  0  0  0  2  0  0  0  0  0  0
  184.9630  179.1200  146.9200 C   0  0  0  0  0  3  0  0  0  0  0  0
  188.5570  175.2210  142.1340 N   0  0  0  0  0  0  0  0  0  0  0  0
  188.3680  176.2680  144.3180 C   0  0  2  0  0  3  0  0  0  0  0  0
  189.9260  174.3100  143.8410 N   0  0  0  0  0  2  0  0  0  0  0  0
  185.8150  177.7620  141.9850 C   0  0  0  0  0  3  0  0  0  0  0  0
  186.9350  178.9300  148.7710 Cl  0  0  0  0  0  0  0  0  0  0  0  0
  187.5710  176.1310  141.6210 C   0  0  0  0  0  0  0  0  0  0  0  0
  187.4250  176.2850  140.2400 C   0  0  0  0  0  3  0  0  0  0  0  0
  188.5120  175.9150  145.7880 C   0  0  0  0  0  2  0  0  0  0  0  0
  186.8650  177.7570  146.2620 C   0  0  0  0  0  0  0  0  0  0  0  0
  186.2160  178.5770  147.2070 C   0  0  0  0  0  0  0  0  0  0  0  0
  189.6690  172.0250  143.0190 C   0  0  0  0  0  1  0  0  0  0  0  0
  190.5160  173.2870  142.9880 C   0  0  2  0  0  3  0  0  0  0  0  0
  192.0970  172.1740  144.3860 O   0  0  0  0  0  0  0  0  0  0  0  0
  194.3900  173.3300  143.2540 C   0  0  0  0  0  1  0  0  0  0  0  0
  193.0360  173.6270  142.8120 N   0  0  0  0  0  0  0  0  0  0  0  0
  191.9130  172.9880  143.4390 C   0  0  0  0  0  0  0  0  0  0  0  0
  192.8560  174.5610  141.7080 C   0  0  0  0  0  2  0  0  0  0  0  0
  193.2590  175.9360  142.1180 C   0  0  0  0  0  0  0  0  0  0  0  0
  194.2850  176.4670  141.6200 O   0  0  0  0  0  0  0  0  0  0  0  0
  192.4670  176.6610  143.0500 N   0  0  0  0  0  1  0  0  0  0  0  0
  1 15  1  0  0  0  0
  2  5  1  6  0  0  0
  2 13  1  0  0  0  0
  2  3  1  0  0  0  0
  3 20  1  0  0  0  0
  4 11  2  0  0  0  0
  6 18  1  0  0  0  0
  6  1  2  0  0  0  0
  7  3  2  0  0  0  0
  7  4  1  0  0  0  0
  8 14  1  0  0  0  0
  8 13  1  0  0  0  0
  9  1  1  0  0  0  0
 11 21  1  0  0  0  0
 12  8  2  0  0  0  0
 13 19  1  1  0  0  0
 15  5  2  0  0  0  0
 17 12  1  0  0  0  0
 17  5  1  0  0  0  0
 18 17  2  0  0  0  0
 19 10  1  0  0  0  0
 20 10  1  0  0  0  0
 20 21  2  0  0  0  0
 21 16  1  0  0  0  0
 23 22  1  1  0  0  0
 23 27  1  0  0  0  0
 23 14  1  0  0  0  0
 26 25  1  0  0  0  0
 26 27  1  0  0  0  0
 27 24  2  0  0  0  0
 28 29  1  0  0  0  0
 28 26  1  0  0  0  0
 29 31  1  0  0  0  0
 30 29  2  0  0  0  0
M  END
>  <MODEL>
1

>  <REMARK>
 VINA RESULT:      -7.9      0.000      0.000
  Name = 
  4 active torsions:
  status: ('A' for Active; 'I' for Inactive)
    1  A    between atoms: C_1  and  C_24
    2  A    between atoms: C_9  and  C_22
    3  A    between atoms: C_9  and  N_23
    4  A    between atoms: N_19  and  C_24
                            x       y       z     vdW  Elec       q    Type
                         _______ _______ _______ _____ _____    ______ ____

>  <TORSDO>
F 4

$$$$
=
 OpenBabel11052417563D

 31 34  0  0  1  0  0  0  0  0999 V2000
  185.2530  178.1540  140.6340 C   0  0  0  0  0  0  0  0  0  0  0  0
  186.8270  176.7440  143.8500 C   0  0  1  0  0  3  0  0  0  0  0  0
  186.2090  177.6130  144.9400 C   0  0  0  0  0  0  0  0  0  0  0  0
  184.2560  178.7440  145.8580 C   0  0  0  0  0  3  0  0  0  0  0  0
  186.5580  177.1050  142.3980 C   0  0  0  0  0  0  0  0  0  0  0  0
  186.0350  177.5170  139.6690 C   0  0  0  0  0  3  0  0  0  0  0  0
  184.8780  178.0440  144.8250 C   0  0  0  0  0  3  0  0  0  0  0  0
  188.8820  175.5750  143.0260 C   0  0  0  0  0  0  0  0  0  0  0  0
  184.2390  178.9680  140.2560 F   0  0  0  0  0  0  0  0  0  0  0  0
  188.2960  177.3200  146.3790 C   0  0  0  0  0  2  0  0  0  0  0  0
  184.9480  179.0000  147.0400 C   0  0  0  0  0  3  0  0  0  0  0  0
  188.4320  175.6140  141.8030 N   0  0  0  0  0  0  0  0  0  0  0  0
  188.3380  176.5430  144.0470 C   0  0  2  0  0  3  0  0  0  0  0  0
  189.9950  174.7360  143.3540 N   0  0  0  0  0  2  0  0  0  0  0  0
  185.5060  177.9390  141.9920 C   0  0  0  0  0  3  0  0  0  0  0  0
  187.0680  178.8790  148.7260 Cl  0  0  0  0  0  0  0  0  0  0  0  0
  187.3440  176.4670  141.4140 C   0  0  0  0  0  0  0  0  0  0  0  0
  187.0780  176.6720  140.0580 C   0  0  0  0  0  3  0  0  0  0  0  0
  188.6230  176.1350  145.4820 C   0  0  0  0  0  2  0  0  0  0  0  0
  186.8870  177.8200  146.1720 C   0  0  0  0  0  0  0  0  0  0  0  0
  186.2560  178.5440  147.2040 C   0  0  0  0  0  0  0  0  0  0  0  0
  190.9350  172.4960  143.1060 C   0  0  0  0  0  1  0  0  0  0  0  0
  190.5900  173.8010  142.4080 C   0  0  2  0  0  3  0  0  0  0  0  0
  192.4510  175.2930  142.4280 O   0  0  0  0  0  0  0  0  0  0  0  0
  193.4580  174.5780  139.9080 C   0  0  0  0  0  1  0  0  0  0  0  0
  192.2640  173.9880  140.4960 N   0  0  0  0  0  0  0  0  0  0  0  0
  191.8160  174.4050  141.7960 C   0  0  0  0  0  0  0  0  0  0  0  0
  191.5610  172.9550  139.7480 C   0  0  0  0  0  2  0  0  0  0  0  0
  190.6500  173.5710  138.7410 C   0  0  0  0  0  0  0  0  0  0  0  0
  191.1010  173.9360  137.6240 O   0  0  0  0  0  0  0  0  0  0  0  0
  189.2650  173.7170  139.0280 N   0  0  0  0  0  1  0  0  0  0  0  0
  1 15  1  0  0  0  0
  2  5  1  6  0  0  0
  2 13  1  0  0  0  0
  2  3  1  0  0  0  0
  3 20  1  0  0  0  0
  4 11  2  0  0  0  0
  6 18  1  0  0  0  0
  6  1  2  0  0  0  0
  7  3  2  0  0  0  0
  7  4  1  0  0  0  0
  8 14  1  0  0  0  0
  8 13  1  0  0  0  0
  9  1  1  0  0  0  0
 11 21  1  0  0  0  0
 12  8  2  0  0  0  0
 13 19  1  1  0  0  0
 15  5  2  0  0  0  0
 17 12  1  0  0  0  0
 17  5  1  0  0  0  0
 18 17  2  0  0  0  0
 19 10  1  0  0  0  0
 20 10  1  0  0  0  0
 20 21  2  0  0  0  0
 21 16  1  0  0  0  0
 23 22  1  1  0  0  0
 23 14  1  0  0  0  0
 25 26  1  0  0  0  0
 26 27  1  0  0  0  0
 27 23  1  0  0  0  0
 27 24  2  0  0  0  0
 28 26  1  0  0  0  0
 29 31  1  0  0  0  0
 29 28  1  0  0  0  0
 30 29  2  0  0  0  0
M  END
>  <MODEL>
2

>  <REMARK>
 VINA RESULT:      -7.8      1.689      2.150
  Name = 
  4 active torsions:
  status: ('A' for Active; 'I' for Inactive)
    1  A    between atoms: C_1  and  C_24
    2  A    between atoms: C_9  and  C_22
    3  A    between atoms: C_9  and  N_23
    4  A    between atoms: N_19  and  C_24
                            x       y       z     vdW  Elec       q    Type
                         _______ _______ _______ _____ _____    ______ ____

>  <TORSDO>
F 4

$$$$
=
 OpenBabel11052417563D

 31 34  0  0  1  0  0  0  0  0999 V2000
  185.1540  178.1470  140.6150 C   0  0  0  0  0  0  0  0  0  0  0  0
  186.8110  176.7740  143.8050 C   0  0  1  0  0  3  0  0  0  0  0  0
  186.1640  177.6050  144.9080 C   0  0  0  0  0  0  0  0  0  0  0  0
  184.1720  178.6420  145.8520 C   0  0  0  0  0  3  0  0  0  0  0  0
  186.5160  177.1370  142.3590 C   0  0  0  0  0  0  0  0  0  0  0  0
  185.9550  177.5530  139.6380 C   0  0  0  0  0  3  0  0  0  0  0  0
  184.8160  177.9800  144.8070 C   0  0  0  0  0  3  0  0  0  0  0  0
  188.9080  175.7020  142.9540 C   0  0  0  0  0  0  0  0  0  0  0  0
  184.1040  178.9200  140.2520 F   0  0  0  0  0  0  0  0  0  0  0  0
  188.2730  177.3870  146.3290 C   0  0  0  0  0  2  0  0  0  0  0  0
  184.8610  178.9160  147.0310 C   0  0  0  0  0  3  0  0  0  0  0  0
  188.4470  175.7340  141.7350 N   0  0  0  0  0  0  0  0  0  0  0  0
  188.3310  176.6350  143.9890 C   0  0  2  0  0  3  0  0  0  0  0  0
  190.0580  174.9080  143.2660 N   0  0  0  0  0  2  0  0  0  0  0  0
  185.4260  177.9290  141.9680 C   0  0  0  0  0  3  0  0  0  0  0  0
  186.9980  178.8700  148.7000 Cl  0  0  0  0  0  0  0  0  0  0  0  0
  187.3210  176.5430  141.3630 C   0  0  0  0  0  0  0  0  0  0  0  0
  187.0360  176.7500  140.0100 C   0  0  0  0  0  3  0  0  0  0  0  0
  188.6440  176.2260  145.4180 C   0  0  0  0  0  2  0  0  0  0  0  0
  186.8430  177.8290  146.1380 C   0  0  0  0  0  0  0  0  0  0  0  0
  186.1890  178.5150  147.1810 C   0  0  0  0  0  0  0  0  0  0  0  0
  190.5460  172.5680  142.7690 C   0  0  0  0  0  1  0  0  0  0  0  0
  190.6850  174.0090  142.3060 C   0  0  2  0  0  3  0  0  0  0  0  0
  192.5920  174.5490  140.9800 O   0  0  0  0  0  0  0  0  0  0  0  0
  194.3900  174.8400  143.1150 C   0  0  0  0  0  1  0  0  0  0  0  0
  192.9880  174.4900  143.2840 N   0  0  0  0  0  0  0  0  0  0  0  0
  192.1290  174.3660  142.1390 C   0  0  0  0  0  0  0  0  0  0  0  0
  192.4800  174.2990  144.6360 C   0  0  0  0  0  2  0  0  0  0  0  0
  192.8090  175.4780  145.4870 C   0  0  0  0  0  0  0  0  0  0  0  0
  193.5650  175.3450  146.4830 O   0  0  0  0  0  0  0  0  0  0  0  0
  192.2950  176.7620  145.1550 N   0  0  0  0  0  1  0  0  0  0  0  0
  1 15  1  0  0  0  0
  2  5  1  6  0  0  0
  2 13  1  0  0  0  0
  2  3  1  0  0  0  0
  3 20  1  0  0  0  0
  4 11  2  0  0  0  0
  6 18  1  0  0  0  0
  6  1  2  0  0  0  0
  7  3  2  0  0  0  0
  7  4  1  0  0  0  0
  8 14  1  0  0  0  0
  8 13  1  0  0  0  0
  9  1  1  0  0  0  0
 11 21  1  0  0  0  0
 12  8  2  0  0  0  0
 13 19  1  1  0  0  0
 15  5  2  0  0  0  0
 17 12  1  0  0  0  0
 17  5  1  0  0  0  0
 18 17  2  0  0  0  0
 19 10  1  0  0  0  0
 20 10  1  0  0  0  0
 20 21  2  0  0  0  0
 21 16  1  0  0  0  0
 23 22  1  1  0  0  0
 23 14  1  0  0  0  0
 24 27  2  0  0  0  0
 25 26  1  0  0  0  0
 26 28  1  0  0  0  0
 27 23  1  0  0  0  0
 27 26  1  0  0  0  0
 28 29  1  0  0  0  0
 29 30  2  0  0  0  0
 31 29  1  0  0  0  0
M  END
>  <MODEL>
3

>  <REMARK>
 VINA RESULT:      -7.5      1.309      1.624
  Name = 
  4 active torsions:
  status: ('A' for Active; 'I' for Inactive)
    1  A    between atoms: C_1  and  C_24
    2  A    between atoms: C_9  and  C_22
    3  A    between atoms: C_9  and  N_23
    4  A    between atoms: N_19  and  C_24
                            x       y       z     vdW  Elec       q    Type
                         _______ _______ _______ _____ _____    ______ ____

>  <TORSDO>
F 4

$$$$
=
 OpenBabel11052417563D

 31 34  0  0  1  0  0  0  0  0999 V2000
  184.6880  178.1150  145.8430 C   0  0  0  0  0  0  0  0  0  0  0  0
  187.5680  177.0190  143.5390 C   0  0  1  0  0  3  0  0  0  0  0  0
  186.9530  177.1350  142.1480 C   0  0  0  0  0  0  0  0  0  0  0  0
  185.5640  178.3670  140.5710 C   0  0  0  0  0  3  0  0  0  0  0  0
  186.6690  177.2270  144.7470 C   0  0  0  0  0  0  0  0  0  0  0  0
  185.2030  177.7450  147.0870 C   0  0  0  0  0  3  0  0  0  0  0  0
  186.0530  178.1730  141.8620 C   0  0  0  0  0  3  0  0  0  0  0  0
  189.0590  175.7030  145.0600 C   0  0  0  0  0  0  0  0  0  0  0  0
  183.4830  178.7270  145.7650 F   0  0  0  0  0  0  0  0  0  0  0  0
  188.4570  175.2510  141.3100 C   0  0  0  0  0  2  0  0  0  0  0  0
  185.9930  177.5410  139.5340 C   0  0  0  0  0  3  0  0  0  0  0  0
  188.4500  176.1910  146.1040 N   0  0  0  0  0  0  0  0  0  0  0  0
  188.3630  175.7160  143.7220 C   0  0  2  0  0  3  0  0  0  0  0  0
  190.3060  175.0150  145.2140 N   0  0  0  0  0  2  0  0  0  0  0  0
  185.4230  177.8680  144.6810 C   0  0  0  0  0  3  0  0  0  0  0  0
  187.4410  175.5350  138.4230 Cl  0  0  0  0  0  0  0  0  0  0  0  0
  187.1800  176.8550  146.0090 C   0  0  0  0  0  0  0  0  0  0  0  0
  186.4490  177.1180  147.1710 C   0  0  0  0  0  3  0  0  0  0  0  0
  189.3030  175.5140  142.5470 C   0  0  0  0  0  2  0  0  0  0  0  0
  187.4360  176.3380  141.0750 C   0  0  0  0  0  0  0  0  0  0  0  0
  186.9230  176.5300  139.7770 C   0  0  0  0  0  0  0  0  0  0  0  0
  190.0290  174.9160  147.6380 C   0  0  0  0  0  1  0  0  0  0  0  0
  191.0170  174.9370  146.4830 C   0  0  2  0  0  3  0  0  0  0  0  0
  191.5430  177.1640  147.1560 O   0  0  0  0  0  0  0  0  0  0  0  0
  194.2050  177.1430  146.2680 C   0  0  0  0  0  1  0  0  0  0  0  0
  193.3010  176.0110  146.1310 N   0  0  0  0  0  0  0  0  0  0  0  0
  191.9520  176.0980  146.6180 C   0  0  0  0  0  0  0  0  0  0  0  0
  193.8070  174.7900  145.5180 C   0  0  0  0  0  2  0  0  0  0  0  0
  194.1650  175.0340  144.0920 C   0  0  0  0  0  0  0  0  0  0  0  0
  195.3540  174.8920  143.7070 O   0  0  0  0  0  0  0  0  0  0  0  0
  193.1570  175.3980  143.1570 N   0  0  0  0  0  1  0  0  0  0  0  0
  1  6  1  0  0  0  0
  2  3  1  6  0  0  0
  2 13  1  0  0  0  0
  2  5  1  0  0  0  0
  4  7  2  0  0  0  0
  5 17  2  0  0  0  0
  6 18  2  0  0  0  0
  7  3  1  0  0  0  0
  8 14  1  0  0  0  0
  8 12  2  0  0  0  0
  9  1  1  0  0  0  0
 10 19  1  0  0  0  0
 11 21  2  0  0  0  0
 11  4  1  0  0  0  0
 13 19  1  6  0  0  0
 13  8  1  0  0  0  0
 14 23  1  0  0  0  0
 15  5  1  0  0  0  0
 15  1  2  0  0  0  0
 16 21  1  0  0  0  0
 17 12  1  0  0  0  0
 17 18  1  0  0  0  0
 20 10  1  0  0  0  0
 20  3  2  0  0  0  0
 21 20  1  0  0  0  0
 23 27  1  0  0  0  0
 23 22  1  1  0  0  0
 26 25  1  0  0  0  0
 26 27  1  0  0  0  0
 27 24  2  0  0  0  0
 28 26  1  0  0  0  0
 29 28  1  0  0  0  0
 30 29  2  0  0  0  0
 31 29  1  0  0  0  0
M  END
>  <MODEL>
4

>  <REMARK>
 VINA RESULT:      -7.0      3.056      4.914
  Name = 
  4 active torsions:
  status: ('A' for Active; 'I' for Inactive)
    1  A    between atoms: C_1  and  C_24
    2  A    between atoms: C_9  and  C_22
    3  A    between atoms: C_9  and  N_23
    4  A    between atoms: N_19  and  C_24
                            x       y       z     vdW  Elec       q    Type
                         _______ _______ _______ _____ _____    ______ ____

>  <TORSDO>
F 4

$$$$
=
 OpenBabel11052417563D

 31 34  0  0  1  0  0  0  0  0999 V2000
  191.1230  175.2910  147.5420 C   0  0  0  0  0  0  0  0  0  0  0  0
  192.5300  174.4290  144.0670 C   0  0  1  0  0  3  0  0  0  0  0  0
  194.0230  174.6910  144.2300 C   0  0  0  0  0  0  0  0  0  0  0  0
  196.0420  174.5200  145.5830 C   0  0  0  0  0  3  0  0  0  0  0  0
  191.5990  174.8090  145.2070 C   0  0  0  0  0  0  0  0  0  0  0  0
  189.7530  175.2900  147.2690 C   0  0  0  0  0  3  0  0  0  0  0  0
  194.6600  174.3940  145.4450 C   0  0  0  0  0  3  0  0  0  0  0  0
  190.5300  174.6060  142.5710 C   0  0  0  0  0  0  0  0  0  0  0  0
  191.5610  175.5190  148.8030 F   0  0  0  0  0  0  0  0  0  0  0  0
  194.2030  175.2970  141.7580 C   0  0  0  0  0  2  0  0  0  0  0  0
  196.8160  174.9180  144.4960 C   0  0  0  0  0  3  0  0  0  0  0  0
  189.7360  174.5880  143.6050 N   0  0  0  0  0  0  0  0  0  0  0  0
  191.9750  175.0000  142.7520 C   0  0  2  0  0  3  0  0  0  0  0  0
  189.9980  174.4140  141.2550 N   0  0  0  0  0  2  0  0  0  0  0  0
  192.0400  175.0390  146.5190 C   0  0  0  0  0  3  0  0  0  0  0  0
  197.2520  175.6510  141.9220 Cl  0  0  0  0  0  0  0  0  0  0  0  0
  190.2130  174.8130  144.9410 C   0  0  0  0  0  0  0  0  0  0  0  0
  189.2980  175.0490  145.9700 C   0  0  0  0  0  3  0  0  0  0  0  0
  192.8650  174.5910  141.5920 C   0  0  0  0  0  2  0  0  0  0  0  0
  194.8250  175.0330  143.1070 C   0  0  0  0  0  0  0  0  0  0  0  0
  196.2190  175.1740  143.2610 C   0  0  0  0  0  0  0  0  0  0  0  0
  188.5150  172.6650  140.4160 C   0  0  0  0  0  1  0  0  0  0  0  0
  188.6060  174.0630  141.0060 C   0  0  2  0  0  3  0  0  0  0  0  0
  188.0830  174.8930  138.8310 O   0  0  0  0  0  0  0  0  0  0  0  0
  186.6910  177.1740  139.6900 C   0  0  0  0  0  1  0  0  0  0  0  0
  187.2940  176.2090  140.5970 N   0  0  0  0  0  0  0  0  0  0  0  0
  187.9860  175.0620  140.0780 C   0  0  0  0  0  0  0  0  0  0  0  0
  187.1520  176.4240  142.0310 C   0  0  0  0  0  2  0  0  0  0  0  0
  187.7500  177.7310  142.4220 C   0  0  0  0  0  0  0  0  0  0  0  0
  187.0120  178.6650  142.8290 O   0  0  0  0  0  0  0  0  0  0  0  0
  189.1590  177.9160  142.3660 N   0  0  0  0  0  1  0  0  0  0  0  0
  1  9  1  0  0  0  0
  2  3  1  1  0  0  0
  2  5  1  0  0  0  0
  3  7  1  0  0  0  0
  5 15  1  0  0  0  0
  6  1  1  0  0  0  0
  7  4  2  0  0  0  0
  8 13  1  0  0  0  0
  8 12  2  0  0  0  0
 10 20  1  0  0  0  0
 11  4  1  0  0  0  0
 12 17  1  0  0  0  0
 13 19  1  6  0  0  0
 13  2  1  0  0  0  0
 14  8  1  0  0  0  0
 15  1  2  0  0  0  0
 16 21  1  0  0  0  0
 17  5  2  0  0  0  0
 17 18  1  0  0  0  0
 18  6  2  0  0  0  0
 19 10  1  0  0  0  0
 20 21  1  0  0  0  0
 20  3  2  0  0  0  0
 21 11  2  0  0  0  0
 23 22  1  6  0  0  0
 23 14  1  0  0  0  0
 24 27  2  0  0  0  0
 25 26  1  0  0  0  0
 26 28  1  0  0  0  0
 27 26  1  0  0  0  0
 27 23  1  0  0  0  0
 28 29  1  0  0  0  0
 29 30  2  0  0  0  0
 31 29  1  0  0  0  0
M  END
>  <MODEL>
5

>  <REMARK>
 VINA RESULT:      -7.0      4.346      7.745
  Name = 
  4 active torsions:
  status: ('A' for Active; 'I' for Inactive)
    1  A    between atoms: C_1  and  C_24
    2  A    between atoms: C_9  and  C_22
    3  A    between atoms: C_9  and  N_23
    4  A    between atoms: N_19  and  C_24
                            x       y       z     vdW  Elec       q    Type
                         _______ _______ _______ _____ _____    ______ ____

>  <TORSDO>
F 4

$$$$
=
 OpenBabel11052417563D

 31 34  0  0  1  0  0  0  0  0999 V2000
  186.3770  178.5490  144.2890 C   0  0  0  0  0  0  0  0  0  0  0  0
  189.1210  175.8860  143.8600 C   0  0  1  0  0  3  0  0  0  0  0  0
  190.0470  176.1580  145.0400 C   0  0  0  0  0  0  0  0  0  0  0  0
  190.3250  176.7090  147.3970 C   0  0  0  0  0  3  0  0  0  0  0  0
  187.9770  176.8530  143.5990 C   0  0  0  0  0  0  0  0  0  0  0  0
  185.7150  178.4310  143.0650 C   0  0  0  0  0  3  0  0  0  0  0  0
  189.5120  176.5620  146.2730 C   0  0  0  0  0  3  0  0  0  0  0  0
  188.9490  175.2610  141.4410 C   0  0  0  0  0  0  0  0  0  0  0  0
  185.9260  179.4210  145.2210 F   0  0  0  0  0  0  0  0  0  0  0  0
  192.0390  175.3020  143.6950 C   0  0  0  0  0  2  0  0  0  0  0  0
  191.6860  176.4250  147.3130 C   0  0  0  0  0  3  0  0  0  0  0  0
  187.7810  175.8330  141.3600 N   0  0  0  0  0  0  0  0  0  0  0  0
  189.8920  175.6550  142.5500 C   0  0  2  0  0  3  0  0  0  0  0  0
  189.3960  174.3910  140.3940 N   0  0  0  0  0  2  0  0  0  0  0  0
  187.4940  177.7540  144.5590 C   0  0  0  0  0  3  0  0  0  0  0  0
  193.9590  175.6140  146.0750 Cl  0  0  0  0  0  0  0  0  0  0  0  0
  187.3030  176.7430  142.3630 C   0  0  0  0  0  0  0  0  0  0  0  0
  186.1760  177.5280  142.1040 C   0  0  0  0  0  3  0  0  0  0  0  0
  191.0120  174.6540  142.7790 C   0  0  0  0  0  2  0  0  0  0  0  0
  191.4230  175.8080  144.9770 C   0  0  0  0  0  0  0  0  0  0  0  0
  192.2390  175.9760  146.1130 C   0  0  0  0  0  0  0  0  0  0  0  0
  188.0720  172.5640  139.4620 C   0  0  0  0  0  1  0  0  0  0  0  0
  188.5490  173.9950  139.2770 C   0  0  2  0  0  3  0  0  0  0  0  0
  190.4800  173.6830  137.9120 O   0  0  0  0  0  0  0  0  0  0  0  0
  189.4400  174.9020  135.6080 C   0  0  0  0  0  1  0  0  0  0  0  0
  188.7020  174.7760  136.8560 N   0  0  0  0  0  0  0  0  0  0  0  0
  189.3030  174.1310  137.9910 C   0  0  0  0  0  0  0  0  0  0  0  0
  187.3400  175.2910  136.9110 C   0  0  0  0  0  2  0  0  0  0  0  0
  187.1560  176.3810  135.9110 C   0  0  0  0  0  0  0  0  0  0  0  0
  187.8160  177.4470  136.0130 O   0  0  0  0  0  0  0  0  0  0  0  0
  186.2590  176.2050  134.8220 N   0  0  0  0  0  1  0  0  0  0  0  0
  1 15  1  0  0  0  0
  1  9  1  0  0  0  0
  2  5  1  6  0  0  0
  2  3  1  0  0  0  0
  3  7  1  0  0  0  0
  5 15  2  0  0  0  0
  6  1  2  0  0  0  0
  7  4  2  0  0  0  0
  8 13  1  0  0  0  0
 10 20  1  0  0  0  0
 11  4  1  0  0  0  0
 12  8  2  0  0  0  0
 12 17  1  0  0  0  0
 13 19  1  1  0  0  0
 13  2  1  0  0  0  0
 14  8  1  0  0  0  0
 16 21  1  0  0  0  0
 17  5  1  0  0  0  0
 18 17  2  0  0  0  0
 18  6  1  0  0  0  0
 19 10  1  0  0  0  0
 20  3  2  0  0  0  0
 20 21  1  0  0  0  0
 21 11  2  0  0  0  0
 23 22  1  1  0  0  0
 23 14  1  0  0  0  0
 24 27  2  0  0  0  0
 25 26  1  0  0  0  0
 26 28  1  0  0  0  0
 26 27  1  0  0  0  0
 27 23  1  0  0  0  0
 29 30  2  0  0  0  0
 29 28  1  0  0  0  0
 31 29  1  0  0  0  0
M  END
>  <MODEL>
6

>  <REMARK>
 VINA RESULT:      -6.9      3.828      5.658
  Name = 
  4 active torsions:
  status: ('A' for Active; 'I' for Inactive)
    1  A    between atoms: C_1  and  C_24
    2  A    between atoms: C_9  and  C_22
    3  A    between atoms: C_9  and  N_23
    4  A    between atoms: N_19  and  C_24
                            x       y       z     vdW  Elec       q    Type
                         _______ _______ _______ _____ _____    ______ ____

>  <TORSDO>
F 4

$$$$
=
 OpenBabel11052417563D

 31 34  0  0  1  0  0  0  0  0999 V2000
  190.6800  172.4800  140.7150 C   0  0  0  0  0  0  0  0  0  0  0  0
  190.9960  175.7940  142.6440 C   0  0  1  0  0  3  0  0  0  0  0  0
  192.4130  175.7280  143.2050 C   0  0  0  0  0  0  0  0  0  0  0  0
  194.7630  175.1690  142.8910 C   0  0  0  0  0  3  0  0  0  0  0  0
  190.4400  174.5700  141.9350 C   0  0  0  0  0  0  0  0  0  0  0  0
  189.3100  172.4700  140.4510 C   0  0  0  0  0  3  0  0  0  0  0  0
  193.4410  175.1430  142.4490 C   0  0  0  0  0  3  0  0  0  0  0  0
  188.6160  176.4550  143.0550 C   0  0  0  0  0  0  0  0  0  0  0  0
  191.4670  171.4800  140.2520 F   0  0  0  0  0  0  0  0  0  0  0  0
  191.7030  177.1420  145.2070 C   0  0  0  0  0  2  0  0  0  0  0  0
  195.0850  175.8090  144.0860 C   0  0  0  0  0  3  0  0  0  0  0  0
  188.2080  175.5970  142.1640 N   0  0  0  0  0  0  0  0  0  0  0  0
  189.9750  176.2800  143.6860 C   0  0  2  0  0  3  0  0  0  0  0  0
  187.7200  177.4570  143.5490 N   0  0  0  0  0  2  0  0  0  0  0  0
  191.2440  173.5320  141.4430 C   0  0  0  0  0  3  0  0  0  0  0  0
  194.5650  177.2500  146.3230 Cl  0  0  0  0  0  0  0  0  0  0  0  0
  189.0550  174.5490  141.6650 C   0  0  0  0  0  0  0  0  0  0  0  0
  188.4970  173.5040  140.9230 C   0  0  0  0  0  3  0  0  0  0  0  0
  190.4920  177.5320  144.3730 C   0  0  0  0  0  2  0  0  0  0  0  0
  192.7560  176.4350  144.3890 C   0  0  0  0  0  0  0  0  0  0  0  0
  194.0930  176.4410  144.8360 C   0  0  0  0  0  0  0  0  0  0  0  0
  186.4660  178.2820  141.6230 C   0  0  0  0  0  1  0  0  0  0  0  0
  186.3830  177.6620  143.0080 C   0  0  2  0  0  3  0  0  0  0  0  0
  185.2390  179.6870  143.5360 O   0  0  0  0  0  0  0  0  0  0  0  0
  184.4610  178.9460  146.1280 C   0  0  0  0  0  1  0  0  0  0  0  0
  185.2350  178.0880  145.2420 N   0  0  0  0  0  0  0  0  0  0  0  0
  185.5890  178.5390  143.9250 C   0  0  0  0  0  0  0  0  0  0  0  0
  185.6110  176.7630  145.7160 C   0  0  0  0  0  2  0  0  0  0  0  0
  186.4510  176.8680  146.9420 C   0  0  0  0  0  0  0  0  0  0  0  0
  186.0050  176.4660  148.0480 O   0  0  0  0  0  0  0  0  0  0  0  0
  187.7700  177.3940  146.8600 N   0  0  0  0  0  1  0  0  0  0  0  0
  1 15  1  0  0  0  0
  2  5  1  1  0  0  0
  2  3  1  0  0  0  0
  2 13  1  0  0  0  0
  3 20  1  0  0  0  0
  4 11  2  0  0  0  0
  6  1  2  0  0  0  0
  6 18  1  0  0  0  0
  7  4  1  0  0  0  0
  7  3  2  0  0  0  0
  8 14  1  0  0  0  0
  8 13  1  0  0  0  0
  9  1  1  0  0  0  0
 11 21  1  0  0  0  0
 12  8  2  0  0  0  0
 13 19  1  6  0  0  0
 15  5  2  0  0  0  0
 17  5  1  0  0  0  0
 17 12  1  0  0  0  0
 18 17  2  0  0  0  0
 19 10  1  0  0  0  0
 20 21  2  0  0  0  0
 20 10  1  0  0  0  0
 21 16  1  0  0  0  0
 23 22  1  6  0  0  0
 23 14  1  0  0  0  0
 23 27  1  0  0  0  0
 24 27  2  0  0  0  0
 26 28  1  0  0  0  0
 26 25  1  0  0  0  0
 27 26  1  0  0  0  0
 28 29  1  0  0  0  0
 29 30  2  0  0  0  0
 31 29  1  0  0  0  0
M  END
>  <MODEL>
7

>  <REMARK>
 VINA RESULT:      -6.9      3.941      7.329
  Name = 
  4 active torsions:
  status: ('A' for Active; 'I' for Inactive)
    1  A    between atoms: C_1  and  C_24
    2  A    between atoms: C_9  and  C_22
    3  A    between atoms: C_9  and  N_23
    4  A    between atoms: N_19  and  C_24
                            x       y       z     vdW  Elec       q    Type
                         _______ _______ _______ _____ _____    ______ ____

>  <TORSDO>
F 4

$$$$
=
 OpenBabel11052417563D

 31 34  0  0  1  0  0  0  0  0999 V2000
  185.0490  177.4520  146.5720 C   0  0  0  0  0  0  0  0  0  0  0  0
  187.5710  177.0730  143.6910 C   0  0  1  0  0  3  0  0  0  0  0  0
  186.7210  177.3520  142.4560 C   0  0  0  0  0  0  0  0  0  0  0  0
  184.9900  178.6720  141.3630 C   0  0  0  0  0  3  0  0  0  0  0  0
  186.8780  176.9790  145.0410 C   0  0  0  0  0  0  0  0  0  0  0  0
  185.7970  176.9380  147.6330 C   0  0  0  0  0  3  0  0  0  0  0  0
  185.7060  178.3190  142.5060 C   0  0  0  0  0  3  0  0  0  0  0  0
  189.3990  175.6900  144.6990 C   0  0  0  0  0  0  0  0  0  0  0  0
  183.8040  177.9360  146.7930 F   0  0  0  0  0  0  0  0  0  0  0  0
  188.2030  175.8060  141.0680 C   0  0  0  0  0  2  0  0  0  0  0  0
  185.2980  178.0810  140.1390 C   0  0  0  0  0  3  0  0  0  0  0  0
  188.9410  175.9290  145.8950 N   0  0  0  0  0  0  0  0  0  0  0  0
  188.4860  175.8510  143.5090 C   0  0  2  0  0  3  0  0  0  0  0  0
  190.7040  175.1250  144.5310 N   0  0  0  0  0  2  0  0  0  0  0  0
  185.5920  177.4830  145.2850 C   0  0  0  0  0  3  0  0  0  0  0  0
  186.6900  176.4560  138.4730 Cl  0  0  0  0  0  0  0  0  0  0  0  0
  187.6250  176.4590  146.1200 C   0  0  0  0  0  0  0  0  0  0  0  0
  187.0840  176.4440  147.4090 C   0  0  0  0  0  3  0  0  0  0  0  0
  189.2250  175.9500  142.1860 C   0  0  0  0  0  2  0  0  0  0  0  0
  187.0750  176.8010  141.1940 C   0  0  0  0  0  0  0  0  0  0  0  0
  186.3340  177.1500  140.0480 C   0  0  0  0  0  0  0  0  0  0  0  0
  192.2230  176.2380  146.0860 C   0  0  0  0  0  1  0  0  0  0  0  0
  191.6260  174.9130  145.6390 C   0  0  2  0  0  3  0  0  0  0  0  0
  193.9130  174.2550  145.4760 O   0  0  0  0  0  0  0  0  0  0  0  0
  193.4490  171.8230  144.1550 C   0  0  0  0  0  1  0  0  0  0  0  0
  192.3900  172.7410  144.5490 N   0  0  0  0  0  0  0  0  0  0  0  0
  192.7100  173.9650  145.2280 C   0  0  0  0  0  0  0  0  0  0  0  0
  191.0100  172.3710  144.2620 C   0  0  0  0  0  2  0  0  0  0  0  0
  190.8400  172.0880  142.8090 C   0  0  0  0  0  0  0  0  0  0  0  0
  191.0720  172.9880  141.9600 O   0  0  0  0  0  0  0  0  0  0  0  0
  190.4450  170.7920  142.3770 N   0  0  0  0  0  1  0  0  0  0  0  0
  1  9  1  0  0  0  0
  1  6  1  0  0  0  0
  2  3  1  6  0  0  0
  2  5  1  0  0  0  0
  3  7  1  0  0  0  0
  4  7  2  0  0  0  0
  5 15  1  0  0  0  0
  5 17  2  0  0  0  0
  8 12  2  0  0  0  0
 10 20  1  0  0  0  0
 10 19  1  0  0  0  0
 11  4  1  0  0  0  0
 12 17  1  0  0  0  0
 13 19  1  6  0  0  0
 13  2  1  0  0  0  0
 13  8  1  0  0  0  0
 14  8  1  0  0  0  0
 14 23  1  0  0  0  0
 15  1  2  0  0  0  0
 16 21  1  0  0  0  0
 17 18  1  0  0  0  0
 18  6  2  0  0  0  0
 20  3  2  0  0  0  0
 21 11  2  0  0  0  0
 21 20  1  0  0  0  0
 23 22  1  6  0  0  0
 25 26  1  0  0  0  0
 26 27  1  0  0  0  0
 27 24  2  0  0  0  0
 27 23  1  0  0  0  0
 28 26  1  0  0  0  0
 29 28  1  0  0  0  0
 30 29  2  0  0  0  0
 31 29  1  0  0  0  0
M  END
>  <MODEL>
8

>  <REMARK>
 VINA RESULT:      -6.9      2.923      4.872
  Name = 
  4 active torsions:
  status: ('A' for Active; 'I' for Inactive)
    1  A    between atoms: C_1  and  C_24
    2  A    between atoms: C_9  and  C_22
    3  A    between atoms: C_9  and  N_23
    4  A    between atoms: N_19  and  C_24
                            x       y       z     vdW  Elec       q    Type
                         _______ _______ _______ _____ _____    ______ ____

>  <TORSDO>
F 4

$$$$
=
 OpenBabel11052417563D

 31 34  0  0  1  0  0  0  0  0999 V2000
  192.0220  174.4230  145.3500 C   0  0  0  0  0  0  0  0  0  0  0  0
  188.9170  176.1150  143.8330 C   0  0  1  0  0  3  0  0  0  0  0  0
  188.2050  176.6790  145.0570 C   0  0  0  0  0  0  0  0  0  0  0  0
  188.3250  177.8140  147.2090 C   0  0  0  0  0  3  0  0  0  0  0  0
  190.1330  175.2280  144.0470 C   0  0  0  0  0  0  0  0  0  0  0  0
  192.4900  173.7120  144.2430 C   0  0  0  0  0  3  0  0  0  0  0  0
  188.9500  177.1930  146.1290 C   0  0  0  0  0  3  0  0  0  0  0  0
  188.6750  174.9930  141.6070 C   0  0  0  0  0  0  0  0  0  0  0  0
  192.7070  174.3860  146.5170 F   0  0  0  0  0  0  0  0  0  0  0  0
  185.9530  176.4160  143.8860 C   0  0  0  0  0  2  0  0  0  0  0  0
  186.9390  177.9580  147.2210 C   0  0  0  0  0  3  0  0  0  0  0  0
  189.8870  174.5220  141.6960 N   0  0  0  0  0  0  0  0  0  0  0  0
  187.9510  175.4190  142.8610 C   0  0  2  0  0  3  0  0  0  0  0  0
  187.9790  174.9540  140.3560 N   0  0  0  0  0  2  0  0  0  0  0  0
  190.8560  175.1870  145.2480 C   0  0  0  0  0  3  0  0  0  0  0  0
  184.4320  177.7310  146.2120 Cl  0  0  0  0  0  0  0  0  0  0  0  0
  190.6130  174.5030  142.9350 C   0  0  0  0  0  0  0  0  0  0  0  0
  191.7870  173.7530  143.0360 C   0  0  0  0  0  3  0  0  0  0  0  0
  186.7510  176.3110  142.5960 C   0  0  0  0  0  2  0  0  0  0  0  0
  186.7990  176.8870  145.0440 C   0  0  0  0  0  0  0  0  0  0  0  0
  186.1730  177.5000  146.1480 C   0  0  0  0  0  0  0  0  0  0  0  0
  187.7560  174.9400  137.9240 C   0  0  0  0  0  1  0  0  0  0  0  0
  188.6070  174.5240  139.1130 C   0  0  2  0  0  3  0  0  0  0  0  0
  187.8160  172.2910  139.3860 O   0  0  0  0  0  0  0  0  0  0  0  0
  190.2630  171.0220  138.8580 C   0  0  0  0  0  1  0  0  0  0  0  0
  190.0850  172.4660  138.8480 N   0  0  0  0  0  0  0  0  0  0  0  0
  188.7970  173.0390  139.1230 C   0  0  0  0  0  0  0  0  0  0  0  0
  191.2340  173.3030  138.5280 C   0  0  0  0  0  2  0  0  0  0  0  0
  191.5250  173.2490  137.0670 C   0  0  0  0  0  0  0  0  0  0  0  0
  190.6810  173.6800  136.2400 O   0  0  0  0  0  0  0  0  0  0  0  0
  192.7710  172.7390  136.6080 N   0  0  0  0  0  1  0  0  0  0  0  0
  1  9  1  0  0  0  0
  2  5  1  1  0  0  0
  2  3  1  0  0  0  0
  3  7  1  0  0  0  0
  4 11  1  0  0  0  0
  5 15  2  0  0  0  0
  6  1  2  0  0  0  0
  7  4  2  0  0  0  0
  8 12  2  0  0  0  0
  8 13  1  0  0  0  0
 10 20  1  0  0  0  0
 12 17  1  0  0  0  0
 13 19  1  6  0  0  0
 13  2  1  0  0  0  0
 14  8  1  0  0  0  0
 15  1  1  0  0  0  0
 17 18  2  0  0  0  0
 17  5  1  0  0  0  0
 18  6  1  0  0  0  0
 19 10  1  0  0  0  0
 20  3  2  0  0  0  0
 20 21  1  0  0  0  0
 21 16  1  0  0  0  0
 21 11  2  0  0  0  0
 23 22  1  6  0  0  0
 23 27  1  0  0  0  0
 23 14  1  0  0  0  0
 26 25  1  0  0  0  0
 26 27  1  0  0  0  0
 27 24  2  0  0  0  0
 28 26  1  0  0  0  0
 29 28  1  0  0  0  0
 30 29  2  0  0  0  0
 31 29  1  0  0  0  0
M  END
>  <MODEL>
9

>  <REMARK>
 VINA RESULT:      -6.6      3.634      5.234
  Name = 
  4 active torsions:
  status: ('A' for Active; 'I' for Inactive)
    1  A    between atoms: C_1  and  C_24
    2  A    between atoms: C_9  and  C_22
    3  A    between atoms: C_9  and  N_23
    4  A    between atoms: N_19  and  C_24
                            x       y       z     vdW  Elec       q    Type
                         _______ _______ _______ _____ _____    ______ ____

>  <TORSDO>
F 4

$$$$
