=
 OpenBabel11052417483D

 31 34  0  0  0  0  0  0  0  0999 V2000
  186.1080  178.3830  147.6420 C   0  0  0  0  0  0  0  0  0  0  0  0
  186.8970  177.8720  143.9940 C   0  0  0  0  0  0  0  0  0  0  0  0
  188.3030  177.6200  143.8990 C   0  0  0  0  0  0  0  0  0  0  0  0
  190.4920  177.3560  145.0100 C   0  0  0  0  0  3  0  0  0  0  0  0
  186.1970  178.1190  145.2140 C   0  0  0  0  0  0  0  0  0  0  0  0
  184.7350  178.6150  147.5800 C   0  0  0  0  0  3  0  0  0  0  0  0
  189.1840  177.5890  145.0870 C   0  0  0  0  0  3  0  0  0  0  0  0
  184.7650  178.1220  142.8090 C   0  0  0  0  0  0  0  0  0  0  0  0
  186.7440  178.3960  148.8380 F   0  0  0  0  0  0  0  0  0  0  0  0
  188.0880  177.4100  141.4940 C   0  0  0  0  0  3  0  0  0  0  0  0
  191.1390  177.1120  143.7190 C   0  0  0  0  0  0  0  0  0  0  0  0
  184.1380  178.3520  143.9910 N   0  0  0  0  0  0  0  0  0  0  0  0
  186.1470  177.8790  142.7840 C   0  0  0  0  0  0  0  0  0  0  0  0
  186.8280  178.1390  146.4700 C   0  0  0  0  0  3  0  0  0  0  0  0
  192.3780  176.8940  143.6800 O   0  0  0  0  0  0  0  0  0  0  0  0
  184.7990  178.3580  145.1710 C   0  0  0  0  0  0  0  0  0  0  0  0
  184.0830  178.6030  146.3470 C   0  0  0  0  0  3  0  0  0  0  0  0
  186.7610  177.6500  141.5930 N   0  0  0  0  0  0  0  0  0  0  0  0
  188.8850  177.3890  142.6310 C   0  0  0  0  0  0  0  0  0  0  0  0
  190.3530  177.1150  142.4420 C   0  0  0  0  0  2  0  0  0  0  0  0
  182.6640  178.1100  141.5310 C   0  0  0  0  0  3  0  0  0  0  0  0
  183.9910  178.1280  141.5570 C   0  0  0  0  0  3  0  0  0  0  0  0
  181.9390  178.1150  140.2270 C   0  0  0  0  0  2  0  0  0  0  0  0
  180.4320  178.2870  140.4100 C   0  0  0  0  0  2  0  0  0  0  0  0
  180.0720  179.4760  141.2980 C   0  0  0  0  0  2  0  0  0  0  0  0
  177.9610  180.4840  140.8470 O   0  0  0  0  0  0  0  0  0  0  0  0
  179.1930  180.4480  140.5860 C   0  0  0  0  0  0  0  0  0  0  0  0
  179.7740  181.3360  139.6250 N   0  0  0  0  0  2  0  0  0  0  0  0
  179.0720  182.3320  138.8730 C   0  0  0  0  0  0  0  0  0  0  0  0
  178.8550  183.6390  139.3970 N   0  0  0  0  0  1  0  0  0  0  0  0
  178.5140  181.9620  137.3860 S   0  0  0  0  0  0  0  0  0  0  0  0
  1  9  1  0  0  0  0
  2  5  1  0  0  0  0
  3  2  1  0  0  0  0
  3  7  1  0  0  0  0
  4  7  2  0  0  0  0
  5 14  1  0  0  0  0
  6  1  1  0  0  0  0
  8 12  2  0  0  0  0
 10 18  2  0  0  0  0
 10 19  1  0  0  0  0
 11  4  1  0  0  0  0
 12 16  1  0  0  0  0
 13  8  1  0  0  0  0
 13  2  2  0  0  0  0
 14  1  2  0  0  0  0
 15 11  2  0  0  0  0
 16  5  2  0  0  0  0
 16 17  1  0  0  0  0
 17  6  2  0  0  0  0
 18 13  1  0  0  0  0
 19  3  2  0  0  0  0
 20 19  1  0  0  0  0
 20 11  1  0  0  0  0
 21 22  2  0  0  0  0
 22  8  1  0  0  0  0
 23 24  1  0  0  0  0
 23 21  1  0  0  0  0
 24 25  1  0  0  0  0
 27 26  2  0  0  0  0
 27 25  1  0  0  0  0
 28 27  1  0  0  0  0
 29 30  1  0  0  0  0
 29 28  1  0  0  0  0
 31 29  2  0  0  0  0
M  END
>  <MODEL>
1

>  <REMARK>
 VINA RESULT:      -8.3      0.000      0.000
  Name = 
  6 active torsions:
  status: ('A' for Active; 'I' for Inactive)
    1  A    between atoms: C_1  and  N_24
    2  A    between atoms: C_3  and  C_19
    3  A    between atoms: C_3  and  C_22
    4  A    between atoms: C_7  and  C_9
    5  A    between atoms: C_7  and  C_22
    6  A    between atoms: C_15  and  C_23
                            x       y       z     vdW  Elec       q    Type
                         _______ _______ _______ _____ _____    ______ ____

>  <TORSDO>
F 6

$$$$
=
 OpenBabel11052417483D

 31 34  0  0  0  0  0  0  0  0999 V2000
  184.3350  178.5090  146.0680 C   0  0  0  0  0  0  0  0  0  0  0  0
  187.1600  176.7560  144.2950 C   0  0  0  0  0  0  0  0  0  0  0  0
  186.9180  176.8830  142.8900 C   0  0  0  0  0  0  0  0  0  0  0  0
  185.5030  177.7190  141.0470 C   0  0  0  0  0  3  0  0  0  0  0  0
  186.3140  177.2880  145.3160 C   0  0  0  0  0  0  0  0  0  0  0  0
  184.6990  178.3060  147.3980 C   0  0  0  0  0  3  0  0  0  0  0  0
  185.7380  177.5960  142.3510 C   0  0  0  0  0  3  0  0  0  0  0  0
  188.6200  175.8880  146.0640 C   0  0  0  0  0  0  0  0  0  0  0  0
  183.2060  179.1950  145.7710 F   0  0  0  0  0  0  0  0  0  0  0  0
  188.9460  175.6370  142.4430 C   0  0  0  0  0  3  0  0  0  0  0  0
  186.4190  177.1440  140.0590 C   0  0  0  0  0  0  0  0  0  0  0  0
  187.7900  176.4090  147.0020 N   0  0  0  0  0  0  0  0  0  0  0  0
  188.3260  176.0490  144.7010 C   0  0  0  0  0  0  0  0  0  0  0  0
  185.1360  178.0040  145.0410 C   0  0  0  0  0  3  0  0  0  0  0  0
  186.1680  177.2790  138.8330 O   0  0  0  0  0  0  0  0  0  0  0  0
  186.6670  177.0910  146.6760 C   0  0  0  0  0  0  0  0  0  0  0  0
  185.8620  177.5980  147.7000 C   0  0  0  0  0  3  0  0  0  0  0  0
  189.1670  175.5210  143.7710 N   0  0  0  0  0  0  0  0  0  0  0  0
  187.8290  176.3120  141.9720 C   0  0  0  0  0  0  0  0  0  0  0  0
  187.6510  176.4000  140.4800 C   0  0  0  0  0  2  0  0  0  0  0  0
  190.9270  175.7660  146.9040 C   0  0  0  0  0  3  0  0  0  0  0  0
  189.8270  175.1560  146.4800 C   0  0  0  0  0  3  0  0  0  0  0  0
  192.1190  174.9650  147.3100 C   0  0  0  0  0  2  0  0  0  0  0  0
  193.1690  174.8990  146.2020 C   0  0  0  0  0  2  0  0  0  0  0  0
  194.4360  175.6840  146.5350 C   0  0  0  0  0  2  0  0  0  0  0  0
  194.8690  177.7030  145.3500 O   0  0  0  0  0  0  0  0  0  0  0  0
  194.9370  176.4460  145.3550 C   0  0  0  0  0  0  0  0  0  0  0  0
  195.5030  175.7290  144.2530 N   0  0  0  0  0  2  0  0  0  0  0  0
  196.0400  176.3120  143.0610 C   0  0  0  0  0  0  0  0  0  0  0  0
  197.3220  176.9330  143.0540 N   0  0  0  0  0  1  0  0  0  0  0  0
  195.1670  176.2600  141.6850 S   0  0  0  0  0  0  0  0  0  0  0  0
  1  6  1  0  0  0  0
  2 13  2  0  0  0  0
  2  5  1  0  0  0  0
  3  2  1  0  0  0  0
  4  7  2  0  0  0  0
  5 16  2  0  0  0  0
  6 17  2  0  0  0  0
  7  3  1  0  0  0  0
  8 22  1  0  0  0  0
  8 12  2  0  0  0  0
  9  1  1  0  0  0  0
 10 18  2  0  0  0  0
 11 20  1  0  0  0  0
 11  4  1  0  0  0  0
 13  8  1  0  0  0  0
 14  5  1  0  0  0  0
 14  1  2  0  0  0  0
 15 11  2  0  0  0  0
 16 12  1  0  0  0  0
 16 17  1  0  0  0  0
 18 13  1  0  0  0  0
 19 10  1  0  0  0  0
 19  3  2  0  0  0  0
 20 19  1  0  0  0  0
 21 23  1  0  0  0  0
 22 21  2  0  0  0  0
 24 25  1  0  0  0  0
 24 23  1  0  0  0  0
 26 27  2  0  0  0  0
 27 25  1  0  0  0  0
 28 27  1  0  0  0  0
 29 28  1  0  0  0  0
 30 29  1  0  0  0  0
 31 29  2  0  0  0  0
M  END
>  <MODEL>
2

>  <REMARK>
 VINA RESULT:      -8.2      5.810      9.954
  Name = 
  6 active torsions:
  status: ('A' for Active; 'I' for Inactive)
    1  A    between atoms: C_1  and  N_24
    2  A    between atoms: C_3  and  C_19
    3  A    between atoms: C_3  and  C_22
    4  A    between atoms: C_7  and  C_9
    5  A    between atoms: C_7  and  C_22
    6  A    between atoms: C_15  and  C_23
                            x       y       z     vdW  Elec       q    Type
                         _______ _______ _______ _____ _____    ______ ____

>  <TORSDO>
F 6

$$$$
=
 OpenBabel11052417483D

 31 34  0  0  0  0  0  0  0  0999 V2000
  190.1860  173.8610  141.0790 C   0  0  0  0  0  0  0  0  0  0  0  0
  190.6830  175.5410  144.4140 C   0  0  0  0  0  0  0  0  0  0  0  0
  192.0490  175.3350  144.7900 C   0  0  0  0  0  0  0  0  0  0  0  0
  194.2700  174.3830  144.2800 C   0  0  0  0  0  3  0  0  0  0  0  0
  190.0910  175.0570  143.2080 C   0  0  0  0  0  0  0  0  0  0  0  0
  188.8390  174.1390  140.8480 C   0  0  0  0  0  3  0  0  0  0  0  0
  192.9990  174.5820  143.9410 C   0  0  0  0  0  3  0  0  0  0  0  0
  188.5110  176.5160  145.0000 C   0  0  0  0  0  0  0  0  0  0  0  0
  190.8960  173.1490  140.1730 F   0  0  0  0  0  0  0  0  0  0  0  0
  191.6600  176.5750  146.8340 C   0  0  0  0  0  3  0  0  0  0  0  0
  194.8060  174.9120  145.5370 C   0  0  0  0  0  0  0  0  0  0  0  0
  187.9880  176.0390  143.8430 N   0  0  0  0  0  0  0  0  0  0  0  0
  189.8600  176.2800  145.3090 C   0  0  0  0  0  0  0  0  0  0  0  0
  190.8010  174.3160  142.2480 C   0  0  0  0  0  3  0  0  0  0  0  0
  196.0130  174.7070  145.8280 O   0  0  0  0  0  0  0  0  0  0  0  0
  188.7220  175.3300  142.9550 C   0  0  0  0  0  0  0  0  0  0  0  0
  188.1100  174.8710  141.7840 C   0  0  0  0  0  3  0  0  0  0  0  0
  190.3710  176.7650  146.4730 N   0  0  0  0  0  0  0  0  0  0  0  0
  192.5230  175.8630  146.0130 C   0  0  0  0  0  0  0  0  0  0  0  0
  193.9440  175.6930  146.4820 C   0  0  0  0  0  2  0  0  0  0  0  0
  186.5720  176.7730  146.4900 C   0  0  0  0  0  3  0  0  0  0  0  0
  187.6620  177.2810  145.9280 C   0  0  0  0  0  3  0  0  0  0  0  0
  185.7520  177.6020  147.4210 C   0  0  0  0  0  2  0  0  0  0  0  0
  185.2650  178.8910  146.7610 C   0  0  0  0  0  2  0  0  0  0  0  0
  184.1700  178.6520  145.7240 C   0  0  0  0  0  2  0  0  0  0  0  0
  185.1180  180.1260  144.1100 O   0  0  0  0  0  0  0  0  0  0  0  0
  184.6350  178.9870  144.3470 C   0  0  0  0  0  0  0  0  0  0  0  0
  184.5380  177.9950  143.3190 N   0  0  0  0  0  2  0  0  0  0  0  0
  184.9540  178.1540  141.9590 C   0  0  0  0  0  0  0  0  0  0  0  0
  186.3330  178.1540  141.6010 N   0  0  0  0  0  1  0  0  0  0  0  0
  183.8240  178.3350  140.7960 S   0  0  0  0  0  0  0  0  0  0  0  0
  1 14  1  0  0  0  0
  2  3  2  0  0  0  0
  2 13  1  0  0  0  0
  3 19  1  0  0  0  0
  4 11  1  0  0  0  0
  5  2  1  0  0  0  0
  6  1  2  0  0  0  0
  6 17  1  0  0  0  0
  7  4  2  0  0  0  0
  7  3  1  0  0  0  0
  8 13  1  0  0  0  0
  8 22  1  0  0  0  0
  9  1  1  0  0  0  0
 11 15  2  0  0  0  0
 11 20  1  0  0  0  0
 12  8  2  0  0  0  0
 13 18  2  0  0  0  0
 14  5  2  0  0  0  0
 16  5  1  0  0  0  0
 16 12  1  0  0  0  0
 17 16  2  0  0  0  0
 18 10  1  0  0  0  0
 19 20  1  0  0  0  0
 19 10  2  0  0  0  0
 21 23  1  0  0  0  0
 22 21  2  0  0  0  0
 24 23  1  0  0  0  0
 25 24  1  0  0  0  0
 26 27  2  0  0  0  0
 27 25  1  0  0  0  0
 28 27  1  0  0  0  0
 29 28  1  0  0  0  0
 30 29  1  0  0  0  0
 31 29  2  0  0  0  0
M  END
>  <MODEL>
3

>  <REMARK>
 VINA RESULT:      -8.2      4.383      6.667
  Name = 
  6 active torsions:
  status: ('A' for Active; 'I' for Inactive)
    1  A    between atoms: C_1  and  N_24
    2  A    between atoms: C_3  and  C_19
    3  A    between atoms: C_3  and  C_22
    4  A    between atoms: C_7  and  C_9
    5  A    between atoms: C_7  and  C_22
    6  A    between atoms: C_15  and  C_23
                            x       y       z     vdW  Elec       q    Type
                         _______ _______ _______ _____ _____    ______ ____

>  <TORSDO>
F 6

$$$$
=
 OpenBabel11052417483D

 31 34  0  0  0  0  0  0  0  0999 V2000
  193.4150  174.5070  145.1280 C   0  0  0  0  0  0  0  0  0  0  0  0
  189.9970  175.2070  143.7070 C   0  0  0  0  0  0  0  0  0  0  0  0
  189.9540  174.6150  142.4040 C   0  0  0  0  0  0  0  0  0  0  0  0
  191.0750  173.3320  140.6170 C   0  0  0  0  0  3  0  0  0  0  0  0
  191.1260  175.1650  144.5800 C   0  0  0  0  0  0  0  0  0  0  0  0
  193.3110  175.1310  146.3700 C   0  0  0  0  0  3  0  0  0  0  0  0
  191.1050  173.8850  141.8270 C   0  0  0  0  0  3  0  0  0  0  0  0
  188.8090  176.4890  145.4270 C   0  0  0  0  0  0  0  0  0  0  0  0
  194.5650  173.8840  144.7760 F   0  0  0  0  0  0  0  0  0  0  0  0
  187.6770  175.4000  142.1390 C   0  0  0  0  0  3  0  0  0  0  0  0
  189.8780  173.4170  139.7780 C   0  0  0  0  0  0  0  0  0  0  0  0
  189.9040  176.4260  146.2260 N   0  0  0  0  0  0  0  0  0  0  0  0
  188.8310  175.8850  144.1600 C   0  0  0  0  0  0  0  0  0  0  0  0
  192.3330  174.5260  144.2450 C   0  0  0  0  0  3  0  0  0  0  0  0
  189.8830  172.8830  138.6390 O   0  0  0  0  0  0  0  0  0  0  0  0
  191.0400  175.7950  145.8490 C   0  0  0  0  0  0  0  0  0  0  0  0
  192.1260  175.7730  146.7280 C   0  0  0  0  0  3  0  0  0  0  0  0
  187.7260  175.9560  143.3690 N   0  0  0  0  0  0  0  0  0  0  0  0
  188.7760  174.7220  141.6280 C   0  0  0  0  0  0  0  0  0  0  0  0
  188.6460  174.1280  140.2510 C   0  0  0  0  0  2  0  0  0  0  0  0
  186.7490  176.6550  146.7600 C   0  0  0  0  0  3  0  0  0  0  0  0
  187.6020  177.1890  145.8930 C   0  0  0  0  0  3  0  0  0  0  0  0
  185.5420  177.4180  147.1910 C   0  0  0  0  0  2  0  0  0  0  0  0
  185.4550  178.7840  146.5130 C   0  0  0  0  0  2  0  0  0  0  0  0
  184.2340  178.9230  145.6070 C   0  0  0  0  0  2  0  0  0  0  0  0
  185.3780  180.0880  143.8730 O   0  0  0  0  0  0  0  0  0  0  0  0
  184.6270  179.1260  144.1820 C   0  0  0  0  0  0  0  0  0  0  0  0
  184.1510  178.2090  143.1920 N   0  0  0  0  0  2  0  0  0  0  0  0
  184.4500  178.2570  141.7930 C   0  0  0  0  0  0  0  0  0  0  0  0
  185.7950  178.2920  141.3240 N   0  0  0  0  0  1  0  0  0  0  0  0
  183.2260  178.2680  140.7150 S   0  0  0  0  0  0  0  0  0  0  0  0
  1  6  1  0  0  0  0
  2 13  2  0  0  0  0
  2  5  1  0  0  0  0
  3  2  1  0  0  0  0
  4  7  2  0  0  0  0
  5 16  2  0  0  0  0
  6 17  2  0  0  0  0
  7  3  1  0  0  0  0
  8 22  1  0  0  0  0
  8 12  2  0  0  0  0
  9  1  1  0  0  0  0
 10 18  2  0  0  0  0
 11 20  1  0  0  0  0
 11  4  1  0  0  0  0
 13  8  1  0  0  0  0
 14  5  1  0  0  0  0
 14  1  2  0  0  0  0
 15 11  2  0  0  0  0
 16 12  1  0  0  0  0
 16 17  1  0  0  0  0
 18 13  1  0  0  0  0
 19 10  1  0  0  0  0
 19  3  2  0  0  0  0
 20 19  1  0  0  0  0
 21 23  1  0  0  0  0
 22 21  2  0  0  0  0
 24 23  1  0  0  0  0
 25 24  1  0  0  0  0
 26 27  2  0  0  0  0
 27 25  1  0  0  0  0
 28 27  1  0  0  0  0
 29 28  1  0  0  0  0
 30 29  1  0  0  0  0
 31 29  2  0  0  0  0
M  END
>  <MODEL>
4

>  <REMARK>
 VINA RESULT:      -8.0      4.243      6.531
  Name = 
  6 active torsions:
  status: ('A' for Active; 'I' for Inactive)
    1  A    between atoms: C_1  and  N_24
    2  A    between atoms: C_3  and  C_19
    3  A    between atoms: C_3  and  C_22
    4  A    between atoms: C_7  and  C_9
    5  A    between atoms: C_7  and  C_22
    6  A    between atoms: C_15  and  C_23
                            x       y       z     vdW  Elec       q    Type
                         _______ _______ _______ _____ _____    ______ ____

>  <TORSDO>
F 6

$$$$
=
 OpenBabel11052417483D

 31 34  0  0  0  0  0  0  0  0999 V2000
  184.3650  178.4670  146.0540 C   0  0  0  0  0  0  0  0  0  0  0  0
  187.2540  176.8360  144.2690 C   0  0  0  0  0  0  0  0  0  0  0  0
  186.9950  176.9430  142.8650 C   0  0  0  0  0  0  0  0  0  0  0  0
  185.5300  177.7020  141.0290 C   0  0  0  0  0  3  0  0  0  0  0  0
  186.3920  177.3340  145.2940 C   0  0  0  0  0  0  0  0  0  0  0  0
  184.7480  178.2880  147.3830 C   0  0  0  0  0  3  0  0  0  0  0  0
  185.7800  177.5970  142.3310 C   0  0  0  0  0  3  0  0  0  0  0  0
  188.7660  176.0450  146.0310 C   0  0  0  0  0  0  0  0  0  0  0  0
  183.2030  179.0980  145.7630 F   0  0  0  0  0  0  0  0  0  0  0  0
  189.0760  175.7890  142.4090 C   0  0  0  0  0  3  0  0  0  0  0  0
  186.4640  177.1650  140.0360 C   0  0  0  0  0  0  0  0  0  0  0  0
  187.9200  176.5330  146.9720 N   0  0  0  0  0  0  0  0  0  0  0  0
  188.4550  176.1850  144.6690 C   0  0  0  0  0  0  0  0  0  0  0  0
  185.1800  177.9930  145.0240 C   0  0  0  0  0  3  0  0  0  0  0  0
  186.1980  177.2810  138.8120 O   0  0  0  0  0  0  0  0  0  0  0  0
  186.7640  177.1610  146.6520 C   0  0  0  0  0  0  0  0  0  0  0  0
  185.9440  177.6360  147.6800 C   0  0  0  0  0  3  0  0  0  0  0  0
  189.3120  175.6910  143.7360 N   0  0  0  0  0  0  0  0  0  0  0  0
  187.9250  176.4100  141.9430 C   0  0  0  0  0  0  0  0  0  0  0  0
  187.7320  176.4810  140.4520 C   0  0  0  0  0  2  0  0  0  0  0  0
  191.0750  176.0330  146.8770 C   0  0  0  0  0  3  0  0  0  0  0  0
  190.0080  175.3720  146.4410 C   0  0  0  0  0  3  0  0  0  0  0  0
  192.3050  175.2900  147.2760 C   0  0  0  0  0  2  0  0  0  0  0  0
  193.5380  175.7730  146.5130 C   0  0  0  0  0  2  0  0  0  0  0  0
  194.1040  174.7160  145.5680 C   0  0  0  0  0  2  0  0  0  0  0  0
  192.7140  175.0460  143.6620 O   0  0  0  0  0  0  0  0  0  0  0  0
  193.0860  174.2630  144.5760 C   0  0  0  0  0  0  0  0  0  0  0  0
  192.5600  172.9360  144.6750 N   0  0  0  0  0  2  0  0  0  0  0  0
  191.5950  172.3490  143.7960 C   0  0  0  0  0  0  0  0  0  0  0  0
  191.9710  171.8320  142.5230 N   0  0  0  0  0  1  0  0  0  0  0  0
  190.0350  172.2670  144.2650 S   0  0  0  0  0  0  0  0  0  0  0  0
  1  6  1  0  0  0  0
  2 13  2  0  0  0  0
  2  5  1  0  0  0  0
  3  2  1  0  0  0  0
  4  7  2  0  0  0  0
  5 16  2  0  0  0  0
  6 17  2  0  0  0  0
  7  3  1  0  0  0  0
  8 22  1  0  0  0  0
  8 12  2  0  0  0  0
  9  1  1  0  0  0  0
 10 18  2  0  0  0  0
 11 20  1  0  0  0  0
 11  4  1  0  0  0  0
 13  8  1  0  0  0  0
 14  5  1  0  0  0  0
 14  1  2  0  0  0  0
 15 11  2  0  0  0  0
 16 12  1  0  0  0  0
 16 17  1  0  0  0  0
 18 13  1  0  0  0  0
 19 10  1  0  0  0  0
 19  3  2  0  0  0  0
 20 19  1  0  0  0  0
 21 23  1  0  0  0  0
 22 21  2  0  0  0  0
 24 23  1  0  0  0  0
 25 24  1  0  0  0  0
 26 27  2  0  0  0  0
 27 28  1  0  0  0  0
 27 25  1  0  0  0  0
 29 31  2  0  0  0  0
 29 28  1  0  0  0  0
 30 29  1  0  0  0  0
M  END
>  <MODEL>
5

>  <REMARK>
 VINA RESULT:      -7.9      5.637      9.399
  Name = 
  6 active torsions:
  status: ('A' for Active; 'I' for Inactive)
    1  A    between atoms: C_1  and  N_24
    2  A    between atoms: C_3  and  C_19
    3  A    between atoms: C_3  and  C_22
    4  A    between atoms: C_7  and  C_9
    5  A    between atoms: C_7  and  C_22
    6  A    between atoms: C_15  and  C_23
                            x       y       z     vdW  Elec       q    Type
                         _______ _______ _______ _____ _____    ______ ____

>  <TORSDO>
F 6

$$$$
=
 OpenBabel11052417483D

 31 34  0  0  0  0  0  0  0  0999 V2000
  185.3100  178.2750  147.0140 C   0  0  0  0  0  0  0  0  0  0  0  0
  186.5320  177.8340  143.4770 C   0  0  0  0  0  0  0  0  0  0  0  0
  185.3960  177.9810  142.6180 C   0  0  0  0  0  0  0  0  0  0  0  0
  182.9770  178.3930  142.3510 C   0  0  0  0  0  3  0  0  0  0  0  0
  186.4910  177.9310  144.9020 C   0  0  0  0  0  0  0  0  0  0  0  0
  186.5000  178.1080  147.7210 C   0  0  0  0  0  3  0  0  0  0  0  0
  184.0390  178.2560  143.1400 C   0  0  0  0  0  3  0  0  0  0  0  0
  188.9420  177.4140  143.6520 C   0  0  0  0  0  0  0  0  0  0  0  0
  184.1560  178.5220  147.6770 F   0  0  0  0  0  0  0  0  0  0  0  0
  186.8210  177.6060  140.6950 C   0  0  0  0  0  3  0  0  0  0  0  0
  183.0990  178.2800  140.8960 C   0  0  0  0  0  0  0  0  0  0  0  0
  188.8590  177.5150  145.0030 N   0  0  0  0  0  0  0  0  0  0  0  0
  187.7900  177.5710  142.8660 C   0  0  0  0  0  0  0  0  0  0  0  0
  185.3090  178.1870  145.6200 C   0  0  0  0  0  3  0  0  0  0  0  0
  182.0750  178.4160  140.1770 O   0  0  0  0  0  0  0  0  0  0  0  0
  187.6910  177.7630  145.6400 C   0  0  0  0  0  0  0  0  0  0  0  0
  187.6860  177.8520  147.0350 C   0  0  0  0  0  3  0  0  0  0  0  0
  187.8880  177.4680  141.5130 N   0  0  0  0  0  0  0  0  0  0  0  0
  185.5610  177.8640  141.2190 C   0  0  0  0  0  0  0  0  0  0  0  0
  184.4220  178.0060  140.2450 C   0  0  0  0  0  2  0  0  0  0  0  0
  191.2710  176.6270  143.6770 C   0  0  0  0  0  3  0  0  0  0  0  0
  190.2410  177.1430  143.0170 C   0  0  0  0  0  3  0  0  0  0  0  0
  192.5630  176.3770  142.9740 C   0  0  0  0  0  2  0  0  0  0  0  0
  192.4510  175.2450  141.9540 C   0  0  0  0  0  2  0  0  0  0  0  0
  192.2640  173.8760  142.6040 C   0  0  0  0  0  2  0  0  0  0  0  0
  191.0750  171.8970  142.0150 O   0  0  0  0  0  0  0  0  0  0  0  0
  191.0850  173.1570  142.0400 C   0  0  0  0  0  0  0  0  0  0  0  0
  189.9760  173.9170  141.5490 N   0  0  0  0  0  2  0  0  0  0  0  0
  188.7700  173.3780  140.9960 C   0  0  0  0  0  0  0  0  0  0  0  0
  187.7160  172.9100  141.8330 N   0  0  0  0  0  1  0  0  0  0  0  0
  188.6000  173.3040  139.3750 S   0  0  0  0  0  0  0  0  0  0  0  0
  1  9  1  0  0  0  0
  1  6  1  0  0  0  0
  2  5  1  0  0  0  0
  3  7  1  0  0  0  0
  3  2  1  0  0  0  0
  4  7  2  0  0  0  0
  5 14  1  0  0  0  0
  5 16  2  0  0  0  0
  8 12  2  0  0  0  0
 10 19  1  0  0  0  0
 10 18  2  0  0  0  0
 11  4  1  0  0  0  0
 12 16  1  0  0  0  0
 13  2  2  0  0  0  0
 13  8  1  0  0  0  0
 14  1  2  0  0  0  0
 15 11  2  0  0  0  0
 16 17  1  0  0  0  0
 17  6  2  0  0  0  0
 18 13  1  0  0  0  0
 19  3  2  0  0  0  0
 20 11  1  0  0  0  0
 20 19  1  0  0  0  0
 22  8  1  0  0  0  0
 22 21  2  0  0  0  0
 23 21  1  0  0  0  0
 24 25  1  0  0  0  0
 24 23  1  0  0  0  0
 26 27  2  0  0  0  0
 27 25  1  0  0  0  0
 28 27  1  0  0  0  0
 29 28  1  0  0  0  0
 29 30  1  0  0  0  0
 31 29  2  0  0  0  0
M  END
>  <MODEL>
6

>  <REMARK>
 VINA RESULT:      -7.9      4.268      8.409
  Name = 
  6 active torsions:
  status: ('A' for Active; 'I' for Inactive)
    1  A    between atoms: C_1  and  N_24
    2  A    between atoms: C_3  and  C_19
    3  A    between atoms: C_3  and  C_22
    4  A    between atoms: C_7  and  C_9
    5  A    between atoms: C_7  and  C_22
    6  A    between atoms: C_15  and  C_23
                            x       y       z     vdW  Elec       q    Type
                         _______ _______ _______ _____ _____    ______ ____

>  <TORSDO>
F 6

$$$$
=
 OpenBabel11052417483D

 31 34  0  0  0  0  0  0  0  0999 V2000
  185.3310  178.2790  147.2250 C   0  0  0  0  0  0  0  0  0  0  0  0
  186.8670  177.9170  143.8040 C   0  0  0  0  0  0  0  0  0  0  0  0
  185.8050  178.0350  142.8520 C   0  0  0  0  0  0  0  0  0  0  0  0
  183.4040  178.3680  142.3800 C   0  0  0  0  0  3  0  0  0  0  0  0
  186.7000  177.9980  145.2200 C   0  0  0  0  0  0  0  0  0  0  0  0
  186.4610  178.1440  148.0310 C   0  0  0  0  0  3  0  0  0  0  0  0
  184.3990  178.2580  143.2560 C   0  0  0  0  0  3  0  0  0  0  0  0
  189.2660  177.5770  144.1830 C   0  0  0  0  0  0  0  0  0  0  0  0
  184.1160  178.4800  147.7890 F   0  0  0  0  0  0  0  0  0  0  0  0
  187.4010  177.7300  141.0550 C   0  0  0  0  0  3  0  0  0  0  0  0
  183.6550  178.2750  140.9400 C   0  0  0  0  0  0  0  0  0  0  0  0
  189.0630  177.6600  145.5220 N   0  0  0  0  0  0  0  0  0  0  0  0
  188.1810  177.7030  143.3010 C   0  0  0  0  0  0  0  0  0  0  0  0
  185.4530  178.2050  145.8360 C   0  0  0  0  0  3  0  0  0  0  0  0
  182.6920  178.3840  140.1370 O   0  0  0  0  0  0  0  0  0  0  0  0
  187.8370  177.8620  146.0580 C   0  0  0  0  0  0  0  0  0  0  0  0
  187.7100  177.9360  147.4480 C   0  0  0  0  0  3  0  0  0  0  0  0
  188.3980  177.6180  141.9610 N   0  0  0  0  0  0  0  0  0  0  0  0
  186.0930  177.9380  141.4700 C   0  0  0  0  0  0  0  0  0  0  0  0
  185.0370  178.0520  140.4040 C   0  0  0  0  0  2  0  0  0  0  0  0
  191.5960  176.8180  144.3860 C   0  0  0  0  0  3  0  0  0  0  0  0
  190.6230  177.3570  143.6590 C   0  0  0  0  0  3  0  0  0  0  0  0
  192.9520  176.6230  143.7960 C   0  0  0  0  0  2  0  0  0  0  0  0
  194.0370  176.5440  144.8690 C   0  0  0  0  0  2  0  0  0  0  0  0
  193.8470  175.3670  145.8220 C   0  0  0  0  0  2  0  0  0  0  0  0
  194.0660  173.3090  144.6430 O   0  0  0  0  0  0  0  0  0  0  0  0
  194.6180  174.1700  145.3780 C   0  0  0  0  0  0  0  0  0  0  0  0
  195.9830  174.0310  145.7850 N   0  0  0  0  0  2  0  0  0  0  0  0
  196.8580  172.9550  145.4310 C   0  0  0  0  0  0  0  0  0  0  0  0
  196.8160  171.7090  146.1200 N   0  0  0  0  0  1  0  0  0  0  0  0
  197.9210  173.1600  144.2110 S   0  0  0  0  0  0  0  0  0  0  0  0
  1  9  1  0  0  0  0
  1  6  1  0  0  0  0
  2  5  1  0  0  0  0
  3  7  1  0  0  0  0
  3  2  1  0  0  0  0
  4  7  2  0  0  0  0
  5 14  1  0  0  0  0
  5 16  2  0  0  0  0
  8 12  2  0  0  0  0
 10 19  1  0  0  0  0
 10 18  2  0  0  0  0
 11  4  1  0  0  0  0
 12 16  1  0  0  0  0
 13  2  2  0  0  0  0
 13  8  1  0  0  0  0
 14  1  2  0  0  0  0
 15 11  2  0  0  0  0
 16 17  1  0  0  0  0
 17  6  2  0  0  0  0
 18 13  1  0  0  0  0
 19  3  2  0  0  0  0
 20 11  1  0  0  0  0
 20 19  1  0  0  0  0
 22  8  1  0  0  0  0
 22 21  2  0  0  0  0
 23 21  1  0  0  0  0
 23 24  1  0  0  0  0
 24 25  1  0  0  0  0
 26 27  2  0  0  0  0
 27 28  1  0  0  0  0
 27 25  1  0  0  0  0
 29 28  1  0  0  0  0
 29 30  1  0  0  0  0
 31 29  2  0  0  0  0
M  END
>  <MODEL>
7

>  <REMARK>
 VINA RESULT:      -7.9      5.588     10.707
  Name = 
  6 active torsions:
  status: ('A' for Active; 'I' for Inactive)
    1  A    between atoms: C_1  and  N_24
    2  A    between atoms: C_3  and  C_19
    3  A    between atoms: C_3  and  C_22
    4  A    between atoms: C_7  and  C_9
    5  A    between atoms: C_7  and  C_22
    6  A    between atoms: C_15  and  C_23
                            x       y       z     vdW  Elec       q    Type
                         _______ _______ _______ _____ _____    ______ ____

>  <TORSDO>
F 6

$$$$
=
 OpenBabel11052417483D

 31 34  0  0  0  0  0  0  0  0999 V2000
  184.9420  178.5520  146.5360 C   0  0  0  0  0  0  0  0  0  0  0  0
  187.7330  177.7210  144.1470 C   0  0  0  0  0  0  0  0  0  0  0  0
  188.8770  177.3830  144.9380 C   0  0  0  0  0  0  0  0  0  0  0  0
  189.9060  177.0820  147.1620 C   0  0  0  0  0  3  0  0  0  0  0  0
  186.4620  178.0990  144.6780 C   0  0  0  0  0  0  0  0  0  0  0  0
  183.9170  178.8550  145.6410 C   0  0  0  0  0  3  0  0  0  0  0  0
  188.8490  177.3930  146.4180 C   0  0  0  0  0  3  0  0  0  0  0  0
  186.7920  177.9990  141.9000 C   0  0  0  0  0  0  0  0  0  0  0  0
  184.7180  178.6200  147.8700 F   0  0  0  0  0  0  0  0  0  0  0  0
  190.1490  177.0030  142.9110 C   0  0  0  0  0  3  0  0  0  0  0  0
  191.1790  176.7030  146.5430 C   0  0  0  0  0  0  0  0  0  0  0  0
  185.6020  178.3530  142.4450 N   0  0  0  0  0  0  0  0  0  0  0  0
  187.8760  177.6780  142.7320 C   0  0  0  0  0  0  0  0  0  0  0  0
  186.1990  178.1790  146.0560 C   0  0  0  0  0  3  0  0  0  0  0  0
  192.1600  176.4140  147.2760 O   0  0  0  0  0  0  0  0  0  0  0  0
  185.4070  178.4120  143.7830 C   0  0  0  0  0  0  0  0  0  0  0  0
  184.1500  178.7860  144.2680 C   0  0  0  0  0  3  0  0  0  0  0  0
  189.0640  177.3240  142.1710 N   0  0  0  0  0  0  0  0  0  0  0  0
  190.0860  177.0230  144.2980 C   0  0  0  0  0  0  0  0  0  0  0  0
  191.3340  176.6530  145.0530 C   0  0  0  0  0  2  0  0  0  0  0  0
  186.5070  176.9380  139.7000 C   0  0  0  0  0  3  0  0  0  0  0  0
  186.9430  177.9530  140.4360 C   0  0  0  0  0  3  0  0  0  0  0  0
  186.6930  176.9510  138.2200 C   0  0  0  0  0  2  0  0  0  0  0  0
  186.7060  175.5410  137.6310 C   0  0  0  0  0  2  0  0  0  0  0  0
  188.0990  174.9150  137.6180 C   0  0  0  0  0  2  0  0  0  0  0  0
  188.0470  172.7640  138.6410 O   0  0  0  0  0  0  0  0  0  0  0  0
  188.2980  173.9910  138.7720 C   0  0  0  0  0  0  0  0  0  0  0  0
  188.7870  174.5200  140.0090 N   0  0  0  0  0  2  0  0  0  0  0  0
  189.0460  173.7660  141.1980 C   0  0  0  0  0  0  0  0  0  0  0  0
  188.1900  173.8580  142.3340 N   0  0  0  0  0  1  0  0  0  0  0  0
  190.3430  172.7790  141.2510 S   0  0  0  0  0  0  0  0  0  0  0  0
  1  9  1  0  0  0  0
  2  5  1  0  0  0  0
  2  3  1  0  0  0  0
  3  7  1  0  0  0  0
  5 14  2  0  0  0  0
  6  1  2  0  0  0  0
  7  4  2  0  0  0  0
  8 12  2  0  0  0  0
  8 13  1  0  0  0  0
 10 19  1  0  0  0  0
 11  4  1  0  0  0  0
 11 15  2  0  0  0  0
 12 16  1  0  0  0  0
 13  2  2  0  0  0  0
 14  1  1  0  0  0  0
 16 17  2  0  0  0  0
 16  5  1  0  0  0  0
 17  6  1  0  0  0  0
 18 13  1  0  0  0  0
 18 10  2  0  0  0  0
 19  3  2  0  0  0  0
 19 20  1  0  0  0  0
 20 11  1  0  0  0  0
 21 22  2  0  0  0  0
 22  8  1  0  0  0  0
 23 21  1  0  0  0  0
 24 23  1  0  0  0  0
 25 24  1  0  0  0  0
 25 27  1  0  0  0  0
 26 27  2  0  0  0  0
 27 28  1  0  0  0  0
 28 29  1  0  0  0  0
 29 31  2  0  0  0  0
 29 30  1  0  0  0  0
M  END
>  <MODEL>
8

>  <REMARK>
 VINA RESULT:      -7.8      5.023      6.548
  Name = 
  6 active torsions:
  status: ('A' for Active; 'I' for Inactive)
    1  A    between atoms: C_1  and  N_24
    2  A    between atoms: C_3  and  C_19
    3  A    between atoms: C_3  and  C_22
    4  A    between atoms: C_7  and  C_9
    5  A    between atoms: C_7  and  C_22
    6  A    between atoms: C_15  and  C_23
                            x       y       z     vdW  Elec       q    Type
                         _______ _______ _______ _____ _____    ______ ____

>  <TORSDO>
F 6

$$$$
=
 OpenBabel11052417483D

 31 34  0  0  0  0  0  0  0  0999 V2000
  185.2380  178.0950  140.5350 C   0  0  0  0  0  0  0  0  0  0  0  0
  187.1450  176.7180  143.4770 C   0  0  0  0  0  0  0  0  0  0  0  0
  186.5070  177.2110  144.6600 C   0  0  0  0  0  0  0  0  0  0  0  0
  184.7220  178.5580  145.7040 C   0  0  0  0  0  3  0  0  0  0  0  0
  186.7240  177.0130  142.1450 C   0  0  0  0  0  0  0  0  0  0  0  0
  185.9590  177.5430  139.4780 C   0  0  0  0  0  3  0  0  0  0  0  0
  185.3210  178.0940  144.6110 C   0  0  0  0  0  3  0  0  0  0  0  0
  188.9520  175.3610  142.5240 C   0  0  0  0  0  0  0  0  0  0  0  0
  184.1690  178.8880  140.2850 F   0  0  0  0  0  0  0  0  0  0  0  0
  188.1290  176.0220  146.0120 C   0  0  0  0  0  3  0  0  0  0  0  0
  185.2140  178.2110  147.0390 C   0  0  0  0  0  0  0  0  0  0  0  0
  188.5180  175.6650  141.2750 N   0  0  0  0  0  0  0  0  0  0  0  0
  188.2800  175.8760  143.6440 C   0  0  0  0  0  0  0  0  0  0  0  0
  185.6190  177.8310  141.8520 C   0  0  0  0  0  3  0  0  0  0  0  0
  184.6230  178.6670  148.0530 O   0  0  0  0  0  0  0  0  0  0  0  0
  187.4460  176.4600  141.0550 C   0  0  0  0  0  0  0  0  0  0  0  0
  187.0610  176.7280  139.7380 C   0  0  0  0  0  3  0  0  0  0  0  0
  188.7260  175.5620  144.8910 N   0  0  0  0  0  0  0  0  0  0  0  0
  187.0170  176.8500  145.9290 C   0  0  0  0  0  0  0  0  0  0  0  0
  186.4070  177.3220  147.2210 C   0  0  0  0  0  2  0  0  0  0  0  0
  190.0800  173.1750  142.5150 C   0  0  0  0  0  3  0  0  0  0  0  0
  190.1250  174.4900  142.7000 C   0  0  0  0  0  3  0  0  0  0  0  0
  191.3050  172.3480  142.7120 C   0  0  0  0  0  2  0  0  0  0  0  0
  191.6190  172.1320  144.1920 C   0  0  0  0  0  2  0  0  0  0  0  0
  193.0870  172.3790  144.5320 C   0  0  0  0  0  2  0  0  0  0  0  0
  194.2790  174.2330  143.6300 O   0  0  0  0  0  0  0  0  0  0  0  0
  193.4290  173.8290  144.4670 C   0  0  0  0  0  0  0  0  0  0  0  0
  192.7700  174.7390  145.3530 N   0  0  0  0  0  2  0  0  0  0  0  0
  192.9740  176.1550  145.4040 C   0  0  0  0  0  0  0  0  0  0  0  0
  192.2280  177.0410  144.5740 N   0  0  0  0  0  1  0  0  0  0  0  0
  194.0810  176.7650  146.4360 S   0  0  0  0  0  0  0  0  0  0  0  0
  1 14  1  0  0  0  0
  2 13  2  0  0  0  0
  2  3  1  0  0  0  0
  3 19  2  0  0  0  0
  4 11  1  0  0  0  0
  5  2  1  0  0  0  0
  6 17  1  0  0  0  0
  6  1  2  0  0  0  0
  7  3  1  0  0  0  0
  7  4  2  0  0  0  0
  8 22  1  0  0  0  0
  8 13  1  0  0  0  0
  9  1  1  0  0  0  0
 11 20  1  0  0  0  0
 11 15  2  0  0  0  0
 12  8  2  0  0  0  0
 13 18  1  0  0  0  0
 14  5  2  0  0  0  0
 16 12  1  0  0  0  0
 16  5  1  0  0  0  0
 17 16  2  0  0  0  0
 18 10  2  0  0  0  0
 19 10  1  0  0  0  0
 19 20  1  0  0  0  0
 21 22  2  0  0  0  0
 21 23  1  0  0  0  0
 23 24  1  0  0  0  0
 24 25  1  0  0  0  0
 26 27  2  0  0  0  0
 27 25  1  0  0  0  0
 27 28  1  0  0  0  0
 28 29  1  0  0  0  0
 29 31  2  0  0  0  0
 30 29  1  0  0  0  0
M  END
>  <MODEL>
9

>  <REMARK>
 VINA RESULT:      -7.5      5.864      9.882
  Name = 
  6 active torsions:
  status: ('A' for Active; 'I' for Inactive)
    1  A    between atoms: C_1  and  N_24
    2  A    between atoms: C_3  and  C_19
    3  A    between atoms: C_3  and  C_22
    4  A    between atoms: C_7  and  C_9
    5  A    between atoms: C_7  and  C_22
    6  A    between atoms: C_15  and  C_23
                            x       y       z     vdW  Elec       q    Type
                         _______ _______ _______ _____ _____    ______ ____

>  <TORSDO>
F 6

$$$$
