=
 OpenBabel11052420033D

 37 39  0  0  1  0  0  0  0  0999 V2000
  190.3590  174.9900  142.3880 C   0  0  0  0  0  2  0  0  0  0  0  0
  187.2970  177.6690  140.7980 C   0  0  0  0  0  2  0  0  0  0  0  0
  190.1200  175.7450  143.7100 C   0  0  2  0  0  3  0  0  0  0  0  0
  188.1840  176.8040  141.6960 C   0  0  2  0  0  3  0  0  0  0  0  0
  188.1670  175.3630  141.2760 C   0  0  0  0  0  3  0  0  0  0  0  0
  187.8380  176.9710  143.1940 C   0  0  1  0  0  3  0  0  0  0  0  0
  185.5290  177.7420  142.5580 C   0  0  0  0  0  2  0  0  0  0  0  0
  189.1330  174.5150  141.6370 C   0  0  0  0  0  0  0  0  0  0  0  0
  186.3330  176.7900  143.4320 C   0  0  0  0  0  2  0  0  0  0  0  0
  188.6310  175.9870  144.0770 C   0  0  2  0  0  3  0  0  0  0  0  0
  185.8140  177.4500  141.0900 C   0  0  1  0  0  3  0  0  0  0  0  0
  185.0500  178.2970  140.2860 O   0  0  0  0  0  0  0  0  0  0  0  0
  183.7730  178.2660  140.8460 C   0  0  0  0  0  1  0  0  0  0  0  0
  189.9570  172.5330  140.4200 C   0  0  0  0  0  1  0  0  0  0  0  0
  189.0090  173.1770  141.2570 O   0  0  0  0  0  0  0  0  0  0  0  0
  191.1170  176.9170  143.8090 C   0  0  1  0  0  3  0  0  0  0  0  0
  191.5360  179.2670  143.7670 O   0  0  0  0  0  1  0  0  0  0  0  0
  190.5540  178.3140  144.0300 C   0  0  0  0  0  2  0  0  0  0  0  0
  192.2930  176.6020  144.7270 C   0  0  0  0  0  2  0  0  0  0  0  0
  193.5050  176.1020  143.9560 C   0  0  0  0  0  2  0  0  0  0  0  0
  193.1310  173.6800  144.4600 C   0  0  0  0  0  3  0  0  0  0  0  0
  193.9670  174.8010  144.5120 C   0  0  0  0  0  0  0  0  0  0  0  0
  195.2290  174.7040  145.1080 C   0  0  0  0  0  3  0  0  0  0  0  0
  196.9120  173.3890  146.2300 O   0  0  0  0  0  1  0  0  0  0  0  0
  194.8250  172.3640  145.5850 C   0  0  0  0  0  3  0  0  0  0  0  0
  195.6580  173.4860  145.6420 C   0  0  0  0  0  0  0  0  0  0  0  0
  193.5600  172.4610  144.9950 C   0  0  0  0  0  3  0  0  0  0  0  0
  188.2630  175.9760  145.5730 C   0  0  1  0  0  3  0  0  0  0  0  0
  189.2310  175.1750  146.3890 C   0  0  0  0  0  0  0  0  0  0  0  0
  189.3240  173.9660  146.2410 O   0  0  0  0  0  0  0  0  0  0  0  0
  191.3900  175.1330  147.5880 C   0  0  0  0  0  1  0  0  0  0  0  0
  190.0760  175.8700  147.4040 C   0  0  0  0  0  2  0  0  0  0  0  0
  188.0250  177.3510  146.1810 C   0  0  0  0  0  2  0  0  0  0  0  0
  186.9540  177.2770  147.2520 C   0  0  0  0  0  2  0  0  0  0  0  0
  185.6180  176.9850  146.6070 C   0  0  0  0  0  2  0  0  0  0  0  0
  184.0420  178.6790  145.8270 C   0  0  0  0  0  2  0  0  0  0  0  0
  184.6930  178.1270  146.8460 C   0  0  0  0  0  3  0  0  0  0  0  0
  1  3  1  0  0  0  0
  2 11  1  0  0  0  0
  3 16  1  6  0  0  0
  3 10  1  0  0  0  0
  4  2  1  6  0  0  0
  4  6  1  0  0  0  0
  5  8  2  0  0  0  0
  5  4  1  0  0  0  0
  6  9  1  6  0  0  0
  6 10  1  0  0  0  0
  7  9  1  0  0  0  0
  8  1  1  0  0  0  0
 10 28  1  1  0  0  0
 11 12  1  6  0  0  0
 11  7  1  0  0  0  0
 12 13  1  0  0  0  0
 14 15  1  0  0  0  0
 15  8  1  0  0  0  0
 16 18  1  1  0  0  0
 16 19  1  0  0  0  0
 17 18  1  0  0  0  0
 20 22  1  0  0  0  0
 20 19  1  0  0  0  0
 21 22  2  0  0  0  0
 21 27  1  0  0  0  0
 22 23  1  0  0  0  0
 23 26  2  0  0  0  0
 25 26  1  0  0  0  0
 26 24  1  0  0  0  0
 27 25  2  0  0  0  0
 28 33  1  1  0  0  0
 28 29  1  0  0  0  0
 29 32  1  0  0  0  0
 30 29  2  0  0  0  0
 32 31  1  0  0  0  0
 33 34  1  0  0  0  0
 35 37  1  0  0  0  0
 35 34  1  0  0  0  0
 36 37  2  0  0  0  0
M  END
>  <MODEL>
1

>  <REMARK>
 VINA RESULT:      -7.0      0.000      0.000
  Name = 
  14 active torsions:
  status: ('A' for Active; 'I' for Inactive)
    1  A    between atoms: C_1  and  C_23
    2  A    between atoms: C_1  and  C_36
    3  A    between atoms: O_3  and  C_32
    4  A    between atoms: C_6  and  C_31
    5  A    between atoms: C_10  and  C_14
    6  A    between atoms: C_14  and  C_27
    7  A    between atoms: C_14  and  C_37
    8  A    between atoms: C_17  and  C_26
    9  A    between atoms: C_17  and  C_33
   10  A    between atoms: C_24  and  O_28
   11  A    between atoms: C_26  and  C_34
   12  A    between atoms: C_29  and  C_36
   13  A    between atoms: C_31  and  C_37
   14  A    between atoms: C_33  and  C_36
                            x       y       z     vdW  Elec       q    Type
                         _______ _______ _______ _____ _____    ______ ____

>  <TORSDO>
F 14

$$$$
=
 OpenBabel11052420033D

 37 39  0  0  1  0  0  0  0  0999 V2000
  191.5690  176.4910  144.7110 C   0  0  0  0  0  2  0  0  0  0  0  0
  187.7200  178.1770  143.5180 C   0  0  0  0  0  2  0  0  0  0  0  0
  190.7470  175.2280  145.0310 C   0  0  2  0  0  3  0  0  0  0  0  0
  188.8880  177.2460  143.8490 C   0  0  2  0  0  3  0  0  0  0  0  0
  190.0950  177.5450  143.0080 C   0  0  0  0  0  3  0  0  0  0  0  0
  188.4870  175.7540  143.7700 C   0  0  1  0  0  3  0  0  0  0  0  0
  186.5950  176.3630  142.2260 C   0  0  0  0  0  2  0  0  0  0  0  0
  191.3190  177.1540  143.3720 C   0  0  0  0  0  0  0  0  0  0  0  0
  187.7910  175.4450  142.4370 C   0  0  0  0  0  2  0  0  0  0  0  0
  189.7020  174.8240  143.9550 C   0  0  2  0  0  3  0  0  0  0  0  0
  187.0650  177.8120  142.1880 C   0  0  1  0  0  3  0  0  0  0  0  0
  185.9750  178.6530  141.9570 O   0  0  0  0  0  0  0  0  0  0  0  0
  184.8540  177.8640  142.2150 C   0  0  0  0  0  1  0  0  0  0  0  0
  193.4130  176.4750  142.2570 C   0  0  0  0  0  1  0  0  0  0  0  0
  192.3790  177.4170  142.5030 O   0  0  0  0  0  0  0  0  0  0  0  0
  190.3220  175.2640  146.5120 C   0  0  1  0  0  3  0  0  0  0  0  0
  191.4400  176.3710  148.3090 O   0  0  0  0  0  1  0  0  0  0  0  0
  191.4170  175.1910  147.5680 C   0  0  0  0  0  2  0  0  0  0  0  0
  189.3010  176.3600  146.7970 C   0  0  0  0  0  2  0  0  0  0  0  0
  187.9300  175.7940  147.1300 C   0  0  0  0  0  2  0  0  0  0  0  0
  185.7910  176.6140  146.1230 C   0  0  0  0  0  3  0  0  0  0  0  0
  186.8860  176.8420  146.9640 C   0  0  0  0  0  0  0  0  0  0  0  0
  187.0110  178.0650  147.6320 C   0  0  0  0  0  3  0  0  0  0  0  0
  186.1610  180.2670  148.1330 O   0  0  0  0  0  1  0  0  0  0  0  0
  184.9420  178.8260  146.6300 C   0  0  0  0  0  3  0  0  0  0  0  0
  186.0390  179.0550  147.4670 C   0  0  0  0  0  0  0  0  0  0  0  0
  184.8190  177.6060  145.9570 C   0  0  0  0  0  3  0  0  0  0  0  0
  189.4370  173.3200  143.7600 C   0  0  1  0  0  3  0  0  0  0  0  0
  189.7160  172.8730  142.3570 C   0  0  0  0  0  0  0  0  0  0  0  0
  189.2120  171.8520  141.9130 O   0  0  0  0  0  0  0  0  0  0  0  0
  191.4240  172.7800  140.5750 C   0  0  0  0  0  1  0  0  0  0  0  0
  190.6350  173.6830  141.5050 C   0  0  0  0  0  2  0  0  0  0  0  0
  190.1140  172.4150  144.7780 C   0  0  0  0  0  2  0  0  0  0  0  0
  191.3250  171.7420  144.1640 C   0  0  0  0  0  2  0  0  0  0  0  0
  192.5840  172.3290  144.7610 C   0  0  0  0  0  2  0  0  0  0  0  0
  194.5350  172.4440  143.2980 C   0  0  0  0  0  2  0  0  0  0  0  0
  193.3840  172.9820  143.6890 C   0  0  0  0  0  3  0  0  0  0  0  0
  1  3  1  0  0  0  0
  2  4  1  0  0  0  0
  3 16  1  1  0  0  0
  4  5  1  6  0  0  0
  5  8  2  0  0  0  0
  6  9  1  6  0  0  0
  6  4  1  0  0  0  0
  6 10  1  0  0  0  0
  7  9  1  0  0  0  0
  8  1  1  0  0  0  0
 10 28  1  1  0  0  0
 10  3  1  0  0  0  0
 11 12  1  1  0  0  0
 11  7  1  0  0  0  0
 11  2  1  0  0  0  0
 12 13  1  0  0  0  0
 14 15  1  0  0  0  0
 15  8  1  0  0  0  0
 16 19  1  6  0  0  0
 16 18  1  0  0  0  0
 18 17  1  0  0  0  0
 19 20  1  0  0  0  0
 21 22  1  0  0  0  0
 22 20  1  0  0  0  0
 22 23  2  0  0  0  0
 25 26  2  0  0  0  0
 26 23  1  0  0  0  0
 26 24  1  0  0  0  0
 27 21  2  0  0  0  0
 27 25  1  0  0  0  0
 28 33  1  1  0  0  0
 29 28  1  0  0  0  0
 30 29  2  0  0  0  0
 31 32  1  0  0  0  0
 32 29  1  0  0  0  0
 34 35  1  0  0  0  0
 34 33  1  0  0  0  0
 36 37  2  0  0  0  0
 37 35  1  0  0  0  0
M  END
>  <MODEL>
2

>  <REMARK>
 VINA RESULT:      -6.8      1.956      6.542
  Name = 
  14 active torsions:
  status: ('A' for Active; 'I' for Inactive)
    1  A    between atoms: C_1  and  C_23
    2  A    between atoms: C_1  and  C_36
    3  A    between atoms: O_3  and  C_32
    4  A    between atoms: C_6  and  C_31
    5  A    between atoms: C_10  and  C_14
    6  A    between atoms: C_14  and  C_27
    7  A    between atoms: C_14  and  C_37
    8  A    between atoms: C_17  and  C_26
    9  A    between atoms: C_17  and  C_33
   10  A    between atoms: C_24  and  O_28
   11  A    between atoms: C_26  and  C_34
   12  A    between atoms: C_29  and  C_36
   13  A    between atoms: C_31  and  C_37
   14  A    between atoms: C_33  and  C_36
                            x       y       z     vdW  Elec       q    Type
                         _______ _______ _______ _____ _____    ______ ____

>  <TORSDO>
F 14

$$$$
=
 OpenBabel11052420033D

 37 39  0  0  1  0  0  0  0  0999 V2000
  190.3420  175.0830  142.1360 C   0  0  0  0  0  2  0  0  0  0  0  0
  187.1280  177.7670  140.8920 C   0  0  0  0  0  2  0  0  0  0  0  0
  190.1440  175.7310  143.5200 C   0  0  2  0  0  3  0  0  0  0  0  0
  188.0830  176.8690  141.6810 C   0  0  2  0  0  3  0  0  0  0  0  0
  188.0880  175.4630  141.1560 C   0  0  0  0  0  3  0  0  0  0  0  0
  187.8050  176.9150  143.2020 C   0  0  1  0  0  3  0  0  0  0  0  0
  185.4460  177.6530  142.7310 C   0  0  0  0  0  2  0  0  0  0  0  0
  189.0960  174.6230  141.4080 C   0  0  0  0  0  0  0  0  0  0  0  0
  186.3180  176.6670  143.4950 C   0  0  0  0  0  2  0  0  0  0  0  0
  188.6680  175.8960  143.9720 C   0  0  2  0  0  3  0  0  0  0  0  0
  185.6680  177.4780  141.2340 C   0  0  1  0  0  3  0  0  0  0  0  0
  184.8410  178.3560  140.5310 O   0  0  0  0  0  0  0  0  0  0  0  0
  183.5840  178.2100  141.1170 C   0  0  0  0  0  1  0  0  0  0  0  0
  190.0170  172.6990  140.1680 C   0  0  0  0  0  1  0  0  0  0  0  0
  188.9930  173.3130  140.9360 O   0  0  0  0  0  0  0  0  0  0  0  0
  191.1090  176.9250  143.6600 C   0  0  1  0  0  3  0  0  0  0  0  0
  191.5230  179.2670  143.8690 O   0  0  0  0  0  1  0  0  0  0  0  0
  190.5060  178.3170  143.7850 C   0  0  0  0  0  2  0  0  0  0  0  0
  192.2100  176.6650  144.6830 C   0  0  0  0  0  2  0  0  0  0  0  0
  193.0190  175.4200  144.3510 C   0  0  0  0  0  2  0  0  0  0  0  0
  195.3400  176.3390  144.1860 C   0  0  0  0  0  3  0  0  0  0  0  0
  194.2210  175.7850  143.5530 C   0  0  0  0  0  0  0  0  0  0  0  0
  194.2240  175.5970  142.1670 C   0  0  0  0  0  3  0  0  0  0  0  0
  195.3510  175.7610  140.0410 O   0  0  0  0  0  1  0  0  0  0  0  0
  196.4670  176.5000  142.0480 C   0  0  0  0  0  3  0  0  0  0  0  0
  195.3470  175.9520  141.4150 C   0  0  0  0  0  0  0  0  0  0  0  0
  196.4640  176.6950  143.4330 C   0  0  0  0  0  3  0  0  0  0  0  0
  188.3730  175.7640  145.4780 C   0  0  1  0  0  3  0  0  0  0  0  0
  189.2810  174.7780  146.1490 C   0  0  0  0  0  0  0  0  0  0  0  0
  189.6570  173.7740  145.5630 O   0  0  0  0  0  0  0  0  0  0  0  0
  191.2150  175.2270  147.6180 C   0  0  0  0  0  1  0  0  0  0  0  0
  189.7120  175.0270  147.5560 C   0  0  0  0  0  2  0  0  0  0  0  0
  188.3240  177.0820  146.2370 C   0  0  0  0  0  2  0  0  0  0  0  0
  187.0370  177.1870  147.0310 C   0  0  0  0  0  2  0  0  0  0  0  0
  186.3680  178.5100  146.7330 C   0  0  0  0  0  2  0  0  0  0  0  0
  184.0360  178.5750  146.0140 C   0  0  0  0  0  2  0  0  0  0  0  0
  184.9080  178.3980  147.0020 C   0  0  0  0  0  3  0  0  0  0  0  0
  1  3  1  0  0  0  0
  2 11  1  0  0  0  0
  3 16  1  6  0  0  0
  3 10  1  0  0  0  0
  4  2  1  6  0  0  0
  4  6  1  0  0  0  0
  5  8  2  0  0  0  0
  5  4  1  0  0  0  0
  6  9  1  6  0  0  0
  6 10  1  0  0  0  0
  7  9  1  0  0  0  0
  8  1  1  0  0  0  0
 10 28  1  1  0  0  0
 11 12  1  6  0  0  0
 11  7  1  0  0  0  0
 12 13  1  0  0  0  0
 14 15  1  0  0  0  0
 15  8  1  0  0  0  0
 16 18  1  1  0  0  0
 16 19  1  0  0  0  0
 18 17  1  0  0  0  0
 20 19  1  0  0  0  0
 22 21  1  0  0  0  0
 22 20  1  0  0  0  0
 23 22  2  0  0  0  0
 24 26  1  0  0  0  0
 25 27  1  0  0  0  0
 26 25  2  0  0  0  0
 26 23  1  0  0  0  0
 27 21  2  0  0  0  0
 28 29  1  0  0  0  0
 28 33  1  1  0  0  0
 29 32  1  0  0  0  0
 30 29  2  0  0  0  0
 32 31  1  0  0  0  0
 33 34  1  0  0  0  0
 35 37  1  0  0  0  0
 35 34  1  0  0  0  0
 36 37  2  0  0  0  0
M  END
>  <MODEL>
3

>  <REMARK>
 VINA RESULT:      -6.8      1.597      2.098
  Name = 
  14 active torsions:
  status: ('A' for Active; 'I' for Inactive)
    1  A    between atoms: C_1  and  C_23
    2  A    between atoms: C_1  and  C_36
    3  A    between atoms: O_3  and  C_32
    4  A    between atoms: C_6  and  C_31
    5  A    between atoms: C_10  and  C_14
    6  A    between atoms: C_14  and  C_27
    7  A    between atoms: C_14  and  C_37
    8  A    between atoms: C_17  and  C_26
    9  A    between atoms: C_17  and  C_33
   10  A    between atoms: C_24  and  O_28
   11  A    between atoms: C_26  and  C_34
   12  A    between atoms: C_29  and  C_36
   13  A    between atoms: C_31  and  C_37
   14  A    between atoms: C_33  and  C_36
                            x       y       z     vdW  Elec       q    Type
                         _______ _______ _______ _____ _____    ______ ____

>  <TORSDO>
F 14

$$$$
=
 OpenBabel11052420033D

 37 39  0  0  1  0  0  0  0  0999 V2000
  191.1950  175.0510  142.3800 C   0  0  0  0  0  2  0  0  0  0  0  0
  191.2950  175.4090  146.7320 C   0  0  0  0  0  2  0  0  0  0  0  0
  189.6750  175.2320  142.5510 C   0  0  2  0  0  3  0  0  0  0  0  0
  190.9280  175.4930  145.2490 C   0  0  2  0  0  3  0  0  0  0  0  0
  191.9970  176.1760  144.4470 C   0  0  0  0  0  3  0  0  0  0  0  0
  189.5400  176.1390  145.0270 C   0  0  1  0  0  3  0  0  0  0  0  0
  189.7340  177.2820  147.2600 C   0  0  0  0  0  2  0  0  0  0  0  0
  192.0900  176.0190  143.1240 C   0  0  0  0  0  0  0  0  0  0  0  0
  189.4300  177.4710  145.7810 C   0  0  0  0  0  2  0  0  0  0  0  0
  189.2440  176.3570  143.5300 C   0  0  2  0  0  3  0  0  0  0  0  0
  191.1560  176.7620  147.4260 C   0  0  1  0  0  3  0  0  0  0  0  0
  191.4500  176.6230  148.7840 O   0  0  0  0  0  0  0  0  0  0  0  0
  191.4550  177.9250  149.2840 C   0  0  0  0  0  1  0  0  0  0  0  0
  194.2310  176.1210  141.9010 C   0  0  0  0  0  1  0  0  0  0  0  0
  193.0750  176.7400  142.4450 O   0  0  0  0  0  0  0  0  0  0  0  0
  189.0110  173.8450  142.6630 C   0  0  1  0  0  3  0  0  0  0  0  0
  187.2040  172.3680  142.1620 O   0  0  0  0  0  1  0  0  0  0  0  0
  187.8250  173.5480  141.7570 C   0  0  0  0  0  2  0  0  0  0  0  0
  190.0330  172.7130  142.6880 C   0  0  0  0  0  2  0  0  0  0  0  0
  190.4200  172.3200  144.1050 C   0  0  0  0  0  2  0  0  0  0  0  0
  192.7790  172.4790  144.9250 C   0  0  0  0  0  3  0  0  0  0  0  0
  191.8240  171.8270  144.1360 C   0  0  0  0  0  0  0  0  0  0  0  0
  192.1940  170.7240  143.3600 C   0  0  0  0  0  3  0  0  0  0  0  0
  193.8820  169.1710  142.6110 O   0  0  0  0  0  1  0  0  0  0  0  0
  194.4680  170.9160  144.1700 C   0  0  0  0  0  3  0  0  0  0  0  0
  193.5150  170.2680  143.3780 C   0  0  0  0  0  0  0  0  0  0  0  0
  194.1000  172.0220  144.9430 C   0  0  0  0  0  3  0  0  0  0  0  0
  187.9460  177.1190  143.2030 C   0  0  1  0  0  3  0  0  0  0  0  0
  187.9220  177.6160  141.7890 C   0  0  0  0  0  0  0  0  0  0  0  0
  188.7230  178.4560  141.4080 O   0  0  0  0  0  0  0  0  0  0  0  0
  185.8010  178.1170  140.6270 C   0  0  0  0  0  1  0  0  0  0  0  0
  186.8920  177.0850  140.8490 C   0  0  0  0  0  2  0  0  0  0  0  0
  186.6650  176.3760  143.5550 C   0  0  0  0  0  2  0  0  0  0  0  0
  186.0230  176.9850  144.7850 C   0  0  0  0  0  2  0  0  0  0  0  0
  185.6590  178.4250  144.5020 C   0  0  0  0  0  2  0  0  0  0  0  0
  185.9710  178.5910  146.9170 C   0  0  0  0  0  2  0  0  0  0  0  0
  185.7050  179.2060  145.7680 C   0  0  0  0  0  3  0  0  0  0  0  0
  1  3  1  0  0  0  0
  1  8  1  0  0  0  0
  2 11  1  0  0  0  0
  3 16  1  1  0  0  0
  3 10  1  0  0  0  0
  4  5  1  6  0  0  0
  4  2  1  0  0  0  0
  6  4  1  0  0  0  0
  6  9  1  1  0  0  0
  7 11  1  0  0  0  0
  8  5  2  0  0  0  0
  9  7  1  0  0  0  0
 10 28  1  1  0  0  0
 10  6  1  0  0  0  0
 11 12  1  1  0  0  0
 12 13  1  0  0  0  0
 14 15  1  0  0  0  0
 15  8  1  0  0  0  0
 16 18  1  6  0  0  0
 16 19  1  0  0  0  0
 18 17  1  0  0  0  0
 19 20  1  0  0  0  0
 20 22  1  0  0  0  0
 21 27  1  0  0  0  0
 22 21  2  0  0  0  0
 23 26  2  0  0  0  0
 23 22  1  0  0  0  0
 24 26  1  0  0  0  0
 25 27  2  0  0  0  0
 26 25  1  0  0  0  0
 28 33  1  6  0  0  0
 29 28  1  0  0  0  0
 30 29  2  0  0  0  0
 31 32  1  0  0  0  0
 32 29  1  0  0  0  0
 33 34  1  0  0  0  0
 35 34  1  0  0  0  0
 35 37  1  0  0  0  0
 37 36  2  0  0  0  0
M  END
>  <MODEL>
4

>  <REMARK>
 VINA RESULT:      -6.7      2.172      5.434
  Name = 
  14 active torsions:
  status: ('A' for Active; 'I' for Inactive)
    1  A    between atoms: C_1  and  C_23
    2  A    between atoms: C_1  and  C_36
    3  A    between atoms: O_3  and  C_32
    4  A    between atoms: C_6  and  C_31
    5  A    between atoms: C_10  and  C_14
    6  A    between atoms: C_14  and  C_27
    7  A    between atoms: C_14  and  C_37
    8  A    between atoms: C_17  and  C_26
    9  A    between atoms: C_17  and  C_33
   10  A    between atoms: C_24  and  O_28
   11  A    between atoms: C_26  and  C_34
   12  A    between atoms: C_29  and  C_36
   13  A    between atoms: C_31  and  C_37
   14  A    between atoms: C_33  and  C_36
                            x       y       z     vdW  Elec       q    Type
                         _______ _______ _______ _____ _____    ______ ____

>  <TORSDO>
F 14

$$$$
=
 OpenBabel11052420033D

 37 39  0  0  1  0  0  0  0  0999 V2000
  190.6530  174.8760  146.2370 C   0  0  0  0  0  2  0  0  0  0  0  0
  187.7200  176.6070  143.5020 C   0  0  0  0  0  2  0  0  0  0  0  0
  191.5130  174.7100  144.9700 C   0  0  2  0  0  3  0  0  0  0  0  0
  189.0010  176.1210  144.1830 C   0  0  2  0  0  3  0  0  0  0  0  0
  189.1980  176.7630  145.5250 C   0  0  0  0  0  3  0  0  0  0  0  0
  190.2430  176.2880  143.2760 C   0  0  1  0  0  3  0  0  0  0  0  0
  189.0430  178.0890  141.9930 C   0  0  0  0  0  2  0  0  0  0  0  0
  189.9970  176.2240  146.4500 C   0  0  0  0  0  0  0  0  0  0  0  0
  190.3270  177.7170  142.7210 C   0  0  0  0  0  2  0  0  0  0  0  0
  191.5460  175.9390  144.0220 C   0  0  2  0  0  3  0  0  0  0  0  0
  187.8700  178.0270  142.9630 C   0  0  1  0  0  3  0  0  0  0  0  0
  186.6970  178.4040  142.3070 O   0  0  0  0  0  0  0  0  0  0  0  0
  185.8980  178.9720  143.3000 C   0  0  0  0  0  1  0  0  0  0  0  0
  191.4110  176.9280  148.3450 C   0  0  0  0  0  1  0  0  0  0  0  0
  190.1740  176.9180  147.6490 O   0  0  0  0  0  0  0  0  0  0  0  0
  191.2670  173.3090  144.3750 C   0  0  1  0  0  3  0  0  0  0  0  0
  193.3850  172.7750  145.3400 O   0  0  0  0  0  1  0  0  0  0  0  0
  192.3460  172.2530  144.5700 C   0  0  0  0  0  2  0  0  0  0  0  0
  189.8680  172.7860  144.6800 C   0  0  0  0  0  2  0  0  0  0  0  0
  189.3560  171.8500  143.5960 C   0  0  0  0  0  2  0  0  0  0  0  0
  188.4410  173.4690  141.9230 C   0  0  0  0  0  3  0  0  0  0  0  0
  189.4110  172.5210  142.2690 C   0  0  0  0  0  0  0  0  0  0  0  0
  190.4180  172.1880  141.3580 C   0  0  0  0  0  3  0  0  0  0  0  0
  191.4640  172.4790  139.2030 O   0  0  0  0  0  1  0  0  0  0  0  0
  189.4970  173.7590  139.7620 C   0  0  0  0  0  3  0  0  0  0  0  0
  190.4620  172.8070  140.1060 C   0  0  0  0  0  0  0  0  0  0  0  0
  188.4850  174.0890  140.6700 C   0  0  0  0  0  3  0  0  0  0  0  0
  192.8550  176.2010  143.2530 C   0  0  1  0  0  3  0  0  0  0  0  0
  194.0590  176.1260  144.1420 C   0  0  0  0  0  0  0  0  0  0  0  0
  194.9270  175.2880  143.9490 O   0  0  0  0  0  0  0  0  0  0  0  0
  194.4770  176.3280  146.5680 C   0  0  0  0  0  1  0  0  0  0  0  0
  194.1820  177.0800  145.2830 C   0  0  0  0  0  2  0  0  0  0  0  0
  193.0360  175.3620  141.9970 C   0  0  0  0  0  2  0  0  0  0  0  0
  193.9130  176.0890  140.9980 C   0  0  0  0  0  2  0  0  0  0  0  0
  194.8330  175.0980  140.3200 C   0  0  0  0  0  2  0  0  0  0  0  0
  197.0390  174.5640  141.2180 C   0  0  0  0  0  2  0  0  0  0  0  0
  196.2480  175.4500  140.6210 C   0  0  0  0  0  3  0  0  0  0  0  0
  1  8  1  0  0  0  0
  3 16  1  6  0  0  0
  3  1  1  0  0  0  0
  4  2  1  6  0  0  0
  4  5  1  0  0  0  0
  5  8  2  0  0  0  0
  6  9  1  1  0  0  0
  6 10  1  0  0  0  0
  6  4  1  0  0  0  0
  7  9  1  0  0  0  0
  7 11  1  0  0  0  0
  8 15  1  0  0  0  0
 10 28  1  6  0  0  0
 10  3  1  0  0  0  0
 11 12  1  6  0  0  0
 11  2  1  0  0  0  0
 12 13  1  0  0  0  0
 15 14  1  0  0  0  0
 16 18  1  1  0  0  0
 16 19  1  0  0  0  0
 18 17  1  0  0  0  0
 20 19  1  0  0  0  0
 21 22  1  0  0  0  0
 22 20  1  0  0  0  0
 23 22  2  0  0  0  0
 24 26  1  0  0  0  0
 25 26  2  0  0  0  0
 25 27  1  0  0  0  0
 26 23  1  0  0  0  0
 27 21  2  0  0  0  0
 28 33  1  6  0  0  0
 28 29  1  0  0  0  0
 29 32  1  0  0  0  0
 30 29  2  0  0  0  0
 32 31  1  0  0  0  0
 34 33  1  0  0  0  0
 35 37  1  0  0  0  0
 35 34  1  0  0  0  0
 37 36  2  0  0  0  0
M  END
>  <MODEL>
5

>  <REMARK>
 VINA RESULT:      -6.4      2.269      6.542
  Name = 
  14 active torsions:
  status: ('A' for Active; 'I' for Inactive)
    1  A    between atoms: C_1  and  C_23
    2  A    between atoms: C_1  and  C_36
    3  A    between atoms: O_3  and  C_32
    4  A    between atoms: C_6  and  C_31
    5  A    between atoms: C_10  and  C_14
    6  A    between atoms: C_14  and  C_27
    7  A    between atoms: C_14  and  C_37
    8  A    between atoms: C_17  and  C_26
    9  A    between atoms: C_17  and  C_33
   10  A    between atoms: C_24  and  O_28
   11  A    between atoms: C_26  and  C_34
   12  A    between atoms: C_29  and  C_36
   13  A    between atoms: C_31  and  C_37
   14  A    between atoms: C_33  and  C_36
                            x       y       z     vdW  Elec       q    Type
                         _______ _______ _______ _____ _____    ______ ____

>  <TORSDO>
F 14

$$$$
=
 OpenBabel11052420033D

 37 39  0  0  1  0  0  0  0  0999 V2000
  191.3490  176.8430  142.7870 C   0  0  0  0  0  2  0  0  0  0  0  0
  191.5360  172.5060  142.2960 C   0  0  0  0  0  2  0  0  0  0  0  0
  189.9120  176.5750  143.2710 C   0  0  2  0  0  3  0  0  0  0  0  0
  191.1950  173.9320  142.7360 C   0  0  2  0  0  3  0  0  0  0  0  0
  192.3920  174.6440  143.2970 C   0  0  0  0  0  3  0  0  0  0  0  0
  189.9930  173.9720  143.7080 C   0  0  1  0  0  3  0  0  0  0  0  0
  190.4470  171.5800  144.3410 C   0  0  0  0  0  2  0  0  0  0  0  0
  192.4440  175.9760  143.3730 C   0  0  0  0  0  0  0  0  0  0  0  0
  190.1930  172.9860  144.8660 C   0  0  0  0  0  2  0  0  0  0  0  0
  189.7530  175.3910  144.2620 C   0  0  2  0  0  3  0  0  0  0  0  0
  191.7120  171.5740  143.4920 C   0  0  1  0  0  3  0  0  0  0  0  0
  191.9680  170.2780  143.0400 O   0  0  0  0  0  0  0  0  0  0  0  0
  192.7720  169.7070  144.0270 C   0  0  0  0  0  1  0  0  0  0  0  0
  193.8430  176.4320  145.3540 C   0  0  0  0  0  1  0  0  0  0  0  0
  193.5670  176.5560  143.9660 O   0  0  0  0  0  0  0  0  0  0  0  0
  188.9470  176.6860  142.0740 C   0  0  1  0  0  3  0  0  0  0  0  0
  188.5220  174.8790  140.5720 O   0  0  0  0  0  1  0  0  0  0  0  0
  188.0760  175.4810  141.7470 C   0  0  0  0  0  2  0  0  0  0  0  0
  188.1660  177.9950  142.0770 C   0  0  0  0  0  2  0  0  0  0  0  0
  187.2140  178.0990  140.8950 C   0  0  0  0  0  2  0  0  0  0  0  0
  185.5530  178.5200  142.7170 C   0  0  0  0  0  3  0  0  0  0  0  0
  185.8110  178.2270  141.3730 C   0  0  0  0  0  0  0  0  0  0  0  0
  184.7490  178.0340  140.4840 C   0  0  0  0  0  3  0  0  0  0  0  0
  182.3760  177.9520  140.0520 O   0  0  0  0  0  1  0  0  0  0  0  0
  183.1720  178.4380  142.2770 C   0  0  0  0  0  3  0  0  0  0  0  0
  183.4300  178.1410  140.9350 C   0  0  0  0  0  0  0  0  0  0  0  0
  184.2330  178.6270  143.1690 C   0  0  0  0  0  3  0  0  0  0  0  0
  188.6640  175.5170  145.3440 C   0  0  1  0  0  3  0  0  0  0  0  0
  189.2430  175.6400  146.7200 C   0  0  0  0  0  0  0  0  0  0  0  0
  188.8960  174.8840  147.6150 O   0  0  0  0  0  0  0  0  0  0  0  0
  191.4370  176.1410  147.7390 C   0  0  0  0  0  1  0  0  0  0  0  0
  190.2440  176.7120  146.9940 C   0  0  0  0  0  2  0  0  0  0  0  0
  187.6230  176.5950  145.0790 C   0  0  0  0  0  2  0  0  0  0  0  0
  186.7720  176.8220  146.3120 C   0  0  0  0  0  2  0  0  0  0  0  0
  186.6400  178.3070  146.5670 C   0  0  0  0  0  2  0  0  0  0  0  0
  184.2010  178.3450  146.6640 C   0  0  0  0  0  2  0  0  0  0  0  0
  185.3590  178.5760  147.2750 C   0  0  0  0  0  3  0  0  0  0  0  0
  1  3  1  0  0  0  0
  1  8  1  0  0  0  0
  2 11  1  0  0  0  0
  3 16  1  6  0  0  0
  3 10  1  0  0  0  0
  4  2  1  1  0  0  0
  4  5  1  0  0  0  0
  4  6  1  0  0  0  0
  5  8  2  0  0  0  0
  6 10  1  0  0  0  0
  6  9  1  1  0  0  0
  7  9  1  0  0  0  0
  8 15  1  0  0  0  0
 10 28  1  6  0  0  0
 11 12  1  6  0  0  0
 11  7  1  0  0  0  0
 12 13  1  0  0  0  0
 15 14  1  0  0  0  0
 16 18  1  1  0  0  0
 16 19  1  0  0  0  0
 17 18  1  0  0  0  0
 20 22  1  0  0  0  0
 20 19  1  0  0  0  0
 21 27  1  0  0  0  0
 22 21  2  0  0  0  0
 23 26  2  0  0  0  0
 23 22  1  0  0  0  0
 24 26  1  0  0  0  0
 25 27  2  0  0  0  0
 26 25  1  0  0  0  0
 28 33  1  6  0  0  0
 28 29  1  0  0  0  0
 29 32  1  0  0  0  0
 29 30  2  0  0  0  0
 32 31  1  0  0  0  0
 33 34  1  0  0  0  0
 34 35  1  0  0  0  0
 35 37  1  0  0  0  0
 36 37  2  0  0  0  0
M  END
>  <MODEL>
6

>  <REMARK>
 VINA RESULT:      -6.4      1.900      7.208
  Name = 
  14 active torsions:
  status: ('A' for Active; 'I' for Inactive)
    1  A    between atoms: C_1  and  C_23
    2  A    between atoms: C_1  and  C_36
    3  A    between atoms: O_3  and  C_32
    4  A    between atoms: C_6  and  C_31
    5  A    between atoms: C_10  and  C_14
    6  A    between atoms: C_14  and  C_27
    7  A    between atoms: C_14  and  C_37
    8  A    between atoms: C_17  and  C_26
    9  A    between atoms: C_17  and  C_33
   10  A    between atoms: C_24  and  O_28
   11  A    between atoms: C_26  and  C_34
   12  A    between atoms: C_29  and  C_36
   13  A    between atoms: C_31  and  C_37
   14  A    between atoms: C_33  and  C_36
                            x       y       z     vdW  Elec       q    Type
                         _______ _______ _______ _____ _____    ______ ____

>  <TORSDO>
F 14

$$$$
=
 OpenBabel11052420033D

 37 39  0  0  1  0  0  0  0  0999 V2000
  192.6850  173.3110  144.1640 C   0  0  0  0  0  2  0  0  0  0  0  0
  190.7210  173.4170  140.2630 C   0  0  0  0  0  2  0  0  0  0  0  0
  191.9470  174.6420  144.4040 C   0  0  2  0  0  3  0  0  0  0  0  0
  191.1010  173.6040  141.7340 C   0  0  2  0  0  3  0  0  0  0  0  0
  191.1910  172.2920  142.4570 C   0  0  0  0  0  3  0  0  0  0  0  0
  190.1620  174.5970  142.4570 C   0  0  1  0  0  3  0  0  0  0  0  0
  188.3810  174.1400  140.7400 C   0  0  0  0  0  2  0  0  0  0  0  0
  191.8700  172.1650  143.6000 C   0  0  0  0  0  0  0  0  0  0  0  0
  188.6910  174.2270  142.2270 C   0  0  0  0  0  2  0  0  0  0  0  0
  190.4560  174.6640  143.9690 C   0  0  2  0  0  3  0  0  0  0  0  0
  189.2460  173.0600  140.1010 C   0  0  1  0  0  3  0  0  0  0  0  0
  188.9380  172.9530  138.7440 O   0  0  0  0  0  0  0  0  0  0  0  0
  188.2680  174.1370  138.4350 C   0  0  0  0  0  1  0  0  0  0  0  0
  192.7340  169.8720  143.8870 C   0  0  0  0  0  1  0  0  0  0  0  0
  191.8510  170.9260  144.2420 O   0  0  0  0  0  0  0  0  0  0  0  0
  192.8650  175.8090  143.9920 C   0  0  1  0  0  3  0  0  0  0  0  0
  193.5120  176.1880  141.7250 O   0  0  0  0  0  1  0  0  0  0  0  0
  192.5610  176.5280  142.6850 C   0  0  0  0  0  2  0  0  0  0  0  0
  193.1350  176.7700  145.1440 C   0  0  0  0  0  2  0  0  0  0  0  0
  194.2690  176.2920  146.0370 C   0  0  0  0  0  2  0  0  0  0  0  0
  195.9160  176.6580  144.1910 C   0  0  0  0  0  3  0  0  0  0  0  0
  195.4190  175.8380  145.2100 C   0  0  0  0  0  0  0  0  0  0  0  0
  195.9890  174.5800  145.4350 C   0  0  0  0  0  3  0  0  0  0  0  0
  197.6290  172.9010  144.8760 O   0  0  0  0  0  1  0  0  0  0  0  0
  197.5610  174.9680  143.6350 C   0  0  0  0  0  3  0  0  0  0  0  0
  197.0610  174.1470  144.6490 C   0  0  0  0  0  0  0  0  0  0  0  0
  196.9890  176.2240  143.4040 C   0  0  0  0  0  3  0  0  0  0  0  0
  189.4900  175.5220  144.8070 C   0  0  1  0  0  3  0  0  0  0  0  0
  189.5810  175.2130  146.2710 C   0  0  0  0  0  0  0  0  0  0  0  0
  189.2520  174.1170  146.7000 O   0  0  0  0  0  0  0  0  0  0  0  0
  191.2110  175.7390  148.0510 C   0  0  0  0  0  1  0  0  0  0  0  0
  190.0650  176.2680  147.2080 C   0  0  0  0  0  2  0  0  0  0  0  0
  189.5770  177.0190  144.5470 C   0  0  0  0  0  2  0  0  0  0  0  0
  188.3080  177.5140  143.8820 C   0  0  0  0  0  2  0  0  0  0  0  0
  187.1220  176.7560  144.4340 C   0  0  0  0  0  2  0  0  0  0  0  0
  185.7240  176.8980  146.4300 C   0  0  0  0  0  2  0  0  0  0  0  0
  186.5420  177.5100  145.5790 C   0  0  0  0  0  3  0  0  0  0  0  0
  1  3  1  0  0  0  0
  3 16  1  6  0  0  0
  4  2  1  6  0  0  0
  4  6  1  0  0  0  0
  4  5  1  0  0  0  0
  5  8  2  0  0  0  0
  6  9  1  1  0  0  0
  6 10  1  0  0  0  0
  7  9  1  0  0  0  0
  8  1  1  0  0  0  0
  8 15  1  0  0  0  0
 10  3  1  0  0  0  0
 10 28  1  6  0  0  0
 11 12  1  6  0  0  0
 11  2  1  0  0  0  0
 11  7  1  0  0  0  0
 13 12  1  0  0  0  0
 14 15  1  0  0  0  0
 16 18  1  6  0  0  0
 16 19  1  0  0  0  0
 17 18  1  0  0  0  0
 19 20  1  0  0  0  0
 21 22  1  0  0  0  0
 22 23  2  0  0  0  0
 22 20  1  0  0  0  0
 25 26  2  0  0  0  0
 26 24  1  0  0  0  0
 26 23  1  0  0  0  0
 27 25  1  0  0  0  0
 27 21  2  0  0  0  0
 28 33  1  1  0  0  0
 28 29  1  0  0  0  0
 29 30  2  0  0  0  0
 29 32  1  0  0  0  0
 32 31  1  0  0  0  0
 34 35  1  0  0  0  0
 34 33  1  0  0  0  0
 35 37  1  0  0  0  0
 37 36  2  0  0  0  0
M  END
>  <MODEL>
7

>  <REMARK>
 VINA RESULT:      -6.4      2.220      3.594
  Name = 
  14 active torsions:
  status: ('A' for Active; 'I' for Inactive)
    1  A    between atoms: C_1  and  C_23
    2  A    between atoms: C_1  and  C_36
    3  A    between atoms: O_3  and  C_32
    4  A    between atoms: C_6  and  C_31
    5  A    between atoms: C_10  and  C_14
    6  A    between atoms: C_14  and  C_27
    7  A    between atoms: C_14  and  C_37
    8  A    between atoms: C_17  and  C_26
    9  A    between atoms: C_17  and  C_33
   10  A    between atoms: C_24  and  O_28
   11  A    between atoms: C_26  and  C_34
   12  A    between atoms: C_29  and  C_36
   13  A    between atoms: C_31  and  C_37
   14  A    between atoms: C_33  and  C_36
                            x       y       z     vdW  Elec       q    Type
                         _______ _______ _______ _____ _____    ______ ____

>  <TORSDO>
F 14

$$$$
=
 OpenBabel11052420033D

 37 39  0  0  1  0  0  0  0  0999 V2000
  188.5770  177.8550  141.5780 C   0  0  0  0  0  2  0  0  0  0  0  0
  186.3920  179.0040  145.1810 C   0  0  0  0  0  2  0  0  0  0  0  0
  189.2840  176.8510  142.5080 C   0  0  2  0  0  3  0  0  0  0  0  0
  187.1950  178.2590  144.1130 C   0  0  2  0  0  3  0  0  0  0  0  0
  186.4430  178.1620  142.8170 C   0  0  0  0  0  3  0  0  0  0  0  0
  187.6780  176.8750  144.6040 C   0  0  1  0  0  3  0  0  0  0  0  0
  185.8220  176.8500  146.3030 C   0  0  0  0  0  2  0  0  0  0  0  0
  187.0660  177.9220  141.6600 C   0  0  0  0  0  0  0  0  0  0  0  0
  186.5140  176.0680  145.1960 C   0  0  0  0  0  2  0  0  0  0  0  0
  188.3530  176.0710  143.4750 C   0  0  2  0  0  3  0  0  0  0  0  0
  185.2570  178.1460  145.7360 C   0  0  1  0  0  3  0  0  0  0  0  0
  184.5900  178.8480  146.7410 O   0  0  0  0  0  0  0  0  0  0  0  0
  185.2070  178.4470  147.9270 C   0  0  0  0  0  1  0  0  0  0  0  0
  186.7720  177.1560  139.3330 C   0  0  0  0  0  1  0  0  0  0  0  0
  186.2860  177.7830  140.5110 O   0  0  0  0  0  0  0  0  0  0  0  0
  190.5700  177.4970  143.0620 C   0  0  1  0  0  3  0  0  0  0  0  0
  191.4900  179.5430  143.8790 O   0  0  0  0  0  1  0  0  0  0  0  0
  190.4210  178.6610  144.0310 C   0  0  0  0  0  2  0  0  0  0  0  0
  191.5820  176.4600  143.5360 C   0  0  0  0  0  2  0  0  0  0  0  0
  192.9250  176.6070  142.8380 C   0  0  0  0  0  2  0  0  0  0  0  0
  193.7190  175.5310  144.9520 C   0  0  0  0  0  3  0  0  0  0  0  0
  194.0040  176.0050  143.6670 C   0  0  0  0  0  0  0  0  0  0  0  0
  195.3100  175.9340  143.1700 C   0  0  0  0  0  3  0  0  0  0  0  0
  197.6220  175.3070  143.4580 O   0  0  0  0  0  1  0  0  0  0  0  0
  196.0410  174.9030  145.2350 C   0  0  0  0  0  3  0  0  0  0  0  0
  196.3270  175.3810  143.9530 C   0  0  0  0  0  0  0  0  0  0  0  0
  194.7370  174.9780  145.7360 C   0  0  0  0  0  3  0  0  0  0  0  0
  188.7500  174.6240  143.8220 C   0  0  1  0  0  3  0  0  0  0  0  0
  189.0470  173.8090  142.6000 C   0  0  0  0  0  0  0  0  0  0  0  0
  190.1480  173.3070  142.4350 O   0  0  0  0  0  0  0  0  0  0  0  0
  188.5170  173.9740  140.1930 C   0  0  0  0  0  1  0  0  0  0  0  0
  187.9820  173.6290  141.5710 C   0  0  0  0  0  2  0  0  0  0  0  0
  189.8570  174.4970  144.8590 C   0  0  0  0  0  2  0  0  0  0  0  0
  189.3220  173.8630  146.1270 C   0  0  0  0  0  2  0  0  0  0  0  0
  189.3260  174.8850  147.2420 C   0  0  0  0  0  2  0  0  0  0  0  0
  190.1820  177.1680  147.3590 C   0  0  0  0  0  2  0  0  0  0  0  0
  190.3690  175.9110  146.9690 C   0  0  0  0  0  3  0  0  0  0  0  0
  1  8  1  0  0  0  0
  1  3  1  0  0  0  0
  2 11  1  0  0  0  0
  3 16  1  1  0  0  0
  3 10  1  0  0  0  0
  4  5  1  6  0  0  0
  4  6  1  0  0  0  0
  4  2  1  0  0  0  0
  6  9  1  6  0  0  0
  8  5  2  0  0  0  0
  9  7  1  0  0  0  0
 10 28  1  1  0  0  0
 10  6  1  0  0  0  0
 11  7  1  0  0  0  0
 11 12  1  1  0  0  0
 12 13  1  0  0  0  0
 14 15  1  0  0  0  0
 15  8  1  0  0  0  0
 16 19  1  1  0  0  0
 16 18  1  0  0  0  0
 17 18  1  0  0  0  0
 20 19  1  0  0  0  0
 20 22  1  0  0  0  0
 21 27  1  0  0  0  0
 22 21  2  0  0  0  0
 23 22  1  0  0  0  0
 23 26  2  0  0  0  0
 24 26  1  0  0  0  0
 25 27  2  0  0  0  0
 26 25  1  0  0  0  0
 28 33  1  1  0  0  0
 29 28  1  0  0  0  0
 30 29  2  0  0  0  0
 31 32  1  0  0  0  0
 32 29  1  0  0  0  0
 33 34  1  0  0  0  0
 34 35  1  0  0  0  0
 37 35  1  0  0  0  0
 37 36  2  0  0  0  0
M  END
>  <MODEL>
8

>  <REMARK>
 VINA RESULT:      -6.3      1.749      4.031
  Name = 
  14 active torsions:
  status: ('A' for Active; 'I' for Inactive)
    1  A    between atoms: C_1  and  C_23
    2  A    between atoms: C_1  and  C_36
    3  A    between atoms: O_3  and  C_32
    4  A    between atoms: C_6  and  C_31
    5  A    between atoms: C_10  and  C_14
    6  A    between atoms: C_14  and  C_27
    7  A    between atoms: C_14  and  C_37
    8  A    between atoms: C_17  and  C_26
    9  A    between atoms: C_17  and  C_33
   10  A    between atoms: C_24  and  O_28
   11  A    between atoms: C_26  and  C_34
   12  A    between atoms: C_29  and  C_36
   13  A    between atoms: C_31  and  C_37
   14  A    between atoms: C_33  and  C_36
                            x       y       z     vdW  Elec       q    Type
                         _______ _______ _______ _____ _____    ______ ____

>  <TORSDO>
F 14

$$$$
=
 OpenBabel11052420033D

 37 39  0  0  1  0  0  0  0  0999 V2000
  192.6170  174.5130  141.3090 C   0  0  0  0  0  2  0  0  0  0  0  0
  192.5480  171.1220  144.0610 C   0  0  0  0  0  2  0  0  0  0  0  0
  193.1670  175.2910  142.5200 C   0  0  2  0  0  3  0  0  0  0  0  0
  192.8560  172.4370  143.3420 C   0  0  2  0  0  3  0  0  0  0  0  0
  193.3090  172.2070  141.9290 C   0  0  0  0  0  3  0  0  0  0  0  0
  193.8540  173.3150  144.1320 C   0  0  1  0  0  3  0  0  0  0  0  0
  194.7050  171.2600  145.3080 C   0  0  0  0  0  2  0  0  0  0  0  0
  193.2530  173.1720  141.0080 C   0  0  0  0  0  0  0  0  0  0  0  0
  195.0970  172.5080  144.5290 C   0  0  0  0  0  2  0  0  0  0  0  0
  194.2730  174.5640  143.3310 C   0  0  2  0  0  3  0  0  0  0  0  0
  193.8240  170.3730  144.4380 C   0  0  1  0  0  3  0  0  0  0  0  0
  193.4930  169.2100  145.1370 O   0  0  0  0  0  0  0  0  0  0  0  0
  194.4150  169.1470  146.1830 C   0  0  0  0  0  1  0  0  0  0  0  0
  193.4700  173.7150  138.6110 C   0  0  0  0  0  1  0  0  0  0  0  0
  193.7540  172.8950  139.7350 O   0  0  0  0  0  0  0  0  0  0  0  0
  191.9930  175.9480  143.2730 C   0  0  1  0  0  3  0  0  0  0  0  0
  191.2310  177.9720  144.2840 O   0  0  0  0  0  1  0  0  0  0  0  0
  191.8050  177.4510  143.1250 C   0  0  0  0  0  2  0  0  0  0  0  0
  190.6910  175.1720  143.1080 C   0  0  0  0  0  2  0  0  0  0  0  0
  190.1360  174.6940  144.4410 C   0  0  0  0  0  2  0  0  0  0  0  0
  188.6600  175.7400  146.1700 C   0  0  0  0  0  3  0  0  0  0  0  0
  188.9440  175.5000  144.8200 C   0  0  0  0  0  0  0  0  0  0  0  0
  188.0930  175.9990  143.8290 C   0  0  0  0  0  3  0  0  0  0  0  0
  186.1240  177.2430  143.2000 O   0  0  0  0  0  1  0  0  0  0  0  0
  186.6850  176.9890  145.5320 C   0  0  0  0  0  3  0  0  0  0  0  0
  186.9660  176.7450  144.1840 C   0  0  0  0  0  0  0  0  0  0  0  0
  187.5320  176.4850  146.5250 C   0  0  0  0  0  3  0  0  0  0  0  0
  195.3690  175.4380  143.9710 C   0  0  1  0  0  3  0  0  0  0  0  0
  196.3740  175.9120  142.9650 C   0  0  0  0  0  0  0  0  0  0  0  0
  196.8990  177.0100  143.0740 O   0  0  0  0  0  0  0  0  0  0  0  0
  196.3190  175.6930  140.5060 C   0  0  0  0  0  1  0  0  0  0  0  0
  196.7190  175.0310  141.8110 C   0  0  0  0  0  2  0  0  0  0  0  0
  194.8520  176.5860  144.8250 C   0  0  0  0  0  2  0  0  0  0  0  0
  194.5420  176.1020  146.2280 C   0  0  0  0  0  2  0  0  0  0  0  0
  193.5200  177.0180  146.8620 C   0  0  0  0  0  2  0  0  0  0  0  0
  192.2680  174.9270  147.0100 C   0  0  0  0  0  2  0  0  0  0  0  0
  192.2790  176.2490  147.1530 C   0  0  0  0  0  3  0  0  0  0  0  0
  1  3  1  0  0  0  0
  2 11  1  0  0  0  0
  3 16  1  1  0  0  0
  3 10  1  0  0  0  0
  4  5  1  6  0  0  0
  4  2  1  0  0  0  0
  4  6  1  0  0  0  0
  6  9  1  6  0  0  0
  8  1  1  0  0  0  0
  8  5  2  0  0  0  0
  9  7  1  0  0  0  0
 10 28  1  1  0  0  0
 10  6  1  0  0  0  0
 11 12  1  1  0  0  0
 11  7  1  0  0  0  0
 12 13  1  0  0  0  0
 14 15  1  0  0  0  0
 15  8  1  0  0  0  0
 16 19  1  6  0  0  0
 18 16  1  0  0  0  0
 18 17  1  0  0  0  0
 19 20  1  0  0  0  0
 20 22  1  0  0  0  0
 21 27  1  0  0  0  0
 22 21  2  0  0  0  0
 23 26  2  0  0  0  0
 23 22  1  0  0  0  0
 24 26  1  0  0  0  0
 25 27  2  0  0  0  0
 26 25  1  0  0  0  0
 28 33  1  6  0  0  0
 29 30  2  0  0  0  0
 29 28  1  0  0  0  0
 31 32  1  0  0  0  0
 32 29  1  0  0  0  0
 33 34  1  0  0  0  0
 34 35  1  0  0  0  0
 35 37  1  0  0  0  0
 36 37  2  0  0  0  0
M  END
>  <MODEL>
9

>  <REMARK>
 VINA RESULT:      -6.3      2.519      7.797
  Name = 
  14 active torsions:
  status: ('A' for Active; 'I' for Inactive)
    1  A    between atoms: C_1  and  C_23
    2  A    between atoms: C_1  and  C_36
    3  A    between atoms: O_3  and  C_32
    4  A    between atoms: C_6  and  C_31
    5  A    between atoms: C_10  and  C_14
    6  A    between atoms: C_14  and  C_27
    7  A    between atoms: C_14  and  C_37
    8  A    between atoms: C_17  and  C_26
    9  A    between atoms: C_17  and  C_33
   10  A    between atoms: C_24  and  O_28
   11  A    between atoms: C_26  and  C_34
   12  A    between atoms: C_29  and  C_36
   13  A    between atoms: C_31  and  C_37
   14  A    between atoms: C_33  and  C_36
                            x       y       z     vdW  Elec       q    Type
                         _______ _______ _______ _____ _____    ______ ____

>  <TORSDO>
F 14

$$$$
