=
 OpenBabel11052418203D

 27 31  0  0  1  0  0  0  0  0999 V2000
  188.8470  175.6270  145.4620 C   0  0  2  0  0  3  0  0  0  0  0  0
  188.4700  176.5640  143.2830 C   0  0  2  0  0  3  0  0  0  0  0  0
  190.1340  175.3520  144.6600 C   0  0  1  0  0  3  0  0  0  0  0  0
  188.8100  173.3900  140.3410 C   0  0  0  0  0  3  0  0  0  0  0  0
  189.7570  171.3270  139.6160 F   0  0  0  0  0  0  0  0  0  0  0  0
  187.3190  176.0230  142.4190 C   0  0  0  0  0  2  0  0  0  0  0  0
  190.6760  173.4880  142.4200 C   0  0  0  0  0  3  0  0  0  0  0  0
  193.4870  176.4830  146.2730 C   0  0  0  0  0  1  0  0  0  0  0  0
  190.6830  172.4160  141.5240 C   0  0  0  0  0  3  0  0  0  0  0  0
  191.5390  175.4670  147.3390 O   0  0  0  0  0  0  0  0  0  0  0  0
  189.7600  175.7080  143.2220 C   0  0  1  0  0  3  0  0  0  0  0  0
  188.0650  176.5770  144.6830 N   0  0  0  0  0  0  0  0  0  0  0  0
  189.7470  172.3650  140.4880 C   0  0  0  0  0  0  0  0  0  0  0  0
  188.7930  174.4590  141.2420 C   0  0  0  0  0  0  0  0  0  0  0  0
  188.9720  175.9670  146.9580 C   0  0  0  0  0  2  0  0  0  0  0  0
  189.7200  174.5080  142.3000 C   0  0  0  0  0  0  0  0  0  0  0  0
  192.2050  175.6790  146.1090 C   0  0  1  0  0  3  0  0  0  0  0  0
  187.8140  175.5670  141.0560 C   0  0  0  0  0  2  0  0  0  0  0  0
  191.0550  176.6930  147.8560 C   0  0  0  0  0  2  0  0  0  0  0  0
  189.8250  177.1250  147.1840 N   0  0  0  0  0  2  0  0  0  0  0  0
  191.3130  176.2630  145.0110 C   0  0  0  0  0  2  0  0  0  0  0  0
  184.5990  178.6440  146.0210 C   0  0  0  0  0  3  0  0  0  0  0  0
  186.8920  177.2750  145.1490 C   0  0  0  0  0  0  0  0  0  0  0  0
  186.6910  178.6210  144.8030 C   0  0  0  0  0  3  0  0  0  0  0  0
  185.5510  179.3030  145.2380 C   0  0  0  0  0  3  0  0  0  0  0  0
  184.7860  177.3040  146.3660 C   0  0  0  0  0  3  0  0  0  0  0  0
  185.9260  176.6220  145.9300 C   0  0  0  0  0  3  0  0  0  0  0  0
  1 15  1  1  0  0  0
  2  6  1  6  0  0  0
  2 12  1  0  0  0  0
  3 21  1  1  0  0  0
  3  1  1  0  0  0  0
  4 13  2  0  0  0  0
  4 14  1  0  0  0  0
  5 13  1  0  0  0  0
  9  7  2  0  0  0  0
 10 19  1  0  0  0  0
 11 16  1  6  0  0  0
 11  2  1  0  0  0  0
 11  3  1  0  0  0  0
 12 23  1  0  0  0  0
 12  1  1  0  0  0  0
 13  9  1  0  0  0  0
 14 16  2  0  0  0  0
 15 20  1  0  0  0  0
 16  7  1  0  0  0  0
 17  8  1  1  0  0  0
 17 10  1  0  0  0  0
 18 14  1  0  0  0  0
 18  6  1  0  0  0  0
 20 19  1  0  0  0  0
 21 17  1  0  0  0  0
 22 26  1  0  0  0  0
 23 27  1  0  0  0  0
 24 23  2  0  0  0  0
 24 25  1  0  0  0  0
 25 22  2  0  0  0  0
 27 26  2  0  0  0  0
M  END
>  <MODEL>
1

>  <REMARK>
 VINA RESULT:      -8.5      0.000      0.000
  Name = 
  1 active torsions:
  status: ('A' for Active; 'I' for Inactive)
    1  A    between atoms: C_9  and  N_15
                            x       y       z     vdW  Elec       q    Type
                         _______ _______ _______ _____ _____    ______ ____

>  <TORSDO>
F 1

$$$$
=
 OpenBabel11052418203D

 27 31  0  0  1  0  0  0  0  0999 V2000
  189.0200  175.5540  145.7170 C   0  0  2  0  0  3  0  0  0  0  0  0
  188.6660  176.3160  143.4670 C   0  0  2  0  0  3  0  0  0  0  0  0
  190.3240  175.2410  144.9580 C   0  0  1  0  0  3  0  0  0  0  0  0
  189.1060  172.9350  140.7810 C   0  0  0  0  0  3  0  0  0  0  0  0
  190.0970  170.8390  140.2310 F   0  0  0  0  0  0  0  0  0  0  0  0
  187.5390  175.6930  142.6270 C   0  0  0  0  0  2  0  0  0  0  0  0
  190.9340  173.2210  142.8760 C   0  0  0  0  0  3  0  0  0  0  0  0
  193.6310  176.5460  146.5350 C   0  0  0  0  0  1  0  0  0  0  0  0
  190.9730  172.0850  142.0640 C   0  0  0  0  0  3  0  0  0  0  0  0
  191.6810  175.5820  147.6440 O   0  0  0  0  0  0  0  0  0  0  0  0
  189.9700  175.4800  143.4920 C   0  0  1  0  0  3  0  0  0  0  0  0
  188.2370  176.4290  144.8550 N   0  0  0  0  0  0  0  0  0  0  0  0
  190.0560  171.9390  141.0210 C   0  0  0  0  0  0  0  0  0  0  0  0
  189.0570  174.0690  141.5980 C   0  0  0  0  0  0  0  0  0  0  0  0
  189.1130  176.0080  147.1850 C   0  0  0  0  0  2  0  0  0  0  0  0
  189.9640  174.2130  142.6640 C   0  0  0  0  0  0  0  0  0  0  0  0
  192.3650  175.7110  146.4120 C   0  0  1  0  0  3  0  0  0  0  0  0
  188.0640  175.1430  141.3110 C   0  0  0  0  0  2  0  0  0  0  0  0
  191.1690  176.8360  148.0580 C   0  0  0  0  0  2  0  0  0  0  0  0
  189.9450  177.1950  147.3350 N   0  0  0  0  0  2  0  0  0  0  0  0
  191.4830  176.1950  145.2590 C   0  0  0  0  0  2  0  0  0  0  0  0
  184.7300  178.5160  146.0480 C   0  0  0  0  0  3  0  0  0  0  0  0
  187.0450  177.1410  145.2470 C   0  0  0  0  0  0  0  0  0  0  0  0
  186.0480  176.4870  145.9890 C   0  0  0  0  0  3  0  0  0  0  0  0
  184.8960  177.1700  146.3860 C   0  0  0  0  0  3  0  0  0  0  0  0
  185.7170  179.1770  145.3140 C   0  0  0  0  0  3  0  0  0  0  0  0
  186.8710  178.4940  144.9170 C   0  0  0  0  0  3  0  0  0  0  0  0
  1 15  1  1  0  0  0
  2  6  1  6  0  0  0
  2 11  1  0  0  0  0
  2 12  1  0  0  0  0
  3 21  1  1  0  0  0
  3  1  1  0  0  0  0
  4 13  2  0  0  0  0
  4 14  1  0  0  0  0
  5 13  1  0  0  0  0
  9  7  2  0  0  0  0
 10 19  1  0  0  0  0
 11 16  1  6  0  0  0
 11  3  1  0  0  0  0
 12 23  1  0  0  0  0
 12  1  1  0  0  0  0
 13  9  1  0  0  0  0
 14 16  2  0  0  0  0
 15 20  1  0  0  0  0
 16  7  1  0  0  0  0
 17  8  1  1  0  0  0
 17 10  1  0  0  0  0
 18 14  1  0  0  0  0
 18  6  1  0  0  0  0
 20 19  1  0  0  0  0
 21 17  1  0  0  0  0
 22 25  1  0  0  0  0
 23 24  1  0  0  0  0
 24 25  2  0  0  0  0
 26 22  2  0  0  0  0
 27 23  2  0  0  0  0
 27 26  1  0  0  0  0
M  END
>  <MODEL>
2

>  <REMARK>
 VINA RESULT:      -8.4      0.441      1.030
  Name = 
  1 active torsions:
  status: ('A' for Active; 'I' for Inactive)
    1  A    between atoms: C_9  and  N_15
                            x       y       z     vdW  Elec       q    Type
                         _______ _______ _______ _____ _____    ______ ____

>  <TORSDO>
F 1

$$$$
=
 OpenBabel11052418203D

 27 31  0  0  1  0  0  0  0  0999 V2000
  188.3570  177.1540  144.0760 C   0  0  2  0  0  3  0  0  0  0  0  0
  188.6270  175.6290  145.9110 C   0  0  2  0  0  3  0  0  0  0  0  0
  189.2930  176.0430  143.5620 C   0  0  1  0  0  3  0  0  0  0  0  0
  192.8450  175.4140  146.9160 C   0  0  0  0  0  3  0  0  0  0  0  0
  195.1370  175.5110  146.2730 F   0  0  0  0  0  0  0  0  0  0  0  0
  189.2580  176.1280  147.2210 C   0  0  0  0  0  2  0  0  0  0  0  0
  192.1140  175.4090  144.2180 C   0  0  0  0  0  3  0  0  0  0  0  0
  188.2920  174.3010  140.2330 C   0  0  0  0  0  1  0  0  0  0  0  0
  193.4630  175.4600  144.5770 C   0  0  0  0  0  3  0  0  0  0  0  0
  188.1320  176.6610  140.8350 O   0  0  0  0  0  0  0  0  0  0  0  0
  189.6590  175.2530  144.8180 C   0  0  1  0  0  3  0  0  0  0  0  0
  187.7990  176.6800  145.3350 N   0  0  0  0  0  0  0  0  0  0  0  0
  193.8280  175.4670  145.9250 C   0  0  0  0  0  0  0  0  0  0  0  0
  191.4930  175.3730  146.5600 C   0  0  0  0  0  0  0  0  0  0  0  0
  187.3310  177.7600  143.1020 C   0  0  0  0  0  2  0  0  0  0  0  0
  191.1160  175.3860  145.2040 C   0  0  0  0  0  0  0  0  0  0  0  0
  188.7460  175.4270  141.1500 C   0  0  1  0  0  3  0  0  0  0  0  0
  190.4520  175.2790  147.6230 C   0  0  0  0  0  2  0  0  0  0  0  0
  186.7430  176.6050  141.1040 C   0  0  0  0  0  2  0  0  0  0  0  0
  186.4540  176.7450  142.5340 N   0  0  0  0  0  2  0  0  0  0  0  0
  188.6300  175.0320  142.6240 C   0  0  0  0  0  2  0  0  0  0  0  0
  184.6100  178.5440  147.4400 C   0  0  0  0  0  3  0  0  0  0  0  0
  186.7140  177.3010  146.0550 C   0  0  0  0  0  0  0  0  0  0  0  0
  186.9390  178.4780  146.7870 C   0  0  0  0  0  3  0  0  0  0  0  0
  185.8940  179.0950  147.4770 C   0  0  0  0  0  3  0  0  0  0  0  0
  184.3730  177.3760  146.7100 C   0  0  0  0  0  3  0  0  0  0  0  0
  185.4200  176.7590  146.0190 C   0  0  0  0  0  3  0  0  0  0  0  0
  1 15  1  6  0  0  0
  1 12  1  0  0  0  0
  2  6  1  1  0  0  0
  3 21  1  6  0  0  0
  3  1  1  0  0  0  0
  3 11  1  0  0  0  0
  6 18  1  0  0  0  0
  7  9  2  0  0  0  0
  7 16  1  0  0  0  0
  9 13  1  0  0  0  0
 10 19  1  0  0  0  0
 10 17  1  0  0  0  0
 11 16  1  1  0  0  0
 11  2  1  0  0  0  0
 12  2  1  0  0  0  0
 12 23  1  0  0  0  0
 13  5  1  0  0  0  0
 13  4  2  0  0  0  0
 14  4  1  0  0  0  0
 14 18  1  0  0  0  0
 16 14  2  0  0  0  0
 17  8  1  6  0  0  0
 17 21  1  0  0  0  0
 19 20  1  0  0  0  0
 20 15  1  0  0  0  0
 22 25  1  0  0  0  0
 23 24  1  0  0  0  0
 24 25  2  0  0  0  0
 26 22  2  0  0  0  0
 27 23  2  0  0  0  0
 27 26  1  0  0  0  0
M  END
>  <MODEL>
3

>  <REMARK>
 VINA RESULT:      -8.2      2.749      5.068
  Name = 
  1 active torsions:
  status: ('A' for Active; 'I' for Inactive)
    1  A    between atoms: C_9  and  N_15
                            x       y       z     vdW  Elec       q    Type
                         _______ _______ _______ _____ _____    ______ ____

>  <TORSDO>
F 1

$$$$
=
 OpenBabel11052418203D

 27 31  0  0  1  0  0  0  0  0999 V2000
  188.6790  176.6590  143.5210 C   0  0  2  0  0  3  0  0  0  0  0  0
  188.8970  176.0440  145.8330 C   0  0  2  0  0  3  0  0  0  0  0  0
  189.7630  175.5650  143.5620 C   0  0  1  0  0  3  0  0  0  0  0  0
  192.9890  176.7900  147.0760 C   0  0  0  0  0  3  0  0  0  0  0  0
  195.3160  176.9150  146.5820 F   0  0  0  0  0  0  0  0  0  0  0  0
  189.3380  177.1020  146.8570 C   0  0  0  0  0  2  0  0  0  0  0  0
  192.5470  175.6130  144.5800 C   0  0  0  0  0  3  0  0  0  0  0  0
  189.2810  172.5230  141.1880 C   0  0  0  0  0  1  0  0  0  0  0  0
  193.8410  175.9750  144.9630 C   0  0  0  0  0  3  0  0  0  0  0  0
  188.8390  174.8860  140.7600 O   0  0  0  0  0  0  0  0  0  0  0  0
  190.0680  175.3970  145.0500 C   0  0  1  0  0  3  0  0  0  0  0  0
  188.0390  176.6610  144.8300 N   0  0  0  0  0  0  0  0  0  0  0  0
  194.0610  176.5680  146.2080 C   0  0  0  0  0  0  0  0  0  0  0  0
  191.6910  176.4390  146.6920 C   0  0  0  0  0  0  0  0  0  0  0  0
  187.7070  176.6870  142.3270 C   0  0  0  0  0  2  0  0  0  0  0  0
  191.4580  175.8590  145.4300 C   0  0  0  0  0  0  0  0  0  0  0  0
  189.5310  173.9700  141.5870 C   0  0  1  0  0  3  0  0  0  0  0  0
  190.5590  176.6450  147.6390 C   0  0  0  0  0  2  0  0  0  0  0  0
  187.4410  174.7640  140.9480 C   0  0  0  0  0  2  0  0  0  0  0  0
  186.9930  175.4270  142.1770 N   0  0  0  0  0  2  0  0  0  0  0  0
  189.2990  174.1870  143.0850 C   0  0  0  0  0  2  0  0  0  0  0  0
  184.4890  178.7580  145.8670 C   0  0  0  0  0  3  0  0  0  0  0  0
  186.8320  177.3740  145.1690 C   0  0  0  0  0  0  0  0  0  0  0  0
  185.8890  176.7910  146.0300 C   0  0  0  0  0  3  0  0  0  0  0  0
  184.7230  177.4780  146.3750 C   0  0  0  0  0  3  0  0  0  0  0  0
  185.4230  179.3510  145.0130 C   0  0  0  0  0  3  0  0  0  0  0  0
  186.5900  178.6630  144.6680 C   0  0  0  0  0  3  0  0  0  0  0  0
  1 15  1  6  0  0  0
  1  3  1  0  0  0  0
  1 12  1  0  0  0  0
  2  6  1  1  0  0  0
  3 21  1  1  0  0  0
  3 11  1  0  0  0  0
  6 18  1  0  0  0  0
  7  9  2  0  0  0  0
  7 16  1  0  0  0  0
  9 13  1  0  0  0  0
 10 19  1  0  0  0  0
 10 17  1  0  0  0  0
 11 16  1  6  0  0  0
 11  2  1  0  0  0  0
 12 23  1  0  0  0  0
 12  2  1  0  0  0  0
 13  5  1  0  0  0  0
 13  4  2  0  0  0  0
 14  4  1  0  0  0  0
 14 18  1  0  0  0  0
 16 14  2  0  0  0  0
 17  8  1  6  0  0  0
 17 21  1  0  0  0  0
 19 20  1  0  0  0  0
 20 15  1  0  0  0  0
 22 25  1  0  0  0  0
 23 24  1  0  0  0  0
 24 25  2  0  0  0  0
 26 22  2  0  0  0  0
 27 26  1  0  0  0  0
 27 23  2  0  0  0  0
M  END
>  <MODEL>
4

>  <REMARK>
 VINA RESULT:      -7.8      2.616      5.277
  Name = 
  1 active torsions:
  status: ('A' for Active; 'I' for Inactive)
    1  A    between atoms: C_9  and  N_15
                            x       y       z     vdW  Elec       q    Type
                         _______ _______ _______ _____ _____    ______ ____

>  <TORSDO>
F 1

$$$$
=
 OpenBabel11052418203D

 27 31  0  0  1  0  0  0  0  0999 V2000
  188.9900  176.4790  143.0650 C   0  0  2  0  0  3  0  0  0  0  0  0
  188.8460  174.0930  143.2950 C   0  0  2  0  0  3  0  0  0  0  0  0
  187.9230  176.0250  142.0500 C   0  0  1  0  0  3  0  0  0  0  0  0
  189.8140  172.2790  139.4720 C   0  0  0  0  0  3  0  0  0  0  0  0
  189.8320  172.3460  137.0900 F   0  0  0  0  0  0  0  0  0  0  0  0
  190.0850  173.2310  143.0060 C   0  0  0  0  0  2  0  0  0  0  0  0
  188.1650  174.5360  139.4980 C   0  0  0  0  0  3  0  0  0  0  0  0
  184.4710  177.8080  142.2110 C   0  0  0  0  0  1  0  0  0  0  0  0
  188.5930  173.9970  138.2820 C   0  0  0  0  0  3  0  0  0  0  0  0
  186.7020  178.7630  142.4750 O   0  0  0  0  0  0  0  0  0  0  0  0
  188.0540  174.5030  142.0280 C   0  0  1  0  0  3  0  0  0  0  0  0
  189.2540  175.3380  143.9310 N   0  0  0  0  0  0  0  0  0  0  0  0
  189.4210  172.8720  138.2690 C   0  0  0  0  0  0  0  0  0  0  0  0
  189.3960  172.8220  140.6900 C   0  0  0  0  0  0  0  0  0  0  0  0
  188.7830  177.8150  143.8010 C   0  0  0  0  0  2  0  0  0  0  0  0
  188.5790  173.9680  140.7130 C   0  0  0  0  0  0  0  0  0  0  0  0
  185.9680  177.6590  141.9820 C   0  0  1  0  0  3  0  0  0  0  0  0
  189.7900  172.1610  141.9670 C   0  0  0  0  0  2  0  0  0  0  0  0
  186.6250  178.8180  143.8870 C   0  0  0  0  0  2  0  0  0  0  0  0
  187.5200  177.8480  144.5250 N   0  0  0  0  0  2  0  0  0  0  0  0
  186.4780  176.3030  142.4740 C   0  0  0  0  0  2  0  0  0  0  0  0
  191.5110  175.4120  147.5330 C   0  0  0  0  0  3  0  0  0  0  0  0
  190.0230  175.3750  145.1510 C   0  0  0  0  0  0  0  0  0  0  0  0
  189.4210  175.0340  146.3720 C   0  0  0  0  0  3  0  0  0  0  0  0
  190.1610  175.0540  147.5580 C   0  0  0  0  0  3  0  0  0  0  0  0
  192.1220  175.7490  146.3230 C   0  0  0  0  0  3  0  0  0  0  0  0
  191.3820  175.7280  145.1370 C   0  0  0  0  0  3  0  0  0  0  0  0
  1 15  1  1  0  0  0
  1 12  1  0  0  0  0
  2  6  1  6  0  0  0
  2 12  1  0  0  0  0
  3 21  1  1  0  0  0
  3  1  1  0  0  0  0
  4 14  1  0  0  0  0
  5 13  1  0  0  0  0
  7 16  1  0  0  0  0
  9  7  2  0  0  0  0
 10 19  1  0  0  0  0
 11 16  1  6  0  0  0
 11  3  1  0  0  0  0
 11  2  1  0  0  0  0
 12 23  1  0  0  0  0
 13  9  1  0  0  0  0
 13  4  2  0  0  0  0
 14 16  2  0  0  0  0
 14 18  1  0  0  0  0
 15 20  1  0  0  0  0
 17  8  1  1  0  0  0
 17 21  1  0  0  0  0
 17 10  1  0  0  0  0
 18  6  1  0  0  0  0
 19 20  1  0  0  0  0
 22 25  1  0  0  0  0
 23 24  1  0  0  0  0
 24 25  2  0  0  0  0
 26 22  2  0  0  0  0
 27 23  2  0  0  0  0
 27 26  1  0  0  0  0
M  END
>  <MODEL>
5

>  <REMARK>
 VINA RESULT:      -7.8      2.233      4.963
  Name = 
  1 active torsions:
  status: ('A' for Active; 'I' for Inactive)
    1  A    between atoms: C_9  and  N_15
                            x       y       z     vdW  Elec       q    Type
                         _______ _______ _______ _____ _____    ______ ____

>  <TORSDO>
F 1

$$$$
=
 OpenBabel11052418203D

 27 31  0  0  1  0  0  0  0  0999 V2000
  187.4710  176.5470  144.4730 C   0  0  2  0  0  3  0  0  0  0  0  0
  189.2550  177.9160  143.6310 C   0  0  2  0  0  3  0  0  0  0  0  0
  188.1970  177.0980  145.7160 C   0  0  1  0  0  3  0  0  0  0  0  0
  193.0210  176.3240  145.0910 C   0  0  0  0  0  3  0  0  0  0  0  0
  194.2830  175.1880  146.7620 F   0  0  0  0  0  0  0  0  0  0  0  0
  190.3500  177.2780  142.7610 C   0  0  0  0  0  2  0  0  0  0  0  0
  190.8600  176.4710  146.8580 C   0  0  0  0  0  3  0  0  0  0  0  0
  186.0050  178.8800  148.3870 C   0  0  0  0  0  1  0  0  0  0  0  0
  192.0490  175.8570  147.2570 C   0  0  0  0  0  3  0  0  0  0  0  0
  185.5070  176.8740  147.0870 O   0  0  0  0  0  0  0  0  0  0  0  0
  189.4700  177.7280  145.1540 C   0  0  1  0  0  3  0  0  0  0  0  0
  187.9700  177.3000  143.3300 N   0  0  0  0  0  0  0  0  0  0  0  0
  193.1270  175.7790  146.3730 C   0  0  0  0  0  0  0  0  0  0  0  0
  191.8280  176.9300  144.6840 C   0  0  0  0  0  0  0  0  0  0  0  0
  185.9400  176.3900  144.5250 C   0  0  0  0  0  2  0  0  0  0  0  0
  190.7300  176.9940  145.5620 C   0  0  0  0  0  0  0  0  0  0  0  0
  186.5360  177.7310  147.5420 C   0  0  1  0  0  3  0  0  0  0  0  0
  191.7350  177.5410  143.3270 C   0  0  0  0  0  2  0  0  0  0  0  0
  184.6680  177.5520  146.1700 C   0  0  0  0  0  2  0  0  0  0  0  0
  185.2750  177.6470  144.8380 N   0  0  0  0  0  2  0  0  0  0  0  0
  187.4630  178.2340  146.4330 C   0  0  0  0  0  2  0  0  0  0  0  0
  186.3180  177.1660  139.4150 C   0  0  0  0  0  3  0  0  0  0  0  0
  187.4130  177.2660  142.0000 C   0  0  0  0  0  0  0  0  0  0  0  0
  187.7660  176.2350  141.1160 C   0  0  0  0  0  3  0  0  0  0  0  0
  187.2230  176.1850  139.8300 C   0  0  0  0  0  3  0  0  0  0  0  0
  185.9550  178.1940  140.2880 C   0  0  0  0  0  3  0  0  0  0  0  0
  186.4990  178.2430  141.5760 C   0  0  0  0  0  3  0  0  0  0  0  0
  1 15  1  1  0  0  0
  1  3  1  0  0  0  0
  2  6  1  6  0  0  0
  2 11  1  0  0  0  0
  3 21  1  6  0  0  0
  4 13  1  0  0  0  0
  6 18  1  0  0  0  0
  7  9  1  0  0  0  0
 10 17  1  0  0  0  0
 11 16  1  6  0  0  0
 11  3  1  0  0  0  0
 12  2  1  0  0  0  0
 12  1  1  0  0  0  0
 13  5  1  0  0  0  0
 13  9  2  0  0  0  0
 14  4  2  0  0  0  0
 14 16  1  0  0  0  0
 15 20  1  0  0  0  0
 16  7  2  0  0  0  0
 17  8  1  6  0  0  0
 18 14  1  0  0  0  0
 19 10  1  0  0  0  0
 20 19  1  0  0  0  0
 21 17  1  0  0  0  0
 22 25  2  0  0  0  0
 22 26  1  0  0  0  0
 23 12  1  0  0  0  0
 24 23  2  0  0  0  0
 25 24  1  0  0  0  0
 26 27  2  0  0  0  0
 27 23  1  0  0  0  0
M  END
>  <MODEL>
6

>  <REMARK>
 VINA RESULT:      -7.7      3.096      5.461
  Name = 
  1 active torsions:
  status: ('A' for Active; 'I' for Inactive)
    1  A    between atoms: C_9  and  N_15
                            x       y       z     vdW  Elec       q    Type
                         _______ _______ _______ _____ _____    ______ ____

>  <TORSDO>
F 1

$$$$
=
 OpenBabel11052418203D

 27 31  0  0  1  0  0  0  0  0999 V2000
  190.0560  175.6830  142.8440 C   0  0  2  0  0  3  0  0  0  0  0  0
  191.0760  175.4070  145.0010 C   0  0  2  0  0  3  0  0  0  0  0  0
  191.2400  174.7190  142.6270 C   0  0  1  0  0  3  0  0  0  0  0  0
  195.2040  176.7250  144.7530 C   0  0  0  0  0  3  0  0  0  0  0  0
  197.2160  177.0180  143.5100 F   0  0  0  0  0  0  0  0  0  0  0  0
  191.6650  176.6320  145.7190 C   0  0  0  0  0  2  0  0  0  0  0  0
  194.1670  175.1860  142.6620 C   0  0  0  0  0  3  0  0  0  0  0  0
  190.4630  171.3550  140.8390 C   0  0  0  0  0  1  0  0  0  0  0  0
  195.4520  175.7250  142.5630 C   0  0  0  0  0  3  0  0  0  0  0  0
  189.5840  173.5820  140.3620 O   0  0  0  0  0  0  0  0  0  0  0  0
  192.0180  174.7840  143.9400 C   0  0  1  0  0  3  0  0  0  0  0  0
  189.8680  175.7950  144.2840 N   0  0  0  0  0  0  0  0  0  0  0  0
  195.9680  176.4980  143.6050 C   0  0  0  0  0  0  0  0  0  0  0  0
  193.9140  176.1950  144.8510 C   0  0  0  0  0  0  0  0  0  0  0  0
  188.7640  175.4530  142.0390 C   0  0  0  0  0  2  0  0  0  0  0  0
  193.3790  175.4320  143.7970 C   0  0  0  0  0  0  0  0  0  0  0  0
  190.6220  172.8600  140.9970 C   0  0  1  0  0  3  0  0  0  0  0  0
  193.1210  176.4100  146.0950 C   0  0  0  0  0  2  0  0  0  0  0  0
  188.3480  173.3460  141.0100 C   0  0  0  0  0  2  0  0  0  0  0  0
  188.2220  174.1180  142.2500 N   0  0  0  0  0  2  0  0  0  0  0  0
  190.8450  173.2500  142.4600 C   0  0  0  0  0  2  0  0  0  0  0  0
  186.5700  177.6420  146.2300 C   0  0  0  0  0  3  0  0  0  0  0  0
  188.7420  176.4210  144.9330 C   0  0  0  0  0  0  0  0  0  0  0  0
  188.2560  175.9080  146.1460 C   0  0  0  0  0  3  0  0  0  0  0  0
  187.1750  176.5140  146.7910 C   0  0  0  0  0  3  0  0  0  0  0  0
  187.0490  178.1640  145.0260 C   0  0  0  0  0  3  0  0  0  0  0  0
  188.1310  177.5570  144.3820 C   0  0  0  0  0  3  0  0  0  0  0  0
  1 15  1  6  0  0  0
  1 12  1  0  0  0  0
  2  6  1  6  0  0  0
  3 21  1  1  0  0  0
  3  1  1  0  0  0  0
  3 11  1  0  0  0  0
  4 14  1  0  0  0  0
  5 13  1  0  0  0  0
  6 18  1  0  0  0  0
  7 16  1  0  0  0  0
  9  7  2  0  0  0  0
  9 13  1  0  0  0  0
 10 17  1  0  0  0  0
 10 19  1  0  0  0  0
 11 16  1  6  0  0  0
 11  2  1  0  0  0  0
 12 23  1  0  0  0  0
 12  2  1  0  0  0  0
 13  4  2  0  0  0  0
 14 18  1  0  0  0  0
 15 20  1  0  0  0  0
 16 14  2  0  0  0  0
 17  8  1  1  0  0  0
 17 21  1  0  0  0  0
 19 20  1  0  0  0  0
 22 25  1  0  0  0  0
 23 24  1  0  0  0  0
 24 25  2  0  0  0  0
 26 22  2  0  0  0  0
 27 23  2  0  0  0  0
 27 26  1  0  0  0  0
M  END
>  <MODEL>
7

>  <REMARK>
 VINA RESULT:      -7.6      3.079      5.503
  Name = 
  1 active torsions:
  status: ('A' for Active; 'I' for Inactive)
    1  A    between atoms: C_9  and  N_15
                            x       y       z     vdW  Elec       q    Type
                         _______ _______ _______ _____ _____    ______ ____

>  <TORSDO>
F 1

$$$$
=
 OpenBabel11052418203D

 27 31  0  0  1  0  0  0  0  0999 V2000
  190.0800  173.7930  143.0590 C   0  0  2  0  0  3  0  0  0  0  0  0
  190.5370  176.1310  143.3640 C   0  0  2  0  0  3  0  0  0  0  0  0
  188.9990  174.5390  142.2530 C   0  0  1  0  0  3  0  0  0  0  0  0
  187.0630  177.9880  145.1880 C   0  0  0  0  0  3  0  0  0  0  0  0
  184.7050  178.1010  145.5180 F   0  0  0  0  0  0  0  0  0  0  0  0
  190.4870  176.7310  144.7780 C   0  0  0  0  0  2  0  0  0  0  0  0
  186.6610  176.1340  143.1340 C   0  0  0  0  0  3  0  0  0  0  0  0
  188.5660  173.5180  138.5260 C   0  0  0  0  0  1  0  0  0  0  0  0
  185.5660  176.6630  143.8230 C   0  0  0  0  0  3  0  0  0  0  0  0
  188.9910  172.0960  140.4640 O   0  0  0  0  0  0  0  0  0  0  0  0
  189.1490  175.9960  142.6860 C   0  0  1  0  0  3  0  0  0  0  0  0
  191.0840  174.7820  143.4240 N   0  0  0  0  0  0  0  0  0  0  0  0
  185.7670  177.5850  144.8530 C   0  0  0  0  0  0  0  0  0  0  0  0
  188.1610  177.4530  144.5080 C   0  0  0  0  0  0  0  0  0  0  0  0
  190.6440  172.4780  142.4910 C   0  0  0  0  0  2  0  0  0  0  0  0
  187.9680  176.5080  143.4820 C   0  0  0  0  0  0  0  0  0  0  0  0
  188.5320  173.3650  140.0390 C   0  0  1  0  0  3  0  0  0  0  0  0
  189.5370  177.9160  144.8470 C   0  0  0  0  0  2  0  0  0  0  0  0
  190.3710  171.9500  140.1850 C   0  0  0  0  0  2  0  0  0  0  0  0
  191.2070  172.6580  141.1590 N   0  0  0  0  0  2  0  0  0  0  0  0
  189.2180  174.5410  140.7380 C   0  0  0  0  0  2  0  0  0  0  0  0
  194.9000  173.9570  145.1090 C   0  0  0  0  0  3  0  0  0  0  0  0
  192.3760  174.4900  143.9960 C   0  0  0  0  0  0  0  0  0  0  0  0
  193.5450  174.9220  143.3510 C   0  0  0  0  0  3  0  0  0  0  0  0
  194.8000  174.6560  143.9030 C   0  0  0  0  0  3  0  0  0  0  0  0
  193.7420  173.5270  145.7630 C   0  0  0  0  0  3  0  0  0  0  0  0
  192.4860  173.7940  145.2100 C   0  0  0  0  0  3  0  0  0  0  0  0
  1 15  1  6  0  0  0
  1 12  1  0  0  0  0
  2 12  1  0  0  0  0
  2  6  1  1  0  0  0
  3 21  1  6  0  0  0
  3 11  1  0  0  0  0
  3  1  1  0  0  0  0
  6 18  1  0  0  0  0
  7 16  2  0  0  0  0
  7  9  1  0  0  0  0
  9 13  2  0  0  0  0
 11  2  1  0  0  0  0
 11 16  1  1  0  0  0
 12 23  1  0  0  0  0
 13  4  1  0  0  0  0
 13  5  1  0  0  0  0
 14 18  1  0  0  0  0
 14  4  2  0  0  0  0
 16 14  1  0  0  0  0
 17  8  1  6  0  0  0
 17 10  1  0  0  0  0
 17 21  1  0  0  0  0
 19 10  1  0  0  0  0
 19 20  1  0  0  0  0
 20 15  1  0  0  0  0
 22 26  1  0  0  0  0
 23 27  1  0  0  0  0
 24 25  1  0  0  0  0
 24 23  2  0  0  0  0
 25 22  2  0  0  0  0
 27 26  2  0  0  0  0
M  END
>  <MODEL>
8

>  <REMARK>
 VINA RESULT:      -7.3      3.299      6.925
  Name = 
  1 active torsions:
  status: ('A' for Active; 'I' for Inactive)
    1  A    between atoms: C_9  and  N_15
                            x       y       z     vdW  Elec       q    Type
                         _______ _______ _______ _____ _____    ______ ____

>  <TORSDO>
F 1

$$$$
=
 OpenBabel11052418203D

 27 31  0  0  1  0  0  0  0  0999 V2000
  189.8220  175.1640  145.1030 C   0  0  2  0  0  3  0  0  0  0  0  0
  189.2810  175.9300  142.8920 C   0  0  2  0  0  3  0  0  0  0  0  0
  191.0440  174.8200  144.2300 C   0  0  1  0  0  3  0  0  0  0  0  0
  189.3990  172.5340  140.1900 C   0  0  0  0  0  3  0  0  0  0  0  0
  190.2890  170.4160  139.5600 F   0  0  0  0  0  0  0  0  0  0  0  0
  188.0690  175.3300  142.1610 C   0  0  0  0  0  2  0  0  0  0  0  0
  191.4170  172.7830  142.1090 C   0  0  0  0  0  3  0  0  0  0  0  0
  194.5090  176.0540  145.4940 C   0  0  0  0  0  1  0  0  0  0  0  0
  191.3560  171.6450  141.3020 C   0  0  0  0  0  3  0  0  0  0  0  0
  192.6480  175.1360  146.7800 O   0  0  0  0  0  0  0  0  0  0  0  0
  190.5630  175.0650  142.8020 C   0  0  1  0  0  3  0  0  0  0  0  0
  188.9830  176.0550  144.3120 N   0  0  0  0  0  0  0  0  0  0  0  0
  190.3450  171.5180  140.3470 C   0  0  0  0  0  0  0  0  0  0  0  0
  189.4500  173.6700  141.0040 C   0  0  0  0  0  0  0  0  0  0  0  0
  190.0590  175.6190  146.5550 C   0  0  0  0  0  2  0  0  0  0  0  0
  190.4540  173.7970  141.9820 C   0  0  0  0  0  0  0  0  0  0  0  0
  193.2190  175.2470  145.4900 C   0  0  1  0  0  3  0  0  0  0  0  0
  188.4600  174.7660  140.8050 C   0  0  0  0  0  2  0  0  0  0  0  0
  192.2030  176.4010  147.2340 C   0  0  0  0  0  2  0  0  0  0  0  0
  190.9260  176.7870  146.6240 N   0  0  0  0  0  2  0  0  0  0  0  0
  192.2470  175.7490  144.4200 C   0  0  0  0  0  2  0  0  0  0  0  0
  185.6220  178.2320  145.7420 C   0  0  0  0  0  3  0  0  0  0  0  0
  187.8480  176.7940  144.8090 C   0  0  0  0  0  0  0  0  0  0  0  0
  187.4440  177.9760  144.1690 C   0  0  0  0  0  3  0  0  0  0  0  0
  186.3380  178.6930  144.6340 C   0  0  0  0  0  3  0  0  0  0  0  0
  186.0120  177.0530  146.3830 C   0  0  0  0  0  3  0  0  0  0  0  0
  187.1180  176.3370  145.9180 C   0  0  0  0  0  3  0  0  0  0  0  0
  1 15  1  1  0  0  0
  2  6  1  6  0  0  0
  2 12  1  0  0  0  0
  3 21  1  1  0  0  0
  3  1  1  0  0  0  0
  4 13  2  0  0  0  0
  4 14  1  0  0  0  0
  5 13  1  0  0  0  0
  9  7  2  0  0  0  0
 10 19  1  0  0  0  0
 11 16  1  1  0  0  0
 11  2  1  0  0  0  0
 11  3  1  0  0  0  0
 12 23  1  0  0  0  0
 12  1  1  0  0  0  0
 13  9  1  0  0  0  0
 14 16  2  0  0  0  0
 15 20  1  0  0  0  0
 16  7  1  0  0  0  0
 17  8  1  1  0  0  0
 17 10  1  0  0  0  0
 18 14  1  0  0  0  0
 18  6  1  0  0  0  0
 20 19  1  0  0  0  0
 21 17  1  0  0  0  0
 22 26  1  0  0  0  0
 23 27  1  0  0  0  0
 24 25  1  0  0  0  0
 24 23  2  0  0  0  0
 25 22  2  0  0  0  0
 27 26  2  0  0  0  0
M  END
>  <MODEL>
9

>  <REMARK>
 VINA RESULT:      -7.2      1.043      1.157
  Name = 
  1 active torsions:
  status: ('A' for Active; 'I' for Inactive)
    1  A    between atoms: C_9  and  N_15
                            x       y       z     vdW  Elec       q    Type
                         _______ _______ _______ _____ _____    ______ ____

>  <TORSDO>
F 1

$$$$
