=
 OpenBabel11052418423D

 34 37  0  0  1  0  0  0  0  0999 V2000
  191.7710  175.9640  147.5890 C   0  0  2  0  0  3  0  0  0  0  0  0
  192.3650  176.1210  145.1200 C   0  0  0  0  0  0  0  0  0  0  0  0
  192.3550  172.4230  142.4690 C   0  0  0  0  0  2  0  0  0  0  0  0
  190.0130  175.4640  145.7950 C   0  0  1  0  0  3  0  0  0  0  0  0
  189.6940  172.7270  145.2210 C   0  0  0  0  0  1  0  0  0  0  0  0
  191.3520  177.9320  148.8670 O   0  0  0  0  0  0  0  0  0  0  0  0
  193.5020  176.5700  145.4300 O   0  0  0  0  0  0  0  0  0  0  0  0
  190.5350  175.9200  143.3880 C   0  0  0  0  0  2  0  0  0  0  0  0
  192.7200  173.0690  141.1410 C   0  0  0  0  0  2  0  0  0  0  0  0
  192.4630  174.5640  141.1830 C   0  0  0  0  0  2  0  0  0  0  0  0
  191.5070  175.4620  146.1660 C   0  0  2  0  0  3  0  0  0  0  0  0
  190.9300  171.8790  142.4580 C   0  0  0  0  0  2  0  0  0  0  0  0
  190.2770  173.5580  144.1710 N   0  0  0  0  0  0  0  0  0  0  0  0
  191.4760  174.9510  148.5010 O   0  0  0  0  0  1  0  0  0  0  0  0
  192.8650  176.4990  142.6880 C   0  0  0  0  0  2  0  0  0  0  0  0
  189.3730  176.8510  145.9900 C   0  0  2  0  0  3  0  0  0  0  0  0
  190.9740  177.1860  147.9270 C   0  0  0  0  0  0  0  0  0  0  0  0
  191.9380  176.1270  143.7480 N   0  0  0  0  0  0  0  0  0  0  0  0
  189.8690  172.8980  142.9070 C   0  0  1  0  0  3  0  0  0  0  0  0
  189.8160  174.9550  144.3490 C   0  0  1  0  0  3  0  0  0  0  0  0
  189.7380  177.4600  147.2650 N   0  0  0  0  0  2  0  0  0  0  0  0
  193.4810  175.2540  142.0750 C   0  0  0  0  0  2  0  0  0  0  0  0
  189.3080  173.7930  141.7750 C   0  0  0  0  0  3  0  0  0  0  0  0
  187.8460  174.1040  142.0380 C   0  0  0  0  0  1  0  0  0  0  0  0
  189.3940  173.1270  140.4100 C   0  0  0  0  0  1  0  0  0  0  0  0
  187.2320  176.0320  146.5930 O   0  0  0  0  0  0  0  0  0  0  0  0
  187.8800  176.8100  145.8430 C   0  0  0  0  0  0  0  0  0  0  0  0
  186.6400  178.2590  142.5640 C   0  0  0  0  0  0  0  0  0  0  0  0
  185.7830  179.2650  143.0170 C   0  0  0  0  0  3  0  0  0  0  0  0
  187.1570  177.6520  144.8610 C   0  0  0  0  0  0  0  0  0  0  0  0
  185.6100  179.4670  144.3890 C   0  0  0  0  0  3  0  0  0  0  0  0
  187.3230  177.4570  143.4810 C   0  0  0  0  0  3  0  0  0  0  0  0
  186.2940  178.6640  145.3060 C   0  0  0  0  0  3  0  0  0  0  0  0
  186.8180  178.0520  141.1680 N   0  0  0  0  0  1  0  0  0  0  0  0
  1 17  1  0  0  0  0
  1 14  1  1  0  0  0
  2  7  2  0  0  0  0
  2 11  1  0  0  0  0
  4 16  1  0  0  0  0
  4 11  1  0  0  0  0
  8 18  1  0  0  0  0
  8 20  1  0  0  0  0
  9 10  1  0  0  0  0
  9  3  1  0  0  0  0
 10 22  1  0  0  0  0
 11  1  1  0  0  0  0
 12  3  1  0  0  0  0
 12 19  1  0  0  0  0
 13 20  1  0  0  0  0
 13  5  1  0  0  0  0
 15 18  1  0  0  0  0
 16 21  1  0  0  0  0
 17  6  2  0  0  0  0
 18  2  1  0  0  0  0
 19 13  1  0  0  0  0
 20  4  1  0  0  0  0
 21 17  1  0  0  0  0
 22 15  1  0  0  0  0
 23 24  1  0  0  0  0
 23 19  1  0  0  0  0
 25 23  1  0  0  0  0
 27 16  1  0  0  0  0
 27 26  2  0  0  0  0
 28 29  2  0  0  0  0
 28 32  1  0  0  0  0
 29 31  1  0  0  0  0
 30 33  1  0  0  0  0
 30 27  1  0  0  0  0
 31 33  2  0  0  0  0
 32 30  2  0  0  0  0
 34 28  1  0  0  0  0
M  END
>  <MODEL>
1

>  <REMARK>
 VINA RESULT:      -8.2      0.000      0.000
  Name = 
  3 active torsions:
  status: ('A' for Active; 'I' for Inactive)
    1  A    between atoms: C_12  and  C_28
    2  A    between atoms: C_13  and  C_29
    3  A    between atoms: C_21  and  C_28
                            x       y       z     vdW  Elec       q    Type
                         _______ _______ _______ _____ _____    ______ ____

>  <TORSDO>
F 3

$$$$
=
 OpenBabel11052418423D

 34 37  0  0  1  0  0  0  0  0999 V2000
  188.8270  173.5100  140.6220 C   0  0  2  0  0  3  0  0  0  0  0  0
  188.9420  175.6670  141.9680 C   0  0  0  0  0  0  0  0  0  0  0  0
  188.2150  175.6660  146.4600 C   0  0  0  0  0  2  0  0  0  0  0  0
  190.6480  173.8430  142.3910 C   0  0  1  0  0  3  0  0  0  0  0  0
  190.0590  172.6850  144.8880 C   0  0  0  0  0  1  0  0  0  0  0  0
  189.6250  173.4330  138.3780 O   0  0  0  0  0  0  0  0  0  0  0  0
  188.0130  176.1470  141.2630 O   0  0  0  0  0  0  0  0  0  0  0  0
  190.9230  176.0820  143.4800 C   0  0  0  0  0  2  0  0  0  0  0  0
  188.4440  177.1420  146.7480 C   0  0  0  0  0  2  0  0  0  0  0  0
  189.2180  177.7950  145.6190 C   0  0  0  0  0  2  0  0  0  0  0  0
  189.2180  174.1880  141.9390 C   0  0  2  0  0  3  0  0  0  0  0  0
  189.2960  174.7940  147.0920 C   0  0  0  0  0  2  0  0  0  0  0  0
  190.0940  174.1440  144.8290 N   0  0  0  0  0  0  0  0  0  0  0  0
  188.4980  172.1760  140.8650 O   0  0  0  0  0  1  0  0  0  0  0  0
  189.2140  177.8730  143.1350 C   0  0  0  0  0  2  0  0  0  0  0  0
  191.6890  174.1670  141.3050 C   0  0  2  0  0  3  0  0  0  0  0  0
  189.9130  173.5760  139.5940 C   0  0  0  0  0  0  0  0  0  0  0  0
  189.6550  176.5070  142.8900 N   0  0  0  0  0  0  0  0  0  0  0  0
  190.5180  174.5600  146.1880 C   0  0  1  0  0  3  0  0  0  0  0  0
  190.9820  174.5610  143.7180 C   0  0  1  0  0  3  0  0  0  0  0  0
  191.2820  173.6980  139.9840 N   0  0  0  0  0  2  0  0  0  0  0  0
  188.3460  177.9230  144.3800 C   0  0  0  0  0  2  0  0  0  0  0  0
  191.6230  175.6390  146.2990 C   0  0  0  0  0  3  0  0  0  0  0  0
  192.9900  174.9960  146.1530 C   0  0  0  0  0  1  0  0  0  0  0  0
  191.5990  176.3600  147.6380 C   0  0  0  0  0  1  0  0  0  0  0  0
  193.2170  172.3850  141.6330 O   0  0  0  0  0  0  0  0  0  0  0  0
  193.0500  173.6340  141.6480 C   0  0  0  0  0  0  0  0  0  0  0  0
  196.0170  175.1480  143.4630 C   0  0  0  0  0  0  0  0  0  0  0  0
  196.3280  176.2230  142.6260 C   0  0  0  0  0  3  0  0  0  0  0  0
  194.1850  174.5220  141.9910 C   0  0  0  0  0  0  0  0  0  0  0  0
  195.5720  176.4510  141.4730 C   0  0  0  0  0  3  0  0  0  0  0  0
  194.9510  174.3030  143.1470 C   0  0  0  0  0  3  0  0  0  0  0  0
  194.5060  175.6030  141.1570 C   0  0  0  0  0  3  0  0  0  0  0  0
  196.7840  174.9160  144.6380 N   0  0  0  0  0  1  0  0  0  0  0  0
  1 14  1  1  0  0  0
  1 11  1  0  0  0  0
  2 18  1  0  0  0  0
  3  9  1  0  0  0  0
  3 12  1  0  0  0  0
  4 20  1  0  0  0  0
  6 17  2  0  0  0  0
  7  2  2  0  0  0  0
  8 20  1  0  0  0  0
 10  9  1  0  0  0  0
 11  2  1  0  0  0  0
 11  4  1  0  0  0  0
 13  5  1  0  0  0  0
 13 19  1  0  0  0  0
 15 22  1  0  0  0  0
 16 27  1  0  0  0  0
 16  4  1  0  0  0  0
 17 21  1  0  0  0  0
 17  1  1  0  0  0  0
 18 15  1  0  0  0  0
 18  8  1  0  0  0  0
 19 23  1  0  0  0  0
 19 12  1  0  0  0  0
 20 13  1  0  0  0  0
 21 16  1  0  0  0  0
 22 10  1  0  0  0  0
 23 25  1  0  0  0  0
 24 23  1  0  0  0  0
 26 27  2  0  0  0  0
 27 30  1  0  0  0  0
 28 34  1  0  0  0  0
 29 28  2  0  0  0  0
 30 32  2  0  0  0  0
 31 29  1  0  0  0  0
 32 28  1  0  0  0  0
 33 31  2  0  0  0  0
 33 30  1  0  0  0  0
M  END
>  <MODEL>
2

>  <REMARK>
 VINA RESULT:      -7.6      2.943      7.244
  Name = 
  3 active torsions:
  status: ('A' for Active; 'I' for Inactive)
    1  A    between atoms: C_12  and  C_28
    2  A    between atoms: C_13  and  C_29
    3  A    between atoms: C_21  and  C_28
                            x       y       z     vdW  Elec       q    Type
                         _______ _______ _______ _____ _____    ______ ____

>  <TORSDO>
F 3

$$$$
=
 OpenBabel11052418423D

 34 37  0  0  1  0  0  0  0  0999 V2000
  190.2530  172.9610  140.1070 C   0  0  2  0  0  3  0  0  0  0  0  0
  191.2930  172.0580  142.2460 C   0  0  0  0  0  0  0  0  0  0  0  0
  195.5260  173.2080  143.4580 C   0  0  0  0  0  2  0  0  0  0  0  0
  190.8360  174.5410  142.0360 C   0  0  1  0  0  3  0  0  0  0  0  0
  193.3150  175.8450  141.7530 C   0  0  0  0  0  1  0  0  0  0  0  0
  187.9180  172.7190  139.6930 O   0  0  0  0  0  0  0  0  0  0  0  0
  191.1480  170.8830  141.8120 O   0  0  0  0  0  0  0  0  0  0  0  0
  191.5710  173.5930  144.2340 C   0  0  0  0  0  2  0  0  0  0  0  0
  195.6170  172.4590  144.7790 C   0  0  0  0  0  2  0  0  0  0  0  0
  194.2340  172.1070  145.2940 C   0  0  0  0  0  2  0  0  0  0  0  0
  191.1680  173.2270  141.3070 C   0  0  2  0  0  3  0  0  0  0  0  0
  195.5420  174.7190  143.6650 C   0  0  0  0  0  2  0  0  0  0  0  0
  193.2060  174.8580  142.8240 N   0  0  0  0  0  0  0  0  0  0  0  0
  190.6650  173.7410  139.0260 O   0  0  0  0  0  1  0  0  0  0  0  0
  192.0990  171.1590  144.4480 C   0  0  0  0  0  2  0  0  0  0  0  0
  189.3620  174.5990  142.4760 C   0  0  2  0  0  3  0  0  0  0  0  0
  188.8130  173.2440  140.4050 C   0  0  0  0  0  0  0  0  0  0  0  0
  191.6990  172.2790  143.6070 N   0  0  0  0  0  0  0  0  0  0  0  0
  194.1470  175.3370  143.8660 C   0  0  1  0  0  3  0  0  0  0  0  0
  191.7870  174.7470  143.2360 C   0  0  1  0  0  3  0  0  0  0  0  0
  188.4470  174.1810  141.4200 N   0  0  0  0  0  2  0  0  0  0  0  0
  193.6100  171.0150  144.4390 C   0  0  0  0  0  2  0  0  0  0  0  0
  193.6500  175.3560  145.3320 C   0  0  0  0  0  3  0  0  0  0  0  0
  192.7360  176.5470  145.5530 C   0  0  0  0  0  1  0  0  0  0  0  0
  194.7910  175.4650  146.3320 C   0  0  0  0  0  1  0  0  0  0  0  0
  189.2520  176.9590  142.2740 O   0  0  0  0  0  0  0  0  0  0  0  0
  188.9780  175.9570  142.9880 C   0  0  0  0  0  0  0  0  0  0  0  0
  186.3720  176.9070  145.5760 C   0  0  0  0  0  0  0  0  0  0  0  0
  187.0050  176.5110  146.7570 C   0  0  0  0  0  3  0  0  0  0  0  0
  188.2890  176.1490  144.2850 C   0  0  0  0  0  0  0  0  0  0  0  0
  188.2770  175.9350  146.7070 C   0  0  0  0  0  3  0  0  0  0  0  0
  187.0110  176.7270  144.3470 C   0  0  0  0  0  3  0  0  0  0  0  0
  188.9150  175.7550  145.4770 C   0  0  0  0  0  3  0  0  0  0  0  0
  185.0780  177.4950  145.6250 N   0  0  0  0  0  1  0  0  0  0  0  0
  1 14  1  6  0  0  0
  1 17  1  0  0  0  0
  1 11  1  0  0  0  0
  2 18  1  0  0  0  0
  3 12  1  0  0  0  0
  3  9  1  0  0  0  0
  4 16  1  0  0  0  0
  4 20  1  0  0  0  0
  5 13  1  0  0  0  0
  6 17  2  0  0  0  0
  7  2  2  0  0  0  0
  9 10  1  0  0  0  0
 11  4  1  0  0  0  0
 11  2  1  0  0  0  0
 12 19  1  0  0  0  0
 13 20  1  0  0  0  0
 13 19  1  0  0  0  0
 16 27  1  0  0  0  0
 17 21  1  0  0  0  0
 18  8  1  0  0  0  0
 18 15  1  0  0  0  0
 19 23  1  0  0  0  0
 20  8  1  0  0  0  0
 21 16  1  0  0  0  0
 22 15  1  0  0  0  0
 22 10  1  0  0  0  0
 23 24  1  0  0  0  0
 23 25  1  0  0  0  0
 26 27  2  0  0  0  0
 27 30  1  0  0  0  0
 28 34  1  0  0  0  0
 28 29  1  0  0  0  0
 30 32  1  0  0  0  0
 30 33  2  0  0  0  0
 31 29  2  0  0  0  0
 32 28  2  0  0  0  0
 33 31  1  0  0  0  0
M  END
>  <MODEL>
3

>  <REMARK>
 VINA RESULT:      -7.5      3.139      5.616
  Name = 
  3 active torsions:
  status: ('A' for Active; 'I' for Inactive)
    1  A    between atoms: C_12  and  C_28
    2  A    between atoms: C_13  and  C_29
    3  A    between atoms: C_21  and  C_28
                            x       y       z     vdW  Elec       q    Type
                         _______ _______ _______ _____ _____    ______ ____

>  <TORSDO>
F 3

$$$$
=
 OpenBabel11052418423D

 34 37  0  0  1  0  0  0  0  0999 V2000
  189.2140  175.6470  147.1040 C   0  0  2  0  0  3  0  0  0  0  0  0
  191.4250  176.1360  145.9430 C   0  0  0  0  0  0  0  0  0  0  0  0
  194.3170  172.7790  144.9060 C   0  0  0  0  0  2  0  0  0  0  0  0
  189.6550  174.7870  144.7330 C   0  0  1  0  0  3  0  0  0  0  0  0
  190.5440  172.1190  144.6180 C   0  0  0  0  0  1  0  0  0  0  0  0
  187.5230  177.3210  147.2550 O   0  0  0  0  0  0  0  0  0  0  0  0
  191.7620  176.8700  146.9120 O   0  0  0  0  0  0  0  0  0  0  0  0
  191.7040  175.5360  143.5040 C   0  0  0  0  0  2  0  0  0  0  0  0
  195.4010  173.5920  144.2140 C   0  0  0  0  0  2  0  0  0  0  0  0
  194.8650  174.9440  143.7810 C   0  0  0  0  0  2  0  0  0  0  0  0
  190.2640  175.1890  146.0880 C   0  0  2  0  0  3  0  0  0  0  0  0
  193.6000  171.8510  143.9300 C   0  0  0  0  0  2  0  0  0  0  0  0
  191.5030  173.1510  144.2350 N   0  0  0  0  0  0  0  0  0  0  0  0
  188.5760  174.5330  147.6480 O   0  0  0  0  0  1  0  0  0  0  0  0
  193.4990  176.8060  144.6960 C   0  0  0  0  0  2  0  0  0  0  0  0
  188.7970  175.9150  144.1300 C   0  0  2  0  0  3  0  0  0  0  0  0
  188.1920  176.5630  146.5050 C   0  0  0  0  0  0  0  0  0  0  0  0
  192.2190  176.1120  144.7460 N   0  0  0  0  0  0  0  0  0  0  0  0
  192.3820  172.4900  143.2400 C   0  0  1  0  0  3  0  0  0  0  0  0
  190.7640  174.3420  143.7530 C   0  0  1  0  0  3  0  0  0  0  0  0
  187.8960  176.5150  145.1080 N   0  0  0  0  0  2  0  0  0  0  0  0
  194.6280  175.8350  144.9890 C   0  0  0  0  0  2  0  0  0  0  0  0
  192.7050  173.2610  141.9370 C   0  0  0  0  0  3  0  0  0  0  0  0
  191.5460  173.1400  140.9640 C   0  0  0  0  0  1  0  0  0  0  0  0
  193.9450  172.7280  141.2370 C   0  0  0  0  0  1  0  0  0  0  0  0
  188.1460  174.2550  142.5670 O   0  0  0  0  0  0  0  0  0  0  0  0
  188.0260  175.4570  142.9260 C   0  0  0  0  0  0  0  0  0  0  0  0
  185.1440  177.7530  142.0230 C   0  0  0  0  0  0  0  0  0  0  0  0
  185.4560  178.0730  140.6990 C   0  0  0  0  0  3  0  0  0  0  0  0
  187.1350  176.3630  142.1640 C   0  0  0  0  0  0  0  0  0  0  0  0
  186.6040  177.5410  140.1050 C   0  0  0  0  0  3  0  0  0  0  0  0
  185.9790  176.9030  142.7510 C   0  0  0  0  0  3  0  0  0  0  0  0
  187.4390  176.6910  140.8350 C   0  0  0  0  0  3  0  0  0  0  0  0
  183.9760  178.2920  142.6290 N   0  0  0  0  0  1  0  0  0  0  0  0
  1 14  1  6  0  0  0
  2 11  1  0  0  0  0
  2  7  2  0  0  0  0
  4 11  1  0  0  0  0
  8 20  1  0  0  0  0
  8 18  1  0  0  0  0
  9  3  1  0  0  0  0
 10  9  1  0  0  0  0
 10 22  1  0  0  0  0
 11  1  1  0  0  0  0
 12  3  1  0  0  0  0
 13  5  1  0  0  0  0
 15 18  1  0  0  0  0
 15 22  1  0  0  0  0
 16  4  1  0  0  0  0
 16 21  1  0  0  0  0
 17  1  1  0  0  0  0
 17  6  2  0  0  0  0
 18  2  1  0  0  0  0
 19 12  1  0  0  0  0
 19 13  1  0  0  0  0
 20 13  1  0  0  0  0
 20  4  1  0  0  0  0
 21 17  1  0  0  0  0
 23 19  1  0  0  0  0
 24 23  1  0  0  0  0
 25 23  1  0  0  0  0
 26 27  2  0  0  0  0
 27 16  1  0  0  0  0
 28 34  1  0  0  0  0
 28 32  1  0  0  0  0
 29 28  2  0  0  0  0
 30 32  2  0  0  0  0
 30 27  1  0  0  0  0
 31 29  1  0  0  0  0
 31 33  2  0  0  0  0
 33 30  1  0  0  0  0
M  END
>  <MODEL>
4

>  <REMARK>
 VINA RESULT:      -7.1      1.991      2.994
  Name = 
  3 active torsions:
  status: ('A' for Active; 'I' for Inactive)
    1  A    between atoms: C_12  and  C_28
    2  A    between atoms: C_13  and  C_29
    3  A    between atoms: C_21  and  C_28
                            x       y       z     vdW  Elec       q    Type
                         _______ _______ _______ _____ _____    ______ ____

>  <TORSDO>
F 3

$$$$
=
 OpenBabel11052418423D

 34 37  0  0  1  0  0  0  0  0999 V2000
  190.8760  175.8840  147.0410 C   0  0  2  0  0  3  0  0  0  0  0  0
  192.3080  175.8490  144.9380 C   0  0  0  0  0  0  0  0  0  0  0  0
  193.1470  171.9530  142.7410 C   0  0  0  0  0  2  0  0  0  0  0  0
  189.8550  175.2370  144.7840 C   0  0  1  0  0  3  0  0  0  0  0  0
  189.6920  172.4630  144.3410 C   0  0  0  0  0  1  0  0  0  0  0  0
  190.0810  177.9450  147.9360 O   0  0  0  0  0  0  0  0  0  0  0  0
  193.2730  176.3250  145.5960 O   0  0  0  0  0  0  0  0  0  0  0  0
  191.2050  175.5050  142.6910 C   0  0  0  0  0  2  0  0  0  0  0  0
  193.9730  172.4940  141.5840 C   0  0  0  0  0  2  0  0  0  0  0  0
  193.7540  173.9860  141.4200 C   0  0  0  0  0  2  0  0  0  0  0  0
  191.1200  175.2710  145.6590 C   0  0  2  0  0  3  0  0  0  0  0  0
  191.8050  171.4040  142.2670 C   0  0  0  0  0  2  0  0  0  0  0  0
  190.6290  173.2100  143.5070 N   0  0  0  0  0  0  0  0  0  0  0  0
  190.2530  174.9450  147.8630 O   0  0  0  0  0  1  0  0  0  0  0  0
  193.6450  176.0360  142.8200 C   0  0  0  0  0  2  0  0  0  0  0  0
  189.2210  176.6320  144.6340 C   0  0  2  0  0  3  0  0  0  0  0  0
  190.0410  177.1260  146.9820 C   0  0  0  0  0  0  0  0  0  0  0  0
  192.3940  175.7440  143.5080 N   0  0  0  0  0  0  0  0  0  0  0  0
  190.6780  172.4510  142.2330 C   0  0  1  0  0  3  0  0  0  0  0  0
  190.1690  174.6150  143.4040 C   0  0  1  0  0  3  0  0  0  0  0  0
  189.1270  177.3420  145.9060 N   0  0  0  0  0  2  0  0  0  0  0  0
  194.4070  174.7490  142.5610 C   0  0  0  0  0  2  0  0  0  0  0  0
  190.5760  173.2530  140.9120 C   0  0  0  0  0  3  0  0  0  0  0  0
  189.1230  173.5770  140.6150 C   0  0  0  0  0  1  0  0  0  0  0  0
  191.1230  172.4820  139.7210 C   0  0  0  0  0  1  0  0  0  0  0  0
  187.6800  175.6800  143.1060 O   0  0  0  0  0  0  0  0  0  0  0  0
  187.8760  176.5750  143.9710 C   0  0  0  0  0  0  0  0  0  0  0  0
  184.9140  178.1880  145.7090 C   0  0  0  0  0  0  0  0  0  0  0  0
  184.7210  179.3240  144.9190 C   0  0  0  0  0  3  0  0  0  0  0  0
  186.7860  177.5210  144.3070 C   0  0  0  0  0  0  0  0  0  0  0  0
  185.5560  179.5620  143.8240 C   0  0  0  0  0  3  0  0  0  0  0  0
  185.9410  177.2920  145.4040 C   0  0  0  0  0  3  0  0  0  0  0  0
  186.5830  178.6640  143.5200 C   0  0  0  0  0  3  0  0  0  0  0  0
  184.0650  177.9430  146.8230 N   0  0  0  0  0  1  0  0  0  0  0  0
  1 14  1  1  0  0  0
  2  7  2  0  0  0  0
  2 11  1  0  0  0  0
  4 11  1  0  0  0  0
  8 20  1  0  0  0  0
  8 18  1  0  0  0  0
  9  3  1  0  0  0  0
 10  9  1  0  0  0  0
 10 22  1  0  0  0  0
 11  1  1  0  0  0  0
 12  3  1  0  0  0  0
 13  5  1  0  0  0  0
 15 18  1  0  0  0  0
 16  4  1  0  0  0  0
 16 21  1  0  0  0  0
 17  1  1  0  0  0  0
 17  6  2  0  0  0  0
 18  2  1  0  0  0  0
 19 12  1  0  0  0  0
 19 13  1  0  0  0  0
 20 13  1  0  0  0  0
 20  4  1  0  0  0  0
 21 17  1  0  0  0  0
 22 15  1  0  0  0  0
 23 19  1  0  0  0  0
 24 23  1  0  0  0  0
 25 23  1  0  0  0  0
 26 27  2  0  0  0  0
 27 30  1  0  0  0  0
 27 16  1  0  0  0  0
 28 34  1  0  0  0  0
 29 28  2  0  0  0  0
 30 32  2  0  0  0  0
 31 29  1  0  0  0  0
 32 28  1  0  0  0  0
 33 31  2  0  0  0  0
 33 30  1  0  0  0  0
M  END
>  <MODEL>
5

>  <REMARK>
 VINA RESULT:      -7.0      1.576      1.882
  Name = 
  3 active torsions:
  status: ('A' for Active; 'I' for Inactive)
    1  A    between atoms: C_12  and  C_28
    2  A    between atoms: C_13  and  C_29
    3  A    between atoms: C_21  and  C_28
                            x       y       z     vdW  Elec       q    Type
                         _______ _______ _______ _____ _____    ______ ____

>  <TORSDO>
F 3

$$$$
=
 OpenBabel11052418423D

 34 37  0  0  1  0  0  0  0  0999 V2000
  189.2140  173.3950  140.8350 C   0  0  2  0  0  3  0  0  0  0  0  0
  189.0740  175.6070  142.0860 C   0  0  0  0  0  0  0  0  0  0  0  0
  187.9260  175.7390  146.4870 C   0  0  0  0  0  2  0  0  0  0  0  0
  190.8360  173.9110  142.7470 C   0  0  1  0  0  3  0  0  0  0  0  0
  190.0820  172.8200  145.2290 C   0  0  0  0  0  1  0  0  0  0  0  0
  190.2250  173.2790  138.6790 O   0  0  0  0  0  0  0  0  0  0  0  0
  188.1900  176.0000  141.2770 O   0  0  0  0  0  0  0  0  0  0  0  0
  190.8760  176.2040  143.7540 C   0  0  0  0  0  2  0  0  0  0  0  0
  188.0400  177.2370  146.7270 C   0  0  0  0  0  2  0  0  0  0  0  0
  188.8780  177.8920  145.6460 C   0  0  0  0  0  2  0  0  0  0  0  0
  189.4380  174.1480  142.1500 C   0  0  2  0  0  3  0  0  0  0  0  0
  188.9910  174.9630  147.2550 C   0  0  0  0  0  2  0  0  0  0  0  0
  190.0370  174.2740  145.1070 N   0  0  0  0  0  0  0  0  0  0  0  0
  188.9420  172.0540  141.1070 O   0  0  0  0  0  1  0  0  0  0  0  0
  189.1050  177.8710  143.1720 C   0  0  0  0  0  2  0  0  0  0  0  0
  191.9550  174.2560  141.7480 C   0  0  2  0  0  3  0  0  0  0  0  0
  190.3870  173.4880  139.9090 C   0  0  0  0  0  0  0  0  0  0  0  0
  189.6470  176.5260  143.0300 N   0  0  0  0  0  0  0  0  0  0  0  0
  190.3050  174.7700  146.4790 C   0  0  1  0  0  3  0  0  0  0  0  0
  191.0010  174.7010  144.0660 C   0  0  1  0  0  3  0  0  0  0  0  0
  191.7040  173.7110  140.4180 N   0  0  0  0  0  2  0  0  0  0  0  0
  188.1220  177.9160  144.3280 C   0  0  0  0  0  2  0  0  0  0  0  0
  191.3300  175.9190  146.6430 C   0  0  0  0  0  3  0  0  0  0  0  0
  192.7420  175.3670  146.5670 C   0  0  0  0  0  1  0  0  0  0  0  0
  191.1910  176.6360  147.9760 C   0  0  0  0  0  1  0  0  0  0  0  0
  194.3160  174.4540  141.8280 O   0  0  0  0  0  0  0  0  0  0  0  0
  193.3060  173.8230  142.2390 C   0  0  0  0  0  0  0  0  0  0  0  0
  193.1960  170.3520  143.7670 C   0  0  0  0  0  0  0  0  0  0  0  0
  193.8160  170.5770  144.9990 C   0  0  0  0  0  3  0  0  0  0  0  0
  193.4810  172.6960  143.1860 C   0  0  0  0  0  0  0  0  0  0  0  0
  194.2690  171.8580  145.3270 C   0  0  0  0  0  3  0  0  0  0  0  0
  193.0290  171.4060  142.8660 C   0  0  0  0  0  3  0  0  0  0  0  0
  194.1030  172.9120  144.4250 C   0  0  0  0  0  3  0  0  0  0  0  0
  192.7330  169.0500  143.4310 N   0  0  0  0  0  1  0  0  0  0  0  0
  1 14  1  1  0  0  0
  1 11  1  0  0  0  0
  2 11  1  0  0  0  0
  2 18  1  0  0  0  0
  3  9  1  0  0  0  0
  3 12  1  0  0  0  0
  4 20  1  0  0  0  0
  6 17  2  0  0  0  0
  7  2  2  0  0  0  0
  8 20  1  0  0  0  0
 10  9  1  0  0  0  0
 11  4  1  0  0  0  0
 13  5  1  0  0  0  0
 13 19  1  0  0  0  0
 15 22  1  0  0  0  0
 16 27  1  0  0  0  0
 16  4  1  0  0  0  0
 17 21  1  0  0  0  0
 17  1  1  0  0  0  0
 18 15  1  0  0  0  0
 18  8  1  0  0  0  0
 19 23  1  0  0  0  0
 19 12  1  0  0  0  0
 20 13  1  0  0  0  0
 21 16  1  0  0  0  0
 22 10  1  0  0  0  0
 23 25  1  0  0  0  0
 24 23  1  0  0  0  0
 26 27  2  0  0  0  0
 27 30  1  0  0  0  0
 28 29  1  0  0  0  0
 29 31  2  0  0  0  0
 30 33  2  0  0  0  0
 32 30  1  0  0  0  0
 32 28  2  0  0  0  0
 33 31  1  0  0  0  0
 34 28  1  0  0  0  0
M  END
>  <MODEL>
6

>  <REMARK>
 VINA RESULT:      -7.0      2.885      7.328
  Name = 
  3 active torsions:
  status: ('A' for Active; 'I' for Inactive)
    1  A    between atoms: C_12  and  C_28
    2  A    between atoms: C_13  and  C_29
    3  A    between atoms: C_21  and  C_28
                            x       y       z     vdW  Elec       q    Type
                         _______ _______ _______ _____ _____    ______ ____

>  <TORSDO>
F 3

$$$$
=
 OpenBabel11052418423D

 34 37  0  0  1  0  0  0  0  0999 V2000
  188.3670  173.6660  140.4580 C   0  0  2  0  0  3  0  0  0  0  0  0
  188.9410  175.7070  141.8660 C   0  0  0  0  0  0  0  0  0  0  0  0
  188.3970  175.6640  146.3830 C   0  0  0  0  0  2  0  0  0  0  0  0
  190.2830  173.5790  142.1540 C   0  0  1  0  0  3  0  0  0  0  0  0
  189.5800  172.4540  144.6360 C   0  0  0  0  0  1  0  0  0  0  0  0
  189.0510  173.5300  138.1790 O   0  0  0  0  0  0  0  0  0  0  0  0
  188.0940  176.3820  141.2180 O   0  0  0  0  0  0  0  0  0  0  0  0
  191.0210  175.6800  143.3000 C   0  0  0  0  0  2  0  0  0  0  0  0
  188.9130  177.0570  146.7080 C   0  0  0  0  0  2  0  0  0  0  0  0
  189.7540  177.5980  145.5670 C   0  0  0  0  0  2  0  0  0  0  0  0
  188.9290  174.2050  141.7770 C   0  0  2  0  0  3  0  0  0  0  0  0
  189.3150  174.5790  146.9380 C   0  0  0  0  0  2  0  0  0  0  0  0
  189.8890  173.8810  144.6220 N   0  0  0  0  0  0  0  0  0  0  0  0
  187.8000  172.4100  140.6720 O   0  0  0  0  0  1  0  0  0  0  0  0
  189.6710  177.7740  143.0900 C   0  0  0  0  0  2  0  0  0  0  0  0
  191.3260  173.7440  141.0330 C   0  0  2  0  0  3  0  0  0  0  0  0
  189.4070  173.5670  139.3850 C   0  0  0  0  0  0  0  0  0  0  0  0
  189.8350  176.3600  142.7810 N   0  0  0  0  0  0  0  0  0  0  0  0
  190.4360  174.1550  145.9730 C   0  0  1  0  0  3  0  0  0  0  0  0
  190.7980  174.1670  143.4870 C   0  0  1  0  0  3  0  0  0  0  0  0
  190.7880  173.4130  139.7170 N   0  0  0  0  0  2  0  0  0  0  0  0
  188.8770  177.9370  144.3730 C   0  0  0  0  0  2  0  0  0  0  0  0
  191.7300  175.0010  146.0700 C   0  0  0  0  0  3  0  0  0  0  0  0
  192.9350  174.1420  145.7320 C   0  0  0  0  0  1  0  0  0  0  0  0
  191.9510  175.5690  147.4630 C   0  0  0  0  0  1  0  0  0  0  0  0
  193.6790  173.4610  140.9770 O   0  0  0  0  0  0  0  0  0  0  0  0
  192.5720  172.9500  141.2970 C   0  0  0  0  0  0  0  0  0  0  0  0
  191.6590  169.3420  142.0360 C   0  0  0  0  0  0  0  0  0  0  0  0
  192.4860  169.0710  143.1280 C   0  0  0  0  0  3  0  0  0  0  0  0
  192.5390  171.6070  141.9230 C   0  0  0  0  0  0  0  0  0  0  0  0
  193.3390  170.0620  143.6210 C   0  0  0  0  0  3  0  0  0  0  0  0
  191.6850  170.6040  141.4360 C   0  0  0  0  0  3  0  0  0  0  0  0
  193.3650  171.3230  143.0200 C   0  0  0  0  0  3  0  0  0  0  0  0
  190.7880  168.3360  141.5340 N   0  0  0  0  0  1  0  0  0  0  0  0
  1 14  1  1  0  0  0
  1 11  1  0  0  0  0
  2 18  1  0  0  0  0
  3  9  1  0  0  0  0
  3 12  1  0  0  0  0
  4 20  1  0  0  0  0
  6 17  2  0  0  0  0
  7  2  2  0  0  0  0
  8 20  1  0  0  0  0
 10  9  1  0  0  0  0
 11  2  1  0  0  0  0
 11  4  1  0  0  0  0
 13  5  1  0  0  0  0
 13 19  1  0  0  0  0
 15 22  1  0  0  0  0
 16 27  1  0  0  0  0
 16  4  1  0  0  0  0
 17 21  1  0  0  0  0
 17  1  1  0  0  0  0
 18 15  1  0  0  0  0
 18  8  1  0  0  0  0
 19 23  1  0  0  0  0
 19 12  1  0  0  0  0
 20 13  1  0  0  0  0
 21 16  1  0  0  0  0
 22 10  1  0  0  0  0
 23 25  1  0  0  0  0
 24 23  1  0  0  0  0
 26 27  2  0  0  0  0
 27 30  1  0  0  0  0
 28 29  1  0  0  0  0
 29 31  2  0  0  0  0
 30 33  2  0  0  0  0
 32 30  1  0  0  0  0
 32 28  2  0  0  0  0
 33 31  1  0  0  0  0
 34 28  1  0  0  0  0
M  END
>  <MODEL>
7

>  <REMARK>
 VINA RESULT:      -6.9      3.067      7.413
  Name = 
  3 active torsions:
  status: ('A' for Active; 'I' for Inactive)
    1  A    between atoms: C_12  and  C_28
    2  A    between atoms: C_13  and  C_29
    3  A    between atoms: C_21  and  C_28
                            x       y       z     vdW  Elec       q    Type
                         _______ _______ _______ _____ _____    ______ ____

>  <TORSDO>
F 3

$$$$
=
 OpenBabel11052418423D

 34 37  0  0  1  0  0  0  0  0999 V2000
  194.2750  176.0660  146.0220 C   0  0  2  0  0  3  0  0  0  0  0  0
  191.8640  175.4110  146.5070 C   0  0  0  0  0  0  0  0  0  0  0  0
  188.3980  177.9290  144.9730 C   0  0  0  0  0  2  0  0  0  0  0  0
  192.7060  175.3780  144.1180 C   0  0  1  0  0  3  0  0  0  0  0  0
  191.5160  177.5390  142.7630 C   0  0  0  0  0  1  0  0  0  0  0  0
  196.0580  174.5410  146.4400 O   0  0  0  0  0  0  0  0  0  0  0  0
  192.0980  175.4960  147.7430 O   0  0  0  0  0  0  0  0  0  0  0  0
  190.4430  174.4490  144.6520 C   0  0  0  0  0  2  0  0  0  0  0  0
  187.2370  177.0910  145.4870 C   0  0  0  0  0  2  0  0  0  0  0  0
  187.6950  175.6820  145.8140 C   0  0  0  0  0  2  0  0  0  0  0  0
  192.8290  176.0060  145.5170 C   0  0  2  0  0  3  0  0  0  0  0  0
  188.4710  177.9160  143.4490 C   0  0  0  0  0  2  0  0  0  0  0  0
  190.6330  176.6940  143.5630 N   0  0  0  0  0  0  0  0  0  0  0  0
  194.9350  177.1340  145.4130 O   0  0  0  0  0  1  0  0  0  0  0  0
  189.5600  174.5370  146.9900 C   0  0  0  0  0  2  0  0  0  0  0  0
  193.3420  173.9770  144.0580 C   0  0  2  0  0  3  0  0  0  0  0  0
  195.0300  174.8000  145.7620 C   0  0  0  0  0  0  0  0  0  0  0  0
  190.6220  174.8570  146.0450 N   0  0  0  0  0  0  0  0  0  0  0  0
  189.3220  176.7710  142.8730 C   0  0  1  0  0  3  0  0  0  0  0  0
  191.2270  175.3410  143.6710 C   0  0  1  0  0  3  0  0  0  0  0  0
  194.6580  173.9330  144.6890 N   0  0  0  0  0  2  0  0  0  0  0  0
  188.5650  175.6810  147.0610 C   0  0  0  0  0  2  0  0  0  0  0  0
  188.5540  175.4470  142.6350 C   0  0  0  0  0  3  0  0  0  0  0  0
  189.1130  174.7370  141.4160 C   0  0  0  0  0  1  0  0  0  0  0  0
  187.0700  175.6720  142.3910 C   0  0  0  0  0  1  0  0  0  0  0  0
  194.4070  173.7990  141.9470 O   0  0  0  0  0  0  0  0  0  0  0  0
  193.4230  173.4530  142.6530 C   0  0  0  0  0  0  0  0  0  0  0  0
  191.0780  171.7530  140.2030 C   0  0  0  0  0  0  0  0  0  0  0  0
  190.4410  170.8260  141.0330 C   0  0  0  0  0  3  0  0  0  0  0  0
  192.3960  172.5470  142.0860 C   0  0  0  0  0  0  0  0  0  0  0  0
  190.7790  170.7570  142.3880 C   0  0  0  0  0  3  0  0  0  0  0  0
  192.0500  172.6080  140.7270 C   0  0  0  0  0  3  0  0  0  0  0  0
  191.7520  171.6130  142.9110 C   0  0  0  0  0  3  0  0  0  0  0  0
  190.7350  171.8260  138.8240 N   0  0  0  0  0  1  0  0  0  0  0  0
  1 14  1  6  0  0  0
  2  7  2  0  0  0  0
  3  9  1  0  0  0  0
  4 11  1  0  0  0  0
  5 13  1  0  0  0  0
  8 18  1  0  0  0  0
  9 10  1  0  0  0  0
 10 22  1  0  0  0  0
 11  1  1  0  0  0  0
 11  2  1  0  0  0  0
 12  3  1  0  0  0  0
 13 20  1  0  0  0  0
 15 22  1  0  0  0  0
 16  4  1  0  0  0  0
 16 21  1  0  0  0  0
 17  1  1  0  0  0  0
 17  6  2  0  0  0  0
 18  2  1  0  0  0  0
 18 15  1  0  0  0  0
 19 12  1  0  0  0  0
 19 13  1  0  0  0  0
 20  4  1  0  0  0  0
 20  8  1  0  0  0  0
 21 17  1  0  0  0  0
 23 19  1  0  0  0  0
 24 23  1  0  0  0  0
 25 23  1  0  0  0  0
 26 27  2  0  0  0  0
 27 16  1  0  0  0  0
 28 32  2  0  0  0  0
 28 29  1  0  0  0  0
 29 31  2  0  0  0  0
 30 27  1  0  0  0  0
 30 33  2  0  0  0  0
 31 33  1  0  0  0  0
 32 30  1  0  0  0  0
 34 28  1  0  0  0  0
M  END
>  <MODEL>
8

>  <REMARK>
 VINA RESULT:      -6.9      2.091      6.042
  Name = 
  3 active torsions:
  status: ('A' for Active; 'I' for Inactive)
    1  A    between atoms: C_12  and  C_28
    2  A    between atoms: C_13  and  C_29
    3  A    between atoms: C_21  and  C_28
                            x       y       z     vdW  Elec       q    Type
                         _______ _______ _______ _____ _____    ______ ____

>  <TORSDO>
F 3

$$$$
=
 OpenBabel11052418423D

 34 37  0  0  1  0  0  0  0  0999 V2000
  188.1320  176.9630  141.7280 C   0  0  2  0  0  3  0  0  0  0  0  0
  189.5690  174.8660  141.8320 C   0  0  0  0  0  0  0  0  0  0  0  0
  194.0840  175.1430  142.3300 C   0  0  0  0  0  2  0  0  0  0  0  0
  189.4000  176.3600  143.8700 C   0  0  1  0  0  3  0  0  0  0  0  0
  191.8650  177.6850  144.1660 C   0  0  0  0  0  1  0  0  0  0  0  0
  185.7590  176.8210  141.9060 O   0  0  0  0  0  0  0  0  0  0  0  0
  189.1640  174.5410  140.6820 O   0  0  0  0  0  0  0  0  0  0  0  0
  190.5550  174.1450  144.0440 C   0  0  0  0  0  2  0  0  0  0  0  0
  194.4190  173.6600  142.3770 C   0  0  0  0  0  2  0  0  0  0  0  0
  193.1850  172.8400  142.7030 C   0  0  0  0  0  2  0  0  0  0  0  0
  189.3550  176.2680  142.3350 C   0  0  2  0  0  3  0  0  0  0  0  0
  194.3490  175.8230  143.6700 C   0  0  0  0  0  2  0  0  0  0  0  0
  191.9140  176.2440  143.9380 N   0  0  0  0  0  0  0  0  0  0  0  0
  188.3450  178.3410  141.7040 O   0  0  0  0  0  1  0  0  0  0  0  0
  190.7990  172.6850  142.0290 C   0  0  0  0  0  2  0  0  0  0  0  0
  188.1130  175.8170  144.5170 C   0  0  2  0  0  3  0  0  0  0  0  0
  186.8700  176.6670  142.4770 C   0  0  0  0  0  0  0  0  0  0  0  0
  190.3420  173.9400  142.6120 N   0  0  0  0  0  0  0  0  0  0  0  0
  193.1480  175.8000  144.6310 C   0  0  1  0  0  3  0  0  0  0  0  0
  190.6500  175.6360  144.4180 C   0  0  1  0  0  3  0  0  0  0  0  0
  186.9060  176.3100  143.8600 N   0  0  0  0  0  2  0  0  0  0  0  0
  192.2240  172.8340  141.5260 C   0  0  0  0  0  2  0  0  0  0  0  0
  193.0590  174.5420  145.5290 C   0  0  0  0  0  3  0  0  0  0  0  0
  192.4930  174.9150  146.8870 C   0  0  0  0  0  1  0  0  0  0  0  0
  194.4160  173.8970  145.7630 C   0  0  0  0  0  1  0  0  0  0  0  0
  188.7520  175.3900  146.7590 O   0  0  0  0  0  0  0  0  0  0  0  0
  188.0550  176.1040  145.9890 C   0  0  0  0  0  0  0  0  0  0  0  0
  185.1380  178.4460  146.6210 C   0  0  0  0  0  0  0  0  0  0  0  0
  185.6570  179.2610  147.6310 C   0  0  0  0  0  3  0  0  0  0  0  0
  187.2200  177.1900  146.5530 C   0  0  0  0  0  0  0  0  0  0  0  0
  186.9550  179.0440  148.1040 C   0  0  0  0  0  3  0  0  0  0  0  0
  185.9160  177.4170  146.0850 C   0  0  0  0  0  3  0  0  0  0  0  0
  187.7310  178.0130  147.5670 C   0  0  0  0  0  3  0  0  0  0  0  0
  183.8190  178.6660  146.1380 N   0  0  0  0  0  1  0  0  0  0  0  0
  1 14  1  1  0  0  0
  1 11  1  0  0  0  0
  1 17  1  0  0  0  0
  2 11  1  0  0  0  0
  2 18  1  0  0  0  0
  3  9  1  0  0  0  0
  3 12  1  0  0  0  0
  4 20  1  0  0  0  0
  4 16  1  0  0  0  0
  6 17  2  0  0  0  0
  7  2  2  0  0  0  0
  8 20  1  0  0  0  0
  9 10  1  0  0  0  0
 11  4  1  0  0  0  0
 12 19  1  0  0  0  0
 13  5  1  0  0  0  0
 13 20  1  0  0  0  0
 13 19  1  0  0  0  0
 15 18  1  0  0  0  0
 16 27  1  0  0  0  0
 17 21  1  0  0  0  0
 18  8  1  0  0  0  0
 19 23  1  0  0  0  0
 21 16  1  0  0  0  0
 22 15  1  0  0  0  0
 22 10  1  0  0  0  0
 23 25  1  0  0  0  0
 23 24  1  0  0  0  0
 27 30  1  0  0  0  0
 27 26  2  0  0  0  0
 28 29  1  0  0  0  0
 29 31  2  0  0  0  0
 30 33  2  0  0  0  0
 32 30  1  0  0  0  0
 32 28  2  0  0  0  0
 33 31  1  0  0  0  0
 34 28  1  0  0  0  0
M  END
>  <MODEL>
9

>  <REMARK>
 VINA RESULT:      -6.9      2.529      4.710
  Name = 
  3 active torsions:
  status: ('A' for Active; 'I' for Inactive)
    1  A    between atoms: C_12  and  C_28
    2  A    between atoms: C_13  and  C_29
    3  A    between atoms: C_21  and  C_28
                            x       y       z     vdW  Elec       q    Type
                         _______ _______ _______ _____ _____    ______ ____

>  <TORSDO>
F 3

$$$$
