=
 OpenBabel11052421323D

 32 36  0  0  1  0  0  0  0  0999 V2000
  194.4660  175.6870  143.0640 C   0  0  0  0  0  3  0  0  0  0  0  0
  189.4410  176.1310  144.7540 C   0  0  0  0  0  0  0  0  0  0  0  0
  187.3330  177.2300  140.5930 C   0  0  0  0  0  3  0  0  0  0  0  0
  186.1020  177.2990  141.2490 C   0  0  0  0  0  3  0  0  0  0  0  0
  191.8370  175.7370  144.8970 C   0  0  0  0  0  0  0  0  0  0  0  0
  190.8100  176.2890  142.7630 C   0  0  0  0  0  3  0  0  0  0  0  0
  193.2110  175.9710  142.7030 C   0  0  0  0  0  3  0  0  0  0  0  0
  188.4520  176.9260  141.3010 N   0  0  0  0  0  0  0  0  0  0  0  0
  189.5540  176.3700  143.3720 C   0  0  0  0  0  0  0  0  0  0  0  0
  188.3990  176.6860  142.6410 C   0  0  0  0  0  0  0  0  0  0  0  0
  187.0920  176.5080  144.6810 C   0  0  0  0  0  0  0  0  0  0  0  0
  194.2580  176.0050  145.5070 C   0  0  0  0  0  2  0  0  0  0  0  0
  191.9590  175.9680  143.4970 C   0  0  0  0  0  0  0  0  0  0  0  0
  192.9480  175.3160  145.8050 C   0  0  0  0  0  2  0  0  0  0  0  0
  194.9290  175.2220  144.4020 C   0  0  2  0  0  3  0  0  0  0  0  0
  186.0390  177.0620  142.5850 N   0  0  0  0  0  0  0  0  0  0  0  0
  187.1550  176.7550  143.3010 C   0  0  0  0  0  0  0  0  0  0  0  0
  190.5750  175.8120  145.4970 C   0  0  0  0  0  3  0  0  0  0  0  0
  188.2280  176.2020  145.3640 N   0  0  0  0  0  0  0  0  0  0  0  0
  196.4390  175.3760  144.4830 C   0  0  0  0  0  2  0  0  0  0  0  0
  197.0990  174.0810  144.8370 C   0  0  0  0  0  0  0  0  0  0  0  0
  197.7640  173.4790  144.0110 O   0  0  0  0  0  0  0  0  0  0  0  0
  196.9150  173.5080  146.2000 C   0  0  0  0  0  1  0  0  0  0  0  0
  185.7880  176.5400  145.4140 C   0  0  0  0  0  2  0  0  0  0  0  0
  185.7210  178.8810  146.3470 C   0  0  0  0  0  0  0  0  0  0  0  0
  186.0690  177.3280  147.9020 C   0  0  0  0  0  0  0  0  0  0  0  0
  186.1050  178.4260  148.5810 N   0  0  0  0  0  0  0  0  0  0  0  0
  185.8830  179.5490  147.6740 C   0  0  0  0  0  2  0  0  0  0  0  0
  186.2430  176.1080  148.4650 F   0  0  0  0  0  0  0  0  0  0  0  0
  185.8230  177.5710  146.4970 C   0  0  0  0  0  0  0  0  0  0  0  0
  185.5190  179.5690  145.1000 C   0  0  0  0  0  0  0  0  0  0  0  0
  185.3510  180.1460  144.0550 C   0  0  0  0  0  3  0  0  0  0  0  0
  1 15  1  0  0  0  0
  2 19  1  0  0  0  0
  2 18  1  0  0  0  0
  3  4  2  0  0  0  0
  3  8  1  0  0  0  0
  4 16  1  0  0  0  0
  5 18  2  0  0  0  0
  5 14  1  0  0  0  0
  6  9  1  0  0  0  0
  6 13  2  0  0  0  0
  7  1  2  0  0  0  0
  7 13  1  0  0  0  0
  8 10  2  0  0  0  0
  9  2  2  0  0  0  0
 10 17  1  0  0  0  0
 10  9  1  0  0  0  0
 11 19  2  0  0  0  0
 11 24  1  0  0  0  0
 12 14  1  0  0  0  0
 13  5  1  0  0  0  0
 15 20  1  6  0  0  0
 15 12  1  0  0  0  0
 16 17  2  0  0  0  0
 17 11  1  0  0  0  0
 20 21  1  0  0  0  0
 21 23  1  0  0  0  0
 22 21  2  0  0  0  0
 24 30  1  0  0  0  0
 25 30  2  0  0  0  0
 25 28  1  0  0  0  0
 26 29  1  0  0  0  0
 26 27  2  0  0  0  0
 28 27  1  0  0  0  0
 30 26  1  0  0  0  0
 31 25  1  0  0  0  0
 32 31  3  0  0  0  0
M  END
>  <MODEL>
1

>  <REMARK>
 VINA RESULT:      -7.6      0.000      0.000
  Name = 
  5 active torsions:
  status: ('A' for Active; 'I' for Inactive)
    1  A    between atoms: C_1  and  C_10
    2  A    between atoms: C_6  and  C_7
    3  A    between atoms: C_10  and  C_24
    4  A    between atoms: C_16  and  C_27
    5  A    between atoms: C_27  and  C_32
                            x       y       z     vdW  Elec       q    Type
                         _______ _______ _______ _____ _____    ______ ____

>  <TORSDO>
F 5

$$$$
=
 OpenBabel11052421323D

 32 36  0  0  1  0  0  0  0  0999 V2000
  195.1320  172.6490  144.1270 C   0  0  0  0  0  3  0  0  0  0  0  0
  191.0630  176.0600  144.4590 C   0  0  0  0  0  0  0  0  0  0  0  0
  188.5930  174.6760  140.5930 C   0  0  0  0  0  3  0  0  0  0  0  0
  187.6360  175.6540  140.8690 C   0  0  0  0  0  3  0  0  0  0  0  0
  193.1510  174.9790  145.0840 C   0  0  0  0  0  0  0  0  0  0  0  0
  191.9300  174.2410  143.1150 C   0  0  0  0  0  3  0  0  0  0  0  0
  194.0020  173.0640  143.5470 C   0  0  0  0  0  3  0  0  0  0  0  0
  189.6690  174.5410  141.4120 N   0  0  0  0  0  0  0  0  0  0  0  0
  190.9430  175.2040  143.3480 C   0  0  0  0  0  0  0  0  0  0  0  0
  189.8340  175.3430  142.5010 C   0  0  0  0  0  0  0  0  0  0  0  0
  189.0280  177.1610  143.8980 C   0  0  0  0  0  0  0  0  0  0  0  0
  195.5890  174.6130  145.5570 C   0  0  0  0  0  2  0  0  0  0  0  0
  193.0330  174.1030  143.9670 C   0  0  0  0  0  0  0  0  0  0  0  0
  194.2240  174.9160  146.1240 C   0  0  0  0  0  2  0  0  0  0  0  0
  195.6920  173.1110  145.4280 C   0  0  2  0  0  3  0  0  0  0  0  0
  187.7920  176.4600  141.9520 N   0  0  0  0  0  0  0  0  0  0  0  0
  188.8650  176.3310  142.7780 C   0  0  0  0  0  0  0  0  0  0  0  0
  192.1550  175.9360  145.3150 C   0  0  0  0  0  3  0  0  0  0  0  0
  190.1130  177.0010  144.7040 N   0  0  0  0  0  0  0  0  0  0  0  0
  197.1440  172.6670  145.5270 C   0  0  0  0  0  2  0  0  0  0  0  0
  197.2600  171.1770  145.4760 C   0  0  0  0  0  0  0  0  0  0  0  0
  197.9410  170.6380  144.6190 O   0  0  0  0  0  0  0  0  0  0  0  0
  196.5130  170.3450  146.4610 C   0  0  0  0  0  1  0  0  0  0  0  0
  188.0090  178.1980  144.2470 C   0  0  0  0  0  2  0  0  0  0  0  0
  185.7190  177.4410  144.9820 C   0  0  0  0  0  0  0  0  0  0  0  0
  187.2440  177.3100  146.5960 C   0  0  0  0  0  0  0  0  0  0  0  0
  186.1670  176.9150  147.1880 N   0  0  0  0  0  0  0  0  0  0  0  0
  185.0650  176.9470  146.2310 C   0  0  0  0  0  2  0  0  0  0  0  0
  188.4420  177.3920  147.2250 F   0  0  0  0  0  0  0  0  0  0  0  0
  187.0060  177.6430  145.2080 C   0  0  0  0  0  0  0  0  0  0  0  0
  185.0370  177.6890  143.7400 C   0  0  0  0  0  0  0  0  0  0  0  0
  184.4660  177.8980  142.6980 C   0  0  0  0  0  3  0  0  0  0  0  0
  1 15  1  0  0  0  0
  2 19  1  0  0  0  0
  2 18  1  0  0  0  0
  3  4  2  0  0  0  0
  3  8  1  0  0  0  0
  4 16  1  0  0  0  0
  5 18  2  0  0  0  0
  5 14  1  0  0  0  0
  6  9  1  0  0  0  0
  6 13  2  0  0  0  0
  7 13  1  0  0  0  0
  7  1  2  0  0  0  0
  8 10  2  0  0  0  0
  9  2  2  0  0  0  0
 10 17  1  0  0  0  0
 10  9  1  0  0  0  0
 11 24  1  0  0  0  0
 11 19  2  0  0  0  0
 12 14  1  0  0  0  0
 13  5  1  0  0  0  0
 15 20  1  6  0  0  0
 15 12  1  0  0  0  0
 16 17  2  0  0  0  0
 17 11  1  0  0  0  0
 21 20  1  0  0  0  0
 21 23  1  0  0  0  0
 22 21  2  0  0  0  0
 24 30  1  0  0  0  0
 25 30  2  0  0  0  0
 25 28  1  0  0  0  0
 26 27  2  0  0  0  0
 26 29  1  0  0  0  0
 28 27  1  0  0  0  0
 30 26  1  0  0  0  0
 31 25  1  0  0  0  0
 32 31  3  0  0  0  0
M  END
>  <MODEL>
2

>  <REMARK>
 VINA RESULT:      -7.4      1.892      2.406
  Name = 
  5 active torsions:
  status: ('A' for Active; 'I' for Inactive)
    1  A    between atoms: C_1  and  C_10
    2  A    between atoms: C_6  and  C_7
    3  A    between atoms: C_10  and  C_24
    4  A    between atoms: C_16  and  C_27
    5  A    between atoms: C_27  and  C_32
                            x       y       z     vdW  Elec       q    Type
                         _______ _______ _______ _____ _____    ______ ____

>  <TORSDO>
F 5

$$$$
=
 OpenBabel11052421323D

 32 36  0  0  1  0  0  0  0  0999 V2000
  185.2200  178.6650  142.7400 C   0  0  0  0  0  3  0  0  0  0  0  0
  189.7600  176.1750  143.9640 C   0  0  0  0  0  0  0  0  0  0  0  0
  190.3970  177.8870  148.3940 C   0  0  0  0  0  3  0  0  0  0  0  0
  191.5740  177.1450  148.4990 C   0  0  0  0  0  3  0  0  0  0  0  0
  187.8400  176.8220  142.6180 C   0  0  0  0  0  0  0  0  0  0  0  0
  188.1190  177.7140  144.8630 C   0  0  0  0  0  3  0  0  0  0  0  0
  186.1650  178.5080  143.6720 C   0  0  0  0  0  3  0  0  0  0  0  0
  189.6660  177.8260  147.2500 N   0  0  0  0  0  0  0  0  0  0  0  0
  189.3060  176.9900  145.0180 C   0  0  0  0  0  0  0  0  0  0  0  0
  190.0600  177.0540  146.1990 C   0  0  0  0  0  0  0  0  0  0  0  0
  191.6620  175.5060  145.2290 C   0  0  0  0  0  0  0  0  0  0  0  0
  186.4560  177.8170  140.7740 C   0  0  0  0  0  2  0  0  0  0  0  0
  187.3680  177.6420  143.6830 C   0  0  0  0  0  0  0  0  0  0  0  0
  187.1220  176.5810  141.3280 C   0  0  0  0  0  2  0  0  0  0  0  0
  185.1080  177.9340  141.4470 C   0  0  2  0  0  3  0  0  0  0  0  0
  191.9760  176.3720  147.4560 N   0  0  0  0  0  0  0  0  0  0  0  0
  191.2500  176.3050  146.3070 C   0  0  0  0  0  0  0  0  0  0  0  0
  189.0240  176.0940  142.7850 C   0  0  0  0  0  3  0  0  0  0  0  0
  190.9090  175.4620  144.0960 N   0  0  0  0  0  0  0  0  0  0  0  0
  184.1260  178.6680  140.5480 C   0  0  0  0  0  2  0  0  0  0  0  0
  182.8010  177.9750  140.5100 C   0  0  0  0  0  0  0  0  0  0  0  0
  182.5480  177.1720  139.6270 O   0  0  0  0  0  0  0  0  0  0  0  0
  181.7730  178.2930  141.5400 C   0  0  0  0  0  1  0  0  0  0  0  0
  192.9000  174.6710  145.3140 C   0  0  0  0  0  2  0  0  0  0  0  0
  194.4310  174.9600  143.3320 C   0  0  0  0  0  0  0  0  0  0  0  0
  194.8920  176.3520  145.0050 C   0  0  0  0  0  0  0  0  0  0  0  0
  195.7980  176.6440  144.1320 N   0  0  0  0  0  0  0  0  0  0  0  0
  195.6120  175.7970  142.9580 C   0  0  0  0  0  3  0  0  0  0  0  0
  194.8020  176.9700  146.2080 F   0  0  0  0  0  0  0  0  0  0  0  0
  194.0110  175.3040  144.5370 C   0  0  2  0  0  3  0  0  0  0  0  0
  193.8690  173.9200  142.5130 C   0  0  0  0  0  0  0  0  0  0  0  0
  193.3980  173.0480  141.8260 C   0  0  0  0  0  3  0  0  0  0  0  0
  1  7  2  0  0  0  0
  2 19  2  0  0  0  0
  2  9  1  0  0  0  0
  3  4  1  0  0  0  0
  5 18  2  0  0  0  0
  5 13  1  0  0  0  0
  6  9  1  0  0  0  0
  7 13  1  0  0  0  0
  8  3  2  0  0  0  0
  9 10  2  0  0  0  0
 10 17  1  0  0  0  0
 10  8  1  0  0  0  0
 11 24  1  0  0  0  0
 11 17  2  0  0  0  0
 12 14  1  0  0  0  0
 12 15  1  0  0  0  0
 13  6  2  0  0  0  0
 14  5  1  0  0  0  0
 15 20  1  6  0  0  0
 15  1  1  0  0  0  0
 16  4  2  0  0  0  0
 17 16  1  0  0  0  0
 18  2  1  0  0  0  0
 19 11  1  0  0  0  0
 21 20  1  0  0  0  0
 21 23  1  0  0  0  0
 22 21  2  0  0  0  0
 25 30  1  0  0  0  0
 26 29  1  0  0  0  0
 27 26  2  0  0  0  0
 28 25  2  0  0  0  0
 28 27  1  0  0  0  0
 30 26  1  0  0  0  0
 30 24  1  1  0  0  0
 31 25  1  0  0  0  0
 32 31  3  0  0  0  0
M  END
>  <MODEL>
3

>  <REMARK>
 VINA RESULT:      -7.3      4.102      9.067
  Name = 
  5 active torsions:
  status: ('A' for Active; 'I' for Inactive)
    1  A    between atoms: C_1  and  C_10
    2  A    between atoms: C_6  and  C_7
    3  A    between atoms: C_10  and  C_24
    4  A    between atoms: C_16  and  C_27
    5  A    between atoms: C_27  and  C_32
                            x       y       z     vdW  Elec       q    Type
                         _______ _______ _______ _____ _____    ______ ____

>  <TORSDO>
F 5

$$$$
=
 OpenBabel11052421323D

 32 36  0  0  1  0  0  0  0  0999 V2000
  194.5500  175.8430  146.5130 C   0  0  0  0  0  3  0  0  0  0  0  0
  189.6350  175.7670  144.4760 C   0  0  0  0  0  0  0  0  0  0  0  0
  187.4070  178.4500  147.7620 C   0  0  0  0  0  3  0  0  0  0  0  0
  186.2100  178.2930  147.0610 C   0  0  0  0  0  3  0  0  0  0  0  0
  192.0130  175.2770  144.6380 C   0  0  0  0  0  0  0  0  0  0  0  0
  190.9250  176.6460  146.3270 C   0  0  0  0  0  3  0  0  0  0  0  0
  193.2860  176.2430  146.6880 C   0  0  0  0  0  3  0  0  0  0  0  0
  188.5400  177.8640  147.2920 N   0  0  0  0  0  0  0  0  0  0  0  0
  189.7010  176.5200  145.6630 C   0  0  0  0  0  0  0  0  0  0  0  0
  188.5320  177.1240  146.1490 C   0  0  0  0  0  0  0  0  0  0  0  0
  187.3060  176.2070  144.2620 C   0  0  0  0  0  0  0  0  0  0  0  0
  194.1680  174.0140  144.8940 C   0  0  0  0  0  2  0  0  0  0  0  0
  192.0900  176.0450  145.8350 C   0  0  0  0  0  0  0  0  0  0  0  0
  193.1720  174.6350  143.9450 C   0  0  0  0  0  2  0  0  0  0  0  0
  195.1030  175.1140  145.3370 C   0  0  2  0  0  3  0  0  0  0  0  0
  186.1920  177.5560  145.9200 N   0  0  0  0  0  0  0  0  0  0  0  0
  187.3220  176.9670  145.4420 C   0  0  0  0  0  0  0  0  0  0  0  0
  190.7860  175.1620  143.9740 C   0  0  0  0  0  3  0  0  0  0  0  0
  188.4560  175.6340  143.8140 N   0  0  0  0  0  0  0  0  0  0  0  0
  196.4620  174.5400  145.7070 C   0  0  0  0  0  2  0  0  0  0  0  0
  197.2750  174.2420  144.4880 C   0  0  0  0  0  0  0  0  0  0  0  0
  197.7850  173.1430  144.3380 O   0  0  0  0  0  0  0  0  0  0  0  0
  197.4900  175.3040  143.4670 C   0  0  0  0  0  1  0  0  0  0  0  0
  186.0510  176.0420  143.4650 C   0  0  0  0  0  2  0  0  0  0  0  0
  185.3220  178.0710  142.1580 C   0  0  0  0  0  0  0  0  0  0  0  0
  186.7790  176.7990  141.0580 C   0  0  0  0  0  0  0  0  0  0  0  0
  186.5220  177.7380  140.2110 N   0  0  0  0  0  0  0  0  0  0  0  0
  185.5670  178.6660  140.8090 C   0  0  0  0  0  3  0  0  0  0  0  0
  187.6330  175.7810  140.7940 F   0  0  0  0  0  0  0  0  0  0  0  0
  186.0490  176.9760  142.2960 C   0  0  2  0  0  3  0  0  0  0  0  0
  184.4070  178.5990  143.1350 C   0  0  0  0  0  0  0  0  0  0  0  0
  183.6390  179.0400  143.9530 C   0  0  0  0  0  3  0  0  0  0  0  0
  1  7  2  0  0  0  0
  2  9  1  0  0  0  0
  4  3  2  0  0  0  0
  5 13  2  0  0  0  0
  8  3  1  0  0  0  0
  9 10  1  0  0  0  0
  9  6  2  0  0  0  0
 10  8  2  0  0  0  0
 11 17  1  0  0  0  0
 12 15  1  0  0  0  0
 13  6  1  0  0  0  0
 13  7  1  0  0  0  0
 14  5  1  0  0  0  0
 14 12  1  0  0  0  0
 15 20  1  1  0  0  0
 15  1  1  0  0  0  0
 16  4  1  0  0  0  0
 17 16  2  0  0  0  0
 17 10  1  0  0  0  0
 18  2  2  0  0  0  0
 18  5  1  0  0  0  0
 19 11  2  0  0  0  0
 19  2  1  0  0  0  0
 21 20  1  0  0  0  0
 22 21  2  0  0  0  0
 23 21  1  0  0  0  0
 24 11  1  0  0  0  0
 25 30  1  0  0  0  0
 25 31  1  0  0  0  0
 26 30  1  0  0  0  0
 27 28  1  0  0  0  0
 27 26  2  0  0  0  0
 28 25  2  0  0  0  0
 29 26  1  0  0  0  0
 30 24  1  6  0  0  0
 31 32  3  0  0  0  0
M  END
>  <MODEL>
4

>  <REMARK>
 VINA RESULT:      -7.3      2.016      3.999
  Name = 
  5 active torsions:
  status: ('A' for Active; 'I' for Inactive)
    1  A    between atoms: C_1  and  C_10
    2  A    between atoms: C_6  and  C_7
    3  A    between atoms: C_10  and  C_24
    4  A    between atoms: C_16  and  C_27
    5  A    between atoms: C_27  and  C_32
                            x       y       z     vdW  Elec       q    Type
                         _______ _______ _______ _____ _____    ______ ____

>  <TORSDO>
F 5

$$$$
=
 OpenBabel11052421323D

 32 36  0  0  1  0  0  0  0  0999 V2000
  186.2900  176.4820  143.7030 C   0  0  0  0  0  3  0  0  0  0  0  0
  191.3450  174.9070  143.1810 C   0  0  0  0  0  0  0  0  0  0  0  0
  191.0600  172.8480  138.8640 C   0  0  0  0  0  3  0  0  0  0  0  0
  192.4160  172.5270  138.9400 C   0  0  0  0  0  3  0  0  0  0  0  0
  189.4040  175.9340  144.2280 C   0  0  0  0  0  0  0  0  0  0  0  0
  189.2120  174.9040  142.0340 C   0  0  0  0  0  3  0  0  0  0  0  0
  187.1610  175.8380  142.9190 C   0  0  0  0  0  3  0  0  0  0  0  0
  190.4690  173.5130  139.8920 N   0  0  0  0  0  0  0  0  0  0  0  0
  190.5670  174.5590  142.0620 C   0  0  0  0  0  0  0  0  0  0  0  0
  191.1750  173.8720  141.0000 C   0  0  0  0  0  0  0  0  0  0  0  0
  193.2800  173.9150  142.2130 C   0  0  0  0  0  0  0  0  0  0  0  0
  187.5310  176.3840  145.8390 C   0  0  0  0  0  2  0  0  0  0  0  0
  188.6120  175.5950  143.0940 C   0  0  0  0  0  0  0  0  0  0  0  0
  188.9350  176.7290  145.4050 C   0  0  0  0  0  2  0  0  0  0  0  0
  186.5900  177.1930  144.9780 C   0  0  2  0  0  3  0  0  0  0  0  0
  193.1280  172.8810  140.0420 N   0  0  0  0  0  0  0  0  0  0  0  0
  192.5460  173.5470  141.0750 C   0  0  0  0  0  0  0  0  0  0  0  0
  190.7610  175.5920  144.2440 C   0  0  0  0  0  3  0  0  0  0  0  0
  192.6640  174.5820  143.2270 N   0  0  0  0  0  0  0  0  0  0  0  0
  185.2860  177.4540  145.7160 C   0  0  0  0  0  2  0  0  0  0  0  0
  184.6820  178.7590  145.3050 C   0  0  0  0  0  0  0  0  0  0  0  0
  183.5050  178.9920  145.5240 O   0  0  0  0  0  0  0  0  0  0  0  0
  185.5170  179.7680  144.5960 C   0  0  0  0  0  1  0  0  0  0  0  0
  194.7420  173.6180  142.3200 C   0  0  0  0  0  2  0  0  0  0  0  0
  196.1950  175.3570  143.4250 C   0  0  0  0  0  0  0  0  0  0  0  0
  195.6290  175.8860  141.3390 C   0  0  0  0  0  0  0  0  0  0  0  0
  196.3260  176.9060  141.7130 N   0  0  0  0  0  0  0  0  0  0  0  0
  196.7760  176.6920  143.0860 C   0  0  0  0  0  2  0  0  0  0  0  0
  195.0690  175.7870  140.1090 F   0  0  0  0  0  0  0  0  0  0  0  0
  195.5290  174.8880  142.3830 C   0  0  0  0  0  0  0  0  0  0  0  0
  196.3190  174.7070  144.7020 C   0  0  0  0  0  0  0  0  0  0  0  0
  196.4250  174.1630  145.7720 C   0  0  0  0  0  3  0  0  0  0  0  0
  1 15  1  0  0  0  0
  2 19  1  0  0  0  0
  2 18  1  0  0  0  0
  3  4  2  0  0  0  0
  3  8  1  0  0  0  0
  4 16  1  0  0  0  0
  5 18  2  0  0  0  0
  5 14  1  0  0  0  0
  6  9  1  0  0  0  0
  6 13  2  0  0  0  0
  7 13  1  0  0  0  0
  7  1  2  0  0  0  0
  8 10  2  0  0  0  0
  9  2  2  0  0  0  0
 10 17  1  0  0  0  0
 10  9  1  0  0  0  0
 11 24  1  0  0  0  0
 11 19  2  0  0  0  0
 13  5  1  0  0  0  0
 14 12  1  0  0  0  0
 15 20  1  1  0  0  0
 15 12  1  0  0  0  0
 16 17  2  0  0  0  0
 17 11  1  0  0  0  0
 21 22  2  0  0  0  0
 21 20  1  0  0  0  0
 23 21  1  0  0  0  0
 24 30  1  0  0  0  0
 25 31  1  0  0  0  0
 26 27  2  0  0  0  0
 26 30  1  0  0  0  0
 27 28  1  0  0  0  0
 28 25  1  0  0  0  0
 29 26  1  0  0  0  0
 30 25  2  0  0  0  0
 31 32  3  0  0  0  0
M  END
>  <MODEL>
5

>  <REMARK>
 VINA RESULT:      -7.3      4.490      8.955
  Name = 
  5 active torsions:
  status: ('A' for Active; 'I' for Inactive)
    1  A    between atoms: C_1  and  C_10
    2  A    between atoms: C_6  and  C_7
    3  A    between atoms: C_10  and  C_24
    4  A    between atoms: C_16  and  C_27
    5  A    between atoms: C_27  and  C_32
                            x       y       z     vdW  Elec       q    Type
                         _______ _______ _______ _____ _____    ______ ____

>  <TORSDO>
F 5

$$$$
=
 OpenBabel11052421323D

 32 36  0  0  1  0  0  0  0  0999 V2000
  190.7600  170.9030  140.9370 C   0  0  0  0  0  3  0  0  0  0  0  0
  188.3360  175.5690  141.7490 C   0  0  0  0  0  0  0  0  0  0  0  0
  188.7170  175.8050  146.5200 C   0  0  0  0  0  3  0  0  0  0  0  0
  188.0490  177.0310  146.5000 C   0  0  0  0  0  3  0  0  0  0  0  0
  189.2230  173.6810  140.4970 C   0  0  0  0  0  0  0  0  0  0  0  0
  189.4430  173.7590  142.9180 C   0  0  0  0  0  3  0  0  0  0  0  0
  190.3570  171.7800  141.8610 C   0  0  0  0  0  3  0  0  0  0  0  0
  188.9480  175.1490  145.3520 N   0  0  0  0  0  0  0  0  0  0  0  0
  188.7790  174.9890  142.9520 C   0  0  0  0  0  0  0  0  0  0  0  0
  188.5400  175.6650  144.1590 C   0  0  0  0  0  0  0  0  0  0  0  0
  187.4430  177.4410  142.9160 C   0  0  0  0  0  0  0  0  0  0  0  0
  189.3400  171.6320  139.0500 C   0  0  0  0  0  2  0  0  0  0  0  0
  189.6830  173.0920  141.7100 C   0  0  0  0  0  0  0  0  0  0  0  0
  189.4610  173.1350  139.1260 C   0  0  0  0  0  2  0  0  0  0  0  0
  190.6770  171.0590  139.4580 C   0  0  2  0  0  3  0  0  0  0  0  0
  187.6380  177.5530  145.3150 N   0  0  0  0  0  0  0  0  0  0  0  0
  187.8660  176.9040  144.1410 C   0  0  0  0  0  0  0  0  0  0  0  0
  188.5660  174.9160  140.5400 C   0  0  0  0  0  3  0  0  0  0  0  0
  187.6910  176.7650  141.7610 N   0  0  0  0  0  0  0  0  0  0  0  0
  190.8960  169.7030  138.8050 C   0  0  0  0  0  2  0  0  0  0  0  0
  191.7700  169.8170  137.5970 C   0  0  0  0  0  0  0  0  0  0  0  0
  192.9460  170.1220  137.7110 O   0  0  0  0  0  0  0  0  0  0  0  0
  191.1920  169.5860  136.2440 C   0  0  0  0  0  1  0  0  0  0  0  0
  186.7550  178.7670  142.8490 C   0  0  0  0  0  2  0  0  0  0  0  0
  184.2590  178.5420  143.1310 C   0  0  0  0  0  0  0  0  0  0  0  0
  184.9200  178.3770  141.0120 C   0  0  0  0  0  0  0  0  0  0  0  0
  183.6440  178.2020  140.9280 N   0  0  0  0  0  0  0  0  0  0  0  0
  183.0660  178.2910  142.2660 C   0  0  0  0  0  3  0  0  0  0  0  0
  185.7400  178.3500  139.9340 F   0  0  0  0  0  0  0  0  0  0  0  0
  185.3450  178.6000  142.3780 C   0  0  2  0  0  3  0  0  0  0  0  0
  184.2250  178.6660  144.5630 C   0  0  0  0  0  0  0  0  0  0  0  0
  184.1950  178.7690  145.7640 C   0  0  0  0  0  3  0  0  0  0  0  0
  1  7  2  0  0  0  0
  2 19  2  0  0  0  0
  2  9  1  0  0  0  0
  4  3  1  0  0  0  0
  5 18  2  0  0  0  0
  5 13  1  0  0  0  0
  6  9  1  0  0  0  0
  8  3  2  0  0  0  0
  9 10  2  0  0  0  0
 10  8  1  0  0  0  0
 11 17  2  0  0  0  0
 12 14  1  0  0  0  0
 12 15  1  0  0  0  0
 13  7  1  0  0  0  0
 13  6  2  0  0  0  0
 14  5  1  0  0  0  0
 15 20  1  6  0  0  0
 15  1  1  0  0  0  0
 16  4  2  0  0  0  0
 17 10  1  0  0  0  0
 17 16  1  0  0  0  0
 18  2  1  0  0  0  0
 19 11  1  0  0  0  0
 21 22  2  0  0  0  0
 21 20  1  0  0  0  0
 23 21  1  0  0  0  0
 24 11  1  0  0  0  0
 25 31  1  0  0  0  0
 26 30  1  0  0  0  0
 27 26  2  0  0  0  0
 27 28  1  0  0  0  0
 28 25  2  0  0  0  0
 29 26  1  0  0  0  0
 30 24  1  1  0  0  0
 30 25  1  0  0  0  0
 31 32  3  0  0  0  0
M  END
>  <MODEL>
6

>  <REMARK>
 VINA RESULT:      -7.3      4.402      6.109
  Name = 
  5 active torsions:
  status: ('A' for Active; 'I' for Inactive)
    1  A    between atoms: C_1  and  C_10
    2  A    between atoms: C_6  and  C_7
    3  A    between atoms: C_10  and  C_24
    4  A    between atoms: C_16  and  C_27
    5  A    between atoms: C_27  and  C_32
                            x       y       z     vdW  Elec       q    Type
                         _______ _______ _______ _____ _____    ______ ____

>  <TORSDO>
F 5

$$$$
=
 OpenBabel11052421323D

 32 36  0  0  1  0  0  0  0  0999 V2000
  186.8140  176.3950  144.2110 C   0  0  0  0  0  3  0  0  0  0  0  0
  192.1330  176.2950  144.1200 C   0  0  0  0  0  0  0  0  0  0  0  0
  192.7810  174.0190  139.9530 C   0  0  0  0  0  3  0  0  0  0  0  0
  194.1620  174.1000  140.1370 C   0  0  0  0  0  3  0  0  0  0  0  0
  189.9050  176.7820  144.9660 C   0  0  0  0  0  0  0  0  0  0  0  0
  190.1850  175.6270  142.8450 C   0  0  0  0  0  3  0  0  0  0  0  0
  187.8890  175.9850  143.5310 C   0  0  0  0  0  3  0  0  0  0  0  0
  191.9480  174.5410  140.8920 N   0  0  0  0  0  0  0  0  0  0  0  0
  191.5750  175.6830  142.9820 C   0  0  0  0  0  0  0  0  0  0  0  0
  192.4340  175.1430  142.0130 C   0  0  0  0  0  0  0  0  0  0  0  0
  194.3390  175.8450  143.3480 C   0  0  0  0  0  0  0  0  0  0  0  0
  187.8580  176.7650  146.4210 C   0  0  0  0  0  2  0  0  0  0  0  0
  189.3320  176.1730  143.8130 C   0  0  0  0  0  0  0  0  0  0  0  0
  189.1390  177.4710  146.0510 C   0  0  0  0  0  2  0  0  0  0  0  0
  186.8000  177.2270  145.4460 C   0  0  2  0  0  3  0  0  0  0  0  0
  194.6560  174.6980  141.2520 N   0  0  0  0  0  0  0  0  0  0  0  0
  193.8300  175.2240  142.1960 C   0  0  0  0  0  0  0  0  0  0  0  0
  191.2970  176.8410  145.0920 C   0  0  0  0  0  3  0  0  0  0  0  0
  193.4820  176.3610  144.2700 N   0  0  0  0  0  0  0  0  0  0  0  0
  185.4200  177.1450  146.0810 C   0  0  0  0  0  2  0  0  0  0  0  0
  184.8660  178.5080  146.3520 C   0  0  0  0  0  0  0  0  0  0  0  0
  183.8570  178.8900  145.7820 O   0  0  0  0  0  0  0  0  0  0  0  0
  185.5690  179.4150  147.3000 C   0  0  0  0  0  1  0  0  0  0  0  0
  195.8120  175.9810  143.5670 C   0  0  0  0  0  2  0  0  0  0  0  0
  197.0670  173.8210  143.9080 C   0  0  0  0  0  0  0  0  0  0  0  0
  196.0460  174.5410  145.7490 C   0  0  0  0  0  0  0  0  0  0  0  0
  196.5830  173.4320  146.1350 N   0  0  0  0  0  0  0  0  0  0  0  0
  197.3030  172.8410  145.0110 C   0  0  0  0  0  2  0  0  0  0  0  0
  195.3060  175.3270  146.5700 F   0  0  0  0  0  0  0  0  0  0  0  0
  196.3320  174.8240  144.3590 C   0  0  0  0  0  0  0  0  0  0  0  0
  197.5420  173.6700  142.5590 C   0  0  0  0  0  0  0  0  0  0  0  0
  197.9400  173.5440  141.4280 C   0  0  0  0  0  3  0  0  0  0  0  0
  1 15  1  0  0  0  0
  2 19  1  0  0  0  0
  2 18  1  0  0  0  0
  3  4  2  0  0  0  0
  3  8  1  0  0  0  0
  4 16  1  0  0  0  0
  5 18  2  0  0  0  0
  5 14  1  0  0  0  0
  6  9  1  0  0  0  0
  6 13  2  0  0  0  0
  7 13  1  0  0  0  0
  7  1  2  0  0  0  0
  8 10  2  0  0  0  0
  9  2  2  0  0  0  0
 10 17  1  0  0  0  0
 10  9  1  0  0  0  0
 11 24  1  0  0  0  0
 11 19  2  0  0  0  0
 13  5  1  0  0  0  0
 14 12  1  0  0  0  0
 15 20  1  1  0  0  0
 15 12  1  0  0  0  0
 16 17  2  0  0  0  0
 17 11  1  0  0  0  0
 20 21  1  0  0  0  0
 21 23  1  0  0  0  0
 22 21  2  0  0  0  0
 24 30  1  0  0  0  0
 25 30  2  0  0  0  0
 25 28  1  0  0  0  0
 26 27  2  0  0  0  0
 26 29  1  0  0  0  0
 28 27  1  0  0  0  0
 30 26  1  0  0  0  0
 31 25  1  0  0  0  0
 32 31  3  0  0  0  0
M  END
>  <MODEL>
7

>  <REMARK>
 VINA RESULT:      -7.3      4.134      9.029
  Name = 
  5 active torsions:
  status: ('A' for Active; 'I' for Inactive)
    1  A    between atoms: C_1  and  C_10
    2  A    between atoms: C_6  and  C_7
    3  A    between atoms: C_10  and  C_24
    4  A    between atoms: C_16  and  C_27
    5  A    between atoms: C_27  and  C_32
                            x       y       z     vdW  Elec       q    Type
                         _______ _______ _______ _____ _____    ______ ____

>  <TORSDO>
F 5

$$$$
=
 OpenBabel11052421323D

 32 36  0  0  1  0  0  0  0  0999 V2000
  189.7090  177.8940  144.7220 C   0  0  0  0  0  3  0  0  0  0  0  0
  193.5230  174.2620  145.4740 C   0  0  0  0  0  0  0  0  0  0  0  0
  197.1060  176.4240  143.1400 C   0  0  0  0  0  3  0  0  0  0  0  0
  197.9410  175.3500  143.4500 C   0  0  0  0  0  3  0  0  0  0  0  0
  191.3190  175.2770  145.6360 C   0  0  0  0  0  0  0  0  0  0  0  0
  193.1070  176.4130  144.4430 C   0  0  0  0  0  3  0  0  0  0  0  0
  190.9790  177.5700  144.4590 C   0  0  0  0  0  3  0  0  0  0  0  0
  195.8150  176.4140  143.5640 N   0  0  0  0  0  0  0  0  0  0  0  0
  193.9840  175.3620  144.7290 C   0  0  0  0  0  0  0  0  0  0  0  0
  195.3160  175.3730  144.2890 C   0  0  0  0  0  0  0  0  0  0  0  0
  195.6570  173.2130  145.3490 C   0  0  0  0  0  0  0  0  0  0  0  0
  188.8530  175.6640  145.3580 C   0  0  0  0  0  2  0  0  0  0  0  0
  191.7800  176.3990  144.8900 C   0  0  0  0  0  0  0  0  0  0  0  0
  189.9580  175.1410  146.2430 C   0  0  0  0  0  2  0  0  0  0  0  0
  188.7590  177.1520  145.5980 C   0  0  2  0  0  3  0  0  0  0  0  0
  197.4530  174.3070  144.1720 N   0  0  0  0  0  0  0  0  0  0  0  0
  196.1620  174.2890  144.6020 C   0  0  0  0  0  0  0  0  0  0  0  0
  192.2050  174.2330  145.9240 C   0  0  0  0  0  3  0  0  0  0  0  0
  194.3610  173.2310  145.7640 N   0  0  0  0  0  0  0  0  0  0  0  0
  187.3470  177.6470  145.3260 C   0  0  0  0  0  2  0  0  0  0  0  0
  186.4980  177.5680  146.5540 C   0  0  0  0  0  0  0  0  0  0  0  0
  186.8560  178.1030  147.5900 O   0  0  0  0  0  0  0  0  0  0  0  0
  185.2210  176.8020  146.5190 C   0  0  0  0  0  1  0  0  0  0  0  0
  196.5280  172.0590  145.7300 C   0  0  0  0  0  2  0  0  0  0  0  0
  196.0670  169.5880  145.5390 C   0  0  0  0  0  0  0  0  0  0  0  0
  195.6470  170.7050  143.6610 C   0  0  0  0  0  0  0  0  0  0  0  0
  195.3810  169.4850  143.3330 N   0  0  0  0  0  0  0  0  0  0  0  0
  195.6110  168.6250  144.4910 C   0  0  0  0  0  3  0  0  0  0  0  0
  195.5310  171.7420  142.7970 F   0  0  0  0  0  0  0  0  0  0  0  0
  196.0740  170.8120  145.0400 C   0  0  2  0  0  3  0  0  0  0  0  0
  196.4660  169.2230  146.8720 C   0  0  0  0  0  0  0  0  0  0  0  0
  196.7990  168.9180  147.9900 C   0  0  0  0  0  3  0  0  0  0  0  0
  1 15  1  0  0  0  0
  2 19  1  0  0  0  0
  2 18  1  0  0  0  0
  3  4  2  0  0  0  0
  3  8  1  0  0  0  0
  4 16  1  0  0  0  0
  5 18  2  0  0  0  0
  5 14  1  0  0  0  0
  6  9  1  0  0  0  0
  6 13  2  0  0  0  0
  7  1  2  0  0  0  0
  7 13  1  0  0  0  0
  8 10  2  0  0  0  0
  9  2  2  0  0  0  0
 10 17  1  0  0  0  0
 10  9  1  0  0  0  0
 11 24  1  0  0  0  0
 11 19  2  0  0  0  0
 12 15  1  0  0  0  0
 12 14  1  0  0  0  0
 13  5  1  0  0  0  0
 15 20  1  6  0  0  0
 16 17  2  0  0  0  0
 17 11  1  0  0  0  0
 20 21  1  0  0  0  0
 21 22  2  0  0  0  0
 23 21  1  0  0  0  0
 25 31  1  0  0  0  0
 26 30  1  0  0  0  0
 27 26  2  0  0  0  0
 27 28  1  0  0  0  0
 28 25  2  0  0  0  0
 29 26  1  0  0  0  0
 30 25  1  0  0  0  0
 30 24  1  6  0  0  0
 31 32  3  0  0  0  0
M  END
>  <MODEL>
8

>  <REMARK>
 VINA RESULT:      -7.3      4.795      9.869
  Name = 
  5 active torsions:
  status: ('A' for Active; 'I' for Inactive)
    1  A    between atoms: C_1  and  C_10
    2  A    between atoms: C_6  and  C_7
    3  A    between atoms: C_10  and  C_24
    4  A    between atoms: C_16  and  C_27
    5  A    between atoms: C_27  and  C_32
                            x       y       z     vdW  Elec       q    Type
                         _______ _______ _______ _____ _____    ______ ____

>  <TORSDO>
F 5

$$$$
=
 OpenBabel11052421323D

 32 36  0  0  1  0  0  0  0  0999 V2000
  190.9090  171.3410  139.3820 C   0  0  0  0  0  3  0  0  0  0  0  0
  189.3200  175.2760  142.5900 C   0  0  0  0  0  0  0  0  0  0  0  0
  192.7110  174.9320  145.9570 C   0  0  0  0  0  3  0  0  0  0  0  0
  192.1190  175.9910  146.6460 C   0  0  0  0  0  3  0  0  0  0  0  0
  189.2880  173.7910  140.6640 C   0  0  0  0  0  0  0  0  0  0  0  0
  191.0320  173.5810  142.3450 C   0  0  0  0  0  3  0  0  0  0  0  0
  191.1550  171.9860  140.5260 C   0  0  0  0  0  3  0  0  0  0  0  0
  192.1630  174.5000  144.7910 N   0  0  0  0  0  0  0  0  0  0  0  0
  190.4770  174.6380  143.0730 C   0  0  0  0  0  0  0  0  0  0  0  0
  191.0430  175.0820  144.2780 C   0  0  0  0  0  0  0  0  0  0  0  0
  189.2920  176.7570  144.4530 C   0  0  0  0  0  0  0  0  0  0  0  0
  188.5590  172.0230  139.0360 C   0  0  0  0  0  2  0  0  0  0  0  0
  190.4650  173.1460  141.1410 C   0  0  0  0  0  0  0  0  0  0  0  0
  188.6060  173.4950  139.3660 C   0  0  0  0  0  2  0  0  0  0  0  0
  189.8700  171.6770  138.3690 C   0  0  2  0  0  3  0  0  0  0  0  0
  191.0010  176.5770  146.1430 N   0  0  0  0  0  0  0  0  0  0  0  0
  190.4460  176.1520  144.9750 C   0  0  0  0  0  0  0  0  0  0  0  0
  188.7440  174.8530  141.3940 C   0  0  0  0  0  3  0  0  0  0  0  0
  188.7660  176.3070  143.2810 N   0  0  0  0  0  0  0  0  0  0  0  0
  189.6930  170.4940  137.4310 C   0  0  0  0  0  2  0  0  0  0  0  0
  190.0740  170.8510  136.0290 C   0  0  0  0  0  0  0  0  0  0  0  0
  191.0090  170.2930  135.4800 O   0  0  0  0  0  0  0  0  0  0  0  0
  189.3230  171.9180  135.3110 C   0  0  0  0  0  1  0  0  0  0  0  0
  188.6460  177.9160  145.1430 C   0  0  0  0  0  2  0  0  0  0  0  0
  186.1670  177.9910  145.6000 C   0  0  0  0  0  0  0  0  0  0  0  0
  187.2440  176.5020  146.8540 C   0  0  0  0  0  0  0  0  0  0  0  0
  186.0250  176.3970  147.2680 N   0  0  0  0  0  0  0  0  0  0  0  0
  185.1900  177.3300  146.5160 C   0  0  0  0  0  2  0  0  0  0  0  0
  188.2610  175.7640  147.3610 F   0  0  0  0  0  0  0  0  0  0  0  0
  187.3730  177.4880  145.8020 C   0  0  0  0  0  0  0  0  0  0  0  0
  185.8410  179.0380  144.6690 C   0  0  0  0  0  0  0  0  0  0  0  0
  185.5680  179.9150  143.8880 C   0  0  0  0  0  3  0  0  0  0  0  0
  1  7  2  0  0  0  0
  2  9  1  0  0  0  0
  2 19  1  0  0  0  0
  3  4  1  0  0  0  0
  5 13  2  0  0  0  0
  5 18  1  0  0  0  0
  6  9  2  0  0  0  0
  7 13  1  0  0  0  0
  8  3  2  0  0  0  0
  9 10  1  0  0  0  0
 10  8  1  0  0  0  0
 10 17  2  0  0  0  0
 11 17  1  0  0  0  0
 11 24  1  0  0  0  0
 12 14  1  0  0  0  0
 13  6  1  0  0  0  0
 14  5  1  0  0  0  0
 15 20  1  6  0  0  0
 15 12  1  0  0  0  0
 15  1  1  0  0  0  0
 16  4  2  0  0  0  0
 17 16  1  0  0  0  0
 18  2  2  0  0  0  0
 19 11  2  0  0  0  0
 21 20  1  0  0  0  0
 22 21  2  0  0  0  0
 23 21  1  0  0  0  0
 24 30  1  0  0  0  0
 25 30  2  0  0  0  0
 25 28  1  0  0  0  0
 26 27  2  0  0  0  0
 26 29  1  0  0  0  0
 28 27  1  0  0  0  0
 30 26  1  0  0  0  0
 31 25  1  0  0  0  0
 32 31  3  0  0  0  0
M  END
>  <MODEL>
9

>  <REMARK>
 VINA RESULT:      -7.1      4.219      6.164
  Name = 
  5 active torsions:
  status: ('A' for Active; 'I' for Inactive)
    1  A    between atoms: C_1  and  C_10
    2  A    between atoms: C_6  and  C_7
    3  A    between atoms: C_10  and  C_24
    4  A    between atoms: C_16  and  C_27
    5  A    between atoms: C_27  and  C_32
                            x       y       z     vdW  Elec       q    Type
                         _______ _______ _______ _____ _____    ______ ____

>  <TORSDO>
F 5

$$$$
