=
 OpenBabel11052420003D

 37 42  0  0  1  0  0  0  0  0999 V2000
  185.9810  176.9820  146.7560 C   0  0  0  0  0  2  0  0  0  0  0  0
  190.3730  176.9930  145.7790 C   0  0  1  0  0  3  0  0  0  0  0  0
  192.0590  174.9290  143.0130 C   0  0  0  0  0  2  0  0  0  0  0  0
  188.0420  177.1930  145.5010 C   0  0  2  0  0  0  0  0  0  0  0  0
  190.3980  175.7700  144.8370 C   0  0  2  0  0  3  0  0  0  0  0  0
  189.2790  177.8810  145.5810 O   0  0  0  0  0  0  0  0  0  0  0  0
  191.8640  175.5190  144.4120 C   0  0  1  0  0  3  0  0  0  0  0  0
  187.9830  176.0860  144.4480 C   0  0  1  0  0  3  0  0  0  0  0  0
  187.0040  178.0610  144.8210 C   0  0  1  0  0  3  0  0  0  0  0  0
  192.0050  176.0810  147.4700 C   0  0  0  0  0  2  0  0  0  0  0  0
  186.7440  176.9320  143.4150 S   0  0  0  0  0  0  0  0  0  0  0  0
  191.4710  173.5230  142.8640 C   0  0  0  0  0  2  0  0  0  0  0  0
  190.5990  176.6330  147.2550 C   0  0  1  0  0  3  0  0  0  0  0  0
  189.3210  175.9160  143.7290 C   0  0  2  0  0  3  0  0  0  0  0  0
  187.4780  176.7790  146.8510 C   0  0  0  0  0  2  0  0  0  0  0  0
  192.6690  174.6950  145.4400 C   0  0  2  0  0  3  0  0  0  0  0  0
  185.7810  178.0760  145.7250 C   0  0  0  0  0  2  0  0  0  0  0  0
  189.9750  173.4840  143.1950 C   0  0  1  0  0  3  0  0  0  0  0  0
  189.1850  174.7300  142.7450 C   0  0  2  0  0  3  0  0  0  0  0  0
  192.1440  174.6840  146.8830 C   0  0  0  0  0  2  0  0  0  0  0  0
  194.6070  176.3860  145.0920 C   0  0  0  0  0  2  0  0  0  0  0  0
  194.1410  174.9860  145.3710 C   0  0  0  0  0  0  0  0  0  0  0  0
  195.0570  174.0170  145.5130 C   0  0  0  0  0  3  0  0  0  0  0  0
  197.4830  172.8860  145.2410 Cl  0  0  0  0  0  0  0  0  0  0  0  0
  196.7810  175.3090  144.2260 C   0  0  0  0  0  2  0  0  0  0  0  0
  196.5150  174.3660  145.4110 C   0  0  1  0  0  3  0  0  0  0  0  0
  195.6810  176.3690  143.9980 C   0  0  0  0  0  2  0  0  0  0  0  0
  191.4750  177.8830  149.2300 C   0  0  0  0  0  1  0  0  0  0  0  0
  190.4240  177.8620  148.1370 C   0  0  0  0  0  2  0  0  0  0  0  0
  187.8330  172.2560  142.6500 C   0  0  0  0  0  1  0  0  0  0  0  0
  189.3370  172.1370  142.8430 C   0  0  1  0  0  3  0  0  0  0  0  0
  190.4830  170.1410  142.1050 O   0  0  0  0  0  1  0  0  0  0  0  0
  190.0130  171.3890  141.6930 C   0  0  0  0  0  2  0  0  0  0  0  0
  189.5280  175.1480  141.3100 C   0  0  0  0  0  2  0  0  0  0  0  0
  188.3830  174.9550  140.3780 C   0  0  0  0  0  0  0  0  0  0  0  0
  188.2670  173.7740  139.6590 O   0  0  0  0  0  0  0  0  0  0  0  0
  187.5280  175.8670  140.2310 O   0  0  0  0  0  1  0  0  0  0  0  0
  1 15  1  0  0  0  0
  2  6  1  1  0  0  0
  2 13  1  0  0  0  0
  3  7  1  0  0  0  0
  4  6  1  0  0  0  0
  4 15  1  1  0  0  0
  5  2  1  0  0  0  0
  7  5  1  0  0  0  0
  7 16  1  0  0  0  0
  8  4  1  0  0  0  0
  9  4  1  0  0  0  0
  9 17  1  0  0  0  0
 11  8  1  0  0  0  0
 11  9  1  0  0  0  0
 12  3  1  0  0  0  0
 12 18  1  0  0  0  0
 13 10  1  0  0  0  0
 13 29  1  0  0  0  0
 14  8  1  0  0  0  0
 14  5  1  0  0  0  0
 16 20  1  0  0  0  0
 17  1  1  0  0  0  0
 19 18  1  0  0  0  0
 19 14  1  0  0  0  0
 20 10  1  0  0  0  0
 21 22  1  0  0  0  0
 22 16  1  0  0  0  0
 22 23  2  0  0  0  0
 24 26  1  0  0  0  0
 25 26  1  0  0  0  0
 26 23  1  0  0  0  0
 27 25  1  0  0  0  0
 27 21  1  0  0  0  0
 29 28  1  0  0  0  0
 30 31  1  0  0  0  0
 31 18  1  0  0  0  0
 33 32  1  0  0  0  0
 33 31  1  0  0  0  0
 34 19  1  0  0  0  0
 35 34  1  0  0  0  0
 36 35  2  0  0  0  0
 37 35  1  0  0  0  0
M  END
>  <MODEL>
1

>  <REMARK>
 VINA RESULT:      -7.7      0.000      0.000
  Name = 
  6 active torsions:
  status: ('A' for Active; 'I' for Inactive)
    1  A    between atoms: C_1  and  C_5
    2  A    between atoms: C_1  and  C_36
    3  A    between atoms: C_6  and  C_31
    4  A    between atoms: C_24  and  C_28
    5  A    between atoms: C_26  and  C_33
    6  A    between atoms: C_26  and  C_34
                            x       y       z     vdW  Elec       q    Type
                         _______ _______ _______ _____ _____    ______ ____

>  <TORSDO>
F 6

$$$$
=
 OpenBabel11052420003D

 37 42  0  0  1  0  0  0  0  0999 V2000
  195.7540  173.7730  144.8030 C   0  0  0  0  0  2  0  0  0  0  0  0
  191.3940  174.7870  145.2510 C   0  0  1  0  0  3  0  0  0  0  0  0
  188.6280  173.9550  142.7190 C   0  0  0  0  0  2  0  0  0  0  0  0
  193.3500  173.5110  144.9430 C   0  0  2  0  0  0  0  0  0  0  0  0
  190.9390  174.4670  143.8100 C   0  0  2  0  0  3  0  0  0  0  0  0
  192.2870  173.8380  145.8220 O   0  0  0  0  0  0  0  0  0  0  0  0
  189.4360  174.8170  143.6920 C   0  0  1  0  0  3  0  0  0  0  0  0
  192.9210  173.0210  143.5610 C   0  0  1  0  0  3  0  0  0  0  0  0
  193.9760  172.1930  145.3490 C   0  0  1  0  0  3  0  0  0  0  0  0
  190.6930  177.2090  145.2380 C   0  0  0  0  0  2  0  0  0  0  0  0
  193.5670  171.3350  143.7950 S   0  0  0  0  0  0  0  0  0  0  0  0
  189.0760  174.1060  141.2630 C   0  0  0  0  0  2  0  0  0  0  0  0
  191.8550  176.2400  145.4380 C   0  0  1  0  0  3  0  0  0  0  0  0
  191.4010  173.0440  143.3980 C   0  0  2  0  0  3  0  0  0  0  0  0
  194.4600  174.5500  144.9040 C   0  0  0  0  0  2  0  0  0  0  0  0
  189.1760  176.3110  143.4000 C   0  0  2  0  0  3  0  0  0  0  0  0
  195.4760  172.4290  145.4470 C   0  0  0  0  0  2  0  0  0  0  0  0
  190.5600  173.7720  141.0760 C   0  0  1  0  0  3  0  0  0  0  0  0
  191.0710  172.6090  141.9510 C   0  0  2  0  0  3  0  0  0  0  0  0
  190.2950  177.2950  143.7720 C   0  0  0  0  0  2  0  0  0  0  0  0
  186.9150  177.5200  142.9880 C   0  0  0  0  0  2  0  0  0  0  0  0
  187.8330  176.7590  143.9020 C   0  0  0  0  0  0  0  0  0  0  0  0
  187.4420  176.5320  145.1650 C   0  0  0  0  0  3  0  0  0  0  0  0
  185.9850  176.9520  147.3880 Cl  0  0  0  0  0  0  0  0  0  0  0  0
  185.8370  178.4600  145.1300 C   0  0  0  0  0  2  0  0  0  0  0  0
  186.0970  177.0250  145.6160 C   0  0  1  0  0  3  0  0  0  0  0  0
  186.3680  178.7570  143.7110 C   0  0  0  0  0  2  0  0  0  0  0  0
  191.2930  176.5310  147.8520 C   0  0  0  0  0  1  0  0  0  0  0  0
  192.4170  176.4450  146.8390 C   0  0  0  0  0  2  0  0  0  0  0  0
  192.3330  173.0810  139.4110 C   0  0  0  0  0  1  0  0  0  0  0  0
  190.9620  173.7130  139.6000 C   0  0  1  0  0  3  0  0  0  0  0  0
  189.5300  173.9990  137.6730 O   0  0  0  0  0  1  0  0  0  0  0  0
  189.9080  173.1020  138.6740 C   0  0  0  0  0  2  0  0  0  0  0  0
  190.1210  171.4060  141.9290 C   0  0  0  0  0  2  0  0  0  0  0  0
  190.7720  170.1840  141.3800 C   0  0  0  0  0  0  0  0  0  0  0  0
  190.8910  170.0210  140.0070 O   0  0  0  0  0  0  0  0  0  0  0  0
  191.2000  169.2930  142.1590 O   0  0  0  0  0  1  0  0  0  0  0  0
  1 15  1  0  0  0  0
  1 17  1  0  0  0  0
  2 13  1  0  0  0  0
  2  6  1  6  0  0  0
  3  7  1  0  0  0  0
  4 15  1  6  0  0  0
  4  9  1  0  0  0  0
  4  6  1  0  0  0  0
  5  2  1  0  0  0  0
  7  5  1  0  0  0  0
  8 11  1  0  0  0  0
  8  4  1  0  0  0  0
  9 17  1  0  0  0  0
 10 13  1  0  0  0  0
 11  9  1  0  0  0  0
 12  3  1  0  0  0  0
 13 29  1  0  0  0  0
 14  8  1  0  0  0  0
 14  5  1  0  0  0  0
 16  7  1  0  0  0  0
 16 20  1  0  0  0  0
 16 22  1  0  0  0  0
 18 12  1  0  0  0  0
 18 19  1  0  0  0  0
 19 14  1  0  0  0  0
 20 10  1  0  0  0  0
 21 27  1  0  0  0  0
 21 22  1  0  0  0  0
 22 23  2  0  0  0  0
 23 26  1  0  0  0  0
 25 26  1  0  0  0  0
 26 24  1  0  0  0  0
 27 25  1  0  0  0  0
 29 28  1  0  0  0  0
 30 31  1  0  0  0  0
 31 18  1  0  0  0  0
 32 33  1  0  0  0  0
 33 31  1  0  0  0  0
 34 19  1  0  0  0  0
 35 34  1  0  0  0  0
 35 37  1  0  0  0  0
 36 35  2  0  0  0  0
M  END
>  <MODEL>
2

>  <REMARK>
 VINA RESULT:      -7.4      3.034      6.515
  Name = 
  6 active torsions:
  status: ('A' for Active; 'I' for Inactive)
    1  A    between atoms: C_1  and  C_5
    2  A    between atoms: C_1  and  C_36
    3  A    between atoms: C_6  and  C_31
    4  A    between atoms: C_24  and  C_28
    5  A    between atoms: C_26  and  C_33
    6  A    between atoms: C_26  and  C_34
                            x       y       z     vdW  Elec       q    Type
                         _______ _______ _______ _____ _____    ______ ____

>  <TORSDO>
F 6

$$$$
=
 OpenBabel11052420003D

 37 42  0  0  1  0  0  0  0  0999 V2000
  196.6170  173.9440  142.0150 C   0  0  0  0  0  2  0  0  0  0  0  0
  192.9410  174.9610  144.4010 C   0  0  1  0  0  3  0  0  0  0  0  0
  189.3400  173.9750  143.4980 C   0  0  0  0  0  2  0  0  0  0  0  0
  194.5660  173.6790  143.2750 C   0  0  2  0  0  0  0  0  0  0  0  0
  191.8760  174.5580  143.3570 C   0  0  2  0  0  3  0  0  0  0  0  0
  194.0260  174.0500  144.5320 O   0  0  0  0  0  0  0  0  0  0  0  0
  190.4820  174.8940  143.9380 C   0  0  1  0  0  3  0  0  0  0  0  0
  193.5570  173.1100  142.2790 C   0  0  1  0  0  3  0  0  0  0  0  0
  195.3490  172.3890  143.4030 C   0  0  1  0  0  3  0  0  0  0  0  0
  192.2410  177.3740  144.6020 C   0  0  0  0  0  2  0  0  0  0  0  0
  194.2880  171.4430  142.2630 S   0  0  0  0  0  0  0  0  0  0  0  0
  189.0520  174.0450  141.9960 C   0  0  0  0  0  2  0  0  0  0  0  0
  193.3910  176.4240  144.2810 C   0  0  1  0  0  3  0  0  0  0  0  0
  192.1360  173.1160  142.8440 C   0  0  2  0  0  3  0  0  0  0  0  0
  195.4960  174.7200  142.6720 C   0  0  0  0  0  2  0  0  0  0  0  0
  190.0700  176.3680  143.7320 C   0  0  2  0  0  3  0  0  0  0  0  0
  196.7130  172.6370  142.7780 C   0  0  0  0  0  2  0  0  0  0  0  0
  190.2870  173.7090  141.1530 C   0  0  1  0  0  3  0  0  0  0  0  0
  191.1830  172.5990  141.7420 C   0  0  2  0  0  3  0  0  0  0  0  0
  191.2030  177.3760  143.4900 C   0  0  0  0  0  2  0  0  0  0  0  0
  189.3700  176.5270  146.2260 C   0  0  0  0  0  2  0  0  0  0  0  0
  189.1030  176.8370  144.7810 C   0  0  0  0  0  0  0  0  0  0  0  0
  187.9810  177.4970  144.4600 C   0  0  0  0  0  3  0  0  0  0  0  0
  185.4810  178.4090  144.8560 Cl  0  0  0  0  0  0  0  0  0  0  0  0
  186.8320  176.7930  146.5750 C   0  0  0  0  0  2  0  0  0  0  0  0
  187.0410  177.9200  145.5520 C   0  0  1  0  0  3  0  0  0  0  0  0
  188.1010  175.9680  146.8810 C   0  0  0  0  0  2  0  0  0  0  0  0
  194.0200  176.7920  146.6690 C   0  0  0  0  0  1  0  0  0  0  0  0
  194.5360  176.7100  145.2450 C   0  0  0  0  0  2  0  0  0  0  0  0
  191.1310  173.0180  138.8730 C   0  0  0  0  0  1  0  0  0  0  0  0
  189.9560  173.5680  139.6650 C   0  0  1  0  0  3  0  0  0  0  0  0
  187.8930  173.4910  138.4060 O   0  0  0  0  0  1  0  0  0  0  0  0
  188.6540  172.8220  139.3680 C   0  0  0  0  0  2  0  0  0  0  0  0
  190.3690  171.3920  142.2240 C   0  0  0  0  0  2  0  0  0  0  0  0
  190.8260  170.1190  141.6000 C   0  0  0  0  0  0  0  0  0  0  0  0
  190.5760  169.8780  140.2560 O   0  0  0  0  0  0  0  0  0  0  0  0
  191.4250  169.2560  142.2930 O   0  0  0  0  0  1  0  0  0  0  0  0
  1 15  1  0  0  0  0
  1 17  1  0  0  0  0
  2  6  1  6  0  0  0
  3  7  1  0  0  0  0
  4 15  1  6  0  0  0
  4  9  1  0  0  0  0
  4  6  1  0  0  0  0
  5  7  1  0  0  0  0
  5  2  1  0  0  0  0
  8 14  1  0  0  0  0
  8  4  1  0  0  0  0
 11  8  1  0  0  0  0
 11  9  1  0  0  0  0
 12  3  1  0  0  0  0
 13  2  1  0  0  0  0
 13 10  1  0  0  0  0
 13 29  1  0  0  0  0
 14  5  1  0  0  0  0
 16  7  1  0  0  0  0
 16 22  1  0  0  0  0
 17  9  1  0  0  0  0
 18 19  1  0  0  0  0
 18 12  1  0  0  0  0
 19 34  1  0  0  0  0
 19 14  1  0  0  0  0
 20 16  1  0  0  0  0
 20 10  1  0  0  0  0
 21 27  1  0  0  0  0
 22 21  1  0  0  0  0
 23 22  2  0  0  0  0
 23 26  1  0  0  0  0
 24 26  1  0  0  0  0
 25 27  1  0  0  0  0
 26 25  1  0  0  0  0
 29 28  1  0  0  0  0
 30 31  1  0  0  0  0
 31 18  1  0  0  0  0
 32 33  1  0  0  0  0
 33 31  1  0  0  0  0
 35 34  1  0  0  0  0
 35 37  1  0  0  0  0
 36 35  2  0  0  0  0
M  END
>  <MODEL>
3

>  <REMARK>
 VINA RESULT:      -7.2      3.298      6.719
  Name = 
  6 active torsions:
  status: ('A' for Active; 'I' for Inactive)
    1  A    between atoms: C_1  and  C_5
    2  A    between atoms: C_1  and  C_36
    3  A    between atoms: C_6  and  C_31
    4  A    between atoms: C_24  and  C_28
    5  A    between atoms: C_26  and  C_33
    6  A    between atoms: C_26  and  C_34
                            x       y       z     vdW  Elec       q    Type
                         _______ _______ _______ _____ _____    ______ ____

>  <TORSDO>
F 6

$$$$
=
 OpenBabel11052420003D

 37 42  0  0  1  0  0  0  0  0999 V2000
  196.2190  173.0450  144.8680 C   0  0  0  0  0  2  0  0  0  0  0  0
  192.0580  174.7550  144.9510 C   0  0  1  0  0  3  0  0  0  0  0  0
  189.2910  174.0420  142.3850 C   0  0  0  0  0  2  0  0  0  0  0  0
  193.8000  173.1700  144.9050 C   0  0  2  0  0  0  0  0  0  0  0  0
  191.6110  174.3300  143.5350 C   0  0  2  0  0  3  0  0  0  0  0  0
  192.7710  173.7620  145.6790 O   0  0  0  0  0  0  0  0  0  0  0  0
  190.1880  174.8870  143.2930 C   0  0  1  0  0  3  0  0  0  0  0  0
  193.3500  172.5820  143.5680 C   0  0  1  0  0  3  0  0  0  0  0  0
  194.1960  171.8340  145.4970 C   0  0  1  0  0  3  0  0  0  0  0  0
  191.7470  177.2350  144.6140 C   0  0  0  0  0  2  0  0  0  0  0  0
  193.7140  170.8600  144.0350 S   0  0  0  0  0  0  0  0  0  0  0  0
  189.8100  173.9400  140.9490 C   0  0  0  0  0  2  0  0  0  0  0  0
  192.7350  176.1340  144.9910 C   0  0  1  0  0  3  0  0  0  0  0  0
  191.8600  172.8140  143.3190 C   0  0  2  0  0  3  0  0  0  0  0  0
  195.0600  174.0160  144.8050 C   0  0  0  0  0  2  0  0  0  0  0  0
  190.1760  176.3550  142.8140 C   0  0  2  0  0  3  0  0  0  0  0  0
  195.7100  171.8500  145.6500 C   0  0  0  0  0  2  0  0  0  0  0  0
  191.2290  173.3650  140.8850 C   0  0  1  0  0  3  0  0  0  0  0  0
  191.5190  172.2570  141.9180 C   0  0  2  0  0  3  0  0  0  0  0  0
  191.4220  177.1960  143.1290 C   0  0  0  0  0  2  0  0  0  0  0  0
  188.5080  177.1680  144.6290 C   0  0  0  0  0  2  0  0  0  0  0  0
  188.9030  177.0600  143.1840 C   0  0  0  0  0  0  0  0  0  0  0  0
  188.0820  177.5660  142.2520 C   0  0  0  0  0  3  0  0  0  0  0  0
  185.7370  178.4630  141.2850 Cl  0  0  0  0  0  0  0  0  0  0  0  0
  186.0930  177.4310  143.7750 C   0  0  0  0  0  2  0  0  0  0  0  0
  186.8110  178.2400  142.6830 C   0  0  1  0  0  3  0  0  0  0  0  0
  187.0380  176.7660  144.7990 C   0  0  0  0  0  2  0  0  0  0  0  0
  194.5130  177.2900  146.3060 C   0  0  0  0  0  1  0  0  0  0  0  0
  193.2710  176.4250  146.3870 C   0  0  0  0  0  2  0  0  0  0  0  0
  190.4870  172.9950  138.4970 C   0  0  0  0  0  1  0  0  0  0  0  0
  191.6700  173.0610  139.4510 C   0  0  1  0  0  3  0  0  0  0  0  0
  192.4750  174.4860  137.6700 O   0  0  0  0  0  1  0  0  0  0  0  0
  192.7920  173.9570  138.9240 C   0  0  0  0  0  2  0  0  0  0  0  0
  190.3930  171.2180  141.9850 C   0  0  0  0  0  2  0  0  0  0  0  0
  190.7840  169.9220  141.3640 C   0  0  0  0  0  0  0  0  0  0  0  0
  190.6590  169.7460  139.9930 O   0  0  0  0  0  0  0  0  0  0  0  0
  191.2120  168.9820  142.0820 O   0  0  0  0  0  1  0  0  0  0  0  0
  1 17  1  0  0  0  0
  2 13  1  0  0  0  0
  2  6  1  6  0  0  0
  3  7  1  0  0  0  0
  4 15  1  6  0  0  0
  4  9  1  0  0  0  0
  4  6  1  0  0  0  0
  5  2  1  0  0  0  0
  7  5  1  0  0  0  0
  8 11  1  0  0  0  0
  8  4  1  0  0  0  0
  9 17  1  0  0  0  0
 10 13  1  0  0  0  0
 11  9  1  0  0  0  0
 12  3  1  0  0  0  0
 13 29  1  0  0  0  0
 14  5  1  0  0  0  0
 14  8  1  0  0  0  0
 15  1  1  0  0  0  0
 16 20  1  0  0  0  0
 16 22  1  0  0  0  0
 16  7  1  0  0  0  0
 18 12  1  0  0  0  0
 18 19  1  0  0  0  0
 19 34  1  0  0  0  0
 19 14  1  0  0  0  0
 20 10  1  0  0  0  0
 21 27  1  0  0  0  0
 22 21  1  0  0  0  0
 23 26  1  0  0  0  0
 23 22  2  0  0  0  0
 24 26  1  0  0  0  0
 25 27  1  0  0  0  0
 26 25  1  0  0  0  0
 28 29  1  0  0  0  0
 30 31  1  0  0  0  0
 31 18  1  0  0  0  0
 32 33  1  0  0  0  0
 33 31  1  0  0  0  0
 35 34  1  0  0  0  0
 35 37  1  0  0  0  0
 36 35  2  0  0  0  0
M  END
>  <MODEL>
4

>  <REMARK>
 VINA RESULT:      -7.0      3.530      6.717
  Name = 
  6 active torsions:
  status: ('A' for Active; 'I' for Inactive)
    1  A    between atoms: C_1  and  C_5
    2  A    between atoms: C_1  and  C_36
    3  A    between atoms: C_6  and  C_31
    4  A    between atoms: C_24  and  C_28
    5  A    between atoms: C_26  and  C_33
    6  A    between atoms: C_26  and  C_34
                            x       y       z     vdW  Elec       q    Type
                         _______ _______ _______ _____ _____    ______ ____

>  <TORSDO>
F 6

$$$$
=
 OpenBabel11052420003D

 37 42  0  0  1  0  0  0  0  0999 V2000
  192.7590  170.4550  143.9550 C   0  0  0  0  0  2  0  0  0  0  0  0
  190.6410  173.9250  142.0280 C   0  0  1  0  0  3  0  0  0  0  0  0
  190.1740  177.4070  143.5800 C   0  0  0  0  0  2  0  0  0  0  0  0
  192.3440  172.6680  143.0610 C   0  0  2  0  0  0  0  0  0  0  0  0
  190.5500  174.8480  143.2630 C   0  0  2  0  0  3  0  0  0  0  0  0
  191.8920  173.2700  141.8600 O   0  0  0  0  0  0  0  0  0  0  0  0
  189.7700  176.1210  142.8560 C   0  0  1  0  0  3  0  0  0  0  0  0
  192.4320  173.6060  144.2640 C   0  0  1  0  0  3  0  0  0  0  0  0
  193.8360  172.4210  142.9920 C   0  0  1  0  0  3  0  0  0  0  0  0
  188.1590  173.7660  141.6120 C   0  0  0  0  0  2  0  0  0  0  0  0
  194.2450  173.5120  144.3930 S   0  0  0  0  0  0  0  0  0  0  0  0
  189.8950  177.3660  145.0850 C   0  0  0  0  0  2  0  0  0  0  0  0
  189.4390  172.9800  141.8820 C   0  0  1  0  0  3  0  0  0  0  0  0
  191.9460  175.0150  143.9200 C   0  0  2  0  0  3  0  0  0  0  0  0
  191.6760  171.3380  143.3730 C   0  0  0  0  0  2  0  0  0  0  0  0
  188.2370  175.9480  142.9220 C   0  0  2  0  0  3  0  0  0  0  0  0
  194.0610  170.9650  143.3680 C   0  0  0  0  0  2  0  0  0  0  0  0
  190.5990  176.1910  145.7720 C   0  0  1  0  0  3  0  0  0  0  0  0
  191.9990  175.8640  145.2110 C   0  0  2  0  0  3  0  0  0  0  0  0
  187.6980  174.5110  142.8550 C   0  0  0  0  0  2  0  0  0  0  0  0
  186.8560  178.1070  142.5040 C   0  0  0  0  0  2  0  0  0  0  0  0
  187.5230  176.8690  141.9750 C   0  0  0  0  0  0  0  0  0  0  0  0
  187.4290  176.5970  140.6650 C   0  0  0  0  0  3  0  0  0  0  0  0
  186.3690  176.7780  138.1990 Cl  0  0  0  0  0  0  0  0  0  0  0  0
  185.3580  177.9910  140.4130 C   0  0  0  0  0  2  0  0  0  0  0  0
  186.6820  177.5450  139.7710 C   0  0  1  0  0  3  0  0  0  0  0  0
  185.4360  178.2160  141.9380 C   0  0  0  0  0  2  0  0  0  0  0  0
  189.4100  172.6990  139.4020 C   0  0  0  0  0  1  0  0  0  0  0  0
  189.6610  172.0100  140.7290 C   0  0  0  0  0  2  0  0  0  0  0  0
  191.4330  175.2710  147.9750 C   0  0  0  0  0  1  0  0  0  0  0  0
  190.5020  176.2660  147.2990 C   0  0  1  0  0  3  0  0  0  0  0  0
  191.5410  177.7020  148.9440 O   0  0  0  0  0  1  0  0  0  0  0  0
  190.6370  177.6750  147.8800 C   0  0  0  0  0  2  0  0  0  0  0  0
  192.8560  177.1220  145.0220 C   0  0  0  0  0  2  0  0  0  0  0  0
  194.2040  176.9830  145.6380 C   0  0  0  0  0  0  0  0  0  0  0  0
  195.3330  176.9450  144.8310 O   0  0  0  0  0  0  0  0  0  0  0  0
  194.3200  176.8850  146.8870 O   0  0  0  0  0  1  0  0  0  0  0  0
  2  6  1  1  0  0  0
  2  5  1  0  0  0  0
  3 12  1  0  0  0  0
  4 15  1  1  0  0  0
  4  8  1  0  0  0  0
  5 14  1  0  0  0  0
  6  4  1  0  0  0  0
  7 16  1  0  0  0  0
  7  5  1  0  0  0  0
  7  3  1  0  0  0  0
  8 11  1  0  0  0  0
  9  4  1  0  0  0  0
  9 17  1  0  0  0  0
  9 11  1  0  0  0  0
 10 13  1  0  0  0  0
 10 20  1  0  0  0  0
 12 18  1  0  0  0  0
 13  2  1  0  0  0  0
 14  8  1  0  0  0  0
 14 19  1  0  0  0  0
 15  1  1  0  0  0  0
 17  1  1  0  0  0  0
 18 31  1  0  0  0  0
 19 18  1  0  0  0  0
 20 16  1  0  0  0  0
 22 21  1  0  0  0  0
 22 16  1  0  0  0  0
 23 22  2  0  0  0  0
 24 26  1  0  0  0  0
 25 27  1  0  0  0  0
 26 25  1  0  0  0  0
 26 23  1  0  0  0  0
 27 21  1  0  0  0  0
 28 29  1  0  0  0  0
 29 13  1  0  0  0  0
 31 33  1  0  0  0  0
 31 30  1  0  0  0  0
 33 32  1  0  0  0  0
 34 19  1  0  0  0  0
 34 35  1  0  0  0  0
 35 37  1  0  0  0  0
 36 35  2  0  0  0  0
M  END
>  <MODEL>
5

>  <REMARK>
 VINA RESULT:      -6.9      3.611      8.020
  Name = 
  6 active torsions:
  status: ('A' for Active; 'I' for Inactive)
    1  A    between atoms: C_1  and  C_5
    2  A    between atoms: C_1  and  C_36
    3  A    between atoms: C_6  and  C_31
    4  A    between atoms: C_24  and  C_28
    5  A    between atoms: C_26  and  C_33
    6  A    between atoms: C_26  and  C_34
                            x       y       z     vdW  Elec       q    Type
                         _______ _______ _______ _____ _____    ______ ____

>  <TORSDO>
F 6

$$$$
=
 OpenBabel11052420003D

 37 42  0  0  1  0  0  0  0  0999 V2000
  193.6300  170.3250  140.2240 C   0  0  0  0  0  2  0  0  0  0  0  0
  190.6550  173.6960  140.3690 C   0  0  1  0  0  3  0  0  0  0  0  0
  190.4800  176.4160  143.0750 C   0  0  0  0  0  2  0  0  0  0  0  0
  192.7220  172.5680  140.3160 C   0  0  2  0  0  0  0  0  0  0  0  0
  190.9410  174.1880  141.8050 C   0  0  2  0  0  3  0  0  0  0  0  0
  191.8110  173.3840  139.6000 O   0  0  0  0  0  0  0  0  0  0  0  0
  189.9560  175.3370  142.1250 C   0  0  1  0  0  3  0  0  0  0  0  0
  193.1600  173.1200  141.6720 C   0  0  1  0  0  3  0  0  0  0  0  0
  194.1020  172.6600  139.6980 C   0  0  1  0  0  3  0  0  0  0  0  0
  188.2180  173.1620  140.7320 C   0  0  0  0  0  2  0  0  0  0  0  0
  194.8960  173.3620  141.1800 S   0  0  0  0  0  0  0  0  0  0  0  0
  190.7770  175.8900  144.4820 C   0  0  0  0  0  2  0  0  0  0  0  0
  189.5720  172.6090  140.2990 C   0  0  1  0  0  3  0  0  0  0  0  0
  192.4590  174.4380  142.0010 C   0  0  2  0  0  3  0  0  0  0  0  0
  192.3360  171.0980  140.3530 C   0  0  0  0  0  2  0  0  0  0  0  0
  188.5750  174.8450  142.6100 C   0  0  2  0  0  3  0  0  0  0  0  0
  194.5770  171.2340  139.4650 C   0  0  0  0  0  2  0  0  0  0  0  0
  191.7840  174.7350  144.4670 C   0  0  1  0  0  3  0  0  0  0  0  0
  192.9050  174.8740  143.4160 C   0  0  2  0  0  3  0  0  0  0  0  0
  188.1790  173.4100  142.2330 C   0  0  0  0  0  2  0  0  0  0  0  0
  187.4120  176.4690  140.9510 C   0  0  0  0  0  2  0  0  0  0  0  0
  187.4850  175.8350  142.3100 C   0  0  0  0  0  0  0  0  0  0  0  0
  186.5900  176.1990  143.2410 C   0  0  0  0  0  3  0  0  0  0  0  0
  184.7470  177.8040  144.3650 Cl  0  0  0  0  0  0  0  0  0  0  0  0
  186.1360  178.3880  142.1020 C   0  0  0  0  0  2  0  0  0  0  0  0
  185.5380  177.2110  142.8890 C   0  0  1  0  0  3  0  0  0  0  0  0
  187.2340  177.9860  141.0930 C   0  0  0  0  0  2  0  0  0  0  0  0
  188.6290  173.0320  138.0270 C   0  0  0  0  0  1  0  0  0  0  0  0
  189.4420  172.0760  138.8780 C   0  0  0  0  0  2  0  0  0  0  0  0
  193.5510  173.5670  145.8480 C   0  0  0  0  0  1  0  0  0  0  0  0
  192.2460  174.3480  145.8750 C   0  0  1  0  0  3  0  0  0  0  0  0
  191.4220  175.2690  147.9530 O   0  0  0  0  0  1  0  0  0  0  0  0
  192.2810  175.5030  146.8770 C   0  0  0  0  0  2  0  0  0  0  0  0
  193.5180  176.2800  143.4040 C   0  0  0  0  0  2  0  0  0  0  0  0
  194.8240  176.3310  144.1180 C   0  0  0  0  0  0  0  0  0  0  0  0
  194.9480  177.0810  145.2790 O   0  0  0  0  0  1  0  0  0  0  0  0
  195.8170  175.7080  143.6620 O   0  0  0  0  0  0  0  0  0  0  0  0
  1 15  1  0  0  0  0
  2  6  1  1  0  0  0
  2  5  1  0  0  0  0
  3 12  1  0  0  0  0
  4 15  1  1  0  0  0
  4  8  1  0  0  0  0
  5 14  1  0  0  0  0
  5  7  1  0  0  0  0
  6  4  1  0  0  0  0
  7 16  1  0  0  0  0
  7  3  1  0  0  0  0
  8 14  1  0  0  0  0
  9  4  1  0  0  0  0
  9 11  1  0  0  0  0
 10 20  1  0  0  0  0
 11  8  1  0  0  0  0
 13  2  1  0  0  0  0
 13 10  1  0  0  0  0
 14 19  1  0  0  0  0
 17  9  1  0  0  0  0
 17  1  1  0  0  0  0
 18 12  1  0  0  0  0
 18 31  1  0  0  0  0
 19 18  1  0  0  0  0
 20 16  1  0  0  0  0
 21 27  1  0  0  0  0
 21 22  1  0  0  0  0
 22 16  1  0  0  0  0
 22 23  2  0  0  0  0
 25 26  1  0  0  0  0
 26 23  1  0  0  0  0
 26 24  1  0  0  0  0
 27 25  1  0  0  0  0
 28 29  1  0  0  0  0
 29 13  1  0  0  0  0
 30 31  1  0  0  0  0
 31 33  1  0  0  0  0
 33 32  1  0  0  0  0
 34 19  1  0  0  0  0
 34 35  1  0  0  0  0
 35 36  1  0  0  0  0
 37 35  2  0  0  0  0
M  END
>  <MODEL>
6

>  <REMARK>
 VINA RESULT:      -6.8      3.857      8.251
  Name = 
  6 active torsions:
  status: ('A' for Active; 'I' for Inactive)
    1  A    between atoms: C_1  and  C_5
    2  A    between atoms: C_1  and  C_36
    3  A    between atoms: C_6  and  C_31
    4  A    between atoms: C_24  and  C_28
    5  A    between atoms: C_26  and  C_33
    6  A    between atoms: C_26  and  C_34
                            x       y       z     vdW  Elec       q    Type
                         _______ _______ _______ _____ _____    ______ ____

>  <TORSDO>
F 6

$$$$
=
 OpenBabel11052420003D

 37 42  0  0  1  0  0  0  0  0999 V2000
  193.3280  170.1660  140.3700 C   0  0  0  0  0  2  0  0  0  0  0  0
  190.9440  173.9190  141.0560 C   0  0  1  0  0  3  0  0  0  0  0  0
  192.1280  176.9980  143.0230 C   0  0  0  0  0  2  0  0  0  0  0  0
  192.7080  172.5070  140.3890 C   0  0  2  0  0  0  0  0  0  0  0  0
  191.8460  174.5660  142.1300 C   0  0  2  0  0  3  0  0  0  0  0  0
  191.6400  173.3350  139.9610 O   0  0  0  0  0  0  0  0  0  0  0  0
  191.1740  175.8810  142.5930 C   0  0  1  0  0  3  0  0  0  0  0  0
  193.7170  173.1790  141.3190 C   0  0  1  0  0  3  0  0  0  0  0  0
  193.6980  172.3070  139.2610 C   0  0  1  0  0  3  0  0  0  0  0  0
  188.8590  173.8040  142.4690 C   0  0  0  0  0  2  0  0  0  0  0  0
  195.0930  173.0920  140.1300 S   0  0  0  0  0  0  0  0  0  0  0  0
  192.9540  176.6430  144.2620 C   0  0  0  0  0  2  0  0  0  0  0  0
  189.8590  173.0020  141.6400 C   0  0  1  0  0  3  0  0  0  0  0  0
  193.3180  174.6190  141.6420 C   0  0  2  0  0  3  0  0  0  0  0  0
  192.2690  171.1290  140.8600 C   0  0  0  0  0  2  0  0  0  0  0  0
  190.0980  175.6700  143.6800 C   0  0  2  0  0  3  0  0  0  0  0  0
  193.9260  170.8080  139.1340 C   0  0  0  0  0  2  0  0  0  0  0  0
  193.7750  175.3640  144.0640 C   0  0  1  0  0  3  0  0  0  0  0  0
  194.3510  175.1850  142.6440 C   0  0  2  0  0  3  0  0  0  0  0  0
  189.4780  174.2680  143.7790 C   0  0  0  0  0  2  0  0  0  0  0  0
  188.7190  177.4760  144.9350 C   0  0  0  0  0  2  0  0  0  0  0  0
  189.0580  176.7540  143.6630 C   0  0  0  0  0  0  0  0  0  0  0  0
  188.3900  177.0710  142.5440 C   0  0  0  0  0  3  0  0  0  0  0  0
  186.3540  178.1030  141.1200 Cl  0  0  0  0  0  0  0  0  0  0  0  0
  186.4490  177.9980  143.8350 C   0  0  0  0  0  2  0  0  0  0  0  0
  187.3440  178.1480  142.5950 C   0  0  1  0  0  3  0  0  0  0  0  0
  187.1970  177.5420  145.1080 C   0  0  0  0  0  2  0  0  0  0  0  0
  188.3290  173.2980  139.6900 C   0  0  0  0  0  1  0  0  0  0  0  0
  189.1010  172.2950  140.5240 C   0  0  0  0  0  2  0  0  0  0  0  0
  194.3980  175.9250  146.4490 C   0  0  0  0  0  1  0  0  0  0  0  0
  194.7610  175.1210  145.2100 C   0  0  1  0  0  3  0  0  0  0  0  0
  193.8530  172.8910  145.4220 O   0  0  0  0  0  1  0  0  0  0  0  0
  195.0210  173.6480  145.5290 C   0  0  0  0  0  2  0  0  0  0  0  0
  195.0000  176.4700  142.1150 C   0  0  0  0  0  2  0  0  0  0  0  0
  196.4880  176.4120  142.1650 C   0  0  0  0  0  0  0  0  0  0  0  0
  197.1600  176.8610  143.2940 O   0  0  0  0  0  1  0  0  0  0  0  0
  197.1360  175.9710  141.1810 O   0  0  0  0  0  0  0  0  0  0  0  0
  1 15  1  0  0  0  0
  2  6  1  6  0  0  0
  2 13  1  0  0  0  0
  2  5  1  0  0  0  0
  3 12  1  0  0  0  0
  4 15  1  1  0  0  0
  4  8  1  0  0  0  0
  5  7  1  0  0  0  0
  6  4  1  0  0  0  0
  7  3  1  0  0  0  0
  7 16  1  0  0  0  0
  8 14  1  0  0  0  0
  9 11  1  0  0  0  0
  9  4  1  0  0  0  0
 10 20  1  0  0  0  0
 11  8  1  0  0  0  0
 13 10  1  0  0  0  0
 14  5  1  0  0  0  0
 14 19  1  0  0  0  0
 16 20  1  0  0  0  0
 17  9  1  0  0  0  0
 17  1  1  0  0  0  0
 18 12  1  0  0  0  0
 18 31  1  0  0  0  0
 19 18  1  0  0  0  0
 21 27  1  0  0  0  0
 22 16  1  0  0  0  0
 22 21  1  0  0  0  0
 23 26  1  0  0  0  0
 23 22  2  0  0  0  0
 24 26  1  0  0  0  0
 25 27  1  0  0  0  0
 26 25  1  0  0  0  0
 28 29  1  0  0  0  0
 29 13  1  0  0  0  0
 31 33  1  0  0  0  0
 31 30  1  0  0  0  0
 32 33  1  0  0  0  0
 34 35  1  0  0  0  0
 34 19  1  0  0  0  0
 35 36  1  0  0  0  0
 37 35  2  0  0  0  0
M  END
>  <MODEL>
7

>  <REMARK>
 VINA RESULT:      -6.5      3.987      7.914
  Name = 
  6 active torsions:
  status: ('A' for Active; 'I' for Inactive)
    1  A    between atoms: C_1  and  C_5
    2  A    between atoms: C_1  and  C_36
    3  A    between atoms: C_6  and  C_31
    4  A    between atoms: C_24  and  C_28
    5  A    between atoms: C_26  and  C_33
    6  A    between atoms: C_26  and  C_34
                            x       y       z     vdW  Elec       q    Type
                         _______ _______ _______ _____ _____    ______ ____

>  <TORSDO>
F 6

$$$$
=
 OpenBabel11052420003D

 37 42  0  0  1  0  0  0  0  0999 V2000
  193.1070  170.8360  138.9660 C   0  0  0  0  0  2  0  0  0  0  0  0
  191.3360  173.8220  141.8270 C   0  0  1  0  0  3  0  0  0  0  0  0
  193.2030  175.5460  144.7070 C   0  0  0  0  0  2  0  0  0  0  0  0
  192.7760  172.8840  140.2150 C   0  0  2  0  0  0  0  0  0  0  0  0
  192.4850  173.8550  142.8580 C   0  0  2  0  0  3  0  0  0  0  0  0
  191.7510  173.8310  140.4660 O   0  0  0  0  0  0  0  0  0  0  0  0
  192.0650  174.7910  144.0170 C   0  0  1  0  0  3  0  0  0  0  0  0
  194.0070  173.0070  141.1120 C   0  0  1  0  0  3  0  0  0  0  0  0
  193.5170  173.2400  138.9440 C   0  0  1  0  0  3  0  0  0  0  0  0
  189.5400  173.0670  143.4270 C   0  0  0  0  0  2  0  0  0  0  0  0
  195.1280  173.4870  139.7600 S   0  0  0  0  0  0  0  0  0  0  0  0
  194.1920  174.6230  145.4250 C   0  0  0  0  0  2  0  0  0  0  0  0
  190.2750  172.7530  142.1270 C   0  0  1  0  0  3  0  0  0  0  0  0
  193.8420  174.1160  142.1520 C   0  0  2  0  0  3  0  0  0  0  0  0
  192.2720  171.4570  140.0650 C   0  0  0  0  0  2  0  0  0  0  0  0
  191.1840  174.0960  145.0780 C   0  0  2  0  0  3  0  0  0  0  0  0
  193.5440  171.9880  138.0820 C   0  0  0  0  0  2  0  0  0  0  0  0
  194.8100  173.5890  144.4780 C   0  0  1  0  0  3  0  0  0  0  0  0
  195.0970  174.1110  143.0560 C   0  0  2  0  0  3  0  0  0  0  0  0
  190.4340  172.8310  144.6350 C   0  0  0  0  0  2  0  0  0  0  0  0
  190.0610  174.9140  147.2710 C   0  0  0  0  0  2  0  0  0  0  0  0
  190.2900  175.0670  145.7950 C   0  0  0  0  0  0  0  0  0  0  0  0
  189.6550  176.0520  145.1430 C   0  0  0  0  0  3  0  0  0  0  0  0
  187.7510  177.9190  144.7870 Cl  0  0  0  0  0  0  0  0  0  0  0  0
  187.8640  176.2020  146.8930 C   0  0  0  0  0  2  0  0  0  0  0  0
  188.7560  176.9780  145.9110 C   0  0  1  0  0  3  0  0  0  0  0  0
  188.5620  175.0080  147.5790 C   0  0  0  0  0  2  0  0  0  0  0  0
  188.2570  173.8230  141.1200 C   0  0  0  0  0  1  0  0  0  0  0  0
  189.2530  172.6850  141.0010 C   0  0  0  0  0  2  0  0  0  0  0  0
  196.7160  173.6580  146.1370 C   0  0  0  0  0  1  0  0  0  0  0  0
  195.9510  172.8070  145.1360 C   0  0  1  0  0  3  0  0  0  0  0  0
  194.1590  171.2890  145.7100 O   0  0  0  0  0  1  0  0  0  0  0  0
  195.5470  171.4500  145.7140 C   0  0  0  0  0  2  0  0  0  0  0  0
  195.7840  175.4820  143.0690 C   0  0  0  0  0  2  0  0  0  0  0  0
  197.2320  175.3900  142.7300 C   0  0  0  0  0  0  0  0  0  0  0  0
  197.8020  174.1530  142.4620 O   0  0  0  0  0  0  0  0  0  0  0  0
  197.9410  176.4280  142.7020 O   0  0  0  0  0  1  0  0  0  0  0  0
  1 15  1  0  0  0  0
  2  6  1  6  0  0  0
  2 13  1  0  0  0  0
  2  5  1  0  0  0  0
  3 12  1  0  0  0  0
  4 15  1  6  0  0  0
  4  6  1  0  0  0  0
  4  8  1  0  0  0  0
  5  7  1  0  0  0  0
  7  3  1  0  0  0  0
  7 16  1  0  0  0  0
  8 14  1  0  0  0  0
  9 11  1  0  0  0  0
  9  4  1  0  0  0  0
 10 20  1  0  0  0  0
 11  8  1  0  0  0  0
 13 10  1  0  0  0  0
 14  5  1  0  0  0  0
 14 19  1  0  0  0  0
 16 22  1  0  0  0  0
 17  9  1  0  0  0  0
 17  1  1  0  0  0  0
 18 31  1  0  0  0  0
 18 12  1  0  0  0  0
 19 34  1  0  0  0  0
 19 18  1  0  0  0  0
 20 16  1  0  0  0  0
 21 27  1  0  0  0  0
 22 21  1  0  0  0  0
 23 22  2  0  0  0  0
 23 26  1  0  0  0  0
 24 26  1  0  0  0  0
 25 27  1  0  0  0  0
 26 25  1  0  0  0  0
 29 28  1  0  0  0  0
 29 13  1  0  0  0  0
 31 33  1  0  0  0  0
 31 30  1  0  0  0  0
 32 33  1  0  0  0  0
 35 34  1  0  0  0  0
 36 35  2  0  0  0  0
 37 35  1  0  0  0  0
M  END
>  <MODEL>
8

>  <REMARK>
 VINA RESULT:      -6.4      3.874      7.624
  Name = 
  6 active torsions:
  status: ('A' for Active; 'I' for Inactive)
    1  A    between atoms: C_1  and  C_5
    2  A    between atoms: C_1  and  C_36
    3  A    between atoms: C_6  and  C_31
    4  A    between atoms: C_24  and  C_28
    5  A    between atoms: C_26  and  C_33
    6  A    between atoms: C_26  and  C_34
                            x       y       z     vdW  Elec       q    Type
                         _______ _______ _______ _____ _____    ______ ____

>  <TORSDO>
F 6

$$$$
=
 OpenBabel11052420003D

 37 42  0  0  1  0  0  0  0  0999 V2000
  187.0730  177.9080  141.3060 C   0  0  0  0  0  2  0  0  0  0  0  0
  188.6950  173.7120  141.3390 C   0  0  1  0  0  3  0  0  0  0  0  0
  191.1150  172.2650  143.9470 C   0  0  0  0  0  2  0  0  0  0  0  0
  187.6080  175.6710  142.0650 C   0  0  2  0  0  0  0  0  0  0  0  0
  189.7900  173.9010  142.4120 C   0  0  2  0  0  3  0  0  0  0  0  0
  187.4490  174.3290  141.6380 O   0  0  0  0  0  0  0  0  0  0  0  0
  190.5610  172.5680  142.5530 C   0  0  1  0  0  3  0  0  0  0  0  0
  188.5570  175.8670  143.2470 C   0  0  1  0  0  3  0  0  0  0  0  0
  186.3780  176.1270  142.8220 C   0  0  1  0  0  3  0  0  0  0  0  0
  190.2410  172.9830  139.4850 C   0  0  0  0  0  2  0  0  0  0  0  0
  187.2540  176.4260  144.3910 S   0  0  0  0  0  0  0  0  0  0  0  0
  192.1800  173.2650  144.4040 C   0  0  0  0  0  2  0  0  0  0  0  0
  189.1840  173.9970  139.9110 C   0  0  1  0  0  3  0  0  0  0  0  0
  189.1920  174.5490  143.6890 C   0  0  2  0  0  3  0  0  0  0  0  0
  187.8370  176.6560  140.9300 C   0  0  0  0  0  2  0  0  0  0  0  0
  191.6780  172.3900  141.5020 C   0  0  2  0  0  3  0  0  0  0  0  0
  185.9390  177.4430  142.1980 C   0  0  0  0  0  2  0  0  0  0  0  0
  191.6610  174.7060  144.4000 C   0  0  1  0  0  3  0  0  0  0  0  0
  190.1880  174.8590  144.8310 C   0  0  2  0  0  3  0  0  0  0  0  0
  191.5550  173.2180  140.2140 C   0  0  0  0  0  2  0  0  0  0  0  0
  190.8380  169.9560  141.1750 C   0  0  0  0  0  2  0  0  0  0  0  0
  191.9690  170.9430  141.2230 C   0  0  0  0  0  0  0  0  0  0  0  0
  193.2220  170.4970  141.0540 C   0  0  0  0  0  3  0  0  0  0  0  0
  195.1730  168.6450  141.0040 Cl  0  0  0  0  0  0  0  0  0  0  0  0
  192.6010  168.1660  141.7420 C   0  0  0  0  0  2  0  0  0  0  0  0
  193.4510  169.0340  140.8020 C   0  0  1  0  0  3  0  0  0  0  0  0
  191.1870  168.7230  142.0170 C   0  0  0  0  0  2  0  0  0  0  0  0
  188.5420  173.8440  137.5040 C   0  0  0  0  0  1  0  0  0  0  0  0
  188.0240  173.9260  138.9270 C   0  0  0  0  0  2  0  0  0  0  0  0
  193.5290  174.9890  146.0800 C   0  0  0  0  0  1  0  0  0  0  0  0
  192.6440  175.6810  145.0550 C   0  0  1  0  0  3  0  0  0  0  0  0
  193.2340  176.1290  142.7540 O   0  0  0  0  0  1  0  0  0  0  0  0
  193.4480  176.5350  144.0730 C   0  0  0  0  0  2  0  0  0  0  0  0
  189.8650  174.0500  146.0930 C   0  0  0  0  0  2  0  0  0  0  0  0
  189.5880  174.9240  147.2670 C   0  0  0  0  0  0  0  0  0  0  0  0
  190.6360  175.3760  148.0560 O   0  0  0  0  0  1  0  0  0  0  0  0
  188.4040  175.2400  147.5520 O   0  0  0  0  0  0  0  0  0  0  0  0
  1 17  1  0  0  0  0
  2  6  1  1  0  0  0
  2  5  1  0  0  0  0
  3 12  1  0  0  0  0
  4 15  1  6  0  0  0
  4  9  1  0  0  0  0
  4  8  1  0  0  0  0
  5  7  1  0  0  0  0
  5 14  1  0  0  0  0
  6  4  1  0  0  0  0
  7  3  1  0  0  0  0
  8 14  1  0  0  0  0
  8 11  1  0  0  0  0
  9 11  1  0  0  0  0
 10 13  1  0  0  0  0
 10 20  1  0  0  0  0
 13  2  1  0  0  0  0
 14 19  1  0  0  0  0
 15  1  1  0  0  0  0
 16  7  1  0  0  0  0
 17  9  1  0  0  0  0
 18 12  1  0  0  0  0
 18 19  1  0  0  0  0
 18 31  1  0  0  0  0
 19 34  1  0  0  0  0
 20 16  1  0  0  0  0
 21 22  1  0  0  0  0
 21 27  1  0  0  0  0
 22 16  1  0  0  0  0
 23 22  2  0  0  0  0
 25 27  1  0  0  0  0
 26 24  1  0  0  0  0
 26 23  1  0  0  0  0
 26 25  1  0  0  0  0
 28 29  1  0  0  0  0
 29 13  1  0  0  0  0
 31 30  1  0  0  0  0
 32 33  1  0  0  0  0
 33 31  1  0  0  0  0
 34 35  1  0  0  0  0
 35 37  2  0  0  0  0
 35 36  1  0  0  0  0
M  END
>  <MODEL>
9

>  <REMARK>
 VINA RESULT:      -6.4      2.621      6.308
  Name = 
  6 active torsions:
  status: ('A' for Active; 'I' for Inactive)
    1  A    between atoms: C_1  and  C_5
    2  A    between atoms: C_1  and  C_36
    3  A    between atoms: C_6  and  C_31
    4  A    between atoms: C_24  and  C_28
    5  A    between atoms: C_26  and  C_33
    6  A    between atoms: C_26  and  C_34
                            x       y       z     vdW  Elec       q    Type
                         _______ _______ _______ _____ _____    ______ ____

>  <TORSDO>
F 6

$$$$
