=
 OpenBabel11052419123D

 32 37  0  0  1  0  0  0  0  0999 V2000
  191.9280  175.4580  145.4390 C   0  0  2  0  0  3  0  0  0  0  0  0
  190.1740  175.1260  143.7120 C   0  0  2  0  0  3  0  0  0  0  0  0
  192.2660  175.4520  146.9250 C   0  0  0  0  0  2  0  0  0  0  0  0
  190.4130  175.2480  145.2290 C   0  0  2  0  0  3  0  0  0  0  0  0
  188.7530  175.3220  143.1990 C   0  0  0  0  0  0  0  0  0  0  0  0
  190.4460  171.2680  140.4010 C   0  0  0  0  0  2  0  0  0  0  0  0
  190.7930  173.7820  143.3130 C   0  0  2  0  0  3  0  0  0  0  0  0
  188.4370  173.0990  139.9520 S   0  0  0  0  0  0  0  0  0  0  0  0
  188.9400  173.3140  141.7040 C   0  0  2  0  0  3  0  0  0  0  0  0
  188.0030  176.5980  143.4800 C   0  0  2  0  0  3  0  0  0  0  0  0
  189.5990  176.3200  145.9810 C   0  0  1  0  0  3  0  0  0  0  0  0
  188.2470  174.5360  142.2390 C   0  0  0  0  0  3  0  0  0  0  0  0
  188.1290  175.9410  145.9610 C   0  0  0  0  0  2  0  0  0  0  0  0
  190.0170  176.3760  147.4520 C   0  0  0  0  0  2  0  0  0  0  0  0
  192.2750  173.8000  143.5990 C   0  0  0  0  0  3  0  0  0  0  0  0
  188.8470  177.8300  143.1960 C   0  0  0  0  0  1  0  0  0  0  0  0
  192.7960  174.4970  144.6250 C   0  0  0  0  0  0  0  0  0  0  0  0
  190.4660  173.3860  141.8720 C   0  0  2  0  0  3  0  0  0  0  0  0
  187.3620  176.6700  144.8650 C   0  0  0  0  0  2  0  0  0  0  0  0
  191.5180  176.5870  147.6060 C   0  0  0  0  0  2  0  0  0  0  0  0
  189.9240  172.2230  139.3460 C   0  0  0  0  0  2  0  0  0  0  0  0
  191.1100  172.0260  141.5500 C   0  0  0  0  0  2  0  0  0  0  0  0
  196.3040  172.8240  145.0820 C   0  0  2  0  0  3  0  0  0  0  0  0
  197.2000  173.4440  146.4940 Cl  0  0  0  0  0  0  0  0  0  0  0  0
  194.2960  174.4720  144.7760 C   0  0  2  0  0  3  0  0  0  0  0  0
  196.8780  173.4000  143.7880 C   0  0  0  0  0  2  0  0  0  0  0  0
  194.9760  174.9740  143.5020 C   0  0  0  0  0  2  0  0  0  0  0  0
  194.8400  173.1290  145.2240 C   0  0  0  0  0  0  0  0  0  0  0  0
  194.1240  172.3310  145.8120 O   0  0  0  0  0  0  0  0  0  0  0  0
  196.4910  174.8680  143.6100 C   0  0  2  0  0  3  0  0  0  0  0  0
  196.2060  176.4540  141.7090 C   0  0  0  0  0  1  0  0  0  0  0  0
  197.1220  175.4270  142.3480 C   0  0  0  0  0  2  0  0  0  0  0  0
  1  3  1  1  0  0  0
  2  5  1  1  0  0  0
  2  4  1  0  0  0  0
  3 20  1  0  0  0  0
  4  1  1  0  0  0  0
  4 11  1  0  0  0  0
  5 10  1  0  0  0  0
  6 22  1  0  0  0  0
  7 15  1  0  0  0  0
  7  2  1  0  0  0  0
  8  9  1  0  0  0  0
  9 18  1  0  0  0  0
  9 12  1  0  0  0  0
 10 19  1  0  0  0  0
 11 14  1  0  0  0  0
 12  5  2  0  0  0  0
 13 11  1  0  0  0  0
 14 20  1  0  0  0  0
 15 17  2  0  0  0  0
 16 10  1  0  0  0  0
 17 25  1  0  0  0  0
 17  1  1  0  0  0  0
 18  7  1  0  0  0  0
 19 13  1  0  0  0  0
 21  8  1  0  0  0  0
 21  6  1  0  0  0  0
 22 18  1  0  0  0  0
 23 28  1  0  0  0  0
 23 24  1  0  0  0  0
 25 28  1  0  0  0  0
 26 23  1  0  0  0  0
 27 30  1  0  0  0  0
 27 25  1  0  0  0  0
 28 29  2  0  0  0  0
 30 26  1  0  0  0  0
 31 32  1  0  0  0  0
 32 30  1  0  0  0  0
M  END
>  <MODEL>
1

>  <REMARK>
 VINA RESULT:      -7.8      0.000      0.000
  Name = 
  2 active torsions:
  status: ('A' for Active; 'I' for Inactive)
    1  A    between atoms: C_15  and  C_26
    2  A    between atoms: C_16  and  C_27
                            x       y       z     vdW  Elec       q    Type
                         _______ _______ _______ _____ _____    ______ ____

>  <TORSDO>
F 2

$$$$
=
 OpenBabel11052419123D

 32 37  0  0  1  0  0  0  0  0999 V2000
  190.0940  174.9320  144.7450 C   0  0  2  0  0  3  0  0  0  0  0  0
  189.1380  175.2250  142.4710 C   0  0  2  0  0  3  0  0  0  0  0  0
  189.8070  174.7510  146.2300 C   0  0  0  0  0  2  0  0  0  0  0  0
  188.7840  175.1940  143.9700 C   0  0  2  0  0  3  0  0  0  0  0  0
  188.1350  175.8620  141.5170 C   0  0  0  0  0  0  0  0  0  0  0  0
  189.6960  171.6330  138.9060 C   0  0  0  0  0  2  0  0  0  0  0  0
  189.4990  173.7790  142.1110 C   0  0  2  0  0  3  0  0  0  0  0  0
  188.5660  174.0000  138.0620 S   0  0  0  0  0  0  0  0  0  0  0  0
  188.3760  173.9670  139.8880 C   0  0  2  0  0  3  0  0  0  0  0  0
  187.6890  177.2870  141.7090 C   0  0  2  0  0  3  0  0  0  0  0  0
  188.0440  176.4210  144.5380 C   0  0  1  0  0  3  0  0  0  0  0  0
  187.8650  175.3110  140.3250 C   0  0  0  0  0  3  0  0  0  0  0  0
  186.6560  176.4980  143.9270 C   0  0  0  0  0  2  0  0  0  0  0  0
  187.8490  176.2750  146.0490 C   0  0  0  0  0  2  0  0  0  0  0  0
  190.7000  173.3410  142.9130 C   0  0  0  0  0  3  0  0  0  0  0  0
  188.8600  178.2240  141.9540 C   0  0  0  0  0  1  0  0  0  0  0  0
  190.9350  173.7980  144.1560 C   0  0  0  0  0  0  0  0  0  0  0  0
  189.6760  173.5730  140.6050 C   0  0  2  0  0  3  0  0  0  0  0  0
  186.5960  177.4770  142.7610 C   0  0  0  0  0  2  0  0  0  0  0  0
  189.1680  176.0220  146.7680 C   0  0  0  0  0  2  0  0  0  0  0  0
  189.8940  172.7530  137.9020 C   0  0  0  0  0  2  0  0  0  0  0  0
  190.0240  172.1000  140.3240 C   0  0  0  0  0  2  0  0  0  0  0  0
  194.2810  171.7900  144.4510 C   0  0  2  0  0  3  0  0  0  0  0  0
  194.3300  170.7120  145.8710 Cl  0  0  0  0  0  0  0  0  0  0  0  0
  192.1940  173.3200  144.8340 C   0  0  2  0  0  3  0  0  0  0  0  0
  195.1410  173.0300  144.6890 C   0  0  0  0  0  2  0  0  0  0  0  0
  193.1600  174.4820  145.0640 C   0  0  0  0  0  2  0  0  0  0  0  0
  192.8590  172.1540  144.1280 C   0  0  0  0  0  0  0  0  0  0  0  0
  192.2170  171.4270  143.3840 O   0  0  0  0  0  0  0  0  0  0  0  0
  194.4710  173.9960  145.6660 C   0  0  2  0  0  3  0  0  0  0  0  0
  194.5450  176.4380  146.1570 C   0  0  0  0  0  1  0  0  0  0  0  0
  195.3740  175.1880  145.9260 C   0  0  0  0  0  2  0  0  0  0  0  0
  1  3  1  1  0  0  0
  2  5  1  6  0  0  0
  2  4  1  0  0  0  0
  3 20  1  0  0  0  0
  4 11  1  0  0  0  0
  4  1  1  0  0  0  0
  5 10  1  0  0  0  0
  6 22  1  0  0  0  0
  7  2  1  0  0  0  0
  7 15  1  0  0  0  0
  8  9  1  0  0  0  0
  9 12  1  0  0  0  0
  9 18  1  0  0  0  0
 10 16  1  0  0  0  0
 10 19  1  0  0  0  0
 11 14  1  0  0  0  0
 12  5  2  0  0  0  0
 13 11  1  0  0  0  0
 14 20  1  0  0  0  0
 15 17  2  0  0  0  0
 17  1  1  0  0  0  0
 17 25  1  0  0  0  0
 18  7  1  0  0  0  0
 19 13  1  0  0  0  0
 21  8  1  0  0  0  0
 21  6  1  0  0  0  0
 22 18  1  0  0  0  0
 23 26  1  0  0  0  0
 23 24  1  0  0  0  0
 25 27  1  0  0  0  0
 26 30  1  0  0  0  0
 27 30  1  0  0  0  0
 28 23  1  0  0  0  0
 28 25  1  0  0  0  0
 29 28  2  0  0  0  0
 30 32  1  0  0  0  0
 32 31  1  0  0  0  0
M  END
>  <MODEL>
2

>  <REMARK>
 VINA RESULT:      -7.4      1.910      2.448
  Name = 
  2 active torsions:
  status: ('A' for Active; 'I' for Inactive)
    1  A    between atoms: C_15  and  C_26
    2  A    between atoms: C_16  and  C_27
                            x       y       z     vdW  Elec       q    Type
                         _______ _______ _______ _____ _____    ______ ____

>  <TORSDO>
F 2

$$$$
=
 OpenBabel11052419123D

 32 37  0  0  1  0  0  0  0  0999 V2000
  192.3480  174.8480  144.9000 C   0  0  2  0  0  3  0  0  0  0  0  0
  190.5390  175.0810  143.2140 C   0  0  2  0  0  3  0  0  0  0  0  0
  192.7050  174.5150  146.3430 C   0  0  0  0  0  2  0  0  0  0  0  0
  190.8150  174.8790  144.7160 C   0  0  2  0  0  3  0  0  0  0  0  0
  189.1500  175.5530  142.8040 C   0  0  0  0  0  0  0  0  0  0  0  0
  190.2430  171.9250  139.2290 C   0  0  0  0  0  2  0  0  0  0  0  0
  190.9670  173.7700  142.5450 C   0  0  2  0  0  3  0  0  0  0  0  0
  188.4910  174.0510  139.2120 S   0  0  0  0  0  0  0  0  0  0  0  0
  189.0440  173.8610  140.9520 C   0  0  2  0  0  3  0  0  0  0  0  0
  188.5820  176.8370  143.3490 C   0  0  2  0  0  3  0  0  0  0  0  0
  190.1640  175.8830  145.6870 C   0  0  1  0  0  3  0  0  0  0  0  0
  188.5290  175.0370  141.7340 C   0  0  0  0  0  3  0  0  0  0  0  0
  188.6550  175.7060  145.6560 C   0  0  0  0  0  2  0  0  0  0  0  0
  190.6070  175.6020  147.1240 C   0  0  0  0  0  2  0  0  0  0  0  0
  192.4420  173.5430  142.7700 C   0  0  0  0  0  3  0  0  0  0  0  0
  189.5780  177.9820  143.2680 C   0  0  0  0  0  1  0  0  0  0  0  0
  193.0670  173.9580  143.8860 C   0  0  0  0  0  0  0  0  0  0  0  0
  190.5680  173.7030  141.0690 C   0  0  2  0  0  3  0  0  0  0  0  0
  187.9770  176.7240  144.7480 C   0  0  0  0  0  2  0  0  0  0  0  0
  192.1250  175.5860  147.2550 C   0  0  0  0  0  2  0  0  0  0  0  0
  189.8380  173.1250  138.3930 C   0  0  0  0  0  2  0  0  0  0  0  0
  191.0200  172.3580  140.4720 C   0  0  0  0  0  2  0  0  0  0  0  0
  196.7920  174.8650  144.6730 C   0  0  2  0  0  3  0  0  0  0  0  0
  197.8750  174.6680  143.2690 Cl  0  0  0  0  0  0  0  0  0  0  0  0
  194.5520  173.7120  143.9690 C   0  0  2  0  0  3  0  0  0  0  0  0
  196.9850  173.7190  145.6640 C   0  0  0  0  0  2  0  0  0  0  0  0
  194.8630  172.6160  144.9890 C   0  0  0  0  0  2  0  0  0  0  0  0
  195.3640  174.9690  144.2140 C   0  0  0  0  0  0  0  0  0  0  0  0
  194.9130  176.0680  143.9280 O   0  0  0  0  0  0  0  0  0  0  0  0
  196.3640  172.4210  145.1460 C   0  0  2  0  0  3  0  0  0  0  0  0
  195.5110  170.2600  146.0450 C   0  0  0  0  0  1  0  0  0  0  0  0
  196.6220  171.2900  146.1240 C   0  0  0  0  0  2  0  0  0  0  0  0
  1  3  1  1  0  0  0
  2  5  1  1  0  0  0
  2  4  1  0  0  0  0
  3 20  1  0  0  0  0
  4  1  1  0  0  0  0
  4 11  1  0  0  0  0
  5 10  1  0  0  0  0
  6 22  1  0  0  0  0
  7 15  1  0  0  0  0
  7  2  1  0  0  0  0
  8  9  1  0  0  0  0
  9 18  1  0  0  0  0
  9 12  1  0  0  0  0
 10 19  1  0  0  0  0
 11 14  1  0  0  0  0
 12  5  2  0  0  0  0
 13 11  1  0  0  0  0
 14 20  1  0  0  0  0
 15 17  2  0  0  0  0
 16 10  1  0  0  0  0
 17 25  1  0  0  0  0
 17  1  1  0  0  0  0
 18  7  1  0  0  0  0
 19 13  1  0  0  0  0
 21  8  1  0  0  0  0
 21  6  1  0  0  0  0
 22 18  1  0  0  0  0
 23 26  1  0  0  0  0
 24 23  1  0  0  0  0
 25 28  1  0  0  0  0
 25 27  1  0  0  0  0
 27 30  1  0  0  0  0
 28 23  1  0  0  0  0
 29 28  2  0  0  0  0
 30 26  1  0  0  0  0
 30 32  1  0  0  0  0
 31 32  1  0  0  0  0
M  END
>  <MODEL>
3

>  <REMARK>
 VINA RESULT:      -7.3      1.455      2.301
  Name = 
  2 active torsions:
  status: ('A' for Active; 'I' for Inactive)
    1  A    between atoms: C_15  and  C_26
    2  A    between atoms: C_16  and  C_27
                            x       y       z     vdW  Elec       q    Type
                         _______ _______ _______ _____ _____    ______ ____

>  <TORSDO>
F 2

$$$$
=
 OpenBabel11052419123D

 32 37  0  0  1  0  0  0  0  0999 V2000
  189.2330  174.2100  142.7470 C   0  0  2  0  0  3  0  0  0  0  0  0
  190.7960  175.0470  144.4880 C   0  0  2  0  0  3  0  0  0  0  0  0
  188.1860  174.5700  141.7010 C   0  0  0  0  0  2  0  0  0  0  0  0
  189.6420  175.4620  143.5540 C   0  0  2  0  0  3  0  0  0  0  0  0
  191.1150  175.9540  145.6690 C   0  0  0  0  0  0  0  0  0  0  0  0
  195.8370  174.6540  143.8970 C   0  0  0  0  0  2  0  0  0  0  0  0
  191.9920  174.7950  143.5630 C   0  0  2  0  0  3  0  0  0  0  0  0
  194.9810  175.5460  146.3590 S   0  0  0  0  0  0  0  0  0  0  0  0
  193.5770  175.8100  145.2050 C   0  0  2  0  0  3  0  0  0  0  0  0
  190.0600  176.2860  146.6910 C   0  0  2  0  0  3  0  0  0  0  0  0
  188.4120  176.1180  144.2140 C   0  0  1  0  0  3  0  0  0  0  0  0
  192.3810  176.2220  146.0160 C   0  0  0  0  0  3  0  0  0  0  0  0
  188.8080  177.4690  144.7830 C   0  0  0  0  0  2  0  0  0  0  0  0
  187.3240  176.3840  143.1710 C   0  0  0  0  0  2  0  0  0  0  0  0
  191.6700  173.6680  142.6120 C   0  0  0  0  0  3  0  0  0  0  0  0
  189.3070  175.0510  147.1570 C   0  0  0  0  0  1  0  0  0  0  0  0
  190.4220  173.4450  142.1640 C   0  0  0  0  0  0  0  0  0  0  0  0
  193.2960  174.5770  144.3320 C   0  0  2  0  0  3  0  0  0  0  0  0
  189.0980  177.4000  146.2770 C   0  0  0  0  0  2  0  0  0  0  0  0
  186.9540  175.1200  142.4040 C   0  0  0  0  0  2  0  0  0  0  0  0
  195.9180  174.3220  145.3750 C   0  0  0  0  0  2  0  0  0  0  0  0
  194.4490  174.3440  143.3390 C   0  0  0  0  0  2  0  0  0  0  0  0
  190.8990  171.3360  138.9030 C   0  0  2  0  0  3  0  0  0  0  0  0
  189.3590  170.8940  138.1200 Cl  0  0  0  0  0  0  0  0  0  0  0  0
  190.2240  172.2590  141.2550 C   0  0  2  0  0  3  0  0  0  0  0  0
  191.4960  170.1310  139.6290 C   0  0  0  0  0  2  0  0  0  0  0  0
  190.8460  171.0010  141.8640 C   0  0  0  0  0  2  0  0  0  0  0  0
  190.6920  172.4980  139.8320 C   0  0  0  0  0  0  0  0  0  0  0  0
  190.7890  173.6330  139.3910 O   0  0  0  0  0  0  0  0  0  0  0  0
  190.7300  169.8170  140.9140 C   0  0  2  0  0  3  0  0  0  0  0  0
  192.2490  168.9830  142.7050 C   0  0  0  0  0  1  0  0  0  0  0  0
  191.3110  168.5830  141.5810 C   0  0  0  0  0  2  0  0  0  0  0  0
  1  3  1  6  0  0  0
  1  4  1  0  0  0  0
  2  5  1  1  0  0  0
  3 20  1  0  0  0  0
  4 11  1  0  0  0  0
  4  2  1  0  0  0  0
  5 12  2  0  0  0  0
  5 10  1  0  0  0  0
  6 21  1  0  0  0  0
  7 18  1  0  0  0  0
  7  2  1  0  0  0  0
  9 12  1  0  0  0  0
  9  8  1  0  0  0  0
 10 16  1  0  0  0  0
 11 13  1  0  0  0  0
 13 19  1  0  0  0  0
 14 11  1  0  0  0  0
 15  7  1  0  0  0  0
 17 15  2  0  0  0  0
 17  1  1  0  0  0  0
 18  9  1  0  0  0  0
 19 10  1  0  0  0  0
 20 14  1  0  0  0  0
 21  8  1  0  0  0  0
 22  6  1  0  0  0  0
 22 18  1  0  0  0  0
 23 26  1  0  0  0  0
 23 28  1  0  0  0  0
 24 23  1  0  0  0  0
 25 27  1  0  0  0  0
 25 17  1  0  0  0  0
 26 30  1  0  0  0  0
 28 25  1  0  0  0  0
 29 28  2  0  0  0  0
 30 32  1  0  0  0  0
 30 27  1  0  0  0  0
 32 31  1  0  0  0  0
M  END
>  <MODEL>
4

>  <REMARK>
 VINA RESULT:      -7.1      3.251      6.137
  Name = 
  2 active torsions:
  status: ('A' for Active; 'I' for Inactive)
    1  A    between atoms: C_15  and  C_26
    2  A    between atoms: C_16  and  C_27
                            x       y       z     vdW  Elec       q    Type
                         _______ _______ _______ _____ _____    ______ ____

>  <TORSDO>
F 2

$$$$
=
 OpenBabel11052419123D

 32 37  0  0  1  0  0  0  0  0999 V2000
  187.3380  176.4640  142.1480 C   0  0  2  0  0  3  0  0  0  0  0  0
  187.9290  176.8830  144.5250 C   0  0  2  0  0  3  0  0  0  0  0  0
  186.8580  177.0650  140.8330 C   0  0  0  0  0  2  0  0  0  0  0  0
  187.3020  177.5230  143.2720 C   0  0  2  0  0  3  0  0  0  0  0  0
  187.6560  177.5410  145.8710 C   0  0  0  0  0  0  0  0  0  0  0  0
  192.7120  176.3270  146.1780 C   0  0  0  0  0  2  0  0  0  0  0  0
  189.4200  176.7380  144.2000 C   0  0  2  0  0  3  0  0  0  0  0  0
  190.8160  176.8020  148.1200 S   0  0  0  0  0  0  0  0  0  0  0  0
  190.0690  177.3480  146.5340 C   0  0  2  0  0  3  0  0  0  0  0  0
  186.2450  177.7390  146.3580 C   0  0  2  0  0  3  0  0  0  0  0  0
  185.8860  178.1150  143.4240 C   0  0  1  0  0  3  0  0  0  0  0  0
  188.6240  177.6710  146.7890 C   0  0  0  0  0  3  0  0  0  0  0  0
  185.9410  179.3160  144.3520 C   0  0  0  0  0  2  0  0  0  0  0  0
  185.3720  178.6260  142.0760 C   0  0  0  0  0  2  0  0  0  0  0  0
  189.5950  175.8220  143.0140 C   0  0  0  0  0  3  0  0  0  0  0  0
  185.4040  176.4830  146.2000 C   0  0  0  0  0  1  0  0  0  0  0  0
  188.6870  175.7530  142.0240 C   0  0  0  0  0  0  0  0  0  0  0  0
  190.2490  176.3120  145.4140 C   0  0  2  0  0  3  0  0  0  0  0  0
  185.5350  178.9610  145.7770 C   0  0  0  0  0  2  0  0  0  0  0  0
  185.4250  177.5450  141.0040 C   0  0  0  0  0  2  0  0  0  0  0  0
  192.1340  175.7280  147.4460 C   0  0  0  0  0  2  0  0  0  0  0  0
  191.7310  176.2000  145.0130 C   0  0  0  0  0  2  0  0  0  0  0  0
  188.4850  172.2910  140.2120 C   0  0  2  0  0  3  0  0  0  0  0  0
  190.0850  171.6100  139.8160 Cl  0  0  0  0  0  0  0  0  0  0  0  0
  188.9550  174.7650  140.9180 C   0  0  2  0  0  3  0  0  0  0  0  0
  187.8160  172.8530  138.9580 C   0  0  0  0  0  2  0  0  0  0  0  0
  188.2730  175.2040  139.6220 C   0  0  0  0  0  2  0  0  0  0  0  0
  188.6180  173.3330  141.2860 C   0  0  0  0  0  0  0  0  0  0  0  0
  188.5690  172.9860  142.4570 O   0  0  0  0  0  0  0  0  0  0  0  0
  188.4630  174.1680  138.5230 C   0  0  2  0  0  3  0  0  0  0  0  0
  186.8810  175.8270  137.5460 C   0  0  0  0  0  1  0  0  0  0  0  0
  187.8170  174.6710  137.2450 C   0  0  0  0  0  2  0  0  0  0  0  0
  1  3  1  6  0  0  0
  1  4  1  0  0  0  0
  2  5  1  1  0  0  0
  3 20  1  0  0  0  0
  4 11  1  0  0  0  0
  4  2  1  0  0  0  0
  5 10  1  0  0  0  0
  5 12  2  0  0  0  0
  6 21  1  0  0  0  0
  7  2  1  0  0  0  0
  7 18  1  0  0  0  0
  9 12  1  0  0  0  0
  9  8  1  0  0  0  0
 11 13  1  0  0  0  0
 13 19  1  0  0  0  0
 14 11  1  0  0  0  0
 15  7  1  0  0  0  0
 16 10  1  0  0  0  0
 17  1  1  0  0  0  0
 17 15  2  0  0  0  0
 18  9  1  0  0  0  0
 19 10  1  0  0  0  0
 20 14  1  0  0  0  0
 21  8  1  0  0  0  0
 22 18  1  0  0  0  0
 22  6  1  0  0  0  0
 23 28  1  0  0  0  0
 24 23  1  0  0  0  0
 25 28  1  0  0  0  0
 25 17  1  0  0  0  0
 26 23  1  0  0  0  0
 27 25  1  0  0  0  0
 28 29  2  0  0  0  0
 30 26  1  0  0  0  0
 30 27  1  0  0  0  0
 32 31  1  0  0  0  0
 32 30  1  0  0  0  0
M  END
>  <MODEL>
5

>  <REMARK>
 VINA RESULT:      -7.0      3.818      7.003
  Name = 
  2 active torsions:
  status: ('A' for Active; 'I' for Inactive)
    1  A    between atoms: C_15  and  C_26
    2  A    between atoms: C_16  and  C_27
                            x       y       z     vdW  Elec       q    Type
                         _______ _______ _______ _____ _____    ______ ____

>  <TORSDO>
F 2

$$$$
=
 OpenBabel11052419123D

 32 37  0  0  1  0  0  0  0  0999 V2000
  191.9340  174.7690  144.3100 C   0  0  2  0  0  3  0  0  0  0  0  0
  194.1750  174.1700  143.4220 C   0  0  2  0  0  3  0  0  0  0  0  0
  191.1360  175.6750  145.2390 C   0  0  0  0  0  2  0  0  0  0  0  0
  193.4480  175.0150  144.4860 C   0  0  2  0  0  3  0  0  0  0  0  0
  195.6620  173.9020  143.6230 C   0  0  0  0  0  0  0  0  0  0  0  0
  195.3440  174.9190  138.5240 C   0  0  0  0  0  2  0  0  0  0  0  0
  193.8450  174.8370  142.0820 C   0  0  2  0  0  3  0  0  0  0  0  0
  197.2130  173.5450  140.0090 S   0  0  0  0  0  0  0  0  0  0  0  0
  196.1530  174.4310  141.2190 C   0  0  2  0  0  3  0  0  0  0  0  0
  196.1600  173.2300  144.8750 C   0  0  2  0  0  3  0  0  0  0  0  0
  193.8730  174.8070  145.9530 C   0  0  1  0  0  3  0  0  0  0  0  0
  196.5210  173.9540  142.5950 C   0  0  0  0  0  3  0  0  0  0  0  0
  195.2990  175.2960  146.1380 C   0  0  0  0  0  2  0  0  0  0  0  0
  192.9980  175.6450  146.8880 C   0  0  0  0  0  2  0  0  0  0  0  0
  192.3550  174.7890  141.8460 C   0  0  0  0  0  3  0  0  0  0  0  0
  195.3440  171.9950  145.2240 C   0  0  0  0  0  1  0  0  0  0  0  0
  191.4680  174.8450  142.8550 C   0  0  0  0  0  0  0  0  0  0  0  0
  194.6550  174.2600  140.9200 C   0  0  2  0  0  3  0  0  0  0  0  0
  196.3090  174.1560  146.0810 C   0  0  0  0  0  2  0  0  0  0  0  0
  191.5160  175.3650  146.6780 C   0  0  0  0  0  2  0  0  0  0  0  0
  196.0890  173.5980  138.5680 C   0  0  0  0  0  2  0  0  0  0  0  0
  194.2770  174.9860  139.6160 C   0  0  0  0  0  2  0  0  0  0  0  0
  188.0310  176.1390  141.5040 C   0  0  2  0  0  3  0  0  0  0  0  0
  186.6980  175.9410  142.6710 Cl  0  0  0  0  0  0  0  0  0  0  0  0
  190.0090  174.7410  142.4900 C   0  0  2  0  0  3  0  0  0  0  0  0
  187.9370  175.0890  140.3980 C   0  0  0  0  0  2  0  0  0  0  0  0
  189.8090  173.7530  141.3400 C   0  0  0  0  0  2  0  0  0  0  0  0
  189.3540  176.0800  142.2150 C   0  0  0  0  0  0  0  0  0  0  0  0
  189.8280  177.1110  142.6700 O   0  0  0  0  0  0  0  0  0  0  0  0
  188.3510  173.7070  140.9040 C   0  0  2  0  0  3  0  0  0  0  0  0
  188.1940  173.3520  138.4430 C   0  0  0  0  0  1  0  0  0  0  0  0
  188.1920  172.6760  139.8010 C   0  0  0  0  0  2  0  0  0  0  0  0
  1  4  1  0  0  0  0
  1  3  1  1  0  0  0
  2  5  1  1  0  0  0
  2  4  1  0  0  0  0
  3 20  1  0  0  0  0
  4 11  1  0  0  0  0
  5 10  1  0  0  0  0
  6 21  1  0  0  0  0
  6 22  1  0  0  0  0
  7  2  1  0  0  0  0
  8  9  1  0  0  0  0
  9 12  1  0  0  0  0
 10 16  1  0  0  0  0
 10 19  1  0  0  0  0
 11 13  1  0  0  0  0
 11 14  1  0  0  0  0
 12  5  2  0  0  0  0
 15  7  1  0  0  0  0
 15 17  2  0  0  0  0
 17  1  1  0  0  0  0
 18  9  1  0  0  0  0
 18  7  1  0  0  0  0
 19 13  1  0  0  0  0
 20 14  1  0  0  0  0
 21  8  1  0  0  0  0
 22 18  1  0  0  0  0
 23 28  1  0  0  0  0
 23 24  1  0  0  0  0
 25 17  1  0  0  0  0
 26 30  1  0  0  0  0
 26 23  1  0  0  0  0
 27 25  1  0  0  0  0
 28 25  1  0  0  0  0
 28 29  2  0  0  0  0
 30 27  1  0  0  0  0
 31 32  1  0  0  0  0
 32 30  1  0  0  0  0
M  END
>  <MODEL>
6

>  <REMARK>
 VINA RESULT:      -6.8      3.353      6.813
  Name = 
  2 active torsions:
  status: ('A' for Active; 'I' for Inactive)
    1  A    between atoms: C_15  and  C_26
    2  A    between atoms: C_16  and  C_27
                            x       y       z     vdW  Elec       q    Type
                         _______ _______ _______ _____ _____    ______ ____

>  <TORSDO>
F 2

$$$$
=
 OpenBabel11052419123D

 32 37  0  0  1  0  0  0  0  0999 V2000
  192.3620  173.1250  142.7980 C   0  0  2  0  0  3  0  0  0  0  0  0
  191.1980  175.0380  143.8720 C   0  0  2  0  0  3  0  0  0  0  0  0
  193.0210  171.7650  142.9960 C   0  0  0  0  0  2  0  0  0  0  0  0
  191.9790  173.7420  144.1610 C   0  0  2  0  0  3  0  0  0  0  0  0
  191.0560  176.0490  145.0040 C   0  0  0  0  0  0  0  0  0  0  0  0
  186.3170  176.0560  142.8420 C   0  0  0  0  0  2  0  0  0  0  0  0
  189.8590  174.5800  143.2840 C   0  0  2  0  0  3  0  0  0  0  0  0
  187.6330  177.9180  144.3890 S   0  0  0  0  0  0  0  0  0  0  0  0
  188.6180  176.3730  144.5030 C   0  0  2  0  0  3  0  0  0  0  0  0
  192.2730  176.6230  145.6790 C   0  0  2  0  0  3  0  0  0  0  0  0
  193.2130  173.8590  145.0780 C   0  0  1  0  0  3  0  0  0  0  0  0
  189.9000  176.6910  145.2190 C   0  0  0  0  0  3  0  0  0  0  0  0
  192.7620  174.2300  146.4800 C   0  0  0  0  0  2  0  0  0  0  0  0
  193.9260  172.5100  145.1900 C   0  0  0  0  0  2  0  0  0  0  0  0
  190.1000  173.8290  141.9970 C   0  0  0  0  0  3  0  0  0  0  0  0
  193.3170  177.0890  144.6770 C   0  0  0  0  0  1  0  0  0  0  0  0
  191.2050  173.0880  141.7980 C   0  0  0  0  0  0  0  0  0  0  0  0
  188.8590  175.7280  143.1300 C   0  0  2  0  0  3  0  0  0  0  0  0
  192.8930  175.7240  146.7490 C   0  0  0  0  0  2  0  0  0  0  0  0
  194.2850  171.9450  143.8210 C   0  0  0  0  0  2  0  0  0  0  0  0
  186.6850  177.5270  142.8740 C   0  0  0  0  0  2  0  0  0  0  0  0
  187.5400  175.1890  142.5460 C   0  0  0  0  0  2  0  0  0  0  0  0
  190.3770  170.4760  139.0050 C   0  0  2  0  0  3  0  0  0  0  0  0
  191.7990  169.5390  138.4750 Cl  0  0  0  0  0  0  0  0  0  0  0  0
  191.3500  172.4250  140.4520 C   0  0  2  0  0  3  0  0  0  0  0  0
  190.0110  171.5310  137.9620 C   0  0  0  0  0  2  0  0  0  0  0  0
  190.9450  173.3830  139.3310 C   0  0  0  0  0  2  0  0  0  0  0  0
  190.6350  171.0910  140.3510 C   0  0  0  0  0  0  0  0  0  0  0  0
  190.3720  170.4480  141.3560 O   0  0  0  0  0  0  0  0  0  0  0  0
  191.0020  172.6950  137.9740 C   0  0  2  0  0  3  0  0  0  0  0  0
  189.1820  174.0820  136.9880 C   0  0  0  0  0  1  0  0  0  0  0  0
  190.6460  173.6970  136.8910 C   0  0  0  0  0  2  0  0  0  0  0  0
  1  3  1  1  0  0  0
  1  4  1  0  0  0  0
  2  4  1  0  0  0  0
  2  5  1  1  0  0  0
  3 20  1  0  0  0  0
  4 11  1  0  0  0  0
  5 12  2  0  0  0  0
  5 10  1  0  0  0  0
  6 21  1  0  0  0  0
  7  2  1  0  0  0  0
  8  9  1  0  0  0  0
  9 12  1  0  0  0  0
 10 19  1  0  0  0  0
 11 14  1  0  0  0  0
 11 13  1  0  0  0  0
 13 19  1  0  0  0  0
 15  7  1  0  0  0  0
 16 10  1  0  0  0  0
 17 15  2  0  0  0  0
 17  1  1  0  0  0  0
 18  7  1  0  0  0  0
 18  9  1  0  0  0  0
 20 14  1  0  0  0  0
 21  8  1  0  0  0  0
 22  6  1  0  0  0  0
 22 18  1  0  0  0  0
 23 28  1  0  0  0  0
 24 23  1  0  0  0  0
 25 17  1  0  0  0  0
 26 30  1  0  0  0  0
 26 23  1  0  0  0  0
 27 25  1  0  0  0  0
 28 25  1  0  0  0  0
 28 29  2  0  0  0  0
 30 27  1  0  0  0  0
 32 31  1  0  0  0  0
 32 30  1  0  0  0  0
M  END
>  <MODEL>
7

>  <REMARK>
 VINA RESULT:      -6.7      3.059      5.947
  Name = 
  2 active torsions:
  status: ('A' for Active; 'I' for Inactive)
    1  A    between atoms: C_15  and  C_26
    2  A    between atoms: C_16  and  C_27
                            x       y       z     vdW  Elec       q    Type
                         _______ _______ _______ _____ _____    ______ ____

>  <TORSDO>
F 2

$$$$
=
 OpenBabel11052419123D

 32 37  0  0  1  0  0  0  0  0999 V2000
  186.1100  177.1480  142.4180 C   0  0  2  0  0  3  0  0  0  0  0  0
  187.6610  177.1180  144.3580 C   0  0  2  0  0  3  0  0  0  0  0  0
  185.1180  177.9620  141.5970 C   0  0  0  0  0  2  0  0  0  0  0  0
  186.5620  177.9430  143.6610 C   0  0  2  0  0  3  0  0  0  0  0  0
  187.9920  177.4550  145.8060 C   0  0  0  0  0  0  0  0  0  0  0  0
  192.6890  176.6720  143.6930 C   0  0  0  0  0  2  0  0  0  0  0  0
  188.8700  177.1800  143.4180 C   0  0  2  0  0  3  0  0  0  0  0  0
  191.8060  176.5590  146.3000 S   0  0  0  0  0  0  0  0  0  0  0  0
  190.4570  177.3510  145.3390 C   0  0  2  0  0  3  0  0  0  0  0  0
  186.9260  177.4180  146.8680 C   0  0  2  0  0  3  0  0  0  0  0  0
  185.3510  178.3590  144.5200 C   0  0  1  0  0  3  0  0  0  0  0  0
  189.2600  177.4800  146.2390 C   0  0  0  0  0  3  0  0  0  0  0  0
  185.8030  179.3420  145.5860 C   0  0  0  0  0  2  0  0  0  0  0  0
  184.3130  179.0880  143.6640 C   0  0  0  0  0  2  0  0  0  0  0  0
  188.5160  176.5500  142.0930 C   0  0  0  0  0  3  0  0  0  0  0  0
  186.0910  176.1500  146.7950 C   0  0  0  0  0  1  0  0  0  0  0  0
  187.2720  176.6050  141.5850 C   0  0  0  0  0  0  0  0  0  0  0  0
  190.1350  176.5900  144.0440 C   0  0  2  0  0  3  0  0  0  0  0  0
  186.0420  178.6630  146.9290 C   0  0  0  0  0  2  0  0  0  0  0  0
  183.8970  178.2620  142.4530 C   0  0  0  0  0  2  0  0  0  0  0  0
  192.7040  175.7730  144.9140 C   0  0  0  0  0  2  0  0  0  0  0  0
  191.3040  176.7000  143.0480 C   0  0  0  0  0  2  0  0  0  0  0  0
  187.1370  176.2670  137.6880 C   0  0  2  0  0  3  0  0  0  0  0  0
  185.5440  175.7410  137.0830 Cl  0  0  0  0  0  0  0  0  0  0  0  0
  187.0370  175.8950  140.2750 C   0  0  2  0  0  3  0  0  0  0  0  0
  188.1390  175.1150  137.6360 C   0  0  0  0  0  2  0  0  0  0  0  0
  188.0360  174.7530  140.0920 C   0  0  0  0  0  2  0  0  0  0  0  0
  187.0040  176.8250  139.0770 C   0  0  0  0  0  0  0  0  0  0  0  0
  186.7490  178.0120  139.2170 O   0  0  0  0  0  0  0  0  0  0  0  0
  187.8660  174.0870  138.7340 C   0  0  2  0  0  3  0  0  0  0  0  0
  190.1090  173.2260  139.3960 C   0  0  0  0  0  1  0  0  0  0  0  0
  188.8390  172.9280  138.6200 C   0  0  0  0  0  2  0  0  0  0  0  0
  1  3  1  6  0  0  0
  1  4  1  0  0  0  0
  2  5  1  1  0  0  0
  3 20  1  0  0  0  0
  4  2  1  0  0  0  0
  4 11  1  0  0  0  0
  5 12  2  0  0  0  0
  5 10  1  0  0  0  0
  6 21  1  0  0  0  0
  7 18  1  0  0  0  0
  7  2  1  0  0  0  0
  9 12  1  0  0  0  0
  9  8  1  0  0  0  0
 10 19  1  0  0  0  0
 11 13  1  0  0  0  0
 13 19  1  0  0  0  0
 14 11  1  0  0  0  0
 15  7  1  0  0  0  0
 16 10  1  0  0  0  0
 17 15  2  0  0  0  0
 17  1  1  0  0  0  0
 18  9  1  0  0  0  0
 20 14  1  0  0  0  0
 21  8  1  0  0  0  0
 22  6  1  0  0  0  0
 22 18  1  0  0  0  0
 23 28  1  0  0  0  0
 24 23  1  0  0  0  0
 25 17  1  0  0  0  0
 26 23  1  0  0  0  0
 26 30  1  0  0  0  0
 27 25  1  0  0  0  0
 28 29  2  0  0  0  0
 28 25  1  0  0  0  0
 30 27  1  0  0  0  0
 32 30  1  0  0  0  0
 32 31  1  0  0  0  0
M  END
>  <MODEL>
8

>  <REMARK>
 VINA RESULT:      -6.6      4.418      7.633
  Name = 
  2 active torsions:
  status: ('A' for Active; 'I' for Inactive)
    1  A    between atoms: C_15  and  C_26
    2  A    between atoms: C_16  and  C_27
                            x       y       z     vdW  Elec       q    Type
                         _______ _______ _______ _____ _____    ______ ____

>  <TORSDO>
F 2

$$$$
=
 OpenBabel11052419123D

 32 37  0  0  1  0  0  0  0  0999 V2000
  189.6400  174.0740  142.3690 C   0  0  2  0  0  3  0  0  0  0  0  0
  192.0780  174.5060  142.5700 C   0  0  2  0  0  3  0  0  0  0  0  0
  188.5350  173.0260  142.3140 C   0  0  0  0  0  2  0  0  0  0  0  0
  191.0270  173.3960  142.3720 C   0  0  2  0  0  3  0  0  0  0  0  0
  193.5230  174.1890  142.2070 C   0  0  0  0  0  0  0  0  0  0  0  0
  194.0010  176.8470  146.6610 C   0  0  0  0  0  2  0  0  0  0  0  0
  191.8950  174.9810  144.0160 C   0  0  2  0  0  3  0  0  0  0  0  0
  195.7670  176.3910  144.5960 S   0  0  0  0  0  0  0  0  0  0  0  0
  194.3600  175.2430  144.3260 C   0  0  2  0  0  3  0  0  0  0  0  0
  193.8860  173.7310  140.8190 C   0  0  2  0  0  3  0  0  0  0  0  0
  191.1980  172.4850  141.1390 C   0  0  1  0  0  3  0  0  0  0  0  0
  194.5380  174.5980  142.9810 C   0  0  0  0  0  3  0  0  0  0  0  0
  192.4560  171.6500  141.3020 C   0  0  0  0  0  2  0  0  0  0  0  0
  190.0300  171.5010  141.0360 C   0  0  0  0  0  2  0  0  0  0  0  0
  190.5080  175.5500  144.1910 C   0  0  0  0  0  3  0  0  0  0  0  0
  193.2460  174.5980  139.7470 C   0  0  0  0  0  1  0  0  0  0  0  0
  189.4510  175.0820  143.5040 C   0  0  0  0  0  0  0  0  0  0  0  0
  192.9980  175.9410  144.4650 C   0  0  2  0  0  3  0  0  0  0  0  0
  193.6410  172.2460  140.5520 C   0  0  0  0  0  2  0  0  0  0  0  0
  188.6850  172.2170  141.0350 C   0  0  0  0  0  2  0  0  0  0  0  0
  194.9430  177.5750  145.7210 C   0  0  0  0  0  2  0  0  0  0  0  0
  192.7530  176.3640  145.9250 C   0  0  0  0  0  2  0  0  0  0  0  0
  186.9500  177.4820  145.3200 C   0  0  2  0  0  3  0  0  0  0  0  0
  185.4580  176.6660  145.8580 Cl  0  0  0  0  0  0  0  0  0  0  0  0
  188.1280  175.7660  143.7360 C   0  0  2  0  0  3  0  0  0  0  0  0
  186.6790  178.3300  144.0780 C   0  0  0  0  0  2  0  0  0  0  0  0
  187.7880  176.6960  142.5700 C   0  0  0  0  0  2  0  0  0  0  0  0
  188.0330  176.4690  145.0760 C   0  0  0  0  0  0  0  0  0  0  0  0
  188.7540  176.1380  146.0050 O   0  0  0  0  0  0  0  0  0  0  0  0
  186.4980  177.4590  142.8350 C   0  0  2  0  0  3  0  0  0  0  0  0
  186.6290  177.6460  140.3540 C   0  0  0  0  0  1  0  0  0  0  0  0
  186.1740  178.3260  141.6310 C   0  0  0  0  0  2  0  0  0  0  0  0
  1  3  1  1  0  0  0
  1  4  1  0  0  0  0
  1 17  1  0  0  0  0
  2  5  1  1  0  0  0
  2  7  1  0  0  0  0
  4  2  1  0  0  0  0
  5 12  2  0  0  0  0
  7 15  1  0  0  0  0
  7 18  1  0  0  0  0
  8 21  1  0  0  0  0
  9 18  1  0  0  0  0
  9  8  1  0  0  0  0
 10  5  1  0  0  0  0
 11 13  1  0  0  0  0
 11  4  1  0  0  0  0
 12  9  1  0  0  0  0
 14 11  1  0  0  0  0
 16 10  1  0  0  0  0
 17 25  1  0  0  0  0
 17 15  2  0  0  0  0
 18 22  1  0  0  0  0
 19 10  1  0  0  0  0
 19 13  1  0  0  0  0
 20 14  1  0  0  0  0
 20  3  1  0  0  0  0
 21  6  1  0  0  0  0
 22  6  1  0  0  0  0
 23 24  1  0  0  0  0
 25 28  1  0  0  0  0
 26 23  1  0  0  0  0
 27 30  1  0  0  0  0
 27 25  1  0  0  0  0
 28 23  1  0  0  0  0
 28 29  2  0  0  0  0
 30 26  1  0  0  0  0
 31 32  1  0  0  0  0
 32 30  1  0  0  0  0
M  END
>  <MODEL>
9

>  <REMARK>
 VINA RESULT:      -6.6      3.440      7.593
  Name = 
  2 active torsions:
  status: ('A' for Active; 'I' for Inactive)
    1  A    between atoms: C_15  and  C_26
    2  A    between atoms: C_16  and  C_27
                            x       y       z     vdW  Elec       q    Type
                         _______ _______ _______ _____ _____    ______ ____

>  <TORSDO>
F 2

$$$$
