=
 OpenBabel11052418243D

 27 31  0  0  1  0  0  0  0  0999 V2000
  190.3040  174.1510  144.0370 C   0  0  0  0  0  3  0  0  0  0  0  0
  189.0900  176.0650  145.1470 C   0  0  0  0  0  0  0  0  0  0  0  0
  188.1360  175.8560  142.7940 C   0  0  0  0  0  3  0  0  0  0  0  0
  185.5030  178.5420  146.0670 S   0  0  0  0  0  0  0  0  0  0  0  0
  183.7380  178.9340  143.9140 C   0  0  0  0  0  1  0  0  0  0  0  0
  188.9500  176.5740  146.4590 C   0  0  0  0  0  3  0  0  0  0  0  0
  185.9030  177.5710  143.7780 C   0  0  0  0  0  0  0  0  0  0  0  0
  188.7860  173.3710  140.2800 C   0  0  0  0  0  3  0  0  0  0  0  0
  185.7350  177.2440  142.4360 O   0  0  0  0  0  1  0  0  0  0  0  0
  189.5740  172.4480  140.9590 C   0  0  0  0  0  0  0  0  0  0  0  0
  186.9970  177.1560  144.5670 C   0  0  0  0  0  0  0  0  0  0  0  0
  190.2910  175.3510  144.8170 N   0  0  0  0  0  0  0  0  0  0  0  0
  184.9860  178.3520  144.4750 C   0  0  0  0  0  0  0  0  0  0  0  0
  186.8990  177.6290  145.8710 C   0  0  0  0  0  0  0  0  0  0  0  0
  189.6470  173.9160  142.9020 C   0  0  0  0  0  0  0  0  0  0  0  0
  188.0930  176.3470  144.1800 C   0  0  0  0  0  0  0  0  0  0  0  0
  188.3820  174.5410  140.9240 C   0  0  0  0  0  3  0  0  0  0  0  0
  187.8540  177.3520  146.8340 C   0  0  0  0  0  3  0  0  0  0  0  0
  189.9520  171.2990  140.3500 F   0  0  0  0  0  0  0  0  0  0  0  0
  190.0100  172.7290  142.2530 C   0  0  0  0  0  3  0  0  0  0  0  0
  188.7660  174.8160  142.2430 C   0  0  0  0  0  0  0  0  0  0  0  0
  194.1860  176.0160  146.3550 C   0  0  0  0  0  2  0  0  0  0  0  0
  191.5180  175.6820  145.5470 C   0  0  2  0  0  3  0  0  0  0  0  0
  192.2620  176.8640  144.8910 C   0  0  0  0  0  2  0  0  0  0  0  0
  193.7750  176.9070  145.1800 C   0  0  0  0  0  2  0  0  0  0  0  0
  193.6590  174.6280  146.1340 C   0  0  0  0  0  3  0  0  0  0  0  0
  192.3920  174.4670  145.7400 C   0  0  0  0  0  3  0  0  0  0  0  0
  1 12  1  0  0  0  0
  2  6  1  0  0  0  0
  3 16  1  0  0  0  0
  5 13  1  0  0  0  0
  6 18  2  0  0  0  0
  7 13  2  0  0  0  0
  7 11  1  0  0  0  0
  8 17  2  0  0  0  0
  8 10  1  0  0  0  0
  9  7  1  0  0  0  0
 10 20  2  0  0  0  0
 11 14  2  0  0  0  0
 12  2  1  0  0  0  0
 13  4  1  0  0  0  0
 14  4  1  0  0  0  0
 14 18  1  0  0  0  0
 15  1  2  0  0  0  0
 16 11  1  0  0  0  0
 16  2  2  0  0  0  0
 17 21  1  0  0  0  0
 19 10  1  0  0  0  0
 20 15  1  0  0  0  0
 21  3  2  0  0  0  0
 21 15  1  0  0  0  0
 23 12  1  6  0  0  0
 23 27  1  0  0  0  0
 24 25  1  0  0  0  0
 24 23  1  0  0  0  0
 25 22  1  0  0  0  0
 26 22  1  0  0  0  0
 27 26  2  0  0  0  0
M  END
>  <MODEL>
1

>  <REMARK>
 VINA RESULT:      -8.3      0.000      0.000
  Name = 
  1 active torsions:
  status: ('A' for Active; 'I' for Inactive)
    1  A    between atoms: C_9  and  N_15
                            x       y       z     vdW  Elec       q    Type
                         _______ _______ _______ _____ _____    ______ ____

>  <TORSDO>
F 1

$$$$
=
 OpenBabel11052418243D

 27 31  0  0  1  0  0  0  0  0999 V2000
  191.1410  175.6570  143.5310 C   0  0  0  0  0  3  0  0  0  0  0  0
  188.7120  175.9820  142.9270 C   0  0  0  0  0  0  0  0  0  0  0  0
  188.8970  176.3410  145.4430 C   0  0  0  0  0  3  0  0  0  0  0  0
  184.7370  177.9700  143.2300 S   0  0  0  0  0  0  0  0  0  0  0  0
  183.9890  178.7570  145.8230 C   0  0  0  0  0  1  0  0  0  0  0  0
  187.9590  176.1500  141.7420 C   0  0  0  0  0  3  0  0  0  0  0  0
  186.1950  177.5890  145.2470 C   0  0  0  0  0  0  0  0  0  0  0  0
  191.8250  176.4470  147.5230 C   0  0  0  0  0  3  0  0  0  0  0  0
  186.6540  177.5810  146.5610 O   0  0  0  0  0  1  0  0  0  0  0  0
  192.8610  176.4020  146.5960 C   0  0  0  0  0  0  0  0  0  0  0  0
  186.9100  177.0610  144.1510 C   0  0  0  0  0  0  0  0  0  0  0  0
  189.9470  175.2540  142.8520 N   0  0  0  0  0  0  0  0  0  0  0  0
  184.9630  178.1300  144.8910 C   0  0  0  0  0  0  0  0  0  0  0  0
  186.2090  177.2090  142.9590 C   0  0  0  0  0  0  0  0  0  0  0  0
  191.2550  176.0620  144.7960 C   0  0  0  0  0  0  0  0  0  0  0  0
  188.1900  176.4540  144.1570 C   0  0  0  0  0  0  0  0  0  0  0  0
  190.5040  176.3550  147.0880 C   0  0  0  0  0  3  0  0  0  0  0  0
  186.7090  176.7690  141.7450 C   0  0  0  0  0  3  0  0  0  0  0  0
  194.1460  176.5140  147.0080 F   0  0  0  0  0  0  0  0  0  0  0  0
  192.5740  176.1960  145.2480 C   0  0  0  0  0  3  0  0  0  0  0  0
  190.1930  176.2010  145.7300 C   0  0  0  0  0  0  0  0  0  0  0  0
  190.8660  172.0090  140.2820 C   0  0  0  0  0  2  0  0  0  0  0  0
  190.0890  174.2310  141.8130 C   0  0  2  0  0  3  0  0  0  0  0  0
  189.5020  172.8800  142.2690 C   0  0  0  0  0  2  0  0  0  0  0  0
  190.1000  171.6500  141.5580 C   0  0  0  0  0  2  0  0  0  0  0  0
  191.8800  173.0710  140.5940 C   0  0  0  0  0  3  0  0  0  0  0  0
  191.5140  174.1240  141.3310 C   0  0  0  0  0  3  0  0  0  0  0  0
  1 15  2  0  0  0  0
  2 16  1  0  0  0  0
  3 21  2  0  0  0  0
  4 13  1  0  0  0  0
  6 18  1  0  0  0  0
  6  2  2  0  0  0  0
  7  9  1  0  0  0  0
 10 19  1  0  0  0  0
 10  8  1  0  0  0  0
 11 16  2  0  0  0  0
 11  7  1  0  0  0  0
 12  2  1  0  0  0  0
 12  1  1  0  0  0  0
 13  7  2  0  0  0  0
 13  5  1  0  0  0  0
 14  4  1  0  0  0  0
 14 11  1  0  0  0  0
 15 20  1  0  0  0  0
 15 21  1  0  0  0  0
 16  3  1  0  0  0  0
 17  8  2  0  0  0  0
 18 14  2  0  0  0  0
 20 10  2  0  0  0  0
 21 17  1  0  0  0  0
 22 26  1  0  0  0  0
 22 25  1  0  0  0  0
 23 27  1  1  0  0  0
 23 24  1  0  0  0  0
 23 12  1  0  0  0  0
 25 24  1  0  0  0  0
 26 27  2  0  0  0  0
M  END
>  <MODEL>
2

>  <REMARK>
 VINA RESULT:      -8.2      2.456      4.928
  Name = 
  1 active torsions:
  status: ('A' for Active; 'I' for Inactive)
    1  A    between atoms: C_9  and  N_15
                            x       y       z     vdW  Elec       q    Type
                         _______ _______ _______ _____ _____    ______ ____

>  <TORSDO>
F 1

$$$$
=
 OpenBabel11052418243D

 27 31  0  0  1  0  0  0  0  0999 V2000
  187.4570  177.6070  142.9610 C   0  0  0  0  0  3  0  0  0  0  0  0
  188.9860  176.8880  144.8350 C   0  0  0  0  0  0  0  0  0  0  0  0
  189.2210  175.1490  142.9880 C   0  0  0  0  0  3  0  0  0  0  0  0
  192.7480  175.1910  146.5130 S   0  0  0  0  0  0  0  0  0  0  0  0
  193.8340  173.0350  145.0710 C   0  0  0  0  0  1  0  0  0  0  0  0
  189.5080  177.4640  146.0170 C   0  0  0  0  0  3  0  0  0  0  0  0
  191.6860  174.2730  144.4220 C   0  0  0  0  0  0  0  0  0  0  0  0
  187.8160  175.1280  139.6810 C   0  0  0  0  0  3  0  0  0  0  0  0
  191.4540  173.4930  143.2930 O   0  0  0  0  0  1  0  0  0  0  0  0
  187.2320  176.3870  139.5890 C   0  0  0  0  0  0  0  0  0  0  0  0
  190.8540  175.3320  144.8420 C   0  0  0  0  0  0  0  0  0  0  0  0
  187.7240  177.3640  144.3460 N   0  0  0  0  0  0  0  0  0  0  0  0
  192.7830  174.0720  145.2540 C   0  0  0  0  0  0  0  0  0  0  0  0
  191.3320  175.9350  146.0010 C   0  0  0  0  0  0  0  0  0  0  0  0
  187.7560  176.8180  141.9290 C   0  0  0  0  0  0  0  0  0  0  0  0
  189.6720  175.8090  144.2240 C   0  0  0  0  0  0  0  0  0  0  0  0
  188.4170  174.7310  140.8750 C   0  0  0  0  0  3  0  0  0  0  0  0
  190.6850  177.0000  146.6040 C   0  0  0  0  0  3  0  0  0  0  0  0
  186.6660  176.7900  138.4260 F   0  0  0  0  0  0  0  0  0  0  0  0
  187.1920  177.2150  140.7100 C   0  0  0  0  0  3  0  0  0  0  0  0
  188.4330  175.5710  141.9970 C   0  0  0  0  0  0  0  0  0  0  0  0
  184.4460  178.7660  146.6420 C   0  0  0  0  0  2  0  0  0  0  0  0
  186.7650  177.9090  145.3110 C   0  0  2  0  0  3  0  0  0  0  0  0
  185.9340  176.7910  145.9730 C   0  0  0  0  0  2  0  0  0  0  0  0
  184.5640  177.2460  146.5130 C   0  0  0  0  0  2  0  0  0  0  0  0
  184.8160  179.4060  145.3360 C   0  0  0  0  0  3  0  0  0  0  0  0
  185.9140  178.9930  144.6960 C   0  0  0  0  0  3  0  0  0  0  0  0
  1 12  1  0  0  0  0
  2  6  1  0  0  0  0
  3 16  1  0  0  0  0
  5 13  1  0  0  0  0
  6 18  2  0  0  0  0
  7 11  1  0  0  0  0
  7 13  2  0  0  0  0
  8 17  2  0  0  0  0
  9  7  1  0  0  0  0
 10  8  1  0  0  0  0
 10 20  2  0  0  0  0
 11 14  2  0  0  0  0
 12  2  1  0  0  0  0
 13  4  1  0  0  0  0
 14  4  1  0  0  0  0
 14 18  1  0  0  0  0
 15 21  1  0  0  0  0
 15  1  2  0  0  0  0
 16  2  2  0  0  0  0
 16 11  1  0  0  0  0
 17 21  1  0  0  0  0
 19 10  1  0  0  0  0
 20 15  1  0  0  0  0
 21  3  2  0  0  0  0
 23 12  1  6  0  0  0
 23 24  1  0  0  0  0
 24 25  1  0  0  0  0
 25 22  1  0  0  0  0
 26 22  1  0  0  0  0
 27 23  1  0  0  0  0
 27 26  2  0  0  0  0
M  END
>  <MODEL>
3

>  <REMARK>
 VINA RESULT:      -8.1      2.884      6.089
  Name = 
  1 active torsions:
  status: ('A' for Active; 'I' for Inactive)
    1  A    between atoms: C_9  and  N_15
                            x       y       z     vdW  Elec       q    Type
                         _______ _______ _______ _____ _____    ______ ____

>  <TORSDO>
F 1

$$$$
=
 OpenBabel11052418243D

 27 31  0  0  1  0  0  0  0  0999 V2000
  189.6770  174.2880  144.2080 C   0  0  0  0  0  3  0  0  0  0  0  0
  188.1170  176.2660  144.3640 C   0  0  0  0  0  0  0  0  0  0  0  0
  188.2870  175.6570  141.8960 C   0  0  0  0  0  3  0  0  0  0  0  0
  184.5120  178.6270  143.2340 S   0  0  0  0  0  0  0  0  0  0  0  0
  183.8700  178.5920  140.4970 C   0  0  0  0  0  1  0  0  0  0  0  0
  187.4230  176.9520  145.3870 C   0  0  0  0  0  3  0  0  0  0  0  0
  185.8640  177.3580  141.5300 C   0  0  0  0  0  0  0  0  0  0  0  0
  189.9480  172.8760  140.3410 C   0  0  0  0  0  3  0  0  0  0  0  0
  186.2970  176.8280  140.3180 O   0  0  0  0  0  1  0  0  0  0  0  0
  190.3510  172.1120  141.4310 C   0  0  0  0  0  0  0  0  0  0  0  0
  186.4980  177.1300  142.7700 C   0  0  0  0  0  0  0  0  0  0  0  0
  189.3340  175.5870  144.7050 N   0  0  0  0  0  0  0  0  0  0  0  0
  184.7420  178.1750  141.6280 C   0  0  0  0  0  0  0  0  0  0  0  0
  185.8450  177.7820  143.8100 C   0  0  0  0  0  0  0  0  0  0  0  0
  189.5800  173.8500  142.9530 C   0  0  0  0  0  0  0  0  0  0  0  0
  187.6460  176.3430  143.0300 C   0  0  0  0  0  0  0  0  0  0  0  0
  189.3140  174.1000  140.5520 C   0  0  0  0  0  3  0  0  0  0  0  0
  186.2800  177.7080  145.1220 C   0  0  0  0  0  3  0  0  0  0  0  0
  190.9470  170.9120  141.2360 F   0  0  0  0  0  0  0  0  0  0  0  0
  190.1800  172.6060  142.7230 C   0  0  0  0  0  3  0  0  0  0  0  0
  189.0850  174.5890  141.8450 C   0  0  0  0  0  0  0  0  0  0  0  0
  191.9720  176.4230  147.9180 C   0  0  0  0  0  2  0  0  0  0  0  0
  190.1220  176.0950  145.8310 C   0  0  2  0  0  3  0  0  0  0  0  0
  191.5490  176.4820  145.3920 C   0  0  0  0  0  2  0  0  0  0  0  0
  192.5970  176.4510  146.5220 C   0  0  0  0  0  2  0  0  0  0  0  0
  190.9770  175.3020  147.9950 C   0  0  0  0  0  3  0  0  0  0  0  0
  190.1020  175.1380  146.9980 C   0  0  0  0  0  3  0  0  0  0  0  0
  1 12  1  0  0  0  0
  2 12  1  0  0  0  0
  2  6  1  0  0  0  0
  3 16  1  0  0  0  0
  4 14  1  0  0  0  0
  5 13  1  0  0  0  0
  7 13  2  0  0  0  0
  7 11  1  0  0  0  0
  8 17  2  0  0  0  0
  8 10  1  0  0  0  0
  9  7  1  0  0  0  0
 10 20  2  0  0  0  0
 11 16  1  0  0  0  0
 11 14  2  0  0  0  0
 13  4  1  0  0  0  0
 14 18  1  0  0  0  0
 15  1  2  0  0  0  0
 16  2  2  0  0  0  0
 17 21  1  0  0  0  0
 18  6  2  0  0  0  0
 19 10  1  0  0  0  0
 20 15  1  0  0  0  0
 21  3  2  0  0  0  0
 21 15  1  0  0  0  0
 22 26  1  0  0  0  0
 23 12  1  6  0  0  0
 23 27  1  0  0  0  0
 24 23  1  0  0  0  0
 24 25  1  0  0  0  0
 25 22  1  0  0  0  0
 27 26  2  0  0  0  0
M  END
>  <MODEL>
4

>  <REMARK>
 VINA RESULT:      -7.8      1.610      1.936
  Name = 
  1 active torsions:
  status: ('A' for Active; 'I' for Inactive)
    1  A    between atoms: C_9  and  N_15
                            x       y       z     vdW  Elec       q    Type
                         _______ _______ _______ _____ _____    ______ ____

>  <TORSDO>
F 1

$$$$
=
 OpenBabel11052418243D

 27 31  0  0  1  0  0  0  0  0999 V2000
  188.5200  176.1720  145.6400 C   0  0  0  0  0  3  0  0  0  0  0  0
  188.4190  175.3910  143.2420 C   0  0  0  0  0  0  0  0  0  0  0  0
  190.8790  175.7660  143.7890 C   0  0  0  0  0  3  0  0  0  0  0  0
  189.8570  173.0810  139.7150 S   0  0  0  0  0  0  0  0  0  0  0  0
  192.6510  172.9530  139.4280 C   0  0  0  0  0  1  0  0  0  0  0  0
  187.4540  174.8090  142.3880 C   0  0  0  0  0  3  0  0  0  0  0  0
  191.4470  174.1840  141.3250 C   0  0  0  0  0  0  0  0  0  0  0  0
  192.4160  176.6070  146.9260 C   0  0  0  0  0  3  0  0  0  0  0  0
  192.6230  174.6120  141.9340 O   0  0  0  0  0  1  0  0  0  0  0  0
  191.3540  176.5240  147.8200 C   0  0  0  0  0  0  0  0  0  0  0  0
  190.1520  174.4740  141.8050 C   0  0  0  0  0  0  0  0  0  0  0  0
  187.9630  176.2180  144.3220 N   0  0  0  0  0  0  0  0  0  0  0  0
  191.4450  173.4160  140.1650 C   0  0  0  0  0  0  0  0  0  0  0  0
  189.1670  173.9160  140.9980 C   0  0  0  0  0  0  0  0  0  0  0  0
  189.8100  176.1490  145.9720 C   0  0  0  0  0  0  0  0  0  0  0  0
  189.7960  175.2150  142.9580 C   0  0  0  0  0  0  0  0  0  0  0  0
  192.1910  176.4090  145.5640 C   0  0  0  0  0  3  0  0  0  0  0  0
  187.8170  174.0630  141.2660 C   0  0  0  0  0  3  0  0  0  0  0  0
  191.5660  176.6930  149.1470 F   0  0  0  0  0  0  0  0  0  0  0  0
  190.0620  176.3120  147.3410 C   0  0  0  0  0  3  0  0  0  0  0  0
  190.9070  176.1420  145.0700 C   0  0  0  0  0  0  0  0  0  0  0  0
  184.5120  178.6820  144.4150 C   0  0  0  0  0  2  0  0  0  0  0  0
  186.6880  176.9240  144.1660 C   0  0  2  0  0  3  0  0  0  0  0  0
  186.8870  178.3140  143.5270 C   0  0  0  0  0  2  0  0  0  0  0  0
  185.7780  179.3340  143.8540 C   0  0  0  0  0  2  0  0  0  0  0  0
  184.8780  177.8050  145.5770 C   0  0  0  0  0  3  0  0  0  0  0  0
  185.9190  176.9740  145.4630 C   0  0  0  0  0  3  0  0  0  0  0  0
  1 15  2  0  0  0  0
  2 12  1  0  0  0  0
  3 21  2  0  0  0  0
  4 13  1  0  0  0  0
  4 14  1  0  0  0  0
  5 13  1  0  0  0  0
  6  2  2  0  0  0  0
  7 11  1  0  0  0  0
  7  9  1  0  0  0  0
  8 10  1  0  0  0  0
 10 19  1  0  0  0  0
 11 16  2  0  0  0  0
 12  1  1  0  0  0  0
 13  7  2  0  0  0  0
 14 18  2  0  0  0  0
 14 11  1  0  0  0  0
 15 20  1  0  0  0  0
 16  2  1  0  0  0  0
 16  3  1  0  0  0  0
 17  8  2  0  0  0  0
 18  6  1  0  0  0  0
 20 10  2  0  0  0  0
 21 17  1  0  0  0  0
 21 15  1  0  0  0  0
 22 26  1  0  0  0  0
 23 24  1  1  0  0  0
 23 12  1  0  0  0  0
 23 27  1  0  0  0  0
 24 25  1  0  0  0  0
 25 22  1  0  0  0  0
 27 26  2  0  0  0  0
M  END
>  <MODEL>
5

>  <REMARK>
 VINA RESULT:      -7.7      3.409      6.940
  Name = 
  1 active torsions:
  status: ('A' for Active; 'I' for Inactive)
    1  A    between atoms: C_9  and  N_15
                            x       y       z     vdW  Elec       q    Type
                         _______ _______ _______ _____ _____    ______ ____

>  <TORSDO>
F 1

$$$$
=
 OpenBabel11052418243D

 27 31  0  0  1  0  0  0  0  0999 V2000
  190.2690  172.9880  142.9160 C   0  0  0  0  0  3  0  0  0  0  0  0
  189.7250  174.6890  144.6990 C   0  0  0  0  0  0  0  0  0  0  0  0
  188.7130  175.5530  142.5260 C   0  0  0  0  0  3  0  0  0  0  0  0
  187.0960  177.6380  146.7570 S   0  0  0  0  0  0  0  0  0  0  0  0
  185.5010  179.2090  145.0550 C   0  0  0  0  0  1  0  0  0  0  0  0
  189.7720  174.7520  146.1110 C   0  0  0  0  0  3  0  0  0  0  0  0
  187.1360  177.4080  144.2500 C   0  0  0  0  0  0  0  0  0  0  0  0
  188.5200  173.9650  139.3090 C   0  0  0  0  0  3  0  0  0  0  0  0
  186.8530  177.6060  142.9020 O   0  0  0  0  0  1  0  0  0  0  0  0
  188.9960  172.6850  139.5700 C   0  0  0  0  0  0  0  0  0  0  0  0
  188.0610  176.4600  144.7370 C   0  0  0  0  0  0  0  0  0  0  0  0
  190.6410  173.8120  144.0260 N   0  0  0  0  0  0  0  0  0  0  0  0
  186.5180  178.1420  145.2570 C   0  0  0  0  0  0  0  0  0  0  0  0
  188.1370  176.4820  146.1250 C   0  0  0  0  0  0  0  0  0  0  0  0
  189.5520  173.3410  141.8500 C   0  0  0  0  0  0  0  0  0  0  0  0
  188.8480  175.5480  143.9920 C   0  0  0  0  0  0  0  0  0  0  0  0
  188.5090  174.9190  140.3260 C   0  0  0  0  0  3  0  0  0  0  0  0
  188.9760  175.6400  146.8360 C   0  0  0  0  0  3  0  0  0  0  0  0
  188.9900  171.7450  138.5950 F   0  0  0  0  0  0  0  0  0  0  0  0
  189.5200  172.3840  140.8270 C   0  0  0  0  0  3  0  0  0  0  0  0
  188.9820  174.6200  141.6110 C   0  0  0  0  0  0  0  0  0  0  0  0
  194.5510  172.7090  145.2400 C   0  0  0  0  0  2  0  0  0  0  0  0
  191.9220  173.5170  144.6720 C   0  0  2  0  0  3  0  0  0  0  0  0
  193.0250  174.4900  144.2070 C   0  0  0  0  0  2  0  0  0  0  0  0
  194.4600  173.9390  144.3330 C   0  0  0  0  0  2  0  0  0  0  0  0
  193.5540  171.6830  144.7870 C   0  0  0  0  0  3  0  0  0  0  0  0
  192.3050  172.0670  144.5070 C   0  0  0  0  0  3  0  0  0  0  0  0
  1 12  1  0  0  0  0
  2  6  1  0  0  0  0
  3 16  1  0  0  0  0
  5 13  1  0  0  0  0
  6 18  2  0  0  0  0
  7 11  1  0  0  0  0
  7 13  2  0  0  0  0
  8 10  1  0  0  0  0
  8 17  2  0  0  0  0
  9  7  1  0  0  0  0
 10 20  2  0  0  0  0
 11 14  2  0  0  0  0
 12  2  1  0  0  0  0
 13  4  1  0  0  0  0
 14  4  1  0  0  0  0
 14 18  1  0  0  0  0
 15  1  2  0  0  0  0
 16  2  2  0  0  0  0
 16 11  1  0  0  0  0
 17 21  1  0  0  0  0
 19 10  1  0  0  0  0
 20 15  1  0  0  0  0
 21 15  1  0  0  0  0
 21  3  2  0  0  0  0
 23 12  1  6  0  0  0
 24 25  1  0  0  0  0
 24 23  1  0  0  0  0
 25 22  1  0  0  0  0
 26 22  1  0  0  0  0
 27 23  1  0  0  0  0
 27 26  2  0  0  0  0
M  END
>  <MODEL>
6

>  <REMARK>
 VINA RESULT:      -7.4      1.534      1.950
  Name = 
  1 active torsions:
  status: ('A' for Active; 'I' for Inactive)
    1  A    between atoms: C_9  and  N_15
                            x       y       z     vdW  Elec       q    Type
                         _______ _______ _______ _____ _____    ______ ____

>  <TORSDO>
F 1

$$$$
=
 OpenBabel11052418243D

 27 31  0  0  1  0  0  0  0  0999 V2000
  189.5600  176.5680  143.8030 C   0  0  0  0  0  3  0  0  0  0  0  0
  187.6490  176.6570  142.1570 C   0  0  0  0  0  0  0  0  0  0  0  0
  186.6560  177.1030  144.4600 C   0  0  0  0  0  3  0  0  0  0  0  0
  183.8420  178.2900  140.5180 S   0  0  0  0  0  0  0  0  0  0  0  0
  181.9530  179.0810  142.4450 C   0  0  0  0  0  1  0  0  0  0  0  0
  187.5020  176.7230  140.7520 C   0  0  0  0  0  3  0  0  0  0  0  0
  184.2550  178.0980  142.9950 C   0  0  0  0  0  0  0  0  0  0  0  0
  188.3150  177.5290  147.6180 C   0  0  0  0  0  3  0  0  0  0  0  0
  184.0720  178.1690  144.3730 O   0  0  0  0  0  1  0  0  0  0  0  0
  189.6590  177.5500  147.2570 C   0  0  0  0  0  0  0  0  0  0  0  0
  185.4220  177.6050  142.3720 C   0  0  0  0  0  0  0  0  0  0  0  0
  188.8310  176.0410  142.6900 N   0  0  0  0  0  0  0  0  0  0  0  0
  183.2830  178.5170  142.0910 C   0  0  0  0  0  0  0  0  0  0  0  0
  185.3260  177.6560  140.9850 C   0  0  0  0  0  0  0  0  0  0  0  0
  189.0640  177.0170  144.9550 C   0  0  0  0  0  0  0  0  0  0  0  0
  186.5980  177.1150  142.9890 C   0  0  0  0  0  0  0  0  0  0  0  0
  187.3420  177.3070  146.6440 C   0  0  0  0  0  3  0  0  0  0  0  0
  186.3470  177.2280  140.1550 C   0  0  0  0  0  3  0  0  0  0  0  0
  190.6090  177.7880  148.1920 F   0  0  0  0  0  0  0  0  0  0  0  0
  190.0250  177.2820  145.9390 C   0  0  0  0  0  3  0  0  0  0  0  0
  187.6880  177.0870  145.3040 C   0  0  0  0  0  0  0  0  0  0  0  0
  190.9770  172.7840  141.0260 C   0  0  0  0  0  2  0  0  0  0  0  0
  189.4940  175.0060  141.8930 C   0  0  2  0  0  3  0  0  0  0  0  0
  188.7840  173.6430  142.0350 C   0  0  0  0  0  2  0  0  0  0  0  0
  189.6820  172.4210  141.7570 C   0  0  0  0  0  2  0  0  0  0  0  0
  191.6770  173.8830  141.7710 C   0  0  0  0  0  3  0  0  0  0  0  0
  190.9710  174.9360  142.1930 C   0  0  0  0  0  3  0  0  0  0  0  0
  1 15  2  0  0  0  0
  2 12  1  0  0  0  0
  2 16  1  0  0  0  0
  3 21  2  0  0  0  0
  4 14  1  0  0  0  0
  4 13  1  0  0  0  0
  6  2  2  0  0  0  0
  7  9  1  0  0  0  0
 10  8  1  0  0  0  0
 10 19  1  0  0  0  0
 11 16  2  0  0  0  0
 11  7  1  0  0  0  0
 12  1  1  0  0  0  0
 13  5  1  0  0  0  0
 13  7  2  0  0  0  0
 14 11  1  0  0  0  0
 15 21  1  0  0  0  0
 15 20  1  0  0  0  0
 16  3  1  0  0  0  0
 17  8  2  0  0  0  0
 18  6  1  0  0  0  0
 18 14  2  0  0  0  0
 20 10  2  0  0  0  0
 21 17  1  0  0  0  0
 22 25  1  0  0  0  0
 22 26  1  0  0  0  0
 23 24  1  1  0  0  0
 23 27  1  0  0  0  0
 23 12  1  0  0  0  0
 25 24  1  0  0  0  0
 26 27  2  0  0  0  0
M  END
>  <MODEL>
7

>  <REMARK>
 VINA RESULT:      -7.4      3.089      5.239
  Name = 
  1 active torsions:
  status: ('A' for Active; 'I' for Inactive)
    1  A    between atoms: C_9  and  N_15
                            x       y       z     vdW  Elec       q    Type
                         _______ _______ _______ _____ _____    ______ ____

>  <TORSDO>
F 1

$$$$
=
 OpenBabel11052418243D

 27 31  0  0  1  0  0  0  0  0999 V2000
  187.1860  176.7150  142.1640 C   0  0  0  0  0  3  0  0  0  0  0  0
  188.4410  176.6730  144.3530 C   0  0  0  0  0  0  0  0  0  0  0  0
  189.3300  174.7340  142.9600 C   0  0  0  0  0  3  0  0  0  0  0  0
  192.0640  176.1330  146.8880 S   0  0  0  0  0  0  0  0  0  0  0  0
  193.7730  174.0440  146.1000 C   0  0  0  0  0  1  0  0  0  0  0  0
  188.6180  177.5410  145.4560 C   0  0  0  0  0  3  0  0  0  0  0  0
  191.5980  174.6640  144.8960 C   0  0  0  0  0  0  0  0  0  0  0  0
  188.5980  173.8460  139.5560 C   0  0  0  0  0  3  0  0  0  0  0  0
  191.7270  173.6710  143.9300 O   0  0  0  0  0  1  0  0  0  0  0  0
  187.8240  174.9160  139.1200 C   0  0  0  0  0  0  0  0  0  0  0  0
  190.5240  175.5770  144.9600 C   0  0  0  0  0  0  0  0  0  0  0  0
  187.2280  176.7770  143.5930 N   0  0  0  0  0  0  0  0  0  0  0  0
  192.5370  174.8480  145.9060 C   0  0  0  0  0  0  0  0  0  0  0  0
  190.6590  176.4570  146.0280 C   0  0  0  0  0  0  0  0  0  0  0  0
  187.8120  175.8440  141.3730 C   0  0  0  0  0  0  0  0  0  0  0  0
  189.4130  175.6770  144.0870 C   0  0  0  0  0  0  0  0  0  0  0  0
  189.0260  173.7970  140.8830 C   0  0  0  0  0  3  0  0  0  0  0  0
  189.7280  177.4470  146.2960 C   0  0  0  0  0  3  0  0  0  0  0  0
  187.4230  174.9830  137.8290 F   0  0  0  0  0  0  0  0  0  0  0  0
  187.4250  175.8960  140.0280 C   0  0  0  0  0  3  0  0  0  0  0  0
  188.6790  174.8010  141.7970 C   0  0  0  0  0  0  0  0  0  0  0  0
  184.1980  178.3950  146.0800 C   0  0  0  0  0  2  0  0  0  0  0  0
  186.0220  177.2620  144.2710 C   0  0  2  0  0  3  0  0  0  0  0  0
  185.9480  178.8030  144.2540 C   0  0  0  0  0  2  0  0  0  0  0  0
  185.1070  179.4160  145.3910 C   0  0  0  0  0  2  0  0  0  0  0  0
  185.0170  177.2140  146.5130 C   0  0  0  0  0  3  0  0  0  0  0  0
  185.8920  176.6790  145.6570 C   0  0  0  0  0  3  0  0  0  0  0  0
  1 12  1  0  0  0  0
  2  6  1  0  0  0  0
  3 16  1  0  0  0  0
  6 18  2  0  0  0  0
  7 11  1  0  0  0  0
  7 13  2  0  0  0  0
  8 17  2  0  0  0  0
  9  7  1  0  0  0  0
 10  8  1  0  0  0  0
 10 20  2  0  0  0  0
 11 14  2  0  0  0  0
 12  2  1  0  0  0  0
 13  5  1  0  0  0  0
 13  4  1  0  0  0  0
 14 18  1  0  0  0  0
 14  4  1  0  0  0  0
 15 21  1  0  0  0  0
 15  1  2  0  0  0  0
 16  2  2  0  0  0  0
 16 11  1  0  0  0  0
 17 21  1  0  0  0  0
 19 10  1  0  0  0  0
 20 15  1  0  0  0  0
 21  3  2  0  0  0  0
 22 26  1  0  0  0  0
 23 12  1  1  0  0  0
 23 27  1  0  0  0  0
 24 23  1  0  0  0  0
 24 25  1  0  0  0  0
 25 22  1  0  0  0  0
 27 26  2  0  0  0  0
M  END
>  <MODEL>
8

>  <REMARK>
 VINA RESULT:      -7.4      2.607      5.724
  Name = 
  1 active torsions:
  status: ('A' for Active; 'I' for Inactive)
    1  A    between atoms: C_9  and  N_15
                            x       y       z     vdW  Elec       q    Type
                         _______ _______ _______ _____ _____    ______ ____

>  <TORSDO>
F 1

$$$$
=
 OpenBabel11052418243D

 27 31  0  0  1  0  0  0  0  0999 V2000
  186.6920  175.8880  142.8160 C   0  0  0  0  0  3  0  0  0  0  0  0
  188.8570  175.3380  143.9900 C   0  0  0  0  0  0  0  0  0  0  0  0
  188.1060  177.6110  144.8620 C   0  0  0  0  0  3  0  0  0  0  0  0
  191.5970  175.2220  147.5010 S   0  0  0  0  0  0  0  0  0  0  0  0
  191.5030  177.4860  149.1660 C   0  0  0  0  0  1  0  0  0  0  0  0
  189.6780  174.1990  144.1570 C   0  0  0  0  0  3  0  0  0  0  0  0
  190.0800  177.1820  147.0570 C   0  0  0  0  0  0  0  0  0  0  0  0
  185.0600  179.4070  144.2230 C   0  0  0  0  0  3  0  0  0  0  0  0
  189.4380  178.4100  147.1870 O   0  0  0  0  0  1  0  0  0  0  0  0
  184.3080  178.4870  143.5000 C   0  0  0  0  0  0  0  0  0  0  0  0
  189.8370  176.2650  146.0120 C   0  0  0  0  0  0  0  0  0  0  0  0
  188.0470  175.4260  142.8090 N   0  0  0  0  0  0  0  0  0  0  0  0
  191.0370  176.7410  147.9650 C   0  0  0  0  0  0  0  0  0  0  0  0
  190.6200  175.1220  146.1390 C   0  0  0  0  0  0  0  0  0  0  0  0
  186.2060  176.9610  143.4400 C   0  0  0  0  0  0  0  0  0  0  0  0
  188.9250  176.3900  144.9360 C   0  0  0  0  0  0  0  0  0  0  0  0
  186.3640  179.0890  144.6010 C   0  0  0  0  0  3  0  0  0  0  0  0
  190.5580  174.0770  145.2330 C   0  0  0  0  0  3  0  0  0  0  0  0
  183.0330  178.7780  143.1480 F   0  0  0  0  0  0  0  0  0  0  0  0
  184.8850  177.2820  143.1020 C   0  0  0  0  0  3  0  0  0  0  0  0
  186.9440  177.8610  144.2550 C   0  0  0  0  0  0  0  0  0  0  0  0
  188.6770  173.2880  139.2010 C   0  0  0  0  0  2  0  0  0  0  0  0
  188.5080  174.7430  141.5970 C   0  0  2  0  0  3  0  0  0  0  0  0
  188.1070  175.5190  140.3250 C   0  0  0  0  0  2  0  0  0  0  0  0
  188.0010  174.6540  139.0540 C   0  0  0  0  0  2  0  0  0  0  0  0
  188.1570  172.6070  140.4330 C   0  0  0  0  0  3  0  0  0  0  0  0
  188.0670  173.3000  141.5720 C   0  0  0  0  0  3  0  0  0  0  0  0
  1 15  2  0  0  0  0
  2  6  2  0  0  0  0
  2 16  1  0  0  0  0
  3 16  1  0  0  0  0
  4 13  1  0  0  0  0
  6 18  1  0  0  0  0
  7  9  1  0  0  0  0
  7 13  2  0  0  0  0
  8 17  2  0  0  0  0
 10  8  1  0  0  0  0
 11 14  1  0  0  0  0
 11  7  1  0  0  0  0
 12  1  1  0  0  0  0
 12  2  1  0  0  0  0
 13  5  1  0  0  0  0
 14  4  1  0  0  0  0
 15 21  1  0  0  0  0
 16 11  2  0  0  0  0
 18 14  2  0  0  0  0
 19 10  1  0  0  0  0
 20 15  1  0  0  0  0
 20 10  2  0  0  0  0
 21 17  1  0  0  0  0
 21  3  2  0  0  0  0
 22 26  1  0  0  0  0
 23 24  1  6  0  0  0
 23 12  1  0  0  0  0
 25 22  1  0  0  0  0
 25 24  1  0  0  0  0
 26 27  2  0  0  0  0
 27 23  1  0  0  0  0
M  END
>  <MODEL>
9

>  <REMARK>
 VINA RESULT:      -7.4      3.236      6.280
  Name = 
  1 active torsions:
  status: ('A' for Active; 'I' for Inactive)
    1  A    between atoms: C_9  and  N_15
                            x       y       z     vdW  Elec       q    Type
                         _______ _______ _______ _____ _____    ______ ____

>  <TORSDO>
F 1

$$$$
