=
 OpenBabel11052419533D

 37 43  0  0  1  0  0  0  0  0999 V2000
  193.0020  174.3960  144.7680 C   0  0  2  0  0  3  0  0  0  0  0  0
  186.5550  176.4020  146.1020 C   0  0  0  0  0  2  0  0  0  0  0  0
  192.9940  173.8610  139.1850 C   0  0  0  0  0  2  0  0  0  0  0  0
  189.3270  174.8550  141.8520 N   0  0  0  0  0  0  0  0  0  0  0  0
  193.5390  175.1060  145.8680 O   0  0  0  0  0  0  0  0  0  0  0  0
  187.6280  177.1860  145.3150 C   0  0  2  0  0  0  0  0  0  0  0  0
  188.9580  177.0340  146.0390 C   0  0  0  0  0  2  0  0  0  0  0  0
  187.2930  178.6800  145.2260 C   0  0  0  0  0  2  0  0  0  0  0  0
  190.0350  172.8980  140.3300 C   0  0  0  0  0  2  0  0  0  0  0  0
  189.9050  175.6210  142.9440 C   0  0  1  0  0  3  0  0  0  0  0  0
  190.2210  173.8000  141.5140 C   0  0  0  0  0  0  0  0  0  0  0  0
  188.9550  175.5270  144.1250 C   0  0  1  0  0  3  0  0  0  0  0  0
  185.5210  180.0330  144.2370 C   0  0  0  0  0  2  0  0  0  0  0  0
  190.8150  173.4190  139.1300 C   0  0  0  0  0  2  0  0  0  0  0  0
  192.7890  174.8000  146.9190 O   0  0  0  0  0  0  0  0  0  0  0  0
  184.8090  178.1460  145.6060 C   0  0  0  0  0  2  0  0  0  0  0  0
  185.8580  178.9070  144.8570 C   0  0  0  0  0  0  0  0  0  0  0  0
  191.3140  173.8270  142.2600 C   0  0  0  0  0  0  0  0  0  0  0  0
  193.7240  173.7410  141.6000 C   0  0  0  0  0  2  0  0  0  0  0  0
  187.1430  176.0560  141.6960 O   0  0  0  0  0  0  0  0  0  0  0  0
  188.0200  174.9200  139.9150 O   0  0  0  0  0  0  0  0  0  0  0  0
  192.4790  173.0680  141.9320 N   0  0  0  0  0  2  0  0  0  0  0  0
  191.6590  175.6440  146.8780 C   0  0  2  0  0  3  0  0  0  0  0  0
  189.5730  175.7530  145.4970 C   0  0  1  0  0  3  0  0  0  0  0  0
  188.1470  175.2530  141.1220 C   0  0  0  0  0  0  0  0  0  0  0  0
  191.3120  175.0120  143.1890 C   0  0  2  0  0  3  0  0  0  0  0  0
  192.0740  172.8140  139.0850 O   0  0  0  0  0  0  0  0  0  0  0  0
  187.9360  176.6120  143.9280 C   0  0  1  0  0  3  0  0  0  0  0  0
  194.1060  173.4690  140.1500 C   0  0  0  0  0  2  0  0  0  0  0  0
  191.0980  175.7580  145.4530 C   0  0  2  0  0  3  0  0  0  0  0  0
  185.1380  176.6590  145.5850 C   0  0  0  0  0  2  0  0  0  0  0  0
  191.5530  174.6390  144.5990 N   0  0  2  0  0  0  0  0  0  0  0  0
  186.7910  176.0820  143.0820 C   0  0  0  0  0  2  0  0  0  0  0  0
  191.9950  177.0230  147.4310 C   0  0  0  0  0  2  0  0  0  0  0  0
  191.4150  177.1840  148.8220 C   0  0  0  0  0  1  0  0  0  0  0  0
  194.7580  172.6410  145.0310 C   0  0  0  0  0  1  0  0  0  0  0  0
  193.2690  172.9000  144.9120 C   0  0  0  0  0  2  0  0  0  0  0  0
  1 37  1  1  0  0  0
  1  5  1  0  0  0  0
  3 29  1  0  0  0  0
  5 15  1  0  0  0  0
  6  8  1  6  0  0  0
  6  7  1  0  0  0  0
  6  2  1  0  0  0  0
  9 11  1  0  0  0  0
 10  4  1  6  0  0  0
 10 26  1  0  0  0  0
 10 12  1  0  0  0  0
 11  4  1  0  0  0  0
 11 18  2  0  0  0  0
 12 24  1  0  0  0  0
 13 17  2  0  0  0  0
 14  9  1  0  0  0  0
 17  8  1  0  0  0  0
 17 16  1  0  0  0  0
 18 26  1  0  0  0  0
 19 22  1  0  0  0  0
 20 33  1  0  0  0  0
 21 25  2  0  0  0  0
 22 18  1  0  0  0  0
 23 15  1  0  0  0  0
 23 34  1  0  0  0  0
 24  7  1  0  0  0  0
 25 20  1  0  0  0  0
 25  4  1  0  0  0  0
 26 32  1  0  0  0  0
 27 14  1  0  0  0  0
 27  3  1  0  0  0  0
 28 12  1  0  0  0  0
 28  6  1  0  0  0  0
 29 19  1  0  0  0  0
 30 24  1  0  0  0  0
 30 23  1  0  0  0  0
 31 16  1  0  0  0  0
 31  2  1  0  0  0  0
 32  1  1  0  0  0  0
 32 30  1  0  0  0  0
 33 28  1  0  0  0  0
 34 35  1  0  0  0  0
 37 36  1  0  0  0  0
M  END
>  <MODEL>
1

>  <REMARK>
 VINA RESULT:      -8.6      0.000      0.000
  Name = 
  2 active torsions:
  status: ('A' for Active; 'I' for Inactive)
    1  A    between atoms: C_1  and  C_23
    2  A    between atoms: C_11  and  C_26
                            x       y       z     vdW  Elec       q    Type
                         _______ _______ _______ _____ _____    ______ ____

>  <TORSDO>
F 2

$$$$
=
 OpenBabel11052419533D

 37 43  0  0  1  0  0  0  0  0999 V2000
  192.0620  173.4690  141.1090 C   0  0  2  0  0  3  0  0  0  0  0  0
  187.1800  177.9260  143.0230 C   0  0  0  0  0  2  0  0  0  0  0  0
  195.4120  173.3070  145.6040 C   0  0  0  0  0  2  0  0  0  0  0  0
  191.7330  176.0760  145.0220 N   0  0  0  0  0  0  0  0  0  0  0  0
  191.1800  172.7270  140.2890 O   0  0  0  0  0  0  0  0  0  0  0  0
  187.4670  176.5400  143.6420 C   0  0  2  0  0  0  0  0  0  0  0  0
  187.7510  175.5620  142.5110 C   0  0  0  0  0  2  0  0  0  0  0  0
  186.2720  176.0150  144.4470 C   0  0  0  0  0  2  0  0  0  0  0  0
  194.2790  176.4050  145.2580 C   0  0  0  0  0  2  0  0  0  0  0  0
  190.8300  175.2700  144.2170 C   0  0  1  0  0  3  0  0  0  0  0  0
  193.0640  175.8610  144.5660 C   0  0  0  0  0  0  0  0  0  0  0  0
  189.8770  176.2150  143.5070 C   0  0  1  0  0  3  0  0  0  0  0  0
  185.0580  176.7010  146.4480 C   0  0  0  0  0  2  0  0  0  0  0  0
  194.8560  175.3720  146.2170 C   0  0  0  0  0  2  0  0  0  0  0  0
  190.5360  173.6070  139.5330 O   0  0  0  0  0  0  0  0  0  0  0  0
  185.4260  178.4210  144.7600 C   0  0  0  0  0  2  0  0  0  0  0  0
  185.7000  177.0700  145.3450 C   0  0  0  0  0  0  0  0  0  0  0  0
  193.1050  174.9890  143.5720 C   0  0  0  0  0  0  0  0  0  0  0  0
  194.5270  172.9540  143.2660 C   0  0  0  0  0  2  0  0  0  0  0  0
  190.0160  177.2580  146.3990 O   0  0  0  0  0  0  0  0  0  0  0  0
  192.1650  176.9830  147.1330 O   0  0  0  0  0  0  0  0  0  0  0  0
  194.3260  174.3880  143.1360 N   0  0  0  0  0  2  0  0  0  0  0  0
  189.4620  174.1020  140.3030 C   0  0  2  0  0  3  0  0  0  0  0  0
  189.2420  175.6860  142.2300 C   0  0  1  0  0  3  0  0  0  0  0  0
  191.3320  176.7970  146.2070 C   0  0  0  0  0  0  0  0  0  0  0  0
  191.7390  174.4320  143.2760 C   0  0  2  0  0  3  0  0  0  0  0  0
  195.8530  174.6330  145.5750 O   0  0  0  0  0  0  0  0  0  0  0  0
  188.7540  176.4750  144.4700 C   0  0  1  0  0  3  0  0  0  0  0  0
  195.6560  172.6600  144.2470 C   0  0  0  0  0  2  0  0  0  0  0  0
  189.8980  174.3970  141.7460 C   0  0  2  0  0  3  0  0  0  0  0  0
  186.6720  178.9380  144.0530 C   0  0  0  0  0  2  0  0  0  0  0  0
  191.3670  174.5430  141.8500 N   0  0  2  0  0  0  0  0  0  0  0  0
  189.1150  177.6520  145.3600 C   0  0  0  0  0  2  0  0  0  0  0  0
  188.2920  173.1280  140.2890 C   0  0  0  0  0  2  0  0  0  0  0  0
  188.0870  172.5760  138.8920 C   0  0  0  0  0  1  0  0  0  0  0  0
  193.9890  172.9480  139.6090 C   0  0  0  0  0  1  0  0  0  0  0  0
  193.2010  174.0560  140.2810 C   0  0  0  0  0  2  0  0  0  0  0  0
  1 37  1  6  0  0  0
  1 32  1  0  0  0  0
  2  6  1  0  0  0  0
  2 31  1  0  0  0  0
  4 25  1  0  0  0  0
  5  1  1  0  0  0  0
  6  7  1  6  0  0  0
  6  8  1  0  0  0  0
  6 28  1  0  0  0  0
  8 17  1  0  0  0  0
  9 14  1  0  0  0  0
 10  4  1  1  0  0  0
 11  4  1  0  0  0  0
 11  9  1  0  0  0  0
 12 10  1  0  0  0  0
 12 28  1  0  0  0  0
 15  5  1  0  0  0  0
 15 23  1  0  0  0  0
 16 17  1  0  0  0  0
 17 13  2  0  0  0  0
 18 11  2  0  0  0  0
 19 29  1  0  0  0  0
 22 19  1  0  0  0  0
 22 18  1  0  0  0  0
 23 30  1  0  0  0  0
 24  7  1  0  0  0  0
 24 12  1  0  0  0  0
 25 20  1  0  0  0  0
 25 21  2  0  0  0  0
 26 18  1  0  0  0  0
 26 10  1  0  0  0  0
 27  3  1  0  0  0  0
 27 14  1  0  0  0  0
 28 33  1  0  0  0  0
 29  3  1  0  0  0  0
 30 32  1  0  0  0  0
 30 24  1  0  0  0  0
 31 16  1  0  0  0  0
 32 26  1  0  0  0  0
 33 20  1  0  0  0  0
 34 23  1  0  0  0  0
 35 34  1  0  0  0  0
 36 37  1  0  0  0  0
M  END
>  <MODEL>
2

>  <REMARK>
 VINA RESULT:      -8.2      1.680      5.224
  Name = 
  2 active torsions:
  status: ('A' for Active; 'I' for Inactive)
    1  A    between atoms: C_1  and  C_23
    2  A    between atoms: C_11  and  C_26
                            x       y       z     vdW  Elec       q    Type
                         _______ _______ _______ _____ _____    ______ ____

>  <TORSDO>
F 2

$$$$
=
 OpenBabel11052419533D

 37 43  0  0  1  0  0  0  0  0999 V2000
  191.8750  175.0250  145.7720 C   0  0  2  0  0  3  0  0  0  0  0  0
  192.5850  172.7090  139.3300 C   0  0  0  0  0  2  0  0  0  0  0  0
  186.7330  177.2650  145.7150 C   0  0  0  0  0  2  0  0  0  0  0  0
  188.9960  175.4950  142.0690 N   0  0  0  0  0  0  0  0  0  0  0  0
  192.6950  174.0090  146.3160 O   0  0  0  0  0  0  0  0  0  0  0  0
  191.5830  172.2070  140.3930 C   0  0  2  0  0  0  0  0  0  0  0  0
  192.3060  172.1260  141.7300 C   0  0  0  0  0  2  0  0  0  0  0  0
  191.0390  170.8150  140.0520 C   0  0  0  0  0  2  0  0  0  0  0  0
  188.1490  177.8280  142.7700 C   0  0  0  0  0  2  0  0  0  0  0  0
  189.7910  174.4280  142.6530 C   0  0  1  0  0  3  0  0  0  0  0  0
  188.9930  176.6030  142.9640 C   0  0  0  0  0  0  0  0  0  0  0  0
  190.9530  174.1520  141.7150 C   0  0  1  0  0  3  0  0  0  0  0  0
  189.6960  169.8360  138.2660 C   0  0  0  0  0  2  0  0  0  0  0  0
  186.8390  177.7030  143.5370 C   0  0  0  0  0  2  0  0  0  0  0  0
  193.7970  173.9750  145.5770 O   0  0  0  0  0  0  0  0  0  0  0  0
  191.5890  171.2060  137.5730 C   0  0  0  0  0  2  0  0  0  0  0  0
  190.6320  170.7130  138.6130 C   0  0  0  0  0  0  0  0  0  0  0  0
  189.6840  176.3450  144.0630 C   0  0  0  0  0  0  0  0  0  0  0  0
  189.0590  176.6300  146.4680 C   0  0  0  0  0  2  0  0  0  0  0  0
  188.4970  174.4030  139.8790 O   0  0  0  0  0  0  0  0  0  0  0  0
  187.1470  176.0350  140.7440 O   0  0  0  0  0  0  0  0  0  0  0  0
  189.5950  177.1670  145.2280 N   0  0  0  0  0  2  0  0  0  0  0  0
  193.5070  173.1850  144.4440 C   0  0  2  0  0  3  0  0  0  0  0  0
  192.1810  173.5120  142.3450 C   0  0  1  0  0  3  0  0  0  0  0  0
  188.1910  175.3440  140.8800 C   0  0  0  0  0  0  0  0  0  0  0  0
  190.1990  174.9310  144.0650 C   0  0  2  0  0  3  0  0  0  0  0  0
  186.9710  178.2910  144.7970 O   0  0  0  0  0  0  0  0  0  0  0  0
  190.4400  173.1820  140.6910 C   0  0  1  0  0  3  0  0  0  0  0  0
  187.7610  177.3380  146.8370 C   0  0  0  0  0  2  0  0  0  0  0  0
  192.1230  173.5190  143.8690 C   0  0  2  0  0  3  0  0  0  0  0  0
  192.0270  172.6260  137.9070 C   0  0  0  0  0  2  0  0  0  0  0  0
  191.6530  174.8480  144.3200 N   0  0  2  0  0  0  0  0  0  0  0  0
  189.8100  173.9490  139.5400 C   0  0  0  0  0  2  0  0  0  0  0  0
  193.6020  171.7030  144.7790 C   0  0  0  0  0  2  0  0  0  0  0  0
  194.9470  171.3930  145.4050 C   0  0  0  0  0  1  0  0  0  0  0  0
  193.1870  176.9210  144.8130 C   0  0  0  0  0  1  0  0  0  0  0  0
  192.4720  176.4030  146.0460 C   0  0  0  0  0  2  0  0  0  0  0  0
  1 37  1  6  0  0  0
  1  5  1  0  0  0  0
  3 29  1  0  0  0  0
  4 11  1  0  0  0  0
  6  2  1  6  0  0  0
  6 28  1  0  0  0  0
  6  7  1  0  0  0  0
  7 24  1  0  0  0  0
  8  6  1  0  0  0  0
  9 11  1  0  0  0  0
  9 14  1  0  0  0  0
 10  4  1  6  0  0  0
 10 26  1  0  0  0  0
 11 18  2  0  0  0  0
 12 24  1  0  0  0  0
 12 10  1  0  0  0  0
 13 17  2  0  0  0  0
 14 27  1  0  0  0  0
 15  5  1  0  0  0  0
 16 31  1  0  0  0  0
 16 17  1  0  0  0  0
 17  8  1  0  0  0  0
 18 26  1  0  0  0  0
 18 22  1  0  0  0  0
 19 29  1  0  0  0  0
 20 25  1  0  0  0  0
 21 25  2  0  0  0  0
 22 19  1  0  0  0  0
 23 34  1  0  0  0  0
 23 15  1  0  0  0  0
 24 30  1  0  0  0  0
 25  4  1  0  0  0  0
 26 32  1  0  0  0  0
 27  3  1  0  0  0  0
 28 12  1  0  0  0  0
 30 32  1  0  0  0  0
 30 23  1  0  0  0  0
 31  2  1  0  0  0  0
 32  1  1  0  0  0  0
 33 20  1  0  0  0  0
 33 28  1  0  0  0  0
 34 35  1  0  0  0  0
 36 37  1  0  0  0  0
M  END
>  <MODEL>
3

>  <REMARK>
 VINA RESULT:      -7.5      1.728      6.644
  Name = 
  2 active torsions:
  status: ('A' for Active; 'I' for Inactive)
    1  A    between atoms: C_1  and  C_23
    2  A    between atoms: C_11  and  C_26
                            x       y       z     vdW  Elec       q    Type
                         _______ _______ _______ _____ _____    ______ ____

>  <TORSDO>
F 2

$$$$
=
 OpenBabel11052419533D

 37 43  0  0  1  0  0  0  0  0999 V2000
  189.3910  176.1760  144.4050 C   0  0  2  0  0  3  0  0  0  0  0  0
  188.9410  171.9150  139.0190 C   0  0  0  0  0  2  0  0  0  0  0  0
  194.8240  175.8750  145.7630 C   0  0  0  0  0  2  0  0  0  0  0  0
  192.6670  173.3690  142.5050 N   0  0  0  0  0  0  0  0  0  0  0  0
  188.3550  177.0150  143.9340 O   0  0  0  0  0  0  0  0  0  0  0  0
  189.7280  173.2430  139.0910 C   0  0  2  0  0  0  0  0  0  0  0  0
  188.8700  174.2660  139.8210 C   0  0  0  0  0  2  0  0  0  0  0  0
  190.0510  173.7910  137.6950 C   0  0  0  0  0  2  0  0  0  0  0  0
  193.8340  172.8760  144.7510 C   0  0  0  0  0  2  0  0  0  0  0  0
  191.6420  174.2740  142.0100 C   0  0  1  0  0  3  0  0  0  0  0  0
  192.7730  173.5300  143.9160 C   0  0  0  0  0  0  0  0  0  0  0  0
  190.5510  173.4300  141.3740 C   0  0  1  0  0  3  0  0  0  0  0  0
  191.3750  173.0640  135.7810 C   0  0  0  0  0  2  0  0  0  0  0  0
  195.0170  173.8150  144.9460 C   0  0  0  0  0  2  0  0  0  0  0  0
  187.3440  176.2210  143.6020 O   0  0  0  0  0  0  0  0  0  0  0  0
  189.8310  171.4260  136.7150 C   0  0  0  0  0  2  0  0  0  0  0  0
  190.5770  172.7210  136.7860 C   0  0  0  0  0  0  0  0  0  0  0  0
  191.9400  174.4550  144.3660 C   0  0  0  0  0  0  0  0  0  0  0  0
  192.3590  176.4160  145.8610 C   0  0  0  0  0  2  0  0  0  0  0  0
  193.1860  172.2140  140.3520 O   0  0  0  0  0  0  0  0  0  0  0  0
  194.7060  172.3170  142.0590 O   0  0  0  0  0  0  0  0  0  0  0  0
  192.0530  175.0060  145.6800 N   0  0  0  0  0  2  0  0  0  0  0  0
  187.6040  175.7470  142.2990 C   0  0  2  0  0  3  0  0  0  0  0  0
  189.1720  174.0700  141.3000 C   0  0  1  0  0  3  0  0  0  0  0  0
  193.5490  172.6060  141.6540 C   0  0  0  0  0  0  0  0  0  0  0  0
  191.1880  175.1090  143.2390 C   0  0  2  0  0  3  0  0  0  0  0  0
  194.8640  174.5290  146.1370 O   0  0  0  0  0  0  0  0  0  0  0  0
  190.9880  173.1830  139.9590 C   0  0  1  0  0  3  0  0  0  0  0  0
  193.7170  176.5830  146.5330 C   0  0  0  0  0  2  0  0  0  0  0  0
  189.0770  175.3430  142.1350 C   0  0  2  0  0  3  0  0  0  0  0  0
  189.6170  170.8770  138.1200 C   0  0  0  0  0  2  0  0  0  0  0  0
  189.7240  175.1030  143.4430 N   0  0  2  0  0  0  0  0  0  0  0  0
  191.8550  171.9360  139.9090 C   0  0  0  0  0  2  0  0  0  0  0  0
  187.2180  176.7890  141.2580 C   0  0  0  0  0  2  0  0  0  0  0  0
  185.9240  177.4710  141.6550 C   0  0  0  0  0  1  0  0  0  0  0  0
  188.7370  176.6670  146.7650 C   0  0  0  0  0  1  0  0  0  0  0  0
  189.0190  175.5700  145.7560 C   0  0  0  0  0  2  0  0  0  0  0  0
  1 37  1  1  0  0  0
  2  6  1  0  0  0  0
  3 27  1  0  0  0  0
  3 29  1  0  0  0  0
  4 11  1  0  0  0  0
  5  1  1  0  0  0  0
  6  8  1  6  0  0  0
  6  7  1  0  0  0  0
  6 28  1  0  0  0  0
  7 24  1  0  0  0  0
  9 14  1  0  0  0  0
 10  4  1  1  0  0  0
 10 26  1  0  0  0  0
 11 18  2  0  0  0  0
 11  9  1  0  0  0  0
 12 10  1  0  0  0  0
 13 17  2  0  0  0  0
 14 27  1  0  0  0  0
 15  5  1  0  0  0  0
 16 17  1  0  0  0  0
 16 31  1  0  0  0  0
 17  8  1  0  0  0  0
 18 22  1  0  0  0  0
 19 29  1  0  0  0  0
 20 25  1  0  0  0  0
 22 19  1  0  0  0  0
 23 15  1  0  0  0  0
 24 12  1  0  0  0  0
 24 30  1  0  0  0  0
 25 21  2  0  0  0  0
 25  4  1  0  0  0  0
 26 32  1  0  0  0  0
 26 18  1  0  0  0  0
 28 12  1  0  0  0  0
 30 23  1  0  0  0  0
 30 32  1  0  0  0  0
 31  2  1  0  0  0  0
 32  1  1  0  0  0  0
 33 28  1  0  0  0  0
 33 20  1  0  0  0  0
 34 35  1  0  0  0  0
 34 23  1  0  0  0  0
 37 36  1  0  0  0  0
M  END
>  <MODEL>
4

>  <REMARK>
 VINA RESULT:      -7.5      2.019      6.941
  Name = 
  2 active torsions:
  status: ('A' for Active; 'I' for Inactive)
    1  A    between atoms: C_1  and  C_23
    2  A    between atoms: C_11  and  C_26
                            x       y       z     vdW  Elec       q    Type
                         _______ _______ _______ _____ _____    ______ ____

>  <TORSDO>
F 2

$$$$
=
 OpenBabel11052419533D

 37 43  0  0  1  0  0  0  0  0999 V2000
  189.8210  175.4010  144.8610 C   0  0  2  0  0  3  0  0  0  0  0  0
  192.2170  172.5890  139.0540 C   0  0  0  0  0  2  0  0  0  0  0  0
  184.9100  177.5730  143.2420 C   0  0  0  0  0  2  0  0  0  0  0  0
  188.0530  175.5440  140.4930 N   0  0  0  0  0  0  0  0  0  0  0  0
  190.4530  174.4400  145.6850 O   0  0  0  0  0  0  0  0  0  0  0  0
  190.9600  172.1610  139.8440 C   0  0  2  0  0  0  0  0  0  0  0  0
  191.2950  172.1950  141.3280 C   0  0  0  0  0  2  0  0  0  0  0  0
  190.5130  170.7400  139.4800 C   0  0  0  0  0  2  0  0  0  0  0  0
  187.0740  177.9150  140.7520 C   0  0  0  0  0  2  0  0  0  0  0  0
  188.6500  174.5350  141.3540 C   0  0  1  0  0  3  0  0  0  0  0  0
  187.8210  176.7190  141.2630 C   0  0  0  0  0  0  0  0  0  0  0  0
  190.0190  174.1990  140.7880 C   0  0  1  0  0  3  0  0  0  0  0  0
  189.6910  169.6090  137.4820 C   0  0  0  0  0  2  0  0  0  0  0  0
  185.6050  177.8380  141.1450 C   0  0  0  0  0  2  0  0  0  0  0  0
  191.7130  174.3590  145.2760 O   0  0  0  0  0  0  0  0  0  0  0  0
  191.7160  170.9390  137.2190 C   0  0  0  0  0  2  0  0  0  0  0  0
  190.5080  170.5210  137.9970 C   0  0  0  0  0  0  0  0  0  0  0  0
  188.1870  176.5570  142.5250 C   0  0  0  0  0  0  0  0  0  0  0  0
  186.9400  177.0250  144.6420 C   0  0  0  0  0  2  0  0  0  0  0  0
  188.1520  174.2760  138.3430 O   0  0  0  0  0  0  0  0  0  0  0  0
  186.6370  175.9570  138.6800 O   0  0  0  0  0  0  0  0  0  0  0  0
  187.7960  177.4680  143.5540 N   0  0  0  0  0  2  0  0  0  0  0  0
  191.7310  173.4790  144.1730 C   0  0  2  0  0  3  0  0  0  0  0  0
  191.0240  173.6240  141.7750 C   0  0  1  0  0  3  0  0  0  0  0  0
  187.5970  175.2900  139.1470 C   0  0  0  0  0  0  0  0  0  0  0  0
  188.6670  175.1530  142.7780 C   0  0  2  0  0  3  0  0  0  0  0  0
  185.3980  178.5260  142.3430 O   0  0  0  0  0  0  0  0  0  0  0  0
  189.7900  173.1440  139.7440 C   0  0  1  0  0  3  0  0  0  0  0  0
  185.5980  177.7460  144.5900 C   0  0  0  0  0  2  0  0  0  0  0  0
  190.5570  173.7520  143.2210 C   0  0  2  0  0  3  0  0  0  0  0  0
  192.0630  172.3860  137.5450 C   0  0  0  0  0  2  0  0  0  0  0  0
  189.9970  175.1060  143.4220 N   0  0  2  0  0  0  0  0  0  0  0  0
  189.5020  173.8110  138.4090 C   0  0  0  0  0  2  0  0  0  0  0  0
  191.7150  172.0300  144.6380 C   0  0  0  0  0  2  0  0  0  0  0  0
  193.1090  171.4380  144.5540 C   0  0  0  0  0  1  0  0  0  0  0  0
  190.0390  177.1610  146.6180 C   0  0  0  0  0  1  0  0  0  0  0  0
  190.3380  176.8020  145.1760 C   0  0  0  0  0  2  0  0  0  0  0  0
  1 37  1  6  0  0  0
  1  5  1  0  0  0  0
  3 29  1  0  0  0  0
  4 11  1  0  0  0  0
  6  2  1  6  0  0  0
  6  7  1  0  0  0  0
  7 24  1  0  0  0  0
  8  6  1  0  0  0  0
  9 14  1  0  0  0  0
  9 11  1  0  0  0  0
 10  4  1  6  0  0  0
 10 26  1  0  0  0  0
 11 18  2  0  0  0  0
 12 10  1  0  0  0  0
 12 24  1  0  0  0  0
 13 17  2  0  0  0  0
 14 27  1  0  0  0  0
 15  5  1  0  0  0  0
 16 31  1  0  0  0  0
 16 17  1  0  0  0  0
 17  8  1  0  0  0  0
 18 26  1  0  0  0  0
 18 22  1  0  0  0  0
 20 33  1  0  0  0  0
 20 25  1  0  0  0  0
 21 25  2  0  0  0  0
 22 19  1  0  0  0  0
 23 34  1  0  0  0  0
 23 15  1  0  0  0  0
 24 30  1  0  0  0  0
 25  4  1  0  0  0  0
 26 32  1  0  0  0  0
 27  3  1  0  0  0  0
 28  6  1  0  0  0  0
 28 12  1  0  0  0  0
 29 19  1  0  0  0  0
 30 32  1  0  0  0  0
 30 23  1  0  0  0  0
 31  2  1  0  0  0  0
 32  1  1  0  0  0  0
 33 28  1  0  0  0  0
 35 34  1  0  0  0  0
 37 36  1  0  0  0  0
M  END
>  <MODEL>
5

>  <REMARK>
 VINA RESULT:      -7.5      2.059      6.976
  Name = 
  2 active torsions:
  status: ('A' for Active; 'I' for Inactive)
    1  A    between atoms: C_1  and  C_23
    2  A    between atoms: C_11  and  C_26
                            x       y       z     vdW  Elec       q    Type
                         _______ _______ _______ _____ _____    ______ ____

>  <TORSDO>
F 2

$$$$
=
 OpenBabel11052419533D

 37 43  0  0  1  0  0  0  0  0999 V2000
  192.6830  173.4380  139.0620 C   0  0  2  0  0  3  0  0  0  0  0  0
  188.7880  176.5190  143.8270 C   0  0  0  0  0  2  0  0  0  0  0  0
  197.8630  174.0560  141.1190 C   0  0  0  0  0  2  0  0  0  0  0  0
  193.9680  175.8320  142.9140 N   0  0  0  0  0  0  0  0  0  0  0  0
  191.6720  172.5110  138.7150 O   0  0  0  0  0  0  0  0  0  0  0  0
  189.6360  175.2400  144.0050 C   0  0  2  0  0  0  0  0  0  0  0  0
  189.4650  174.3780  142.7620 C   0  0  0  0  0  2  0  0  0  0  0  0
  189.1900  174.4250  145.2250 C   0  0  0  0  0  2  0  0  0  0  0  0
  196.1180  176.7790  141.8510 C   0  0  0  0  0  2  0  0  0  0  0  0
  192.9620  174.8370  142.5820 C   0  0  1  0  0  3  0  0  0  0  0  0
  194.8620  175.9600  141.8130 C   0  0  0  0  0  0  0  0  0  0  0  0
  191.6080  175.5250  142.6060 C   0  0  1  0  0  3  0  0  0  0  0  0
  189.1200  174.7620  147.6390 C   0  0  0  0  0  2  0  0  0  0  0  0
  197.3140  175.9100  142.2180 C   0  0  0  0  0  2  0  0  0  0  0  0
  190.5600  173.2130  138.5330 O   0  0  0  0  0  0  0  0  0  0  0  0
  188.1730  176.5410  146.2680 C   0  0  0  0  0  2  0  0  0  0  0  0
  188.9840  175.2930  146.4290 C   0  0  0  0  0  0  0  0  0  0  0  0
  194.5430  175.1380  140.8260 C   0  0  0  0  0  0  0  0  0  0  0  0
  195.9610  173.5240  139.5460 C   0  0  0  0  0  2  0  0  0  0  0  0
  193.0520  176.5330  145.1290 O   0  0  0  0  0  0  0  0  0  0  0  0
  195.2640  176.7910  144.6060 O   0  0  0  0  0  0  0  0  0  0  0  0
  195.4360  174.8650  139.7440 N   0  0  0  0  0  2  0  0  0  0  0  0
  189.9890  173.4160  139.8070 C   0  0  2  0  0  3  0  0  0  0  0  0
  190.5130  174.8710  141.7760 C   0  0  1  0  0  3  0  0  0  0  0  0
  194.1240  176.4160  144.2250 C   0  0  0  0  0  0  0  0  0  0  0  0
  193.3760  174.2630  141.1990 C   0  0  2  0  0  3  0  0  0  0  0  0
  197.9400  175.4500  141.0570 O   0  0  0  0  0  0  0  0  0  0  0  0
  191.1470  175.4850  144.0340 C   0  0  1  0  0  3  0  0  0  0  0  0
  197.4710  173.5070  139.7540 C   0  0  0  0  0  2  0  0  0  0  0  0
  191.0560  173.7920  140.8450 C   0  0  2  0  0  3  0  0  0  0  0  0
  188.7130  177.3590  145.1030 C   0  0  0  0  0  2  0  0  0  0  0  0
  192.2880  174.2970  140.1990 N   0  0  2  0  0  0  0  0  0  0  0  0
  191.6780  176.7040  144.7700 C   0  0  0  0  0  2  0  0  0  0  0  0
  189.2190  172.1820  140.2570 C   0  0  0  0  0  2  0  0  0  0  0  0
  190.0840  171.3270  141.1620 C   0  0  0  0  0  1  0  0  0  0  0  0
  193.6000  173.4340  136.7400 C   0  0  0  0  0  1  0  0  0  0  0  0
  193.0570  174.3000  137.8590 C   0  0  0  0  0  2  0  0  0  0  0  0
  1 37  1  6  0  0  0
  1 32  1  0  0  0  0
  2  6  1  0  0  0  0
  2 31  1  0  0  0  0
  4 25  1  0  0  0  0
  5  1  1  0  0  0  0
  6  7  1  6  0  0  0
  6 28  1  0  0  0  0
  6  8  1  0  0  0  0
  8 17  1  0  0  0  0
  9 14  1  0  0  0  0
 10 12  1  0  0  0  0
 10  4  1  6  0  0  0
 11  9  1  0  0  0  0
 11  4  1  0  0  0  0
 12 28  1  0  0  0  0
 15  5  1  0  0  0  0
 15 23  1  0  0  0  0
 16 17  1  0  0  0  0
 17 13  2  0  0  0  0
 18 26  1  0  0  0  0
 18 11  2  0  0  0  0
 19 22  1  0  0  0  0
 19 29  1  0  0  0  0
 22 18  1  0  0  0  0
 23 34  1  0  0  0  0
 23 30  1  0  0  0  0
 24 12  1  0  0  0  0
 24  7  1  0  0  0  0
 25 21  2  0  0  0  0
 25 20  1  0  0  0  0
 26 10  1  0  0  0  0
 27  3  1  0  0  0  0
 27 14  1  0  0  0  0
 28 33  1  0  0  0  0
 29  3  1  0  0  0  0
 30 24  1  0  0  0  0
 31 16  1  0  0  0  0
 32 30  1  0  0  0  0
 32 26  1  0  0  0  0
 33 20  1  0  0  0  0
 34 35  1  0  0  0  0
 36 37  1  0  0  0  0
M  END
>  <MODEL>
6

>  <REMARK>
 VINA RESULT:      -7.3      2.418      5.884
  Name = 
  2 active torsions:
  status: ('A' for Active; 'I' for Inactive)
    1  A    between atoms: C_1  and  C_23
    2  A    between atoms: C_11  and  C_26
                            x       y       z     vdW  Elec       q    Type
                         _______ _______ _______ _____ _____    ______ ____

>  <TORSDO>
F 2

$$$$
=
 OpenBabel11052419533D

 37 43  0  0  1  0  0  0  0  0999 V2000
  193.6210  175.2510  144.6640 C   0  0  2  0  0  3  0  0  0  0  0  0
  192.3230  172.9790  138.2990 C   0  0  0  0  0  2  0  0  0  0  0  0
  188.5260  176.6760  146.5250 C   0  0  0  0  0  2  0  0  0  0  0  0
  189.5760  175.2220  142.2440 N   0  0  0  0  0  0  0  0  0  0  0  0
  194.7220  174.3810  144.8400 O   0  0  0  0  0  0  0  0  0  0  0  0
  191.8520  172.3440  139.6260 C   0  0  2  0  0  0  0  0  0  0  0  0
  193.0070  172.3940  140.6150 C   0  0  0  0  0  2  0  0  0  0  0  0
  191.4350  170.8800  139.4430 C   0  0  0  0  0  2  0  0  0  0  0  0
  188.6990  177.4070  143.2950 C   0  0  0  0  0  2  0  0  0  0  0  0
  190.6760  174.2970  142.4640 C   0  0  1  0  0  3  0  0  0  0  0  0
  189.7280  176.3290  143.1270 C   0  0  0  0  0  0  0  0  0  0  0  0
  191.4550  174.1890  141.1640 C   0  0  1  0  0  3  0  0  0  0  0  0
  189.7050  169.6830  138.2090 C   0  0  0  0  0  2  0  0  0  0  0  0
  187.7830  177.0940  144.4710 C   0  0  0  0  0  2  0  0  0  0  0  0
  195.4800  174.5050  143.7580 O   0  0  0  0  0  0  0  0  0  0  0  0
  191.0010  171.3160  136.9480 C   0  0  0  0  0  2  0  0  0  0  0  0
  190.5620  170.6970  138.2380 C   0  0  0  0  0  0  0  0  0  0  0  0
  190.7960  176.1950  143.8980 C   0  0  0  0  0  0  0  0  0  0  0  0
  191.0340  176.4160  146.3780 C   0  0  0  0  0  2  0  0  0  0  0  0
  188.4970  174.0350  140.3300 O   0  0  0  0  0  0  0  0  0  0  0  0
  187.3190  175.4530  141.6840 O   0  0  0  0  0  0  0  0  0  0  0  0
  191.0070  177.0110  145.0520 N   0  0  0  0  0  2  0  0  0  0  0  0
  194.9270  173.6640  142.7690 C   0  0  2  0  0  3  0  0  0  0  0  0
  192.9070  173.7540  141.2920 C   0  0  1  0  0  3  0  0  0  0  0  0
  188.4320  174.9320  141.4130 C   0  0  0  0  0  0  0  0  0  0  0  0
  191.4810  174.8770  143.6590 C   0  0  2  0  0  3  0  0  0  0  0  0
  188.2660  177.7140  145.6260 O   0  0  0  0  0  0  0  0  0  0  0  0
  190.7590  173.1370  140.3500 C   0  0  1  0  0  3  0  0  0  0  0  0
  189.8630  176.9220  147.2130 C   0  0  0  0  0  2  0  0  0  0  0  0
  193.3950  173.7740  142.7370 C   0  0  2  0  0  3  0  0  0  0  0  0
  191.3140  172.7910  137.1640 C   0  0  0  0  0  2  0  0  0  0  0  0
  192.9250  175.0210  143.3800 N   0  0  2  0  0  0  0  0  0  0  0  0
  189.6550  173.7820  139.5290 C   0  0  0  0  0  2  0  0  0  0  0  0
  195.3530  172.2190  142.9880 C   0  0  0  0  0  2  0  0  0  0  0  0
  196.8640  172.1080  142.9500 C   0  0  0  0  0  1  0  0  0  0  0  0
  194.5660  177.0090  146.1640 C   0  0  0  0  0  1  0  0  0  0  0  0
  194.0660  176.7080  144.7650 C   0  0  0  0  0  2  0  0  0  0  0  0
  1 37  1  6  0  0  0
  1  5  1  0  0  0  0
  3 29  1  0  0  0  0
  4 11  1  0  0  0  0
  6  2  1  6  0  0  0
  6 28  1  0  0  0  0
  6  7  1  0  0  0  0
  7 24  1  0  0  0  0
  8  6  1  0  0  0  0
  9 14  1  0  0  0  0
 10  4  1  6  0  0  0
 10 26  1  0  0  0  0
 11  9  1  0  0  0  0
 11 18  2  0  0  0  0
 12 24  1  0  0  0  0
 12 10  1  0  0  0  0
 13 17  2  0  0  0  0
 14 27  1  0  0  0  0
 15  5  1  0  0  0  0
 16 31  1  0  0  0  0
 16 17  1  0  0  0  0
 17  8  1  0  0  0  0
 18 22  1  0  0  0  0
 19 29  1  0  0  0  0
 20 25  1  0  0  0  0
 22 19  1  0  0  0  0
 23 34  1  0  0  0  0
 23 15  1  0  0  0  0
 24 30  1  0  0  0  0
 25 21  2  0  0  0  0
 25  4  1  0  0  0  0
 26 18  1  0  0  0  0
 27  3  1  0  0  0  0
 28 12  1  0  0  0  0
 30 23  1  0  0  0  0
 30 32  1  0  0  0  0
 31  2  1  0  0  0  0
 32 26  1  0  0  0  0
 32  1  1  0  0  0  0
 33 20  1  0  0  0  0
 33 28  1  0  0  0  0
 35 34  1  0  0  0  0
 37 36  1  0  0  0  0
M  END
>  <MODEL>
7

>  <REMARK>
 VINA RESULT:      -7.1      1.955      6.819
  Name = 
  2 active torsions:
  status: ('A' for Active; 'I' for Inactive)
    1  A    between atoms: C_1  and  C_23
    2  A    between atoms: C_11  and  C_26
                            x       y       z     vdW  Elec       q    Type
                         _______ _______ _______ _____ _____    ______ ____

>  <TORSDO>
F 2

$$$$
=
 OpenBabel11052419533D

 37 43  0  0  1  0  0  0  0  0999 V2000
  194.2280  173.7590  143.4610 C   0  0  2  0  0  3  0  0  0  0  0  0
  188.1340  176.2520  145.4640 C   0  0  0  0  0  2  0  0  0  0  0  0
  193.0140  171.3330  138.5530 C   0  0  0  0  0  2  0  0  0  0  0  0
  189.9790  173.2710  141.4820 N   0  0  0  0  0  0  0  0  0  0  0  0
  194.9540  174.7910  144.1000 O   0  0  0  0  0  0  0  0  0  0  0  0
  188.9590  176.6910  144.2340 C   0  0  2  0  0  0  0  0  0  0  0  0
  190.4230  176.7670  144.6440 C   0  0  0  0  0  2  0  0  0  0  0  0
  188.5290  178.0700  143.7200 C   0  0  0  0  0  2  0  0  0  0  0  0
  190.4410  170.8930  140.5990 C   0  0  0  0  0  2  0  0  0  0  0  0
  190.7390  174.3530  142.0860 C   0  0  1  0  0  3  0  0  0  0  0  0
  190.8340  172.1430  141.3290 C   0  0  0  0  0  0  0  0  0  0  0  0
  190.0820  174.6930  143.4120 C   0  0  1  0  0  3  0  0  0  0  0  0
  186.5070  179.0410  142.7610 C   0  0  0  0  0  2  0  0  0  0  0  0
  190.9050  170.9500  139.1500 C   0  0  0  0  0  2  0  0  0  0  0  0
  194.4750  174.8840  145.3350 O   0  0  0  0  0  0  0  0  0  0  0  0
  186.2250  177.7590  144.8140 C   0  0  0  0  0  2  0  0  0  0  0  0
  187.0370  178.1910  143.6340 C   0  0  0  0  0  0  0  0  0  0  0  0
  192.0610  172.4000  141.7530 C   0  0  0  0  0  0  0  0  0  0  0  0
  194.2670  172.0350  140.6300 C   0  0  0  0  0  2  0  0  0  0  0  0
  187.7490  174.3950  141.4280 O   0  0  0  0  0  0  0  0  0  0  0  0
  188.2730  172.6950  139.9910 O   0  0  0  0  0  0  0  0  0  0  0  0
  193.1670  171.5470  141.4460 N   0  0  0  0  0  2  0  0  0  0  0  0
  193.3180  175.6890  145.2670 C   0  0  2  0  0  3  0  0  0  0  0  0
  190.9750  175.3640  144.4450 C   0  0  1  0  0  3  0  0  0  0  0  0
  188.6450  173.4200  140.9500 C   0  0  0  0  0  0  0  0  0  0  0  0
  192.1980  173.8320  142.1960 C   0  0  2  0  0  3  0  0  0  0  0  0
  192.1550  170.3380  139.0270 O   0  0  0  0  0  0  0  0  0  0  0  0
  188.9850  175.6680  143.0950 C   0  0  1  0  0  3  0  0  0  0  0  0
  194.3320  171.2710  139.3130 C   0  0  0  0  0  2  0  0  0  0  0  0
  192.4490  175.3170  144.0560 C   0  0  2  0  0  3  0  0  0  0  0  0
  186.6250  176.3490  145.2270 C   0  0  0  0  0  2  0  0  0  0  0  0
  192.7670  173.9630  143.5540 N   0  0  2  0  0  0  0  0  0  0  0  0
  187.7130  174.9060  142.7630 C   0  0  0  0  0  2  0  0  0  0  0  0
  193.6880  177.1650  145.2250 C   0  0  0  0  0  2  0  0  0  0  0  0
  194.5660  177.5180  146.4090 C   0  0  0  0  0  1  0  0  0  0  0  0
  193.5400  171.9240  145.0090 C   0  0  0  0  0  1  0  0  0  0  0  0
  194.6060  172.3980  144.0410 C   0  0  0  0  0  2  0  0  0  0  0  0
  1 32  1  0  0  0  0
  1 37  1  1  0  0  0
  1  5  1  0  0  0  0
  3 27  1  0  0  0  0
  3 29  1  0  0  0  0
  5 15  1  0  0  0  0
  6  8  1  6  0  0  0
  6  7  1  0  0  0  0
  6  2  1  0  0  0  0
  9 11  1  0  0  0  0
 10  4  1  1  0  0  0
 10 26  1  0  0  0  0
 10 12  1  0  0  0  0
 11  4  1  0  0  0  0
 11 18  2  0  0  0  0
 12 24  1  0  0  0  0
 13 17  2  0  0  0  0
 14  9  1  0  0  0  0
 16 31  1  0  0  0  0
 17  8  1  0  0  0  0
 17 16  1  0  0  0  0
 18 26  1  0  0  0  0
 19 22  1  0  0  0  0
 20 33  1  0  0  0  0
 21 25  2  0  0  0  0
 22 18  1  0  0  0  0
 23 15  1  0  0  0  0
 24  7  1  0  0  0  0
 25 20  1  0  0  0  0
 25  4  1  0  0  0  0
 26 32  1  0  0  0  0
 27 14  1  0  0  0  0
 28 12  1  0  0  0  0
 28  6  1  0  0  0  0
 29 19  1  0  0  0  0
 30 24  1  0  0  0  0
 30 23  1  0  0  0  0
 31  2  1  0  0  0  0
 32 30  1  0  0  0  0
 33 28  1  0  0  0  0
 34 23  1  0  0  0  0
 34 35  1  0  0  0  0
 37 36  1  0  0  0  0
M  END
>  <MODEL>
8

>  <REMARK>
 VINA RESULT:      -7.1      1.741      2.054
  Name = 
  2 active torsions:
  status: ('A' for Active; 'I' for Inactive)
    1  A    between atoms: C_1  and  C_23
    2  A    between atoms: C_11  and  C_26
                            x       y       z     vdW  Elec       q    Type
                         _______ _______ _______ _____ _____    ______ ____

>  <TORSDO>
F 2

$$$$
=
 OpenBabel11052419533D

 37 43  0  0  1  0  0  0  0  0999 V2000
  193.6100  171.9810  140.7960 C   0  0  2  0  0  3  0  0  0  0  0  0
  189.4910  177.1060  142.8270 C   0  0  0  0  0  2  0  0  0  0  0  0
  197.3560  171.6900  144.9600 C   0  0  0  0  0  2  0  0  0  0  0  0
  193.9790  174.8440  144.5230 N   0  0  0  0  0  0  0  0  0  0  0  0
  192.5710  171.3030  140.1170 O   0  0  0  0  0  0  0  0  0  0  0  0
  189.6780  175.7370  143.5150 C   0  0  2  0  0  0  0  0  0  0  0  0
  189.7320  174.6640  142.4370 C   0  0  0  0  0  2  0  0  0  0  0  0
  188.5180  175.4110  144.4640 C   0  0  0  0  0  2  0  0  0  0  0  0
  196.5570  174.8750  144.4970 C   0  0  0  0  0  2  0  0  0  0  0  0
  192.9130  174.1050  143.8660 C   0  0  1  0  0  3  0  0  0  0  0  0
  195.2240  174.4420  143.9620 C   0  0  0  0  0  0  0  0  0  0  0  0
  192.0080  175.1140  143.1810 C   0  0  1  0  0  3  0  0  0  0  0  0
  187.5980  176.3600  146.5130 C   0  0  0  0  0  2  0  0  0  0  0  0
  197.1060  173.8400  145.4700 C   0  0  0  0  0  2  0  0  0  0  0  0
  191.9580  172.2070  139.3630 O   0  0  0  0  0  0  0  0  0  0  0  0
  187.9890  177.9160  144.6790 C   0  0  0  0  0  2  0  0  0  0  0  0
  188.1630  176.5810  145.3320 C   0  0  0  0  0  0  0  0  0  0  0  0
  195.0640  173.5120  143.0340 C   0  0  0  0  0  0  0  0  0  0  0  0
  196.2040  171.3040  142.7460 C   0  0  0  0  0  2  0  0  0  0  0  0
  192.5570  176.3080  145.9630 O   0  0  0  0  0  0  0  0  0  0  0  0
  194.7240  175.8190  146.5130 O   0  0  0  0  0  0  0  0  0  0  0  0
  196.1580  172.7410  142.5310 N   0  0  0  0  0  2  0  0  0  0  0  0
  191.0320  172.8740  140.1910 C   0  0  2  0  0  3  0  0  0  0  0  0
  191.1900  174.5880  142.0100 C   0  0  1  0  0  3  0  0  0  0  0  0
  193.7860  175.6790  145.6840 C   0  0  0  0  0  0  0  0  0  0  0  0
  193.6200  173.1080  142.9080 C   0  0  2  0  0  3  0  0  0  0  0  0
  197.9410  172.9480  144.7930 O   0  0  0  0  0  0  0  0  0  0  0  0
  191.0260  175.5660  144.2230 C   0  0  1  0  0  3  0  0  0  0  0  0
  197.3860  170.9360  143.6360 C   0  0  0  0  0  2  0  0  0  0  0  0
  191.6430  173.2030  141.5620 C   0  0  2  0  0  3  0  0  0  0  0  0
  189.2080  178.2340  143.8230 C   0  0  0  0  0  2  0  0  0  0  0  0
  193.1210  173.1760  141.5180 N   0  0  2  0  0  0  0  0  0  0  0  0
  191.6070  176.7440  144.9870 C   0  0  0  0  0  2  0  0  0  0  0  0
  189.7620  172.0500  140.3570 C   0  0  0  0  0  2  0  0  0  0  0  0
  188.6360  172.6550  139.5440 C   0  0  0  0  0  1  0  0  0  0  0  0
  195.3120  171.1390  139.1740 C   0  0  0  0  0  1  0  0  0  0  0  0
  194.7200  172.3740  139.8250 C   0  0  0  0  0  2  0  0  0  0  0  0
  1 37  1  6  0  0  0
  1 32  1  0  0  0  0
  2  6  1  0  0  0  0
  2 31  1  0  0  0  0
  4 25  1  0  0  0  0
  5  1  1  0  0  0  0
  6  7  1  6  0  0  0
  6 28  1  0  0  0  0
  6  8  1  0  0  0  0
  8 17  1  0  0  0  0
  9 14  1  0  0  0  0
 10  4  1  6  0  0  0
 11  9  1  0  0  0  0
 11  4  1  0  0  0  0
 12 10  1  0  0  0  0
 12 28  1  0  0  0  0
 15  5  1  0  0  0  0
 15 23  1  0  0  0  0
 16 17  1  0  0  0  0
 17 13  2  0  0  0  0
 18 11  2  0  0  0  0
 19 29  1  0  0  0  0
 22 19  1  0  0  0  0
 22 18  1  0  0  0  0
 23 34  1  0  0  0  0
 23 30  1  0  0  0  0
 24  7  1  0  0  0  0
 24 12  1  0  0  0  0
 25 20  1  0  0  0  0
 25 21  2  0  0  0  0
 26 18  1  0  0  0  0
 26 10  1  0  0  0  0
 27  3  1  0  0  0  0
 27 14  1  0  0  0  0
 28 33  1  0  0  0  0
 29  3  1  0  0  0  0
 30 24  1  0  0  0  0
 31 16  1  0  0  0  0
 32 30  1  0  0  0  0
 32 26  1  0  0  0  0
 33 20  1  0  0  0  0
 35 34  1  0  0  0  0
 36 37  1  0  0  0  0
M  END
>  <MODEL>
9

>  <REMARK>
 VINA RESULT:      -7.0      2.328      5.896
  Name = 
  2 active torsions:
  status: ('A' for Active; 'I' for Inactive)
    1  A    between atoms: C_1  and  C_23
    2  A    between atoms: C_11  and  C_26
                            x       y       z     vdW  Elec       q    Type
                         _______ _______ _______ _____ _____    ______ ____

>  <TORSDO>
F 2

$$$$
