=
 OpenBabel11052419213D

 32 36  0  0  1  0  0  0  0  0999 V2000
  191.8250  174.6060  145.9220 C   0  0  0  0  0  2  0  0  0  0  0  0
  192.4870  175.6570  145.0290 C   0  0  2  0  0  3  0  0  0  0  0  0
  191.4940  176.3030  144.1020 C   0  0  0  0  0  0  0  0  0  0  0  0
  191.4390  177.7000  144.0370 C   0  0  0  0  0  3  0  0  0  0  0  0
  187.7470  176.0350  141.0380 C   0  0  0  0  0  3  0  0  0  0  0  0
  190.5760  175.5360  143.3660 C   0  0  0  0  0  3  0  0  0  0  0  0
  188.6110  178.2010  141.7030 C   0  0  0  0  0  3  0  0  0  0  0  0
  189.5740  177.5730  142.4990 C   0  0  0  0  0  0  0  0  0  0  0  0
  190.4840  178.3350  143.2350 C   0  0  0  0  0  3  0  0  0  0  0  0
  189.6220  176.1630  142.5640 C   0  0  0  0  0  0  0  0  0  0  0  0
  187.6990  177.4310  140.9740 C   0  0  0  0  0  3  0  0  0  0  0  0
  188.7070  175.4000  141.8320 C   0  0  0  0  0  3  0  0  0  0  0  0
  194.9080  175.9970  144.5910 C   0  0  1  0  0  3  0  0  0  0  0  0
  193.7120  175.1080  144.3020 C   0  0  1  0  0  3  0  0  0  0  0  0
  194.7570  174.6730  145.3090 C   0  0  0  0  0  2  0  0  0  0  0  0
  196.7870  176.8130  143.2580 C   0  0  0  0  0  2  0  0  0  0  0  0
  195.8960  175.8520  143.4850 C   0  0  0  0  0  3  0  0  0  0  0  0
  191.0580  175.2370  147.0830 C   0  0  0  0  0  2  0  0  0  0  0  0
  189.5420  175.1430  146.9030 C   0  0  1  0  0  3  0  0  0  0  0  0
  188.9740  174.3230  147.8800 O   0  0  0  0  0  1  0  0  0  0  0  0
  188.8260  176.5020  146.8460 C   0  0  1  0  0  3  0  0  0  0  0  0
  189.7090  177.5400  147.1510 O   0  0  0  0  0  1  0  0  0  0  0  0
  188.1730  176.7690  145.4890 C   0  0  0  0  0  2  0  0  0  0  0  0
  186.8330  177.5040  145.5720 C   0  0  1  0  0  3  0  0  0  0  0  0
  186.0070  177.3480  144.2990 C   0  0  2  0  0  3  0  0  0  0  0  0
  185.6960  178.7090  143.7010 C   0  0  2  0  0  3  0  0  0  0  0  0
  184.6400  177.9810  144.4880 C   0  0  1  0  0  3  0  0  0  0  0  0
  184.2630  178.6980  143.2050 C   0  0  0  0  0  2  0  0  0  0  0  0
  186.0460  177.0640  146.8040 C   0  0  0  0  0  2  0  0  0  0  0  0
  186.7100  179.0630  148.2960 C   0  0  0  0  0  1  0  0  0  0  0  0
  184.4800  178.5240  147.7930 O   0  0  0  0  0  0  0  0  0  0  0  0
  185.6570  178.2340  147.6480 C   0  0  0  0  0  0  0  0  0  0  0  0
  1 18  1  0  0  0  0
  2  1  1  6  0  0  0
  3  2  1  0  0  0  0
  4  3  1  0  0  0  0
  5 12  1  0  0  0  0
  6  3  2  0  0  0  0
  7  8  2  0  0  0  0
  8 10  1  0  0  0  0
  8  9  1  0  0  0  0
  9  4  2  0  0  0  0
 10  6  1  0  0  0  0
 11  5  2  0  0  0  0
 11  7  1  0  0  0  0
 12 10  2  0  0  0  0
 13 17  1  6  0  0  0
 13 15  1  0  0  0  0
 14 13  1  0  0  0  0
 14  2  1  1  0  0  0
 14 15  1  0  0  0  0
 16 17  2  0  0  0  0
 19 18  1  0  0  0  0
 19 20  1  1  0  0  0
 21 19  1  0  0  0  0
 21 22  1  6  0  0  0
 23 21  1  0  0  0  0
 24 23  1  6  0  0  0
 24 29  1  0  0  0  0
 25 27  1  0  0  0  0
 25 24  1  1  0  0  0
 26 28  1  6  0  0  0
 26 25  1  0  0  0  0
 26 27  1  0  0  0  0
 27 28  1  6  0  0  0
 29 32  1  0  0  0  0
 32 31  2  0  0  0  0
 32 30  1  0  0  0  0
M  END
>  <MODEL>
1

>  <REMARK>
 VINA RESULT:      -6.8      0.000      0.000
  Name = 
  12 active torsions:
  status: ('A' for Active; 'I' for Inactive)
    1  A    between atoms: C_1  and  C_5
    2  A    between atoms: C_1  and  C_30
    3  A    between atoms: C_2  and  C_5
    4  A    between atoms: C_3  and  C_20
    5  A    between atoms: C_4  and  C_24
    6  A    between atoms: C_4  and  C_30
    7  A    between atoms: C_5  and  C_14
    8  A    between atoms: C_13  and  C_29
    9  A    between atoms: C_15  and  C_20
   10  A    between atoms: C_15  and  C_26
   11  A    between atoms: C_16  and  C_20
   12  A    between atoms: C_16  and  C_24
                            x       y       z     vdW  Elec       q    Type
                         _______ _______ _______ _____ _____    ______ ____

>  <TORSDO>
F 12

$$$$
=
 OpenBabel11052419213D

 32 36  0  0  1  0  0  0  0  0999 V2000
  187.0450  177.2380  142.3390 C   0  0  0  0  0  2  0  0  0  0  0  0
  187.1340  177.8440  143.7400 C   0  0  2  0  0  3  0  0  0  0  0  0
  188.4380  177.5090  144.4080 C   0  0  0  0  0  0  0  0  0  0  0  0
  189.6310  177.9660  143.8340 C   0  0  0  0  0  3  0  0  0  0  0  0
  190.9980  175.1590  147.7910 C   0  0  0  0  0  3  0  0  0  0  0  0
  188.4870  176.6850  145.5450 C   0  0  0  0  0  3  0  0  0  0  0  0
  192.1450  176.4440  146.0830 C   0  0  0  0  0  3  0  0  0  0  0  0
  190.9140  176.8030  145.5260 C   0  0  0  0  0  0  0  0  0  0  0  0
  190.8650  177.6170  144.3920 C   0  0  0  0  0  3  0  0  0  0  0  0
  189.7150  176.3350  146.1080 C   0  0  0  0  0  0  0  0  0  0  0  0
  192.1850  175.6230  147.2140 C   0  0  0  0  0  3  0  0  0  0  0  0
  189.7630  175.5140  147.2380 C   0  0  0  0  0  3  0  0  0  0  0  0
  185.3440  178.7680  145.1930 C   0  0  1  0  0  3  0  0  0  0  0  0
  185.9190  177.4970  144.5970 C   0  0  1  0  0  3  0  0  0  0  0  0
  184.6730  178.1190  144.0010 C   0  0  0  0  0  2  0  0  0  0  0  0
  185.1660  178.5840  147.6230 C   0  0  0  0  0  2  0  0  0  0  0  0
  184.5930  178.4260  146.4340 C   0  0  0  0  0  3  0  0  0  0  0  0
  187.1740  175.7160  142.3590 C   0  0  0  0  0  2  0  0  0  0  0  0
  187.6120  175.1470  141.0090 C   0  0  1  0  0  3  0  0  0  0  0  0
  187.6120  176.1390  140.0260 O   0  0  0  0  0  1  0  0  0  0  0  0
  188.9590  174.4080  141.0400 C   0  0  1  0  0  3  0  0  0  0  0  0
  189.3160  173.9760  139.7610 O   0  0  0  0  0  1  0  0  0  0  0  0
  190.0870  175.2610  141.6250 C   0  0  0  0  0  2  0  0  0  0  0  0
  190.9900  174.5150  142.6110 C   0  0  1  0  0  3  0  0  0  0  0  0
  190.3850  173.1880  143.0580 C   0  0  2  0  0  3  0  0  0  0  0  0
  189.4690  173.4000  144.2510 C   0  0  2  0  0  3  0  0  0  0  0  0
  190.8550  172.8520  144.4630 C   0  0  1  0  0  3  0  0  0  0  0  0
  189.6870  172.2630  145.2300 C   0  0  0  0  0  2  0  0  0  0  0  0
  192.3890  174.3230  142.0300 C   0  0  0  0  0  2  0  0  0  0  0  0
  194.2320  174.4200  143.8350 C   0  0  0  0  0  1  0  0  0  0  0  0
  193.5820  176.2860  142.5660 O   0  0  0  0  0  0  0  0  0  0  0  0
  193.4080  175.1000  142.7970 C   0  0  0  0  0  0  0  0  0  0  0  0
  1 18  1  0  0  0  0
  2  1  1  6  0  0  0
  2  3  1  0  0  0  0
  3  6  1  0  0  0  0
  4  9  1  0  0  0  0
  4  3  2  0  0  0  0
  6 10  2  0  0  0  0
  7 11  2  0  0  0  0
  8  7  1  0  0  0  0
  8 10  1  0  0  0  0
  9  8  2  0  0  0  0
 10 12  1  0  0  0  0
 11  5  1  0  0  0  0
 12  5  2  0  0  0  0
 13 17  1  1  0  0  0
 14  2  1  6  0  0  0
 14 13  1  0  0  0  0
 15 14  1  0  0  0  0
 15 13  1  0  0  0  0
 17 16  2  0  0  0  0
 19 20  1  6  0  0  0
 19 21  1  0  0  0  0
 19 18  1  0  0  0  0
 21 22  1  6  0  0  0
 21 23  1  0  0  0  0
 24 23  1  6  0  0  0
 25 24  1  1  0  0  0
 25 26  1  0  0  0  0
 25 27  1  0  0  0  0
 26 27  1  0  0  0  0
 26 28  1  6  0  0  0
 27 28  1  6  0  0  0
 29 24  1  0  0  0  0
 29 32  1  0  0  0  0
 31 32  2  0  0  0  0
 32 30  1  0  0  0  0
M  END
>  <MODEL>
2

>  <REMARK>
 VINA RESULT:      -6.7      2.674      7.493
  Name = 
  12 active torsions:
  status: ('A' for Active; 'I' for Inactive)
    1  A    between atoms: C_1  and  C_5
    2  A    between atoms: C_1  and  C_30
    3  A    between atoms: C_2  and  C_5
    4  A    between atoms: C_3  and  C_20
    5  A    between atoms: C_4  and  C_24
    6  A    between atoms: C_4  and  C_30
    7  A    between atoms: C_5  and  C_14
    8  A    between atoms: C_13  and  C_29
    9  A    between atoms: C_15  and  C_20
   10  A    between atoms: C_15  and  C_26
   11  A    between atoms: C_16  and  C_20
   12  A    between atoms: C_16  and  C_24
                            x       y       z     vdW  Elec       q    Type
                         _______ _______ _______ _____ _____    ______ ____

>  <TORSDO>
F 12

$$$$
=
 OpenBabel11052419213D

 32 36  0  0  1  0  0  0  0  0999 V2000
  192.1210  176.4810  145.9530 C   0  0  0  0  0  2  0  0  0  0  0  0
  192.6730  175.3410  145.0950 C   0  0  2  0  0  3  0  0  0  0  0  0
  191.5730  174.5780  144.4100 C   0  0  0  0  0  0  0  0  0  0  0  0
  191.0960  173.4010  144.9990 C   0  0  0  0  0  3  0  0  0  0  0  0
  188.6320  173.8450  140.6250 C   0  0  0  0  0  3  0  0  0  0  0  0
  191.0730  174.9810  143.1610 C   0  0  0  0  0  3  0  0  0  0  0  0
  188.6490  172.2660  142.4650 C   0  0  0  0  0  3  0  0  0  0  0  0
  189.6180  173.0350  143.1170 C   0  0  0  0  0  0  0  0  0  0  0  0
  190.1200  172.6320  144.3570 C   0  0  0  0  0  3  0  0  0  0  0  0
  190.0980  174.2190  142.5160 C   0  0  0  0  0  0  0  0  0  0  0  0
  188.1570  172.6720  141.2210 C   0  0  0  0  0  3  0  0  0  0  0  0
  189.6020  174.6190  141.2710 C   0  0  0  0  0  3  0  0  0  0  0  0
  194.8730  174.1890  145.0480 C   0  0  1  0  0  3  0  0  0  0  0  0
  193.6260  174.4400  145.8760 C   0  0  1  0  0  3  0  0  0  0  0  0
  194.9070  175.1890  146.1850 C   0  0  0  0  0  2  0  0  0  0  0  0
  196.8230  172.7890  145.5030 C   0  0  0  0  0  2  0  0  0  0  0  0
  195.4990  172.9120  145.4910 C   0  0  0  0  0  3  0  0  0  0  0  0
  191.6080  175.9880  147.3040 C   0  0  0  0  0  2  0  0  0  0  0  0
  190.1880  176.4700  147.6030 C   0  0  1  0  0  3  0  0  0  0  0  0
  190.0560  177.8330  147.3300 O   0  0  0  0  0  1  0  0  0  0  0  0
  189.0850  175.6630  146.8990 C   0  0  1  0  0  3  0  0  0  0  0  0
  188.9870  174.3800  147.4410 O   0  0  0  0  0  1  0  0  0  0  0  0
  187.7190  176.3500  146.9620 C   0  0  0  0  0  2  0  0  0  0  0  0
  187.3120  177.0560  145.6670 C   0  0  1  0  0  3  0  0  0  0  0  0
  188.2060  176.6710  144.4920 C   0  0  2  0  0  3  0  0  0  0  0  0
  188.9830  177.8800  144.0000 C   0  0  2  0  0  3  0  0  0  0  0  0
  187.7680  177.4140  143.2420 C   0  0  1  0  0  3  0  0  0  0  0  0
  189.0080  177.8480  142.4850 C   0  0  0  0  0  2  0  0  0  0  0  0
  185.8390  176.8090  145.3510 C   0  0  0  0  0  2  0  0  0  0  0  0
  185.2450  179.3110  145.1220 C   0  0  0  0  0  1  0  0  0  0  0  0
  184.0900  177.8450  146.5470 O   0  0  0  0  0  0  0  0  0  0  0  0
  184.9950  177.9790  145.7400 C   0  0  0  0  0  0  0  0  0  0  0  0
  1 18  1  0  0  0  0
  2  1  1  1  0  0  0
  3  4  1  0  0  0  0
  3  2  1  0  0  0  0
  5 11  2  0  0  0  0
  5 12  1  0  0  0  0
  6  3  2  0  0  0  0
  7  8  2  0  0  0  0
  8  9  1  0  0  0  0
  9  4  2  0  0  0  0
 10  8  1  0  0  0  0
 10  6  1  0  0  0  0
 11  7  1  0  0  0  0
 12 10  2  0  0  0  0
 13 17  1  1  0  0  0
 13 14  1  0  0  0  0
 13 15  1  0  0  0  0
 14  2  1  6  0  0  0
 14 15  1  0  0  0  0
 17 16  2  0  0  0  0
 18 19  1  0  0  0  0
 19 20  1  6  0  0  0
 21 23  1  0  0  0  0
 21 22  1  1  0  0  0
 21 19  1  0  0  0  0
 24 29  1  6  0  0  0
 24 23  1  0  0  0  0
 25 24  1  1  0  0  0
 26 28  1  6  0  0  0
 26 25  1  0  0  0  0
 27 28  1  6  0  0  0
 27 26  1  0  0  0  0
 27 25  1  0  0  0  0
 29 32  1  0  0  0  0
 30 32  1  0  0  0  0
 32 31  2  0  0  0  0
M  END
>  <MODEL>
3

>  <REMARK>
 VINA RESULT:      -6.7      1.664      3.054
  Name = 
  12 active torsions:
  status: ('A' for Active; 'I' for Inactive)
    1  A    between atoms: C_1  and  C_5
    2  A    between atoms: C_1  and  C_30
    3  A    between atoms: C_2  and  C_5
    4  A    between atoms: C_3  and  C_20
    5  A    between atoms: C_4  and  C_24
    6  A    between atoms: C_4  and  C_30
    7  A    between atoms: C_5  and  C_14
    8  A    between atoms: C_13  and  C_29
    9  A    between atoms: C_15  and  C_20
   10  A    between atoms: C_15  and  C_26
   11  A    between atoms: C_16  and  C_20
   12  A    between atoms: C_16  and  C_24
                            x       y       z     vdW  Elec       q    Type
                         _______ _______ _______ _____ _____    ______ ____

>  <TORSDO>
F 12

$$$$
=
 OpenBabel11052419213D

 32 36  0  0  1  0  0  0  0  0999 V2000
  188.6900  175.9490  141.6140 C   0  0  0  0  0  2  0  0  0  0  0  0
  189.2700  174.5560  141.8650 C   0  0  2  0  0  3  0  0  0  0  0  0
  190.2850  174.5700  142.9750 C   0  0  0  0  0  0  0  0  0  0  0  0
  190.3520  173.4750  143.8450 C   0  0  0  0  0  3  0  0  0  0  0  0
  193.6900  176.8240  145.5890 C   0  0  0  0  0  3  0  0  0  0  0  0
  191.1060  175.6870  143.2000 C   0  0  0  0  0  3  0  0  0  0  0  0
  192.9410  174.6100  146.2330 C   0  0  0  0  0  3  0  0  0  0  0  0
  192.0600  174.5910  145.1480 C   0  0  0  0  0  0  0  0  0  0  0  0
  191.2390  173.4830  144.9270 C   0  0  0  0  0  3  0  0  0  0  0  0
  191.9930  175.7010  144.2770 C   0  0  0  0  0  0  0  0  0  0  0  0
  193.7550  175.7260  146.4520 C   0  0  0  0  0  3  0  0  0  0  0  0
  192.8100  176.8130  144.5020 C   0  0  0  0  0  3  0  0  0  0  0  0
  189.1580  172.5420  140.4180 C   0  0  1  0  0  3  0  0  0  0  0  0
  189.7940  173.9090  140.5860 C   0  0  1  0  0  3  0  0  0  0  0  0
  188.6570  173.7150  139.6030 C   0  0  0  0  0  2  0  0  0  0  0  0
  189.5680  171.1110  138.4790 C   0  0  0  0  0  2  0  0  0  0  0  0
  190.0470  171.6940  139.5740 C   0  0  0  0  0  3  0  0  0  0  0  0
  187.1630  175.9430  141.5950 C   0  0  0  0  0  2  0  0  0  0  0  0
  186.5710  177.3520  141.6350 C   0  0  1  0  0  3  0  0  0  0  0  0
  185.8550  177.6250  140.4670 O   0  0  0  0  0  1  0  0  0  0  0  0
  185.7190  177.6470  142.8790 C   0  0  1  0  0  3  0  0  0  0  0  0
  184.3770  177.8190  142.5310 O   0  0  0  0  0  1  0  0  0  0  0  0
  185.8340  176.5560  143.9450 C   0  0  0  0  0  2  0  0  0  0  0  0
  186.5620  176.9980  145.2180 C   0  0  1  0  0  3  0  0  0  0  0  0
  188.0160  176.5370  145.2410 C   0  0  2  0  0  3  0  0  0  0  0  0
  188.3280  175.8370  146.5520 C   0  0  2  0  0  3  0  0  0  0  0  0
  188.7710  177.2600  146.3430 C   0  0  1  0  0  3  0  0  0  0  0  0
  189.7060  176.2700  147.0110 C   0  0  0  0  0  2  0  0  0  0  0  0
  186.4530  178.5080  145.4110 C   0  0  0  0  0  2  0  0  0  0  0  0
  184.0750  178.4060  146.4120 C   0  0  0  0  0  1  0  0  0  0  0  0
  185.8720  179.4720  147.4840 O   0  0  0  0  0  0  0  0  0  0  0  0
  185.4940  178.8480  146.5050 C   0  0  0  0  0  0  0  0  0  0  0  0
  2  1  1  6  0  0  0
  2  3  1  0  0  0  0
  3  6  2  0  0  0  0
  3  4  1  0  0  0  0
  4  9  2  0  0  0  0
  5 11  1  0  0  0  0
  6 10  1  0  0  0  0
  7 11  2  0  0  0  0
  8  7  1  0  0  0  0
  9  8  1  0  0  0  0
 10 12  1  0  0  0  0
 10  8  2  0  0  0  0
 12  5  2  0  0  0  0
 13 17  1  6  0  0  0
 13 14  1  0  0  0  0
 14  2  1  1  0  0  0
 15 13  1  0  0  0  0
 15 14  1  0  0  0  0
 16 17  2  0  0  0  0
 18  1  1  0  0  0  0
 18 19  1  0  0  0  0
 19 20  1  6  0  0  0
 19 21  1  0  0  0  0
 21 22  1  6  0  0  0
 21 23  1  0  0  0  0
 24 23  1  6  0  0  0
 24 29  1  0  0  0  0
 25 24  1  1  0  0  0
 25 27  1  0  0  0  0
 25 26  1  0  0  0  0
 26 28  1  6  0  0  0
 27 26  1  0  0  0  0
 27 28  1  6  0  0  0
 29 32  1  0  0  0  0
 30 32  1  0  0  0  0
 32 31  2  0  0  0  0
M  END
>  <MODEL>
4

>  <REMARK>
 VINA RESULT:      -6.6      2.484      5.713
  Name = 
  12 active torsions:
  status: ('A' for Active; 'I' for Inactive)
    1  A    between atoms: C_1  and  C_5
    2  A    between atoms: C_1  and  C_30
    3  A    between atoms: C_2  and  C_5
    4  A    between atoms: C_3  and  C_20
    5  A    between atoms: C_4  and  C_24
    6  A    between atoms: C_4  and  C_30
    7  A    between atoms: C_5  and  C_14
    8  A    between atoms: C_13  and  C_29
    9  A    between atoms: C_15  and  C_20
   10  A    between atoms: C_15  and  C_26
   11  A    between atoms: C_16  and  C_20
   12  A    between atoms: C_16  and  C_24
                            x       y       z     vdW  Elec       q    Type
                         _______ _______ _______ _____ _____    ______ ____

>  <TORSDO>
F 12

$$$$
=
 OpenBabel11052419213D

 32 36  0  0  1  0  0  0  0  0999 V2000
  187.1650  176.9060  142.4010 C   0  0  0  0  0  2  0  0  0  0  0  0
  187.4410  177.7180  143.6680 C   0  0  2  0  0  3  0  0  0  0  0  0
  188.8260  177.4680  144.1970 C   0  0  0  0  0  0  0  0  0  0  0  0
  189.9250  177.9400  143.4700 C   0  0  0  0  0  3  0  0  0  0  0  0
  191.8490  175.3930  147.3700 C   0  0  0  0  0  3  0  0  0  0  0  0
  189.0370  176.7050  145.3580 C   0  0  0  0  0  3  0  0  0  0  0  0
  192.7400  176.6320  145.4850 C   0  0  0  0  0  3  0  0  0  0  0  0
  191.4400  176.9150  145.0560 C   0  0  0  0  0  0  0  0  0  0  0  0
  191.2280  177.6680  143.8990 C   0  0  0  0  0  3  0  0  0  0  0  0
  190.3350  176.4320  145.7920 C   0  0  0  0  0  0  0  0  0  0  0  0
  192.9430  175.8710  146.6410 C   0  0  0  0  0  3  0  0  0  0  0  0
  190.5460  175.6720  146.9470 C   0  0  0  0  0  3  0  0  0  0  0  0
  185.9170  178.8830  145.2460 C   0  0  1  0  0  3  0  0  0  0  0  0
  186.3550  177.5270  144.7240 C   0  0  1  0  0  3  0  0  0  0  0  0
  185.0560  178.1420  144.2450 C   0  0  0  0  0  2  0  0  0  0  0  0
  185.9320  179.2990  147.6540 C   0  0  0  0  0  2  0  0  0  0  0  0
  185.3470  178.7140  146.6130 C   0  0  0  0  0  3  0  0  0  0  0  0
  187.0070  175.4160  142.6950 C   0  0  0  0  0  2  0  0  0  0  0  0
  187.7410  174.5380  141.6810 C   0  0  1  0  0  3  0  0  0  0  0  0
  188.5610  175.3090  140.8550 O   0  0  0  0  0  1  0  0  0  0  0  0
  188.5310  173.3760  142.3040 C   0  0  1  0  0  3  0  0  0  0  0  0
  189.1990  172.6460  141.3190 O   0  0  0  0  0  1  0  0  0  0  0  0
  189.5330  173.8430  143.3620 C   0  0  0  0  0  2  0  0  0  0  0  0
  190.9960  173.5720  143.0010 C   0  0  1  0  0  3  0  0  0  0  0  0
  191.6400  174.7470  142.2720 C   0  0  2  0  0  3  0  0  0  0  0  0
  192.4150  174.2580  141.0620 C   0  0  2  0  0  3  0  0  0  0  0  0
  193.1520  174.6220  142.3220 C   0  0  1  0  0  3  0  0  0  0  0  0
  193.7110  175.0390  140.9760 C   0  0  0  0  0  2  0  0  0  0  0  0
  191.7970  173.1770  144.2390 C   0  0  0  0  0  2  0  0  0  0  0  0
  191.7690  170.8620  143.0980 C   0  0  0  0  0  1  0  0  0  0  0  0
  193.2340  171.4090  144.8500 O   0  0  0  0  0  0  0  0  0  0  0  0
  192.3300  171.7860  144.1220 C   0  0  0  0  0  0  0  0  0  0  0  0
  1 18  1  0  0  0  0
  2  1  1  6  0  0  0
  2  3  1  0  0  0  0
  3  6  1  0  0  0  0
  4  9  1  0  0  0  0
  4  3  2  0  0  0  0
  6 10  2  0  0  0  0
  7 11  2  0  0  0  0
  8  7  1  0  0  0  0
  8 10  1  0  0  0  0
  9  8  2  0  0  0  0
 10 12  1  0  0  0  0
 11  5  1  0  0  0  0
 12  5  2  0  0  0  0
 13 17  1  1  0  0  0
 14  2  1  6  0  0  0
 14 13  1  0  0  0  0
 15 14  1  0  0  0  0
 15 13  1  0  0  0  0
 17 16  2  0  0  0  0
 19 20  1  1  0  0  0
 19 21  1  0  0  0  0
 19 18  1  0  0  0  0
 21 22  1  6  0  0  0
 21 23  1  0  0  0  0
 24 23  1  1  0  0  0
 24 29  1  0  0  0  0
 25 27  1  0  0  0  0
 25 24  1  1  0  0  0
 26 28  1  6  0  0  0
 26 25  1  0  0  0  0
 26 27  1  0  0  0  0
 27 28  1  6  0  0  0
 30 32  1  0  0  0  0
 32 29  1  0  0  0  0
 32 31  2  0  0  0  0
M  END
>  <MODEL>
5

>  <REMARK>
 VINA RESULT:      -6.6      2.751      7.510
  Name = 
  12 active torsions:
  status: ('A' for Active; 'I' for Inactive)
    1  A    between atoms: C_1  and  C_5
    2  A    between atoms: C_1  and  C_30
    3  A    between atoms: C_2  and  C_5
    4  A    between atoms: C_3  and  C_20
    5  A    between atoms: C_4  and  C_24
    6  A    between atoms: C_4  and  C_30
    7  A    between atoms: C_5  and  C_14
    8  A    between atoms: C_13  and  C_29
    9  A    between atoms: C_15  and  C_20
   10  A    between atoms: C_15  and  C_26
   11  A    between atoms: C_16  and  C_20
   12  A    between atoms: C_16  and  C_24
                            x       y       z     vdW  Elec       q    Type
                         _______ _______ _______ _____ _____    ______ ____

>  <TORSDO>
F 12

$$$$
=
 OpenBabel11052419213D

 32 36  0  0  1  0  0  0  0  0999 V2000
  190.0110  175.2370  144.8510 C   0  0  0  0  0  2  0  0  0  0  0  0
  189.7310  175.8470  146.2250 C   0  0  2  0  0  3  0  0  0  0  0  0
  188.3790  176.5040  146.2760 C   0  0  0  0  0  0  0  0  0  0  0  0
  187.4950  176.1560  147.3040 C   0  0  0  0  0  3  0  0  0  0  0  0
  184.9680  179.3580  144.3430 C   0  0  0  0  0  3  0  0  0  0  0  0
  187.9610  177.3930  145.2720 C   0  0  0  0  0  3  0  0  0  0  0  0
  184.5010  178.1250  146.3790 C   0  0  0  0  0  3  0  0  0  0  0  0
  185.7910  177.5870  146.3500 C   0  0  0  0  0  0  0  0  0  0  0  0
  186.2060  176.6980  147.3440 C   0  0  0  0  0  3  0  0  0  0  0  0
  186.6770  177.9390  145.3070 C   0  0  0  0  0  0  0  0  0  0  0  0
  184.0920  179.0090  145.3760 C   0  0  0  0  0  3  0  0  0  0  0  0
  186.2600  178.8230  144.3070 C   0  0  0  0  0  3  0  0  0  0  0  0
  191.2490  176.4040  148.1100 C   0  0  1  0  0  3  0  0  0  0  0  0
  190.8580  176.7660  146.6890 C   0  0  1  0  0  3  0  0  0  0  0  0
  192.1110  175.9550  146.9490 C   0  0  0  0  0  2  0  0  0  0  0  0
  191.2970  178.1460  149.8240 C   0  0  0  0  0  2  0  0  0  0  0  0
  191.8700  177.5930  148.7590 C   0  0  0  0  0  3  0  0  0  0  0  0
  189.7790  173.7270  144.8330 C   0  0  0  0  0  2  0  0  0  0  0  0
  190.6380  173.0150  143.7880 C   0  0  1  0  0  3  0  0  0  0  0  0
  191.3690  171.9760  144.3680 O   0  0  0  0  0  1  0  0  0  0  0  0
  189.8600  172.5160  142.5610 C   0  0  1  0  0  3  0  0  0  0  0  0
  189.9430  171.1260  142.4530 O   0  0  0  0  0  1  0  0  0  0  0  0
  188.3900  172.9390  142.5820 C   0  0  0  0  0  2  0  0  0  0  0  0
  188.0390  174.0370  141.5750 C   0  0  1  0  0  3  0  0  0  0  0  0
  187.7750  175.3790  142.2520 C   0  0  2  0  0  3  0  0  0  0  0  0
  187.3060  176.4020  141.2320 C   0  0  2  0  0  3  0  0  0  0  0  0
  188.7320  176.4270  141.7130 C   0  0  1  0  0  3  0  0  0  0  0  0
  187.9710  177.7280  141.5440 C   0  0  0  0  0  2  0  0  0  0  0  0
  189.1180  174.1570  140.5020 C   0  0  0  0  0  2  0  0  0  0  0  0
  188.9270  172.1890  138.8420 C   0  0  0  0  0  1  0  0  0  0  0  0
  188.0190  174.3130  138.4210 O   0  0  0  0  0  0  0  0  0  0  0  0
  188.6470  173.6080  139.1940 C   0  0  0  0  0  0  0  0  0  0  0  0
  2  1  1  6  0  0  0
  2  3  1  0  0  0  0
  3  4  1  0  0  0  0
  4  9  2  0  0  0  0
  5 11  1  0  0  0  0
  6 10  1  0  0  0  0
  6  3  2  0  0  0  0
  8  7  1  0  0  0  0
  8  9  1  0  0  0  0
 10  8  2  0  0  0  0
 11  7  2  0  0  0  0
 12  5  2  0  0  0  0
 12 10  1  0  0  0  0
 13 17  1  1  0  0  0
 14  2  1  6  0  0  0
 14 15  1  0  0  0  0
 14 13  1  0  0  0  0
 15 13  1  0  0  0  0
 17 16  2  0  0  0  0
 18  1  1  0  0  0  0
 19 20  1  1  0  0  0
 19 18  1  0  0  0  0
 21 22  1  1  0  0  0
 21 23  1  0  0  0  0
 21 19  1  0  0  0  0
 24 29  1  6  0  0  0
 24 23  1  0  0  0  0
 25 24  1  6  0  0  0
 26 28  1  1  0  0  0
 26 27  1  0  0  0  0
 26 25  1  0  0  0  0
 27 28  1  1  0  0  0
 27 25  1  0  0  0  0
 30 32  1  0  0  0  0
 31 32  2  0  0  0  0
 32 29  1  0  0  0  0
M  END
>  <MODEL>
6

>  <REMARK>
 VINA RESULT:      -6.6      3.173      5.990
  Name = 
  12 active torsions:
  status: ('A' for Active; 'I' for Inactive)
    1  A    between atoms: C_1  and  C_5
    2  A    between atoms: C_1  and  C_30
    3  A    between atoms: C_2  and  C_5
    4  A    between atoms: C_3  and  C_20
    5  A    between atoms: C_4  and  C_24
    6  A    between atoms: C_4  and  C_30
    7  A    between atoms: C_5  and  C_14
    8  A    between atoms: C_13  and  C_29
    9  A    between atoms: C_15  and  C_20
   10  A    between atoms: C_15  and  C_26
   11  A    between atoms: C_16  and  C_20
   12  A    between atoms: C_16  and  C_24
                            x       y       z     vdW  Elec       q    Type
                         _______ _______ _______ _____ _____    ______ ____

>  <TORSDO>
F 12

$$$$
=
 OpenBabel11052419213D

 32 36  0  0  1  0  0  0  0  0999 V2000
  189.6880  174.5790  147.0490 C   0  0  0  0  0  2  0  0  0  0  0  0
  189.4950  175.2280  145.6780 C   0  0  2  0  0  3  0  0  0  0  0  0
  188.3980  176.2550  145.7000 C   0  0  0  0  0  0  0  0  0  0  0  0
  187.6580  176.4320  146.8750 C   0  0  0  0  0  3  0  0  0  0  0  0
  185.5660  179.4930  143.4620 C   0  0  0  0  0  3  0  0  0  0  0  0
  188.0520  176.9800  144.5470 C   0  0  0  0  0  3  0  0  0  0  0  0
  185.1730  178.9510  145.7930 C   0  0  0  0  0  3  0  0  0  0  0  0
  186.2470  178.0570  145.7660 C   0  0  0  0  0  0  0  0  0  0  0  0
  186.5880  177.3320  146.9110 C   0  0  0  0  0  3  0  0  0  0  0  0
  186.9870  177.8800  144.5760 C   0  0  0  0  0  0  0  0  0  0  0  0
  184.8340  179.6680  144.6410 C   0  0  0  0  0  3  0  0  0  0  0  0
  186.6420  178.6000  143.4280 C   0  0  0  0  0  3  0  0  0  0  0  0
  190.5640  174.1750  143.6990 C   0  0  1  0  0  3  0  0  0  0  0  0
  189.3210  174.1930  144.5690 C   0  0  1  0  0  3  0  0  0  0  0  0
  190.3450  173.0880  144.7290 C   0  0  0  0  0  2  0  0  0  0  0  0
  190.7700  174.1780  141.2630 C   0  0  0  0  0  2  0  0  0  0  0  0
  190.2020  173.6590  142.3480 C   0  0  0  0  0  3  0  0  0  0  0  0
  191.0180  174.9710  147.6900 C   0  0  0  0  0  2  0  0  0  0  0  0
  191.4980  176.3530  147.2440 C   0  0  1  0  0  3  0  0  0  0  0  0
  191.5210  177.2430  148.3200 O   0  0  0  0  0  1  0  0  0  0  0  0
  192.8470  176.3480  146.5100 C   0  0  1  0  0  3  0  0  0  0  0  0
  193.8000  177.0810  147.2190 O   0  0  0  0  0  1  0  0  0  0  0  0
  193.3760  174.9350  146.2550 C   0  0  0  0  0  2  0  0  0  0  0  0
  194.2680  174.8140  145.0160 C   0  0  1  0  0  3  0  0  0  0  0  0
  193.9090  175.8380  143.9430 C   0  0  2  0  0  3  0  0  0  0  0  0
  193.9220  175.1900  142.5690 C   0  0  2  0  0  3  0  0  0  0  0  0
  195.0870  176.0380  143.0050 C   0  0  1  0  0  3  0  0  0  0  0  0
  194.5550  176.1580  141.5900 C   0  0  0  0  0  2  0  0  0  0  0  0
  195.7440  174.8980  145.3970 C   0  0  0  0  0  2  0  0  0  0  0  0
  195.7610  172.3410  145.0440 C   0  0  0  0  0  1  0  0  0  0  0  0
  197.2020  173.4380  146.5390 O   0  0  0  0  0  0  0  0  0  0  0  0
  196.2980  173.5500  145.7260 C   0  0  0  0  0  0  0  0  0  0  0  0
  1 18  1  0  0  0  0
  2  3  1  0  0  0  0
  2  1  1  1  0  0  0
  3  4  1  0  0  0  0
  4  9  2  0  0  0  0
  5 11  1  0  0  0  0
  6 10  1  0  0  0  0
  6  3  2  0  0  0  0
  8  7  1  0  0  0  0
  8  9  1  0  0  0  0
 10  8  2  0  0  0  0
 11  7  2  0  0  0  0
 12  5  2  0  0  0  0
 12 10  1  0  0  0  0
 13 17  1  6  0  0  0
 13 14  1  0  0  0  0
 13 15  1  0  0  0  0
 14 15  1  0  0  0  0
 14  2  1  1  0  0  0
 16 17  2  0  0  0  0
 19 18  1  0  0  0  0
 19 20  1  1  0  0  0
 21 22  1  1  0  0  0
 21 19  1  0  0  0  0
 23 21  1  0  0  0  0
 24 29  1  1  0  0  0
 24 23  1  0  0  0  0
 25 24  1  1  0  0  0
 26 28  1  6  0  0  0
 26 27  1  0  0  0  0
 26 25  1  0  0  0  0
 27 28  1  6  0  0  0
 27 25  1  0  0  0  0
 29 32  1  0  0  0  0
 30 32  1  0  0  0  0
 32 31  2  0  0  0  0
M  END
>  <MODEL>
7

>  <REMARK>
 VINA RESULT:      -6.5      2.340      6.765
  Name = 
  12 active torsions:
  status: ('A' for Active; 'I' for Inactive)
    1  A    between atoms: C_1  and  C_5
    2  A    between atoms: C_1  and  C_30
    3  A    between atoms: C_2  and  C_5
    4  A    between atoms: C_3  and  C_20
    5  A    between atoms: C_4  and  C_24
    6  A    between atoms: C_4  and  C_30
    7  A    between atoms: C_5  and  C_14
    8  A    between atoms: C_13  and  C_29
    9  A    between atoms: C_15  and  C_20
   10  A    between atoms: C_15  and  C_26
   11  A    between atoms: C_16  and  C_20
   12  A    between atoms: C_16  and  C_24
                            x       y       z     vdW  Elec       q    Type
                         _______ _______ _______ _____ _____    ______ ____

>  <TORSDO>
F 12

$$$$
=
 OpenBabel11052419213D

 32 36  0  0  1  0  0  0  0  0999 V2000
  188.4530  175.7890  141.2730 C   0  0  0  0  0  2  0  0  0  0  0  0
  189.3160  174.7310  141.9640 C   0  0  2  0  0  3  0  0  0  0  0  0
  190.3320  175.3560  142.8800 C   0  0  0  0  0  0  0  0  0  0  0  0
  190.5810  176.7310  142.7790 C   0  0  0  0  0  3  0  0  0  0  0  0
  193.8110  174.9990  146.2380 C   0  0  0  0  0  3  0  0  0  0  0  0
  191.0860  174.5780  143.7740 C   0  0  0  0  0  3  0  0  0  0  0  0
  193.3040  177.1540  145.2480 C   0  0  0  0  0  3  0  0  0  0  0  0
  192.3120  176.5600  144.4620 C   0  0  0  0  0  0  0  0  0  0  0  0
  191.5660  177.3320  143.5690 C   0  0  0  0  0  3  0  0  0  0  0  0
  192.0690  175.1730  144.5660 C   0  0  0  0  0  0  0  0  0  0  0  0
  194.0520  176.3730  146.1350 C   0  0  0  0  0  3  0  0  0  0  0  0
  192.8200  174.3980  145.4550 C   0  0  0  0  0  3  0  0  0  0  0  0
  189.4290  172.3500  141.2700 C   0  0  1  0  0  3  0  0  0  0  0  0
  189.9330  173.7500  140.9710 C   0  0  1  0  0  3  0  0  0  0  0  0
  188.8470  173.1340  140.1130 C   0  0  0  0  0  2  0  0  0  0  0  0
  191.1300  170.6260  141.6010 C   0  0  0  0  0  2  0  0  0  0  0  0
  190.4150  171.3600  140.7520 C   0  0  0  0  0  3  0  0  0  0  0  0
  187.0460  175.8580  141.8610 C   0  0  0  0  0  2  0  0  0  0  0  0
  186.5050  177.2870  141.9180 C   0  0  1  0  0  3  0  0  0  0  0  0
  185.6690  177.5480  140.8300 O   0  0  0  0  0  1  0  0  0  0  0  0
  185.8090  177.6490  143.2390 C   0  0  1  0  0  3  0  0  0  0  0  0
  184.4570  177.9280  143.0280 O   0  0  0  0  0  1  0  0  0  0  0  0
  185.9430  176.5520  144.2970 C   0  0  0  0  0  2  0  0  0  0  0  0
  186.7270  176.9740  145.5430 C   0  0  1  0  0  3  0  0  0  0  0  0
  188.1850  176.5280  145.4870 C   0  0  2  0  0  3  0  0  0  0  0  0
  188.5420  175.7320  146.7300 C   0  0  2  0  0  3  0  0  0  0  0  0
  188.9670  177.1720  146.6190 C   0  0  1  0  0  3  0  0  0  0  0  0
  189.9300  176.1430  147.1810 C   0  0  0  0  0  2  0  0  0  0  0  0
  186.6130  178.4790  145.7730 C   0  0  0  0  0  2  0  0  0  0  0  0
  184.1490  178.6570  146.5240 C   0  0  0  0  0  1  0  0  0  0  0  0
  185.9590  179.1420  147.9400 O   0  0  0  0  0  0  0  0  0  0  0  0
  185.6010  178.7930  146.8270 C   0  0  0  0  0  0  0  0  0  0  0  0
  1 18  1  0  0  0  0
  2  1  1  6  0  0  0
  2  3  1  0  0  0  0
  3  6  1  0  0  0  0
  4  3  2  0  0  0  0
  4  9  1  0  0  0  0
  6 10  2  0  0  0  0
  7 11  2  0  0  0  0
  8 10  1  0  0  0  0
  8  7  1  0  0  0  0
  9  8  2  0  0  0  0
 10 12  1  0  0  0  0
 11  5  1  0  0  0  0
 12  5  2  0  0  0  0
 13 17  1  6  0  0  0
 14 13  1  0  0  0  0
 14  2  1  1  0  0  0
 15 14  1  0  0  0  0
 15 13  1  0  0  0  0
 17 16  2  0  0  0  0
 18 19  1  0  0  0  0
 19 20  1  6  0  0  0
 19 21  1  0  0  0  0
 21 22  1  6  0  0  0
 21 23  1  0  0  0  0
 24 23  1  6  0  0  0
 24 29  1  0  0  0  0
 25 24  1  1  0  0  0
 25 27  1  0  0  0  0
 25 26  1  0  0  0  0
 26 28  1  6  0  0  0
 27 26  1  0  0  0  0
 27 28  1  6  0  0  0
 29 32  1  0  0  0  0
 30 32  1  0  0  0  0
 32 31  2  0  0  0  0
M  END
>  <MODEL>
8

>  <REMARK>
 VINA RESULT:      -6.5      2.353      5.366
  Name = 
  12 active torsions:
  status: ('A' for Active; 'I' for Inactive)
    1  A    between atoms: C_1  and  C_5
    2  A    between atoms: C_1  and  C_30
    3  A    between atoms: C_2  and  C_5
    4  A    between atoms: C_3  and  C_20
    5  A    between atoms: C_4  and  C_24
    6  A    between atoms: C_4  and  C_30
    7  A    between atoms: C_5  and  C_14
    8  A    between atoms: C_13  and  C_29
    9  A    between atoms: C_15  and  C_20
   10  A    between atoms: C_15  and  C_26
   11  A    between atoms: C_16  and  C_20
   12  A    between atoms: C_16  and  C_24
                            x       y       z     vdW  Elec       q    Type
                         _______ _______ _______ _____ _____    ______ ____

>  <TORSDO>
F 12

$$$$
=
 OpenBabel11052419213D

 32 36  0  0  1  0  0  0  0  0999 V2000
  187.2110  177.3110  142.6160 C   0  0  0  0  0  2  0  0  0  0  0  0
  187.1510  177.8150  144.0590 C   0  0  2  0  0  3  0  0  0  0  0  0
  188.1610  177.1220  144.9320 C   0  0  0  0  0  0  0  0  0  0  0  0
  187.7080  176.3310  145.9940 C   0  0  0  0  0  3  0  0  0  0  0  0
  192.7380  176.3140  146.3110 C   0  0  0  0  0  3  0  0  0  0  0  0
  189.5400  177.3180  144.7490 C   0  0  0  0  0  3  0  0  0  0  0  0
  190.9090  175.3210  147.5540 C   0  0  0  0  0  3  0  0  0  0  0  0
  189.9920  175.9150  146.6820 C   0  0  0  0  0  0  0  0  0  0  0  0
  188.6200  175.7260  146.8660 C   0  0  0  0  0  3  0  0  0  0  0  0
  190.4550  176.7160  145.6140 C   0  0  0  0  0  0  0  0  0  0  0  0
  192.2800  175.5210  147.3680 C   0  0  0  0  0  3  0  0  0  0  0  0
  191.8270  176.9120  145.4340 C   0  0  0  0  0  3  0  0  0  0  0  0
  185.4890  179.0020  145.4720 C   0  0  1  0  0  3  0  0  0  0  0  0
  185.7360  177.7640  144.6290 C   0  0  1  0  0  3  0  0  0  0  0  0
  184.9150  178.9100  144.0740 C   0  0  0  0  0  2  0  0  0  0  0  0
  184.7460  178.3000  147.6920 C   0  0  0  0  0  2  0  0  0  0  0  0
  184.4210  178.7040  146.4680 C   0  0  0  0  0  3  0  0  0  0  0  0
  187.0300  175.7970  142.5270 C   0  0  0  0  0  2  0  0  0  0  0  0
  187.8070  175.1810  141.3630 C   0  0  1  0  0  3  0  0  0  0  0  0
  187.8260  176.0430  140.2640 O   0  0  0  0  0  1  0  0  0  0  0  0
  189.2300  174.7250  141.7230 C   0  0  1  0  0  3  0  0  0  0  0  0
  190.0980  175.8160  141.7890 O   0  0  0  0  0  1  0  0  0  0  0  0
  189.2860  173.9480  143.0390 C   0  0  0  0  0  2  0  0  0  0  0  0
  190.4960  173.0200  143.1680 C   0  0  1  0  0  3  0  0  0  0  0  0
  191.3240  173.3190  144.4140 C   0  0  2  0  0  3  0  0  0  0  0  0
  192.7800  173.5400  144.0410 C   0  0  2  0  0  3  0  0  0  0  0  0
  192.3530  172.2220  144.6280 C   0  0  1  0  0  3  0  0  0  0  0  0
  193.6490  172.8640  145.0820 C   0  0  0  0  0  2  0  0  0  0  0  0
  190.0670  171.5550  143.1220 C   0  0  0  0  0  2  0  0  0  0  0  0
  191.4990  169.7830  141.9090 C   0  0  0  0  0  1  0  0  0  0  0  0
  190.0580  171.2560  140.7830 O   0  0  0  0  0  0  0  0  0  0  0  0
  190.5120  170.8970  141.8570 C   0  0  0  0  0  0  0  0  0  0  0  0
  2  1  1  6  0  0  0
  2  3  1  0  0  0  0
  3  4  1  0  0  0  0
  4  9  2  0  0  0  0
  5 11  1  0  0  0  0
  6  3  2  0  0  0  0
  6 10  1  0  0  0  0
  8  9  1  0  0  0  0
  8  7  1  0  0  0  0
 10  8  2  0  0  0  0
 11  7  2  0  0  0  0
 12 10  1  0  0  0  0
 12  5  2  0  0  0  0
 13 17  1  1  0  0  0
 14  2  1  6  0  0  0
 14 13  1  0  0  0  0
 15 14  1  0  0  0  0
 15 13  1  0  0  0  0
 17 16  2  0  0  0  0
 18  1  1  0  0  0  0
 19 20  1  6  0  0  0
 19 21  1  0  0  0  0
 19 18  1  0  0  0  0
 21 22  1  1  0  0  0
 21 23  1  0  0  0  0
 24 23  1  1  0  0  0
 25 24  1  6  0  0  0
 25 27  1  0  0  0  0
 26 25  1  0  0  0  0
 26 27  1  0  0  0  0
 26 28  1  1  0  0  0
 27 28  1  1  0  0  0
 29 24  1  0  0  0  0
 31 32  2  0  0  0  0
 32 30  1  0  0  0  0
 32 29  1  0  0  0  0
M  END
>  <MODEL>
9

>  <REMARK>
 VINA RESULT:      -6.5      2.977      7.909
  Name = 
  12 active torsions:
  status: ('A' for Active; 'I' for Inactive)
    1  A    between atoms: C_1  and  C_5
    2  A    between atoms: C_1  and  C_30
    3  A    between atoms: C_2  and  C_5
    4  A    between atoms: C_3  and  C_20
    5  A    between atoms: C_4  and  C_24
    6  A    between atoms: C_4  and  C_30
    7  A    between atoms: C_5  and  C_14
    8  A    between atoms: C_13  and  C_29
    9  A    between atoms: C_15  and  C_20
   10  A    between atoms: C_15  and  C_26
   11  A    between atoms: C_16  and  C_20
   12  A    between atoms: C_16  and  C_24
                            x       y       z     vdW  Elec       q    Type
                         _______ _______ _______ _____ _____    ______ ____

>  <TORSDO>
F 12

$$$$
