=
 OpenBabel11052419153D

 32 36  0  0  1  0  0  0  0  0999 V2000
  189.3940  175.8500  145.0150 C   0  0  2  0  0  3  0  0  0  0  0  0
  187.8780  177.0070  142.9220 C   0  0  0  0  0  0  0  0  0  0  0  0
  190.0320  175.1240  145.9420 C   0  0  0  0  0  3  0  0  0  0  0  0
  188.0230  176.3440  145.2880 C   0  0  0  0  0  0  0  0  0  0  0  0
  185.9970  177.3220  144.5140 O   0  0  0  0  0  0  0  0  0  0  0  0
  186.3220  177.3840  139.5360 C   0  0  0  0  0  3  0  0  0  0  0  0
  187.3060  176.8790  144.2860 C   0  0  0  0  0  0  0  0  0  0  0  0
  184.6670  178.2140  141.1420 C   0  0  0  0  0  2  0  0  0  0  0  0
  185.6060  177.8750  142.2220 C   0  0  0  0  0  0  0  0  0  0  0  0
  187.4620  176.2770  146.6910 C   0  0  0  0  0  0  0  0  0  0  0  0
  185.1590  177.7400  143.4720 C   0  0  0  0  0  3  0  0  0  0  0  0
  188.2220  175.3280  147.5790 C   0  0  0  0  0  3  0  0  0  0  0  0
  189.1490  176.6570  142.6830 C   0  0  0  0  0  3  0  0  0  0  0  0
  189.9690  176.0780  143.7110 N   0  0  0  0  0  0  0  0  0  0  0  0
  187.0740  177.7320  141.8760 C   0  0  0  0  0  0  0  0  0  0  0  0
  189.4120  174.8240  147.2420 C   0  0  0  0  0  3  0  0  0  0  0  0
  185.0170  177.9950  139.8710 C   0  0  0  0  0  3  0  0  0  0  0  0
  187.2640  177.2090  140.4710 C   0  0  0  0  0  3  0  0  0  0  0  0
  192.9480  174.3870  142.1730 C   0  0  0  0  0  0  0  0  0  0  0  0
  193.2430  173.3810  141.2620 O   0  0  0  0  0  1  0  0  0  0  0  0
  191.3270  175.7320  143.3880 C   0  0  0  0  0  0  0  0  0  0  0  0
  193.9890  175.0770  142.8000 C   0  0  0  0  0  3  0  0  0  0  0  0
  192.3790  176.4080  144.0200 C   0  0  0  0  0  3  0  0  0  0  0  0
  191.6160  174.7040  142.4710 C   0  0  0  0  0  0  0  0  0  0  0  0
  190.5880  173.9860  141.8690 O   0  0  0  0  0  1  0  0  0  0  0  0
  193.7100  176.0890  143.7300 C   0  0  0  0  0  0  0  0  0  0  0  0
  194.6000  177.2880  145.7030 C   0  0  0  0  0  1  0  0  0  0  0  0
  194.7300  176.7910  144.3770 O   0  0  0  0  0  0  0  0  0  0  0  0
  187.4790  177.6040  147.2850 N   0  0  0  0  0  2  0  0  0  0  0  0
  186.3520  177.7160  148.0300 O   0  0  0  0  0  0  0  0  0  0  0  0
  185.7480  178.8880  147.5790 C   0  0  0  0  0  2  0  0  0  0  0  0
  184.3760  178.5670  147.0230 C   0  0  0  0  0  1  0  0  0  0  0  0
  1  4  1  0  0  0  0
  1  3  1  6  0  0  0
  2  7  1  0  0  0  0
  3 16  2  0  0  0  0
  4 10  1  0  0  0  0
  6 17  2  0  0  0  0
  6 18  1  0  0  0  0
  7  5  1  0  0  0  0
  7  4  2  0  0  0  0
  8  9  1  0  0  0  0
  9 11  2  0  0  0  0
 10 29  1  0  0  0  0
 10 12  2  0  0  0  0
 11  5  1  0  0  0  0
 13  2  2  0  0  0  0
 13 14  1  0  0  0  0
 14  1  1  0  0  0  0
 15  9  1  0  0  0  0
 15  2  1  0  0  0  0
 16 12  1  0  0  0  0
 17  8  1  0  0  0  0
 18 15  2  0  0  0  0
 19 24  2  0  0  0  0
 19 22  1  0  0  0  0
 20 19  1  0  0  0  0
 21 14  1  0  0  0  0
 21 23  2  0  0  0  0
 22 26  2  0  0  0  0
 24 21  1  0  0  0  0
 25 24  1  0  0  0  0
 26 23  1  0  0  0  0
 26 28  1  0  0  0  0
 28 27  1  0  0  0  0
 29 30  1  0  0  0  0
 31 30  1  0  0  0  0
 32 31  1  0  0  0  0
M  END
>  <MODEL>
1

>  <REMARK>
 VINA RESULT:      -7.7      0.000      0.000
  Name = 
  5 active torsions:
  status: ('A' for Active; 'I' for Inactive)
    1  A    between atoms: C_13  and  O_18
    2  A    between atoms: C_14  and  N_29
    3  A    between atoms: O_15  and  C_26
    4  A    between atoms: C_16  and  N_27
    5  A    between atoms: O_18  and  N_29
                            x       y       z     vdW  Elec       q    Type
                         _______ _______ _______ _____ _____    ______ ____

>  <TORSDO>
F 5

$$$$
=
 OpenBabel11052419153D

 32 36  0  0  1  0  0  0  0  0999 V2000
  189.3650  175.7020  144.9870 C   0  0  2  0  0  3  0  0  0  0  0  0
  187.8950  176.9000  142.8840 C   0  0  0  0  0  0  0  0  0  0  0  0
  189.9670  174.9620  145.9260 C   0  0  0  0  0  3  0  0  0  0  0  0
  188.0360  176.2990  145.2660 C   0  0  0  0  0  0  0  0  0  0  0  0
  186.0700  177.3930  144.4940 O   0  0  0  0  0  0  0  0  0  0  0  0
  186.3100  177.2840  139.5120 C   0  0  0  0  0  3  0  0  0  0  0  0
  187.3410  176.8530  144.2590 C   0  0  0  0  0  0  0  0  0  0  0  0
  184.7450  178.2750  141.1180 C   0  0  0  0  0  2  0  0  0  0  0  0
  185.6770  177.9030  142.1930 C   0  0  0  0  0  0  0  0  0  0  0  0
  187.4970  176.3130  146.6790 C   0  0  0  0  0  0  0  0  0  0  0  0
  185.2440  177.8370  143.4530 C   0  0  0  0  0  3  0  0  0  0  0  0
  188.2050  175.3400  147.5840 C   0  0  0  0  0  3  0  0  0  0  0  0
  189.1350  176.4550  142.6360 C   0  0  0  0  0  3  0  0  0  0  0  0
  189.9310  175.8510  143.6670 N   0  0  0  0  0  0  0  0  0  0  0  0
  187.1250  177.6480  141.8280 C   0  0  0  0  0  0  0  0  0  0  0  0
  189.3510  174.7440  147.2440 C   0  0  0  0  0  3  0  0  0  0  0  0
  185.0560  177.9940  139.8480 C   0  0  0  0  0  3  0  0  0  0  0  0
  187.2540  177.0720  140.4370 C   0  0  0  0  0  3  0  0  0  0  0  0
  193.6670  175.7090  143.3260 C   0  0  0  0  0  0  0  0  0  0  0  0
  194.7910  176.4580  143.6530 O   0  0  0  0  0  1  0  0  0  0  0  0
  191.2550  175.4010  143.3350 C   0  0  0  0  0  0  0  0  0  0  0  0
  193.8190  174.4940  142.6530 C   0  0  0  0  0  3  0  0  0  0  0  0
  191.4200  174.1910  142.6480 C   0  0  0  0  0  3  0  0  0  0  0  0
  192.3870  176.1710  143.6600 C   0  0  0  0  0  0  0  0  0  0  0  0
  192.2450  177.4000  144.2980 O   0  0  0  0  0  1  0  0  0  0  0  0
  192.6950  173.7300  142.3060 C   0  0  0  0  0  0  0  0  0  0  0  0
  191.6920  171.7600  141.1960 C   0  0  0  0  0  1  0  0  0  0  0  0
  192.8170  172.5150  141.6270 O   0  0  0  0  0  0  0  0  0  0  0  0
  187.6160  177.6530  147.2320 N   0  0  0  0  0  2  0  0  0  0  0  0
  186.5290  177.8530  148.0160 O   0  0  0  0  0  0  0  0  0  0  0  0
  185.8720  178.9360  147.4350 C   0  0  0  0  0  2  0  0  0  0  0  0
  184.4390  178.5510  147.1280 C   0  0  0  0  0  1  0  0  0  0  0  0
  1  4  1  0  0  0  0
  1  3  1  6  0  0  0
  2  7  1  0  0  0  0
  3 16  2  0  0  0  0
  4 10  1  0  0  0  0
  6 17  2  0  0  0  0
  6 18  1  0  0  0  0
  7  5  1  0  0  0  0
  7  4  2  0  0  0  0
  8  9  1  0  0  0  0
  9 11  2  0  0  0  0
 10 29  1  0  0  0  0
 10 12  2  0  0  0  0
 11  5  1  0  0  0  0
 13  2  2  0  0  0  0
 13 14  1  0  0  0  0
 14  1  1  0  0  0  0
 15  9  1  0  0  0  0
 15  2  1  0  0  0  0
 16 12  1  0  0  0  0
 17  8  1  0  0  0  0
 18 15  2  0  0  0  0
 19 20  1  0  0  0  0
 19 24  1  0  0  0  0
 21 24  2  0  0  0  0
 21 14  1  0  0  0  0
 22 19  2  0  0  0  0
 23 21  1  0  0  0  0
 24 25  1  0  0  0  0
 26 23  2  0  0  0  0
 26 22  1  0  0  0  0
 27 28  1  0  0  0  0
 28 26  1  0  0  0  0
 29 30  1  0  0  0  0
 31 30  1  0  0  0  0
 32 31  1  0  0  0  0
M  END
>  <MODEL>
2

>  <REMARK>
 VINA RESULT:      -7.6      0.794      2.177
  Name = 
  5 active torsions:
  status: ('A' for Active; 'I' for Inactive)
    1  A    between atoms: C_13  and  O_18
    2  A    between atoms: C_14  and  N_29
    3  A    between atoms: O_15  and  C_26
    4  A    between atoms: C_16  and  N_27
    5  A    between atoms: O_18  and  N_29
                            x       y       z     vdW  Elec       q    Type
                         _______ _______ _______ _____ _____    ______ ____

>  <TORSDO>
F 5

$$$$
=
 OpenBabel11052419153D

 32 36  0  0  1  0  0  0  0  0999 V2000
  189.2940  176.5630  143.0200 C   0  0  2  0  0  3  0  0  0  0  0  0
  189.2140  174.1940  141.4710 C   0  0  0  0  0  0  0  0  0  0  0  0
  189.3920  177.7750  143.5800 C   0  0  0  0  0  3  0  0  0  0  0  0
  190.4930  175.6930  142.9460 C   0  0  0  0  0  0  0  0  0  0  0  0
  191.5810  173.7590  142.0860 O   0  0  0  0  0  0  0  0  0  0  0  0
  188.5810  171.9720  138.5230 C   0  0  0  0  0  3  0  0  0  0  0  0
  190.4500  174.5780  142.1970 C   0  0  0  0  0  0  0  0  0  0  0  0
  190.6900  171.2060  139.5130 C   0  0  0  0  0  2  0  0  0  0  0  0
  190.5620  172.2780  140.5110 C   0  0  0  0  0  0  0  0  0  0  0  0
  191.7320  176.0460  143.7370 C   0  0  0  0  0  0  0  0  0  0  0  0
  191.6340  172.6770  141.1980 C   0  0  0  0  0  3  0  0  0  0  0  0
  191.7430  177.4800  144.1970 C   0  0  0  0  0  3  0  0  0  0  0  0
  188.0930  174.9160  141.6090 C   0  0  0  0  0  3  0  0  0  0  0  0
  188.0730  176.1180  142.3930 N   0  0  0  0  0  0  0  0  0  0  0  0
  189.1880  172.8690  140.7560 C   0  0  0  0  0  0  0  0  0  0  0  0
  190.6600  178.2590  144.1470 C   0  0  0  0  0  3  0  0  0  0  0  0
  189.7410  171.0550  138.5830 C   0  0  0  0  0  3  0  0  0  0  0  0
  188.3460  172.8540  139.5020 C   0  0  0  0  0  3  0  0  0  0  0  0
  185.0140  178.1090  141.5080 C   0  0  0  0  0  0  0  0  0  0  0  0
  184.3960  178.6650  140.3950 O   0  0  0  0  0  1  0  0  0  0  0  0
  186.8340  176.8410  142.5050 C   0  0  0  0  0  0  0  0  0  0  0  0
  184.4290  178.2570  142.7680 C   0  0  0  0  0  3  0  0  0  0  0  0
  186.2450  177.0080  143.7650 C   0  0  0  0  0  3  0  0  0  0  0  0
  186.2220  177.4100  141.3720 C   0  0  0  0  0  0  0  0  0  0  0  0
  186.8150  177.3000  140.1190 O   0  0  0  0  0  1  0  0  0  0  0  0
  185.0440  177.7110  143.9040 C   0  0  0  0  0  0  0  0  0  0  0  0
  184.9660  177.1370  146.3100 C   0  0  0  0  0  1  0  0  0  0  0  0
  184.4850  177.8490  145.1780 O   0  0  0  0  0  0  0  0  0  0  0  0
  191.8350  175.1720  144.8960 N   0  0  0  0  0  2  0  0  0  0  0  0
  191.2500  175.8220  145.9310 O   0  0  0  0  0  0  0  0  0  0  0  0
  190.4090  174.8730  146.5100 C   0  0  0  0  0  2  0  0  0  0  0  0
  188.9890  175.4010  146.5270 C   0  0  0  0  0  1  0  0  0  0  0  0
  1  3  1  6  0  0  0
  2 13  2  0  0  0  0
  2  7  1  0  0  0  0
  3 16  2  0  0  0  0
  4  1  1  0  0  0  0
  4 10  1  0  0  0  0
  5  7  1  0  0  0  0
  6 17  2  0  0  0  0
  6 18  1  0  0  0  0
  7  4  2  0  0  0  0
  8  9  1  0  0  0  0
  9 15  1  0  0  0  0
  9 11  2  0  0  0  0
 10 12  2  0  0  0  0
 10 29  1  0  0  0  0
 11  5  1  0  0  0  0
 13 14  1  0  0  0  0
 14 21  1  0  0  0  0
 14  1  1  0  0  0  0
 15  2  1  0  0  0  0
 16 12  1  0  0  0  0
 17  8  1  0  0  0  0
 18 15  2  0  0  0  0
 19 22  1  0  0  0  0
 20 19  1  0  0  0  0
 21 23  2  0  0  0  0
 22 26  2  0  0  0  0
 23 26  1  0  0  0  0
 24 19  2  0  0  0  0
 24 21  1  0  0  0  0
 25 24  1  0  0  0  0
 26 28  1  0  0  0  0
 28 27  1  0  0  0  0
 29 30  1  0  0  0  0
 30 31  1  0  0  0  0
 31 32  1  0  0  0  0
M  END
>  <MODEL>
3

>  <REMARK>
 VINA RESULT:      -7.6      2.755      6.614
  Name = 
  5 active torsions:
  status: ('A' for Active; 'I' for Inactive)
    1  A    between atoms: C_13  and  O_18
    2  A    between atoms: C_14  and  N_29
    3  A    between atoms: O_15  and  C_26
    4  A    between atoms: C_16  and  N_27
    5  A    between atoms: O_18  and  N_29
                            x       y       z     vdW  Elec       q    Type
                         _______ _______ _______ _____ _____    ______ ____

>  <TORSDO>
F 5

$$$$
=
 OpenBabel11052419153D

 32 36  0  0  1  0  0  0  0  0999 V2000
  189.4440  176.6730  143.0940 C   0  0  2  0  0  3  0  0  0  0  0  0
  189.3080  174.3120  141.5390 C   0  0  0  0  0  0  0  0  0  0  0  0
  189.5480  177.8860  143.6540 C   0  0  0  0  0  3  0  0  0  0  0  0
  190.6610  175.8470  142.9060 C   0  0  0  0  0  0  0  0  0  0  0  0
  191.7340  173.9580  141.9360 O   0  0  0  0  0  0  0  0  0  0  0  0
  188.4920  172.0850  138.6400 C   0  0  0  0  0  3  0  0  0  0  0  0
  190.5890  174.7350  142.1550 C   0  0  0  0  0  0  0  0  0  0  0  0
  190.7060  171.3890  139.4300 C   0  0  0  0  0  2  0  0  0  0  0  0
  190.6310  172.4510  140.4450 C   0  0  0  0  0  0  0  0  0  0  0  0
  191.9530  176.2390  143.5870 C   0  0  0  0  0  0  0  0  0  0  0  0
  191.7450  172.8840  141.0370 C   0  0  0  0  0  3  0  0  0  0  0  0
  191.9550  177.6700  144.0560 C   0  0  0  0  0  3  0  0  0  0  0  0
  188.1800  174.9920  141.7820 C   0  0  0  0  0  3  0  0  0  0  0  0
  188.1870  176.1890  142.5760 N   0  0  0  0  0  0  0  0  0  0  0  0
  189.2640  172.9900  140.8170 C   0  0  0  0  0  0  0  0  0  0  0  0
  190.8450  178.4110  144.1100 C   0  0  0  0  0  3  0  0  0  0  0  0
  189.6830  171.2090  138.5880 C   0  0  0  0  0  3  0  0  0  0  0  0
  188.3140  172.9520  139.6440 C   0  0  0  0  0  3  0  0  0  0  0  0
  185.1830  177.6470  144.2930 C   0  0  0  0  0  0  0  0  0  0  0  0
  184.6480  177.7730  145.5690 O   0  0  0  0  0  1  0  0  0  0  0  0
  186.9390  176.8670  142.8030 C   0  0  0  0  0  0  0  0  0  0  0  0
  184.4960  178.1830  143.2010 C   0  0  0  0  0  3  0  0  0  0  0  0
  186.2340  177.3970  141.7140 C   0  0  0  0  0  3  0  0  0  0  0  0
  186.4000  176.9800  144.0980 C   0  0  0  0  0  0  0  0  0  0  0  0
  187.0580  176.4180  145.1880 O   0  0  0  0  0  1  0  0  0  0  0  0
  185.0160  178.0560  141.9040 C   0  0  0  0  0  0  0  0  0  0  0  0
  182.9840  178.2880  140.5130 C   0  0  0  0  0  1  0  0  0  0  0  0
  184.3470  178.5760  140.7930 O   0  0  0  0  0  0  0  0  0  0  0  0
  192.1890  175.3630  144.7240 N   0  0  0  0  0  2  0  0  0  0  0  0
  192.8370  176.1000  145.6590 O   0  0  0  0  0  0  0  0  0  0  0  0
  192.4540  175.5360  146.8760 C   0  0  0  0  0  2  0  0  0  0  0  0
  191.4000  176.4100  147.5250 C   0  0  0  0  0  1  0  0  0  0  0  0
  1  3  1  6  0  0  0
  2 13  2  0  0  0  0
  2  7  1  0  0  0  0
  3 16  2  0  0  0  0
  4  1  1  0  0  0  0
  4 10  1  0  0  0  0
  5  7  1  0  0  0  0
  6 18  1  0  0  0  0
  7  4  2  0  0  0  0
  8  9  1  0  0  0  0
  9 15  1  0  0  0  0
  9 11  2  0  0  0  0
 10 12  2  0  0  0  0
 10 29  1  0  0  0  0
 11  5  1  0  0  0  0
 12 16  1  0  0  0  0
 13 14  1  0  0  0  0
 14 21  1  0  0  0  0
 14  1  1  0  0  0  0
 15  2  1  0  0  0  0
 17  6  2  0  0  0  0
 17  8  1  0  0  0  0
 18 15  2  0  0  0  0
 19 20  1  0  0  0  0
 21 24  2  0  0  0  0
 22 19  2  0  0  0  0
 23 26  2  0  0  0  0
 23 21  1  0  0  0  0
 24 19  1  0  0  0  0
 24 25  1  0  0  0  0
 26 22  1  0  0  0  0
 27 28  1  0  0  0  0
 28 26  1  0  0  0  0
 29 30  1  0  0  0  0
 30 31  1  0  0  0  0
 31 32  1  0  0  0  0
M  END
>  <MODEL>
4

>  <REMARK>
 VINA RESULT:      -7.2      2.598      6.975
  Name = 
  5 active torsions:
  status: ('A' for Active; 'I' for Inactive)
    1  A    between atoms: C_13  and  O_18
    2  A    between atoms: C_14  and  N_29
    3  A    between atoms: O_15  and  C_26
    4  A    between atoms: C_16  and  N_27
    5  A    between atoms: O_18  and  N_29
                            x       y       z     vdW  Elec       q    Type
                         _______ _______ _______ _____ _____    ______ ____

>  <TORSDO>
F 5

$$$$
=
 OpenBabel11052419153D

 32 36  0  0  1  0  0  0  0  0999 V2000
  189.1150  174.7880  142.6170 C   0  0  0  0  0  0  0  0  0  0  0  0
  191.5950  175.4570  143.8090 C   0  0  0  0  0  0  0  0  0  0  0  0
  187.9250  174.3350  142.2030 C   0  0  0  0  0  3  0  0  0  0  0  0
  190.3540  174.1090  142.1660 C   0  0  0  0  0  0  0  0  0  0  0  0
  192.7010  173.7690  142.3610 O   0  0  0  0  0  0  0  0  0  0  0  0
  194.0900  176.1600  146.5130 C   0  0  0  0  0  3  0  0  0  0  0  0
  191.5240  174.4230  142.7470 C   0  0  0  0  0  0  0  0  0  0  0  0
  195.3030  174.9380  144.7680 C   0  0  0  0  0  3  0  0  0  0  0  0
  194.0460  174.8580  144.0090 C   0  0  0  0  0  0  0  0  0  0  0  0
  190.2960  173.1030  141.0390 C   0  0  1  0  0  3  0  0  0  0  0  0
  193.9110  173.9480  143.0420 C   0  0  0  0  0  3  0  0  0  0  0  0
  188.9000  172.6020  140.7740 C   0  0  0  0  0  3  0  0  0  0  0  0
  190.5020  176.1500  144.1560 C   0  0  0  0  0  3  0  0  0  0  0  0
  189.2210  175.8630  143.5740 N   0  0  0  0  0  0  0  0  0  0  0  0
  192.9510  175.8550  144.3290 C   0  0  2  0  0  3  0  0  0  0  0  0
  187.8160  173.1870  141.2890 C   0  0  0  0  0  3  0  0  0  0  0  0
  195.3220  175.5700  145.9460 C   0  0  0  0  0  3  0  0  0  0  0  0
  192.9680  176.2490  145.7870 C   0  0  0  0  0  3  0  0  0  0  0  0
  186.4690  178.4180  143.5880 C   0  0  0  0  0  0  0  0  0  0  0  0
  185.9450  179.4160  142.7760 O   0  0  0  0  0  1  0  0  0  0  0  0
  188.0900  176.6500  143.9870 C   0  0  0  0  0  0  0  0  0  0  0  0
  185.8940  178.1720  144.8370 C   0  0  0  0  0  3  0  0  0  0  0  0
  187.5130  176.4220  145.2430 C   0  0  0  0  0  3  0  0  0  0  0  0
  187.5730  177.6660  143.1620 C   0  0  0  0  0  0  0  0  0  0  0  0
  188.1600  177.9440  141.9320 O   0  0  0  0  0  1  0  0  0  0  0  0
  186.4170  177.1750  145.6740 C   0  0  0  0  0  0  0  0  0  0  0  0
  185.9420  177.8330  148.0110 C   0  0  0  0  0  1  0  0  0  0  0  0
  185.8670  176.9110  146.9310 O   0  0  0  0  0  0  0  0  0  0  0  0
  190.8260  173.7020  139.8240 N   0  0  0  0  0  2  0  0  0  0  0  0
  190.4220  172.9230  138.7920 O   0  0  0  0  0  0  0  0  0  0  0  0
  190.3880  173.7830  137.6950 C   0  0  0  0  0  2  0  0  0  0  0  0
  188.9520  174.1610  137.3960 C   0  0  0  0  0  1  0  0  0  0  0  0
  1 14  1  0  0  0  0
  2 13  2  0  0  0  0
  2 15  1  0  0  0  0
  3  1  2  0  0  0  0
  4  1  1  0  0  0  0
  4  7  2  0  0  0  0
  5  7  1  0  0  0  0
  5 11  1  0  0  0  0
  7  2  1  0  0  0  0
  8 17  2  0  0  0  0
  9 15  1  0  0  0  0
  9  8  1  0  0  0  0
 10 29  1  6  0  0  0
 10  4  1  0  0  0  0
 11  9  2  0  0  0  0
 12 10  1  0  0  0  0
 12 16  2  0  0  0  0
 14 21  1  0  0  0  0
 14 13  1  0  0  0  0
 15 18  1  1  0  0  0
 16  3  1  0  0  0  0
 17  6  1  0  0  0  0
 18  6  2  0  0  0  0
 19 22  1  0  0  0  0
 20 19  1  0  0  0  0
 21 23  2  0  0  0  0
 22 26  2  0  0  0  0
 23 26  1  0  0  0  0
 24 19  2  0  0  0  0
 24 21  1  0  0  0  0
 25 24  1  0  0  0  0
 26 28  1  0  0  0  0
 28 27  1  0  0  0  0
 30 29  1  0  0  0  0
 31 30  1  0  0  0  0
 32 31  1  0  0  0  0
M  END
>  <MODEL>
5

>  <REMARK>
 VINA RESULT:      -7.1      2.385      7.912
  Name = 
  5 active torsions:
  status: ('A' for Active; 'I' for Inactive)
    1  A    between atoms: C_13  and  O_18
    2  A    between atoms: C_14  and  N_29
    3  A    between atoms: O_15  and  C_26
    4  A    between atoms: C_16  and  N_27
    5  A    between atoms: O_18  and  N_29
                            x       y       z     vdW  Elec       q    Type
                         _______ _______ _______ _____ _____    ______ ____

>  <TORSDO>
F 5

$$$$
=
 OpenBabel11052419153D

 32 36  0  0  1  0  0  0  0  0999 V2000
  189.5840  175.5310  144.5220 C   0  0  2  0  0  3  0  0  0  0  0  0
  187.7720  176.9140  142.8420 C   0  0  0  0  0  0  0  0  0  0  0  0
  190.3330  174.7100  145.2680 C   0  0  0  0  0  3  0  0  0  0  0  0
  188.3550  176.1270  145.1000 C   0  0  0  0  0  0  0  0  0  0  0  0
  186.3120  177.3130  144.8110 O   0  0  0  0  0  0  0  0  0  0  0  0
  185.5740  177.5880  139.8850 C   0  0  0  0  0  3  0  0  0  0  0  0
  187.4950  176.7700  144.2920 C   0  0  0  0  0  0  0  0  0  0  0  0
  184.3840  178.4780  141.8350 C   0  0  0  0  0  2  0  0  0  0  0  0
  185.4950  178.0080  142.6760 C   0  0  0  0  0  0  0  0  0  0  0  0
  188.1020  176.0400  146.5880 C   0  0  0  0  0  0  0  0  0  0  0  0
  185.3150  177.8510  143.9880 C   0  0  0  0  0  3  0  0  0  0  0  0
  188.9400  174.9880  147.2630 C   0  0  0  0  0  3  0  0  0  0  0  0
  188.9250  176.4690  142.3240 C   0  0  0  0  0  3  0  0  0  0  0  0
  189.8860  175.7730  143.1320 N   0  0  0  0  0  0  0  0  0  0  0  0
  186.8360  177.7560  142.0160 C   0  0  0  0  0  0  0  0  0  0  0  0
  189.9790  174.4000  146.6620 C   0  0  0  0  0  3  0  0  0  0  0  0
  184.4340  178.2920  140.5120 C   0  0  0  0  0  3  0  0  0  0  0  0
  186.6730  177.2880  140.5890 C   0  0  0  0  0  3  0  0  0  0  0  0
  192.3470  173.7280  141.1660 C   0  0  0  0  0  0  0  0  0  0  0  0
  192.3940  172.5620  140.4120 O   0  0  0  0  0  1  0  0  0  0  0  0
  191.1060  175.3270  142.5130 C   0  0  0  0  0  0  0  0  0  0  0  0
  193.5080  174.4860  141.3370 C   0  0  0  0  0  3  0  0  0  0  0  0
  192.2800  176.0720  142.6880 C   0  0  0  0  0  3  0  0  0  0  0  0
  191.1460  174.1390  141.7600 C   0  0  0  0  0  0  0  0  0  0  0  0
  190.0040  173.3570  141.6140 O   0  0  0  0  0  1  0  0  0  0  0  0
  193.4810  175.6610  142.1030 C   0  0  0  0  0  0  0  0  0  0  0  0
  195.7970  176.2900  141.5020 C   0  0  0  0  0  1  0  0  0  0  0  0
  194.6280  176.4350  142.2970 O   0  0  0  0  0  0  0  0  0  0  0  0
  188.3690  177.3310  147.2040 N   0  0  0  0  0  2  0  0  0  0  0  0
  189.6930  177.5750  147.0470 O   0  0  0  0  0  0  0  0  0  0  0  0
  190.0770  178.1990  148.2330 C   0  0  0  0  0  2  0  0  0  0  0  0
  191.3340  177.5420  148.7630 C   0  0  0  0  0  1  0  0  0  0  0  0
  1  4  1  0  0  0  0
  1  3  1  6  0  0  0
  2  7  1  0  0  0  0
  3 16  2  0  0  0  0
  4 10  1  0  0  0  0
  6 17  2  0  0  0  0
  6 18  1  0  0  0  0
  7  5  1  0  0  0  0
  7  4  2  0  0  0  0
  8  9  1  0  0  0  0
  9 11  2  0  0  0  0
 10 29  1  0  0  0  0
 10 12  2  0  0  0  0
 11  5  1  0  0  0  0
 13  2  2  0  0  0  0
 13 14  1  0  0  0  0
 14  1  1  0  0  0  0
 15  9  1  0  0  0  0
 15  2  1  0  0  0  0
 16 12  1  0  0  0  0
 17  8  1  0  0  0  0
 18 15  2  0  0  0  0
 19 22  2  0  0  0  0
 19 24  1  0  0  0  0
 20 19  1  0  0  0  0
 21 23  1  0  0  0  0
 21 14  1  0  0  0  0
 22 26  1  0  0  0  0
 24 21  2  0  0  0  0
 25 24  1  0  0  0  0
 26 28  1  0  0  0  0
 26 23  2  0  0  0  0
 27 28  1  0  0  0  0
 30 29  1  0  0  0  0
 30 31  1  0  0  0  0
 31 32  1  0  0  0  0
M  END
>  <MODEL>
6

>  <REMARK>
 VINA RESULT:      -7.1      1.524      2.026
  Name = 
  5 active torsions:
  status: ('A' for Active; 'I' for Inactive)
    1  A    between atoms: C_13  and  O_18
    2  A    between atoms: C_14  and  N_29
    3  A    between atoms: O_15  and  C_26
    4  A    between atoms: C_16  and  N_27
    5  A    between atoms: O_18  and  N_29
                            x       y       z     vdW  Elec       q    Type
                         _______ _______ _______ _____ _____    ______ ____

>  <TORSDO>
F 5

$$$$
=
 OpenBabel11052419153D

 32 36  0  0  1  0  0  0  0  0999 V2000
  191.8140  174.8580  145.1540 C   0  0  2  0  0  3  0  0  0  0  0  0
  190.9430  174.0120  142.5960 C   0  0  0  0  0  0  0  0  0  0  0  0
  192.1900  175.0650  146.4220 C   0  0  0  0  0  3  0  0  0  0  0  0
  190.3840  174.9910  144.7840 C   0  0  0  0  0  0  0  0  0  0  0  0
  188.6260  174.6600  143.2150 O   0  0  0  0  0  0  0  0  0  0  0  0
  190.5350  171.7940  139.6060 C   0  0  0  0  0  3  0  0  0  0  0  0
  189.9780  174.5740  143.5730 C   0  0  0  0  0  0  0  0  0  0  0  0
  188.3710  172.8990  139.9340 C   0  0  0  0  0  2  0  0  0  0  0  0
  188.9410  173.5720  141.1110 C   0  0  0  0  0  0  0  0  0  0  0  0
  189.4100  175.6250  145.7520 C   0  0  0  0  0  0  0  0  0  0  0  0
  188.1310  174.0970  142.0320 C   0  0  0  0  0  3  0  0  0  0  0  0
  189.9370  175.6780  147.1610 C   0  0  0  0  0  3  0  0  0  0  0  0
  192.2520  173.9780  142.8780 C   0  0  0  0  0  3  0  0  0  0  0  0
  192.7520  174.4070  144.1540 N   0  0  0  0  0  0  0  0  0  0  0  0
  190.4490  173.6840  141.2120 C   0  0  0  0  0  0  0  0  0  0  0  0
  191.2190  175.4470  147.4590 C   0  0  0  0  0  3  0  0  0  0  0  0
  189.1350  172.0700  139.2150 C   0  0  0  0  0  3  0  0  0  0  0  0
  191.1370  172.5040  140.5680 C   0  0  0  0  0  3  0  0  0  0  0  0
  196.4140  175.2340  144.0790 C   0  0  0  0  0  0  0  0  0  0  0  0
  197.2760  176.1840  143.5460 O   0  0  0  0  0  1  0  0  0  0  0  0
  194.1700  174.3500  144.3880 C   0  0  0  0  0  0  0  0  0  0  0  0
  196.9300  174.1930  144.8550 C   0  0  0  0  0  3  0  0  0  0  0  0
  194.7010  173.3040  145.1540 C   0  0  0  0  0  3  0  0  0  0  0  0
  195.0360  175.3120  143.8350 C   0  0  0  0  0  0  0  0  0  0  0  0
  194.5370  176.3310  143.0300 O   0  0  0  0  0  1  0  0  0  0  0  0
  196.0760  173.2190  145.3940 C   0  0  0  0  0  0  0  0  0  0  0  0
  196.3030  170.8010  145.8610 C   0  0  0  0  0  1  0  0  0  0  0  0
  196.5640  172.1640  146.1670 O   0  0  0  0  0  0  0  0  0  0  0  0
  189.0930  176.9740  145.3090 N   0  0  0  0  0  2  0  0  0  0  0  0
  188.0230  177.3830  146.0320 O   0  0  0  0  0  0  0  0  0  0  0  0
  186.9190  176.9980  145.2730 C   0  0  0  0  0  2  0  0  0  0  0  0
  185.7300  176.7810  146.1860 C   0  0  0  0  0  1  0  0  0  0  0  0
  1  3  1  1  0  0  0
  2 13  2  0  0  0  0
  2  7  1  0  0  0  0
  3 16  2  0  0  0  0
  4  1  1  0  0  0  0
  4 10  1  0  0  0  0
  5  7  1  0  0  0  0
  6 18  1  0  0  0  0
  7  4  2  0  0  0  0
  8  9  1  0  0  0  0
  9 15  1  0  0  0  0
  9 11  2  0  0  0  0
 10 12  2  0  0  0  0
 11  5  1  0  0  0  0
 12 16  1  0  0  0  0
 13 14  1  0  0  0  0
 14 21  1  0  0  0  0
 14  1  1  0  0  0  0
 15  2  1  0  0  0  0
 17  6  2  0  0  0  0
 17  8  1  0  0  0  0
 18 15  2  0  0  0  0
 19 22  1  0  0  0  0
 20 19  1  0  0  0  0
 21 23  2  0  0  0  0
 22 26  2  0  0  0  0
 23 26  1  0  0  0  0
 24 19  2  0  0  0  0
 24 21  1  0  0  0  0
 25 24  1  0  0  0  0
 26 28  1  0  0  0  0
 27 28  1  0  0  0  0
 29 10  1  0  0  0  0
 29 30  1  0  0  0  0
 31 30  1  0  0  0  0
 31 32  1  0  0  0  0
M  END
>  <MODEL>
7

>  <REMARK>
 VINA RESULT:      -7.0      2.884      4.380
  Name = 
  5 active torsions:
  status: ('A' for Active; 'I' for Inactive)
    1  A    between atoms: C_13  and  O_18
    2  A    between atoms: C_14  and  N_29
    3  A    between atoms: O_15  and  C_26
    4  A    between atoms: C_16  and  N_27
    5  A    between atoms: O_18  and  N_29
                            x       y       z     vdW  Elec       q    Type
                         _______ _______ _______ _____ _____    ______ ____

>  <TORSDO>
F 5

$$$$
=
 OpenBabel11052419153D

 32 36  0  0  1  0  0  0  0  0999 V2000
  191.7410  174.7270  145.1820 C   0  0  2  0  0  3  0  0  0  0  0  0
  190.8360  174.0110  142.5970 C   0  0  0  0  0  0  0  0  0  0  0  0
  192.1190  174.8750  146.4590 C   0  0  0  0  0  3  0  0  0  0  0  0
  190.3280  174.9730  144.8050 C   0  0  0  0  0  0  0  0  0  0  0  0
  188.5670  174.8100  143.2140 O   0  0  0  0  0  0  0  0  0  0  0  0
  190.2980  171.9040  139.5470 C   0  0  0  0  0  3  0  0  0  0  0  0
  189.9050  174.6170  143.5800 C   0  0  0  0  0  0  0  0  0  0  0  0
  188.2170  173.1550  139.8870 C   0  0  0  0  0  2  0  0  0  0  0  0
  188.8220  173.7550  141.0850 C   0  0  0  0  0  0  0  0  0  0  0  0
  189.3930  175.6520  145.7800 C   0  0  0  0  0  0  0  0  0  0  0  0
  188.0440  174.3150  142.0130 C   0  0  0  0  0  3  0  0  0  0  0  0
  189.9090  175.6320  147.1950 C   0  0  0  0  0  3  0  0  0  0  0  0
  192.1370  173.8750  142.8880 C   0  0  0  0  0  3  0  0  0  0  0  0
  192.6540  174.2350  144.1790 N   0  0  0  0  0  0  0  0  0  0  0  0
  190.3330  173.7540  141.2010 C   0  0  0  0  0  0  0  0  0  0  0  0
  191.1680  175.3000  147.4970 C   0  0  0  0  0  3  0  0  0  0  0  0
  188.9260  172.2910  139.1530 C   0  0  0  0  0  3  0  0  0  0  0  0
  190.9400  172.5430  140.5330 C   0  0  0  0  0  3  0  0  0  0  0  0
  195.9340  172.7780  145.2810 C   0  0  0  0  0  0  0  0  0  0  0  0
  196.4350  171.6370  145.8970 O   0  0  0  0  0  1  0  0  0  0  0  0
  194.0620  174.0690  144.4220 C   0  0  0  0  0  0  0  0  0  0  0  0
  196.8120  173.7930  144.8930 C   0  0  0  0  0  3  0  0  0  0  0  0
  194.9500  175.0870  144.0500 C   0  0  0  0  0  3  0  0  0  0  0  0
  194.5580  172.9150  145.0560 C   0  0  0  0  0  0  0  0  0  0  0  0
  193.6890  171.9130  145.4800 O   0  0  0  0  0  1  0  0  0  0  0  0
  196.3230  174.9560  144.2780 C   0  0  0  0  0  0  0  0  0  0  0  0
  196.9350  176.7920  142.7370 C   0  0  0  0  0  1  0  0  0  0  0  0
  197.1760  175.9910  143.8860 O   0  0  0  0  0  0  0  0  0  0  0  0
  189.1790  177.0310  145.3700 N   0  0  0  0  0  2  0  0  0  0  0  0
  188.1100  177.4870  146.0660 O   0  0  0  0  0  0  0  0  0  0  0  0
  187.0070  177.0970  145.3080 C   0  0  0  0  0  2  0  0  0  0  0  0
  185.8420  176.8020  146.2300 C   0  0  0  0  0  1  0  0  0  0  0  0
  1  3  1  1  0  0  0
  2 13  2  0  0  0  0
  2  7  1  0  0  0  0
  3 16  2  0  0  0  0
  4  1  1  0  0  0  0
  4 10  1  0  0  0  0
  5  7  1  0  0  0  0
  6 18  1  0  0  0  0
  7  4  2  0  0  0  0
  8  9  1  0  0  0  0
  9 15  1  0  0  0  0
  9 11  2  0  0  0  0
 10 12  2  0  0  0  0
 11  5  1  0  0  0  0
 12 16  1  0  0  0  0
 13 14  1  0  0  0  0
 14 21  1  0  0  0  0
 14  1  1  0  0  0  0
 15  2  1  0  0  0  0
 17  6  2  0  0  0  0
 17  8  1  0  0  0  0
 18 15  2  0  0  0  0
 19 20  1  0  0  0  0
 21 24  2  0  0  0  0
 22 19  2  0  0  0  0
 23 26  2  0  0  0  0
 23 21  1  0  0  0  0
 24 19  1  0  0  0  0
 24 25  1  0  0  0  0
 26 22  1  0  0  0  0
 27 28  1  0  0  0  0
 28 26  1  0  0  0  0
 29 10  1  0  0  0  0
 29 30  1  0  0  0  0
 31 30  1  0  0  0  0
 31 32  1  0  0  0  0
M  END
>  <MODEL>
8

>  <REMARK>
 VINA RESULT:      -6.9      2.890      4.124
  Name = 
  5 active torsions:
  status: ('A' for Active; 'I' for Inactive)
    1  A    between atoms: C_13  and  O_18
    2  A    between atoms: C_14  and  N_29
    3  A    between atoms: O_15  and  C_26
    4  A    between atoms: C_16  and  N_27
    5  A    between atoms: O_18  and  N_29
                            x       y       z     vdW  Elec       q    Type
                         _______ _______ _______ _____ _____    ______ ____

>  <TORSDO>
F 5

$$$$
=
 OpenBabel11052419153D

 32 36  0  0  1  0  0  0  0  0999 V2000
  190.7410  175.9500  143.8110 C   0  0  2  0  0  3  0  0  0  0  0  0
  189.9860  173.9450  141.9600 C   0  0  0  0  0  0  0  0  0  0  0  0
  191.1290  177.0160  144.5230 C   0  0  0  0  0  3  0  0  0  0  0  0
  191.7590  174.9990  143.3030 C   0  0  0  0  0  0  0  0  0  0  0  0
  192.3460  173.1720  141.8960 O   0  0  0  0  0  0  0  0  0  0  0  0
  188.4080  172.4080  138.9310 C   0  0  0  0  0  3  0  0  0  0  0  0
  191.3940  174.0590  142.4140 C   0  0  0  0  0  0  0  0  0  0  0  0
  190.5550  171.2640  139.2340 C   0  0  0  0  0  2  0  0  0  0  0  0
  190.8050  172.1300  140.3960 C   0  0  0  0  0  0  0  0  0  0  0  0
  193.1800  175.0700  143.8140 C   0  0  0  0  0  0  0  0  0  0  0  0
  192.0480  172.2830  140.8560 C   0  0  0  0  0  3  0  0  0  0  0  0
  193.4940  176.3790  144.4880 C   0  0  0  0  0  3  0  0  0  0  0  0
  189.0370  174.7310  142.4840 C   0  0  0  0  0  3  0  0  0  0  0  0
  189.3600  175.7560  143.4380 N   0  0  0  0  0  0  0  0  0  0  0  0
  189.6160  172.7920  141.0640 C   0  0  0  0  0  0  0  0  0  0  0  0
  192.5470  177.2560  144.8340 C   0  0  0  0  0  3  0  0  0  0  0  0
  189.4110  171.3890  138.5530 C   0  0  0  0  0  3  0  0  0  0  0  0
  188.5220  173.1020  140.0700 C   0  0  0  0  0  3  0  0  0  0  0  0
  186.6910  178.3770  143.7520 C   0  0  0  0  0  0  0  0  0  0  0  0
  186.1250  179.4090  143.0140 O   0  0  0  0  0  1  0  0  0  0  0  0
  188.2920  176.5600  143.9670 C   0  0  0  0  0  0  0  0  0  0  0  0
  186.2210  178.1140  145.0420 C   0  0  0  0  0  3  0  0  0  0  0  0
  187.8210  176.3140  145.2630 C   0  0  0  0  0  3  0  0  0  0  0  0
  187.7320  177.6100  143.2140 C   0  0  0  0  0  0  0  0  0  0  0  0
  188.2180  177.9040  141.9440 O   0  0  0  0  0  1  0  0  0  0  0  0
  186.7860  177.0830  145.8060 C   0  0  0  0  0  0  0  0  0  0  0  0
  185.9410  177.8150  148.0130 C   0  0  0  0  0  1  0  0  0  0  0  0
  186.3410  176.8010  147.1000 O   0  0  0  0  0  0  0  0  0  0  0  0
  193.4150  173.9820  144.7520 N   0  0  0  0  0  2  0  0  0  0  0  0
  194.5320  173.3380  144.3350 O   0  0  0  0  0  0  0  0  0  0  0  0
  195.2220  173.0380  145.5090 C   0  0  0  0  0  2  0  0  0  0  0  0
  196.2690  174.1030  145.7630 C   0  0  0  0  0  1  0  0  0  0  0  0
  1  3  1  6  0  0  0
  2  7  1  0  0  0  0
  2 13  2  0  0  0  0
  3 16  2  0  0  0  0
  4  1  1  0  0  0  0
  4 10  1  0  0  0  0
  5  7  1  0  0  0  0
  6 18  1  0  0  0  0
  7  4  2  0  0  0  0
  8  9  1  0  0  0  0
  9 11  2  0  0  0  0
  9 15  1  0  0  0  0
 10 12  2  0  0  0  0
 10 29  1  0  0  0  0
 11  5  1  0  0  0  0
 12 16  1  0  0  0  0
 13 14  1  0  0  0  0
 14  1  1  0  0  0  0
 14 21  1  0  0  0  0
 15  2  1  0  0  0  0
 17  6  2  0  0  0  0
 17  8  1  0  0  0  0
 18 15  2  0  0  0  0
 19 22  1  0  0  0  0
 20 19  1  0  0  0  0
 21 23  2  0  0  0  0
 22 26  2  0  0  0  0
 23 26  1  0  0  0  0
 24 19  2  0  0  0  0
 24 21  1  0  0  0  0
 25 24  1  0  0  0  0
 26 28  1  0  0  0  0
 28 27  1  0  0  0  0
 30 29  1  0  0  0  0
 30 31  1  0  0  0  0
 31 32  1  0  0  0  0
M  END
>  <MODEL>
9

>  <REMARK>
 VINA RESULT:      -6.9      2.679      7.025
  Name = 
  5 active torsions:
  status: ('A' for Active; 'I' for Inactive)
    1  A    between atoms: C_13  and  O_18
    2  A    between atoms: C_14  and  N_29
    3  A    between atoms: O_15  and  C_26
    4  A    between atoms: C_16  and  N_27
    5  A    between atoms: O_18  and  N_29
                            x       y       z     vdW  Elec       q    Type
                         _______ _______ _______ _____ _____    ______ ____

>  <TORSDO>
F 5

$$$$
