=
 OpenBabel11052417583D

 31 34  0  0  1  0  0  0  0  0999 V2000
  187.4530  176.4760  143.5440 C   0  0  0  0  0  0  0  0  0  0  0  0
  186.7190  176.9900  142.4560 C   0  0  0  0  0  0  0  0  0  0  0  0
  184.9430  178.2940  141.5860 C   0  0  0  0  0  3  0  0  0  0  0  0
  187.1340  176.7870  144.9500 C   0  0  0  0  0  0  0  0  0  0  0  0
  186.3310  177.4410  146.8630 C   0  0  0  0  0  0  0  0  0  0  0  0
  185.6470  177.8070  142.6420 N   0  0  0  0  0  0  0  0  0  0  0  0
  189.3200  174.9770  144.4520 C   0  0  1  0  0  3  0  0  0  0  0  0
  188.1750  175.8270  140.9400 N   0  0  0  0  0  0  0  0  0  0  0  0
  185.3070  177.9720  140.3170 N   0  0  0  0  0  2  0  0  0  0  0  0
  189.2960  175.7870  145.7670 C   0  0  0  0  0  2  0  0  0  0  0  0
  188.5720  175.6430  143.3000 C   0  0  0  0  0  0  0  0  0  0  0  0
  186.0450  177.4400  145.5010 C   0  0  0  0  0  3  0  0  0  0  0  0
  186.6910  176.8910  138.8840 O   0  0  0  0  0  0  0  0  0  0  0  0
  187.9730  176.4450  145.9760 C   0  0  0  0  0  0  0  0  0  0  0  0
  187.4810  176.8530  147.1160 O   0  0  0  0  0  0  0  0  0  0  0  0
  188.8950  175.3190  141.9750 C   0  0  0  0  0  3  0  0  0  0  0  0
  187.1110  176.6490  141.1460 C   0  0  0  0  0  0  0  0  0  0  0  0
  186.3730  177.1650  140.0730 C   0  0  0  0  0  0  0  0  0  0  0  0
  193.3280  171.9350  144.1210 C   0  0  0  0  0  1  0  0  0  0  0  0
  190.6180  172.4400  144.6420 O   0  0  0  0  0  0  0  0  0  0  0  0
  191.3060  173.4130  144.2280 C   0  0  0  0  0  0  0  0  0  0  0  0
  192.6900  173.2280  143.9000 N   0  0  0  0  0  0  0  0  0  0  0  0
  190.7030  174.7020  144.0810 N   0  0  0  0  0  2  0  0  0  0  0  0
  194.4510  173.9280  142.3420 C   0  0  0  0  0  1  0  0  0  0  0  0
  193.4840  174.3610  143.4330 C   0  0  2  0  0  3  0  0  0  0  0  0
  194.1860  174.9470  144.5250 O   0  0  0  0  0  0  0  0  0  0  0  0
  193.7910  176.1540  145.1060 C   0  0  0  0  0  0  0  0  0  0  0  0
  193.1010  176.9870  144.4600 O   0  0  0  0  0  0  0  0  0  0  0  0
  194.1910  176.4610  146.5080 C   0  0  0  0  0  1  0  0  0  0  0  0
  185.4810  178.0190  147.9040 C   0  0  0  0  0  3  0  0  0  0  0  0
  184.4410  178.6630  147.6010 O   0  0  0  0  0  0  0  0  0  0  0  0
  1  4  1  0  0  0  0
  2  6  1  0  0  0  0
  2  1  2  0  0  0  0
  3  6  2  0  0  0  0
  4 12  1  0  0  0  0
  4 14  2  0  0  0  0
  5 15  1  0  0  0  0
  5 30  1  0  0  0  0
  7 23  1  6  0  0  0
  7 10  1  0  0  0  0
  8 17  2  0  0  0  0
  8 16  1  0  0  0  0
  9  3  1  0  0  0  0
 10 14  1  0  0  0  0
 11  1  1  0  0  0  0
 11  7  1  0  0  0  0
 12  5  2  0  0  0  0
 13 18  2  0  0  0  0
 14 15  1  0  0  0  0
 16 11  2  0  0  0  0
 17  2  1  0  0  0  0
 18  9  1  0  0  0  0
 18 17  1  0  0  0  0
 21 20  2  0  0  0  0
 22 19  1  0  0  0  0
 22 21  1  0  0  0  0
 23 21  1  0  0  0  0
 25 24  1  6  0  0  0
 25 22  1  0  0  0  0
 25 26  1  0  0  0  0
 26 27  1  0  0  0  0
 27 29  1  0  0  0  0
 28 27  2  0  0  0  0
 31 30  2  0  0  0  0
M  END
>  <MODEL>
1

>  <REMARK>
 VINA RESULT:      -7.3      0.000      0.000
  Name = 
  5 active torsions:
  status: ('A' for Active; 'I' for Inactive)
    1  A    between atoms: C_1  and  O_24
    2  A    between atoms: C_2  and  C_13
    3  A    between atoms: C_15  and  N_23
    4  A    between atoms: C_19  and  N_22
    5  A    between atoms: C_19  and  O_24
                            x       y       z     vdW  Elec       q    Type
                         _______ _______ _______ _____ _____    ______ ____

>  <TORSDO>
F 5

$$$$
=
 OpenBabel11052417583D

 31 34  0  0  1  0  0  0  0  0999 V2000
  186.4100  177.8920  143.7640 C   0  0  0  0  0  0  0  0  0  0  0  0
  185.8510  178.0730  145.0450 C   0  0  0  0  0  0  0  0  0  0  0  0
  183.9880  178.4580  146.4560 C   0  0  0  0  0  3  0  0  0  0  0  0
  185.6080  177.8980  142.5260 C   0  0  0  0  0  0  0  0  0  0  0  0
  184.1100  178.0130  140.9530 C   0  0  0  0  0  0  0  0  0  0  0  0
  184.5170  178.2800  145.2170 N   0  0  0  0  0  2  0  0  0  0  0  0
  188.4590  177.5750  142.2610 C   0  0  1  0  0  3  0  0  0  0  0  0
  188.0330  177.8360  146.0190 N   0  0  0  0  0  0  0  0  0  0  0  0
  184.7920  178.4260  147.5520 N   0  0  0  0  0  0  0  0  0  0  0  0
  187.5320  177.0240  141.1550 C   0  0  0  0  0  2  0  0  0  0  0  0
  187.8020  177.6610  143.6360 C   0  0  0  0  0  0  0  0  0  0  0  0
  184.2800  178.2280  142.3170 C   0  0  0  0  0  3  0  0  0  0  0  0
  186.8480  178.1850  148.4740 O   0  0  0  0  0  0  0  0  0  0  0  0
  186.1340  177.5220  141.3190 C   0  0  0  0  0  0  0  0  0  0  0  0
  185.2200  177.5880  140.3880 O   0  0  0  0  0  0  0  0  0  0  0  0
  188.5930  177.6610  144.7920 C   0  0  0  0  0  3  0  0  0  0  0  0
  186.6960  178.0340  146.1720 C   0  0  0  0  0  0  0  0  0  0  0  0
  186.1290  178.2170  147.4390 C   0  0  0  0  0  0  0  0  0  0  0  0
  190.8740  173.1870  142.8370 C   0  0  0  0  0  1  0  0  0  0  0  0
  188.5530  174.7330  142.5270 O   0  0  0  0  0  0  0  0  0  0  0  0
  189.6540  175.3480  142.4820 C   0  0  0  0  0  0  0  0  0  0  0  0
  190.8880  174.6240  142.5920 N   0  0  0  0  0  0  0  0  0  0  0  0
  189.6730  176.7690  142.3180 N   0  0  0  0  0  2  0  0  0  0  0  0
  193.0060  174.8750  141.3800 C   0  0  0  0  0  1  0  0  0  0  0  0
  192.1580  175.3420  142.5530 C   0  0  2  0  0  3  0  0  0  0  0  0
  192.8570  175.1660  143.7810 O   0  0  0  0  0  0  0  0  0  0  0  0
  192.4570  175.7890  144.9660 C   0  0  0  0  0  0  0  0  0  0  0  0
  192.0700  176.9880  144.9660 O   0  0  0  0  0  0  0  0  0  0  0  0
  192.4890  175.0260  146.2450 C   0  0  0  0  0  1  0  0  0  0  0  0
  182.8630  178.2190  140.2150 C   0  0  0  0  0  3  0  0  0  0  0  0
  181.7480  178.0870  140.7850 O   0  0  0  0  0  0  0  0  0  0  0  0
  1  2  1  0  0  0  0
  2  6  1  0  0  0  0
  2 17  2  0  0  0  0
  3  9  2  0  0  0  0
  4  1  1  0  0  0  0
  5 12  2  0  0  0  0
  6  3  1  0  0  0  0
  7 23  1  1  0  0  0
  7 11  1  0  0  0  0
  8 17  1  0  0  0  0
 10 14  1  0  0  0  0
 10  7  1  0  0  0  0
 11  1  2  0  0  0  0
 11 16  1  0  0  0  0
 12  4  1  0  0  0  0
 14  4  2  0  0  0  0
 15  5  1  0  0  0  0
 15 14  1  0  0  0  0
 16  8  2  0  0  0  0
 17 18  1  0  0  0  0
 18  9  1  0  0  0  0
 18 13  2  0  0  0  0
 21 20  2  0  0  0  0
 21 22  1  0  0  0  0
 22 19  1  0  0  0  0
 23 21  1  0  0  0  0
 25 24  1  6  0  0  0
 25 22  1  0  0  0  0
 25 26  1  0  0  0  0
 26 27  1  0  0  0  0
 27 28  2  0  0  0  0
 27 29  1  0  0  0  0
 30 31  2  0  0  0  0
 30  5  1  0  0  0  0
M  END
>  <MODEL>
2

>  <REMARK>
 VINA RESULT:      -7.1      2.269      4.708
  Name = 
  5 active torsions:
  status: ('A' for Active; 'I' for Inactive)
    1  A    between atoms: C_1  and  O_24
    2  A    between atoms: C_2  and  C_13
    3  A    between atoms: C_15  and  N_23
    4  A    between atoms: C_19  and  N_22
    5  A    between atoms: C_19  and  O_24
                            x       y       z     vdW  Elec       q    Type
                         _______ _______ _______ _____ _____    ______ ____

>  <TORSDO>
F 5

$$$$
=
 OpenBabel11052417583D

 31 34  0  0  1  0  0  0  0  0999 V2000
  187.0920  177.5650  144.2400 C   0  0  0  0  0  0  0  0  0  0  0  0
  186.2180  177.8990  145.2940 C   0  0  0  0  0  0  0  0  0  0  0  0
  184.0900  178.5750  146.0840 C   0  0  0  0  0  3  0  0  0  0  0  0
  186.6800  177.5530  142.8230 C   0  0  0  0  0  0  0  0  0  0  0  0
  185.7130  177.6910  140.8800 C   0  0  0  0  0  0  0  0  0  0  0  0
  184.9240  178.2490  145.0610 N   0  0  0  0  0  2  0  0  0  0  0  0
  189.4320  176.9320  143.4130 C   0  0  1  0  0  3  0  0  0  0  0  0
  187.9920  177.5260  146.8690 N   0  0  0  0  0  0  0  0  0  0  0  0
  184.5410  178.5500  147.3660 N   0  0  0  0  0  0  0  0  0  0  0  0
  188.7980  176.3890  142.1130 C   0  0  0  0  0  2  0  0  0  0  0  0
  188.4260  177.1890  144.5320 C   0  0  0  0  0  0  0  0  0  0  0  0
  185.5150  177.9950  142.2230 C   0  0  0  0  0  3  0  0  0  0  0  0
  186.2080  178.1810  148.8560 O   0  0  0  0  0  0  0  0  0  0  0  0
  187.4790  177.0340  141.8410 C   0  0  0  0  0  0  0  0  0  0  0  0
  186.8800  177.1160  140.6820 O   0  0  0  0  0  0  0  0  0  0  0  0
  188.8520  177.2020  145.8670 C   0  0  0  0  0  3  0  0  0  0  0  0
  186.6990  177.8660  146.6180 C   0  0  0  0  0  0  0  0  0  0  0  0
  185.8220  178.2020  147.6560 C   0  0  0  0  0  0  0  0  0  0  0  0
  194.1910  175.2670  143.4230 C   0  0  0  0  0  1  0  0  0  0  0  0
  192.2010  177.1240  142.7420 O   0  0  0  0  0  0  0  0  0  0  0  0
  191.8460  176.1500  143.4610 C   0  0  0  0  0  0  0  0  0  0  0  0
  192.8120  175.1780  143.8860 N   0  0  0  0  0  0  0  0  0  0  0  0
  190.4770  176.0170  143.8570 N   0  0  0  0  0  2  0  0  0  0  0  0
  193.4650  173.6910  145.7240 C   0  0  0  0  0  1  0  0  0  0  0  0
  192.3910  174.0470  144.7070 C   0  0  2  0  0  3  0  0  0  0  0  0
  192.0920  172.9280  143.8790 O   0  0  0  0  0  0  0  0  0  0  0  0
  190.7810  172.5330  143.6000 C   0  0  0  0  0  0  0  0  0  0  0  0
  190.3960  172.3700  142.4110 O   0  0  0  0  0  0  0  0  0  0  0  0
  189.8270  172.3020  144.7210 C   0  0  0  0  0  1  0  0  0  0  0  0
  184.7600  177.9610  139.8030 C   0  0  0  0  0  3  0  0  0  0  0  0
  183.5210  177.9660  140.0270 O   0  0  0  0  0  0  0  0  0  0  0  0
  1 11  2  0  0  0  0
  1  2  1  0  0  0  0
  2 17  2  0  0  0  0
  3  9  2  0  0  0  0
  4  1  1  0  0  0  0
  5 12  2  0  0  0  0
  6  2  1  0  0  0  0
  6  3  1  0  0  0  0
  7 23  1  1  0  0  0
  7 11  1  0  0  0  0
  9 18  1  0  0  0  0
 10  7  1  0  0  0  0
 11 16  1  0  0  0  0
 12  4  1  0  0  0  0
 14 10  1  0  0  0  0
 14  4  2  0  0  0  0
 15  5  1  0  0  0  0
 15 14  1  0  0  0  0
 16  8  2  0  0  0  0
 17  8  1  0  0  0  0
 17 18  1  0  0  0  0
 18 13  2  0  0  0  0
 19 22  1  0  0  0  0
 20 21  2  0  0  0  0
 21 23  1  0  0  0  0
 21 22  1  0  0  0  0
 22 25  1  0  0  0  0
 25 24  1  1  0  0  0
 26 25  1  0  0  0  0
 27 26  1  0  0  0  0
 27 29  1  0  0  0  0
 28 27  2  0  0  0  0
 30 31  2  0  0  0  0
 30  5  1  0  0  0  0
M  END
>  <MODEL>
3

>  <REMARK>
 VINA RESULT:      -7.1      2.070      4.994
  Name = 
  5 active torsions:
  status: ('A' for Active; 'I' for Inactive)
    1  A    between atoms: C_1  and  O_24
    2  A    between atoms: C_2  and  C_13
    3  A    between atoms: C_15  and  N_23
    4  A    between atoms: C_19  and  N_22
    5  A    between atoms: C_19  and  O_24
                            x       y       z     vdW  Elec       q    Type
                         _______ _______ _______ _____ _____    ______ ____

>  <TORSDO>
F 5

$$$$
=
 OpenBabel11052417583D

 31 34  0  0  1  0  0  0  0  0999 V2000
  190.5550  175.4770  142.6380 C   0  0  0  0  0  0  0  0  0  0  0  0
  190.6290  174.3210  141.8350 C   0  0  0  0  0  0  0  0  0  0  0  0
  191.8250  172.4600  140.9900 C   0  0  0  0  0  3  0  0  0  0  0  0
  191.6740  175.9530  143.4720 C   0  0  0  0  0  0  0  0  0  0  0  0
  193.5390  176.3460  144.5190 C   0  0  0  0  0  0  0  0  0  0  0  0
  191.7620  173.5700  141.7720 N   0  0  0  0  0  0  0  0  0  0  0  0
  189.2650  177.5350  143.4530 C   0  0  1  0  0  3  0  0  0  0  0  0
  188.3610  174.6790  141.1300 N   0  0  0  0  0  0  0  0  0  0  0  0
  190.7460  172.0780  140.2590 N   0  0  0  0  0  2  0  0  0  0  0  0
  190.2060  177.6090  144.6750 C   0  0  0  0  0  2  0  0  0  0  0  0
  189.3470  176.2170  142.6860 C   0  0  0  0  0  0  0  0  0  0  0  0
  192.9920  175.5350  143.5300 C   0  0  0  0  0  3  0  0  0  0  0  0
  188.6000  172.4030  139.6060 O   0  0  0  0  0  0  0  0  0  0  0  0
  191.5180  176.9530  144.3930 C   0  0  0  0  0  0  0  0  0  0  0  0
  192.6440  177.1710  145.0190 O   0  0  0  0  0  0  0  0  0  0  0  0
  188.2690  175.7980  141.8960 C   0  0  0  0  0  3  0  0  0  0  0  0
  189.5000  173.9360  141.0850 C   0  0  0  0  0  0  0  0  0  0  0  0
  189.5870  172.7870  140.2890 C   0  0  0  0  0  0  0  0  0  0  0  0
  185.3290  176.7890  146.5140 C   0  0  0  0  0  1  0  0  0  0  0  0
  188.0160  176.4510  145.7810 O   0  0  0  0  0  0  0  0  0  0  0  0
  187.3180  177.2000  145.0450 C   0  0  0  0  0  0  0  0  0  0  0  0
  185.9450  177.4570  145.3740 N   0  0  0  0  0  0  0  0  0  0  0  0
  187.8970  177.7990  143.8810 N   0  0  0  0  0  2  0  0  0  0  0  0
  184.0750  179.0430  145.3170 C   0  0  0  0  0  1  0  0  0  0  0  0
  185.1390  178.3140  144.5110 C   0  0  2  0  0  3  0  0  0  0  0  0
  184.5420  177.5410  143.4740 O   0  0  0  0  0  0  0  0  0  0  0  0
  184.3300  178.0470  142.1900 C   0  0  0  0  0  0  0  0  0  0  0  0
  183.1650  178.2940  141.7770 O   0  0  0  0  0  0  0  0  0  0  0  0
  185.4960  178.3000  141.2970 C   0  0  0  0  0  1  0  0  0  0  0  0
  194.9310  176.3050  144.9700 C   0  0  0  0  0  3  0  0  0  0  0  0
  195.8270  175.7930  144.2480 O   0  0  0  0  0  0  0  0  0  0  0  0
  1 11  1  0  0  0  0
  1  4  1  0  0  0  0
  2  1  2  0  0  0  0
  3  6  2  0  0  0  0
  4 12  1  0  0  0  0
  4 14  2  0  0  0  0
  5 30  1  0  0  0  0
  5 15  1  0  0  0  0
  6  2  1  0  0  0  0
  7 23  1  1  0  0  0
  7 10  1  0  0  0  0
  8 16  1  0  0  0  0
  9 18  1  0  0  0  0
  9  3  1  0  0  0  0
 11  7  1  0  0  0  0
 12  5  2  0  0  0  0
 13 18  2  0  0  0  0
 14 10  1  0  0  0  0
 14 15  1  0  0  0  0
 16 11  2  0  0  0  0
 17  8  2  0  0  0  0
 17  2  1  0  0  0  0
 18 17  1  0  0  0  0
 21 22  1  0  0  0  0
 21 20  2  0  0  0  0
 22 19  1  0  0  0  0
 23 21  1  0  0  0  0
 25 24  1  1  0  0  0
 25 22  1  0  0  0  0
 26 25  1  0  0  0  0
 27 26  1  0  0  0  0
 28 27  2  0  0  0  0
 29 27  1  0  0  0  0
 31 30  2  0  0  0  0
M  END
>  <MODEL>
4

>  <REMARK>
 VINA RESULT:      -6.8      2.416      7.253
  Name = 
  5 active torsions:
  status: ('A' for Active; 'I' for Inactive)
    1  A    between atoms: C_1  and  O_24
    2  A    between atoms: C_2  and  C_13
    3  A    between atoms: C_15  and  N_23
    4  A    between atoms: C_19  and  N_22
    5  A    between atoms: C_19  and  O_24
                            x       y       z     vdW  Elec       q    Type
                         _______ _______ _______ _____ _____    ______ ____

>  <TORSDO>
F 5

$$$$
=
 OpenBabel11052417583D

 31 34  0  0  1  0  0  0  0  0999 V2000
  191.7970  174.8880  143.7740 C   0  0  0  0  0  0  0  0  0  0  0  0
  193.1190  175.3430  143.9510 C   0  0  0  0  0  0  0  0  0  0  0  0
  195.4350  175.2120  143.4750 C   0  0  0  0  0  3  0  0  0  0  0  0
  191.4390  173.7800  142.8680 C   0  0  0  0  0  0  0  0  0  0  0  0
  191.3260  172.1070  141.4830 C   0  0  0  0  0  0  0  0  0  0  0  0
  194.1630  174.7690  143.2940 N   0  0  0  0  0  2  0  0  0  0  0  0
  189.3130  174.9910  144.3890 C   0  0  1  0  0  3  0  0  0  0  0  0
  192.3290  177.0010  145.4990 N   0  0  0  0  0  0  0  0  0  0  0  0
  195.6840  176.2480  144.3200 N   0  0  0  0  0  0  0  0  0  0  0  0
  188.9790  174.2860  143.0560 C   0  0  0  0  0  2  0  0  0  0  0  0
  190.7400  175.5280  144.4670 C   0  0  0  0  0  0  0  0  0  0  0  0
  192.2430  172.8890  142.1790 C   0  0  0  0  0  3  0  0  0  0  0  0
  194.9390  177.8250  145.7670 O   0  0  0  0  0  0  0  0  0  0  0  0
  190.1390  173.4880  142.5580 C   0  0  0  0  0  0  0  0  0  0  0  0
  190.0890  172.4880  141.7190 O   0  0  0  0  0  0  0  0  0  0  0  0
  191.0470  176.5760  145.3450 C   0  0  0  0  0  3  0  0  0  0  0  0
  193.3600  176.4200  144.8280 C   0  0  0  0  0  0  0  0  0  0  0  0
  194.6780  176.8610  144.9960 C   0  0  0  0  0  0  0  0  0  0  0  0
  186.1590  177.5730  147.3570 C   0  0  0  0  0  1  0  0  0  0  0  0
  188.1640  175.6600  146.9170 O   0  0  0  0  0  0  0  0  0  0  0  0
  187.7830  176.3240  145.9140 C   0  0  0  0  0  0  0  0  0  0  0  0
  186.7910  177.3490  146.0620 N   0  0  0  0  0  0  0  0  0  0  0  0
  188.3460  176.0570  144.6250 N   0  0  0  0  0  2  0  0  0  0  0  0
  185.7090  179.4200  145.3160 C   0  0  0  0  0  1  0  0  0  0  0  0
  186.3450  178.1040  144.8960 C   0  0  2  0  0  3  0  0  0  0  0  0
  185.4310  177.3260  144.1300 O   0  0  0  0  0  0  0  0  0  0  0  0
  185.2300  177.5370  142.7640 C   0  0  0  0  0  0  0  0  0  0  0  0
  184.1400  178.0020  142.3360 O   0  0  0  0  0  0  0  0  0  0  0  0
  186.3180  177.2080  141.8000 C   0  0  0  0  0  1  0  0  0  0  0  0
  191.6670  170.9990  140.5900 C   0  0  0  0  0  3  0  0  0  0  0  0
  190.9020  170.6770  139.6430 O   0  0  0  0  0  0  0  0  0  0  0  0
  1  2  2  0  0  0  0
  1 11  1  0  0  0  0
  2 17  1  0  0  0  0
  3  9  2  0  0  0  0
  4  1  1  0  0  0  0
  5 15  1  0  0  0  0
  5 12  2  0  0  0  0
  6  3  1  0  0  0  0
  6  2  1  0  0  0  0
  7 11  1  0  0  0  0
  7 23  1  6  0  0  0
  9 18  1  0  0  0  0
 10  7  1  0  0  0  0
 11 16  2  0  0  0  0
 12  4  1  0  0  0  0
 14  4  2  0  0  0  0
 14 10  1  0  0  0  0
 15 14  1  0  0  0  0
 16  8  1  0  0  0  0
 17 18  1  0  0  0  0
 17  8  2  0  0  0  0
 18 13  2  0  0  0  0
 21 22  1  0  0  0  0
 21 20  2  0  0  0  0
 22 19  1  0  0  0  0
 23 21  1  0  0  0  0
 25 24  1  1  0  0  0
 25 22  1  0  0  0  0
 26 25  1  0  0  0  0
 27 26  1  0  0  0  0
 28 27  2  0  0  0  0
 29 27  1  0  0  0  0
 30  5  1  0  0  0  0
 31 30  2  0  0  0  0
M  END
>  <MODEL>
5

>  <REMARK>
 VINA RESULT:      -6.6      2.503      8.089
  Name = 
  5 active torsions:
  status: ('A' for Active; 'I' for Inactive)
    1  A    between atoms: C_1  and  O_24
    2  A    between atoms: C_2  and  C_13
    3  A    between atoms: C_15  and  N_23
    4  A    between atoms: C_19  and  N_22
    5  A    between atoms: C_19  and  O_24
                            x       y       z     vdW  Elec       q    Type
                         _______ _______ _______ _____ _____    ______ ____

>  <TORSDO>
F 5

$$$$
=
 OpenBabel11052417583D

 31 34  0  0  1  0  0  0  0  0999 V2000
  188.2580  176.3890  144.4430 C   0  0  0  0  0  0  0  0  0  0  0  0
  187.1300  177.2330  144.4770 C   0  0  0  0  0  0  0  0  0  0  0  0
  185.8590  178.9510  145.4980 C   0  0  0  0  0  3  0  0  0  0  0  0
  189.3300  176.4330  145.4550 C   0  0  0  0  0  0  0  0  0  0  0  0
  190.6600  176.7730  147.1420 C   0  0  0  0  0  0  0  0  0  0  0  0
  186.9530  178.1450  145.4710 N   0  0  0  0  0  0  0  0  0  0  0  0
  189.5550  174.4600  143.3670 C   0  0  1  0  0  3  0  0  0  0  0  0
  186.3210  176.2170  142.4570 N   0  0  0  0  0  0  0  0  0  0  0  0
  184.9200  178.8600  144.5210 N   0  0  0  0  0  2  0  0  0  0  0  0
  190.8340  174.9590  144.0740 C   0  0  0  0  0  2  0  0  0  0  0  0
  188.4070  175.4670  143.3770 C   0  0  0  0  0  0  0  0  0  0  0  0
  189.3990  177.1110  146.6600 C   0  0  0  0  0  3  0  0  0  0  0  0
  184.1640  177.9150  142.6040 O   0  0  0  0  0  0  0  0  0  0  0  0
  190.5060  175.7530  145.2950 C   0  0  0  0  0  0  0  0  0  0  0  0
  191.2970  175.9740  146.3120 O   0  0  0  0  0  0  0  0  0  0  0  0
  187.4010  175.3920  142.4050 C   0  0  0  0  0  3  0  0  0  0  0  0
  186.1660  177.1280  143.4540 C   0  0  0  0  0  0  0  0  0  0  0  0
  185.0490  177.9710  143.5010 C   0  0  0  0  0  0  0  0  0  0  0  0
  190.4410  170.9810  139.8260 C   0  0  0  0  0  1  0  0  0  0  0  0
  189.6240  171.7770  142.3900 O   0  0  0  0  0  0  0  0  0  0  0  0
  189.9290  172.6960  141.5810 C   0  0  0  0  0  0  0  0  0  0  0  0
  190.3180  172.3750  140.2380 N   0  0  0  0  0  0  0  0  0  0  0  0
  189.8820  174.0630  142.0030 N   0  0  0  0  0  2  0  0  0  0  0  0
  189.7600  173.4430  138.1020 C   0  0  0  0  0  1  0  0  0  0  0  0
  190.6820  173.4420  139.3120 C   0  0  2  0  0  3  0  0  0  0  0  0
  192.0400  173.2970  138.9090 O   0  0  0  0  0  0  0  0  0  0  0  0
  193.0450  174.1650  139.3400 C   0  0  0  0  0  0  0  0  0  0  0  0
  193.7070  174.8490  138.5130 O   0  0  0  0  0  0  0  0  0  0  0  0
  193.3400  174.2850  140.7960 C   0  0  0  0  0  1  0  0  0  0  0  0
  191.2330  177.2360  148.4060 C   0  0  0  0  0  3  0  0  0  0  0  0
  190.8150  178.2900  148.9540 O   0  0  0  0  0  0  0  0  0  0  0  0
  1  2  1  0  0  0  0
  1  4  1  0  0  0  0
  2  6  1  0  0  0  0
  4 12  1  0  0  0  0
  5 30  1  0  0  0  0
  6  3  2  0  0  0  0
  7 23  1  6  0  0  0
  7 11  1  0  0  0  0
  7 10  1  0  0  0  0
  8 17  1  0  0  0  0
  9  3  1  0  0  0  0
 10 14  1  0  0  0  0
 11  1  2  0  0  0  0
 12  5  2  0  0  0  0
 13 18  2  0  0  0  0
 14  4  2  0  0  0  0
 14 15  1  0  0  0  0
 15  5  1  0  0  0  0
 16  8  2  0  0  0  0
 16 11  1  0  0  0  0
 17 18  1  0  0  0  0
 17  2  2  0  0  0  0
 18  9  1  0  0  0  0
 19 22  1  0  0  0  0
 21 23  1  0  0  0  0
 21 20  2  0  0  0  0
 22 21  1  0  0  0  0
 25 24  1  6  0  0  0
 25 22  1  0  0  0  0
 26 25  1  0  0  0  0
 26 27  1  0  0  0  0
 27 29  1  0  0  0  0
 28 27  2  0  0  0  0
 30 31  2  0  0  0  0
M  END
>  <MODEL>
6

>  <REMARK>
 VINA RESULT:      -6.5      3.027      4.155
  Name = 
  5 active torsions:
  status: ('A' for Active; 'I' for Inactive)
    1  A    between atoms: C_1  and  O_24
    2  A    between atoms: C_2  and  C_13
    3  A    between atoms: C_15  and  N_23
    4  A    between atoms: C_19  and  N_22
    5  A    between atoms: C_19  and  O_24
                            x       y       z     vdW  Elec       q    Type
                         _______ _______ _______ _____ _____    ______ ____

>  <TORSDO>
F 5

$$$$
=
 OpenBabel11052417583D

 31 34  0  0  1  0  0  0  0  0999 V2000
  189.2410  176.4560  144.8380 C   0  0  0  0  0  0  0  0  0  0  0  0
  190.1630  176.5950  145.8950 C   0  0  0  0  0  0  0  0  0  0  0  0
  190.6790  177.1900  148.1290 C   0  0  0  0  0  3  0  0  0  0  0  0
  187.8080  176.7780  144.9710 C   0  0  0  0  0  0  0  0  0  0  0  0
  185.8020  177.3900  145.5460 C   0  0  0  0  0  0  0  0  0  0  0  0
  189.7810  177.0550  147.1180 N   0  0  0  0  0  2  0  0  0  0  0  0
  188.7400  175.9000  142.3890 C   0  0  1  0  0  3  0  0  0  0  0  0
  191.9140  175.7930  144.4600 N   0  0  0  0  0  0  0  0  0  0  0  0
  191.9820  176.8610  147.9330 N   0  0  0  0  0  0  0  0  0  0  0  0
  187.2570  175.6900  142.7660 C   0  0  0  0  0  2  0  0  0  0  0  0
  189.6830  175.9560  143.5880 C   0  0  0  0  0  0  0  0  0  0  0  0
  187.1190  177.4010  145.9960 C   0  0  0  0  0  3  0  0  0  0  0  0
  193.6320  176.0860  146.5860 O   0  0  0  0  0  0  0  0  0  0  0  0
  186.8980  176.4460  144.0030 C   0  0  0  0  0  0  0  0  0  0  0  0
  185.6990  176.8130  144.3670 O   0  0  0  0  0  0  0  0  0  0  0  0
  191.0420  175.6520  143.4270 C   0  0  0  0  0  3  0  0  0  0  0  0
  191.5110  176.2460  145.6770 C   0  0  0  0  0  0  0  0  0  0  0  0
  192.4180  176.3910  146.7350 C   0  0  0  0  0  0  0  0  0  0  0  0
  188.3170  173.3890  138.0370 C   0  0  0  0  0  1  0  0  0  0  0  0
  187.6810  175.5050  139.7660 O   0  0  0  0  0  0  0  0  0  0  0  0
  188.5600  174.6920  140.1640 C   0  0  0  0  0  0  0  0  0  0  0  0
  188.9710  173.6060  139.3220 N   0  0  0  0  0  0  0  0  0  0  0  0
  189.1520  174.8560  141.4570 N   0  0  0  0  0  2  0  0  0  0  0  0
  190.5080  171.8190  138.6430 C   0  0  0  0  0  1  0  0  0  0  0  0
  189.9790  172.6610  139.7940 C   0  0  2  0  0  3  0  0  0  0  0  0
  189.4320  171.8320  140.8140 O   0  0  0  0  0  0  0  0  0  0  0  0
  190.1160  171.5540  141.9990 C   0  0  0  0  0  0  0  0  0  0  0  0
  191.2530  171.0100  141.9770 O   0  0  0  0  0  0  0  0  0  0  0  0
  189.4950  171.9060  143.3080 C   0  0  0  0  0  1  0  0  0  0  0  0
  184.6570  177.9400  146.2720 C   0  0  0  0  0  3  0  0  0  0  0  0
  183.9970  178.9030  145.7990 O   0  0  0  0  0  0  0  0  0  0  0  0
  1  4  1  0  0  0  0
  1  2  1  0  0  0  0
  2  6  1  0  0  0  0
  4 12  1  0  0  0  0
  5 12  2  0  0  0  0
  5 30  1  0  0  0  0
  6  3  1  0  0  0  0
  7 23  1  6  0  0  0
  7 10  1  0  0  0  0
  7 11  1  0  0  0  0
  8 17  1  0  0  0  0
  9  3  2  0  0  0  0
 10 14  1  0  0  0  0
 11  1  2  0  0  0  0
 13 18  2  0  0  0  0
 14 15  1  0  0  0  0
 14  4  2  0  0  0  0
 15  5  1  0  0  0  0
 16 11  1  0  0  0  0
 16  8  2  0  0  0  0
 17  2  2  0  0  0  0
 17 18  1  0  0  0  0
 18  9  1  0  0  0  0
 19 22  1  0  0  0  0
 20 21  2  0  0  0  0
 21 23  1  0  0  0  0
 22 25  1  0  0  0  0
 22 21  1  0  0  0  0
 25 24  1  6  0  0  0
 25 26  1  0  0  0  0
 26 27  1  0  0  0  0
 27 29  1  0  0  0  0
 28 27  2  0  0  0  0
 31 30  2  0  0  0  0
M  END
>  <MODEL>
7

>  <REMARK>
 VINA RESULT:      -6.5      2.611      5.632
  Name = 
  5 active torsions:
  status: ('A' for Active; 'I' for Inactive)
    1  A    between atoms: C_1  and  O_24
    2  A    between atoms: C_2  and  C_13
    3  A    between atoms: C_15  and  N_23
    4  A    between atoms: C_19  and  N_22
    5  A    between atoms: C_19  and  O_24
                            x       y       z     vdW  Elec       q    Type
                         _______ _______ _______ _____ _____    ______ ____

>  <TORSDO>
F 5

$$$$
=
 OpenBabel11052417583D

 31 34  0  0  1  0  0  0  0  0999 V2000
  187.5590  176.6020  143.4360 C   0  0  0  0  0  0  0  0  0  0  0  0
  186.8360  177.1050  142.3360 C   0  0  0  0  0  0  0  0  0  0  0  0
  185.1410  178.4880  141.4290 C   0  0  0  0  0  3  0  0  0  0  0  0
  187.3050  177.0210  144.8280 C   0  0  0  0  0  0  0  0  0  0  0  0
  186.6100  177.8510  146.7140 C   0  0  0  0  0  0  0  0  0  0  0  0
  185.8360  178.0130  142.4960 N   0  0  0  0  0  0  0  0  0  0  0  0
  189.3310  175.0190  144.3920 C   0  0  1  0  0  3  0  0  0  0  0  0
  188.1550  175.7420  140.8610 N   0  0  0  0  0  0  0  0  0  0  0  0
  185.4430  178.0630  140.1740 N   0  0  0  0  0  2  0  0  0  0  0  0
  189.4070  175.9060  145.6540 C   0  0  0  0  0  2  0  0  0  0  0  0
  188.6040  175.6710  143.2180 C   0  0  0  0  0  0  0  0  0  0  0  0
  186.2860  177.7900  145.3620 C   0  0  0  0  0  3  0  0  0  0  0  0
  186.6980  176.7920  138.7790 O   0  0  0  0  0  0  0  0  0  0  0  0
  188.1450  176.6780  145.8530 C   0  0  0  0  0  0  0  0  0  0  0  0
  187.7180  177.1910  146.9760 O   0  0  0  0  0  0  0  0  0  0  0  0
  188.8630  175.2430  141.9090 C   0  0  0  0  0  3  0  0  0  0  0  0
  187.1630  176.6560  141.0400 C   0  0  0  0  0  0  0  0  0  0  0  0
  186.4360  177.1620  139.9560 C   0  0  0  0  0  0  0  0  0  0  0  0
  194.1200  176.0410  143.1890 C   0  0  0  0  0  1  0  0  0  0  0  0
  191.5750  176.7660  144.1210 O   0  0  0  0  0  0  0  0  0  0  0  0
  191.7560  175.5450  143.8570 C   0  0  0  0  0  0  0  0  0  0  0  0
  193.0410  175.0870  143.4140 N   0  0  0  0  0  0  0  0  0  0  0  0
  190.6780  174.6150  144.0050 N   0  0  0  0  0  2  0  0  0  0  0  0
  194.5630  173.1790  143.6630 C   0  0  0  0  0  1  0  0  0  0  0  0
  193.2400  173.6760  143.0990 C   0  0  2  0  0  3  0  0  0  0  0  0
  193.1880  173.4780  141.6900 O   0  0  0  0  0  0  0  0  0  0  0  0
  192.0080  173.1370  141.0250 C   0  0  0  0  0  0  0  0  0  0  0  0
  191.6230  173.7880  140.0170 O   0  0  0  0  0  0  0  0  0  0  0  0
  191.1940  171.9880  141.5130 C   0  0  0  0  0  1  0  0  0  0  0  0
  185.8370  178.5560  147.7360 C   0  0  0  0  0  3  0  0  0  0  0  0
  184.5850  178.6650  147.6360 O   0  0  0  0  0  0  0  0  0  0  0  0
  1  4  1  0  0  0  0
  2  6  1  0  0  0  0
  2  1  2  0  0  0  0
  3  6  2  0  0  0  0
  4 12  1  0  0  0  0
  4 14  2  0  0  0  0
  5 15  1  0  0  0  0
  5 30  1  0  0  0  0
  7 23  1  6  0  0  0
  7 10  1  0  0  0  0
  8 17  2  0  0  0  0
  8 16  1  0  0  0  0
  9  3  1  0  0  0  0
 10 14  1  0  0  0  0
 11  1  1  0  0  0  0
 11  7  1  0  0  0  0
 12  5  2  0  0  0  0
 13 18  2  0  0  0  0
 14 15  1  0  0  0  0
 16 11  2  0  0  0  0
 17  2  1  0  0  0  0
 18  9  1  0  0  0  0
 18 17  1  0  0  0  0
 19 22  1  0  0  0  0
 21 23  1  0  0  0  0
 21 20  2  0  0  0  0
 22 21  1  0  0  0  0
 25 22  1  0  0  0  0
 25 24  1  6  0  0  0
 26 25  1  0  0  0  0
 27 29  1  0  0  0  0
 27 26  1  0  0  0  0
 28 27  2  0  0  0  0
 31 30  2  0  0  0  0
M  END
>  <MODEL>
8

>  <REMARK>
 VINA RESULT:      -6.5      1.525      2.396
  Name = 
  5 active torsions:
  status: ('A' for Active; 'I' for Inactive)
    1  A    between atoms: C_1  and  O_24
    2  A    between atoms: C_2  and  C_13
    3  A    between atoms: C_15  and  N_23
    4  A    between atoms: C_19  and  N_22
    5  A    between atoms: C_19  and  O_24
                            x       y       z     vdW  Elec       q    Type
                         _______ _______ _______ _____ _____    ______ ____

>  <TORSDO>
F 5

$$$$
=
 OpenBabel11052417583D

 31 34  0  0  1  0  0  0  0  0999 V2000
  188.0810  176.4160  144.5740 C   0  0  0  0  0  0  0  0  0  0  0  0
  187.0200  177.3130  144.8110 C   0  0  0  0  0  0  0  0  0  0  0  0
  185.9930  179.0120  146.1030 C   0  0  0  0  0  3  0  0  0  0  0  0
  189.2690  176.3250  145.4430 C   0  0  0  0  0  0  0  0  0  0  0  0
  190.8150  176.4620  146.9670 C   0  0  0  0  0  0  0  0  0  0  0  0
  187.0240  178.1540  145.8810 N   0  0  0  0  0  0  0  0  0  0  0  0
  189.1140  174.5100  143.2100 C   0  0  1  0  0  3  0  0  0  0  0  0
  185.9080  176.5000  142.8430 N   0  0  0  0  0  0  0  0  0  0  0  0
  184.9370  179.0460  145.2490 N   0  0  0  0  0  2  0  0  0  0  0  0
  190.4990  174.8850  143.7820 C   0  0  0  0  0  2  0  0  0  0  0  0
  188.0410  175.5730  143.4370 C   0  0  0  0  0  0  0  0  0  0  0  0
  189.5280  176.9030  146.6740 C   0  0  0  0  0  3  0  0  0  0  0  0
  183.8950  178.2940  143.3820 O   0  0  0  0  0  0  0  0  0  0  0  0
  190.3730  175.5980  145.0880 C   0  0  0  0  0  0  0  0  0  0  0  0
  191.2950  175.6980  146.0090 O   0  0  0  0  0  0  0  0  0  0  0  0
  186.9200  175.6260  142.5970 C   0  0  0  0  0  3  0  0  0  0  0  0
  185.9330  177.3390  143.9140 C   0  0  0  0  0  0  0  0  0  0  0  0
  184.8850  178.2330  144.1610 C   0  0  0  0  0  0  0  0  0  0  0  0
  190.0610  171.3440  139.4020 C   0  0  0  0  0  1  0  0  0  0  0  0
  189.6070  171.9210  142.1110 O   0  0  0  0  0  0  0  0  0  0  0  0
  189.5240  172.8870  141.3030 C   0  0  0  0  0  0  0  0  0  0  0  0
  189.7020  172.6680  139.8970 N   0  0  0  0  0  0  0  0  0  0  0  0
  189.2460  174.2030  141.7910 N   0  0  0  0  0  2  0  0  0  0  0  0
  188.2100  173.9190  138.4050 C   0  0  0  0  0  1  0  0  0  0  0  0
  189.6170  173.7920  138.9690 C   0  0  2  0  0  3  0  0  0  0  0  0
  190.5670  173.6330  137.9210 O   0  0  0  0  0  0  0  0  0  0  0  0
  190.2130  173.7100  136.5720 C   0  0  0  0  0  0  0  0  0  0  0  0
  190.2560  174.8080  135.9550 O   0  0  0  0  0  0  0  0  0  0  0  0
  189.7790  172.4790  135.8530 C   0  0  0  0  0  1  0  0  0  0  0  0
  191.5660  176.7950  148.1780 C   0  0  0  0  0  3  0  0  0  0  0  0
  191.1790  177.7190  148.9420 O   0  0  0  0  0  0  0  0  0  0  0  0
  1  2  1  0  0  0  0
  1  4  1  0  0  0  0
  2  6  1  0  0  0  0
  4 12  1  0  0  0  0
  5 30  1  0  0  0  0
  6  3  2  0  0  0  0
  7 23  1  6  0  0  0
  7 11  1  0  0  0  0
  7 10  1  0  0  0  0
  8 17  1  0  0  0  0
  9  3  1  0  0  0  0
 10 14  1  0  0  0  0
 11  1  2  0  0  0  0
 12  5  2  0  0  0  0
 13 18  2  0  0  0  0
 14  4  2  0  0  0  0
 14 15  1  0  0  0  0
 15  5  1  0  0  0  0
 16  8  2  0  0  0  0
 16 11  1  0  0  0  0
 17 18  1  0  0  0  0
 17  2  2  0  0  0  0
 18  9  1  0  0  0  0
 19 22  1  0  0  0  0
 21 23  1  0  0  0  0
 21 20  2  0  0  0  0
 22 21  1  0  0  0  0
 25 24  1  6  0  0  0
 25 22  1  0  0  0  0
 26 25  1  0  0  0  0
 27 26  1  0  0  0  0
 28 27  2  0  0  0  0
 29 27  1  0  0  0  0
 30 31  2  0  0  0  0
M  END
>  <MODEL>
9

>  <REMARK>
 VINA RESULT:      -6.4      3.194      5.265
  Name = 
  5 active torsions:
  status: ('A' for Active; 'I' for Inactive)
    1  A    between atoms: C_1  and  O_24
    2  A    between atoms: C_2  and  C_13
    3  A    between atoms: C_15  and  N_23
    4  A    between atoms: C_19  and  N_22
    5  A    between atoms: C_19  and  O_24
                            x       y       z     vdW  Elec       q    Type
                         _______ _______ _______ _____ _____    ______ ____

>  <TORSDO>
F 5

$$$$
