=
 OpenBabel11052420393D

 34 39  0  0  1  0  0  0  0  0999 V2000
  188.2480  175.1270  144.6580 C   0  0  1  0  0  3  0  0  0  0  0  0
  189.1850  175.0370  142.3610 C   0  0  0  0  0  0  0  0  0  0  0  0
  190.7520  171.7100  142.1630 C   0  0  0  0  0  0  0  0  0  0  0  0
  191.4960  175.9230  146.3760 C   0  0  2  0  0  3  0  0  0  0  0  0
  187.8400  176.9940  142.8800 C   0  0  1  0  0  3  0  0  0  0  0  0
  190.6320  177.6930  144.6310 C   0  0  0  0  0  2  0  0  0  0  0  0
  193.3590  174.8200  143.2500 C   0  0  1  0  0  3  0  0  0  0  0  0
  188.3390  176.7680  146.4880 C   0  0  2  0  0  3  0  0  0  0  0  0
  188.5830  175.3050  146.1310 C   0  0  0  0  0  2  0  0  0  0  0  0
  187.7140  177.4410  145.2810 C   0  0  2  0  0  3  0  0  0  0  0  0
  193.2000  176.1640  142.5620 C   0  0  0  0  0  0  0  0  0  0  0  0
  185.5650  178.5750  144.4250 C   0  0  0  0  0  2  0  0  0  0  0  0
  190.7920  171.2770  140.7380 C   0  0  0  0  0  1  0  0  0  0  0  0
  192.4430  174.6660  144.4430 C   0  0  2  0  0  3  0  0  0  0  0  0
  194.1480  176.6310  141.9510 O   0  0  0  0  0  0  0  0  0  0  0  0
  192.5430  175.6270  145.3660 C   0  0  0  0  0  2  0  0  0  0  0  0
  186.4550  178.2360  145.6330 C   0  0  0  0  0  2  0  0  0  0  0  0
  189.6100  177.5070  146.9570 C   0  0  0  0  0  2  0  0  0  0  0  0
  186.6900  177.8110  142.2990 C   0  0  0  0  0  2  0  0  0  0  0  0
  187.4550  176.3790  144.2380 C   0  0  2  0  0  3  0  0  0  0  0  0
  193.2940  173.6800  142.2510 C   0  0  0  0  0  1  0  0  0  0  0  0
  186.3480  179.0120  143.1850 C   0  0  0  0  0  2  0  0  0  0  0  0
  189.7190  173.9320  141.5390 C   0  0  0  0  0  2  0  0  0  0  0  0
  191.1310  170.9050  143.0540 O   0  0  0  0  0  0  0  0  0  0  0  0
  190.2960  173.0290  142.5200 N   0  0  0  0  0  0  0  0  0  0  0  0
  191.9120  176.9470  142.6190 C   0  0  0  0  0  2  0  0  0  0  0  0
  190.1450  173.4940  143.9030 C   0  0  2  0  0  0  0  0  0  0  0  0
  191.8960  177.9180  143.8000 C   0  0  0  0  0  2  0  0  0  0  0  0
  191.4970  173.4950  144.6430 C   0  0  0  0  0  2  0  0  0  0  0  0
  190.8850  177.3180  146.1110 C   0  0  1  0  0  3  0  0  0  0  0  0
  192.0590  175.8880  147.6520 O   0  0  0  0  0  1  0  0  0  0  0  0
  188.3520  175.9750  141.9060 C   0  0  0  0  0  3  0  0  0  0  0  0
  189.2860  172.6180  144.5770 O   0  0  0  0  0  1  0  0  0  0  0  0
  189.5190  174.9020  143.8090 C   0  0  2  0  0  3  0  0  0  0  0  0
  1  9  1  1  0  0  0
  2 34  1  0  0  0  0
  3 25  1  0  0  0  0
  3 24  2  0  0  0  0
  4 31  1  1  0  0  0
  5 32  1  6  0  0  0
  5 20  1  0  0  0  0
  6 30  1  0  0  0  0
  7 21  1  6  0  0  0
  7 14  1  0  0  0  0
  8  9  1  6  0  0  0
  8 18  1  0  0  0  0
 10 17  1  1  0  0  0
 10  8  1  0  0  0  0
 11 26  1  0  0  0  0
 11  7  1  0  0  0  0
 12 17  1  0  0  0  0
 13  3  1  0  0  0  0
 14 29  1  1  0  0  0
 14 16  1  0  0  0  0
 15 11  2  0  0  0  0
 16  4  1  0  0  0  0
 19  5  1  0  0  0  0
 19 22  1  0  0  0  0
 20  1  1  0  0  0  0
 20 10  1  0  0  0  0
 22 12  1  0  0  0  0
 23  2  1  0  0  0  0
 23 25  1  0  0  0  0
 25 27  1  0  0  0  0
 26 28  1  0  0  0  0
 27 33  1  0  0  0  0
 27 29  1  0  0  0  0
 28  6  1  0  0  0  0
 30  4  1  0  0  0  0
 30 18  1  0  0  0  0
 32  2  2  0  0  0  0
 34 27  1  0  0  0  0
 34  1  1  0  0  0  0
M  END
>  <MODEL>
1

>  <REMARK>
 VINA RESULT:      -8.7      0.000      0.000
  Name = 
  0 active torsions:
  status: ('A' for Active; 'I' for Inactive)
                            x       y       z     vdW  Elec       q    Type
                         _______ _______ _______ _____ _____    ______ ____

>  <TORSDO>
F 0

$$$$
=
 OpenBabel11052420393D

 34 39  0  0  1  0  0  0  0  0999 V2000
  189.9470  177.0630  143.6740 C   0  0  1  0  0  3  0  0  0  0  0  0
  191.4210  175.8120  145.2310 C   0  0  0  0  0  0  0  0  0  0  0  0
  194.7570  176.0490  143.6910 C   0  0  0  0  0  0  0  0  0  0  0  0
  189.6080  174.2980  141.1490 C   0  0  2  0  0  3  0  0  0  0  0  0
  189.1230  176.1200  145.9640 C   0  0  1  0  0  3  0  0  0  0  0  0
  188.6910  173.7950  143.5640 C   0  0  0  0  0  2  0  0  0  0  0  0
  192.6130  172.5710  142.7140 C   0  0  1  0  0  3  0  0  0  0  0  0
  187.7850  176.5900  142.6020 C   0  0  2  0  0  3  0  0  0  0  0  0
  189.2250  177.0130  142.3350 C   0  0  0  0  0  2  0  0  0  0  0  0
  187.5890  176.5320  144.1050 C   0  0  2  0  0  3  0  0  0  0  0  0
  191.7880  171.9060  143.8030 C   0  0  0  0  0  0  0  0  0  0  0  0
  186.3310  177.6210  146.0720 C   0  0  0  0  0  2  0  0  0  0  0  0
  195.7930  175.9140  144.7540 C   0  0  0  0  0  1  0  0  0  0  0  0
  191.8630  173.6810  142.0130 C   0  0  2  0  0  3  0  0  0  0  0  0
  192.0200  170.7440  144.0940 O   0  0  0  0  0  0  0  0  0  0  0  0
  190.6820  173.3330  141.4940 C   0  0  0  0  0  2  0  0  0  0  0  0
  186.3450  177.2920  144.5690 C   0  0  0  0  0  2  0  0  0  0  0  0
  187.3990  175.2570  141.9260 C   0  0  0  0  0  2  0  0  0  0  0  0
  188.3370  176.5740  147.1900 C   0  0  0  0  0  2  0  0  0  0  0  0
  188.8540  177.0380  144.7580 C   0  0  2  0  0  3  0  0  0  0  0  0
  193.9870  172.9600  143.2260 C   0  0  0  0  0  1  0  0  0  0  0  0
  186.8270  176.4760  146.9580 C   0  0  0  0  0  2  0  0  0  0  0  0
  192.8890  175.7150  145.3610 C   0  0  0  0  0  2  0  0  0  0  0  0
  195.1240  176.3110  142.5150 O   0  0  0  0  0  0  0  0  0  0  0  0
  193.3610  175.8750  143.9970 N   0  0  0  0  0  0  0  0  0  0  0  0
  190.6820  172.6330  144.5270 C   0  0  0  0  0  2  0  0  0  0  0  0
  192.2810  176.0800  143.0250 C   0  0  2  0  0  0  0  0  0  0  0  0
  189.3320  172.4330  143.8380 C   0  0  0  0  0  2  0  0  0  0  0  0
  192.3970  175.0930  141.8460 C   0  0  0  0  0  2  0  0  0  0  0  0
  188.3880  174.0830  142.0740 C   0  0  1  0  0  3  0  0  0  0  0  0
  189.2300  174.1140  139.8190 O   0  0  0  0  0  1  0  0  0  0  0  0
  190.5850  175.9660  146.2610 C   0  0  0  0  0  3  0  0  0  0  0  0
  192.3820  177.3780  142.5110 O   0  0  0  0  0  1  0  0  0  0  0  0
  190.9650  175.9100  143.8140 C   0  0  2  0  0  3  0  0  0  0  0  0
  1  9  1  6  0  0  0
  1 34  1  0  0  0  0
  1 20  1  0  0  0  0
  2 23  1  0  0  0  0
  2 32  2  0  0  0  0
  3 25  1  0  0  0  0
  3 13  1  0  0  0  0
  4 31  1  6  0  0  0
  4 16  1  0  0  0  0
  4 30  1  0  0  0  0
  5 32  1  1  0  0  0
  5 19  1  0  0  0  0
  6 28  1  0  0  0  0
  7 21  1  1  0  0  0
  7 11  1  0  0  0  0
  8 18  1  6  0  0  0
  8 10  1  0  0  0  0
  9  8  1  0  0  0  0
 10 17  1  6  0  0  0
 10 20  1  0  0  0  0
 11 15  2  0  0  0  0
 11 26  1  0  0  0  0
 12 22  1  0  0  0  0
 14 16  1  6  0  0  0
 14  7  1  0  0  0  0
 17 12  1  0  0  0  0
 18 30  1  0  0  0  0
 20  5  1  0  0  0  0
 22 19  1  0  0  0  0
 24  3  2  0  0  0  0
 25 23  1  0  0  0  0
 27 34  1  0  0  0  0
 27 25  1  0  0  0  0
 28 26  1  0  0  0  0
 29 14  1  0  0  0  0
 29 27  1  0  0  0  0
 30  6  1  0  0  0  0
 33 27  1  0  0  0  0
 34  2  1  0  0  0  0
M  END
>  <MODEL>
2

>  <REMARK>
 VINA RESULT:      -8.4      1.846      4.744
  Name = 
  0 active torsions:
  status: ('A' for Active; 'I' for Inactive)
                            x       y       z     vdW  Elec       q    Type
                         _______ _______ _______ _____ _____    ______ ____

>  <TORSDO>
F 0

$$$$
=
 OpenBabel11052420393D

 34 39  0  0  1  0  0  0  0  0999 V2000
  188.8500  174.6180  144.3050 C   0  0  1  0  0  3  0  0  0  0  0  0
  190.1290  174.1910  142.2210 C   0  0  0  0  0  0  0  0  0  0  0  0
  191.9880  171.0930  142.9290 C   0  0  0  0  0  0  0  0  0  0  0  0
  191.7190  176.1010  146.2300 C   0  0  2  0  0  3  0  0  0  0  0  0
  188.5570  176.0440  142.1390 C   0  0  1  0  0  3  0  0  0  0  0  0
  190.9810  177.3870  144.0550 C   0  0  0  0  0  2  0  0  0  0  0  0
  194.1230  174.6340  143.6750 C   0  0  1  0  0  3  0  0  0  0  0  0
  188.5210  176.5830  145.7480 C   0  0  2  0  0  3  0  0  0  0  0  0
  188.9420  175.1170  145.7400 C   0  0  0  0  0  2  0  0  0  0  0  0
  188.0310  176.9320  144.3560 C   0  0  2  0  0  3  0  0  0  0  0  0
  193.9550  175.7910  142.7060 C   0  0  0  0  0  0  0  0  0  0  0  0
  185.9470  177.6230  143.0090 C   0  0  0  0  0  2  0  0  0  0  0  0
  192.2810  170.3990  141.6440 C   0  0  0  0  0  1  0  0  0  0  0  0
  193.0540  174.6100  144.7430 C   0  0  2  0  0  3  0  0  0  0  0  0
  194.9400  176.2360  142.1400 O   0  0  0  0  0  0  0  0  0  0  0  0
  192.9290  175.7370  145.4500 C   0  0  0  0  0  2  0  0  0  0  0  0
  186.6700  177.6300  144.3670 C   0  0  0  0  0  2  0  0  0  0  0  0
  189.6380  177.5410  146.2150 C   0  0  0  0  0  2  0  0  0  0  0  0
  187.4420  176.5940  141.2550 C   0  0  0  0  0  2  0  0  0  0  0  0
  188.0260  175.6650  143.5330 C   0  0  2  0  0  3  0  0  0  0  0  0
  194.3080  173.3210  142.9360 C   0  0  0  0  0  1  0  0  0  0  0  0
  186.8680  177.8970  141.8180 C   0  0  0  0  0  2  0  0  0  0  0  0
  190.8740  173.0170  141.7250 C   0  0  0  0  0  2  0  0  0  0  0  0
  192.2950  170.5250  144.0100 O   0  0  0  0  0  0  0  0  0  0  0  0
  191.3720  172.3940  142.9400 N   0  0  0  0  0  0  0  0  0  0  0  0
  192.6100  176.4160  142.4290 C   0  0  0  0  0  2  0  0  0  0  0  0
  190.9730  173.0990  144.1640 C   0  0  2  0  0  0  0  0  0  0  0  0
  192.3320  177.5900  143.3680 C   0  0  0  0  0  2  0  0  0  0  0  0
  192.1920  173.3990  145.0570 C   0  0  0  0  0  2  0  0  0  0  0  0
  191.0380  177.3390  145.6010 C   0  0  1  0  0  3  0  0  0  0  0  0
  192.0830  176.3800  147.5460 O   0  0  0  0  0  1  0  0  0  0  0  0
  189.2960  174.9210  141.4750 C   0  0  0  0  0  3  0  0  0  0  0  0
  190.1000  172.2780  144.8870 O   0  0  0  0  0  1  0  0  0  0  0  0
  190.2490  174.3800  143.6960 C   0  0  2  0  0  3  0  0  0  0  0  0
  1  9  1  1  0  0  0
  2 34  1  0  0  0  0
  3 25  1  0  0  0  0
  3 24  2  0  0  0  0
  4 31  1  1  0  0  0
  5 19  1  6  0  0  0
  5 20  1  0  0  0  0
  6 30  1  0  0  0  0
  7 21  1  6  0  0  0
  7 14  1  0  0  0  0
  8  9  1  6  0  0  0
  8 18  1  0  0  0  0
 10 17  1  1  0  0  0
 10  8  1  0  0  0  0
 11  7  1  0  0  0  0
 12 17  1  0  0  0  0
 13  3  1  0  0  0  0
 14 29  1  1  0  0  0
 14 16  1  0  0  0  0
 15 11  2  0  0  0  0
 16  4  1  0  0  0  0
 19 22  1  0  0  0  0
 20  1  1  0  0  0  0
 20 10  1  0  0  0  0
 22 12  1  0  0  0  0
 23  2  1  0  0  0  0
 23 25  1  0  0  0  0
 25 27  1  0  0  0  0
 26 11  1  0  0  0  0
 26 28  1  0  0  0  0
 27 33  1  0  0  0  0
 27 29  1  0  0  0  0
 28  6  1  0  0  0  0
 30 18  1  0  0  0  0
 30  4  1  0  0  0  0
 32  5  1  0  0  0  0
 32  2  2  0  0  0  0
 34 27  1  0  0  0  0
 34  1  1  0  0  0  0
M  END
>  <MODEL>
3

>  <REMARK>
 VINA RESULT:      -8.2      1.000      1.153
  Name = 
  0 active torsions:
  status: ('A' for Active; 'I' for Inactive)
                            x       y       z     vdW  Elec       q    Type
                         _______ _______ _______ _____ _____    ______ ____

>  <TORSDO>
F 0

$$$$
=
 OpenBabel11052420393D

 34 39  0  0  1  0  0  0  0  0999 V2000
  191.6140  176.1100  143.9710 C   0  0  1  0  0  3  0  0  0  0  0  0
  193.0410  174.5590  145.2810 C   0  0  0  0  0  0  0  0  0  0  0  0
  196.3340  174.7770  143.6470 C   0  0  0  0  0  0  0  0  0  0  0  0
  190.9900  173.7500  141.1110 C   0  0  2  0  0  3  0  0  0  0  0  0
  190.7970  174.9190  146.1440 C   0  0  1  0  0  3  0  0  0  0  0  0
  190.1180  172.9830  143.4720 C   0  0  0  0  0  2  0  0  0  0  0  0
  193.9080  171.6220  142.3000 C   0  0  1  0  0  3  0  0  0  0  0  0
  189.3880  175.9390  142.9370 C   0  0  2  0  0  3  0  0  0  0  0  0
  190.8470  176.2950  142.6690 C   0  0  0  0  0  2  0  0  0  0  0  0
  189.2380  175.6880  144.4250 C   0  0  2  0  0  3  0  0  0  0  0  0
  193.0730  170.8720  143.3220 C   0  0  0  0  0  0  0  0  0  0  0  0
  188.1270  176.5780  146.5720 C   0  0  0  0  0  2  0  0  0  0  0  0
  197.3910  174.4260  144.6380 C   0  0  0  0  0  1  0  0  0  0  0  0
  193.2210  172.8680  141.7880 C   0  0  2  0  0  3  0  0  0  0  0  0
  193.2280  169.6680  143.4430 O   0  0  0  0  0  0  0  0  0  0  0  0
  192.0010  172.6760  141.2770 C   0  0  0  0  0  2  0  0  0  0  0  0
  188.0690  176.4600  145.0400 C   0  0  0  0  0  2  0  0  0  0  0  0
  188.8840  174.7420  142.1040 C   0  0  0  0  0  2  0  0  0  0  0  0
  190.0870  175.2520  147.4530 C   0  0  0  0  0  2  0  0  0  0  0  0
  190.5570  176.0110  145.0870 C   0  0  2  0  0  3  0  0  0  0  0  0
  195.3230  171.8420  142.8010 C   0  0  0  0  0  1  0  0  0  0  0  0
  188.5660  175.2910  147.2740 C   0  0  0  0  0  2  0  0  0  0  0  0
  194.5010  174.3450  145.3340 C   0  0  0  0  0  2  0  0  0  0  0  0
  196.6800  175.1730  142.5030 O   0  0  0  0  0  0  0  0  0  0  0  0
  194.9390  174.6590  143.9850 N   0  0  0  0  0  0  0  0  0  0  0  0
  192.0480  171.5650  144.1840 C   0  0  0  0  0  2  0  0  0  0  0  0
  193.8460  175.0690  143.0960 C   0  0  2  0  0  0  0  0  0  0  0  0
  190.6650  171.5560  143.5320 C   0  0  0  0  0  2  0  0  0  0  0  0
  193.8510  174.2490  141.7910 C   0  0  0  0  0  2  0  0  0  0  0  0
  189.7880  173.4940  142.0500 C   0  0  1  0  0  3  0  0  0  0  0  0
  190.5570  173.7780  139.7860 O   0  0  0  0  0  1  0  0  0  0  0  0
  192.2520  174.6260  146.3560 C   0  0  0  0  0  3  0  0  0  0  0  0
  194.0260  176.4160  142.7600 O   0  0  0  0  0  1  0  0  0  0  0  0
  192.5480  174.8820  143.9100 C   0  0  2  0  0  3  0  0  0  0  0  0
  1  9  1  6  0  0  0
  1 20  1  0  0  0  0
  2 23  1  0  0  0  0
  2 32  2  0  0  0  0
  3 25  1  0  0  0  0
  3 13  1  0  0  0  0
  4 31  1  6  0  0  0
  4 16  1  0  0  0  0
  4 30  1  0  0  0  0
  5 32  1  1  0  0  0
  5 19  1  0  0  0  0
  6 28  1  0  0  0  0
  7 21  1  1  0  0  0
  7 11  1  0  0  0  0
  8 18  1  6  0  0  0
  8 10  1  0  0  0  0
  9  8  1  0  0  0  0
 10 17  1  1  0  0  0
 10 20  1  0  0  0  0
 11 15  2  0  0  0  0
 11 26  1  0  0  0  0
 12 22  1  0  0  0  0
 14 16  1  6  0  0  0
 14 29  1  0  0  0  0
 14  7  1  0  0  0  0
 17 12  1  0  0  0  0
 20  5  1  0  0  0  0
 22 19  1  0  0  0  0
 24  3  2  0  0  0  0
 25 23  1  0  0  0  0
 27 34  1  0  0  0  0
 27 25  1  0  0  0  0
 28 26  1  0  0  0  0
 29 27  1  0  0  0  0
 30 18  1  0  0  0  0
 30  6  1  0  0  0  0
 33 27  1  0  0  0  0
 34  1  1  0  0  0  0
 34  2  1  0  0  0  0
M  END
>  <MODEL>
4

>  <REMARK>
 VINA RESULT:      -7.9      2.237      5.289
  Name = 
  0 active torsions:
  status: ('A' for Active; 'I' for Inactive)
                            x       y       z     vdW  Elec       q    Type
                         _______ _______ _______ _____ _____    ______ ____

>  <TORSDO>
F 0

$$$$
=
 OpenBabel11052420393D

 34 39  0  0  1  0  0  0  0  0999 V2000
  189.0570  174.3190  144.7610 C   0  0  1  0  0  3  0  0  0  0  0  0
  189.4960  174.8070  142.3670 C   0  0  0  0  0  0  0  0  0  0  0  0
  190.9780  171.6930  141.0760 C   0  0  0  0  0  0  0  0  0  0  0  0
  192.5930  174.8440  145.9250 C   0  0  2  0  0  3  0  0  0  0  0  0
  188.2940  176.5270  143.5970 C   0  0  1  0  0  3  0  0  0  0  0  0
  191.3910  176.9290  144.8600 C   0  0  0  0  0  2  0  0  0  0  0  0
  193.7640  174.5830  142.3160 C   0  0  1  0  0  3  0  0  0  0  0  0
  189.5310  175.4930  146.8700 C   0  0  2  0  0  3  0  0  0  0  0  0
  189.6910  174.1660  146.1360 C   0  0  0  0  0  2  0  0  0  0  0  0
  188.6710  176.3990  146.0090 C   0  0  2  0  0  3  0  0  0  0  0  0
  193.4690  176.0420  142.0120 C   0  0  0  0  0  0  0  0  0  0  0  0
  186.3950  177.5990  145.8990 C   0  0  0  0  0  2  0  0  0  0  0  0
  190.7200  171.6050  139.6110 C   0  0  0  0  0  1  0  0  0  0  0  0
  193.1150  174.1140  143.5990 C   0  0  2  0  0  3  0  0  0  0  0  0
  194.2700  176.6810  141.3500 O   0  0  0  0  0  0  0  0  0  0  0  0
  193.4070  174.8390  144.6830 C   0  0  0  0  0  2  0  0  0  0  0  0
  187.5160  177.0300  146.7860 C   0  0  0  0  0  2  0  0  0  0  0  0
  190.8740  176.1620  147.2330 C   0  0  0  0  0  2  0  0  0  0  0  0
  187.0510  177.4010  143.4700 C   0  0  0  0  0  2  0  0  0  0  0  0
  188.1980  175.5960  144.8190 C   0  0  2  0  0  3  0  0  0  0  0  0
  193.4890  173.7040  141.1110 C   0  0  0  0  0  1  0  0  0  0  0  0
  186.9040  178.3470  144.6650 C   0  0  0  0  0  2  0  0  0  0  0  0
  189.8440  173.9490  141.2170 C   0  0  0  0  0  2  0  0  0  0  0  0
  191.5310  170.7220  141.6560 O   0  0  0  0  0  0  0  0  0  0  0  0
  190.6100  172.8710  141.8190 N   0  0  0  0  0  0  0  0  0  0  0  0
  192.2230  176.7290  142.5120 C   0  0  0  0  0  2  0  0  0  0  0  0
  190.7500  172.9950  143.2740 C   0  0  2  0  0  0  0  0  0  0  0  0
  192.4560  177.3990  143.8670 C   0  0  0  0  0  2  0  0  0  0  0  0
  192.2270  172.8870  143.7030 C   0  0  0  0  0  2  0  0  0  0  0  0
  191.9450  176.2330  146.1260 C   0  0  1  0  0  3  0  0  0  0  0  0
  193.4090  174.5410  147.0150 O   0  0  0  0  0  1  0  0  0  0  0  0
  188.5890  175.7860  142.3260 C   0  0  0  0  0  3  0  0  0  0  0  0
  190.0480  171.9480  143.8820 O   0  0  0  0  0  1  0  0  0  0  0  0
  190.1230  174.3560  143.6440 C   0  0  2  0  0  3  0  0  0  0  0  0
  1 20  1  0  0  0  0
  1  9  1  1  0  0  0
  2 34  1  0  0  0  0
  3 24  2  0  0  0  0
  3 25  1  0  0  0  0
  4 30  1  0  0  0  0
  4 31  1  1  0  0  0
  5 32  1  6  0  0  0
  5 20  1  0  0  0  0
  6 30  1  0  0  0  0
  7 21  1  6  0  0  0
  7 14  1  0  0  0  0
  8  9  1  6  0  0  0
  8 18  1  0  0  0  0
 10 17  1  1  0  0  0
 10  8  1  0  0  0  0
 11  7  1  0  0  0  0
 11 26  1  0  0  0  0
 12 17  1  0  0  0  0
 13  3  1  0  0  0  0
 14 29  1  1  0  0  0
 14 16  1  0  0  0  0
 15 11  2  0  0  0  0
 16  4  1  0  0  0  0
 19  5  1  0  0  0  0
 19 22  1  0  0  0  0
 20 10  1  0  0  0  0
 22 12  1  0  0  0  0
 23 25  1  0  0  0  0
 23  2  1  0  0  0  0
 25 27  1  0  0  0  0
 26 28  1  0  0  0  0
 27 34  1  0  0  0  0
 27 29  1  0  0  0  0
 27 33  1  0  0  0  0
 28  6  1  0  0  0  0
 30 18  1  0  0  0  0
 32  2  2  0  0  0  0
 34  1  1  0  0  0  0
M  END
>  <MODEL>
5

>  <REMARK>
 VINA RESULT:      -7.9      1.061      1.285
  Name = 
  0 active torsions:
  status: ('A' for Active; 'I' for Inactive)
                            x       y       z     vdW  Elec       q    Type
                         _______ _______ _______ _____ _____    ______ ____

>  <TORSDO>
F 0

$$$$
=
 OpenBabel11052420393D

 34 39  0  0  1  0  0  0  0  0999 V2000
  194.8740  172.1330  142.8860 C   0  0  1  0  0  3  0  0  0  0  0  0
  192.7490  172.1130  144.1700 C   0  0  0  0  0  0  0  0  0  0  0  0
  190.2350  173.3060  141.7580 C   0  0  0  0  0  0  0  0  0  0  0  0
  195.4880  175.8280  143.2010 C   0  0  2  0  0  3  0  0  0  0  0  0
  194.6830  171.1750  145.3060 C   0  0  1  0  0  3  0  0  0  0  0  0
  195.4270  174.4580  145.4470 C   0  0  0  0  0  2  0  0  0  0  0  0
  191.8560  176.2920  144.2290 C   0  0  1  0  0  3  0  0  0  0  0  0
  197.1330  173.0050  143.3160 C   0  0  2  0  0  3  0  0  0  0  0  0
  195.9770  173.0160  142.3220 C   0  0  0  0  0  2  0  0  0  0  0  0
  196.7990  172.0020  144.4040 C   0  0  2  0  0  3  0  0  0  0  0  0
  192.1220  175.9520  145.6850 C   0  0  0  0  0  0  0  0  0  0  0  0
  197.5150  169.7530  145.4350 C   0  0  0  0  0  2  0  0  0  0  0  0
  188.8990  172.7740  142.1480 C   0  0  0  0  0  1  0  0  0  0  0  0
  192.9990  175.8960  143.3220 C   0  0  2  0  0  3  0  0  0  0  0  0
  191.5830  176.6170  146.5550 O   0  0  0  0  0  0  0  0  0  0  0  0
  194.1930  176.3920  143.6590 C   0  0  0  0  0  2  0  0  0  0  0  0
  197.9400  171.0180  144.6710 C   0  0  0  0  0  2  0  0  0  0  0  0
  197.4530  174.3960  143.9030 C   0  0  0  0  0  2  0  0  0  0  0  0
  195.0860  169.9350  146.0980 C   0  0  0  0  0  2  0  0  0  0  0  0
  195.5140  171.3080  144.0180 C   0  0  2  0  0  3  0  0  0  0  0  0
  190.4950  175.7880  143.7870 C   0  0  0  0  0  1  0  0  0  0  0  0
  196.5370  170.0230  146.5810 C   0  0  0  0  0  2  0  0  0  0  0  0
  191.3340  172.2320  143.7660 C   0  0  0  0  0  2  0  0  0  0  0  0
  190.3410  173.9530  140.6840 O   0  0  0  0  0  0  0  0  0  0  0  0
  191.3860  173.0920  142.5960 N   0  0  0  0  0  0  0  0  0  0  0  0
  193.0420  174.8280  146.0910 C   0  0  0  0  0  2  0  0  0  0  0  0
  192.7470  173.5070  142.2360 C   0  0  2  0  0  0  0  0  0  0  0  0
  194.4780  175.3170  146.2840 C   0  0  0  0  0  2  0  0  0  0  0  0
  192.8400  175.0370  142.0790 C   0  0  0  0  0  2  0  0  0  0  0  0
  196.2610  175.2380  144.4030 C   0  0  1  0  0  3  0  0  0  0  0  0
  196.2450  176.8340  142.6010 O   0  0  0  0  0  1  0  0  0  0  0  0
  193.2060  171.2200  145.0510 C   0  0  0  0  0  3  0  0  0  0  0  0
  193.0800  172.9260  141.0070 O   0  0  0  0  0  1  0  0  0  0  0  0
  193.6620  172.9680  143.3560 C   0  0  2  0  0  3  0  0  0  0  0  0
  1  9  1  1  0  0  0
  1 34  1  0  0  0  0
  1 20  1  0  0  0  0
  2 32  2  0  0  0  0
  3 13  1  0  0  0  0
  3 25  1  0  0  0  0
  4 31  1  1  0  0  0
  4 16  1  0  0  0  0
  4 30  1  0  0  0  0
  5 32  1  6  0  0  0
  5 19  1  0  0  0  0
  6 28  1  0  0  0  0
  7 21  1  6  0  0  0
  7 11  1  0  0  0  0
  8  9  1  6  0  0  0
  8 18  1  0  0  0  0
  8 10  1  0  0  0  0
 10 17  1  6  0  0  0
 11 26  1  0  0  0  0
 11 15  2  0  0  0  0
 12 22  1  0  0  0  0
 14 29  1  6  0  0  0
 14 16  1  0  0  0  0
 14  7  1  0  0  0  0
 17 12  1  0  0  0  0
 18 30  1  0  0  0  0
 19 22  1  0  0  0  0
 20 10  1  0  0  0  0
 20  5  1  0  0  0  0
 23  2  1  0  0  0  0
 24  3  2  0  0  0  0
 25 23  1  0  0  0  0
 26 28  1  0  0  0  0
 27 25  1  0  0  0  0
 27 34  1  0  0  0  0
 29 27  1  0  0  0  0
 30  6  1  0  0  0  0
 33 27  1  0  0  0  0
 34  2  1  0  0  0  0
M  END
>  <MODEL>
6

>  <REMARK>
 VINA RESULT:      -7.7      3.152      7.246
  Name = 
  0 active torsions:
  status: ('A' for Active; 'I' for Inactive)
                            x       y       z     vdW  Elec       q    Type
                         _______ _______ _______ _____ _____    ______ ____

>  <TORSDO>
F 0

$$$$
=
 OpenBabel11052420393D

 34 39  0  0  1  0  0  0  0  0999 V2000
  192.0740  176.2070  143.6480 C   0  0  1  0  0  3  0  0  0  0  0  0
  193.4250  174.1740  144.0970 C   0  0  0  0  0  0  0  0  0  0  0  0
  195.4870  173.7830  141.0720 C   0  0  0  0  0  0  0  0  0  0  0  0
  189.5400  174.5160  141.4450 C   0  0  2  0  0  3  0  0  0  0  0  0
  192.0520  174.9630  145.9420 C   0  0  1  0  0  3  0  0  0  0  0  0
  189.6810  173.6640  143.9310 C   0  0  0  0  0  2  0  0  0  0  0  0
  191.9150  171.5710  141.0630 C   0  0  1  0  0  3  0  0  0  0  0  0
  189.6820  176.7550  143.8230 C   0  0  2  0  0  3  0  0  0  0  0  0
  190.8820  176.7640  142.8820 C   0  0  0  0  0  2  0  0  0  0  0  0
  190.1730  176.3390  145.1970 C   0  0  2  0  0  3  0  0  0  0  0  0
  191.4720  170.9180  142.3610 C   0  0  0  0  0  0  0  0  0  0  0  0
  190.4980  177.1650  147.6150 C   0  0  0  0  0  2  0  0  0  0  0  0
  196.7290  173.0390  141.4240 C   0  0  0  0  0  1  0  0  0  0  0  0
  191.4640  173.0100  140.9520 C   0  0  2  0  0  3  0  0  0  0  0  0
  191.3080  169.7090  142.3880 O   0  0  0  0  0  0  0  0  0  0  0  0
  190.1510  173.2080  141.0960 C   0  0  0  0  0  2  0  0  0  0  0  0
  189.7040  177.2860  146.3030 C   0  0  0  0  0  2  0  0  0  0  0  0
  188.5250  175.8550  143.3370 C   0  0  0  0  0  2  0  0  0  0  0  0
  192.1610  175.2750  147.4310 C   0  0  0  0  0  2  0  0  0  0  0  0
  191.6780  176.2200  145.1360 C   0  0  2  0  0  3  0  0  0  0  0  0
  193.3960  171.3510  140.8160 C   0  0  0  0  0  1  0  0  0  0  0  0
  190.8170  175.7220  148.0130 C   0  0  0  0  0  2  0  0  0  0  0  0
  194.6100  173.5920  143.4350 C   0  0  0  0  0  2  0  0  0  0  0  0
  195.3620  174.2380  139.9040 O   0  0  0  0  0  0  0  0  0  0  0  0
  194.4420  173.9750  142.0440 N   0  0  0  0  0  0  0  0  0  0  0  0
  191.2150  171.7180  143.6140 C   0  0  0  0  0  2  0  0  0  0  0  0
  193.2340  174.7710  141.7980 C   0  0  2  0  0  0  0  0  0  0  0  0
  189.7530  172.1520  143.7140 C   0  0  0  0  0  2  0  0  0  0  0  0
  192.3950  174.1720  140.6520 C   0  0  0  0  0  2  0  0  0  0  0  0
  188.8950  174.4400  142.8480 C   0  0  1  0  0  3  0  0  0  0  0  0
  188.5710  174.8410  140.4960 O   0  0  0  0  0  1  0  0  0  0  0  0
  193.2830  174.2850  145.4200 C   0  0  0  0  0  3  0  0  0  0  0  0
  193.6200  176.0620  141.4200 O   0  0  0  0  0  1  0  0  0  0  0  0
  192.4700  174.8040  143.1380 C   0  0  2  0  0  3  0  0  0  0  0  0
  1  9  1  6  0  0  0
  1 20  1  0  0  0  0
  2 32  2  0  0  0  0
  3 13  1  0  0  0  0
  3 25  1  0  0  0  0
  4 31  1  6  0  0  0
  4 30  1  0  0  0  0
  5 32  1  6  0  0  0
  5 19  1  0  0  0  0
  7 21  1  1  0  0  0
  7 11  1  0  0  0  0
  8  9  1  6  0  0  0
  8 10  1  0  0  0  0
 10 17  1  1  0  0  0
 11 15  2  0  0  0  0
 11 26  1  0  0  0  0
 12 22  1  0  0  0  0
 14 29  1  6  0  0  0
 14  7  1  0  0  0  0
 14 16  1  0  0  0  0
 16  4  1  0  0  0  0
 17 12  1  0  0  0  0
 18  8  1  0  0  0  0
 19 22  1  0  0  0  0
 20 10  1  0  0  0  0
 20  5  1  0  0  0  0
 23  2  1  0  0  0  0
 24  3  2  0  0  0  0
 25 23  1  0  0  0  0
 26 28  1  0  0  0  0
 27 25  1  0  0  0  0
 27 34  1  0  0  0  0
 28  6  1  0  0  0  0
 29 27  1  0  0  0  0
 30 18  1  0  0  0  0
 30  6  1  0  0  0  0
 33 27  1  0  0  0  0
 34  1  1  0  0  0  0
 34  2  1  0  0  0  0
M  END
>  <MODEL>
7

>  <REMARK>
 VINA RESULT:      -7.6      2.291      5.251
  Name = 
  0 active torsions:
  status: ('A' for Active; 'I' for Inactive)
                            x       y       z     vdW  Elec       q    Type
                         _______ _______ _______ _____ _____    ______ ____

>  <TORSDO>
F 0

$$$$
=
 OpenBabel11052420393D

 34 39  0  0  1  0  0  0  0  0999 V2000
  193.8070  174.3830  145.2120 C   0  0  1  0  0  3  0  0  0  0  0  0
  192.5490  175.9420  143.7460 C   0  0  0  0  0  0  0  0  0  0  0  0
  189.2560  176.2340  145.3670 C   0  0  0  0  0  0  0  0  0  0  0  0
  192.2350  171.2380  143.8800 C   0  0  2  0  0  3  0  0  0  0  0  0
  194.8930  175.6180  143.1860 C   0  0  1  0  0  3  0  0  0  0  0  0
  193.6090  172.6770  142.1590 C   0  0  0  0  0  2  0  0  0  0  0  0
  189.4710  173.3390  142.3300 C   0  0  1  0  0  3  0  0  0  0  0  0
  195.1580  172.3650  144.8170 C   0  0  2  0  0  3  0  0  0  0  0  0
  193.9850  172.9260  145.6150 C   0  0  0  0  0  2  0  0  0  0  0  0
  195.7860  173.5110  144.0480 C   0  0  2  0  0  3  0  0  0  0  0  0
  190.2790  173.6620  141.0860 C   0  0  0  0  0  0  0  0  0  0  0  0
  197.9220  174.9350  143.8330 C   0  0  0  0  0  2  0  0  0  0  0  0
  188.6470  177.5420  144.9950 C   0  0  0  0  0  1  0  0  0  0  0  0
  190.3210  172.7740  143.4450 C   0  0  2  0  0  3  0  0  0  0  0  0
  189.7260  173.6360  139.9980 O   0  0  0  0  0  0  0  0  0  0  0  0
  191.0450  171.6990  143.1210 C   0  0  0  0  0  2  0  0  0  0  0  0
  197.3030  173.5830  144.2280 C   0  0  0  0  0  2  0  0  0  0  0  0
  194.7650  171.2010  143.8830 C   0  0  0  0  0  2  0  0  0  0  0  0
  196.1400  176.4330  142.8570 C   0  0  0  0  0  2  0  0  0  0  0  0
  195.0920  174.7870  144.4660 C   0  0  2  0  0  3  0  0  0  0  0  0
  188.5920  174.5080  142.7340 C   0  0  0  0  0  1  0  0  0  0  0  0
  197.3380  175.5290  142.5500 C   0  0  0  0  0  2  0  0  0  0  0  0
  191.2820  176.6790  143.9210 C   0  0  0  0  0  2  0  0  0  0  0  0
  188.6620  175.5020  146.2020 O   0  0  0  0  0  0  0  0  0  0  0  0
  190.4970  175.8050  144.7770 N   0  0  0  0  0  0  0  0  0  0  0  0
  191.7470  174.0020  141.1490 C   0  0  0  0  0  2  0  0  0  0  0  0
  191.2000  174.5750  145.1580 C   0  0  2  0  0  0  0  0  0  0  0  0
  192.6210  172.7570  140.9950 C   0  0  0  0  0  2  0  0  0  0  0  0
  190.3450  173.3280  144.8590 C   0  0  0  0  0  2  0  0  0  0  0  0
  193.5060  171.3920  143.0140 C   0  0  1  0  0  3  0  0  0  0  0  0
  192.0670  169.9000  144.2380 O   0  0  0  0  0  1  0  0  0  0  0  0
  193.6620  176.4740  143.2350 C   0  0  0  0  0  3  0  0  0  0  0  0
  191.4460  174.6090  146.5350 O   0  0  0  0  0  1  0  0  0  0  0  0
  192.5280  174.5860  144.3710 C   0  0  2  0  0  3  0  0  0  0  0  0
  1  9  1  6  0  0  0
  2 23  1  0  0  0  0
  2 34  1  0  0  0  0
  3 24  2  0  0  0  0
  4 31  1  6  0  0  0
  5 19  1  1  0  0  0
  5 32  1  0  0  0  0
  5 20  1  0  0  0  0
  6 30  1  0  0  0  0
  7 21  1  1  0  0  0
  7 14  1  0  0  0  0
  8 18  1  6  0  0  0
  8  9  1  0  0  0  0
 10 17  1  1  0  0  0
 10 20  1  0  0  0  0
 10  8  1  0  0  0  0
 11 26  1  0  0  0  0
 11  7  1  0  0  0  0
 12 17  1  0  0  0  0
 13  3  1  0  0  0  0
 14 16  1  1  0  0  0
 14 29  1  0  0  0  0
 15 11  2  0  0  0  0
 16  4  1  0  0  0  0
 20  1  1  0  0  0  0
 22 19  1  0  0  0  0
 22 12  1  0  0  0  0
 23 25  1  0  0  0  0
 25 27  1  0  0  0  0
 25  3  1  0  0  0  0
 27 33  1  0  0  0  0
 28 26  1  0  0  0  0
 28  6  1  0  0  0  0
 29 27  1  0  0  0  0
 30  4  1  0  0  0  0
 30 18  1  0  0  0  0
 32  2  2  0  0  0  0
 34 27  1  0  0  0  0
 34  1  1  0  0  0  0
M  END
>  <MODEL>
8

>  <REMARK>
 VINA RESULT:      -7.4      2.395      6.657
  Name = 
  0 active torsions:
  status: ('A' for Active; 'I' for Inactive)
                            x       y       z     vdW  Elec       q    Type
                         _______ _______ _______ _____ _____    ______ ____

>  <TORSDO>
F 0

$$$$
=
 OpenBabel11052420393D

 34 39  0  0  1  0  0  0  0  0999 V2000
  191.6020  172.0680  143.4380 C   0  0  1  0  0  3  0  0  0  0  0  0
  193.6910  172.5690  142.1940 C   0  0  0  0  0  0  0  0  0  0  0  0
  196.3340  170.9830  144.2080 C   0  0  0  0  0  0  0  0  0  0  0  0
  192.0350  174.7560  146.0310 C   0  0  2  0  0  3  0  0  0  0  0  0
  191.6230  173.2390  141.1050 C   0  0  1  0  0  3  0  0  0  0  0  0
  191.8110  175.5640  143.5360 C   0  0  0  0  0  2  0  0  0  0  0  0
  195.6940  175.0510  145.0390 C   0  0  1  0  0  3  0  0  0  0  0  0
  189.6870  173.4150  144.1930 C   0  0  2  0  0  3  0  0  0  0  0  0
  190.7600  172.4330  144.6520 C   0  0  0  0  0  2  0  0  0  0  0  0
  189.7780  173.5290  142.6830 C   0  0  2  0  0  3  0  0  0  0  0  0
  195.4060  175.9840  143.8760 C   0  0  0  0  0  0  0  0  0  0  0  0
  188.5170  173.0390  140.4910 C   0  0  0  0  0  2  0  0  0  0  0  0
  197.4890  170.6590  143.3240 C   0  0  0  0  0  1  0  0  0  0  0  0
  194.4500  174.3630  145.5550 C   0  0  2  0  0  3  0  0  0  0  0  0
  196.1420  176.9390  143.6890 O   0  0  0  0  0  0  0  0  0  0  0  0
  193.4530  175.1800  145.9070 C   0  0  0  0  0  2  0  0  0  0  0  0
  188.4240  173.3520  141.9940 C   0  0  0  0  0  2  0  0  0  0  0  0
  189.7840  174.7960  144.8750 C   0  0  0  0  0  2  0  0  0  0  0  0
  190.9290  173.1380  139.7510 C   0  0  0  0  0  2  0  0  0  0  0  0
  190.8080  172.5330  142.2030 C   0  0  2  0  0  3  0  0  0  0  0  0
  196.8470  174.1170  144.7210 C   0  0  0  0  0  1  0  0  0  0  0  0
  189.5780  173.8610  139.7550 C   0  0  0  0  0  2  0  0  0  0  0  0
  195.0670  172.0430  142.2940 C   0  0  0  0  0  2  0  0  0  0  0  0
  196.3650  170.6070  145.4090 O   0  0  0  0  0  0  0  0  0  0  0  0
  195.2040  171.7190  143.7040 N   0  0  0  0  0  0  0  0  0  0  0  0
  194.2310  175.7760  142.9530 C   0  0  0  0  0  2  0  0  0  0  0  0
  193.9950  171.9960  144.4880 C   0  0  2  0  0  0  0  0  0  0  0  0
  192.9930  176.5300  143.4390 C   0  0  0  0  0  2  0  0  0  0  0  0
  194.3170  172.8600  145.7230 C   0  0  0  0  0  2  0  0  0  0  0  0
  191.1800  175.4480  144.9440 C   0  0  1  0  0  3  0  0  0  0  0  0
  191.5580  175.0980  147.2960 O   0  0  0  0  0  1  0  0  0  0  0  0
  193.0440  172.7650  141.0420 C   0  0  0  0  0  3  0  0  0  0  0  0
  193.4650  170.7820  144.9370 O   0  0  0  0  0  1  0  0  0  0  0  0
  193.0140  172.6900  143.5190 C   0  0  2  0  0  3  0  0  0  0  0  0
  1 34  1  0  0  0  0
  1  9  1  1  0  0  0
  2 23  1  0  0  0  0
  2 34  1  0  0  0  0
  3 24  2  0  0  0  0
  4 31  1  1  0  0  0
  5 19  1  6  0  0  0
  5 20  1  0  0  0  0
  6 30  1  0  0  0  0
  7 21  1  6  0  0  0
  7 14  1  0  0  0  0
  8  9  1  1  0  0  0
  8 18  1  0  0  0  0
 10 17  1  6  0  0  0
 10  8  1  0  0  0  0
 11  7  1  0  0  0  0
 12 17  1  0  0  0  0
 13  3  1  0  0  0  0
 14 29  1  1  0  0  0
 14 16  1  0  0  0  0
 15 11  2  0  0  0  0
 16  4  1  0  0  0  0
 18 30  1  0  0  0  0
 19 22  1  0  0  0  0
 20 10  1  0  0  0  0
 20  1  1  0  0  0  0
 22 12  1  0  0  0  0
 23 25  1  0  0  0  0
 25  3  1  0  0  0  0
 25 27  1  0  0  0  0
 26 28  1  0  0  0  0
 26 11  1  0  0  0  0
 27 33  1  0  0  0  0
 27 29  1  0  0  0  0
 28  6  1  0  0  0  0
 30  4  1  0  0  0  0
 32  5  1  0  0  0  0
 32  2  2  0  0  0  0
 34 27  1  0  0  0  0
M  END
>  <MODEL>
9

>  <REMARK>
 VINA RESULT:      -7.4      2.845      4.616
  Name = 
  0 active torsions:
  status: ('A' for Active; 'I' for Inactive)
                            x       y       z     vdW  Elec       q    Type
                         _______ _______ _______ _____ _____    ______ ____

>  <TORSDO>
F 0

$$$$
