=
 OpenBabel11052417203D

 30 34  0  0  1  0  0  0  0  0999 V2000
  185.7500  177.5920  143.8180 C   0  0  0  0  0  0  0  0  0  0  0  0
  185.6170  179.1830  145.2000 C   0  0  2  0  0  3  0  0  0  0  0  0
  188.0190  175.9310  147.7460 C   0  0  0  0  0  2  0  0  0  0  0  0
  189.2730  177.5260  143.8790 C   0  0  0  0  0  2  0  0  0  0  0  0
  185.7910  176.4260  142.9940 N   0  0  0  0  0  2  0  0  0  0  0  0
  188.0700  176.6660  141.8170 C   0  0  2  0  0  3  0  0  0  0  0  0
  187.0180  174.5900  142.2990 O   0  0  0  0  0  0  0  0  0  0  0  0
  190.6970  175.2400  145.0730 N   0  0  0  0  0  0  0  0  0  0  0  0
  189.0600  175.2510  146.9160 C   0  0  0  0  0  0  0  0  0  0  0  0
  186.9600  175.8410  142.4130 C   0  0  0  0  0  0  0  0  0  0  0  0
  189.4050  176.7710  142.5660 C   0  0  2  0  0  3  0  0  0  0  0  0
  185.0400  179.0750  146.6210 C   0  0  0  0  0  2  0  0  0  0  0  0
  190.2210  174.7100  143.8750 O   0  0  0  0  0  0  0  0  0  0  0  0
  184.4470  178.8360  144.0210 S   0  0  0  0  0  0  0  0  0  0  0  0
  186.9600  176.5740  146.8500 C   0  0  1  0  0  3  0  0  0  0  0  0
  184.8470  177.7400  147.0140 O   0  0  0  0  0  0  0  0  0  0  0  0
  186.5110  178.0360  144.9020 C   0  0  0  0  0  0  0  0  0  0  0  0
  188.6060  176.6470  144.9150 C   0  0  1  0  0  3  0  0  0  0  0  0
  189.4130  174.1130  147.1820 O   0  0  0  0  0  0  0  0  0  0  0  0
  189.6910  176.0320  145.7990 C   0  0  2  0  0  3  0  0  0  0  0  0
  190.4580  174.8690  141.6030 O   0  0  0  0  0  0  0  0  0  0  0  0
  186.0030  177.3870  147.7300 C   0  0  0  0  0  2  0  0  0  0  0  0
  187.6010  177.4490  145.7480 C   0  0  2  0  0  3  0  0  0  0  0  0
  190.0830  175.4250  142.6680 C   0  0  0  0  0  0  0  0  0  0  0  0
  187.6710  177.8170  140.8950 C   0  0  0  0  0  2  0  0  0  0  0  0
  185.1890  178.2920  140.2250 C   0  0  0  0  0  1  0  0  0  0  0  0
  186.5520  177.3020  139.5560 S   0  0  0  0  0  0  0  0  0  0  0  0
  191.8860  176.0530  144.8400 C   0  0  0  0  0  2  0  0  0  0  0  0
  193.4470  176.0160  146.3980 C   0  0  0  0  0  1  0  0  0  0  0  0
  192.2730  176.6710  146.0300 O   0  0  0  0  0  0  0  0  0  0  0  0
  1 14  1  0  0  0  0
  1 17  2  0  0  0  0
  2 12  1  1  0  0  0
  5  1  1  0  0  0  0
  6 25  1  1  0  0  0
  6 10  1  0  0  0  0
  6 11  1  0  0  0  0
  7 10  2  0  0  0  0
  8 20  1  0  0  0  0
  9 19  2  0  0  0  0
  9  3  1  0  0  0  0
 10  5  1  0  0  0  0
 11 24  1  0  0  0  0
 11  4  1  1  0  0  0
 12 16  1  0  0  0  0
 13  8  1  0  0  0  0
 14  2  1  0  0  0  0
 15 22  1  1  0  0  0
 15  3  1  0  0  0  0
 16 22  1  0  0  0  0
 17  2  1  0  0  0  0
 18  4  1  6  0  0  0
 18 23  1  0  0  0  0
 18 20  1  0  0  0  0
 20  9  1  1  0  0  0
 21 24  2  0  0  0  0
 23 17  1  6  0  0  0
 23 15  1  0  0  0  0
 24 13  1  0  0  0  0
 27 26  1  0  0  0  0
 27 25  1  0  0  0  0
 28  8  1  0  0  0  0
 28 30  1  0  0  0  0
 30 29  1  0  0  0  0
M  END
>  <MODEL>
1

>  <REMARK>
 VINA RESULT:      -7.7      0.000      0.000
  Name = 
  4 active torsions:
  status: ('A' for Active; 'I' for Inactive)
    1  A    between atoms: C_6  and  C_8
    2  A    between atoms: C_6  and  S_21
    3  A    between atoms: C_7  and  N_10
    4  A    between atoms: C_7  and  O_26
                            x       y       z     vdW  Elec       q    Type
                         _______ _______ _______ _____ _____    ______ ____

>  <TORSDO>
F 4

$$$$
=
 OpenBabel11052417203D

 30 34  0  0  1  0  0  0  0  0999 V2000
  187.3940  177.5300  146.3790 C   0  0  0  0  0  0  0  0  0  0  0  0
  185.3430  177.0990  146.6370 C   0  0  2  0  0  3  0  0  0  0  0  0
  185.5320  177.9740  141.9440 C   0  0  0  0  0  2  0  0  0  0  0  0
  187.8810  174.9430  144.0350 C   0  0  0  0  0  2  0  0  0  0  0  0
  188.7380  177.9440  146.1280 N   0  0  0  0  0  2  0  0  0  0  0  0
  189.8640  175.7440  145.4020 C   0  0  2  0  0  3  0  0  0  0  0  0
  190.5350  177.9020  144.6700 O   0  0  0  0  0  0  0  0  0  0  0  0
  188.4550  175.5810  141.2160 N   0  0  0  0  0  0  0  0  0  0  0  0
  186.7390  177.3480  141.3220 C   0  0  0  0  0  0  0  0  0  0  0  0
  189.7080  177.2400  145.3480 C   0  0  0  0  0  0  0  0  0  0  0  0
  189.3910  174.9010  144.2090 C   0  0  2  0  0  3  0  0  0  0  0  0
  184.1850  178.0170  146.2110 C   0  0  0  0  0  2  0  0  0  0  0  0
  189.6540  175.8960  141.8490 O   0  0  0  0  0  0  0  0  0  0  0  0
  186.3240  177.8320  147.8110 S   0  0  0  0  0  0  0  0  0  0  0  0
  185.7270  178.1220  143.4530 C   0  0  1  0  0  3  0  0  0  0  0  0
  184.6190  179.0660  145.3850 O   0  0  0  0  0  0  0  0  0  0  0  0
  186.3750  177.0170  145.5720 C   0  0  0  0  0  0  0  0  0  0  0  0
  187.4670  176.2710  143.4360 C   0  0  1  0  0  3  0  0  0  0  0  0
  187.2370  177.8350  140.3190 O   0  0  0  0  0  0  0  0  0  0  0  0
  187.2700  176.0820  141.9320 C   0  0  2  0  0  3  0  0  0  0  0  0
  191.4170  174.9500  142.9660 O   0  0  0  0  0  0  0  0  0  0  0  0
  184.4140  178.6210  144.0690 C   0  0  0  0  0  2  0  0  0  0  0  0
  186.1910  176.7970  144.1010 C   0  0  2  0  0  3  0  0  0  0  0  0
  190.1880  175.2190  142.9650 C   0  0  0  0  0  0  0  0  0  0  0  0
  189.8780  175.0890  146.7820 C   0  0  0  0  0  2  0  0  0  0  0  0
  192.4890  175.0630  146.6680 C   0  0  0  0  0  1  0  0  0  0  0  0
  191.2430  175.6730  147.8340 S   0  0  0  0  0  0  0  0  0  0  0  0
  188.3360  174.1390  141.0240 C   0  0  0  0  0  2  0  0  0  0  0  0
  188.3480  174.1200  138.8180 C   0  0  0  0  0  1  0  0  0  0  0  0
  189.1040  173.7450  139.9280 O   0  0  0  0  0  0  0  0  0  0  0  0
  1 14  1  0  0  0  0
  2 12  1  6  0  0  0
  2 14  1  0  0  0  0
  5  1  1  0  0  0  0
  6 25  1  1  0  0  0
  7 10  2  0  0  0  0
  8 13  1  0  0  0  0
  8 20  1  0  0  0  0
  9  3  1  0  0  0  0
 10  6  1  0  0  0  0
 10  5  1  0  0  0  0
 11  4  1  6  0  0  0
 11  6  1  0  0  0  0
 13 24  1  0  0  0  0
 15  3  1  6  0  0  0
 15 22  1  0  0  0  0
 15 23  1  0  0  0  0
 16 12  1  0  0  0  0
 17  1  2  0  0  0  0
 17  2  1  0  0  0  0
 18  4  1  1  0  0  0
 18 23  1  0  0  0  0
 19  9  2  0  0  0  0
 20  9  1  6  0  0  0
 20 18  1  0  0  0  0
 22 16  1  0  0  0  0
 23 17  1  1  0  0  0
 24 21  2  0  0  0  0
 24 11  1  0  0  0  0
 25 27  1  0  0  0  0
 26 27  1  0  0  0  0
 28  8  1  0  0  0  0
 29 30  1  0  0  0  0
 30 28  1  0  0  0  0
M  END
>  <MODEL>
2

>  <REMARK>
 VINA RESULT:      -7.2      2.574      5.175
  Name = 
  4 active torsions:
  status: ('A' for Active; 'I' for Inactive)
    1  A    between atoms: C_6  and  C_8
    2  A    between atoms: C_6  and  S_21
    3  A    between atoms: C_7  and  N_10
    4  A    between atoms: C_7  and  O_26
                            x       y       z     vdW  Elec       q    Type
                         _______ _______ _______ _____ _____    ______ ____

>  <TORSDO>
F 4

$$$$
=
 OpenBabel11052417203D

 30 34  0  0  1  0  0  0  0  0999 V2000
  187.8630  175.7420  141.6300 C   0  0  0  0  0  0  0  0  0  0  0  0
  187.7630  177.8480  141.7370 C   0  0  2  0  0  3  0  0  0  0  0  0
  187.8850  176.6800  146.3690 C   0  0  0  0  0  2  0  0  0  0  0  0
  190.8990  175.5630  143.4120 C   0  0  0  0  0  2  0  0  0  0  0  0
  187.8180  174.3140  141.6590 N   0  0  0  0  0  2  0  0  0  0  0  0
  190.3140  173.6900  141.8020 C   0  0  2  0  0  3  0  0  0  0  0  0
  188.5470  172.3760  142.6950 O   0  0  0  0  0  0  0  0  0  0  0  0
  190.9690  174.3950  146.1160 N   0  0  0  0  0  0  0  0  0  0  0  0
  188.8750  175.5910  146.6290 C   0  0  0  0  0  0  0  0  0  0  0  0
  188.8600  173.4440  142.1100 C   0  0  0  0  0  0  0  0  0  0  0  0
  191.2440  174.1630  142.9270 C   0  0  2  0  0  3  0  0  0  0  0  0
  186.7100  178.6450  142.5240 C   0  0  0  0  0  2  0  0  0  0  0  0
  190.8140  173.2730  145.3040 O   0  0  0  0  0  0  0  0  0  0  0  0
  187.0550  176.9150  140.5100 S   0  0  0  0  0  0  0  0  0  0  0  0
  187.4930  176.7020  144.8910 C   0  0  1  0  0  3  0  0  0  0  0  0
  185.9660  177.8280  143.3910 O   0  0  0  0  0  0  0  0  0  0  0  0
  188.2800  176.7130  142.5430 C   0  0  0  0  0  0  0  0  0  0  0  0
  189.6550  175.5180  144.2740 C   0  0  1  0  0  3  0  0  0  0  0  0
  188.7180  174.8290  147.5700 O   0  0  0  0  0  0  0  0  0  0  0  0
  190.0850  175.5110  145.7420 C   0  0  2  0  0  3  0  0  0  0  0  0
  191.8950  172.0190  143.7220 O   0  0  0  0  0  0  0  0  0  0  0  0
  186.6020  177.9240  144.6390 C   0  0  0  0  0  2  0  0  0  0  0  0
  188.7360  176.7060  143.9720 C   0  0  2  0  0  3  0  0  0  0  0  0
  191.3630  173.1210  144.0150 C   0  0  0  0  0  0  0  0  0  0  0  0
  190.6730  174.0690  140.3660 C   0  0  0  0  0  2  0  0  0  0  0  0
  189.0820  173.8440  138.3040 C   0  0  0  0  0  1  0  0  0  0  0  0
  190.2610  172.7690  139.1620 S   0  0  0  0  0  0  0  0  0  0  0  0
  192.3560  174.8480  146.1110 C   0  0  0  0  0  2  0  0  0  0  0  0
  193.7680  176.5060  146.4600 C   0  0  0  0  0  1  0  0  0  0  0  0
  192.4250  176.1560  146.5920 O   0  0  0  0  0  0  0  0  0  0  0  0
  1  5  1  0  0  0  0
  1 17  2  0  0  0  0
  2 12  1  1  0  0  0
  2 17  1  0  0  0  0
  3  9  1  0  0  0  0
  5 10  1  0  0  0  0
  6 25  1  6  0  0  0
  6 10  1  0  0  0  0
  6 11  1  0  0  0  0
  9 19  2  0  0  0  0
 10  7  2  0  0  0  0
 11  4  1  1  0  0  0
 11 24  1  0  0  0  0
 12 16  1  0  0  0  0
 13  8  1  0  0  0  0
 14  1  1  0  0  0  0
 14  2  1  0  0  0  0
 15 22  1  1  0  0  0
 15  3  1  0  0  0  0
 16 22  1  0  0  0  0
 18  4  1  6  0  0  0
 18 20  1  0  0  0  0
 20  8  1  0  0  0  0
 20  9  1  1  0  0  0
 21 24  2  0  0  0  0
 23 17  1  6  0  0  0
 23 18  1  0  0  0  0
 23 15  1  0  0  0  0
 24 13  1  0  0  0  0
 26 27  1  0  0  0  0
 27 25  1  0  0  0  0
 28  8  1  0  0  0  0
 28 30  1  0  0  0  0
 29 30  1  0  0  0  0
M  END
>  <MODEL>
3

>  <REMARK>
 VINA RESULT:      -6.8      2.246      3.232
  Name = 
  4 active torsions:
  status: ('A' for Active; 'I' for Inactive)
    1  A    between atoms: C_6  and  C_8
    2  A    between atoms: C_6  and  S_21
    3  A    between atoms: C_7  and  N_10
    4  A    between atoms: C_7  and  O_26
                            x       y       z     vdW  Elec       q    Type
                         _______ _______ _______ _____ _____    ______ ____

>  <TORSDO>
F 4

$$$$
=
 OpenBabel11052417203D

 30 34  0  0  1  0  0  0  0  0999 V2000
  188.0840  175.9400  141.9090 C   0  0  0  0  0  0  0  0  0  0  0  0
  187.3140  177.8540  141.4590 C   0  0  2  0  0  3  0  0  0  0  0  0
  186.0570  177.3950  146.0460 C   0  0  0  0  0  2  0  0  0  0  0  0
  190.1390  177.1250  144.5170 C   0  0  0  0  0  2  0  0  0  0  0  0
  188.4700  174.6140  142.2740 N   0  0  0  0  0  2  0  0  0  0  0  0
  190.7960  174.9870  143.3180 C   0  0  2  0  0  3  0  0  0  0  0  0
  189.3160  173.2290  143.9260 O   0  0  0  0  0  0  0  0  0  0  0  0
  189.5520  176.4090  147.3140 N   0  0  0  0  0  0  0  0  0  0  0  0
  187.1610  176.7930  146.8540 C   0  0  0  0  0  0  0  0  0  0  0  0
  189.4820  174.2570  143.2200 C   0  0  0  0  0  0  0  0  0  0  0  0
  191.0490  175.9070  144.5200 C   0  0  2  0  0  3  0  0  0  0  0  0
  185.8550  178.2920  141.6670 C   0  0  0  0  0  2  0  0  0  0  0  0
  190.0600  175.2200  146.7960 O   0  0  0  0  0  0  0  0  0  0  0  0
  187.4340  176.5810  140.3430 S   0  0  0  0  0  0  0  0  0  0  0  0
  186.2550  177.0860  144.5610 C   0  0  1  0  0  3  0  0  0  0  0  0
  185.1300  177.3690  142.4390 O   0  0  0  0  0  0  0  0  0  0  0  0
  187.8150  177.1010  142.6370 C   0  0  0  0  0  0  0  0  0  0  0  0
  188.7420  176.7270  144.9430 C   0  0  1  0  0  3  0  0  0  0  0  0
  186.9060  176.1490  147.8600 O   0  0  0  0  0  0  0  0  0  0  0  0
  188.5750  177.0600  146.4260 C   0  0  2  0  0  3  0  0  0  0  0  0
  191.9790  174.2740  145.9770 O   0  0  0  0  0  0  0  0  0  0  0  0
  185.1950  177.8480  143.7580 C   0  0  0  0  0  2  0  0  0  0  0  0
  187.6860  177.4400  144.0920 C   0  0  2  0  0  3  0  0  0  0  0  0
  191.0670  175.1260  145.8130 C   0  0  0  0  0  0  0  0  0  0  0  0
  191.5280  175.2930  142.0130 C   0  0  0  0  0  2  0  0  0  0  0  0
  193.6350  173.9810  141.1910 C   0  0  0  0  0  1  0  0  0  0  0  0
  193.3300  175.4380  142.2250 S   0  0  0  0  0  0  0  0  0  0  0  0
  190.6320  177.3420  147.6200 C   0  0  0  0  0  2  0  0  0  0  0  0
  191.5660  177.9160  149.5340 C   0  0  0  0  0  1  0  0  0  0  0  0
  191.4070  176.8380  148.6640 O   0  0  0  0  0  0  0  0  0  0  0  0
  1  5  1  0  0  0  0
  1 17  2  0  0  0  0
  2 12  1  1  0  0  0
  2 17  1  0  0  0  0
  3  9  1  0  0  0  0
  5 10  1  0  0  0  0
  6 25  1  6  0  0  0
  6 11  1  0  0  0  0
  8 28  1  0  0  0  0
  9 19  2  0  0  0  0
 10  6  1  0  0  0  0
 10  7  2  0  0  0  0
 11  4  1  1  0  0  0
 11 24  1  0  0  0  0
 12 16  1  0  0  0  0
 13  8  1  0  0  0  0
 14  2  1  0  0  0  0
 14  1  1  0  0  0  0
 15 22  1  6  0  0  0
 15  3  1  0  0  0  0
 16 22  1  0  0  0  0
 18  4  1  6  0  0  0
 18 20  1  0  0  0  0
 20  9  1  1  0  0  0
 20  8  1  0  0  0  0
 23 17  1  6  0  0  0
 23 15  1  0  0  0  0
 23 18  1  0  0  0  0
 24 21  2  0  0  0  0
 24 13  1  0  0  0  0
 25 27  1  0  0  0  0
 26 27  1  0  0  0  0
 28 30  1  0  0  0  0
 30 29  1  0  0  0  0
M  END
>  <MODEL>
4

>  <REMARK>
 VINA RESULT:      -6.6      2.422      3.970
  Name = 
  4 active torsions:
  status: ('A' for Active; 'I' for Inactive)
    1  A    between atoms: C_6  and  C_8
    2  A    between atoms: C_6  and  S_21
    3  A    between atoms: C_7  and  N_10
    4  A    between atoms: C_7  and  O_26
                            x       y       z     vdW  Elec       q    Type
                         _______ _______ _______ _____ _____    ______ ____

>  <TORSDO>
F 4

$$$$
=
 OpenBabel11052417203D

 30 34  0  0  1  0  0  0  0  0999 V2000
  189.3490  176.2530  144.5300 C   0  0  0  0  0  0  0  0  0  0  0  0
  188.5990  175.2910  146.2520 C   0  0  2  0  0  3  0  0  0  0  0  0
  185.7640  179.1290  146.0170 C   0  0  0  0  0  2  0  0  0  0  0  0
  186.2530  176.1640  142.8480 C   0  0  0  0  0  2  0  0  0  0  0  0
  189.8600  177.0320  143.4460 N   0  0  0  0  0  2  0  0  0  0  0  0
  188.3870  176.2640  141.4770 C   0  0  2  0  0  3  0  0  0  0  0  0
  189.3680  178.4210  141.6610 O   0  0  0  0  0  0  0  0  0  0  0  0
  184.7700  178.6560  142.3310 N   0  0  0  0  0  0  0  0  0  0  0  0
  185.3360  179.4030  144.6110 C   0  0  0  0  0  0  0  0  0  0  0  0
  189.1920  177.3040  142.2110 C   0  0  0  0  0  0  0  0  0  0  0  0
  186.8560  176.3760  141.4680 C   0  0  2  0  0  3  0  0  0  0  0  0
  188.4540  175.9420  147.6380 C   0  0  0  0  0  2  0  0  0  0  0  0
  185.8180  178.7320  141.4170 O   0  0  0  0  0  0  0  0  0  0  0  0
  190.2190  175.2370  145.7530 S   0  0  0  0  0  0  0  0  0  0  0  0
  187.0180  178.2540  146.0310 C   0  0  1  0  0  3  0  0  0  0  0  0
  188.6240  177.3350  147.5880 O   0  0  0  0  0  0  0  0  0  0  0  0
  188.1160  176.2020  145.1850 C   0  0  0  0  0  0  0  0  0  0  0  0
  186.4740  177.3940  143.7020 C   0  0  1  0  0  3  0  0  0  0  0  0
  185.0610  180.5410  144.2620 O   0  0  0  0  0  0  0  0  0  0  0  0
  185.1980  178.2370  143.6750 C   0  0  2  0  0  3  0  0  0  0  0  0
  186.6510  177.7370  139.5290 O   0  0  0  0  0  0  0  0  0  0  0  0
  187.3300  177.8700  147.4820 C   0  0  0  0  0  2  0  0  0  0  0  0
  186.8510  177.0050  145.1350 C   0  0  2  0  0  3  0  0  0  0  0  0
  186.4030  177.6310  140.7580 C   0  0  0  0  0  0  0  0  0  0  0  0
  189.0060  174.8760  141.3250 C   0  0  0  0  0  2  0  0  0  0  0  0
  189.3980  172.5320  140.2340 C   0  0  0  0  0  1  0  0  0  0  0  0
  188.5660  174.0690  139.7530 S   0  0  0  0  0  0  0  0  0  0  0  0
  183.7270  177.7570  141.8480 C   0  0  0  0  0  2  0  0  0  0  0  0
  181.7260  178.2920  141.0900 C   0  0  0  0  0  1  0  0  0  0  0  0
  183.0790  178.3320  140.7550 O   0  0  0  0  0  0  0  0  0  0  0  0
  1 17  2  0  0  0  0
  1 14  1  0  0  0  0
  2 12  1  1  0  0  0
  5  1  1  0  0  0  0
  6 25  1  1  0  0  0
  6 10  1  0  0  0  0
  7 10  2  0  0  0  0
  8 20  1  0  0  0  0
  9  3  1  0  0  0  0
 10  5  1  0  0  0  0
 11  6  1  0  0  0  0
 11  4  1  1  0  0  0
 13  8  1  0  0  0  0
 14  2  1  0  0  0  0
 15  3  1  1  0  0  0
 15 22  1  0  0  0  0
 16 12  1  0  0  0  0
 17  2  1  0  0  0  0
 18  4  1  6  0  0  0
 18 23  1  0  0  0  0
 19  9  2  0  0  0  0
 20 18  1  0  0  0  0
 20  9  1  1  0  0  0
 21 24  2  0  0  0  0
 22 16  1  0  0  0  0
 23 17  1  6  0  0  0
 23 15  1  0  0  0  0
 24 13  1  0  0  0  0
 24 11  1  0  0  0  0
 27 26  1  0  0  0  0
 27 25  1  0  0  0  0
 28  8  1  0  0  0  0
 30 29  1  0  0  0  0
 30 28  1  0  0  0  0
M  END
>  <MODEL>
5

>  <REMARK>
 VINA RESULT:      -6.6      2.802      5.627
  Name = 
  4 active torsions:
  status: ('A' for Active; 'I' for Inactive)
    1  A    between atoms: C_6  and  C_8
    2  A    between atoms: C_6  and  S_21
    3  A    between atoms: C_7  and  N_10
    4  A    between atoms: C_7  and  O_26
                            x       y       z     vdW  Elec       q    Type
                         _______ _______ _______ _____ _____    ______ ____

>  <TORSDO>
F 4

$$$$
=
 OpenBabel11052417203D

 30 34  0  0  1  0  0  0  0  0999 V2000
  188.9250  175.2860  142.6900 C   0  0  0  0  0  0  0  0  0  0  0  0
  188.3960  177.3290  142.6490 C   0  0  2  0  0  3  0  0  0  0  0  0
  189.6690  176.7860  147.2210 C   0  0  0  0  0  2  0  0  0  0  0  0
  192.2160  175.9220  143.7810 C   0  0  0  0  0  2  0  0  0  0  0  0
  189.1970  173.8920  142.8410 N   0  0  0  0  0  2  0  0  0  0  0  0
  191.7470  173.7880  142.4890 C   0  0  2  0  0  3  0  0  0  0  0  0
  190.5150  172.2750  143.8450 O   0  0  0  0  0  0  0  0  0  0  0  0
  193.0630  175.1310  146.4890 N   0  0  0  0  0  0  0  0  0  0  0  0
  190.9030  175.9500  147.3470 C   0  0  0  0  0  0  0  0  0  0  0  0
  190.4700  173.3030  143.1230 C   0  0  0  0  0  0  0  0  0  0  0  0
  192.7540  174.5680  143.3450 C   0  0  2  0  0  3  0  0  0  0  0  0
  187.3690  177.9970  143.5790 C   0  0  0  0  0  2  0  0  0  0  0  0
  193.0000  173.9100  145.8220 O   0  0  0  0  0  0  0  0  0  0  0  0
  187.6800  176.1330  141.6820 S   0  0  0  0  0  0  0  0  0  0  0  0
  189.0010  176.5490  145.8670 C   0  0  1  0  0  3  0  0  0  0  0  0
  187.0040  177.1630  144.6490 O   0  0  0  0  0  0  0  0  0  0  0  0
  189.2930  176.4250  143.4110 C   0  0  0  0  0  0  0  0  0  0  0  0
  191.2040  175.7420  144.8920 C   0  0  1  0  0  3  0  0  0  0  0  0
  191.1010  175.2940  148.3570 O   0  0  0  0  0  0  0  0  0  0  0  0
  191.9040  175.9990  146.2280 C   0  0  2  0  0  3  0  0  0  0  0  0
  193.9960  172.7060  144.1470 O   0  0  0  0  0  0  0  0  0  0  0  0
  187.8350  177.5340  145.7180 C   0  0  0  0  0  2  0  0  0  0  0  0
  190.0100  176.6820  144.7030 C   0  0  2  0  0  3  0  0  0  0  0  0
  193.3050  173.7100  144.4600 C   0  0  0  0  0  0  0  0  0  0  0  0
  191.7280  174.0510  140.9850 C   0  0  0  0  0  2  0  0  0  0  0  0
  189.7930  173.3820  139.3590 C   0  0  0  0  0  1  0  0  0  0  0  0
  191.2820  172.5800  140.0100 S   0  0  0  0  0  0  0  0  0  0  0  0
  194.2920  175.8420  146.1480 C   0  0  0  0  0  2  0  0  0  0  0  0
  194.9570  177.9100  145.7630 C   0  0  0  0  0  1  0  0  0  0  0  0
  194.2530  177.1310  146.6810 O   0  0  0  0  0  0  0  0  0  0  0  0
  1  5  1  0  0  0  0
  1 17  2  0  0  0  0
  2 17  1  0  0  0  0
  2 12  1  1  0  0  0
  3  9  1  0  0  0  0
  5 10  1  0  0  0  0
  6 25  1  6  0  0  0
  6 10  1  0  0  0  0
  6 11  1  0  0  0  0
  9 19  2  0  0  0  0
 10  7  2  0  0  0  0
 11  4  1  1  0  0  0
 11 24  1  0  0  0  0
 12 16  1  0  0  0  0
 13  8  1  0  0  0  0
 14  2  1  0  0  0  0
 14  1  1  0  0  0  0
 15 22  1  6  0  0  0
 15  3  1  0  0  0  0
 16 22  1  0  0  0  0
 18  4  1  6  0  0  0
 18 20  1  0  0  0  0
 20  8  1  0  0  0  0
 20  9  1  1  0  0  0
 21 24  2  0  0  0  0
 23 17  1  6  0  0  0
 23 18  1  0  0  0  0
 23 15  1  0  0  0  0
 24 13  1  0  0  0  0
 26 27  1  0  0  0  0
 27 25  1  0  0  0  0
 28  8  1  0  0  0  0
 28 30  1  0  0  0  0
 29 30  1  0  0  0  0
M  END
>  <MODEL>
6

>  <REMARK>
 VINA RESULT:      -6.5      2.540      3.873
  Name = 
  4 active torsions:
  status: ('A' for Active; 'I' for Inactive)
    1  A    between atoms: C_6  and  C_8
    2  A    between atoms: C_6  and  S_21
    3  A    between atoms: C_7  and  N_10
    4  A    between atoms: C_7  and  O_26
                            x       y       z     vdW  Elec       q    Type
                         _______ _______ _______ _____ _____    ______ ____

>  <TORSDO>
F 4

$$$$
=
 OpenBabel11052417203D

 30 34  0  0  1  0  0  0  0  0999 V2000
  190.0910  176.9720  145.6940 C   0  0  0  0  0  0  0  0  0  0  0  0
  188.3640  176.6000  146.8490 C   0  0  2  0  0  3  0  0  0  0  0  0
  186.5480  176.6220  142.4300 C   0  0  0  0  0  2  0  0  0  0  0  0
  189.7590  174.0070  143.8180 C   0  0  0  0  0  2  0  0  0  0  0  0
  191.1810  177.3310  144.8420 N   0  0  0  0  0  2  0  0  0  0  0  0
  192.0650  175.0330  144.0840 C   0  0  2  0  0  3  0  0  0  0  0  0
  192.2200  177.0240  142.7960 O   0  0  0  0  0  0  0  0  0  0  0  0
  189.0780  174.1290  140.9540 N   0  0  0  0  0  0  0  0  0  0  0  0
  187.4350  175.8910  141.4740 C   0  0  0  0  0  0  0  0  0  0  0  0
  191.7940  176.4960  143.8550 C   0  0  0  0  0  0  0  0  0  0  0  0
  191.2060  173.9930  143.3520 C   0  0  2  0  0  3  0  0  0  0  0  0
  187.0700  177.4310  146.8000 C   0  0  0  0  0  2  0  0  0  0  0  0
  190.4060  174.5480  140.9690 O   0  0  0  0  0  0  0  0  0  0  0  0
  189.6850  177.5290  147.3710 S   0  0  0  0  0  0  0  0  0  0  0  0
  187.3330  177.0370  143.6740 C   0  0  1  0  0  3  0  0  0  0  0  0
  187.0500  178.3150  145.7080 O   0  0  0  0  0  0  0  0  0  0  0  0
  188.8710  176.3270  145.4810 C   0  0  0  0  0  0  0  0  0  0  0  0
  189.0420  175.2070  143.2380 C   0  0  1  0  0  3  0  0  0  0  0  0
  187.4410  176.1890  140.2900 O   0  0  0  0  0  0  0  0  0  0  0  0
  188.2580  174.7530  142.0050 C   0  0  2  0  0  3  0  0  0  0  0  0
  192.5340  173.8120  141.3880 O   0  0  0  0  0  0  0  0  0  0  0  0
  186.3570  177.6420  144.6900 C   0  0  0  0  0  2  0  0  0  0  0  0
  188.1160  175.8480  144.2770 C   0  0  2  0  0  3  0  0  0  0  0  0
  191.3970  174.0800  141.8560 C   0  0  0  0  0  0  0  0  0  0  0  0
  192.6900  174.6350  145.4200 C   0  0  0  0  0  2  0  0  0  0  0  0
  194.2530  176.4250  146.5120 C   0  0  0  0  0  1  0  0  0  0  0  0
  194.4820  174.9480  145.4880 S   0  0  0  0  0  0  0  0  0  0  0  0
  188.9940  172.6760  141.0680 C   0  0  0  0  0  2  0  0  0  0  0  0
  188.1980  172.6630  139.0110 C   0  0  0  0  0  1  0  0  0  0  0  0
  189.1850  172.0940  139.8150 O   0  0  0  0  0  0  0  0  0  0  0  0
  1 14  1  0  0  0  0
  2 12  1  6  0  0  0
  2 14  1  0  0  0  0
  5  1  1  0  0  0  0
  6 25  1  1  0  0  0
  7 10  2  0  0  0  0
  8 13  1  0  0  0  0
  8 28  1  0  0  0  0
  8 20  1  0  0  0  0
  9  3  1  0  0  0  0
 10  6  1  0  0  0  0
 10  5  1  0  0  0  0
 11  4  1  6  0  0  0
 11  6  1  0  0  0  0
 13 24  1  0  0  0  0
 15  3  1  6  0  0  0
 15 23  1  0  0  0  0
 15 22  1  0  0  0  0
 16 12  1  0  0  0  0
 17  1  2  0  0  0  0
 17  2  1  0  0  0  0
 18  4  1  1  0  0  0
 18 23  1  0  0  0  0
 19  9  2  0  0  0  0
 20  9  1  6  0  0  0
 20 18  1  0  0  0  0
 21 24  2  0  0  0  0
 22 16  1  0  0  0  0
 23 17  1  1  0  0  0
 24 11  1  0  0  0  0
 25 27  1  0  0  0  0
 27 26  1  0  0  0  0
 29 30  1  0  0  0  0
 30 28  1  0  0  0  0
M  END
>  <MODEL>
7

>  <REMARK>
 VINA RESULT:      -6.4      3.040      5.569
  Name = 
  4 active torsions:
  status: ('A' for Active; 'I' for Inactive)
    1  A    between atoms: C_6  and  C_8
    2  A    between atoms: C_6  and  S_21
    3  A    between atoms: C_7  and  N_10
    4  A    between atoms: C_7  and  O_26
                            x       y       z     vdW  Elec       q    Type
                         _______ _______ _______ _____ _____    ______ ____

>  <TORSDO>
F 4

$$$$
=
 OpenBabel11052417203D

 30 34  0  0  1  0  0  0  0  0999 V2000
  189.8050  174.9320  145.6880 C   0  0  0  0  0  0  0  0  0  0  0  0
  189.5920  176.9220  146.3580 C   0  0  2  0  0  3  0  0  0  0  0  0
  194.3470  176.5040  146.1620 C   0  0  0  0  0  2  0  0  0  0  0  0
  191.6240  175.8480  142.8110 C   0  0  0  0  0  2  0  0  0  0  0  0
  190.0480  173.5660  145.3460 N   0  0  0  0  0  2  0  0  0  0  0  0
  190.3080  173.6780  142.7860 C   0  0  2  0  0  3  0  0  0  0  0  0
  191.3710  172.0700  144.1750 O   0  0  0  0  0  0  0  0  0  0  0  0
  194.4730  175.1410  142.5670 N   0  0  0  0  0  0  0  0  0  0  0  0
  194.7790  175.7770  144.9290 C   0  0  0  0  0  0  0  0  0  0  0  0
  190.6350  173.0880  144.1320 C   0  0  0  0  0  0  0  0  0  0  0  0
  191.3590  174.5440  142.0760 C   0  0  2  0  0  3  0  0  0  0  0  0
  190.2390  177.5030  147.6260 C   0  0  0  0  0  2  0  0  0  0  0  0
  193.8390  173.9170  142.3710 O   0  0  0  0  0  0  0  0  0  0  0  0
  188.5120  175.6660  146.7240 S   0  0  0  0  0  0  0  0  0  0  0  0
  192.8790  176.2060  146.4690 C   0  0  1  0  0  3  0  0  0  0  0  0
  191.2110  176.6450  148.1650 O   0  0  0  0  0  0  0  0  0  0  0  0
  190.5650  176.1000  145.5950 C   0  0  0  0  0  0  0  0  0  0  0  0
  192.4700  175.5870  144.0390 C   0  0  1  0  0  3  0  0  0  0  0  0
  195.8220  175.1430  144.9220 O   0  0  0  0  0  0  0  0  0  0  0  0
  193.9260  175.9060  143.6990 C   0  0  2  0  0  3  0  0  0  0  0  0
  192.4740  172.7960  140.9120 O   0  0  0  0  0  0  0  0  0  0  0  0
  192.4370  177.0880  147.6430 C   0  0  0  0  0  2  0  0  0  0  0  0
  191.9820  176.4210  145.2280 C   0  0  2  0  0  3  0  0  0  0  0  0
  192.5920  173.7400  141.7370 C   0  0  0  0  0  0  0  0  0  0  0  0
  188.8360  173.9330  142.4690 C   0  0  0  0  0  2  0  0  0  0  0  0
  187.8170  176.0780  141.3750 C   0  0  0  0  0  1  0  0  0  0  0  0
  188.5660  174.5410  140.7750 S   0  0  0  0  0  0  0  0  0  0  0  0
  194.4140  175.9530  141.3550 C   0  0  0  0  0  2  0  0  0  0  0  0
  196.5940  175.9370  141.0140 C   0  0  0  0  0  1  0  0  0  0  0  0
  195.5280  176.7910  141.2950 O   0  0  0  0  0  0  0  0  0  0  0  0
  1 14  1  0  0  0  0
  2 14  1  0  0  0  0
  2 12  1  1  0  0  0
  5  1  1  0  0  0  0
  6 25  1  1  0  0  0
  6 10  1  0  0  0  0
  8 20  1  0  0  0  0
  9  3  1  0  0  0  0
 10  7  2  0  0  0  0
 10  5  1  0  0  0  0
 11  6  1  0  0  0  0
 11  4  1  1  0  0  0
 12 16  1  0  0  0  0
 13  8  1  0  0  0  0
 15  3  1  6  0  0  0
 15 22  1  0  0  0  0
 17  1  2  0  0  0  0
 17  2  1  0  0  0  0
 18  4  1  6  0  0  0
 18 23  1  0  0  0  0
 19  9  2  0  0  0  0
 20 18  1  0  0  0  0
 20  9  1  1  0  0  0
 21 24  2  0  0  0  0
 22 16  1  0  0  0  0
 23 17  1  1  0  0  0
 23 15  1  0  0  0  0
 24 11  1  0  0  0  0
 24 13  1  0  0  0  0
 27 26  1  0  0  0  0
 27 25  1  0  0  0  0
 28  8  1  0  0  0  0
 29 30  1  0  0  0  0
 30 28  1  0  0  0  0
M  END
>  <MODEL>
8

>  <REMARK>
 VINA RESULT:      -6.1      3.327      5.000
  Name = 
  4 active torsions:
  status: ('A' for Active; 'I' for Inactive)
    1  A    between atoms: C_6  and  C_8
    2  A    between atoms: C_6  and  S_21
    3  A    between atoms: C_7  and  N_10
    4  A    between atoms: C_7  and  O_26
                            x       y       z     vdW  Elec       q    Type
                         _______ _______ _______ _____ _____    ______ ____

>  <TORSDO>
F 4

$$$$
=
 OpenBabel11052417203D

 30 34  0  0  1  0  0  0  0  0999 V2000
  190.2390  175.0660  143.0940 C   0  0  0  0  0  0  0  0  0  0  0  0
  189.9810  173.1050  142.3550 C   0  0  2  0  0  3  0  0  0  0  0  0
  194.4660  174.0360  140.9950 C   0  0  0  0  0  2  0  0  0  0  0  0
  192.9990  174.1940  145.1060 C   0  0  0  0  0  2  0  0  0  0  0  0
  190.4660  176.4290  143.4580 N   0  0  0  0  0  2  0  0  0  0  0  0
  191.5910  176.2000  145.7650 C   0  0  2  0  0  3  0  0  0  0  0  0
  191.9770  177.9930  144.2530 O   0  0  0  0  0  0  0  0  0  0  0  0
  195.6910  175.1980  144.4510 N   0  0  0  0  0  0  0  0  0  0  0  0
  195.2270  174.7360  142.0750 C   0  0  0  0  0  0  0  0  0  0  0  0
  191.3890  176.8980  144.4460 C   0  0  0  0  0  0  0  0  0  0  0  0
  192.8900  175.4170  146.0020 C   0  0  2  0  0  3  0  0  0  0  0  0
  190.2050  172.6730  140.8960 C   0  0  0  0  0  2  0  0  0  0  0  0
  195.0590  176.3310  144.9580 O   0  0  0  0  0  0  0  0  0  0  0  0
  188.7380  174.2520  142.4840 S   0  0  0  0  0  0  0  0  0  0  0  0
  192.9610  174.1860  141.2220 C   0  0  1  0  0  3  0  0  0  0  0  0
  190.8600  173.6630  140.1450 O   0  0  0  0  0  0  0  0  0  0  0  0
  191.0820  173.9860  142.8220 C   0  0  0  0  0  0  0  0  0  0  0  0
  193.3520  174.6180  143.6950 C   0  0  1  0  0  3  0  0  0  0  0  0
  196.1530  175.4800  141.7920 O   0  0  0  0  0  0  0  0  0  0  0  0
  194.8580  174.4430  143.5010 C   0  0  2  0  0  3  0  0  0  0  0  0
  194.1820  177.2090  146.8830 O   0  0  0  0  0  0  0  0  0  0  0  0
  192.2230  173.3290  140.1870 C   0  0  0  0  0  2  0  0  0  0  0  0
  192.5620  173.8040  142.6660 C   0  0  2  0  0  3  0  0  0  0  0  0
  194.0920  176.3330  145.9840 C   0  0  0  0  0  0  0  0  0  0  0  0
  190.3410  175.7660  146.5280 C   0  0  0  0  0  2  0  0  0  0  0  0
  187.8550  176.3840  146.0050 C   0  0  0  0  0  1  0  0  0  0  0  0
  189.2240  177.1500  146.9120 S   0  0  0  0  0  0  0  0  0  0  0  0
  196.1170  174.3170  145.5340 C   0  0  0  0  0  2  0  0  0  0  0  0
  196.8110  172.3100  146.1320 C   0  0  0  0  0  1  0  0  0  0  0  0
  196.5090  173.0850  145.0120 O   0  0  0  0  0  0  0  0  0  0  0  0
  1  5  1  0  0  0  0
  2 12  1  6  0  0  0
  2 14  1  0  0  0  0
  2 17  1  0  0  0  0
  3 15  1  0  0  0  0
  3  9  1  0  0  0  0
  5 10  1  0  0  0  0
  6 11  1  0  0  0  0
  6 25  1  6  0  0  0
  7 10  2  0  0  0  0
  8 13  1  0  0  0  0
  8 28  1  0  0  0  0
 10  6  1  0  0  0  0
 11  4  1  6  0  0  0
 13 24  1  0  0  0  0
 14  1  1  0  0  0  0
 15 22  1  6  0  0  0
 15 23  1  0  0  0  0
 16 22  1  0  0  0  0
 16 12  1  0  0  0  0
 17  1  2  0  0  0  0
 18  4  1  1  0  0  0
 19  9  2  0  0  0  0
 20  9  1  6  0  0  0
 20 18  1  0  0  0  0
 20  8  1  0  0  0  0
 23 17  1  6  0  0  0
 23 18  1  0  0  0  0
 24 11  1  0  0  0  0
 24 21  2  0  0  0  0
 25 27  1  0  0  0  0
 26 27  1  0  0  0  0
 30 28  1  0  0  0  0
 30 29  1  0  0  0  0
M  END
>  <MODEL>
9

>  <REMARK>
 VINA RESULT:      -5.8      3.526      6.883
  Name = 
  4 active torsions:
  status: ('A' for Active; 'I' for Inactive)
    1  A    between atoms: C_6  and  C_8
    2  A    between atoms: C_6  and  S_21
    3  A    between atoms: C_7  and  N_10
    4  A    between atoms: C_7  and  O_26
                            x       y       z     vdW  Elec       q    Type
                         _______ _______ _______ _____ _____    ______ ____

>  <TORSDO>
F 4

$$$$
