=
 OpenBabel11052421313D

 32 35  0  0  1  0  0  0  0  0999 V2000
  187.7180  177.4780  143.3500 C   0  0  0  0  0  0  0  0  0  0  0  0
  184.7360  178.8180  146.9290 N   0  0  0  0  0  0  0  0  0  0  0  0
  185.5790  178.2900  147.8530 C   0  0  0  0  0  3  0  0  0  0  0  0
  189.7660  176.2000  143.9070 C   0  0  0  0  0  0  0  0  0  0  0  0
  190.9140  176.0250  144.8690 C   0  0  2  0  0  3  0  0  0  0  0  0
  192.8590  175.5520  146.7920 C   0  0  0  0  0  2  0  0  0  0  0  0
  185.0170  178.7660  145.6010 C   0  0  0  0  0  3  0  0  0  0  0  0
  186.5050  178.1060  143.7690 C   0  0  0  0  0  0  0  0  0  0  0  0
  186.1970  178.1580  145.1380 C   0  0  0  0  0  0  0  0  0  0  0  0
  188.2580  176.9870  145.6390 C   0  0  0  0  0  0  0  0  0  0  0  0
  192.6190  174.4020  145.8060 C   0  0  0  0  0  2  0  0  0  0  0  0
  191.3360  174.5590  144.9760 C   0  0  0  0  0  2  0  0  0  0  0  0
  186.7620  177.6760  147.4450 C   0  0  0  0  0  3  0  0  0  0  0  0
  187.0800  177.6060  146.0800 C   0  0  0  0  0  0  0  0  0  0  0  0
  189.1820  176.3710  146.6540 C   0  0  0  0  0  2  0  0  0  0  0  0
  188.0940  177.4530  142.0940 N   0  0  0  0  0  0  0  0  0  0  0  0
  189.8880  175.7100  142.7500 O   0  0  0  0  0  0  0  0  0  0  0  0
  191.5410  176.0720  147.3590 C   0  0  0  0  0  2  0  0  0  0  0  0
  188.5480  176.9000  144.2970 N   0  0  0  0  0  0  0  0  0  0  0  0
  190.6240  176.6250  146.2590 C   0  0  1  0  0  3  0  0  0  0  0  0
  187.4400  178.0100  140.9190 C   0  0  0  0  0  2  0  0  0  0  0  0
  185.8250  177.2060  139.3920 F   0  0  0  0  0  0  0  0  0  0  0  0
  187.0290  176.8890  139.9900 C   0  0  0  0  0  2  0  0  0  0  0  0
  185.5040  178.6740  142.8010 C   0  0  0  0  0  2  0  0  0  0  0  0
  184.4980  177.6730  142.4920 N   0  0  0  0  0  2  0  0  0  0  0  0
  183.2780  178.3920  142.1680 C   0  0  0  0  0  2  0  0  0  0  0  0
  182.9640  178.2390  140.6920 C   0  0  0  0  0  2  0  0  0  0  0  0
  181.4600  178.1830  140.4830 C   0  0  0  0  0  2  0  0  0  0  0  0
  179.3480  178.4460  141.8480 C   0  0  0  0  0  0  0  0  0  0  0  0
  180.7710  178.4770  141.7300 N   0  0  0  0  0  2  0  0  0  0  0  0
  178.7130  178.7360  143.1610 C   0  0  0  0  0  1  0  0  0  0  0  0
  178.6250  178.1820  140.8510 O   0  0  0  0  0  0  0  0  0  0  0  0
  1  8  1  0  0  0  0
  1 19  1  0  0  0  0
  2  3  1  0  0  0  0
  4 19  1  0  0  0  0
  4  5  1  0  0  0  0
  5 12  1  1  0  0  0
  5 20  1  0  0  0  0
  6 18  1  0  0  0  0
  7  2  2  0  0  0  0
  8  9  2  0  0  0  0
  9  7  1  0  0  0  0
  9 14  1  0  0  0  0
 10 14  2  0  0  0  0
 10 15  1  0  0  0  0
 11  6  1  0  0  0  0
 12 11  1  0  0  0  0
 13  3  2  0  0  0  0
 14 13  1  0  0  0  0
 16  1  2  0  0  0  0
 17  4  2  0  0  0  0
 19 10  1  0  0  0  0
 20 15  1  1  0  0  0
 20 18  1  0  0  0  0
 21 16  1  0  0  0  0
 22 23  1  0  0  0  0
 23 21  1  0  0  0  0
 24  8  1  0  0  0  0
 25 24  1  0  0  0  0
 26 25  1  0  0  0  0
 27 26  1  0  0  0  0
 28 27  1  0  0  0  0
 28 30  1  0  0  0  0
 29 31  1  0  0  0  0
 30 29  1  0  0  0  0
 32 29  2  0  0  0  0
M  END
>  <MODEL>
1

>  <REMARK>
 VINA RESULT:      -7.7      0.000      0.000
  Name = 
  8 active torsions:
  status: ('A' for Active; 'I' for Inactive)
    1  A    between atoms: C_2  and  C_12
    2  A    between atoms: C_2  and  C_24
    3  A    between atoms: C_8  and  C_23
    4  A    between atoms: C_8  and  N_28
    5  A    between atoms: C_9  and  C_14
    6  A    between atoms: C_9  and  N_21
    7  A    between atoms: N_10  and  C_24
    8  A    between atoms: C_12  and  N_21
                            x       y       z     vdW  Elec       q    Type
                         _______ _______ _______ _____ _____    ______ ____

>  <TORSDO>
F 8

$$$$
=
 OpenBabel11052421313D

 32 35  0  0  1  0  0  0  0  0999 V2000
  189.2320  175.3400  145.4880 C   0  0  0  0  0  0  0  0  0  0  0  0
  189.9980  173.4710  141.0820 N   0  0  0  0  0  0  0  0  0  0  0  0
  188.9490  174.1730  140.5830 C   0  0  0  0  0  3  0  0  0  0  0  0
  187.2980  176.8500  145.8340 C   0  0  0  0  0  0  0  0  0  0  0  0
  186.4580  177.9650  145.2640 C   0  0  2  0  0  3  0  0  0  0  0  0
  184.7720  179.8250  144.0800 C   0  0  0  0  0  2  0  0  0  0  0  0
  190.3500  173.5570  142.3910 C   0  0  0  0  0  3  0  0  0  0  0  0
  189.9920  174.4880  144.6300 C   0  0  0  0  0  0  0  0  0  0  0  0
  189.6330  174.3810  143.2760 C   0  0  0  0  0  0  0  0  0  0  0  0
  187.8110  175.9340  143.6450 C   0  0  0  0  0  0  0  0  0  0  0  0
  184.1820  179.0780  145.2820 C   0  0  0  0  0  2  0  0  0  0  0  0
  184.9980  177.8470  145.7040 C   0  0  0  0  0  2  0  0  0  0  0  0
  188.2050  175.0040  141.4190 C   0  0  0  0  0  3  0  0  0  0  0  0
  188.5440  175.1130  142.7770 C   0  0  0  0  0  0  0  0  0  0  0  0
  186.6260  176.6910  143.1060 C   0  0  0  0  0  2  0  0  0  0  0  0
  189.5540  175.5330  146.7440 N   0  0  0  0  0  0  0  0  0  0  0  0
  187.2480  176.6540  147.0800 O   0  0  0  0  0  0  0  0  0  0  0  0
  185.4140  178.8550  143.0930 C   0  0  0  0  0  2  0  0  0  0  0  0
  188.1340  176.0150  144.9790 N   0  0  0  0  0  0  0  0  0  0  0  0
  186.5700  178.0720  143.7310 C   0  0  1  0  0  3  0  0  0  0  0  0
  190.6640  174.9870  147.5120 C   0  0  0  0  0  2  0  0  0  0  0  0
  190.8090  177.3170  147.8780 F   0  0  0  0  0  0  0  0  0  0  0  0
  191.4200  176.1150  148.1790 C   0  0  0  0  0  2  0  0  0  0  0  0
  191.1390  173.6480  145.1220 C   0  0  0  0  0  2  0  0  0  0  0  0
  192.3760  174.1010  144.5100 N   0  0  0  0  0  2  0  0  0  0  0  0
  193.4050  174.0100  145.5300 C   0  0  0  0  0  2  0  0  0  0  0  0
  194.0090  175.3790  145.7790 C   0  0  0  0  0  2  0  0  0  0  0  0
  193.8220  176.2610  144.5560 C   0  0  0  0  0  2  0  0  0  0  0  0
  191.7560  177.4770  143.7500 C   0  0  0  0  0  0  0  0  0  0  0  0
  192.7130  177.1790  144.7680 N   0  0  0  0  0  2  0  0  0  0  0  0
  190.6360  178.4090  144.0450 C   0  0  0  0  0  1  0  0  0  0  0  0
  191.8540  176.9630  142.6040 O   0  0  0  0  0  0  0  0  0  0  0  0
  1 16  2  0  0  0  0
  2  7  2  0  0  0  0
  3  2  1  0  0  0  0
  3 13  2  0  0  0  0
  4 17  2  0  0  0  0
  5 12  1  6  0  0  0
  5  4  1  0  0  0  0
  6 11  1  0  0  0  0
  7  9  1  0  0  0  0
  8 24  1  0  0  0  0
  8  1  1  0  0  0  0
  9  8  2  0  0  0  0
 10 19  1  0  0  0  0
 11 12  1  0  0  0  0
 13 14  1  0  0  0  0
 14  9  1  0  0  0  0
 14 10  2  0  0  0  0
 15 10  1  0  0  0  0
 15 20  1  0  0  0  0
 16 21  1  0  0  0  0
 18  6  1  0  0  0  0
 19  1  1  0  0  0  0
 19  4  1  0  0  0  0
 20 18  1  6  0  0  0
 20  5  1  0  0  0  0
 21 23  1  0  0  0  0
 22 23  1  0  0  0  0
 25 24  1  0  0  0  0
 25 26  1  0  0  0  0
 26 27  1  0  0  0  0
 28 30  1  0  0  0  0
 28 27  1  0  0  0  0
 29 31  1  0  0  0  0
 29 30  1  0  0  0  0
 32 29  2  0  0  0  0
M  END
>  <MODEL>
2

>  <REMARK>
 VINA RESULT:      -7.6      3.962      8.464
  Name = 
  8 active torsions:
  status: ('A' for Active; 'I' for Inactive)
    1  A    between atoms: C_2  and  C_12
    2  A    between atoms: C_2  and  C_24
    3  A    between atoms: C_8  and  C_23
    4  A    between atoms: C_8  and  N_28
    5  A    between atoms: C_9  and  C_14
    6  A    between atoms: C_9  and  N_21
    7  A    between atoms: N_10  and  C_24
    8  A    between atoms: C_12  and  N_21
                            x       y       z     vdW  Elec       q    Type
                         _______ _______ _______ _____ _____    ______ ____

>  <TORSDO>
F 8

$$$$
=
 OpenBabel11052421313D

 32 35  0  0  1  0  0  0  0  0999 V2000
  189.6790  176.0340  144.9370 C   0  0  0  0  0  0  0  0  0  0  0  0
  189.8200  173.9380  140.5680 N   0  0  0  0  0  0  0  0  0  0  0  0
  188.5540  174.3530  140.3090 C   0  0  0  0  0  3  0  0  0  0  0  0
  187.5860  177.1350  145.6750 C   0  0  0  0  0  0  0  0  0  0  0  0
  186.4080  177.9880  145.2770 C   0  0  2  0  0  3  0  0  0  0  0  0
  184.1200  179.3300  144.4560 C   0  0  0  0  0  2  0  0  0  0  0  0
  190.4340  174.2250  141.7460 C   0  0  0  0  0  3  0  0  0  0  0  0
  190.3960  175.2780  143.9590 C   0  0  0  0  0  0  0  0  0  0  0  0
  189.7710  174.9650  142.7400 C   0  0  0  0  0  0  0  0  0  0  0  0
  187.7780  176.1330  143.4720 C   0  0  0  0  0  0  0  0  0  0  0  0
  184.0060  178.5990  145.8000 C   0  0  0  0  0  2  0  0  0  0  0  0
  185.1530  177.6130  146.0660 C   0  0  0  0  0  2  0  0  0  0  0  0
  187.8530  175.0900  141.2630 C   0  0  0  0  0  3  0  0  0  0  0  0
  188.4600  175.4010  142.4900 C   0  0  0  0  0  0  0  0  0  0  0  0
  186.3630  176.5690  143.2050 C   0  0  0  0  0  2  0  0  0  0  0  0
  190.2270  176.4140  146.0660 N   0  0  0  0  0  0  0  0  0  0  0  0
  187.8670  177.0570  146.9030 O   0  0  0  0  0  0  0  0  0  0  0  0
  184.7230  178.4210  143.3880 C   0  0  0  0  0  2  0  0  0  0  0  0
  188.3710  176.4120  144.6810 N   0  0  0  0  0  0  0  0  0  0  0  0
  186.1400  177.9630  143.7590 C   0  0  1  0  0  3  0  0  0  0  0  0
  191.5780  176.1900  146.5620 C   0  0  0  0  0  2  0  0  0  0  0  0
  190.2580  174.8380  147.9810 F   0  0  0  0  0  0  0  0  0  0  0  0
  191.5190  175.3860  147.8420 C   0  0  0  0  0  2  0  0  0  0  0  0
  191.7840  174.7490  144.1930 C   0  0  0  0  0  2  0  0  0  0  0  0
  191.7180  173.3490  144.5710 N   0  0  0  0  0  2  0  0  0  0  0  0
  193.0680  172.8240  144.4700 C   0  0  0  0  0  2  0  0  0  0  0  0
  193.8290  173.1040  145.7530 C   0  0  0  0  0  2  0  0  0  0  0  0
  195.1220  173.8380  145.4420 C   0  0  0  0  0  2  0  0  0  0  0  0
  194.9840  176.3460  145.1470 C   0  0  0  0  0  0  0  0  0  0  0  0
  195.0710  175.1890  145.9800 N   0  0  0  0  0  2  0  0  0  0  0  0
  194.9120  177.6950  145.7670 C   0  0  0  0  0  1  0  0  0  0  0  0
  194.9720  176.2360  143.8920 O   0  0  0  0  0  0  0  0  0  0  0  0
  1 16  2  0  0  0  0
  2  7  2  0  0  0  0
  3  2  1  0  0  0  0
  3 13  2  0  0  0  0
  4 17  2  0  0  0  0
  5  4  1  0  0  0  0
  5 12  1  1  0  0  0
  6 11  1  0  0  0  0
  7  9  1  0  0  0  0
  8 24  1  0  0  0  0
  8  1  1  0  0  0  0
  9  8  2  0  0  0  0
 10 19  1  0  0  0  0
 11 12  1  0  0  0  0
 13 14  1  0  0  0  0
 14  9  1  0  0  0  0
 14 10  2  0  0  0  0
 15 10  1  0  0  0  0
 16 21  1  0  0  0  0
 18 20  1  0  0  0  0
 18  6  1  0  0  0  0
 19  1  1  0  0  0  0
 19  4  1  0  0  0  0
 20 15  1  1  0  0  0
 20  5  1  0  0  0  0
 21 23  1  0  0  0  0
 23 22  1  0  0  0  0
 24 25  1  0  0  0  0
 26 25  1  0  0  0  0
 26 27  1  0  0  0  0
 28 27  1  0  0  0  0
 28 30  1  0  0  0  0
 29 31  1  0  0  0  0
 29 30  1  0  0  0  0
 32 29  2  0  0  0  0
M  END
>  <MODEL>
3

>  <REMARK>
 VINA RESULT:      -7.5      3.976      9.256
  Name = 
  8 active torsions:
  status: ('A' for Active; 'I' for Inactive)
    1  A    between atoms: C_2  and  C_12
    2  A    between atoms: C_2  and  C_24
    3  A    between atoms: C_8  and  C_23
    4  A    between atoms: C_8  and  N_28
    5  A    between atoms: C_9  and  C_14
    6  A    between atoms: C_9  and  N_21
    7  A    between atoms: N_10  and  C_24
    8  A    between atoms: C_12  and  N_21
                            x       y       z     vdW  Elec       q    Type
                         _______ _______ _______ _____ _____    ______ ____

>  <TORSDO>
F 8

$$$$
=
 OpenBabel11052421313D

 32 35  0  0  1  0  0  0  0  0999 V2000
  189.0110  175.2720  143.3390 C   0  0  0  0  0  0  0  0  0  0  0  0
  192.2560  174.7910  146.9080 N   0  0  0  0  0  0  0  0  0  0  0  0
  191.4920  175.5560  147.7290 C   0  0  0  0  0  3  0  0  0  0  0  0
  187.0220  176.7030  143.7070 C   0  0  0  0  0  0  0  0  0  0  0  0
  185.9560  177.1440  144.6770 C   0  0  2  0  0  3  0  0  0  0  0  0
  184.1720  178.1370  146.5590 C   0  0  0  0  0  2  0  0  0  0  0  0
  191.8720  174.5160  145.6340 C   0  0  0  0  0  3  0  0  0  0  0  0
  190.2490  174.7360  143.8110 C   0  0  0  0  0  0  0  0  0  0  0  0
  190.6630  175.0200  145.1230 C   0  0  0  0  0  0  0  0  0  0  0  0
  188.6570  176.3350  145.4650 C   0  0  0  0  0  0  0  0  0  0  0  0
  184.3420  178.9960  145.3000 C   0  0  0  0  0  2  0  0  0  0  0  0
  185.5540  178.6020  144.4440 C   0  0  0  0  0  2  0  0  0  0  0  0
  190.2850  176.0800  147.2700 C   0  0  0  0  0  3  0  0  0  0  0  0
  189.8620  175.8150  145.9580 C   0  0  0  0  0  0  0  0  0  0  0  0
  187.8200  177.2100  146.3580 C   0  0  0  0  0  2  0  0  0  0  0  0
  188.5370  174.9920  142.1500 N   0  0  0  0  0  0  0  0  0  0  0  0
  186.8130  176.8910  142.4770 O   0  0  0  0  0  0  0  0  0  0  0  0
  185.5260  177.7390  147.1380 C   0  0  0  0  0  2  0  0  0  0  0  0
  188.2620  176.0910  144.1700 N   0  0  0  0  0  0  0  0  0  0  0  0
  186.3500  176.9050  146.1480 C   0  0  1  0  0  3  0  0  0  0  0  0
  189.0920  174.1410  141.1070 C   0  0  0  0  0  2  0  0  0  0  0  0
  187.3790  172.7920  142.0170 F   0  0  0  0  0  0  0  0  0  0  0  0
  188.2070  172.9280  140.9200 C   0  0  0  0  0  2  0  0  0  0  0  0
  191.1660  173.9170  142.9450 C   0  0  0  0  0  2  0  0  0  0  0  0
  192.1380  174.7840  142.3030 N   0  0  0  0  0  2  0  0  0  0  0  0
  193.4210  174.1110  142.3930 C   0  0  0  0  0  2  0  0  0  0  0  0
  194.4950  174.9580  141.7360 C   0  0  0  0  0  2  0  0  0  0  0  0
  195.5750  175.3050  142.7460 C   0  0  0  0  0  2  0  0  0  0  0  0
  195.0930  176.1810  145.0690 C   0  0  0  0  0  0  0  0  0  0  0  0
  195.0990  176.3410  143.6500 N   0  0  0  0  0  2  0  0  0  0  0  0
  194.6130  177.2910  145.9320 C   0  0  0  0  0  1  0  0  0  0  0  0
  195.4840  175.1060  145.5970 O   0  0  0  0  0  0  0  0  0  0  0  0
  1  8  1  0  0  0  0
  1 19  1  0  0  0  0
  2  3  1  0  0  0  0
  4 19  1  0  0  0  0
  4  5  1  0  0  0  0
  5 12  1  1  0  0  0
  5 20  1  0  0  0  0
  6 18  1  0  0  0  0
  7  2  2  0  0  0  0
  8  9  2  0  0  0  0
  9  7  1  0  0  0  0
  9 14  1  0  0  0  0
 10 14  2  0  0  0  0
 10 15  1  0  0  0  0
 11  6  1  0  0  0  0
 12 11  1  0  0  0  0
 13  3  2  0  0  0  0
 14 13  1  0  0  0  0
 16  1  2  0  0  0  0
 17  4  2  0  0  0  0
 19 10  1  0  0  0  0
 20 15  1  6  0  0  0
 20 18  1  0  0  0  0
 21 16  1  0  0  0  0
 23 21  1  0  0  0  0
 23 22  1  0  0  0  0
 24  8  1  0  0  0  0
 25 26  1  0  0  0  0
 25 24  1  0  0  0  0
 27 26  1  0  0  0  0
 27 28  1  0  0  0  0
 28 30  1  0  0  0  0
 29 32  2  0  0  0  0
 29 31  1  0  0  0  0
 30 29  1  0  0  0  0
M  END
>  <MODEL>
4

>  <REMARK>
 VINA RESULT:      -7.4      3.594      8.520
  Name = 
  8 active torsions:
  status: ('A' for Active; 'I' for Inactive)
    1  A    between atoms: C_2  and  C_12
    2  A    between atoms: C_2  and  C_24
    3  A    between atoms: C_8  and  C_23
    4  A    between atoms: C_8  and  N_28
    5  A    between atoms: C_9  and  C_14
    6  A    between atoms: C_9  and  N_21
    7  A    between atoms: N_10  and  C_24
    8  A    between atoms: C_12  and  N_21
                            x       y       z     vdW  Elec       q    Type
                         _______ _______ _______ _____ _____    ______ ____

>  <TORSDO>
F 8

$$$$
=
 OpenBabel11052421313D

 32 35  0  0  1  0  0  0  0  0999 V2000
  188.9660  175.1710  143.6400 C   0  0  0  0  0  0  0  0  0  0  0  0
  192.4130  175.5960  147.0220 N   0  0  0  0  0  0  0  0  0  0  0  0
  191.6320  176.4460  147.7360 C   0  0  0  0  0  3  0  0  0  0  0  0
  186.8890  176.5030  143.8670 C   0  0  0  0  0  0  0  0  0  0  0  0
  185.8400  177.0420  144.8060 C   0  0  2  0  0  3  0  0  0  0  0  0
  184.0780  178.2420  146.5840 C   0  0  0  0  0  2  0  0  0  0  0  0
  191.9900  175.0610  145.8470 C   0  0  0  0  0  3  0  0  0  0  0  0
  190.2650  174.8210  144.1220 C   0  0  0  0  0  0  0  0  0  0  0  0
  190.7200  175.3740  145.3300 C   0  0  0  0  0  0  0  0  0  0  0  0
  188.6340  176.5850  145.5530 C   0  0  0  0  0  0  0  0  0  0  0  0
  184.1150  178.8600  145.1810 C   0  0  0  0  0  2  0  0  0  0  0  0
  185.3110  178.3980  144.3350 C   0  0  0  0  0  2  0  0  0  0  0  0
  190.3650  176.7890  147.2660 C   0  0  0  0  0  3  0  0  0  0  0  0
  189.9000  176.2530  146.0550 C   0  0  0  0  0  0  0  0  0  0  0  0
  187.7750  177.5520  146.3230 C   0  0  0  0  0  2  0  0  0  0  0  0
  188.4570  174.6400  142.5550 N   0  0  0  0  0  0  0  0  0  0  0  0
  186.6040  176.4410  142.6390 O   0  0  0  0  0  0  0  0  0  0  0  0
  185.4870  178.0560  147.1390 C   0  0  0  0  0  2  0  0  0  0  0  0
  188.1960  176.0760  144.3530 N   0  0  0  0  0  0  0  0  0  0  0  0
  186.3250  177.1100  146.2670 C   0  0  1  0  0  3  0  0  0  0  0  0
  189.0270  173.6490  141.6520 C   0  0  0  0  0  2  0  0  0  0  0  0
  188.1750  175.2960  140.1860 F   0  0  0  0  0  0  0  0  0  0  0  0
  188.6870  174.0130  140.2240 C   0  0  0  0  0  2  0  0  0  0  0  0
  191.2010  173.9210  143.3640 C   0  0  0  0  0  2  0  0  0  0  0  0
  191.2570  172.6200  144.0060 N   0  0  0  0  0  2  0  0  0  0  0  0
  192.5270  172.0230  143.6300 C   0  0  0  0  0  2  0  0  0  0  0  0
  193.4450  171.9610  144.8360 C   0  0  0  0  0  2  0  0  0  0  0  0
  194.8560  172.3580  144.4370 C   0  0  0  0  0  2  0  0  0  0  0  0
  195.4550  174.7810  144.8430 C   0  0  0  0  0  0  0  0  0  0  0  0
  194.8860  173.7550  144.0290 N   0  0  0  0  0  2  0  0  0  0  0  0
  195.4710  176.1840  144.3520 C   0  0  0  0  0  1  0  0  0  0  0  0
  195.9390  174.5120  145.9750 O   0  0  0  0  0  0  0  0  0  0  0  0
  1  8  1  0  0  0  0
  1 19  1  0  0  0  0
  2  3  1  0  0  0  0
  4 19  1  0  0  0  0
  4  5  1  0  0  0  0
  5 12  1  6  0  0  0
  5 20  1  0  0  0  0
  6 18  1  0  0  0  0
  7  2  2  0  0  0  0
  8  9  2  0  0  0  0
  9  7  1  0  0  0  0
  9 14  1  0  0  0  0
 10 14  2  0  0  0  0
 10 15  1  0  0  0  0
 11  6  1  0  0  0  0
 12 11  1  0  0  0  0
 13  3  2  0  0  0  0
 14 13  1  0  0  0  0
 16  1  2  0  0  0  0
 17  4  2  0  0  0  0
 19 10  1  0  0  0  0
 20 15  1  6  0  0  0
 20 18  1  0  0  0  0
 21 16  1  0  0  0  0
 22 23  1  0  0  0  0
 23 21  1  0  0  0  0
 24 25  1  0  0  0  0
 24  8  1  0  0  0  0
 26 25  1  0  0  0  0
 26 27  1  0  0  0  0
 28 27  1  0  0  0  0
 29 32  2  0  0  0  0
 30 28  1  0  0  0  0
 30 29  1  0  0  0  0
 31 29  1  0  0  0  0
M  END
>  <MODEL>
5

>  <REMARK>
 VINA RESULT:      -7.1      3.444      8.724
  Name = 
  8 active torsions:
  status: ('A' for Active; 'I' for Inactive)
    1  A    between atoms: C_2  and  C_12
    2  A    between atoms: C_2  and  C_24
    3  A    between atoms: C_8  and  C_23
    4  A    between atoms: C_8  and  N_28
    5  A    between atoms: C_9  and  C_14
    6  A    between atoms: C_9  and  N_21
    7  A    between atoms: N_10  and  C_24
    8  A    between atoms: C_12  and  N_21
                            x       y       z     vdW  Elec       q    Type
                         _______ _______ _______ _____ _____    ______ ____

>  <TORSDO>
F 8

$$$$
=
 OpenBabel11052421313D

 32 35  0  0  1  0  0  0  0  0999 V2000
  189.2940  175.5510  145.6400 C   0  0  0  0  0  0  0  0  0  0  0  0
  190.0480  173.6690  141.2370 N   0  0  0  0  0  0  0  0  0  0  0  0
  188.9540  174.3140  140.7550 C   0  0  0  0  0  3  0  0  0  0  0  0
  187.2980  176.9700  146.0160 C   0  0  0  0  0  0  0  0  0  0  0  0
  186.3910  178.0350  145.4540 C   0  0  2  0  0  3  0  0  0  0  0  0
  184.5890  179.7980  144.2900 C   0  0  0  0  0  2  0  0  0  0  0  0
  190.4260  173.7880  142.5360 C   0  0  0  0  0  3  0  0  0  0  0  0
  190.0740  174.7260  144.7730 C   0  0  0  0  0  0  0  0  0  0  0  0
  189.6900  174.5870  143.4290 C   0  0  0  0  0  0  0  0  0  0  0  0
  187.8030  176.0540  143.8250 C   0  0  0  0  0  0  0  0  0  0  0  0
  184.0650  179.0370  145.5140 C   0  0  0  0  0  2  0  0  0  0  0  0
  184.9490  177.8530  145.9290 C   0  0  0  0  0  2  0  0  0  0  0  0
  188.1910  175.1180  141.6000 C   0  0  0  0  0  3  0  0  0  0  0  0
  188.5560  175.2590  142.9490 C   0  0  0  0  0  0  0  0  0  0  0  0
  186.5710  176.7460  143.3060 C   0  0  0  0  0  2  0  0  0  0  0  0
  189.6350  175.7750  146.8860 N   0  0  0  0  0  0  0  0  0  0  0  0
  187.2860  176.7860  147.2640 O   0  0  0  0  0  0  0  0  0  0  0  0
  185.2550  178.8480  143.2980 C   0  0  0  0  0  2  0  0  0  0  0  0
  188.1530  176.1660  145.1500 N   0  0  0  0  0  0  0  0  0  0  0  0
  186.4630  178.1300  143.9170 C   0  0  1  0  0  3  0  0  0  0  0  0
  190.7880  175.2920  147.6330 C   0  0  0  0  0  2  0  0  0  0  0  0
  192.6520  176.7190  147.3600 F   0  0  0  0  0  0  0  0  0  0  0  0
  191.5660  176.4690  148.1770 C   0  0  0  0  0  2  0  0  0  0  0  0
  191.2720  173.9490  145.2460 C   0  0  0  0  0  2  0  0  0  0  0  0
  192.4880  174.6570  144.8900 N   0  0  0  0  0  2  0  0  0  0  0  0
  193.5950  173.8780  145.4160 C   0  0  0  0  0  2  0  0  0  0  0  0
  193.7700  172.6120  144.5980 C   0  0  0  0  0  2  0  0  0  0  0  0
  194.9840  171.8400  145.0850 C   0  0  0  0  0  2  0  0  0  0  0  0
  195.4800  169.8140  146.5150 C   0  0  0  0  0  0  0  0  0  0  0  0
  194.5610  170.6560  145.8180 N   0  0  0  0  0  2  0  0  0  0  0  0
  194.9740  168.6330  147.2620 C   0  0  0  0  0  1  0  0  0  0  0  0
  196.7170  170.0580  146.4990 O   0  0  0  0  0  0  0  0  0  0  0  0
  1 16  2  0  0  0  0
  2  7  2  0  0  0  0
  3  2  1  0  0  0  0
  3 13  2  0  0  0  0
  4 17  2  0  0  0  0
  5 12  1  6  0  0  0
  5  4  1  0  0  0  0
  6 11  1  0  0  0  0
  7  9  1  0  0  0  0
  8 24  1  0  0  0  0
  8  1  1  0  0  0  0
  9  8  2  0  0  0  0
 10 19  1  0  0  0  0
 11 12  1  0  0  0  0
 13 14  1  0  0  0  0
 14  9  1  0  0  0  0
 14 10  2  0  0  0  0
 15 10  1  0  0  0  0
 15 20  1  0  0  0  0
 16 21  1  0  0  0  0
 18  6  1  0  0  0  0
 19  1  1  0  0  0  0
 19  4  1  0  0  0  0
 20 18  1  6  0  0  0
 20  5  1  0  0  0  0
 21 23  1  0  0  0  0
 22 23  1  0  0  0  0
 25 24  1  0  0  0  0
 25 26  1  0  0  0  0
 27 28  1  0  0  0  0
 27 26  1  0  0  0  0
 28 30  1  0  0  0  0
 29 31  1  0  0  0  0
 30 29  1  0  0  0  0
 32 29  2  0  0  0  0
M  END
>  <MODEL>
6

>  <REMARK>
 VINA RESULT:      -7.0      4.107      9.966
  Name = 
  8 active torsions:
  status: ('A' for Active; 'I' for Inactive)
    1  A    between atoms: C_2  and  C_12
    2  A    between atoms: C_2  and  C_24
    3  A    between atoms: C_8  and  C_23
    4  A    between atoms: C_8  and  N_28
    5  A    between atoms: C_9  and  C_14
    6  A    between atoms: C_9  and  N_21
    7  A    between atoms: N_10  and  C_24
    8  A    between atoms: C_12  and  N_21
                            x       y       z     vdW  Elec       q    Type
                         _______ _______ _______ _____ _____    ______ ____

>  <TORSDO>
F 8

$$$$
=
 OpenBabel11052421313D

 32 35  0  0  1  0  0  0  0  0999 V2000
  190.4470  175.3470  145.0270 C   0  0  0  0  0  0  0  0  0  0  0  0
  189.9290  173.7490  140.4800 N   0  0  0  0  0  0  0  0  0  0  0  0
  188.7010  174.3230  140.4000 C   0  0  0  0  0  3  0  0  0  0  0  0
  188.5760  176.5760  146.0900 C   0  0  0  0  0  0  0  0  0  0  0  0
  187.4740  177.5880  145.9060 C   0  0  2  0  0  3  0  0  0  0  0  0
  185.2920  179.2490  145.4720 C   0  0  0  0  0  2  0  0  0  0  0  0
  190.6800  173.8360  141.6090 C   0  0  0  0  0  3  0  0  0  0  0  0
  190.9740  174.6330  143.9070 C   0  0  0  0  0  0  0  0  0  0  0  0
  190.2050  174.5270  142.7370 C   0  0  0  0  0  0  0  0  0  0  0  0
  188.4410  175.8110  143.7890 C   0  0  0  0  0  0  0  0  0  0  0  0
  185.2190  178.3890  146.7400 C   0  0  0  0  0  2  0  0  0  0  0  0
  186.2630  177.2630  146.7830 C   0  0  0  0  0  2  0  0  0  0  0  0
  188.1850  175.0190  141.4910 C   0  0  0  0  0  3  0  0  0  0  0  0
  188.9370  175.1250  142.6720 C   0  0  0  0  0  0  0  0  0  0  0  0
  187.0670  176.4230  143.7190 C   0  0  0  0  0  2  0  0  0  0  0  0
  191.1390  175.5380  146.1240 N   0  0  0  0  0  0  0  0  0  0  0  0
  188.9600  176.3310  147.2670 O   0  0  0  0  0  0  0  0  0  0  0  0
  185.6800  178.4060  144.2600 C   0  0  0  0  0  2  0  0  0  0  0  0
  189.1730  175.8880  144.9510 N   0  0  0  0  0  0  0  0  0  0  0  0
  187.0630  177.7620  144.4310 C   0  0  1  0  0  3  0  0  0  0  0  0
  192.4950  175.1180  146.4490 C   0  0  0  0  0  2  0  0  0  0  0  0
  193.4170  176.9700  145.3080 F   0  0  0  0  0  0  0  0  0  0  0  0
  193.3940  176.3310  146.5330 C   0  0  0  0  0  2  0  0  0  0  0  0
  192.3070  173.9360  143.9390 C   0  0  0  0  0  2  0  0  0  0  0  0
  192.1450  172.5900  144.4580 N   0  0  0  0  0  2  0  0  0  0  0  0
  193.3510  171.8600  144.1110 C   0  0  0  0  0  2  0  0  0  0  0  0
  194.1930  171.6340  145.3530 C   0  0  0  0  0  2  0  0  0  0  0  0
  195.6560  171.9070  145.0470 C   0  0  0  0  0  2  0  0  0  0  0  0
  196.0350  174.3910  144.7590 C   0  0  0  0  0  0  0  0  0  0  0  0
  195.7790  173.0950  144.2160 N   0  0  0  0  0  2  0  0  0  0  0  0
  196.1710  175.5570  143.8470 C   0  0  0  0  0  1  0  0  0  0  0  0
  196.1420  174.5580  146.0030 O   0  0  0  0  0  0  0  0  0  0  0  0
  1 16  2  0  0  0  0
  2  7  2  0  0  0  0
  3  2  1  0  0  0  0
  3 13  2  0  0  0  0
  4 17  2  0  0  0  0
  5  4  1  0  0  0  0
  5 12  1  1  0  0  0
  6 11  1  0  0  0  0
  7  9  1  0  0  0  0
  8 24  1  0  0  0  0
  8  1  1  0  0  0  0
  9  8  2  0  0  0  0
 10 19  1  0  0  0  0
 11 12  1  0  0  0  0
 13 14  1  0  0  0  0
 14  9  1  0  0  0  0
 14 10  2  0  0  0  0
 15 10  1  0  0  0  0
 16 21  1  0  0  0  0
 18 20  1  0  0  0  0
 18  6  1  0  0  0  0
 19  1  1  0  0  0  0
 19  4  1  0  0  0  0
 20 15  1  1  0  0  0
 20  5  1  0  0  0  0
 21 23  1  0  0  0  0
 22 23  1  0  0  0  0
 24 25  1  0  0  0  0
 26 25  1  0  0  0  0
 26 27  1  0  0  0  0
 28 27  1  0  0  0  0
 29 32  2  0  0  0  0
 30 29  1  0  0  0  0
 30 28  1  0  0  0  0
 31 29  1  0  0  0  0
M  END
>  <MODEL>
7

>  <REMARK>
 VINA RESULT:      -6.9      4.421      9.618
  Name = 
  8 active torsions:
  status: ('A' for Active; 'I' for Inactive)
    1  A    between atoms: C_2  and  C_12
    2  A    between atoms: C_2  and  C_24
    3  A    between atoms: C_8  and  C_23
    4  A    between atoms: C_8  and  N_28
    5  A    between atoms: C_9  and  C_14
    6  A    between atoms: C_9  and  N_21
    7  A    between atoms: N_10  and  C_24
    8  A    between atoms: C_12  and  N_21
                            x       y       z     vdW  Elec       q    Type
                         _______ _______ _______ _____ _____    ______ ____

>  <TORSDO>
F 8

$$$$
=
 OpenBabel11052421313D

 32 35  0  0  1  0  0  0  0  0999 V2000
  188.7540  175.1020  143.4830 C   0  0  0  0  0  0  0  0  0  0  0  0
  192.2880  175.2770  146.7960 N   0  0  0  0  0  0  0  0  0  0  0  0
  191.5620  176.1420  147.5500 C   0  0  0  0  0  3  0  0  0  0  0  0
  186.7460  176.5190  143.7910 C   0  0  0  0  0  0  0  0  0  0  0  0
  185.7430  177.0790  144.7670 C   0  0  2  0  0  3  0  0  0  0  0  0
  184.0750  178.3080  146.6160 C   0  0  0  0  0  2  0  0  0  0  0  0
  191.8160  174.7940  145.6170 C   0  0  0  0  0  3  0  0  0  0  0  0
  190.0460  174.6810  143.9260 C   0  0  0  0  0  0  0  0  0  0  0  0
  190.5510  175.1790  145.1380 C   0  0  0  0  0  0  0  0  0  0  0  0
  188.5280  176.4770  145.4400 C   0  0  0  0  0  0  0  0  0  0  0  0
  184.1110  178.9620  145.2290 C   0  0  0  0  0  2  0  0  0  0  0  0
  185.2660  178.4700  144.3450 C   0  0  0  0  0  2  0  0  0  0  0  0
  190.3020  176.5540  147.1190 C   0  0  0  0  0  3  0  0  0  0  0  0
  189.7870  176.0740  145.9040 C   0  0  0  0  0  0  0  0  0  0  0  0
  187.7300  177.4600  146.2540 C   0  0  0  0  0  2  0  0  0  0  0  0
  188.1990  174.6250  142.3950 N   0  0  0  0  0  0  0  0  0  0  0  0
  186.4330  176.5050  142.5680 O   0  0  0  0  0  0  0  0  0  0  0  0
  185.4860  178.0440  147.1340 C   0  0  0  0  0  2  0  0  0  0  0  0
  188.0420  176.0210  144.2360 N   0  0  0  0  0  0  0  0  0  0  0  0
  186.2610  177.0850  146.2180 C   0  0  1  0  0  3  0  0  0  0  0  0
  188.7040  173.6350  141.4540 C   0  0  0  0  0  2  0  0  0  0  0  0
  187.8770  175.3570  140.0630 F   0  0  0  0  0  0  0  0  0  0  0  0
  188.5870  174.1720  140.0450 C   0  0  0  0  0  2  0  0  0  0  0  0
  190.9240  173.7600  143.1230 C   0  0  0  0  0  2  0  0  0  0  0  0
  191.7390  174.5360  142.2060 N   0  0  0  0  0  2  0  0  0  0  0  0
  192.6180  173.5970  141.5320 C   0  0  0  0  0  2  0  0  0  0  0  0
  192.2110  172.1750  141.8690 C   0  0  0  0  0  2  0  0  0  0  0  0
  192.6120  171.2370  140.7440 C   0  0  0  0  0  2  0  0  0  0  0  0
  190.9090  171.2290  138.8740 C   0  0  0  0  0  0  0  0  0  0  0  0
  191.4260  170.6980  140.0950 N   0  0  0  0  0  2  0  0  0  0  0  0
  189.7060  170.6140  138.2560 C   0  0  0  0  0  1  0  0  0  0  0  0
  191.4590  172.2160  138.3170 O   0  0  0  0  0  0  0  0  0  0  0  0
  1  8  1  0  0  0  0
  1 19  1  0  0  0  0
  2  3  1  0  0  0  0
  4 19  1  0  0  0  0
  4  5  1  0  0  0  0
  5 12  1  6  0  0  0
  5 20  1  0  0  0  0
  6 18  1  0  0  0  0
  7  2  2  0  0  0  0
  8  9  2  0  0  0  0
  9  7  1  0  0  0  0
  9 14  1  0  0  0  0
 10 14  2  0  0  0  0
 10 15  1  0  0  0  0
 11  6  1  0  0  0  0
 12 11  1  0  0  0  0
 13  3  2  0  0  0  0
 14 13  1  0  0  0  0
 16  1  2  0  0  0  0
 17  4  2  0  0  0  0
 19 10  1  0  0  0  0
 20 15  1  6  0  0  0
 20 18  1  0  0  0  0
 21 16  1  0  0  0  0
 23 22  1  0  0  0  0
 23 21  1  0  0  0  0
 24  8  1  0  0  0  0
 25 24  1  0  0  0  0
 26 27  1  0  0  0  0
 26 25  1  0  0  0  0
 28 27  1  0  0  0  0
 29 30  1  0  0  0  0
 30 28  1  0  0  0  0
 31 29  1  0  0  0  0
 32 29  2  0  0  0  0
M  END
>  <MODEL>
8

>  <REMARK>
 VINA RESULT:      -6.8      3.417      7.824
  Name = 
  8 active torsions:
  status: ('A' for Active; 'I' for Inactive)
    1  A    between atoms: C_2  and  C_12
    2  A    between atoms: C_2  and  C_24
    3  A    between atoms: C_8  and  C_23
    4  A    between atoms: C_8  and  N_28
    5  A    between atoms: C_9  and  C_14
    6  A    between atoms: C_9  and  N_21
    7  A    between atoms: N_10  and  C_24
    8  A    between atoms: C_12  and  N_21
                            x       y       z     vdW  Elec       q    Type
                         _______ _______ _______ _____ _____    ______ ____

>  <TORSDO>
F 8

$$$$
=
 OpenBabel11052421313D

 32 35  0  0  1  0  0  0  0  0999 V2000
  188.9410  174.9210  143.6870 C   0  0  0  0  0  0  0  0  0  0  0  0
  192.0670  175.4920  147.3480 N   0  0  0  0  0  0  0  0  0  0  0  0
  191.2940  176.4750  147.8770 C   0  0  0  0  0  3  0  0  0  0  0  0
  186.9720  176.4180  143.5430 C   0  0  0  0  0  0  0  0  0  0  0  0
  185.8860  177.1390  144.3000 C   0  0  2  0  0  3  0  0  0  0  0  0
  184.0660  178.6660  145.7380 C   0  0  0  0  0  2  0  0  0  0  0  0
  191.7150  174.8540  146.2010 C   0  0  0  0  0  3  0  0  0  0  0  0
  190.1530  174.5380  144.3400 C   0  0  0  0  0  0  0  0  0  0  0  0
  190.5340  175.1950  145.5210 C   0  0  0  0  0  0  0  0  0  0  0  0
  188.5450  176.5730  145.3860 C   0  0  0  0  0  0  0  0  0  0  0  0
  184.2920  179.1090  144.2870 C   0  0  0  0  0  2  0  0  0  0  0  0
  185.5210  178.4650  143.6290 C   0  0  0  0  0  2  0  0  0  0  0  0
  190.1120  176.8510  147.2410 C   0  0  0  0  0  3  0  0  0  0  0  0
  189.7230  176.2110  146.0540 C   0  0  0  0  0  0  0  0  0  0  0  0
  187.7000  177.6840  145.9490 C   0  0  0  0  0  2  0  0  0  0  0  0
  188.4970  174.3040  142.6190 N   0  0  0  0  0  0  0  0  0  0  0  0
  186.8040  176.2320  142.3060 O   0  0  0  0  0  0  0  0  0  0  0  0
  185.3940  178.4450  146.4560 C   0  0  0  0  0  2  0  0  0  0  0  0
  188.1850  175.9580  144.2100 N   0  0  0  0  0  0  0  0  0  0  0  0
  186.2300  177.3450  145.7880 C   0  0  1  0  0  3  0  0  0  0  0  0
  189.0660  173.1750  141.8970 C   0  0  0  0  0  2  0  0  0  0  0  0
  188.4060  174.6010  140.1320 F   0  0  0  0  0  0  0  0  0  0  0  0
  189.2380  173.5420  140.4390 C   0  0  0  0  0  2  0  0  0  0  0  0
  191.0790  173.4880  143.7900 C   0  0  0  0  0  2  0  0  0  0  0  0
  192.1800  174.1240  143.0890 N   0  0  0  0  0  2  0  0  0  0  0  0
  193.3070  173.2120  143.1670 C   0  0  0  0  0  2  0  0  0  0  0  0
  193.0380  172.1450  144.2110 C   0  0  0  0  0  2  0  0  0  0  0  0
  194.1130  171.0740  144.1520 C   0  0  0  0  0  2  0  0  0  0  0  0
  194.5480  169.2750  145.8760 C   0  0  0  0  0  0  0  0  0  0  0  0
  194.4710  170.6500  145.4970 N   0  0  0  0  0  2  0  0  0  0  0  0
  194.9430  168.9160  147.2630 C   0  0  0  0  0  1  0  0  0  0  0  0
  194.2800  168.3630  145.0480 O   0  0  0  0  0  0  0  0  0  0  0  0
  1 19  1  0  0  0  0
  1  8  1  0  0  0  0
  2  3  1  0  0  0  0
  4 19  1  0  0  0  0
  4  5  1  0  0  0  0
  5 12  1  6  0  0  0
  5 20  1  0  0  0  0
  6 18  1  0  0  0  0
  7  2  2  0  0  0  0
  8  9  2  0  0  0  0
  9 14  1  0  0  0  0
  9  7  1  0  0  0  0
 10 15  1  0  0  0  0
 10 14  2  0  0  0  0
 11  6  1  0  0  0  0
 12 11  1  0  0  0  0
 13  3  2  0  0  0  0
 14 13  1  0  0  0  0
 16  1  2  0  0  0  0
 17  4  2  0  0  0  0
 19 10  1  0  0  0  0
 20 15  1  6  0  0  0
 20 18  1  0  0  0  0
 21 16  1  0  0  0  0
 22 23  1  0  0  0  0
 23 21  1  0  0  0  0
 24  8  1  0  0  0  0
 25 26  1  0  0  0  0
 25 24  1  0  0  0  0
 26 27  1  0  0  0  0
 28 27  1  0  0  0  0
 28 30  1  0  0  0  0
 29 31  1  0  0  0  0
 30 29  1  0  0  0  0
 32 29  2  0  0  0  0
M  END
>  <MODEL>
9

>  <REMARK>
 VINA RESULT:      -6.8      3.476      9.056
  Name = 
  8 active torsions:
  status: ('A' for Active; 'I' for Inactive)
    1  A    between atoms: C_2  and  C_12
    2  A    between atoms: C_2  and  C_24
    3  A    between atoms: C_8  and  C_23
    4  A    between atoms: C_8  and  N_28
    5  A    between atoms: C_9  and  C_14
    6  A    between atoms: C_9  and  N_21
    7  A    between atoms: N_10  and  C_24
    8  A    between atoms: C_12  and  N_21
                            x       y       z     vdW  Elec       q    Type
                         _______ _______ _______ _____ _____    ______ ____

>  <TORSDO>
F 8

$$$$
