=
 OpenBabel11052417543D

 31 34  0  0  1  0  0  0  0  0999 V2000
  185.5630  178.3400  147.1380 C   0  0  0  0  0  0  0  0  0  0  0  0
  186.4710  177.8500  143.4930 C   0  0  0  0  0  0  0  0  0  0  0  0
  185.2210  178.0360  142.8310 C   0  0  0  0  0  0  0  0  0  0  0  0
  182.9940  178.4530  142.5350 N   0  0  0  0  0  0  0  0  0  0  0  0
  186.5590  177.9610  144.9280 C   0  0  0  0  0  0  0  0  0  0  0  0
  186.8010  178.1660  147.7480 C   0  0  0  0  0  3  0  0  0  0  0  0
  183.9940  178.3380  143.4300 C   0  0  0  0  0  3  0  0  0  0  0  0
  188.8890  177.3960  143.5140 C   0  0  0  0  0  0  0  0  0  0  0  0
  184.4690  178.6090  147.8900 F   0  0  0  0  0  0  0  0  0  0  0  0
  187.0210  177.4470  140.3530 C   0  0  0  0  0  3  0  0  0  0  0  0
  183.5360  178.2310  141.3310 C   0  0  0  0  0  0  0  0  0  0  0  0
  188.9120  177.5170  144.8570 N   0  0  0  0  0  0  0  0  0  0  0  0
  187.6880  177.5550  142.7850 C   0  0  0  0  0  0  0  0  0  0  0  0
  185.4490  178.2390  145.7510 C   0  0  0  0  0  3  0  0  0  0  0  0
  182.7830  178.2690  140.1230 N   0  0  0  0  0  1  0  0  0  0  0  0
  187.8060  177.7860  145.5740 C   0  0  0  0  0  0  0  0  0  0  0  0
  187.9200  177.8890  146.9650 C   0  0  0  0  0  3  0  0  0  0  0  0
  187.8240  177.3960  141.4380 N   0  0  0  0  0  0  0  0  0  0  0  0
  185.6750  177.7100  140.3260 C   0  0  0  0  0  3  0  0  0  0  0  0
  184.8830  177.9710  141.4130 C   0  0  0  0  0  0  0  0  0  0  0  0
  190.1920  177.1170  142.8230 C   0  0  0  0  0  2  0  0  0  0  0  0
  190.8430  174.4130  143.8070 C   0  0  0  0  0  1  0  0  0  0  0  0
  191.8980  177.8830  144.2930 O   0  0  0  0  0  0  0  0  0  0  0  0
  191.2820  176.8880  143.8230 C   0  0  0  0  0  0  0  0  0  0  0  0
  191.6300  175.5610  144.2470 N   0  0  0  0  0  0  0  0  0  0  0  0
  193.8310  174.5040  144.4500 C   0  0  0  0  0  1  0  0  0  0  0  0
  192.7800  175.3600  145.1320 C   0  0  2  0  0  3  0  0  0  0  0  0
  192.3620  174.7240  146.4530 C   0  0  0  0  0  2  0  0  0  0  0  0
  191.3500  175.5620  147.1640 C   0  0  0  0  0  0  0  0  0  0  0  0
  189.9830  175.0240  147.4070 C   0  0  0  0  0  1  0  0  0  0  0  0
  191.6270  176.6970  147.5200 O   0  0  0  0  0  0  0  0  0  0  0  0
  1  6  1  0  0  0  0
  1  9  1  0  0  0  0
  2  5  1  0  0  0  0
  3  7  2  0  0  0  0
  3  2  1  0  0  0  0
  4  7  1  0  0  0  0
  5 16  2  0  0  0  0
  5 14  1  0  0  0  0
  8 12  2  0  0  0  0
 10 18  2  0  0  0  0
 11 20  1  0  0  0  0
 11  4  2  0  0  0  0
 12 16  1  0  0  0  0
 13  2  2  0  0  0  0
 13  8  1  0  0  0  0
 14  1  2  0  0  0  0
 15 11  1  0  0  0  0
 16 17  1  0  0  0  0
 17  6  2  0  0  0  0
 18 13  1  0  0  0  0
 19 10  1  0  0  0  0
 19 20  2  0  0  0  0
 20  3  1  0  0  0  0
 21  8  1  0  0  0  0
 21 24  1  0  0  0  0
 22 25  1  0  0  0  0
 24 25  1  0  0  0  0
 24 23  2  0  0  0  0
 25 27  1  0  0  0  0
 27 26  1  6  0  0  0
 27 28  1  0  0  0  0
 28 29  1  0  0  0  0
 29 30  1  0  0  0  0
 29 31  2  0  0  0  0
M  END
>  <MODEL>
1

>  <REMARK>
 VINA RESULT:      -8.2      0.000      0.000
  Name = 
  5 active torsions:
  status: ('A' for Active; 'I' for Inactive)
    1  A    between atoms: C_1  and  C_24
    2  A    between atoms: C_9  and  C_23
    3  A    between atoms: C_15  and  C_23
    4  A    between atoms: C_19  and  N_22
    5  A    between atoms: C_19  and  C_24
                            x       y       z     vdW  Elec       q    Type
                         _______ _______ _______ _____ _____    ______ ____

>  <TORSDO>
F 5

$$$$
=
 OpenBabel11052417543D

 31 34  0  0  1  0  0  0  0  0999 V2000
  184.4690  178.5410  146.1930 C   0  0  0  0  0  0  0  0  0  0  0  0
  187.0300  176.7250  144.0730 C   0  0  0  0  0  0  0  0  0  0  0  0
  186.6150  177.0350  142.7440 C   0  0  0  0  0  0  0  0  0  0  0  0
  185.3950  177.9380  141.0360 N   0  0  0  0  0  0  0  0  0  0  0  0
  186.3010  177.2420  145.2050 C   0  0  0  0  0  0  0  0  0  0  0  0
  184.9120  178.2280  147.4740 C   0  0  0  0  0  3  0  0  0  0  0  0
  185.5280  177.8320  142.3730 C   0  0  0  0  0  3  0  0  0  0  0  0
  188.5300  175.6500  145.7020 C   0  0  0  0  0  0  0  0  0  0  0  0
  183.3730  179.3180  146.0250 F   0  0  0  0  0  0  0  0  0  0  0  0
  189.0820  175.2410  142.0950 C   0  0  0  0  0  3  0  0  0  0  0  0
  186.3870  177.2170  140.4990 C   0  0  0  0  0  0  0  0  0  0  0  0
  187.8130  176.1670  146.7210 N   0  0  0  0  0  0  0  0  0  0  0  0
  188.1770  175.9020  144.3560 C   0  0  0  0  0  0  0  0  0  0  0  0
  185.1560  178.0540  145.0800 C   0  0  0  0  0  3  0  0  0  0  0  0
  186.5770  177.0880  139.0940 N   0  0  0  0  0  1  0  0  0  0  0  0
  186.7290  176.9370  146.5190 C   0  0  0  0  0  0  0  0  0  0  0  0
  186.0410  177.4270  147.6350 C   0  0  0  0  0  3  0  0  0  0  0  0
  188.9920  175.3060  143.4400 N   0  0  0  0  0  0  0  0  0  0  0  0
  188.2600  175.8430  141.1760 C   0  0  0  0  0  3  0  0  0  0  0  0
  187.1770  176.6340  141.4600 C   0  0  0  0  0  0  0  0  0  0  0  0
  189.7330  174.8240  146.0520 C   0  0  0  0  0  2  0  0  0  0  0  0
  191.9120  173.5150  144.5530 C   0  0  0  0  0  1  0  0  0  0  0  0
  191.1460  176.7380  146.1080 O   0  0  0  0  0  0  0  0  0  0  0  0
  190.9940  175.5530  145.7030 C   0  0  0  0  0  0  0  0  0  0  0  0
  192.0200  174.9240  144.9190 N   0  0  0  0  0  0  0  0  0  0  0  0
  192.9410  176.3140  143.1240 C   0  0  0  0  0  1  0  0  0  0  0  0
  193.1850  175.7020  144.4910 C   0  0  2  0  0  3  0  0  0  0  0  0
  194.4470  174.8470  144.4650 C   0  0  0  0  0  2  0  0  0  0  0  0
  195.2170  174.9740  145.7390 C   0  0  0  0  0  0  0  0  0  0  0  0
  196.4180  174.1240  145.9660 C   0  0  0  0  0  1  0  0  0  0  0  0
  194.8490  175.7490  146.6090 O   0  0  0  0  0  0  0  0  0  0  0  0
  1  6  1  0  0  0  0
  2 13  2  0  0  0  0
  2  5  1  0  0  0  0
  3  2  1  0  0  0  0
  4  7  1  0  0  0  0
  5 16  2  0  0  0  0
  6 17  2  0  0  0  0
  7  3  2  0  0  0  0
  8 21  1  0  0  0  0
  8 12  2  0  0  0  0
  9  1  1  0  0  0  0
 10 18  2  0  0  0  0
 11  4  2  0  0  0  0
 11 20  1  0  0  0  0
 13  8  1  0  0  0  0
 14  5  1  0  0  0  0
 14  1  2  0  0  0  0
 15 11  1  0  0  0  0
 16 12  1  0  0  0  0
 16 17  1  0  0  0  0
 18 13  1  0  0  0  0
 19 20  2  0  0  0  0
 19 10  1  0  0  0  0
 20  3  1  0  0  0  0
 22 25  1  0  0  0  0
 24 21  1  0  0  0  0
 24 23  2  0  0  0  0
 25 24  1  0  0  0  0
 27 26  1  6  0  0  0
 27 25  1  0  0  0  0
 28 27  1  0  0  0  0
 28 29  1  0  0  0  0
 29 30  1  0  0  0  0
 29 31  2  0  0  0  0
M  END
>  <MODEL>
2

>  <REMARK>
 VINA RESULT:      -8.0      1.823      2.788
  Name = 
  5 active torsions:
  status: ('A' for Active; 'I' for Inactive)
    1  A    between atoms: C_1  and  C_24
    2  A    between atoms: C_9  and  C_23
    3  A    between atoms: C_15  and  C_23
    4  A    between atoms: C_19  and  N_22
    5  A    between atoms: C_19  and  C_24
                            x       y       z     vdW  Elec       q    Type
                         _______ _______ _______ _____ _____    ______ ____

>  <TORSDO>
F 5

$$$$
=
 OpenBabel11052417543D

 31 34  0  0  1  0  0  0  0  0999 V2000
  185.4870  178.3160  147.2190 C   0  0  0  0  0  0  0  0  0  0  0  0
  186.5670  177.6700  143.6450 C   0  0  0  0  0  0  0  0  0  0  0  0
  185.3710  177.9140  142.9070 C   0  0  0  0  0  0  0  0  0  0  0  0
  183.1950  178.4600  142.4710 N   0  0  0  0  0  0  0  0  0  0  0  0
  186.5800  177.8140  145.0800 C   0  0  0  0  0  0  0  0  0  0  0  0
  186.6750  178.0830  147.9030 C   0  0  0  0  0  3  0  0  0  0  0  0
  184.1340  178.3080  143.4260 C   0  0  0  0  0  3  0  0  0  0  0  0
  188.9460  177.0670  143.8180 C   0  0  0  0  0  0  0  0  0  0  0  0
  184.3710  178.6730  147.8990 F   0  0  0  0  0  0  0  0  0  0  0  0
  187.2670  177.1450  140.5540 C   0  0  0  0  0  3  0  0  0  0  0  0
  183.7900  178.1720  141.3070 C   0  0  0  0  0  0  0  0  0  0  0  0
  188.9010  177.2240  145.1570 N   0  0  0  0  0  0  0  0  0  0  0  0
  187.8010  177.2790  143.0170 C   0  0  0  0  0  0  0  0  0  0  0  0
  185.4450  178.1830  145.8300 C   0  0  0  0  0  3  0  0  0  0  0  0
  183.1100  178.2220  140.0570 N   0  0  0  0  0  1  0  0  0  0  0  0
  187.7750  177.5810  145.8020 C   0  0  0  0  0  0  0  0  0  0  0  0
  187.8170  177.7150  147.1940 C   0  0  0  0  0  3  0  0  0  0  0  0
  188.0030  177.0750  141.6840 N   0  0  0  0  0  0  0  0  0  0  0  0
  185.9440  177.4900  140.4420 C   0  0  0  0  0  3  0  0  0  0  0  0
  185.1100  177.8310  141.4740 C   0  0  0  0  0  0  0  0  0  0  0  0
  190.2650  176.6880  143.2110 C   0  0  0  0  0  2  0  0  0  0  0  0
  192.7700  177.2170  144.6810 C   0  0  0  0  0  1  0  0  0  0  0  0
  190.4450  174.4650  144.0380 O   0  0  0  0  0  0  0  0  0  0  0  0
  190.9370  175.6260  144.0260 C   0  0  0  0  0  0  0  0  0  0  0  0
  192.1210  175.9130  144.7860 N   0  0  0  0  0  0  0  0  0  0  0  0
  192.1730  175.0700  147.0850 C   0  0  0  0  0  1  0  0  0  0  0  0
  192.6830  174.8880  145.6670 C   0  0  2  0  0  3  0  0  0  0  0  0
  194.2070  174.9140  145.6520 C   0  0  0  0  0  2  0  0  0  0  0  0
  194.7670  173.6170  145.1630 C   0  0  0  0  0  0  0  0  0  0  0  0
  194.0420  172.3470  145.4400 C   0  0  0  0  0  1  0  0  0  0  0  0
  195.8320  173.5900  144.5650 O   0  0  0  0  0  0  0  0  0  0  0  0
  1  9  1  0  0  0  0
  1  6  1  0  0  0  0
  2  5  1  0  0  0  0
  3  7  2  0  0  0  0
  3  2  1  0  0  0  0
  4  7  1  0  0  0  0
  5 16  2  0  0  0  0
  5 14  1  0  0  0  0
  8 12  2  0  0  0  0
 10 18  2  0  0  0  0
 11 20  1  0  0  0  0
 11  4  2  0  0  0  0
 12 16  1  0  0  0  0
 13  2  2  0  0  0  0
 13  8  1  0  0  0  0
 14  1  2  0  0  0  0
 15 11  1  0  0  0  0
 16 17  1  0  0  0  0
 17  6  2  0  0  0  0
 18 13  1  0  0  0  0
 19 10  1  0  0  0  0
 19 20  2  0  0  0  0
 20  3  1  0  0  0  0
 21  8  1  0  0  0  0
 21 24  1  0  0  0  0
 22 25  1  0  0  0  0
 24 23  2  0  0  0  0
 24 25  1  0  0  0  0
 25 27  1  0  0  0  0
 27 26  1  1  0  0  0
 28 27  1  0  0  0  0
 29 30  1  0  0  0  0
 29 28  1  0  0  0  0
 31 29  2  0  0  0  0
M  END
>  <MODEL>
3

>  <REMARK>
 VINA RESULT:      -7.8      1.458      2.035
  Name = 
  5 active torsions:
  status: ('A' for Active; 'I' for Inactive)
    1  A    between atoms: C_1  and  C_24
    2  A    between atoms: C_9  and  C_23
    3  A    between atoms: C_15  and  C_23
    4  A    between atoms: C_19  and  N_22
    5  A    between atoms: C_19  and  C_24
                            x       y       z     vdW  Elec       q    Type
                         _______ _______ _______ _____ _____    ______ ____

>  <TORSDO>
F 5

$$$$
=
 OpenBabel11052417543D

 31 34  0  0  1  0  0  0  0  0999 V2000
  185.1000  178.1100  140.5040 C   0  0  0  0  0  0  0  0  0  0  0  0
  186.8000  176.9950  143.7010 C   0  0  0  0  0  0  0  0  0  0  0  0
  185.9450  177.5250  144.7120 C   0  0  0  0  0  0  0  0  0  0  0  0
  184.1840  178.6200  145.6720 N   0  0  0  0  0  0  0  0  0  0  0  0
  186.4940  177.2000  142.3070 C   0  0  0  0  0  0  0  0  0  0  0  0
  185.9490  177.5660  139.5460 C   0  0  0  0  0  3  0  0  0  0  0  0
  184.7710  178.2580  144.5140 C   0  0  0  0  0  3  0  0  0  0  0  0
  188.7740  175.7360  142.9450 C   0  0  0  0  0  0  0  0  0  0  0  0
  184.0090  178.8160  140.1210 F   0  0  0  0  0  0  0  0  0  0  0  0
  188.0920  176.1740  146.5260 C   0  0  0  0  0  3  0  0  0  0  0  0
  184.9530  178.1350  146.6540 C   0  0  0  0  0  0  0  0  0  0  0  0
  188.4350  175.9540  141.6580 N   0  0  0  0  0  0  0  0  0  0  0  0
  187.9850  176.2380  144.0060 C   0  0  0  0  0  0  0  0  0  0  0  0
  185.3720  177.9270  141.8610 C   0  0  0  0  0  3  0  0  0  0  0  0
  184.6530  178.3150  148.0350 N   0  0  0  0  0  1  0  0  0  0  0  0
  187.3430  176.6590  141.3110 C   0  0  0  0  0  0  0  0  0  0  0  0
  187.0690  176.8420  139.9510 C   0  0  0  0  0  3  0  0  0  0  0  0
  188.4610  175.9410  145.2480 N   0  0  0  0  0  0  0  0  0  0  0  0
  186.9890  176.8640  146.9620 C   0  0  0  0  0  3  0  0  0  0  0  0
  186.0440  177.4560  146.1660 C   0  0  0  0  0  0  0  0  0  0  0  0
  190.0030  174.9150  143.2060 C   0  0  0  0  0  2  0  0  0  0  0  0
  192.6670  173.8240  143.8560 C   0  0  0  0  0  1  0  0  0  0  0  0
  191.0990  177.0150  142.9900 O   0  0  0  0  0  0  0  0  0  0  0  0
  191.2250  175.7810  143.2140 C   0  0  0  0  0  0  0  0  0  0  0  0
  192.5240  175.2250  143.4710 N   0  0  0  0  0  0  0  0  0  0  0  0
  194.4330  175.7960  142.0460 C   0  0  0  0  0  1  0  0  0  0  0  0
  193.7110  176.0740  143.3520 C   0  0  2  0  0  3  0  0  0  0  0  0
  194.6610  175.8720  144.5270 C   0  0  0  0  0  2  0  0  0  0  0  0
  194.3480  176.8130  145.6460 C   0  0  0  0  0  0  0  0  0  0  0  0
  193.3420  176.4310  146.6740 C   0  0  0  0  0  1  0  0  0  0  0  0
  194.8900  177.9060  145.7040 O   0  0  0  0  0  0  0  0  0  0  0  0
  1 14  1  0  0  0  0
  2 13  2  0  0  0  0
  2  3  1  0  0  0  0
  3 20  1  0  0  0  0
  4 11  2  0  0  0  0
  5  2  1  0  0  0  0
  6 17  1  0  0  0  0
  6  1  2  0  0  0  0
  7  3  2  0  0  0  0
  7  4  1  0  0  0  0
  8 21  1  0  0  0  0
  8 13  1  0  0  0  0
  9  1  1  0  0  0  0
 10 19  1  0  0  0  0
 11 15  1  0  0  0  0
 12  8  2  0  0  0  0
 13 18  1  0  0  0  0
 14  5  2  0  0  0  0
 16 12  1  0  0  0  0
 16  5  1  0  0  0  0
 17 16  2  0  0  0  0
 18 10  2  0  0  0  0
 20 11  1  0  0  0  0
 20 19  2  0  0  0  0
 21 24  1  0  0  0  0
 23 24  2  0  0  0  0
 24 25  1  0  0  0  0
 25 22  1  0  0  0  0
 27 26  1  6  0  0  0
 27 25  1  0  0  0  0
 27 28  1  0  0  0  0
 28 29  1  0  0  0  0
 29 31  2  0  0  0  0
 29 30  1  0  0  0  0
M  END
>  <MODEL>
4

>  <REMARK>
 VINA RESULT:      -7.7      2.404      4.432
  Name = 
  5 active torsions:
  status: ('A' for Active; 'I' for Inactive)
    1  A    between atoms: C_1  and  C_24
    2  A    between atoms: C_9  and  C_23
    3  A    between atoms: C_15  and  C_23
    4  A    between atoms: C_19  and  N_22
    5  A    between atoms: C_19  and  C_24
                            x       y       z     vdW  Elec       q    Type
                         _______ _______ _______ _____ _____    ______ ____

>  <TORSDO>
F 5

$$$$
=
 OpenBabel11052417543D

 31 34  0  0  1  0  0  0  0  0999 V2000
  185.5120  178.3030  147.2690 C   0  0  0  0  0  0  0  0  0  0  0  0
  186.5870  177.8840  143.6600 C   0  0  0  0  0  0  0  0  0  0  0  0
  185.3640  178.0600  142.9470 C   0  0  0  0  0  0  0  0  0  0  0  0
  183.1450  178.4440  142.5590 N   0  0  0  0  0  0  0  0  0  0  0  0
  186.6100  177.9740  145.0990 C   0  0  0  0  0  0  0  0  0  0  0  0
  186.7250  178.1400  147.9300 C   0  0  0  0  0  3  0  0  0  0  0  0
  184.1080  178.3310  143.4960 C   0  0  0  0  0  3  0  0  0  0  0  0
  189.0090  177.4700  143.7810 C   0  0  0  0  0  0  0  0  0  0  0  0
  184.3820  178.5420  147.9760 F   0  0  0  0  0  0  0  0  0  0  0  0
  187.2810  177.5380  140.5420 C   0  0  0  0  0  3  0  0  0  0  0  0
  183.7440  178.2500  141.3770 C   0  0  0  0  0  0  0  0  0  0  0  0
  188.9710  177.5710  145.1260 N   0  0  0  0  0  0  0  0  0  0  0  0
  187.8390  177.6200  143.0020 C   0  0  0  0  0  0  0  0  0  0  0  0
  185.4600  178.2210  145.8770 C   0  0  0  0  0  3  0  0  0  0  0  0
  183.0430  178.2940  140.1380 N   0  0  0  0  0  1  0  0  0  0  0  0
  187.8310  177.8100  145.7970 C   0  0  0  0  0  0  0  0  0  0  0  0
  187.8820  177.8940  147.1930 C   0  0  0  0  0  3  0  0  0  0  0  0
  188.0360  177.4840  141.6610 N   0  0  0  0  0  0  0  0  0  0  0  0
  185.9330  177.7790  140.4600 C   0  0  0  0  0  3  0  0  0  0  0  0
  185.0900  178.0110  141.5150 C   0  0  0  0  0  0  0  0  0  0  0  0
  190.3450  177.2230  143.1440 C   0  0  0  0  0  2  0  0  0  0  0  0
  192.7420  176.8170  144.8170 C   0  0  0  0  0  1  0  0  0  0  0  0
  190.2560  174.8510  142.9870 O   0  0  0  0  0  0  0  0  0  0  0  0
  190.8460  175.8520  143.4790 C   0  0  0  0  0  0  0  0  0  0  0  0
  191.9760  175.6670  144.3450 N   0  0  0  0  0  0  0  0  0  0  0  0
  192.9910  174.3350  146.1330 C   0  0  0  0  0  1  0  0  0  0  0  0
  192.3650  174.3150  144.7500 C   0  0  2  0  0  3  0  0  0  0  0  0
  193.3280  173.6880  143.7490 C   0  0  0  0  0  2  0  0  0  0  0  0
  192.7220  172.4930  143.0870 C   0  0  0  0  0  0  0  0  0  0  0  0
  192.1050  171.4220  143.9160 C   0  0  0  0  0  1  0  0  0  0  0  0
  192.7570  172.3750  141.8710 O   0  0  0  0  0  0  0  0  0  0  0  0
  1  6  1  0  0  0  0
  1  9  1  0  0  0  0
  2  5  1  0  0  0  0
  3  7  2  0  0  0  0
  3  2  1  0  0  0  0
  4  7  1  0  0  0  0
  5 16  2  0  0  0  0
  5 14  1  0  0  0  0
  8 12  2  0  0  0  0
 10 18  2  0  0  0  0
 11 20  1  0  0  0  0
 11  4  2  0  0  0  0
 12 16  1  0  0  0  0
 13  2  2  0  0  0  0
 13  8  1  0  0  0  0
 14  1  2  0  0  0  0
 15 11  1  0  0  0  0
 16 17  1  0  0  0  0
 17  6  2  0  0  0  0
 18 13  1  0  0  0  0
 19 10  1  0  0  0  0
 19 20  2  0  0  0  0
 20  3  1  0  0  0  0
 21 24  1  0  0  0  0
 21  8  1  0  0  0  0
 23 24  2  0  0  0  0
 24 25  1  0  0  0  0
 25 27  1  0  0  0  0
 25 22  1  0  0  0  0
 27 26  1  1  0  0  0
 28 27  1  0  0  0  0
 29 28  1  0  0  0  0
 29 30  1  0  0  0  0
 31 29  2  0  0  0  0
M  END
>  <MODEL>
5

>  <REMARK>
 VINA RESULT:      -7.6      1.572      2.203
  Name = 
  5 active torsions:
  status: ('A' for Active; 'I' for Inactive)
    1  A    between atoms: C_1  and  C_24
    2  A    between atoms: C_9  and  C_23
    3  A    between atoms: C_15  and  C_23
    4  A    between atoms: C_19  and  N_22
    5  A    between atoms: C_19  and  C_24
                            x       y       z     vdW  Elec       q    Type
                         _______ _______ _______ _____ _____    ______ ____

>  <TORSDO>
F 5

$$$$
=
 OpenBabel11052417543D

 31 34  0  0  1  0  0  0  0  0999 V2000
  185.1910  178.2070  140.5120 C   0  0  0  0  0  0  0  0  0  0  0  0
  186.8730  176.9760  143.6760 C   0  0  0  0  0  0  0  0  0  0  0  0
  186.0990  177.5940  144.7030 C   0  0  0  0  0  0  0  0  0  0  0  0
  184.4740  178.8560  145.6960 N   0  0  0  0  0  0  0  0  0  0  0  0
  186.5480  177.1930  142.2880 C   0  0  0  0  0  0  0  0  0  0  0  0
  185.9600  177.5760  139.5390 C   0  0  0  0  0  3  0  0  0  0  0  0
  184.9920  178.4290  144.5280 C   0  0  0  0  0  3  0  0  0  0  0  0
  188.7020  175.5330  142.8830 C   0  0  0  0  0  0  0  0  0  0  0  0
  184.1590  179.0050  140.1500 F   0  0  0  0  0  0  0  0  0  0  0  0
  188.1650  176.0710  146.4750 C   0  0  0  0  0  3  0  0  0  0  0  0
  185.2240  178.3130  146.6630 C   0  0  0  0  0  0  0  0  0  0  0  0
  188.3460  175.7670  141.6030 N   0  0  0  0  0  0  0  0  0  0  0  0
  187.9930  176.1160  143.9580 C   0  0  0  0  0  0  0  0  0  0  0  0
  185.4840  178.0140  141.8630 C   0  0  0  0  0  3  0  0  0  0  0  0
  184.9810  178.5360  148.0490 N   0  0  0  0  0  1  0  0  0  0  0  0
  187.3140  176.5660  141.2770 C   0  0  0  0  0  0  0  0  0  0  0  0
  187.0200  176.7580  139.9230 C   0  0  0  0  0  3  0  0  0  0  0  0
  188.4740  175.7910  145.1910 N   0  0  0  0  0  0  0  0  0  0  0  0
  187.1430  176.8640  146.9320 C   0  0  0  0  0  3  0  0  0  0  0  0
  186.2330  177.5320  146.1540 C   0  0  0  0  0  0  0  0  0  0  0  0
  189.8570  174.6050  143.1210 C   0  0  0  0  0  2  0  0  0  0  0  0
  191.6140  173.9700  140.8370 C   0  0  0  0  0  1  0  0  0  0  0  0
  188.7460  172.5620  142.6210 O   0  0  0  0  0  0  0  0  0  0  0  0
  189.6930  173.3430  142.3320 C   0  0  0  0  0  0  0  0  0  0  0  0
  190.5940  173.0170  141.2630 N   0  0  0  0  0  0  0  0  0  0  0  0
  191.7450  170.9050  140.7960 C   0  0  0  0  0  1  0  0  0  0  0  0
  190.4820  171.7200  140.5910 C   0  0  2  0  0  3  0  0  0  0  0  0
  190.2020  171.8860  139.1010 C   0  0  0  0  0  2  0  0  0  0  0  0
  188.9510  172.6700  138.8670 C   0  0  0  0  0  0  0  0  0  0  0  0
  188.9920  173.8920  138.0190 C   0  0  0  0  0  1  0  0  0  0  0  0
  187.9010  172.3310  139.3930 O   0  0  0  0  0  0  0  0  0  0  0  0
  1 14  1  0  0  0  0
  2 13  2  0  0  0  0
  2  3  1  0  0  0  0
  3 20  1  0  0  0  0
  4 11  2  0  0  0  0
  5  2  1  0  0  0  0
  6 17  1  0  0  0  0
  6  1  2  0  0  0  0
  7  3  2  0  0  0  0
  7  4  1  0  0  0  0
  8 21  1  0  0  0  0
  8 13  1  0  0  0  0
  9  1  1  0  0  0  0
 10 19  1  0  0  0  0
 11 15  1  0  0  0  0
 12  8  2  0  0  0  0
 13 18  1  0  0  0  0
 14  5  2  0  0  0  0
 16 12  1  0  0  0  0
 16  5  1  0  0  0  0
 17 16  2  0  0  0  0
 18 10  2  0  0  0  0
 20 11  1  0  0  0  0
 20 19  2  0  0  0  0
 22 25  1  0  0  0  0
 24 23  2  0  0  0  0
 24 21  1  0  0  0  0
 25 24  1  0  0  0  0
 27 26  1  6  0  0  0
 27 25  1  0  0  0  0
 28 27  1  0  0  0  0
 29 28  1  0  0  0  0
 29 31  2  0  0  0  0
 30 29  1  0  0  0  0
M  END
>  <MODEL>
6

>  <REMARK>
 VINA RESULT:      -7.4      3.553      5.782
  Name = 
  5 active torsions:
  status: ('A' for Active; 'I' for Inactive)
    1  A    between atoms: C_1  and  C_24
    2  A    between atoms: C_9  and  C_23
    3  A    between atoms: C_15  and  C_23
    4  A    between atoms: C_19  and  N_22
    5  A    between atoms: C_19  and  C_24
                            x       y       z     vdW  Elec       q    Type
                         _______ _______ _______ _____ _____    ______ ____

>  <TORSDO>
F 5

$$$$
=
 OpenBabel11052417543D

 31 34  0  0  1  0  0  0  0  0999 V2000
  191.1110  176.1840  147.5780 C   0  0  0  0  0  0  0  0  0  0  0  0
  188.3570  176.4180  144.9860 C   0  0  0  0  0  0  0  0  0  0  0  0
  187.3260  177.1120  145.6850 C   0  0  0  0  0  0  0  0  0  0  0  0
  186.2420  178.1990  147.3770 N   0  0  0  0  0  0  0  0  0  0  0  0
  189.6100  176.1240  145.6370 C   0  0  0  0  0  0  0  0  0  0  0  0
  192.0980  175.5180  146.8590 C   0  0  0  0  0  3  0  0  0  0  0  0
  187.3780  177.5800  147.0010 C   0  0  0  0  0  3  0  0  0  0  0  0
  189.2880  175.3130  142.9940 C   0  0  0  0  0  0  0  0  0  0  0  0
  191.3350  176.5450  148.8630 F   0  0  0  0  0  0  0  0  0  0  0  0
  185.8890  176.7010  142.9480 C   0  0  0  0  0  3  0  0  0  0  0  0
  185.4190  178.1530  146.3220 C   0  0  0  0  0  0  0  0  0  0  0  0
  190.4410  175.0710  143.6520 N   0  0  0  0  0  0  0  0  0  0  0  0
  188.2140  175.9850  143.6200 C   0  0  0  0  0  0  0  0  0  0  0  0
  189.8890  176.4800  146.9720 C   0  0  0  0  0  3  0  0  0  0  0  0
  184.1090  178.7110  146.3360 N   0  0  0  0  0  1  0  0  0  0  0  0
  190.6310  175.4450  144.9300 C   0  0  0  0  0  0  0  0  0  0  0  0
  191.8570  175.1490  145.5370 C   0  0  0  0  0  3  0  0  0  0  0  0
  187.1160  176.1480  142.8300 N   0  0  0  0  0  0  0  0  0  0  0  0
  185.3620  177.3290  144.0480 C   0  0  0  0  0  3  0  0  0  0  0  0
  185.9930  177.5120  145.2500 C   0  0  0  0  0  0  0  0  0  0  0  0
  189.2030  174.8670  141.5630 C   0  0  0  0  0  2  0  0  0  0  0  0
  191.5640  173.3970  140.5760 C   0  0  0  0  0  1  0  0  0  0  0  0
  188.1710  172.7350  141.7770 O   0  0  0  0  0  0  0  0  0  0  0  0
  189.2150  173.3730  141.4730 C   0  0  0  0  0  0  0  0  0  0  0  0
  190.3920  172.6660  141.0510 N   0  0  0  0  0  0  0  0  0  0  0  0
  191.0800  170.7150  142.3630 C   0  0  0  0  0  1  0  0  0  0  0  0
  190.4120  171.2030  141.0900 C   0  0  2  0  0  3  0  0  0  0  0  0
  191.1210  170.6220  139.8720 C   0  0  0  0  0  2  0  0  0  0  0  0
  190.1570  170.3400  138.7650 C   0  0  0  0  0  0  0  0  0  0  0  0
  190.2180  169.0390  138.0450 C   0  0  0  0  0  1  0  0  0  0  0  0
  189.3390  171.1830  138.4270 O   0  0  0  0  0  0  0  0  0  0  0  0
  1  9  1  0  0  0  0
  2  5  1  0  0  0  0
  2  3  1  0  0  0  0
  3  7  2  0  0  0  0
  5 14  2  0  0  0  0
  6  1  2  0  0  0  0
  7  4  1  0  0  0  0
  8 13  1  0  0  0  0
  8 12  2  0  0  0  0
 10 19  1  0  0  0  0
 11 15  1  0  0  0  0
 11  4  2  0  0  0  0
 12 16  1  0  0  0  0
 13  2  2  0  0  0  0
 14  1  1  0  0  0  0
 16 17  2  0  0  0  0
 16  5  1  0  0  0  0
 17  6  1  0  0  0  0
 18 10  2  0  0  0  0
 18 13  1  0  0  0  0
 19 20  2  0  0  0  0
 20  3  1  0  0  0  0
 20 11  1  0  0  0  0
 21  8  1  0  0  0  0
 22 25  1  0  0  0  0
 24 21  1  0  0  0  0
 24 23  2  0  0  0  0
 25 27  1  0  0  0  0
 25 24  1  0  0  0  0
 27 26  1  1  0  0  0
 28 27  1  0  0  0  0
 29 28  1  0  0  0  0
 30 29  1  0  0  0  0
 31 29  2  0  0  0  0
M  END
>  <MODEL>
7

>  <REMARK>
 VINA RESULT:      -7.4      3.870      5.643
  Name = 
  5 active torsions:
  status: ('A' for Active; 'I' for Inactive)
    1  A    between atoms: C_1  and  C_24
    2  A    between atoms: C_9  and  C_23
    3  A    between atoms: C_15  and  C_23
    4  A    between atoms: C_19  and  N_22
    5  A    between atoms: C_19  and  C_24
                            x       y       z     vdW  Elec       q    Type
                         _______ _______ _______ _____ _____    ______ ____

>  <TORSDO>
F 5

$$$$
=
 OpenBabel11052417543D

 31 34  0  0  1  0  0  0  0  0999 V2000
  190.6130  171.3540  142.6840 C   0  0  0  0  0  0  0  0  0  0  0  0
  192.2810  174.2980  144.3870 C   0  0  0  0  0  0  0  0  0  0  0  0
  193.5550  173.7700  144.7500 C   0  0  0  0  0  0  0  0  0  0  0  0
  195.2740  172.2810  144.9680 N   0  0  0  0  0  0  0  0  0  0  0  0
  191.3200  173.4740  143.6960 C   0  0  0  0  0  0  0  0  0  0  0  0
  189.3860  171.9080  142.3330 C   0  0  0  0  0  3  0  0  0  0  0  0
  194.0260  172.4770  144.5010 C   0  0  0  0  0  3  0  0  0  0  0  0
  190.6130  176.1040  144.2730 C   0  0  0  0  0  0  0  0  0  0  0  0
  190.8880  170.0640  142.3750 F   0  0  0  0  0  0  0  0  0  0  0  0
  193.8650  176.6570  145.8870 C   0  0  0  0  0  3  0  0  0  0  0  0
  195.6530  173.4340  145.5320 C   0  0  0  0  0  0  0  0  0  0  0  0
  189.7580  175.2890  143.6230 N   0  0  0  0  0  0  0  0  0  0  0  0
  191.8910  175.6530  144.6770 C   0  0  0  0  0  0  0  0  0  0  0  0
  191.5610  172.1280  143.3530 C   0  0  0  0  0  3  0  0  0  0  0  0
  196.9280  173.6170  146.1410 N   0  0  0  0  0  1  0  0  0  0  0  0
  190.0630  174.0120  143.3300 C   0  0  0  0  0  0  0  0  0  0  0  0
  189.1130  173.2350  142.6570 C   0  0  0  0  0  3  0  0  0  0  0  0
  192.6370  176.5890  145.3290 N   0  0  0  0  0  0  0  0  0  0  0  0
  194.8080  175.6630  145.9480 C   0  0  0  0  0  3  0  0  0  0  0  0
  194.6740  174.3940  145.4470 C   0  0  0  0  0  0  0  0  0  0  0  0
  190.1680  177.5150  144.5230 C   0  0  0  0  0  2  0  0  0  0  0  0
  188.1250  178.2500  142.5240 C   0  0  0  0  0  1  0  0  0  0  0  0
  188.3600  177.3240  146.0560 O   0  0  0  0  0  0  0  0  0  0  0  0
  188.7120  177.5570  144.8680 C   0  0  0  0  0  0  0  0  0  0  0  0
  187.7230  177.8550  143.8710 N   0  0  0  0  0  0  0  0  0  0  0  0
  185.5120  177.1900  143.0500 C   0  0  0  0  0  1  0  0  0  0  0  0
  186.3010  177.7680  144.2110 C   0  0  2  0  0  3  0  0  0  0  0  0
  185.7370  179.1300  144.6000 C   0  0  0  0  0  2  0  0  0  0  0  0
  184.9060  179.0390  145.8390 C   0  0  0  0  0  0  0  0  0  0  0  0
  185.5660  179.0400  147.1740 C   0  0  0  0  0  1  0  0  0  0  0  0
  183.6910  178.9330  145.7630 O   0  0  0  0  0  0  0  0  0  0  0  0
  1 14  1  0  0  0  0
  2 13  2  0  0  0  0
  2  3  1  0  0  0  0
  3 20  1  0  0  0  0
  4 11  2  0  0  0  0
  5  2  1  0  0  0  0
  6 17  1  0  0  0  0
  6  1  2  0  0  0  0
  7  3  2  0  0  0  0
  7  4  1  0  0  0  0
  8 21  1  0  0  0  0
  8 13  1  0  0  0  0
  9  1  1  0  0  0  0
 10 19  1  0  0  0  0
 11 15  1  0  0  0  0
 12  8  2  0  0  0  0
 13 18  1  0  0  0  0
 14  5  2  0  0  0  0
 16 12  1  0  0  0  0
 16  5  1  0  0  0  0
 17 16  2  0  0  0  0
 18 10  2  0  0  0  0
 20 11  1  0  0  0  0
 20 19  2  0  0  0  0
 21 24  1  0  0  0  0
 22 25  1  0  0  0  0
 24 23  2  0  0  0  0
 25 27  1  0  0  0  0
 25 24  1  0  0  0  0
 27 26  1  6  0  0  0
 27 28  1  0  0  0  0
 28 29  1  0  0  0  0
 29 30  1  0  0  0  0
 31 29  2  0  0  0  0
M  END
>  <MODEL>
8

>  <REMARK>
 VINA RESULT:      -7.3      3.440      8.511
  Name = 
  5 active torsions:
  status: ('A' for Active; 'I' for Inactive)
    1  A    between atoms: C_1  and  C_24
    2  A    between atoms: C_9  and  C_23
    3  A    between atoms: C_15  and  C_23
    4  A    between atoms: C_19  and  N_22
    5  A    between atoms: C_19  and  C_24
                            x       y       z     vdW  Elec       q    Type
                         _______ _______ _______ _____ _____    ______ ____

>  <TORSDO>
F 5

$$$$
=
 OpenBabel11052417543D

 31 34  0  0  1  0  0  0  0  0999 V2000
  190.7620  171.3550  142.7420 C   0  0  0  0  0  0  0  0  0  0  0  0
  192.3190  174.1450  144.7790 C   0  0  0  0  0  0  0  0  0  0  0  0
  193.6870  173.7480  144.8600 C   0  0  0  0  0  0  0  0  0  0  0  0
  195.5810  172.5090  144.5470 N   0  0  0  0  0  0  0  0  0  0  0  0
  191.3660  173.3330  144.0640 C   0  0  0  0  0  0  0  0  0  0  0  0
  189.4400  171.7820  142.6730 C   0  0  0  0  0  3  0  0  0  0  0  0
  194.2610  172.6060  144.2940 C   0  0  0  0  0  3  0  0  0  0  0  0
  190.4550  175.6810  145.2500 C   0  0  0  0  0  0  0  0  0  0  0  0
  191.1350  170.1980  142.1450 F   0  0  0  0  0  0  0  0  0  0  0  0
  193.8300  176.3910  146.5100 C   0  0  0  0  0  3  0  0  0  0  0  0
  195.9050  173.5810  145.2800 C   0  0  0  0  0  0  0  0  0  0  0  0
  189.6100  174.8840  144.5630 N   0  0  0  0  0  0  0  0  0  0  0  0
  191.8240  175.3520  145.3860 C   0  0  0  0  0  0  0  0  0  0  0  0
  191.7060  172.1220  143.4270 C   0  0  0  0  0  3  0  0  0  0  0  0
  197.2290  173.8310  145.7440 N   0  0  0  0  0  1  0  0  0  0  0  0
  190.0130  173.7410  143.9800 C   0  0  0  0  0  0  0  0  0  0  0  0
  189.0680  172.9730  143.2920 C   0  0  0  0  0  3  0  0  0  0  0  0
  192.5470  176.2500  146.1120 N   0  0  0  0  0  0  0  0  0  0  0  0
  194.8810  175.5490  146.2450 C   0  0  0  0  0  3  0  0  0  0  0  0
  194.8200  174.3890  145.5190 C   0  0  0  0  0  0  0  0  0  0  0  0
  189.8930  176.9420  145.8370 C   0  0  0  0  0  2  0  0  0  0  0  0
  187.0460  176.8810  146.6120 C   0  0  0  0  0  1  0  0  0  0  0  0
  189.1500  177.9700  143.8240 O   0  0  0  0  0  0  0  0  0  0  0  0
  188.8260  177.5070  144.9510 C   0  0  0  0  0  0  0  0  0  0  0  0
  187.4510  177.5270  145.3680 N   0  0  0  0  0  0  0  0  0  0  0  0
  185.5750  179.1020  145.3780 C   0  0  0  0  0  1  0  0  0  0  0  0
  186.4510  178.1950  144.5330 C   0  0  2  0  0  3  0  0  0  0  0  0
  185.5880  177.1870  143.7820 C   0  0  0  0  0  2  0  0  0  0  0  0
  186.2390  176.7590  142.5060 C   0  0  0  0  0  0  0  0  0  0  0  0
  186.2480  177.6790  141.3360 C   0  0  0  0  0  1  0  0  0  0  0  0
  186.7370  175.6480  142.4080 O   0  0  0  0  0  0  0  0  0  0  0  0
  1 14  1  0  0  0  0
  2  3  2  0  0  0  0
  2 13  1  0  0  0  0
  3 20  1  0  0  0  0
  4 11  1  0  0  0  0
  5  2  1  0  0  0  0
  6  1  2  0  0  0  0
  6 17  1  0  0  0  0
  7  4  2  0  0  0  0
  7  3  1  0  0  0  0
  8 13  1  0  0  0  0
  8 21  1  0  0  0  0
  9  1  1  0  0  0  0
 11 20  2  0  0  0  0
 11 15  1  0  0  0  0
 12  8  2  0  0  0  0
 13 18  2  0  0  0  0
 14  5  2  0  0  0  0
 16  5  1  0  0  0  0
 16 12  1  0  0  0  0
 17 16  2  0  0  0  0
 18 10  1  0  0  0  0
 19 10  2  0  0  0  0
 20 19  1  0  0  0  0
 23 24  2  0  0  0  0
 24 25  1  0  0  0  0
 24 21  1  0  0  0  0
 25 22  1  0  0  0  0
 27 25  1  0  0  0  0
 27 26  1  1  0  0  0
 28 27  1  0  0  0  0
 29 28  1  0  0  0  0
 30 29  1  0  0  0  0
 31 29  2  0  0  0  0
M  END
>  <MODEL>
9

>  <REMARK>
 VINA RESULT:      -7.2      3.325      8.609
  Name = 
  5 active torsions:
  status: ('A' for Active; 'I' for Inactive)
    1  A    between atoms: C_1  and  C_24
    2  A    between atoms: C_9  and  C_23
    3  A    between atoms: C_15  and  C_23
    4  A    between atoms: C_19  and  N_22
    5  A    between atoms: C_19  and  C_24
                            x       y       z     vdW  Elec       q    Type
                         _______ _______ _______ _____ _____    ______ ____

>  <TORSDO>
F 5

$$$$
