=
 OpenBabel11052418523D

 34 37  0  0  1  0  0  0  0  0999 V2000
  189.7910  175.0260  144.0750 N   0  0  0  0  0  0  0  0  0  0  0  0
  190.4540  175.0700  146.5290 C   0  0  1  0  0  3  0  0  0  0  0  0
  191.7400  173.9520  144.8200 O   0  0  0  0  0  0  0  0  0  0  0  0
  188.6720  175.9160  144.3960 C   0  0  1  0  0  3  0  0  0  0  0  0
  189.6500  176.2250  146.5810 O   0  0  0  0  0  0  0  0  0  0  0  0
  188.4470  175.9160  145.9210 C   0  0  1  0  0  3  0  0  0  0  0  0
  190.7440  174.6740  145.0970 C   0  0  0  0  0  0  0  0  0  0  0  0
  186.5520  178.6680  147.7140 C   0  0  0  0  0  0  0  0  0  0  0  0
  185.2440  178.4510  147.2730 C   0  0  0  0  0  3  0  0  0  0  0  0
  187.3210  176.7980  146.3730 C   0  0  0  0  0  0  0  0  0  0  0  0
  184.9710  177.4060  146.3850 C   0  0  0  0  0  3  0  0  0  0  0  0
  187.5880  177.8390  147.2670 C   0  0  0  0  0  3  0  0  0  0  0  0
  186.0060  176.5810  145.9360 C   0  0  0  0  0  3  0  0  0  0  0  0
  186.8170  179.6810  148.5750 F   0  0  0  0  0  0  0  0  0  0  0  0
  187.9790  177.6770  142.7730 C   0  0  0  0  0  1  0  0  0  0  0  0
  188.9710  177.3140  143.8610 C   0  0  0  0  0  2  0  0  0  0  0  0
  189.8110  174.3760  142.7680 C   0  0  0  0  0  2  0  0  0  0  0  0
  188.6950  173.3440  142.6440 C   0  0  0  0  0  2  0  0  0  0  0  0
  188.2030  173.2160  141.2120 C   0  0  0  0  0  2  0  0  0  0  0  0
  188.6240  174.4230  140.3960 C   0  0  0  0  0  2  0  0  0  0  0  0
  189.5440  173.8660  138.2160 N   0  0  0  0  0  2  0  0  0  0  0  0
  188.3030  174.1870  138.9350 C   0  0  1  0  0  3  0  0  0  0  0  0
  188.5960  172.8040  138.5800 C   0  0  0  0  0  2  0  0  0  0  0  0
  191.7270  175.3260  147.3270 C   0  0  0  0  0  2  0  0  0  0  0  0
  192.4520  176.5850  146.8640 C   0  0  0  0  0  2  0  0  0  0  0  0
  193.9620  176.3850  146.7420 C   0  0  0  0  0  2  0  0  0  0  0  0
  194.4370  176.5130  145.3000 C   0  0  0  0  0  2  0  0  0  0  0  0
  196.0820  176.6100  143.0100 O   0  0  0  0  0  0  0  0  0  0  0  0
  195.5100  175.5650  145.0290 N   0  0  0  0  0  0  0  0  0  0  0  0
  196.3510  175.7320  143.8730 C   0  0  0  0  0  0  0  0  0  0  0  0
  197.5000  173.5890  144.4500 C   0  0  0  0  0  2  0  0  0  0  0  0
  197.0060  173.7950  145.8750 C   0  0  0  0  0  2  0  0  0  0  0  0
  195.5870  174.3490  145.8410 C   0  0  0  0  0  2  0  0  0  0  0  0
  197.6100  174.9300  143.7310 C   0  0  0  0  0  2  0  0  0  0  0  0
  1  4  1  0  0  0  0
  1  7  1  0  0  0  0
  2  5  1  0  0  0  0
  2 24  1  1  0  0  0
  3  7  2  0  0  0  0
  4 16  1  1  0  0  0
  4  6  1  0  0  0  0
  6 10  1  6  0  0  0
  6  5  1  0  0  0  0
  7  2  1  0  0  0  0
  8 14  1  0  0  0  0
  9  8  1  0  0  0  0
 10 12  1  0  0  0  0
 11  9  2  0  0  0  0
 12  8  2  0  0  0  0
 13 10  2  0  0  0  0
 13 11  1  0  0  0  0
 15 16  1  0  0  0  0
 17  1  1  0  0  0  0
 18 17  1  0  0  0  0
 19 18  1  0  0  0  0
 20 19  1  0  0  0  0
 21 23  1  0  0  0  0
 21 22  1  0  0  0  0
 22 20  1  1  0  0  0
 23 22  1  0  0  0  0
 25 24  1  0  0  0  0
 26 25  1  0  0  0  0
 27 26  1  0  0  0  0
 28 30  2  0  0  0  0
 29 27  1  0  0  0  0
 29 33  1  0  0  0  0
 30 29  1  0  0  0  0
 31 32  1  0  0  0  0
 33 32  1  0  0  0  0
 34 30  1  0  0  0  0
 34 31  1  0  0  0  0
M  END
>  <MODEL>
1

>  <REMARK>
 VINA RESULT:      -7.0      0.000      0.000
  Name = 
  12 active torsions:
  status: ('A' for Active; 'I' for Inactive)
    1  A    between atoms: C_2  and  C_15
    2  A    between atoms: C_2  and  C_25
    3  A    between atoms: C_3  and  N_13
    4  A    between atoms: C_3  and  C_17
    5  A    between atoms: N_4  and  C_15
    6  A    between atoms: C_5  and  C_18
    7  A    between atoms: C_6  and  C_9
    8  A    between atoms: C_9  and  C_25
    9  A    between atoms: C_12  and  C_28
   10  A    between atoms: C_17  and  C_29
   11  A    between atoms: C_18  and  C_29
   12  A    between atoms: C_21  and  C_32
                            x       y       z     vdW  Elec       q    Type
                         _______ _______ _______ _____ _____    ______ ____

>  <TORSDO>
F 12

$$$$
=
 OpenBabel11052418523D

 34 37  0  0  1  0  0  0  0  0999 V2000
  189.6630  175.5370  143.7070 N   0  0  0  0  0  0  0  0  0  0  0  0
  190.3600  175.0370  146.1010 C   0  0  1  0  0  3  0  0  0  0  0  0
  191.5530  174.2230  144.1680 O   0  0  0  0  0  0  0  0  0  0  0  0
  188.6050  176.4040  144.2320 C   0  0  1  0  0  3  0  0  0  0  0  0
  189.6280  176.2010  146.4090 O   0  0  0  0  0  0  0  0  0  0  0  0
  188.4000  176.1030  145.7300 C   0  0  1  0  0  3  0  0  0  0  0  0
  190.6070  174.9280  144.6110 C   0  0  0  0  0  0  0  0  0  0  0  0
  186.7280  178.6580  147.9780 C   0  0  0  0  0  0  0  0  0  0  0  0
  185.3800  178.4910  147.6510 C   0  0  0  0  0  3  0  0  0  0  0  0
  187.3360  176.9360  146.3810 C   0  0  0  0  0  0  0  0  0  0  0  0
  185.0070  177.5440  146.6920 C   0  0  0  0  0  3  0  0  0  0  0  0
  187.7030  177.8780  147.3470 C   0  0  0  0  0  3  0  0  0  0  0  0
  185.9810  176.7680  146.0590 C   0  0  0  0  0  3  0  0  0  0  0  0
  187.0900  179.5760  148.9080 F   0  0  0  0  0  0  0  0  0  0  0  0
  190.4740  177.9820  143.7510 C   0  0  0  0  0  1  0  0  0  0  0  0
  188.9810  177.8620  143.9870 C   0  0  0  0  0  2  0  0  0  0  0  0
  189.6260  175.1700  142.2950 C   0  0  0  0  0  2  0  0  0  0  0  0
  188.2030  174.8750  141.8350 C   0  0  0  0  0  2  0  0  0  0  0  0
  187.8690  175.5970  140.5400 C   0  0  0  0  0  2  0  0  0  0  0  0
  187.5510  177.0550  140.8110 C   0  0  0  0  0  2  0  0  0  0  0  0
  186.0400  178.5360  142.0060 N   0  0  0  0  0  2  0  0  0  0  0  0
  186.2130  177.1630  141.5090 C   0  0  1  0  0  3  0  0  0  0  0  0
  185.3520  178.0920  140.7870 C   0  0  0  0  0  2  0  0  0  0  0  0
  191.6570  175.0510  146.9020 C   0  0  0  0  0  2  0  0  0  0  0  0
  192.2380  176.4550  147.0310 C   0  0  0  0  0  2  0  0  0  0  0  0
  193.7020  176.5290  146.6010 C   0  0  0  0  0  2  0  0  0  0  0  0
  194.2370  175.1690  146.1740 C   0  0  0  0  0  2  0  0  0  0  0  0
  196.7010  173.7970  146.2600 O   0  0  0  0  0  0  0  0  0  0  0  0
  195.2890  175.3230  145.1770 N   0  0  0  0  0  0  0  0  0  0  0  0
  196.4860  174.5280  145.2570 C   0  0  0  0  0  0  0  0  0  0  0  0
  197.3970  175.7770  143.2930 C   0  0  0  0  0  2  0  0  0  0  0  0
  195.9570  176.1260  142.9420 C   0  0  0  0  0  2  0  0  0  0  0  0
  195.1870  176.4280  144.2220 C   0  0  0  0  0  2  0  0  0  0  0  0
  197.4440  174.4860  144.1040 C   0  0  0  0  0  2  0  0  0  0  0  0
  1  4  1  0  0  0  0
  1  7  1  0  0  0  0
  2  5  1  0  0  0  0
  2 24  1  1  0  0  0
  3  7  2  0  0  0  0
  4 16  1  1  0  0  0
  4  6  1  0  0  0  0
  6 10  1  1  0  0  0
  6  5  1  0  0  0  0
  7  2  1  0  0  0  0
  8 14  1  0  0  0  0
  9  8  1  0  0  0  0
 10 12  1  0  0  0  0
 11  9  2  0  0  0  0
 12  8  2  0  0  0  0
 13 10  2  0  0  0  0
 13 11  1  0  0  0  0
 15 16  1  0  0  0  0
 17  1  1  0  0  0  0
 18 17  1  0  0  0  0
 19 20  1  0  0  0  0
 19 18  1  0  0  0  0
 22 20  1  6  0  0  0
 22 21  1  0  0  0  0
 23 22  1  0  0  0  0
 23 21  1  0  0  0  0
 24 25  1  0  0  0  0
 26 25  1  0  0  0  0
 27 26  1  0  0  0  0
 29 30  1  0  0  0  0
 29 27  1  0  0  0  0
 30 28  2  0  0  0  0
 31 34  1  0  0  0  0
 32 31  1  0  0  0  0
 32 33  1  0  0  0  0
 33 29  1  0  0  0  0
 34 30  1  0  0  0  0
M  END
>  <MODEL>
2

>  <REMARK>
 VINA RESULT:      -7.0      1.631      2.392
  Name = 
  12 active torsions:
  status: ('A' for Active; 'I' for Inactive)
    1  A    between atoms: C_2  and  C_15
    2  A    between atoms: C_2  and  C_25
    3  A    between atoms: C_3  and  N_13
    4  A    between atoms: C_3  and  C_17
    5  A    between atoms: N_4  and  C_15
    6  A    between atoms: C_5  and  C_18
    7  A    between atoms: C_6  and  C_9
    8  A    between atoms: C_9  and  C_25
    9  A    between atoms: C_12  and  C_28
   10  A    between atoms: C_17  and  C_29
   11  A    between atoms: C_18  and  C_29
   12  A    between atoms: C_21  and  C_32
                            x       y       z     vdW  Elec       q    Type
                         _______ _______ _______ _____ _____    ______ ____

>  <TORSDO>
F 12

$$$$
=
 OpenBabel11052418523D

 34 37  0  0  1  0  0  0  0  0999 V2000
  185.5490  177.7750  141.5550 N   0  0  0  0  0  0  0  0  0  0  0  0
  187.4570  176.1730  142.0590 C   0  0  1  0  0  3  0  0  0  0  0  0
  186.6950  176.6760  139.8260 O   0  0  0  0  0  0  0  0  0  0  0  0
  185.4740  178.0840  142.9850 C   0  0  1  0  0  3  0  0  0  0  0  0
  187.5520  176.8870  143.2690 O   0  0  0  0  0  0  0  0  0  0  0  0
  186.2450  177.0080  143.7760 C   0  0  1  0  0  3  0  0  0  0  0  0
  186.5880  176.9070  141.0610 C   0  0  0  0  0  0  0  0  0  0  0  0
  187.4320  177.8550  147.2760 C   0  0  0  0  0  0  0  0  0  0  0  0
  186.2910  177.5960  148.0380 C   0  0  0  0  0  3  0  0  0  0  0  0
  186.2400  177.2200  145.2610 C   0  0  0  0  0  0  0  0  0  0  0  0
  185.1220  177.1450  147.4140 C   0  0  0  0  0  3  0  0  0  0  0  0
  187.4080  177.6620  145.8900 C   0  0  0  0  0  3  0  0  0  0  0  0
  185.0970  176.9570  146.0300 C   0  0  0  0  0  3  0  0  0  0  0  0
  188.5650  178.2920  147.8800 F   0  0  0  0  0  0  0  0  0  0  0  0
  185.1930  180.2060  144.2630 C   0  0  0  0  0  1  0  0  0  0  0  0
  186.0330  179.4830  143.2280 C   0  0  0  0  0  2  0  0  0  0  0  0
  184.4580  178.2150  140.6890 C   0  0  0  0  0  2  0  0  0  0  0  0
  183.1400  178.2910  141.4520 C   0  0  0  0  0  2  0  0  0  0  0  0
  181.9460  178.2900  140.5140 C   0  0  0  0  0  2  0  0  0  0  0  0
  180.7250  178.8660  141.2080 C   0  0  0  0  0  2  0  0  0  0  0  0
  178.8630  177.7600  142.3100 N   0  0  0  0  0  2  0  0  0  0  0  0
  179.5460  177.9350  141.0200 C   0  0  1  0  0  3  0  0  0  0  0  0
  178.3040  178.6510  141.2850 C   0  0  0  0  0  2  0  0  0  0  0  0
  188.8650  175.9260  141.5280 C   0  0  0  0  0  2  0  0  0  0  0  0
  189.2350  174.4460  141.5510 C   0  0  0  0  0  2  0  0  0  0  0  0
  190.1090  174.0760  142.7490 C   0  0  0  0  0  2  0  0  0  0  0  0
  190.8250  175.2900  143.3250 C   0  0  0  0  0  2  0  0  0  0  0  0
  192.2810  177.0190  145.0130 O   0  0  0  0  0  0  0  0  0  0  0  0
  190.6650  175.3380  144.7730 N   0  0  0  0  0  0  0  0  0  0  0  0
  191.3940  176.3040  145.5520 C   0  0  0  0  0  0  0  0  0  0  0  0
  190.4400  175.2900  147.6270 C   0  0  0  0  0  2  0  0  0  0  0  0
  189.3220  174.7380  146.7540 C   0  0  0  0  0  2  0  0  0  0  0  0
  189.9050  174.2700  145.4260 C   0  0  0  0  0  2  0  0  0  0  0  0
  191.0400  176.5390  146.9900 C   0  0  0  0  0  2  0  0  0  0  0  0
  1  4  1  0  0  0  0
  2 24  1  6  0  0  0
  2  5  1  0  0  0  0
  3  7  2  0  0  0  0
  4 16  1  6  0  0  0
  4  6  1  0  0  0  0
  5  6  1  0  0  0  0
  6 10  1  1  0  0  0
  7  1  1  0  0  0  0
  7  2  1  0  0  0  0
  8 14  1  0  0  0  0
  8  9  1  0  0  0  0
 10 12  1  0  0  0  0
 10 13  2  0  0  0  0
 11  9  2  0  0  0  0
 12  8  2  0  0  0  0
 13 11  1  0  0  0  0
 16 15  1  0  0  0  0
 17 18  1  0  0  0  0
 17  1  1  0  0  0  0
 19 20  1  0  0  0  0
 19 18  1  0  0  0  0
 22 20  1  1  0  0  0
 22 23  1  0  0  0  0
 22 21  1  0  0  0  0
 23 21  1  0  0  0  0
 24 25  1  0  0  0  0
 25 26  1  0  0  0  0
 26 27  1  0  0  0  0
 27 29  1  0  0  0  0
 28 30  2  0  0  0  0
 29 33  1  0  0  0  0
 29 30  1  0  0  0  0
 30 34  1  0  0  0  0
 32 31  1  0  0  0  0
 33 32  1  0  0  0  0
 34 31  1  0  0  0  0
M  END
>  <MODEL>
3

>  <REMARK>
 VINA RESULT:      -7.0      4.097      6.211
  Name = 
  12 active torsions:
  status: ('A' for Active; 'I' for Inactive)
    1  A    between atoms: C_2  and  C_15
    2  A    between atoms: C_2  and  C_25
    3  A    between atoms: C_3  and  N_13
    4  A    between atoms: C_3  and  C_17
    5  A    between atoms: N_4  and  C_15
    6  A    between atoms: C_5  and  C_18
    7  A    between atoms: C_6  and  C_9
    8  A    between atoms: C_9  and  C_25
    9  A    between atoms: C_12  and  C_28
   10  A    between atoms: C_17  and  C_29
   11  A    between atoms: C_18  and  C_29
   12  A    between atoms: C_21  and  C_32
                            x       y       z     vdW  Elec       q    Type
                         _______ _______ _______ _____ _____    ______ ____

>  <TORSDO>
F 12

$$$$
=
 OpenBabel11052418523D

 34 37  0  0  1  0  0  0  0  0999 V2000
  189.5430  175.2760  143.7200 N   0  0  0  0  0  0  0  0  0  0  0  0
  190.2780  175.0640  146.1450 C   0  0  1  0  0  3  0  0  0  0  0  0
  191.4920  174.1000  144.2960 O   0  0  0  0  0  0  0  0  0  0  0  0
  188.4520  176.1490  144.1630 C   0  0  1  0  0  3  0  0  0  0  0  0
  189.4990  176.2210  146.3370 O   0  0  0  0  0  0  0  0  0  0  0  0
  188.2710  176.0000  145.6860 C   0  0  1  0  0  3  0  0  0  0  0  0
  190.5190  174.8080  144.6730 C   0  0  0  0  0  0  0  0  0  0  0  0
  186.4920  178.6290  147.7610 C   0  0  0  0  0  0  0  0  0  0  0  0
  185.1600  178.4430  147.3810 C   0  0  0  0  0  3  0  0  0  0  0  0
  187.1770  176.8520  146.2580 C   0  0  0  0  0  0  0  0  0  0  0  0
  184.8340  177.4590  146.4410 C   0  0  0  0  0  3  0  0  0  0  0  0
  187.4970  177.8310  147.2030 C   0  0  0  0  0  3  0  0  0  0  0  0
  185.8380  176.6660  145.8820 C   0  0  0  0  0  3  0  0  0  0  0  0
  186.8090  179.5830  148.6710 F   0  0  0  0  0  0  0  0  0  0  0  0
  187.7540  178.0710  142.7360 C   0  0  0  0  0  1  0  0  0  0  0  0
  188.7630  177.5870  143.7600 C   0  0  0  0  0  2  0  0  0  0  0  0
  189.5130  174.7600  142.3550 C   0  0  0  0  0  2  0  0  0  0  0  0
  188.2000  174.0430  142.0620 C   0  0  0  0  0  2  0  0  0  0  0  0
  188.3890  172.8990  141.0810 C   0  0  0  0  0  2  0  0  0  0  0  0
  189.8490  172.7730  140.6880 C   0  0  0  0  0  2  0  0  0  0  0  0
  191.6330  171.4140  141.6250 N   0  0  0  0  0  2  0  0  0  0  0  0
  190.3270  171.3610  140.9510 C   0  0  1  0  0  3  0  0  0  0  0  0
  190.4100  171.1260  142.3870 C   0  0  0  0  0  2  0  0  0  0  0  0
  191.5780  175.2170  146.9260 C   0  0  0  0  0  2  0  0  0  0  0  0
  192.3450  176.4730  146.5230 C   0  0  0  0  0  2  0  0  0  0  0  0
  193.8600  176.2920  146.6120 C   0  0  0  0  0  2  0  0  0  0  0  0
  194.5450  176.5930  145.2850 C   0  0  0  0  0  2  0  0  0  0  0  0
  196.1720  176.6180  142.9810 O   0  0  0  0  0  0  0  0  0  0  0  0
  195.5850  175.6080  145.0130 N   0  0  0  0  0  0  0  0  0  0  0  0
  196.4200  175.7390  143.8480 C   0  0  0  0  0  0  0  0  0  0  0  0
  197.5050  173.5650  144.4330 C   0  0  0  0  0  2  0  0  0  0  0  0
  197.0300  173.7980  145.8610 C   0  0  0  0  0  2  0  0  0  0  0  0
  195.6290  174.3970  145.8340 C   0  0  0  0  0  2  0  0  0  0  0  0
  197.6510  174.8950  143.7020 C   0  0  0  0  0  2  0  0  0  0  0  0
  1  4  1  0  0  0  0
  1  7  1  0  0  0  0
  2  5  1  0  0  0  0
  2 24  1  1  0  0  0
  3  7  2  0  0  0  0
  4 16  1  1  0  0  0
  4  6  1  0  0  0  0
  6 10  1  1  0  0  0
  6  5  1  0  0  0  0
  7  2  1  0  0  0  0
  8 14  1  0  0  0  0
  9  8  1  0  0  0  0
 10 12  1  0  0  0  0
 11  9  2  0  0  0  0
 12  8  2  0  0  0  0
 13 10  2  0  0  0  0
 13 11  1  0  0  0  0
 15 16  1  0  0  0  0
 17  1  1  0  0  0  0
 18 17  1  0  0  0  0
 19 18  1  0  0  0  0
 20 19  1  0  0  0  0
 21 23  1  0  0  0  0
 22 20  1  1  0  0  0
 22 21  1  0  0  0  0
 22 23  1  0  0  0  0
 25 26  1  0  0  0  0
 25 24  1  0  0  0  0
 27 26  1  0  0  0  0
 28 30  2  0  0  0  0
 29 27  1  0  0  0  0
 29 33  1  0  0  0  0
 30 29  1  0  0  0  0
 31 32  1  0  0  0  0
 33 32  1  0  0  0  0
 34 30  1  0  0  0  0
 34 31  1  0  0  0  0
M  END
>  <MODEL>
4

>  <REMARK>
 VINA RESULT:      -7.0      1.151      1.403
  Name = 
  12 active torsions:
  status: ('A' for Active; 'I' for Inactive)
    1  A    between atoms: C_2  and  C_15
    2  A    between atoms: C_2  and  C_25
    3  A    between atoms: C_3  and  N_13
    4  A    between atoms: C_3  and  C_17
    5  A    between atoms: N_4  and  C_15
    6  A    between atoms: C_5  and  C_18
    7  A    between atoms: C_6  and  C_9
    8  A    between atoms: C_9  and  C_25
    9  A    between atoms: C_12  and  C_28
   10  A    between atoms: C_17  and  C_29
   11  A    between atoms: C_18  and  C_29
   12  A    between atoms: C_21  and  C_32
                            x       y       z     vdW  Elec       q    Type
                         _______ _______ _______ _____ _____    ______ ____

>  <TORSDO>
F 12

$$$$
=
 OpenBabel11052418523D

 34 37  0  0  1  0  0  0  0  0999 V2000
  190.6370  175.1490  144.2030 N   0  0  0  0  0  0  0  0  0  0  0  0
  188.7370  175.7730  142.6320 C   0  0  1  0  0  3  0  0  0  0  0  0
  190.7750  174.7070  141.9020 O   0  0  0  0  0  0  0  0  0  0  0  0
  189.8070  175.5930  145.3270 C   0  0  1  0  0  3  0  0  0  0  0  0
  187.9460  175.7280  143.7970 O   0  0  0  0  0  0  0  0  0  0  0  0
  188.6390  176.4430  144.7900 C   0  0  1  0  0  3  0  0  0  0  0  0
  190.0900  175.1360  142.8700 C   0  0  0  0  0  0  0  0  0  0  0  0
  185.4940  177.0210  146.8280 C   0  0  0  0  0  0  0  0  0  0  0  0
  185.9430  177.9140  147.8040 C   0  0  0  0  0  3  0  0  0  0  0  0
  187.7160  176.9550  145.8550 C   0  0  0  0  0  0  0  0  0  0  0  0
  187.2780  178.3330  147.8050 C   0  0  0  0  0  3  0  0  0  0  0  0
  186.3790  176.5460  145.8530 C   0  0  0  0  0  3  0  0  0  0  0  0
  188.1620  177.8560  146.8340 C   0  0  0  0  0  3  0  0  0  0  0  0
  184.2010  176.6140  146.8270 F   0  0  0  0  0  0  0  0  0  0  0  0
  189.5030  174.5980  147.5930 C   0  0  0  0  0  1  0  0  0  0  0  0
  189.3190  174.3740  146.1050 C   0  0  0  0  0  2  0  0  0  0  0  0
  192.0550  174.8980  144.4400 C   0  0  0  0  0  2  0  0  0  0  0  0
  192.7320  176.1020  145.0850 C   0  0  0  0  0  2  0  0  0  0  0  0
  193.4480  175.7250  146.3700 C   0  0  0  0  0  2  0  0  0  0  0  0
  194.9450  175.6390  146.1380 C   0  0  0  0  0  2  0  0  0  0  0  0
  196.2690  174.4620  144.4740 N   0  0  0  0  0  2  0  0  0  0  0  0
  195.2930  174.2840  145.5590 C   0  0  1  0  0  3  0  0  0  0  0  0
  196.7020  173.9910  145.7970 C   0  0  0  0  0  2  0  0  0  0  0  0
  187.9730  175.1000  141.4980 C   0  0  0  0  0  2  0  0  0  0  0  0
  187.6330  176.0760  140.3770 C   0  0  0  0  0  2  0  0  0  0  0  0
  187.3640  177.4910  140.8880 C   0  0  0  0  0  2  0  0  0  0  0  0
  185.8940  177.8690  140.7640 C   0  0  0  0  0  2  0  0  0  0  0  0
  183.1850  177.8940  141.5520 O   0  0  0  0  0  0  0  0  0  0  0  0
  185.4130  178.4660  142.0040 N   0  0  0  0  0  0  0  0  0  0  0  0
  184.0230  178.3680  142.3650 C   0  0  0  0  0  0  0  0  0  0  0  0
  184.4850  179.7920  144.3660 C   0  0  0  0  0  2  0  0  0  0  0  0
  185.9420  179.3670  144.2390 C   0  0  0  0  0  2  0  0  0  0  0  0
  186.3260  179.3220  142.7650 C   0  0  0  0  0  2  0  0  0  0  0  0
  183.5730  178.7390  143.7470 C   0  0  0  0  0  2  0  0  0  0  0  0
  1 17  1  0  0  0  0
  1  4  1  0  0  0  0
  2 24  1  6  0  0  0
  2  7  1  0  0  0  0
  2  5  1  0  0  0  0
  3  7  2  0  0  0  0
  4 16  1  6  0  0  0
  5  6  1  0  0  0  0
  6  4  1  0  0  0  0
  6 10  1  1  0  0  0
  7  1  1  0  0  0  0
  8  9  1  0  0  0  0
  9 11  2  0  0  0  0
 10 13  2  0  0  0  0
 12 10  1  0  0  0  0
 12  8  2  0  0  0  0
 13 11  1  0  0  0  0
 14  8  1  0  0  0  0
 16 15  1  0  0  0  0
 17 18  1  0  0  0  0
 18 19  1  0  0  0  0
 20 19  1  0  0  0  0
 21 22  1  0  0  0  0
 21 23  1  0  0  0  0
 22 23  1  0  0  0  0
 22 20  1  1  0  0  0
 25 26  1  0  0  0  0
 25 24  1  0  0  0  0
 27 26  1  0  0  0  0
 27 29  1  0  0  0  0
 28 30  2  0  0  0  0
 29 30  1  0  0  0  0
 29 33  1  0  0  0  0
 30 34  1  0  0  0  0
 32 31  1  0  0  0  0
 33 32  1  0  0  0  0
 34 31  1  0  0  0  0
M  END
>  <MODEL>
5

>  <REMARK>
 VINA RESULT:      -7.0      2.655      7.762
  Name = 
  12 active torsions:
  status: ('A' for Active; 'I' for Inactive)
    1  A    between atoms: C_2  and  C_15
    2  A    between atoms: C_2  and  C_25
    3  A    between atoms: C_3  and  N_13
    4  A    between atoms: C_3  and  C_17
    5  A    between atoms: N_4  and  C_15
    6  A    between atoms: C_5  and  C_18
    7  A    between atoms: C_6  and  C_9
    8  A    between atoms: C_9  and  C_25
    9  A    between atoms: C_12  and  C_28
   10  A    between atoms: C_17  and  C_29
   11  A    between atoms: C_18  and  C_29
   12  A    between atoms: C_21  and  C_32
                            x       y       z     vdW  Elec       q    Type
                         _______ _______ _______ _____ _____    ______ ____

>  <TORSDO>
F 12

$$$$
=
 OpenBabel11052418523D

 34 37  0  0  1  0  0  0  0  0999 V2000
  191.9310  175.0930  145.7720 N   0  0  0  0  0  0  0  0  0  0  0  0
  189.4480  174.8530  146.2600 C   0  0  1  0  0  3  0  0  0  0  0  0
  191.1020  175.3030  147.9580 O   0  0  0  0  0  0  0  0  0  0  0  0
  191.6280  174.9660  144.3440 C   0  0  1  0  0  3  0  0  0  0  0  0
  189.2910  175.1890  144.9010 O   0  0  0  0  0  0  0  0  0  0  0  0
  190.2040  174.4020  144.1770 C   0  0  1  0  0  3  0  0  0  0  0  0
  190.8570  175.1400  146.7320 C   0  0  0  0  0  0  0  0  0  0  0  0
  188.4490  174.9850  140.8660 C   0  0  0  0  0  0  0  0  0  0  0  0
  188.9270  173.9220  140.0960 C   0  0  0  0  0  3  0  0  0  0  0  0
  189.7780  174.2280  142.7490 C   0  0  0  0  0  0  0  0  0  0  0  0
  189.8280  173.0080  140.6510 C   0  0  0  0  0  3  0  0  0  0  0  0
  188.8710  175.1340  142.1920 C   0  0  0  0  0  3  0  0  0  0  0  0
  190.2530  173.1590  141.9730 C   0  0  0  0  0  3  0  0  0  0  0  0
  187.5750  175.8720  140.3290 F   0  0  0  0  0  0  0  0  0  0  0  0
  192.7980  176.2340  142.5440 C   0  0  0  0  0  1  0  0  0  0  0  0
  191.7880  176.3260  143.6710 C   0  0  0  0  0  2  0  0  0  0  0  0
  193.3230  174.9930  146.2010 C   0  0  0  0  0  2  0  0  0  0  0  0
  194.0140  173.7910  145.5650 C   0  0  0  0  0  2  0  0  0  0  0  0
  195.4820  174.0660  145.2890 C   0  0  0  0  0  2  0  0  0  0  0  0
  195.7120  174.2790  143.8050 C   0  0  0  0  0  2  0  0  0  0  0  0
  196.4760  176.1240  142.4190 N   0  0  0  0  0  2  0  0  0  0  0  0
  196.8000  175.3120  143.6010 C   0  0  1  0  0  3  0  0  0  0  0  0
  196.2500  176.6510  143.7720 C   0  0  0  0  0  2  0  0  0  0  0  0
  188.4010  175.6060  147.0730 C   0  0  0  0  0  2  0  0  0  0  0  0
  188.3090  177.0740  146.6710 C   0  0  0  0  0  2  0  0  0  0  0  0
  186.9490  177.6900  146.9960 C   0  0  0  0  0  2  0  0  0  0  0  0
  185.8010  176.8470  146.4560 C   0  0  0  0  0  2  0  0  0  0  0  0
  183.8250  178.8050  145.9860 O   0  0  0  0  0  0  0  0  0  0  0  0
  185.4100  177.3050  145.1290 N   0  0  0  0  0  0  0  0  0  0  0  0
  184.4460  178.3630  144.9820 C   0  0  0  0  0  0  0  0  0  0  0  0
  184.5530  178.0610  142.5030 C   0  0  0  0  0  2  0  0  0  0  0  0
  185.9150  177.4140  142.7170 C   0  0  0  0  0  2  0  0  0  0  0  0
  185.8680  176.5430  143.9660 C   0  0  0  0  0  2  0  0  0  0  0  0
  184.2380  179.0170  143.6480 C   0  0  0  0  0  2  0  0  0  0  0  0
  1 17  1  0  0  0  0
  1  7  1  0  0  0  0
  2  7  1  0  0  0  0
  2 24  1  1  0  0  0
  4 16  1  6  0  0  0
  4  1  1  0  0  0  0
  5  2  1  0  0  0  0
  6 10  1  6  0  0  0
  6  4  1  0  0  0  0
  6  5  1  0  0  0  0
  7  3  2  0  0  0  0
  8 12  1  0  0  0  0
  9 11  1  0  0  0  0
  9  8  2  0  0  0  0
 11 13  2  0  0  0  0
 12 10  2  0  0  0  0
 13 10  1  0  0  0  0
 14  8  1  0  0  0  0
 15 16  1  0  0  0  0
 18 17  1  0  0  0  0
 19 18  1  0  0  0  0
 20 19  1  0  0  0  0
 21 22  1  0  0  0  0
 21 23  1  0  0  0  0
 22 23  1  0  0  0  0
 22 20  1  6  0  0  0
 25 26  1  0  0  0  0
 25 24  1  0  0  0  0
 27 26  1  0  0  0  0
 29 27  1  0  0  0  0
 30 29  1  0  0  0  0
 30 28  2  0  0  0  0
 31 32  1  0  0  0  0
 31 34  1  0  0  0  0
 32 33  1  0  0  0  0
 33 29  1  0  0  0  0
 34 30  1  0  0  0  0
M  END
>  <MODEL>
6

>  <REMARK>
 VINA RESULT:      -7.0      2.888      7.979
  Name = 
  12 active torsions:
  status: ('A' for Active; 'I' for Inactive)
    1  A    between atoms: C_2  and  C_15
    2  A    between atoms: C_2  and  C_25
    3  A    between atoms: C_3  and  N_13
    4  A    between atoms: C_3  and  C_17
    5  A    between atoms: N_4  and  C_15
    6  A    between atoms: C_5  and  C_18
    7  A    between atoms: C_6  and  C_9
    8  A    between atoms: C_9  and  C_25
    9  A    between atoms: C_12  and  C_28
   10  A    between atoms: C_17  and  C_29
   11  A    between atoms: C_18  and  C_29
   12  A    between atoms: C_21  and  C_32
                            x       y       z     vdW  Elec       q    Type
                         _______ _______ _______ _____ _____    ______ ____

>  <TORSDO>
F 12

$$$$
=
 OpenBabel11052418523D

 34 37  0  0  1  0  0  0  0  0999 V2000
  192.2030  176.3880  143.9690 N   0  0  0  0  0  0  0  0  0  0  0  0
  189.8360  176.7630  143.1210 C   0  0  1  0  0  3  0  0  0  0  0  0
  191.0590  178.3870  144.4210 O   0  0  0  0  0  0  0  0  0  0  0  0
  192.2260  175.1160  143.2420 C   0  0  1  0  0  3  0  0  0  0  0  0
  190.1750  175.7880  142.1620 O   0  0  0  0  0  0  0  0  0  0  0  0
  190.7850  174.7270  142.8560 C   0  0  1  0  0  3  0  0  0  0  0  0
  191.0670  177.2660  143.8430 C   0  0  0  0  0  0  0  0  0  0  0  0
  190.0410  172.2490  140.0840 C   0  0  0  0  0  0  0  0  0  0  0  0
  190.4360  171.0410  140.6640 C   0  0  0  0  0  3  0  0  0  0  0  0
  190.6820  173.4360  142.1010 C   0  0  0  0  0  0  0  0  0  0  0  0
  190.9500  171.0270  141.9640 C   0  0  0  0  0  3  0  0  0  0  0  0
  190.1600  173.4440  140.8040 C   0  0  0  0  0  3  0  0  0  0  0  0
  191.0730  172.2200  142.6810 C   0  0  0  0  0  3  0  0  0  0  0  0
  189.5420  172.2640  138.8230 F   0  0  0  0  0  0  0  0  0  0  0  0
  194.3740  174.4010  142.1970 C   0  0  0  0  0  1  0  0  0  0  0  0
  193.1300  175.2500  142.0200 C   0  0  0  0  0  2  0  0  0  0  0  0
  193.2570  176.6520  144.9440 C   0  0  0  0  0  2  0  0  0  0  0  0
  193.1230  175.7480  146.1650 C   0  0  0  0  0  2  0  0  0  0  0  0
  192.2300  176.3660  147.2280 C   0  0  0  0  0  2  0  0  0  0  0  0
  191.2010  175.3600  147.7070 C   0  0  0  0  0  2  0  0  0  0  0  0
  189.6980  174.3100  146.1120 N   0  0  0  0  0  2  0  0  0  0  0  0
  189.9220  175.5230  146.9130 C   0  0  1  0  0  3  0  0  0  0  0  0
  188.9400  174.5380  147.3500 C   0  0  0  0  0  2  0  0  0  0  0  0
  189.0740  177.8860  142.4260 C   0  0  0  0  0  2  0  0  0  0  0  0
  187.8340  177.3740  141.6990 C   0  0  0  0  0  2  0  0  0  0  0  0
  186.5590  178.1000  142.1260 C   0  0  0  0  0  2  0  0  0  0  0  0
  185.5750  177.1610  142.8110 C   0  0  0  0  0  2  0  0  0  0  0  0
  183.7350  179.0450  143.8250 O   0  0  0  0  0  0  0  0  0  0  0  0
  185.4490  177.4960  144.2240 N   0  0  0  0  0  0  0  0  0  0  0  0
  184.4320  178.4140  144.6650 C   0  0  0  0  0  0  0  0  0  0  0  0
  185.3440  178.2470  146.9860 C   0  0  0  0  0  2  0  0  0  0  0  0
  185.9580  176.9180  146.5680 C   0  0  0  0  0  2  0  0  0  0  0  0
  186.4900  177.0350  145.1450 C   0  0  0  0  0  2  0  0  0  0  0  0
  184.1230  178.5580  146.1250 C   0  0  0  0  0  2  0  0  0  0  0  0
  1 17  1  0  0  0  0
  2 24  1  6  0  0  0
  2  7  1  0  0  0  0
  4 16  1  6  0  0  0
  4  1  1  0  0  0  0
  5  6  1  0  0  0  0
  5  2  1  0  0  0  0
  6 10  1  6  0  0  0
  6  4  1  0  0  0  0
  7  1  1  0  0  0  0
  7  3  2  0  0  0  0
  8  9  2  0  0  0  0
  8 12  1  0  0  0  0
  9 11  1  0  0  0  0
 10 13  1  0  0  0  0
 11 13  2  0  0  0  0
 12 10  2  0  0  0  0
 14  8  1  0  0  0  0
 16 15  1  0  0  0  0
 17 18  1  0  0  0  0
 18 19  1  0  0  0  0
 19 20  1  0  0  0  0
 21 22  1  0  0  0  0
 21 23  1  0  0  0  0
 22 23  1  0  0  0  0
 22 20  1  1  0  0  0
 25 26  1  0  0  0  0
 25 24  1  0  0  0  0
 26 27  1  0  0  0  0
 27 29  1  0  0  0  0
 28 30  2  0  0  0  0
 29 30  1  0  0  0  0
 29 33  1  0  0  0  0
 30 34  1  0  0  0  0
 32 31  1  0  0  0  0
 33 32  1  0  0  0  0
 34 31  1  0  0  0  0
M  END
>  <MODEL>
7

>  <REMARK>
 VINA RESULT:      -6.8      3.404      8.560
  Name = 
  12 active torsions:
  status: ('A' for Active; 'I' for Inactive)
    1  A    between atoms: C_2  and  C_15
    2  A    between atoms: C_2  and  C_25
    3  A    between atoms: C_3  and  N_13
    4  A    between atoms: C_3  and  C_17
    5  A    between atoms: N_4  and  C_15
    6  A    between atoms: C_5  and  C_18
    7  A    between atoms: C_6  and  C_9
    8  A    between atoms: C_9  and  C_25
    9  A    between atoms: C_12  and  C_28
   10  A    between atoms: C_17  and  C_29
   11  A    between atoms: C_18  and  C_29
   12  A    between atoms: C_21  and  C_32
                            x       y       z     vdW  Elec       q    Type
                         _______ _______ _______ _____ _____    ______ ____

>  <TORSDO>
F 12

$$$$
=
 OpenBabel11052418523D

 34 37  0  0  1  0  0  0  0  0999 V2000
  189.5620  175.2110  143.6300 N   0  0  0  0  0  0  0  0  0  0  0  0
  190.3310  174.9900  146.0440 C   0  0  1  0  0  3  0  0  0  0  0  0
  191.4960  173.9990  144.1780 O   0  0  0  0  0  0  0  0  0  0  0  0
  188.4950  176.1050  144.0870 C   0  0  1  0  0  3  0  0  0  0  0  0
  189.5770  176.1630  146.2440 O   0  0  0  0  0  0  0  0  0  0  0  0
  188.3350  175.9640  145.6140 C   0  0  1  0  0  3  0  0  0  0  0  0
  190.5430  174.7260  144.5680 C   0  0  0  0  0  0  0  0  0  0  0  0
  186.6420  178.6410  147.6980 C   0  0  0  0  0  0  0  0  0  0  0  0
  185.3000  178.4710  147.3500 C   0  0  0  0  0  3  0  0  0  0  0  0
  187.2670  176.8380  146.2000 C   0  0  0  0  0  0  0  0  0  0  0  0
  184.9370  177.4830  146.4280 C   0  0  0  0  0  3  0  0  0  0  0  0
  187.6230  177.8220  147.1270 C   0  0  0  0  0  3  0  0  0  0  0  0
  185.9170  176.6680  145.8550 C   0  0  0  0  0  3  0  0  0  0  0  0
  186.9930  179.5990  148.5910 F   0  0  0  0  0  0  0  0  0  0  0  0
  187.8600  178.0100  142.6080 C   0  0  0  0  0  1  0  0  0  0  0  0
  188.8270  177.5370  143.6760 C   0  0  0  0  0  2  0  0  0  0  0  0
  189.5010  174.6920  142.2670 C   0  0  0  0  0  2  0  0  0  0  0  0
  188.3480  173.7090  142.0990 C   0  0  0  0  0  2  0  0  0  0  0  0
  188.7920  172.2750  142.3270 C   0  0  0  0  0  2  0  0  0  0  0  0
  190.0460  171.9740  141.5280 C   0  0  0  0  0  2  0  0  0  0  0  0
  191.1780  169.9960  140.6840 N   0  0  0  0  0  2  0  0  0  0  0  0
  190.5510  170.5900  141.8740 C   0  0  1  0  0  3  0  0  0  0  0  0
  192.0040  170.5510  141.7640 C   0  0  0  0  0  2  0  0  0  0  0  0
  191.6460  175.1200  146.8030 C   0  0  0  0  0  2  0  0  0  0  0  0
  192.3880  176.4050  146.4510 C   0  0  0  0  0  2  0  0  0  0  0  0
  193.9060  176.2480  146.5260 C   0  0  0  0  0  2  0  0  0  0  0  0
  194.3800  174.9800  145.8290 C   0  0  0  0  0  2  0  0  0  0  0  0
  196.9620  173.8520  145.9760 O   0  0  0  0  0  0  0  0  0  0  0  0
  195.4540  175.2830  144.8920 N   0  0  0  0  0  0  0  0  0  0  0  0
  196.7200  174.6050  144.9960 C   0  0  0  0  0  0  0  0  0  0  0  0
  197.5880  176.0280  143.1330 C   0  0  0  0  0  2  0  0  0  0  0  0
  196.1370  176.2510  142.7280 C   0  0  0  0  0  2  0  0  0  0  0  0
  195.2850  176.4160  143.9800 C   0  0  0  0  0  2  0  0  0  0  0  0
  197.7280  174.7110  143.8900 C   0  0  0  0  0  2  0  0  0  0  0  0
  1  4  1  0  0  0  0
  1  7  1  0  0  0  0
  2  5  1  0  0  0  0
  2 24  1  1  0  0  0
  3  7  2  0  0  0  0
  4 16  1  1  0  0  0
  4  6  1  0  0  0  0
  6 10  1  1  0  0  0
  6  5  1  0  0  0  0
  7  2  1  0  0  0  0
  8 14  1  0  0  0  0
  9  8  1  0  0  0  0
 10 12  1  0  0  0  0
 11  9  2  0  0  0  0
 12  8  2  0  0  0  0
 13 10  2  0  0  0  0
 13 11  1  0  0  0  0
 15 16  1  0  0  0  0
 17  1  1  0  0  0  0
 18 17  1  0  0  0  0
 18 19  1  0  0  0  0
 20 19  1  0  0  0  0
 21 23  1  0  0  0  0
 21 22  1  0  0  0  0
 22 20  1  6  0  0  0
 23 22  1  0  0  0  0
 25 26  1  0  0  0  0
 25 24  1  0  0  0  0
 27 26  1  0  0  0  0
 29 30  1  0  0  0  0
 29 27  1  0  0  0  0
 30 28  2  0  0  0  0
 31 34  1  0  0  0  0
 32 31  1  0  0  0  0
 32 33  1  0  0  0  0
 33 29  1  0  0  0  0
 34 30  1  0  0  0  0
M  END
>  <MODEL>
8

>  <REMARK>
 VINA RESULT:      -6.8      1.630      2.083
  Name = 
  12 active torsions:
  status: ('A' for Active; 'I' for Inactive)
    1  A    between atoms: C_2  and  C_15
    2  A    between atoms: C_2  and  C_25
    3  A    between atoms: C_3  and  N_13
    4  A    between atoms: C_3  and  C_17
    5  A    between atoms: N_4  and  C_15
    6  A    between atoms: C_5  and  C_18
    7  A    between atoms: C_6  and  C_9
    8  A    between atoms: C_9  and  C_25
    9  A    between atoms: C_12  and  C_28
   10  A    between atoms: C_17  and  C_29
   11  A    between atoms: C_18  and  C_29
   12  A    between atoms: C_21  and  C_32
                            x       y       z     vdW  Elec       q    Type
                         _______ _______ _______ _____ _____    ______ ____

>  <TORSDO>
F 12

$$$$
=
 OpenBabel11052418523D

 34 37  0  0  1  0  0  0  0  0999 V2000
  189.4210  175.1430  143.5720 N   0  0  0  0  0  0  0  0  0  0  0  0
  189.3020  174.9340  146.1040 C   0  0  1  0  0  3  0  0  0  0  0  0
  190.8710  173.7110  144.7380 O   0  0  0  0  0  0  0  0  0  0  0  0
  188.4000  176.1910  143.6450 C   0  0  1  0  0  3  0  0  0  0  0  0
  188.6980  176.2050  146.0400 O   0  0  0  0  0  0  0  0  0  0  0  0
  187.7220  176.1440  145.0280 C   0  0  1  0  0  3  0  0  0  0  0  0
  189.9550  174.5760  144.7860 C   0  0  0  0  0  0  0  0  0  0  0  0
  184.6550  178.2850  144.4030 C   0  0  0  0  0  0  0  0  0  0  0  0
  184.6560  179.1220  145.5220 C   0  0  0  0  0  3  0  0  0  0  0  0
  186.6540  177.1780  145.2220 C   0  0  0  0  0  0  0  0  0  0  0  0
  185.6570  178.9920  146.4900 C   0  0  0  0  0  3  0  0  0  0  0  0
  185.6560  177.3170  144.2520 C   0  0  0  0  0  3  0  0  0  0  0  0
  186.6530  178.0240  146.3410 C   0  0  0  0  0  3  0  0  0  0  0  0
  183.6850  178.4100  143.4650 F   0  0  0  0  0  0  0  0  0  0  0  0
  188.6050  178.0700  142.0180 C   0  0  0  0  0  1  0  0  0  0  0  0
  189.0480  177.5450  143.3700 C   0  0  0  0  0  2  0  0  0  0  0  0
  189.7440  174.5740  142.2680 C   0  0  0  0  0  2  0  0  0  0  0  0
  188.5990  173.7200  141.7350 C   0  0  0  0  0  2  0  0  0  0  0  0
  189.0950  172.6350  140.7950 C   0  0  0  0  0  2  0  0  0  0  0  0
  188.3880  172.7290  139.4560 C   0  0  0  0  0  2  0  0  0  0  0  0
  188.9060  173.4200  137.1840 N   0  0  0  0  0  2  0  0  0  0  0  0
  189.0540  173.7850  138.6010 C   0  0  1  0  0  3  0  0  0  0  0  0
  188.0560  174.4600  137.7800 C   0  0  0  0  0  2  0  0  0  0  0  0
  190.2930  174.9240  147.2610 C   0  0  0  0  0  2  0  0  0  0  0  0
  190.7370  176.3300  147.6510 C   0  0  0  0  0  2  0  0  0  0  0  0
  191.9470  176.8090  146.8500 C   0  0  0  0  0  2  0  0  0  0  0  0
  192.9950  175.7150  146.6970 C   0  0  0  0  0  2  0  0  0  0  0  0
  195.5880  174.7770  146.1020 O   0  0  0  0  0  0  0  0  0  0  0  0
  193.5910  175.7620  145.3680 N   0  0  0  0  0  0  0  0  0  0  0  0
  194.8930  175.1920  145.1360 C   0  0  0  0  0  0  0  0  0  0  0  0
  194.7910  176.0200  142.7800 C   0  0  0  0  0  2  0  0  0  0  0  0
  193.2770  176.0590  142.9390 C   0  0  0  0  0  2  0  0  0  0  0  0
  192.9300  176.5620  144.3350 C   0  0  0  0  0  2  0  0  0  0  0  0
  195.3950  174.9970  143.7370 C   0  0  0  0  0  2  0  0  0  0  0  0
  1  4  1  0  0  0  0
  1  7  1  0  0  0  0
  2 24  1  1  0  0  0
  3  7  2  0  0  0  0
  4 16  1  1  0  0  0
  4  6  1  0  0  0  0
  5  2  1  0  0  0  0
  6 10  1  1  0  0  0
  6  5  1  0  0  0  0
  7  2  1  0  0  0  0
  8  9  1  0  0  0  0
  9 11  2  0  0  0  0
 10 13  2  0  0  0  0
 12  8  2  0  0  0  0
 12 10  1  0  0  0  0
 13 11  1  0  0  0  0
 14  8  1  0  0  0  0
 15 16  1  0  0  0  0
 17  1  1  0  0  0  0
 18 17  1  0  0  0  0
 19 18  1  0  0  0  0
 20 19  1  0  0  0  0
 21 23  1  0  0  0  0
 21 22  1  0  0  0  0
 22 20  1  1  0  0  0
 23 22  1  0  0  0  0
 24 25  1  0  0  0  0
 26 25  1  0  0  0  0
 27 26  1  0  0  0  0
 29 27  1  0  0  0  0
 30 29  1  0  0  0  0
 30 28  2  0  0  0  0
 31 32  1  0  0  0  0
 31 34  1  0  0  0  0
 32 33  1  0  0  0  0
 33 29  1  0  0  0  0
 34 30  1  0  0  0  0
M  END
>  <MODEL>
9

>  <REMARK>
 VINA RESULT:      -6.7      1.786      2.402
  Name = 
  12 active torsions:
  status: ('A' for Active; 'I' for Inactive)
    1  A    between atoms: C_2  and  C_15
    2  A    between atoms: C_2  and  C_25
    3  A    between atoms: C_3  and  N_13
    4  A    between atoms: C_3  and  C_17
    5  A    between atoms: N_4  and  C_15
    6  A    between atoms: C_5  and  C_18
    7  A    between atoms: C_6  and  C_9
    8  A    between atoms: C_9  and  C_25
    9  A    between atoms: C_12  and  C_28
   10  A    between atoms: C_17  and  C_29
   11  A    between atoms: C_18  and  C_29
   12  A    between atoms: C_21  and  C_32
                            x       y       z     vdW  Elec       q    Type
                         _______ _______ _______ _____ _____    ______ ____

>  <TORSDO>
F 12

$$$$
