=
 OpenBabel11052419053D

 32 37  0  0  1  0  0  0  0  0999 V2000
  189.8320  176.3280  145.1050 C   0  0  2  0  0  0  0  0  0  0  0  0
  187.9370  177.9140  144.3750 C   0  0  2  0  0  3  0  0  0  0  0  0
  191.8530  173.7550  144.8250 O   0  0  0  0  0  1  0  0  0  0  0  0
  189.9120  174.9190  145.1290 O   0  0  0  0  0  0  0  0  0  0  0  0
  188.3520  176.7310  145.2710 C   0  0  2  0  0  3  0  0  0  0  0  0
  186.4460  178.2800  144.5850 C   0  0  2  0  0  3  0  0  0  0  0  0
  186.6580  177.4100  139.4320 C   0  0  0  0  0  2  0  0  0  0  0  0
  188.2990  177.5980  142.9350 C   0  0  0  0  0  0  0  0  0  0  0  0
  185.0690  178.5180  141.0280 C   0  0  0  0  0  2  0  0  0  0  0  0
  185.9150  178.0190  142.1940 C   0  0  2  0  0  3  0  0  0  0  0  0
  188.2690  177.0920  146.7200 C   0  0  0  0  0  2  0  0  0  0  0  0
  191.4910  175.7420  143.4840 C   0  0  2  0  0  0  0  0  0  0  0  0
  185.7690  178.9400  143.3840 C   0  0  0  0  0  2  0  0  0  0  0  0
  190.8610  174.4930  144.1690 C   0  0  1  0  0  0  0  0  0  0  0  0
  189.6740  177.5160  147.0450 C   0  0  0  0  0  2  0  0  0  0  0  0
  192.8180  176.1680  144.1290 C   0  0  0  0  0  1  0  0  0  0  0  0
  189.5210  177.1110  142.6950 C   0  0  0  0  0  3  0  0  0  0  0  0
  190.4980  176.8350  143.8140 C   0  0  1  0  0  3  0  0  0  0  0  0
  187.3840  177.9330  141.7720 C   0  0  2  0  0  3  0  0  0  0  0  0
  190.5660  176.8270  146.2040 O   0  0  0  0  0  0  0  0  0  0  0  0
  185.1960  177.5530  139.8510 C   0  0  0  0  0  2  0  0  0  0  0  0
  187.5070  176.9390  140.6110 C   0  0  0  0  0  2  0  0  0  0  0  0
  190.4970  172.2180  143.4330 O   0  0  0  0  0  1  0  0  0  0  0  0
  190.1560  173.5490  143.1720 C   0  0  1  0  0  3  0  0  0  0  0  0
  188.7090  173.6930  143.2280 N   0  0  0  0  0  2  0  0  0  0  0  0
  188.2760  173.8420  141.9540 O   0  0  0  0  0  1  0  0  0  0  0  0
  192.9500  175.4080  141.8650 O   0  0  0  0  0  1  0  0  0  0  0  0
  191.6610  175.5980  142.0860 O   0  0  0  0  0  0  0  0  0  0  0  0
  186.2060  178.9860  145.7870 O   0  0  0  0  0  0  0  0  0  0  0  0
  184.7590  178.4360  147.5940 C   0  0  0  0  0  2  0  0  0  0  0  0
  184.8540  178.8410  146.1370 C   0  0  0  0  0  3  0  0  0  0  0  0
  184.5900  177.3970  146.5080 C   0  0  0  0  0  2  0  0  0  0  0  0
  1  4  1  1  0  0  0
  1  5  1  0  0  0  0
  1 20  1  0  0  0  0
  2  8  1  6  0  0  0
  2  6  1  0  0  0  0
  2  5  1  0  0  0  0
  5 11  1  1  0  0  0
  6 29  1  1  0  0  0
  7 21  1  0  0  0  0
  7 22  1  0  0  0  0
 10  9  1  6  0  0  0
 10 13  1  0  0  0  0
 11 15  1  0  0  0  0
 12 18  1  0  0  0  0
 12 16  1  1  0  0  0
 12 14  1  0  0  0  0
 13  6  1  0  0  0  0
 14  3  1  1  0  0  0
 14  4  1  0  0  0  0
 17  8  2  0  0  0  0
 18 17  1  6  0  0  0
 18  1  1  0  0  0  0
 19 22  1  6  0  0  0
 19 10  1  0  0  0  0
 19  8  1  0  0  0  0
 20 15  1  0  0  0  0
 21  9  1  0  0  0  0
 24 25  1  0  0  0  0
 24 23  1  1  0  0  0
 24 14  1  0  0  0  0
 26 25  1  0  0  0  0
 27 28  1  0  0  0  0
 28 12  1  0  0  0  0
 29 31  1  0  0  0  0
 31 32  1  0  0  0  0
 31 30  1  0  0  0  0
 32 30  1  0  0  0  0
M  END
>  <MODEL>
1

>  <REMARK>
 VINA RESULT:      -7.6      0.000      0.000
  Name = 
  5 active torsions:
  status: ('A' for Active; 'I' for Inactive)
    1  A    between atoms: C_6  and  O_29
    2  A    between atoms: N_15  and  C_26
    3  A    between atoms: C_16  and  O_22
    4  A    between atoms: C_18  and  O_29
    5  A    between atoms: C_19  and  C_26
                            x       y       z     vdW  Elec       q    Type
                         _______ _______ _______ _____ _____    ______ ____

>  <TORSDO>
F 5

$$$$
=
 OpenBabel11052419053D

 32 37  0  0  1  0  0  0  0  0999 V2000
  189.3700  175.5420  142.8010 C   0  0  2  0  0  0  0  0  0  0  0  0
  187.0730  176.4310  143.5580 C   0  0  2  0  0  3  0  0  0  0  0  0
  192.6320  175.1900  142.9320 O   0  0  0  0  0  1  0  0  0  0  0  0
  190.6070  176.1960  142.6110 O   0  0  0  0  0  0  0  0  0  0  0  0
  188.2410  176.5660  142.5620 C   0  0  2  0  0  3  0  0  0  0  0  0
  185.9670  177.4780  143.2700 C   0  0  2  0  0  3  0  0  0  0  0  0
  187.1300  178.4430  148.2770 C   0  0  0  0  0  2  0  0  0  0  0  0
  187.6180  176.4820  144.9740 C   0  0  0  0  0  0  0  0  0  0  0  0
  185.2590  179.0040  146.7020 C   0  0  0  0  0  2  0  0  0  0  0  0
  186.0560  178.3860  145.5580 C   0  0  2  0  0  3  0  0  0  0  0  0
  187.8030  176.2550  141.1660 C   0  0  0  0  0  2  0  0  0  0  0  0
  190.8360  174.6570  144.4710 C   0  0  2  0  0  0  0  0  0  0  0  0
  185.1250  177.8750  144.4820 C   0  0  0  0  0  2  0  0  0  0  0  0
  191.5240  175.7400  143.5880 C   0  0  1  0  0  0  0  0  0  0  0  0
  188.1610  174.8030  141.0140 C   0  0  0  0  0  2  0  0  0  0  0  0
  191.1310  173.2270  143.9960 C   0  0  0  0  0  1  0  0  0  0  0  0
  188.6880  175.7300  145.2540 C   0  0  0  0  0  3  0  0  0  0  0  0
  189.3670  174.8920  144.1950 C   0  0  1  0  0  3  0  0  0  0  0  0
  186.9240  177.2420  146.0880 C   0  0  2  0  0  3  0  0  0  0  0  0
  189.2650  174.5150  141.8360 O   0  0  0  0  0  0  0  0  0  0  0  0
  186.2160  179.5520  147.7590 C   0  0  0  0  0  2  0  0  0  0  0  0
  187.9030  177.8060  147.1250 C   0  0  0  0  0  2  0  0  0  0  0  0
  193.4110  176.9450  144.5020 O   0  0  0  0  0  1  0  0  0  0  0  0
  192.0170  176.9570  144.4000 C   0  0  1  0  0  3  0  0  0  0  0  0
  191.5910  178.2110  143.7970 N   0  0  0  0  0  2  0  0  0  0  0  0
  190.4540  178.5880  144.4270 O   0  0  0  0  0  1  0  0  0  0  0  0
  192.2500  174.1070  146.0710 O   0  0  0  0  0  1  0  0  0  0  0  0
  191.1320  174.7770  145.8500 O   0  0  0  0  0  0  0  0  0  0  0  0
  185.1690  177.1560  142.1480 O   0  0  0  0  0  0  0  0  0  0  0  0
  183.4740  178.0080  140.7100 C   0  0  0  0  0  2  0  0  0  0  0  0
  184.6530  178.3430  141.6020 C   0  0  0  0  0  3  0  0  0  0  0  0
  184.8230  178.3110  140.0970 C   0  0  0  0  0  2  0  0  0  0  0  0
  1 20  1  6  0  0  0
  1 18  1  0  0  0  0
  2  8  1  1  0  0  0
  4  1  1  0  0  0  0
  4 14  1  0  0  0  0
  5 11  1  6  0  0  0
  5  1  1  0  0  0  0
  5  2  1  0  0  0  0
  6 29  1  6  0  0  0
  6  2  1  0  0  0  0
  6 13  1  0  0  0  0
  8 17  2  0  0  0  0
  8 19  1  0  0  0  0
  9 21  1  0  0  0  0
 10 13  1  6  0  0  0
 10 19  1  0  0  0  0
 10  9  1  0  0  0  0
 12 16  1  6  0  0  0
 12 28  1  0  0  0  0
 14  3  1  6  0  0  0
 14 24  1  0  0  0  0
 14 12  1  0  0  0  0
 15 11  1  0  0  0  0
 15 20  1  0  0  0  0
 18 12  1  0  0  0  0
 18 17  1  1  0  0  0
 19 22  1  1  0  0  0
 21  7  1  0  0  0  0
 22  7  1  0  0  0  0
 24 23  1  6  0  0  0
 25 24  1  0  0  0  0
 25 26  1  0  0  0  0
 28 27  1  0  0  0  0
 30 31  1  0  0  0  0
 31 29  1  0  0  0  0
 32 30  1  0  0  0  0
 32 31  1  0  0  0  0
M  END
>  <MODEL>
2

>  <REMARK>
 VINA RESULT:      -7.5      1.874      4.701
  Name = 
  5 active torsions:
  status: ('A' for Active; 'I' for Inactive)
    1  A    between atoms: C_6  and  O_29
    2  A    between atoms: N_15  and  C_26
    3  A    between atoms: C_16  and  O_22
    4  A    between atoms: C_18  and  O_29
    5  A    between atoms: C_19  and  C_26
                            x       y       z     vdW  Elec       q    Type
                         _______ _______ _______ _____ _____    ______ ____

>  <TORSDO>
F 5

$$$$
=
 OpenBabel11052419053D

 32 37  0  0  1  0  0  0  0  0999 V2000
  190.1550  172.9740  141.6360 C   0  0  2  0  0  0  0  0  0  0  0  0
  188.7400  174.5200  143.1360 C   0  0  2  0  0  3  0  0  0  0  0  0
  192.8790  171.4120  140.6760 O   0  0  0  0  0  1  0  0  0  0  0  0
  191.4390  173.1400  141.0730 O   0  0  0  0  0  0  0  0  0  0  0  0
  189.5230  174.3700  141.8170 C   0  0  2  0  0  3  0  0  0  0  0  0
  188.1240  175.9360  143.2650 C   0  0  2  0  0  3  0  0  0  0  0  0
  190.9600  175.5590  147.6430 C   0  0  0  0  0  2  0  0  0  0  0  0
  189.6400  174.1300  144.2950 C   0  0  0  0  0  0  0  0  0  0  0  0
  189.1140  177.0290  146.7910 C   0  0  0  0  0  2  0  0  0  0  0  0
  189.2260  176.3550  145.4280 C   0  0  2  0  0  3  0  0  0  0  0  0
  188.6160  174.4790  140.6320 C   0  0  0  0  0  2  0  0  0  0  0  0
  191.5440  171.3440  142.6990 C   0  0  2  0  0  0  0  0  0  0  0  0
  187.9020  176.4140  144.7000 C   0  0  0  0  0  2  0  0  0  0  0  0
  192.3290  172.2200  141.6780 C   0  0  1  0  0  0  0  0  0  0  0  0
  188.2930  173.0450  140.3200 C   0  0  0  0  0  2  0  0  0  0  0  0
  191.0830  170.0060  142.1030 C   0  0  0  0  0  1  0  0  0  0  0  0
  190.3420  172.9970  144.1810 C   0  0  0  0  0  3  0  0  0  0  0  0
  190.2870  172.1530  142.9290 C   0  0  1  0  0  3  0  0  0  0  0  0
  189.6660  174.9000  145.6020 C   0  0  2  0  0  3  0  0  0  0  0  0
  189.3690  172.2350  140.7230 O   0  0  0  0  0  0  0  0  0  0  0  0
  190.4690  176.9980  147.4940 C   0  0  0  0  0  2  0  0  0  0  0  0
  191.0420  174.8780  146.2790 C   0  0  0  0  0  2  0  0  0  0  0  0
  194.7150  172.5920  141.8140 O   0  0  0  0  0  1  0  0  0  0  0  0
  193.4840  173.0140  142.3260 C   0  0  1  0  0  3  0  0  0  0  0  0
  193.3390  174.4450  142.1080 N   0  0  0  0  0  2  0  0  0  0  0  0
  193.0690  175.0040  143.3100 O   0  0  0  0  0  1  0  0  0  0  0  0
  192.6810  169.8680  143.8790 O   0  0  0  0  0  1  0  0  0  0  0  0
  192.2450  171.1160  143.9080 O   0  0  0  0  0  0  0  0  0  0  0  0
  186.9790  176.1240  142.4570 O   0  0  0  0  0  0  0  0  0  0  0  0
  186.4950  177.7490  140.7850 C   0  0  0  0  0  2  0  0  0  0  0  0
  186.7900  177.5010  142.2510 C   0  0  0  0  0  3  0  0  0  0  0  0
  187.8780  178.0200  141.3340 C   0  0  0  0  0  2  0  0  0  0  0  0
  1 20  1  6  0  0  0
  1  5  1  0  0  0  0
  1 18  1  0  0  0  0
  2  6  1  0  0  0  0
  2  8  1  1  0  0  0
  4  1  1  0  0  0  0
  4 14  1  0  0  0  0
  5 11  1  6  0  0  0
  5  2  1  0  0  0  0
  6 29  1  6  0  0  0
  6 13  1  0  0  0  0
  8 19  1  0  0  0  0
  9 21  1  0  0  0  0
 10 13  1  1  0  0  0
 10 19  1  0  0  0  0
 10  9  1  0  0  0  0
 12 16  1  6  0  0  0
 12 18  1  0  0  0  0
 12 28  1  0  0  0  0
 14  3  1  6  0  0  0
 14 24  1  0  0  0  0
 14 12  1  0  0  0  0
 15 11  1  0  0  0  0
 15 20  1  0  0  0  0
 17  8  2  0  0  0  0
 18 17  1  1  0  0  0
 19 22  1  6  0  0  0
 21  7  1  0  0  0  0
 22  7  1  0  0  0  0
 24 23  1  6  0  0  0
 25 24  1  0  0  0  0
 25 26  1  0  0  0  0
 27 28  1  0  0  0  0
 30 32  1  0  0  0  0
 30 31  1  0  0  0  0
 31 29  1  0  0  0  0
 32 31  1  0  0  0  0
M  END
>  <MODEL>
3

>  <REMARK>
 VINA RESULT:      -6.5      2.530      5.656
  Name = 
  5 active torsions:
  status: ('A' for Active; 'I' for Inactive)
    1  A    between atoms: C_6  and  O_29
    2  A    between atoms: N_15  and  C_26
    3  A    between atoms: C_16  and  O_22
    4  A    between atoms: C_18  and  O_29
    5  A    between atoms: C_19  and  C_26
                            x       y       z     vdW  Elec       q    Type
                         _______ _______ _______ _____ _____    ______ ____

>  <TORSDO>
F 5

$$$$
=
 OpenBabel11052419053D

 32 37  0  0  1  0  0  0  0  0999 V2000
  189.6370  174.5080  142.2560 C   0  0  2  0  0  0  0  0  0  0  0  0
  188.6660  176.0130  144.1090 C   0  0  2  0  0  3  0  0  0  0  0  0
  191.9450  172.7090  140.7660 O   0  0  0  0  0  1  0  0  0  0  0  0
  190.8640  174.5580  141.5600 O   0  0  0  0  0  0  0  0  0  0  0  0
  189.2690  175.9410  142.6920 C   0  0  2  0  0  3  0  0  0  0  0  0
  188.3120  177.4720  144.4940 C   0  0  2  0  0  3  0  0  0  0  0  0
  191.4910  176.0380  148.3910 C   0  0  0  0  0  2  0  0  0  0  0  0
  189.6050  175.3270  145.0840 C   0  0  0  0  0  0  0  0  0  0  0  0
  189.8360  177.8780  147.9750 C   0  0  0  0  0  2  0  0  0  0  0  0
  189.6900  177.4000  146.5340 C   0  0  2  0  0  3  0  0  0  0  0  0
  188.2730  176.3570  141.6560 C   0  0  0  0  0  2  0  0  0  0  0  0
  190.8390  172.5490  142.9180 C   0  0  2  0  0  0  0  0  0  0  0  0
  188.3250  177.7630  145.9940 C   0  0  0  0  0  2  0  0  0  0  0  0
  191.6470  173.4370  141.9250 C   0  0  1  0  0  0  0  0  0  0  0  0
  187.6840  175.0490  141.2080 C   0  0  0  0  0  2  0  0  0  0  0  0
  190.1010  171.3970  142.2210 C   0  0  0  0  0  1  0  0  0  0  0  0
  190.0920  174.1300  144.7390 C   0  0  0  0  0  3  0  0  0  0  0  0
  189.7660  173.4960  143.4070 C   0  0  1  0  0  3  0  0  0  0  0  0
  189.8970  175.8860  146.4640 C   0  0  2  0  0  3  0  0  0  0  0  0
  188.6470  174.0360  141.3650 O   0  0  0  0  0  0  0  0  0  0  0  0
  191.2340  177.5400  148.4890 C   0  0  0  0  0  2  0  0  0  0  0  0
  191.3130  175.5590  146.9520 C   0  0  0  0  0  2  0  0  0  0  0  0
  194.0630  173.4100  141.8100 O   0  0  0  0  0  1  0  0  0  0  0  0
  192.9800  173.9450  142.5160 C   0  0  1  0  0  3  0  0  0  0  0  0
  193.0590  175.3970  142.4890 N   0  0  0  0  0  2  0  0  0  0  0  0
  193.0130  175.8200  143.7740 O   0  0  0  0  0  1  0  0  0  0  0  0
  191.8720  170.7750  143.7230 O   0  0  0  0  0  1  0  0  0  0  0  0
  191.6160  172.0440  143.9880 O   0  0  0  0  0  0  0  0  0  0  0  0
  187.1360  177.9460  143.8690 O   0  0  0  0  0  0  0  0  0  0  0  0
  184.8670  178.3810  144.4450 C   0  0  0  0  0  2  0  0  0  0  0  0
  186.3210  178.5560  144.8370 C   0  0  0  0  0  3  0  0  0  0  0  0
  185.5630  179.7010  144.1980 C   0  0  0  0  0  2  0  0  0  0  0  0
  1 20  1  6  0  0  0
  1  5  1  0  0  0  0
  1 18  1  0  0  0  0
  2  6  1  0  0  0  0
  2  8  1  1  0  0  0
  4 14  1  0  0  0  0
  4  1  1  0  0  0  0
  5 11  1  6  0  0  0
  5  2  1  0  0  0  0
  6 29  1  1  0  0  0
  6 13  1  0  0  0  0
  7 21  1  0  0  0  0
  8 19  1  0  0  0  0
  9 21  1  0  0  0  0
 10 13  1  1  0  0  0
 10  9  1  0  0  0  0
 12 16  1  6  0  0  0
 12 18  1  0  0  0  0
 12 28  1  0  0  0  0
 14  3  1  6  0  0  0
 14 24  1  0  0  0  0
 14 12  1  0  0  0  0
 15 20  1  0  0  0  0
 15 11  1  0  0  0  0
 17  8  2  0  0  0  0
 18 17  1  1  0  0  0
 19 10  1  0  0  0  0
 19 22  1  6  0  0  0
 22  7  1  0  0  0  0
 24 23  1  6  0  0  0
 25 24  1  0  0  0  0
 25 26  1  0  0  0  0
 27 28  1  0  0  0  0
 29 31  1  0  0  0  0
 30 31  1  0  0  0  0
 32 30  1  0  0  0  0
 32 31  1  0  0  0  0
M  END
>  <MODEL>
4

>  <REMARK>
 VINA RESULT:      -6.4      2.210      5.089
  Name = 
  5 active torsions:
  status: ('A' for Active; 'I' for Inactive)
    1  A    between atoms: C_6  and  O_29
    2  A    between atoms: N_15  and  C_26
    3  A    between atoms: C_16  and  O_22
    4  A    between atoms: C_18  and  O_29
    5  A    between atoms: C_19  and  C_26
                            x       y       z     vdW  Elec       q    Type
                         _______ _______ _______ _____ _____    ______ ____

>  <TORSDO>
F 5

$$$$
=
 OpenBabel11052419053D

 32 37  0  0  1  0  0  0  0  0999 V2000
  192.7250  175.9230  146.2330 C   0  0  2  0  0  0  0  0  0  0  0  0
  190.3070  176.1800  145.3810 C   0  0  2  0  0  3  0  0  0  0  0  0
  195.7900  174.7430  146.2260 O   0  0  0  0  0  1  0  0  0  0  0  0
  193.5180  174.7770  146.4600 O   0  0  0  0  0  0  0  0  0  0  0  0
  191.2450  175.5310  146.4170 C   0  0  2  0  0  3  0  0  0  0  0  0
  188.8340  175.7570  145.6140 C   0  0  2  0  0  3  0  0  0  0  0  0
  189.6200  174.3400  140.6410 C   0  0  0  0  0  2  0  0  0  0  0  0
  190.8230  175.8770  143.9850 C   0  0  0  0  0  0  0  0  0  0  0  0
  187.6400  174.7060  142.1390 C   0  0  0  0  0  2  0  0  0  0  0  0
  188.5860  174.8970  143.3190 C   0  0  2  0  0  3  0  0  0  0  0  0
  190.9440  176.0160  147.8000 C   0  0  0  0  0  2  0  0  0  0  0  0
  194.4970  176.0300  144.6300 C   0  0  2  0  0  0  0  0  0  0  0  0
  187.9510  175.7830  144.3670 C   0  0  0  0  0  2  0  0  0  0  0  0
  194.5790  174.7570  145.5230 C   0  0  1  0  0  0  0  0  0  0  0  0
  191.9200  177.1440  147.9830 C   0  0  0  0  0  2  0  0  0  0  0  0
  195.3950  177.1700  145.1330 C   0  0  0  0  0  1  0  0  0  0  0  0
  192.1280  176.0560  143.7540 C   0  0  0  0  0  3  0  0  0  0  0  0
  193.0740  176.4950  144.8480 C   0  0  1  0  0  3  0  0  0  0  0  0
  189.9020  175.5130  142.8360 C   0  0  2  0  0  3  0  0  0  0  0  0
  193.0640  176.8900  147.2060 O   0  0  0  0  0  0  0  0  0  0  0  0
  188.2800  173.7750  141.1110 C   0  0  0  0  0  2  0  0  0  0  0  0
  190.5530  174.5580  141.8290 C   0  0  0  0  0  2  0  0  0  0  0  0
  195.7250  172.7880  144.7120 O   0  0  0  0  0  1  0  0  0  0  0  0
  194.4910  173.4450  144.7140 C   0  0  1  0  0  3  0  0  0  0  0  0
  193.4740  172.5530  145.2490 N   0  0  0  0  0  2  0  0  0  0  0  0
  192.4370  172.5670  144.3790 O   0  0  0  0  0  1  0  0  0  0  0  0
  195.9160  176.3520  142.9720 O   0  0  0  0  0  1  0  0  0  0  0  0
  194.7580  175.7810  143.2610 O   0  0  0  0  0  0  0  0  0  0  0  0
  188.2300  176.4150  146.7100 O   0  0  0  0  0  0  0  0  0  0  0  0
  186.7560  178.1890  147.2990 C   0  0  0  0  0  2  0  0  0  0  0  0
  187.1470  177.1780  146.2410 C   0  0  0  0  0  3  0  0  0  0  0  0
  185.9430  176.9250  147.1230 C   0  0  0  0  0  2  0  0  0  0  0  0
  1  5  1  0  0  0  0
  1  4  1  1  0  0  0
  1 20  1  0  0  0  0
  2  8  1  6  0  0  0
  2  6  1  0  0  0  0
  2  5  1  0  0  0  0
  5 11  1  1  0  0  0
  6 29  1  1  0  0  0
  7 21  1  0  0  0  0
  7 22  1  0  0  0  0
 10  9  1  6  0  0  0
 10 13  1  0  0  0  0
 11 15  1  0  0  0  0
 12 18  1  0  0  0  0
 12 16  1  1  0  0  0
 12 14  1  0  0  0  0
 13  6  1  0  0  0  0
 14  3  1  1  0  0  0
 14  4  1  0  0  0  0
 17  8  2  0  0  0  0
 18 17  1  6  0  0  0
 18  1  1  0  0  0  0
 19 22  1  6  0  0  0
 19 10  1  0  0  0  0
 19  8  1  0  0  0  0
 20 15  1  0  0  0  0
 21  9  1  0  0  0  0
 24 23  1  1  0  0  0
 24 25  1  0  0  0  0
 24 14  1  0  0  0  0
 26 25  1  0  0  0  0
 27 28  1  0  0  0  0
 28 12  1  0  0  0  0
 31 29  1  0  0  0  0
 31 32  1  0  0  0  0
 31 30  1  0  0  0  0
 32 30  1  0  0  0  0
M  END
>  <MODEL>
5

>  <REMARK>
 VINA RESULT:      -6.4      2.778      3.726
  Name = 
  5 active torsions:
  status: ('A' for Active; 'I' for Inactive)
    1  A    between atoms: C_6  and  O_29
    2  A    between atoms: N_15  and  C_26
    3  A    between atoms: C_16  and  O_22
    4  A    between atoms: C_18  and  O_29
    5  A    between atoms: C_19  and  C_26
                            x       y       z     vdW  Elec       q    Type
                         _______ _______ _______ _____ _____    ______ ____

>  <TORSDO>
F 5

$$$$
=
 OpenBabel11052419053D

 32 37  0  0  1  0  0  0  0  0999 V2000
  194.2380  175.3660  144.8880 C   0  0  2  0  0  0  0  0  0  0  0  0
  191.7050  175.3590  144.4140 C   0  0  2  0  0  3  0  0  0  0  0  0
  197.3730  174.5150  144.4090 O   0  0  0  0  0  1  0  0  0  0  0  0
  195.1720  174.3130  144.9840 O   0  0  0  0  0  0  0  0  0  0  0  0
  192.8520  174.8220  145.2920 C   0  0  2  0  0  3  0  0  0  0  0  0
  190.3370  174.7850  144.8660 C   0  0  2  0  0  3  0  0  0  0  0  0
  190.5050  173.4110  139.8220 C   0  0  0  0  0  2  0  0  0  0  0  0
  192.0320  175.0990  142.9550 C   0  0  0  0  0  0  0  0  0  0  0  0
  188.7470  173.5810  141.6050 C   0  0  0  0  0  2  0  0  0  0  0  0
  189.8360  173.8830  142.6290 C   0  0  2  0  0  3  0  0  0  0  0  0
  192.7150  175.2860  146.7080 C   0  0  0  0  0  2  0  0  0  0  0  0
  195.7240  175.6440  143.0350 C   0  0  2  0  0  0  0  0  0  0  0  0
  189.2780  174.7060  143.7670 C   0  0  0  0  0  2  0  0  0  0  0  0
  196.0750  174.3950  143.8980 C   0  0  1  0  0  0  0  0  0  0  0  0
  193.5830  176.5120  146.7480 C   0  0  0  0  0  2  0  0  0  0  0  0
  196.5630  176.8760  143.4040 C   0  0  0  0  0  1  0  0  0  0  0  0
  193.2610  175.4110  142.5300 C   0  0  0  0  0  3  0  0  0  0  0  0
  194.3100  175.9580  143.4700 C   0  0  1  0  0  3  0  0  0  0  0  0
  190.9910  174.6290  141.9570 C   0  0  2  0  0  3  0  0  0  0  0  0
  194.6160  176.3730  145.8050 O   0  0  0  0  0  0  0  0  0  0  0  0
  189.3190  172.7130  140.4860 C   0  0  0  0  0  2  0  0  0  0  0  0
  191.5800  173.7380  140.8560 C   0  0  0  0  0  2  0  0  0  0  0  0
  197.2710  172.4890  143.0120 O   0  0  0  0  0  1  0  0  0  0  0  0
  196.0040  173.0730  143.1030 C   0  0  1  0  0  3  0  0  0  0  0  0
  195.0830  172.1290  143.7160 N   0  0  0  0  0  2  0  0  0  0  0  0
  194.0160  172.0230  142.8900 O   0  0  0  0  0  1  0  0  0  0  0  0
  196.3730  176.4700  141.0960 O   0  0  0  0  0  1  0  0  0  0  0  0
  195.8000  175.4110  141.6410 O   0  0  0  0  0  0  0  0  0  0  0  0
  189.8400  175.3870  146.0450 O   0  0  0  0  0  0  0  0  0  0  0  0
  189.6390  177.5460  147.0250 C   0  0  0  0  0  2  0  0  0  0  0  0
  189.4940  176.7190  145.7640 C   0  0  0  0  0  3  0  0  0  0  0  0
  188.2690  177.0940  146.5710 C   0  0  0  0  0  2  0  0  0  0  0  0
  1  4  1  1  0  0  0
  1  5  1  0  0  0  0
  1 20  1  0  0  0  0
  2  8  1  6  0  0  0
  2  6  1  0  0  0  0
  2  5  1  0  0  0  0
  5 11  1  1  0  0  0
  6 29  1  1  0  0  0
  7 21  1  0  0  0  0
  7 22  1  0  0  0  0
 10  9  1  6  0  0  0
 10 13  1  0  0  0  0
 11 15  1  0  0  0  0
 12 16  1  1  0  0  0
 12 18  1  0  0  0  0
 12 14  1  0  0  0  0
 13  6  1  0  0  0  0
 14  3  1  1  0  0  0
 14  4  1  0  0  0  0
 17  8  2  0  0  0  0
 18 17  1  6  0  0  0
 18  1  1  0  0  0  0
 19 22  1  6  0  0  0
 19 10  1  0  0  0  0
 19  8  1  0  0  0  0
 20 15  1  0  0  0  0
 21  9  1  0  0  0  0
 24 23  1  1  0  0  0
 24 25  1  0  0  0  0
 24 14  1  0  0  0  0
 26 25  1  0  0  0  0
 27 28  1  0  0  0  0
 28 12  1  0  0  0  0
 31 29  1  0  0  0  0
 31 32  1  0  0  0  0
 31 30  1  0  0  0  0
 32 30  1  0  0  0  0
M  END
>  <MODEL>
6

>  <REMARK>
 VINA RESULT:      -6.3      3.521      5.085
  Name = 
  5 active torsions:
  status: ('A' for Active; 'I' for Inactive)
    1  A    between atoms: C_6  and  O_29
    2  A    between atoms: N_15  and  C_26
    3  A    between atoms: C_16  and  O_22
    4  A    between atoms: C_18  and  O_29
    5  A    between atoms: C_19  and  C_26
                            x       y       z     vdW  Elec       q    Type
                         _______ _______ _______ _____ _____    ______ ____

>  <TORSDO>
F 5

$$$$
=
 OpenBabel11052419053D

 32 37  0  0  1  0  0  0  0  0999 V2000
  190.0400  174.2650  144.0940 C   0  0  2  0  0  0  0  0  0  0  0  0
  192.0200  172.6370  143.8270 C   0  0  2  0  0  3  0  0  0  0  0  0
  188.4740  176.9040  145.2620 O   0  0  0  0  0  1  0  0  0  0  0  0
  189.4550  174.8410  145.2410 O   0  0  0  0  0  0  0  0  0  0  0  0
  190.6590  172.9100  144.4960 C   0  0  2  0  0  3  0  0  0  0  0  0
  192.5940  171.2640  144.2610 C   0  0  2  0  0  3  0  0  0  0  0  0
  196.4590  174.5400  145.5600 C   0  0  0  0  0  2  0  0  0  0  0  0
  192.9490  173.8070  144.0950 C   0  0  0  0  0  0  0  0  0  0  0  0
  196.2020  172.0650  145.2350 C   0  0  0  0  0  2  0  0  0  0  0  0
  194.6980  172.2580  145.0680 C   0  0  2  0  0  3  0  0  0  0  0  0
  189.6260  171.9270  144.0440 C   0  0  0  0  0  2  0  0  0  0  0  0
  190.4870  176.6090  143.9430 C   0  0  2  0  0  0  0  0  0  0  0  0
  194.1180  171.1570  144.2090 C   0  0  0  0  0  2  0  0  0  0  0  0
  189.7040  176.2350  145.2360 C   0  0  1  0  0  0  0  0  0  0  0  0
  188.9420  172.6490  142.9170 C   0  0  0  0  0  2  0  0  0  0  0  0
  189.5700  177.0980  142.8120 C   0  0  0  0  0  1  0  0  0  0  0  0
  192.4650  175.0400  143.9060 C   0  0  0  0  0  3  0  0  0  0  0  0
  191.0320  175.2730  143.4890 C   0  0  1  0  0  3  0  0  0  0  0  0
  194.4160  173.6230  144.4360 C   0  0  2  0  0  3  0  0  0  0  0  0
  189.0160  174.0340  143.1480 O   0  0  0  0  0  0  0  0  0  0  0  0
  196.7630  173.1600  146.1400 C   0  0  0  0  0  2  0  0  0  0  0  0
  194.9550  174.7170  145.3650 C   0  0  0  0  0  2  0  0  0  0  0  0
  189.7580  177.5640  147.2560 O   0  0  0  0  0  1  0  0  0  0  0  0
  190.4640  176.6000  146.5290 C   0  0  1  0  0  3  0  0  0  0  0  0
  190.6840  175.4320  147.3690 N   0  0  0  0  0  2  0  0  0  0  0  0
  192.0130  175.1770  147.3530 O   0  0  0  0  0  1  0  0  0  0  0  0
  191.1780  178.6660  143.5450 O   0  0  0  0  0  1  0  0  0  0  0  0
  191.5250  177.5480  144.1590 O   0  0  0  0  0  0  0  0  0  0  0  0
  191.9600  170.1680  143.6310 O   0  0  0  0  0  0  0  0  0  0  0  0
  191.0930  169.6680  141.4710 C   0  0  0  0  0  2  0  0  0  0  0  0
  192.2770  170.1860  142.2620 C   0  0  0  0  0  3  0  0  0  0  0  0
  192.2790  168.7670  141.7340 C   0  0  0  0  0  2  0  0  0  0  0  0
  1 20  1  6  0  0  0
  1  5  1  0  0  0  0
  1  4  1  0  0  0  0
  2  8  1  1  0  0  0
  2  6  1  0  0  0  0
  2  5  1  0  0  0  0
  5 11  1  6  0  0  0
  6 29  1  6  0  0  0
  7 21  1  0  0  0  0
  8 19  1  0  0  0  0
  9 21  1  0  0  0  0
 10 13  1  6  0  0  0
 10  9  1  0  0  0  0
 12 16  1  6  0  0  0
 12 28  1  0  0  0  0
 12 14  1  0  0  0  0
 13  6  1  0  0  0  0
 14  4  1  0  0  0  0
 14  3  1  6  0  0  0
 14 24  1  0  0  0  0
 15 20  1  0  0  0  0
 15 11  1  0  0  0  0
 17  8  2  0  0  0  0
 18 17  1  1  0  0  0
 18 12  1  0  0  0  0
 18  1  1  0  0  0  0
 19 10  1  0  0  0  0
 19 22  1  1  0  0  0
 22  7  1  0  0  0  0
 24 23  1  1  0  0  0
 24 25  1  0  0  0  0
 26 25  1  0  0  0  0
 27 28  1  0  0  0  0
 30 32  1  0  0  0  0
 30 31  1  0  0  0  0
 31 29  1  0  0  0  0
 32 31  1  0  0  0  0
M  END
>  <MODEL>
7

>  <REMARK>
 VINA RESULT:      -6.3      3.177      7.918
  Name = 
  5 active torsions:
  status: ('A' for Active; 'I' for Inactive)
    1  A    between atoms: C_6  and  O_29
    2  A    between atoms: N_15  and  C_26
    3  A    between atoms: C_16  and  O_22
    4  A    between atoms: C_18  and  O_29
    5  A    between atoms: C_19  and  C_26
                            x       y       z     vdW  Elec       q    Type
                         _______ _______ _______ _____ _____    ______ ____

>  <TORSDO>
F 5

$$$$
=
 OpenBabel11052419053D

 32 37  0  0  1  0  0  0  0  0999 V2000
  188.8040  174.3970  143.0660 C   0  0  2  0  0  0  0  0  0  0  0  0
  191.1780  173.5440  143.5950 C   0  0  2  0  0  3  0  0  0  0  0  0
  186.2930  176.5100  143.1700 O   0  0  0  0  0  1  0  0  0  0  0  0
  187.8120  174.9640  143.8930 O   0  0  0  0  0  0  0  0  0  0  0  0
  189.6760  173.4620  143.9300 C   0  0  2  0  0  3  0  0  0  0  0  0
  192.0060  172.5840  144.4860 C   0  0  2  0  0  3  0  0  0  0  0  0
  194.2890  177.1970  145.4120 C   0  0  0  0  0  2  0  0  0  0  0  0
  191.6250  174.9930  143.6670 C   0  0  0  0  0  0  0  0  0  0  0  0
  194.8610  174.7790  145.7640 C   0  0  0  0  0  2  0  0  0  0  0  0
  193.4570  174.3960  145.3080 C   0  0  2  0  0  3  0  0  0  0  0  0
  189.1230  172.1080  143.6140 C   0  0  0  0  0  2  0  0  0  0  0  0
  188.5630  176.6600  142.3320 C   0  0  2  0  0  0  0  0  0  0  0  0
  193.4570  173.0060  144.7140 C   0  0  0  0  0  2  0  0  0  0  0  0
  187.6320  176.3220  143.5340 C   0  0  1  0  0  0  0  0  0  0  0  0
  188.5560  172.2880  142.2340 C   0  0  0  0  0  2  0  0  0  0  0  0
  187.8510  176.5450  140.9760 C   0  0  0  0  0  1  0  0  0  0  0  0
  190.8610  175.9090  143.0620 C   0  0  0  0  0  3  0  0  0  0  0  0
  189.5720  175.5330  142.3690 C   0  0  1  0  0  3  0  0  0  0  0  0
  192.9500  175.4080  144.2790 C   0  0  2  0  0  3  0  0  0  0  0  0
  188.1590  173.6270  142.0720 O   0  0  0  0  0  0  0  0  0  0  0  0
  194.8340  176.1680  146.4000 C   0  0  0  0  0  2  0  0  0  0  0  0
  192.8960  176.7930  144.9340 C   0  0  0  0  0  2  0  0  0  0  0  0
  186.9780  178.2370  144.8580 O   0  0  0  0  0  1  0  0  0  0  0  0
  187.9080  177.1960  144.7760 C   0  0  1  0  0  3  0  0  0  0  0  0
  187.8620  176.4140  146.0020 N   0  0  0  0  0  2  0  0  0  0  0  0
  186.6880  176.7000  146.6120 O   0  0  0  0  0  1  0  0  0  0  0  0
  188.6910  178.6930  141.4870 O   0  0  0  0  0  1  0  0  0  0  0  0
  189.1920  177.9240  142.4390 O   0  0  0  0  0  0  0  0  0  0  0  0
  191.8990  171.2280  144.0990 O   0  0  0  0  0  0  0  0  0  0  0  0
  191.9000  169.9290  142.1030 C   0  0  0  0  0  2  0  0  0  0  0  0
  192.5640  171.0520  142.8740 C   0  0  0  0  0  3  0  0  0  0  0  0
  193.1940  169.6760  142.8450 C   0  0  0  0  0  2  0  0  0  0  0  0
  1 20  1  6  0  0  0
  1  4  1  0  0  0  0
  1  5  1  0  0  0  0
  2  8  1  1  0  0  0
  2  5  1  0  0  0  0
  2  6  1  0  0  0  0
  5 11  1  6  0  0  0
  6 29  1  6  0  0  0
  6 13  1  0  0  0  0
  7 21  1  0  0  0  0
  8 19  1  0  0  0  0
  9 21  1  0  0  0  0
 10 13  1  6  0  0  0
 10  9  1  0  0  0  0
 12 16  1  6  0  0  0
 12 18  1  0  0  0  0
 12 28  1  0  0  0  0
 12 14  1  0  0  0  0
 14  3  1  6  0  0  0
 14  4  1  0  0  0  0
 14 24  1  0  0  0  0
 15 11  1  0  0  0  0
 17  8  2  0  0  0  0
 18 17  1  1  0  0  0
 18  1  1  0  0  0  0
 19 22  1  1  0  0  0
 19 10  1  0  0  0  0
 20 15  1  0  0  0  0
 22  7  1  0  0  0  0
 24 23  1  1  0  0  0
 24 25  1  0  0  0  0
 25 26  1  0  0  0  0
 27 28  1  0  0  0  0
 30 32  1  0  0  0  0
 30 31  1  0  0  0  0
 31 29  1  0  0  0  0
 32 31  1  0  0  0  0
M  END
>  <MODEL>
8

>  <REMARK>
 VINA RESULT:      -6.2      2.522      7.264
  Name = 
  5 active torsions:
  status: ('A' for Active; 'I' for Inactive)
    1  A    between atoms: C_6  and  O_29
    2  A    between atoms: N_15  and  C_26
    3  A    between atoms: C_16  and  O_22
    4  A    between atoms: C_18  and  O_29
    5  A    between atoms: C_19  and  C_26
                            x       y       z     vdW  Elec       q    Type
                         _______ _______ _______ _____ _____    ______ ____

>  <TORSDO>
F 5

$$$$
=
 OpenBabel11052419053D

 32 37  0  0  1  0  0  0  0  0999 V2000
  194.0450  173.0760  143.3450 C   0  0  2  0  0  0  0  0  0  0  0  0
  191.6210  173.3860  144.1640 C   0  0  2  0  0  3  0  0  0  0  0  0
  197.2200  173.8550  143.0330 O   0  0  0  0  0  1  0  0  0  0  0  0
  194.9550  173.9830  142.7610 O   0  0  0  0  0  0  0  0  0  0  0  0
  192.6140  173.5350  142.9950 C   0  0  2  0  0  3  0  0  0  0  0  0
  190.2020  173.8560  143.7580 C   0  0  2  0  0  3  0  0  0  0  0  0
  191.1860  176.8080  147.9620 C   0  0  0  0  0  2  0  0  0  0  0  0
  192.1810  174.0940  145.3850 C   0  0  0  0  0  0  0  0  0  0  0  0
  189.1630  176.1600  146.6250 C   0  0  0  0  0  2  0  0  0  0  0  0
  190.0720  175.4750  145.6100 C   0  0  2  0  0  3  0  0  0  0  0  0
  192.2490  172.6380  141.8550 C   0  0  0  0  0  2  0  0  0  0  0  0
  195.8100  173.3410  144.9370 C   0  0  2  0  0  0  0  0  0  0  0  0
  189.3330  174.3550  144.9130 C   0  0  0  0  0  2  0  0  0  0  0  0
  196.0220  174.2120  143.6630 C   0  0  1  0  0  0  0  0  0  0  0  0
  193.0940  171.4200  142.0980 C   0  0  0  0  0  2  0  0  0  0  0  0
  196.5740  172.0100  144.8810 C   0  0  0  0  0  1  0  0  0  0  0  0
  193.4610  173.8690  145.7000 C   0  0  0  0  0  3  0  0  0  0  0  0
  194.3420  172.9830  144.8510 C   0  0  1  0  0  3  0  0  0  0  0  0
  191.3160  174.9270  146.3120 C   0  0  2  0  0  3  0  0  0  0  0  0
  194.2670  171.8030  142.7730 O   0  0  0  0  0  0  0  0  0  0  0  0
  189.9110  177.3140  147.2890 C   0  0  0  0  0  2  0  0  0  0  0  0
  192.0780  176.0960  146.9480 C   0  0  0  0  0  2  0  0  0  0  0  0
  197.1630  176.3130  143.3000 O   0  0  0  0  0  1  0  0  0  0  0  0
  196.0860  175.7240  143.9690 C   0  0  1  0  0  3  0  0  0  0  0  0
  194.8550  176.4000  143.5880 N   0  0  0  0  0  2  0  0  0  0  0  0
  194.3960  177.0380  144.6900 O   0  0  0  0  0  1  0  0  0  0  0  0
  197.2750  173.5580  146.5720 O   0  0  0  0  0  1  0  0  0  0  0  0
  196.1110  174.0170  146.1440 O   0  0  0  0  0  0  0  0  0  0  0  0
  189.5180  172.9290  142.9380 O   0  0  0  0  0  0  0  0  0  0  0  0
  188.3760  173.0910  140.8560 C   0  0  0  0  0  2  0  0  0  0  0  0
  188.4660  173.5910  142.2830 C   0  0  0  0  0  3  0  0  0  0  0  0
  189.0320  174.4220  141.1500 C   0  0  0  0  0  2  0  0  0  0  0  0
  1  4  1  6  0  0  0
  1 18  1  0  0  0  0
  2  8  1  1  0  0  0
  4 14  1  0  0  0  0
  5 11  1  6  0  0  0
  5  1  1  0  0  0  0
  5  2  1  0  0  0  0
  6 29  1  1  0  0  0
  6  2  1  0  0  0  0
  6 13  1  0  0  0  0
  8 17  2  0  0  0  0
  8 19  1  0  0  0  0
  9 21  1  0  0  0  0
 10 13  1  1  0  0  0
 10 19  1  0  0  0  0
 10  9  1  0  0  0  0
 11 15  1  0  0  0  0
 12 16  1  6  0  0  0
 12 28  1  0  0  0  0
 14  3  1  6  0  0  0
 14 24  1  0  0  0  0
 14 12  1  0  0  0  0
 15 20  1  0  0  0  0
 18 12  1  0  0  0  0
 18 17  1  1  0  0  0
 19 22  1  6  0  0  0
 20  1  1  0  0  0  0
 21  7  1  0  0  0  0
 22  7  1  0  0  0  0
 24 23  1  6  0  0  0
 25 24  1  0  0  0  0
 25 26  1  0  0  0  0
 28 27  1  0  0  0  0
 30 32  1  0  0  0  0
 30 31  1  0  0  0  0
 31 29  1  0  0  0  0
 32 31  1  0  0  0  0
M  END
>  <MODEL>
9

>  <REMARK>
 VINA RESULT:      -6.1      3.801      6.868
  Name = 
  5 active torsions:
  status: ('A' for Active; 'I' for Inactive)
    1  A    between atoms: C_6  and  O_29
    2  A    between atoms: N_15  and  C_26
    3  A    between atoms: C_16  and  O_22
    4  A    between atoms: C_18  and  O_29
    5  A    between atoms: C_19  and  C_26
                            x       y       z     vdW  Elec       q    Type
                         _______ _______ _______ _____ _____    ______ ____

>  <TORSDO>
F 5

$$$$
