=
 OpenBabel11052418533D

 34 37  0  0  1  0  0  0  0  0999 V2000
  190.8840  175.3890  144.4930 C   0  0  2  0  0  3  0  0  0  0  0  0
  189.2280  175.8960  142.7520 N   0  0  0  0  0  0  0  0  0  0  0  0
  191.3190  174.9810  142.1780 O   0  0  0  0  0  1  0  0  0  0  0  0
  189.7890  175.7030  145.5230 C   0  0  1  0  0  3  0  0  0  0  0  0
  188.2420  175.8310  143.6920 O   0  0  0  0  0  0  0  0  0  0  0  0
  188.7190  176.5400  144.8110 C   0  0  1  0  0  3  0  0  0  0  0  0
  190.3010  174.9610  143.1360 C   0  0  1  0  0  3  0  0  0  0  0  0
  186.8140  178.2420  147.6070 C   0  0  0  0  0  0  0  0  0  0  0  0
  185.5370  177.6910  147.4610 C   0  0  0  0  0  3  0  0  0  0  0  0
  187.5980  176.9360  145.7210 C   0  0  0  0  0  0  0  0  0  0  0  0
  185.2890  176.7580  146.4500 C   0  0  0  0  0  3  0  0  0  0  0  0
  187.8430  177.8610  146.7410 C   0  0  0  0  0  3  0  0  0  0  0  0
  186.3180  176.3800  145.5830 C   0  0  0  0  0  3  0  0  0  0  0  0
  187.1230  179.4080  148.8740 Cl  0  0  0  0  0  0  0  0  0  0  0  0
  189.2980  174.6510  147.4140 C   0  0  0  0  0  1  0  0  0  0  0  0
  189.2250  174.5220  146.0260 O   0  0  0  0  0  0  0  0  0  0  0  0
  191.9840  174.4620  145.0180 C   0  0  0  0  0  2  0  0  0  0  0  0
  192.8290  175.1100  146.1090 C   0  0  0  0  0  2  0  0  0  0  0  0
  193.7130  176.1930  145.5190 C   0  0  0  0  0  2  0  0  0  0  0  0
  195.0520  175.6100  145.1040 C   0  0  0  0  0  2  0  0  0  0  0  0
  195.6540  173.2260  145.2890 C   0  0  0  0  0  2  0  0  0  0  0  0
  195.4460  174.5090  146.0660 C   0  0  0  0  0  3  0  0  0  0  0  0
  196.8490  174.0410  145.7360 C   0  0  0  0  0  2  0  0  0  0  0  0
  188.6270  175.4140  141.5150 C   0  0  0  0  0  2  0  0  0  0  0  0
  187.1970  175.9220  141.3850 C   0  0  0  0  0  2  0  0  0  0  0  0
  187.1150  177.1750  140.5230 C   0  0  0  0  0  2  0  0  0  0  0  0
  185.7070  177.7540  140.5310 C   0  0  0  0  0  2  0  0  0  0  0  0
  183.1200  177.8590  141.6370 O   0  0  0  0  0  0  0  0  0  0  0  0
  185.4070  178.3410  141.8300 N   0  0  0  0  0  0  0  0  0  0  0  0
  184.0600  178.3220  142.3380 C   0  0  0  0  0  0  0  0  0  0  0  0
  184.7790  179.8220  144.1950 C   0  0  0  0  0  2  0  0  0  0  0  0
  186.1940  179.3170  143.9600 C   0  0  0  0  0  2  0  0  0  0  0  0
  186.4370  179.1660  142.4630 C   0  0  0  0  0  2  0  0  0  0  0  0
  183.7700  178.7750  143.7360 C   0  0  0  0  0  2  0  0  0  0  0  0
  1 17  1  1  0  0  0
  1  4  1  0  0  0  0
  2  7  1  0  0  0  0
  2  5  1  0  0  0  0
  4 16  1  6  0  0  0
  5  6  1  0  0  0  0
  6  4  1  0  0  0  0
  6 10  1  1  0  0  0
  7  3  1  6  0  0  0
  7  1  1  0  0  0  0
  8 14  1  0  0  0  0
  9  8  1  0  0  0  0
 10 12  1  0  0  0  0
 11  9  2  0  0  0  0
 12  8  2  0  0  0  0
 13 10  2  0  0  0  0
 13 11  1  0  0  0  0
 16 15  1  0  0  0  0
 17 18  1  0  0  0  0
 19 18  1  0  0  0  0
 20 19  1  0  0  0  0
 20 22  1  0  0  0  0
 21 23  1  0  0  0  0
 21 22  1  0  0  0  0
 23 22  1  0  0  0  0
 24  2  1  0  0  0  0
 25 24  1  0  0  0  0
 26 27  1  0  0  0  0
 26 25  1  0  0  0  0
 27 29  1  0  0  0  0
 28 30  2  0  0  0  0
 29 30  1  0  0  0  0
 29 33  1  0  0  0  0
 30 34  1  0  0  0  0
 32 31  1  0  0  0  0
 33 32  1  0  0  0  0
 34 31  1  0  0  0  0
M  END
>  <MODEL>
1

>  <REMARK>
 VINA RESULT:      -6.8      0.000      0.000
  Name = 
  12 active torsions:
  status: ('A' for Active; 'I' for Inactive)
    1  A    between atoms: C_2  and  C_15
    2  A    between atoms: C_2  and  C_25
    3  A    between atoms: C_3  and  N_13
    4  A    between atoms: C_3  and  C_17
    5  A    between atoms: C_4  and  C_15
    6  A    between atoms: N_5  and  C_18
    7  A    between atoms: C_6  and  C_9
    8  A    between atoms: C_9  and  C_25
    9  A    between atoms: C_12  and  C_28
   10  A    between atoms: C_17  and  C_29
   11  A    between atoms: C_18  and  C_29
   12  A    between atoms: C_21  and  O_32
                            x       y       z     vdW  Elec       q    Type
                         _______ _______ _______ _____ _____    ______ ____

>  <TORSDO>
F 12

$$$$
=
 OpenBabel11052418533D

 34 37  0  0  1  0  0  0  0  0999 V2000
  191.5770  176.1580  144.0630 C   0  0  2  0  0  3  0  0  0  0  0  0
  189.5430  176.8810  142.8930 N   0  0  0  0  0  0  0  0  0  0  0  0
  190.5400  178.2640  144.5160 O   0  0  0  0  0  1  0  0  0  0  0  0
  191.6310  174.9750  143.0830 C   0  0  1  0  0  3  0  0  0  0  0  0
  189.8380  176.0210  141.8770 O   0  0  0  0  0  0  0  0  0  0  0  0
  190.2270  174.8130  142.4860 C   0  0  1  0  0  3  0  0  0  0  0  0
  190.8050  177.3560  143.4850 C   0  0  1  0  0  3  0  0  0  0  0  0
  189.5190  172.8320  139.3370 C   0  0  0  0  0  0  0  0  0  0  0  0
  189.9350  171.5490  139.7060 C   0  0  0  0  0  3  0  0  0  0  0  0
  190.1390  173.6680  141.5260 C   0  0  0  0  0  0  0  0  0  0  0  0
  190.4480  171.3210  140.9850 C   0  0  0  0  0  3  0  0  0  0  0  0
  189.6170  173.8880  140.2480 C   0  0  0  0  0  3  0  0  0  0  0  0
  190.5490  172.3770  141.8950 C   0  0  0  0  0  3  0  0  0  0  0  0
  188.8750  173.1150  137.7350 Cl  0  0  0  0  0  0  0  0  0  0  0  0
  193.5890  174.2920  142.2950 C   0  0  0  0  0  1  0  0  0  0  0  0
  192.5650  175.2140  142.0670 O   0  0  0  0  0  0  0  0  0  0  0  0
  192.9340  176.5240  144.6700 C   0  0  0  0  0  2  0  0  0  0  0  0
  192.9380  176.4480  146.1920 C   0  0  0  0  0  2  0  0  0  0  0  0
  192.3600  175.1250  146.6570 C   0  0  0  0  0  2  0  0  0  0  0  0
  191.2800  175.3600  147.6980 C   0  0  0  0  0  2  0  0  0  0  0  0
  189.5650  174.3640  146.2330 C   0  0  0  0  0  2  0  0  0  0  0  0
  189.9550  175.6050  147.0080 C   0  0  0  0  0  3  0  0  0  0  0  0
  188.9190  174.6530  147.5720 C   0  0  0  0  0  2  0  0  0  0  0  0
  188.8780  178.0180  142.2680 C   0  0  0  0  0  2  0  0  0  0  0  0
  187.6270  177.5630  141.5300 C   0  0  0  0  0  2  0  0  0  0  0  0
  186.3680  178.2090  142.0910 C   0  0  0  0  0  2  0  0  0  0  0  0
  185.4840  177.1800  142.7830 C   0  0  0  0  0  2  0  0  0  0  0  0
  183.7020  179.0260  143.9420 O   0  0  0  0  0  0  0  0  0  0  0  0
  185.4170  177.4500  144.2130 N   0  0  0  0  0  0  0  0  0  0  0  0
  184.4510  178.3850  144.7280 C   0  0  0  0  0  0  0  0  0  0  0  0
  185.5550  178.2410  146.9580 C   0  0  0  0  0  2  0  0  0  0  0  0
  186.1020  176.8910  146.5210 C   0  0  0  0  0  2  0  0  0  0  0  0
  186.5100  176.9600  145.0540 C   0  0  0  0  0  2  0  0  0  0  0  0
  184.2660  178.5490  146.2050 C   0  0  0  0  0  2  0  0  0  0  0  0
  1 17  1  6  0  0  0
  2  7  1  0  0  0  0
  4 16  1  6  0  0  0
  4  1  1  0  0  0  0
  5  6  1  0  0  0  0
  5  2  1  0  0  0  0
  6 10  1  6  0  0  0
  6  4  1  0  0  0  0
  7  1  1  0  0  0  0
  7  3  1  1  0  0  0
  8  9  2  0  0  0  0
  8 12  1  0  0  0  0
  9 11  1  0  0  0  0
 10 13  1  0  0  0  0
 11 13  2  0  0  0  0
 12 10  2  0  0  0  0
 14  8  1  0  0  0  0
 16 15  1  0  0  0  0
 17 18  1  0  0  0  0
 18 19  1  0  0  0  0
 19 20  1  0  0  0  0
 21 22  1  0  0  0  0
 21 23  1  0  0  0  0
 22 23  1  0  0  0  0
 22 20  1  0  0  0  0
 24  2  1  0  0  0  0
 25 26  1  0  0  0  0
 25 24  1  0  0  0  0
 26 27  1  0  0  0  0
 27 29  1  0  0  0  0
 28 30  2  0  0  0  0
 29 30  1  0  0  0  0
 29 33  1  0  0  0  0
 30 34  1  0  0  0  0
 32 31  1  0  0  0  0
 33 32  1  0  0  0  0
 34 31  1  0  0  0  0
M  END
>  <MODEL>
2

>  <REMARK>
 VINA RESULT:      -6.8      3.045      5.404
  Name = 
  12 active torsions:
  status: ('A' for Active; 'I' for Inactive)
    1  A    between atoms: C_2  and  C_15
    2  A    between atoms: C_2  and  C_25
    3  A    between atoms: C_3  and  N_13
    4  A    between atoms: C_3  and  C_17
    5  A    between atoms: C_4  and  C_15
    6  A    between atoms: N_5  and  C_18
    7  A    between atoms: C_6  and  C_9
    8  A    between atoms: C_9  and  C_25
    9  A    between atoms: C_12  and  C_28
   10  A    between atoms: C_17  and  C_29
   11  A    between atoms: C_18  and  C_29
   12  A    between atoms: C_21  and  O_32
                            x       y       z     vdW  Elec       q    Type
                         _______ _______ _______ _____ _____    ______ ____

>  <TORSDO>
F 12

$$$$
=
 OpenBabel11052418533D

 34 37  0  0  1  0  0  0  0  0999 V2000
  192.3600  175.2180  145.7900 C   0  0  2  0  0  3  0  0  0  0  0  0
  190.0450  174.6270  146.3540 N   0  0  0  0  0  0  0  0  0  0  0  0
  191.5600  175.2550  148.0420 O   0  0  0  0  0  1  0  0  0  0  0  0
  191.9390  175.1540  144.3140 C   0  0  1  0  0  3  0  0  0  0  0  0
  189.6750  174.9130  145.0730 O   0  0  0  0  0  0  0  0  0  0  0  0
  190.6490  174.3280  144.2430 C   0  0  1  0  0  3  0  0  0  0  0  0
  191.1710  175.5030  146.7210 C   0  0  1  0  0  3  0  0  0  0  0  0
  190.4420  173.2550  140.6160 C   0  0  0  0  0  0  0  0  0  0  0  0
  189.2500  173.8600  140.2060 C   0  0  0  0  0  3  0  0  0  0  0  0
  190.1450  174.1670  142.8420 C   0  0  0  0  0  0  0  0  0  0  0  0
  188.5060  174.6240  141.1090 C   0  0  0  0  0  3  0  0  0  0  0  0
  190.8900  173.4130  141.9310 C   0  0  0  0  0  3  0  0  0  0  0  0
  188.9530  174.7790  142.4250 C   0  0  0  0  0  3  0  0  0  0  0  0
  191.3730  172.3010  139.4830 Cl  0  0  0  0  0  0  0  0  0  0  0  0
  192.6420  176.5780  142.7640 C   0  0  0  0  0  1  0  0  0  0  0  0
  191.7190  176.4400  143.8030 O   0  0  0  0  0  0  0  0  0  0  0  0
  193.5810  176.1050  146.0490 C   0  0  0  0  0  2  0  0  0  0  0  0
  194.8730  175.3060  146.1760 C   0  0  0  0  0  2  0  0  0  0  0  0
  195.6090  175.2770  144.8480 C   0  0  0  0  0  2  0  0  0  0  0  0
  196.0020  173.8540  144.4970 C   0  0  0  0  0  2  0  0  0  0  0  0
  195.5780  171.5580  145.2910 C   0  0  0  0  0  2  0  0  0  0  0  0
  195.8850  172.9760  145.7250 C   0  0  0  0  0  3  0  0  0  0  0  0
  196.9870  171.9360  145.6980 C   0  0  0  0  0  2  0  0  0  0  0  0
  188.9010  174.9830  147.1840 C   0  0  0  0  0  2  0  0  0  0  0  0
  188.4980  176.4310  146.9420 C   0  0  0  0  0  2  0  0  0  0  0  0
  187.0250  176.5580  146.5770 C   0  0  0  0  0  2  0  0  0  0  0  0
  186.6070  178.0190  146.4850 C   0  0  0  0  0  2  0  0  0  0  0  0
  183.8440  178.4480  146.1550 O   0  0  0  0  0  0  0  0  0  0  0  0
  185.9790  178.2860  145.1980 N   0  0  0  0  0  0  0  0  0  0  0  0
  184.5620  178.5290  145.1220 C   0  0  0  0  0  0  0  0  0  0  0  0
  184.7160  178.4330  142.6360 C   0  0  0  0  0  2  0  0  0  0  0  0
  186.1900  178.7780  142.7850 C   0  0  0  0  0  2  0  0  0  0  0  0
  186.7650  178.0390  143.9880 C   0  0  0  0  0  2  0  0  0  0  0  0
  183.9350  178.9620  143.8330 C   0  0  0  0  0  2  0  0  0  0  0  0
  1 17  1  6  0  0  0
  1  7  1  0  0  0  0
  2  7  1  0  0  0  0
  2 24  1  0  0  0  0
  4 16  1  1  0  0  0
  4  1  1  0  0  0  0
  5  2  1  0  0  0  0
  6 10  1  6  0  0  0
  6  4  1  0  0  0  0
  6  5  1  0  0  0  0
  7  3  1  1  0  0  0
  8 12  1  0  0  0  0
  9  8  2  0  0  0  0
  9 11  1  0  0  0  0
 11 13  2  0  0  0  0
 12 10  2  0  0  0  0
 13 10  1  0  0  0  0
 14  8  1  0  0  0  0
 15 16  1  0  0  0  0
 17 18  1  0  0  0  0
 19 18  1  0  0  0  0
 20 19  1  0  0  0  0
 20 22  1  0  0  0  0
 21 23  1  0  0  0  0
 21 22  1  0  0  0  0
 23 22  1  0  0  0  0
 25 24  1  0  0  0  0
 26 25  1  0  0  0  0
 27 26  1  0  0  0  0
 29 27  1  0  0  0  0
 30 29  1  0  0  0  0
 30 28  2  0  0  0  0
 31 32  1  0  0  0  0
 31 34  1  0  0  0  0
 32 33  1  0  0  0  0
 33 29  1  0  0  0  0
 34 30  1  0  0  0  0
M  END
>  <MODEL>
3

>  <REMARK>
 VINA RESULT:      -6.5      2.846      4.912
  Name = 
  12 active torsions:
  status: ('A' for Active; 'I' for Inactive)
    1  A    between atoms: C_2  and  C_15
    2  A    between atoms: C_2  and  C_25
    3  A    between atoms: C_3  and  N_13
    4  A    between atoms: C_3  and  C_17
    5  A    between atoms: C_4  and  C_15
    6  A    between atoms: N_5  and  C_18
    7  A    between atoms: C_6  and  C_9
    8  A    between atoms: C_9  and  C_25
    9  A    between atoms: C_12  and  C_28
   10  A    between atoms: C_17  and  C_29
   11  A    between atoms: C_18  and  C_29
   12  A    between atoms: C_21  and  O_32
                            x       y       z     vdW  Elec       q    Type
                         _______ _______ _______ _____ _____    ______ ____

>  <TORSDO>
F 12

$$$$
=
 OpenBabel11052418533D

 34 37  0  0  1  0  0  0  0  0999 V2000
  188.1680  175.4850  142.1380 C   0  0  2  0  0  3  0  0  0  0  0  0
  189.7280  173.5940  142.0050 N   0  0  0  0  0  0  0  0  0  0  0  0
  188.2840  174.0760  140.2100 O   0  0  0  0  0  1  0  0  0  0  0  0
  188.8800  175.8860  143.4390 C   0  0  1  0  0  3  0  0  0  0  0  0
  190.5050  174.1860  142.9560 O   0  0  0  0  0  0  0  0  0  0  0  0
  189.6240  174.6470  143.9520 C   0  0  1  0  0  3  0  0  0  0  0  0
  189.0700  174.6490  141.2150 C   0  0  1  0  0  3  0  0  0  0  0  0
  192.4240  175.3200  146.4120 C   0  0  0  0  0  0  0  0  0  0  0  0
  191.7360  175.3540  147.6280 C   0  0  0  0  0  3  0  0  0  0  0  0
  190.3440  174.9000  145.2400 C   0  0  0  0  0  0  0  0  0  0  0  0
  190.3520  175.1560  147.6550 C   0  0  0  0  0  3  0  0  0  0  0  0
  191.7290  175.0890  145.2200 C   0  0  0  0  0  3  0  0  0  0  0  0
  189.6570  174.9280  146.4630 C   0  0  0  0  0  3  0  0  0  0  0  0
  194.1560  175.5670  146.3800 Cl  0  0  0  0  0  0  0  0  0  0  0  0
  189.5140  177.8670  144.2110 C   0  0  0  0  0  1  0  0  0  0  0  0
  189.7830  176.9330  143.2090 O   0  0  0  0  0  0  0  0  0  0  0  0
  187.4610  176.6470  141.4340 C   0  0  0  0  0  2  0  0  0  0  0  0
  186.2080  177.1070  142.1690 C   0  0  0  0  0  2  0  0  0  0  0  0
  186.3650  178.5420  142.6350 C   0  0  0  0  0  2  0  0  0  0  0  0
  185.8830  178.6850  144.0680 C   0  0  0  0  0  2  0  0  0  0  0  0
  186.3430  177.1060  145.9050 C   0  0  0  0  0  2  0  0  0  0  0  0
  185.5530  177.3190  144.6310 C   0  0  0  0  0  3  0  0  0  0  0  0
  184.8800  177.4870  145.9780 C   0  0  0  0  0  2  0  0  0  0  0  0
  190.6500  172.8800  141.1300 C   0  0  0  0  0  2  0  0  0  0  0  0
  191.8660  173.7420  140.8210 C   0  0  0  0  0  2  0  0  0  0  0  0
  193.1630  173.0750  141.2620 C   0  0  0  0  0  2  0  0  0  0  0  0
  193.9880  174.0080  142.1380 C   0  0  0  0  0  2  0  0  0  0  0  0
  196.6040  174.1570  143.1690 O   0  0  0  0  0  0  0  0  0  0  0  0
  194.4210  173.3180  143.3460 N   0  0  0  0  0  0  0  0  0  0  0  0
  195.7690  173.4750  143.8240 C   0  0  0  0  0  0  0  0  0  0  0  0
  195.3510  171.6690  145.4890 C   0  0  0  0  0  2  0  0  0  0  0  0
  193.8690  171.9810  145.3500 C   0  0  0  0  0  2  0  0  0  0  0  0
  193.5480  172.2760  143.8890 C   0  0  0  0  0  2  0  0  0  0  0  0
  196.1770  172.9030  145.1470 C   0  0  0  0  0  2  0  0  0  0  0  0
  1 17  1  6  0  0  0
  1  4  1  0  0  0  0
  2  5  1  0  0  0  0
  4 16  1  6  0  0  0
  4  6  1  0  0  0  0
  5  6  1  0  0  0  0
  6 10  1  1  0  0  0
  7  3  1  6  0  0  0
  7  2  1  0  0  0  0
  7  1  1  0  0  0  0
  8  9  1  0  0  0  0
  9 11  2  0  0  0  0
 10 13  2  0  0  0  0
 12 10  1  0  0  0  0
 12  8  2  0  0  0  0
 13 11  1  0  0  0  0
 14  8  1  0  0  0  0
 16 15  1  0  0  0  0
 17 18  1  0  0  0  0
 18 19  1  0  0  0  0
 19 20  1  0  0  0  0
 20 22  1  0  0  0  0
 21 23  1  0  0  0  0
 22 21  1  0  0  0  0
 22 23  1  0  0  0  0
 24  2  1  0  0  0  0
 25 24  1  0  0  0  0
 25 26  1  0  0  0  0
 26 27  1  0  0  0  0
 27 29  1  0  0  0  0
 28 30  2  0  0  0  0
 29 30  1  0  0  0  0
 29 33  1  0  0  0  0
 30 34  1  0  0  0  0
 32 31  1  0  0  0  0
 33 32  1  0  0  0  0
 34 31  1  0  0  0  0
M  END
>  <MODEL>
4

>  <REMARK>
 VINA RESULT:      -6.4      2.693      8.023
  Name = 
  12 active torsions:
  status: ('A' for Active; 'I' for Inactive)
    1  A    between atoms: C_2  and  C_15
    2  A    between atoms: C_2  and  C_25
    3  A    between atoms: C_3  and  N_13
    4  A    between atoms: C_3  and  C_17
    5  A    between atoms: C_4  and  C_15
    6  A    between atoms: N_5  and  C_18
    7  A    between atoms: C_6  and  C_9
    8  A    between atoms: C_9  and  C_25
    9  A    between atoms: C_12  and  C_28
   10  A    between atoms: C_17  and  C_29
   11  A    between atoms: C_18  and  C_29
   12  A    between atoms: C_21  and  O_32
                            x       y       z     vdW  Elec       q    Type
                         _______ _______ _______ _____ _____    ______ ____

>  <TORSDO>
F 12

$$$$
=
 OpenBabel11052418533D

 34 37  0  0  1  0  0  0  0  0999 V2000
  190.0130  173.8910  141.5240 C   0  0  2  0  0  3  0  0  0  0  0  0
  188.3940  175.6200  142.1710 N   0  0  0  0  0  0  0  0  0  0  0  0
  188.3080  174.6470  140.0290 O   0  0  0  0  0  1  0  0  0  0  0  0
  190.4830  173.8880  142.9870 C   0  0  1  0  0  3  0  0  0  0  0  0
  188.6260  175.3260  143.4830 O   0  0  0  0  0  0  0  0  0  0  0  0
  190.0220  175.2080  143.6170 C   0  0  1  0  0  3  0  0  0  0  0  0
  188.5660  174.3890  141.3790 C   0  0  1  0  0  3  0  0  0  0  0  0
  192.1220  175.9960  146.6690 C   0  0  0  0  0  0  0  0  0  0  0  0
  191.2810  175.5880  147.7090 C   0  0  0  0  0  3  0  0  0  0  0  0
  190.4430  175.3410  145.0470 C   0  0  0  0  0  0  0  0  0  0  0  0
  190.0230  175.0500  147.4210 C   0  0  0  0  0  3  0  0  0  0  0  0
  191.7040  175.8690  145.3400 C   0  0  0  0  0  3  0  0  0  0  0  0
  189.6050  174.9250  146.0930 C   0  0  0  0  0  3  0  0  0  0  0  0
  193.6970  176.6670  147.0300 Cl  0  0  0  0  0  0  0  0  0  0  0  0
  191.0350  172.0590  144.1150 C   0  0  0  0  0  1  0  0  0  0  0  0
  189.9350  172.8020  143.6830 O   0  0  0  0  0  0  0  0  0  0  0  0
  190.3010  172.5860  140.7770 C   0  0  0  0  0  2  0  0  0  0  0  0
  191.4390  172.7220  139.7720 C   0  0  0  0  0  2  0  0  0  0  0  0
  192.7760  172.4970  140.4540 C   0  0  0  0  0  2  0  0  0  0  0  0
  193.5910  173.7780  140.4480 C   0  0  0  0  0  2  0  0  0  0  0  0
  194.9930  175.2190  141.8740 C   0  0  0  0  0  2  0  0  0  0  0  0
  193.8580  174.2180  141.8720 C   0  0  0  0  0  3  0  0  0  0  0  0
  193.5620  175.6980  141.9970 C   0  0  0  0  0  2  0  0  0  0  0  0
  186.9930  176.0160  142.0970 C   0  0  0  0  0  2  0  0  0  0  0  0
  186.8730  177.4700  141.6620 C   0  0  0  0  0  2  0  0  0  0  0  0
  186.4710  178.3780  142.8170 C   0  0  0  0  0  2  0  0  0  0  0  0
  185.3790  177.7380  143.6630 C   0  0  0  0  0  2  0  0  0  0  0  0
  183.6020  178.8720  145.5290 O   0  0  0  0  0  0  0  0  0  0  0  0
  185.6830  177.8880  145.0800 N   0  0  0  0  0  0  0  0  0  0  0  0
  184.7030  178.4480  145.9740 C   0  0  0  0  0  0  0  0  0  0  0  0
  186.4320  178.5190  147.7670 C   0  0  0  0  0  2  0  0  0  0  0  0
  187.1700  177.4320  147.0010 C   0  0  0  0  0  2  0  0  0  0  0  0
  187.0720  177.7100  145.5050 C   0  0  0  0  0  2  0  0  0  0  0  0
  184.9420  178.4590  147.4520 C   0  0  0  0  0  2  0  0  0  0  0  0
  1 17  1  1  0  0  0
  1  4  1  0  0  0  0
  2  5  1  0  0  0  0
  4  6  1  0  0  0  0
  4 16  1  1  0  0  0
  5  6  1  0  0  0  0
  6 10  1  1  0  0  0
  7  3  1  6  0  0  0
  7  1  1  0  0  0  0
  7  2  1  0  0  0  0
  8 14  1  0  0  0  0
  8  9  1  0  0  0  0
 10 12  1  0  0  0  0
 10 13  2  0  0  0  0
 11  9  2  0  0  0  0
 12  8  2  0  0  0  0
 13 11  1  0  0  0  0
 16 15  1  0  0  0  0
 18 19  1  0  0  0  0
 18 17  1  0  0  0  0
 20 19  1  0  0  0  0
 20 22  1  0  0  0  0
 21 23  1  0  0  0  0
 22 21  1  0  0  0  0
 22 23  1  0  0  0  0
 24  2  1  0  0  0  0
 25 24  1  0  0  0  0
 25 26  1  0  0  0  0
 26 27  1  0  0  0  0
 27 29  1  0  0  0  0
 28 30  2  0  0  0  0
 29 33  1  0  0  0  0
 29 30  1  0  0  0  0
 30 34  1  0  0  0  0
 32 31  1  0  0  0  0
 33 32  1  0  0  0  0
 34 31  1  0  0  0  0
M  END
>  <MODEL>
5

>  <REMARK>
 VINA RESULT:      -6.4      2.689      4.203
  Name = 
  12 active torsions:
  status: ('A' for Active; 'I' for Inactive)
    1  A    between atoms: C_2  and  C_15
    2  A    between atoms: C_2  and  C_25
    3  A    between atoms: C_3  and  N_13
    4  A    between atoms: C_3  and  C_17
    5  A    between atoms: C_4  and  C_15
    6  A    between atoms: N_5  and  C_18
    7  A    between atoms: C_6  and  C_9
    8  A    between atoms: C_9  and  C_25
    9  A    between atoms: C_12  and  C_28
   10  A    between atoms: C_17  and  C_29
   11  A    between atoms: C_18  and  C_29
   12  A    between atoms: C_21  and  O_32
                            x       y       z     vdW  Elec       q    Type
                         _______ _______ _______ _____ _____    ______ ____

>  <TORSDO>
F 12

$$$$
=
 OpenBabel11052418533D

 34 37  0  0  1  0  0  0  0  0999 V2000
  189.9560  173.6510  141.3750 C   0  0  2  0  0  3  0  0  0  0  0  0
  188.6390  175.6630  141.8690 N   0  0  0  0  0  0  0  0  0  0  0  0
  188.3750  174.5390  139.8180 O   0  0  0  0  0  1  0  0  0  0  0  0
  190.4370  173.6980  142.8340 C   0  0  1  0  0  3  0  0  0  0  0  0
  188.8370  175.4490  143.2020 O   0  0  0  0  0  0  0  0  0  0  0  0
  190.1980  175.1230  143.3480 C   0  0  1  0  0  3  0  0  0  0  0  0
  188.6040  174.3580  141.1860 C   0  0  1  0  0  3  0  0  0  0  0  0
  192.4420  175.7810  146.3280 C   0  0  0  0  0  0  0  0  0  0  0  0
  191.5500  175.6400  147.3950 C   0  0  0  0  0  3  0  0  0  0  0  0
  190.6520  175.3080  144.7630 C   0  0  0  0  0  0  0  0  0  0  0  0
  190.2090  175.3280  147.1500 C   0  0  0  0  0  3  0  0  0  0  0  0
  191.9940  175.6100  145.0140 C   0  0  0  0  0  3  0  0  0  0  0  0
  189.7610  175.1600  145.8360 C   0  0  0  0  0  3  0  0  0  0  0  0
  194.1190  176.1700  146.6360 Cl  0  0  0  0  0  0  0  0  0  0  0  0
  190.7120  171.9390  144.1580 C   0  0  0  0  0  1  0  0  0  0  0  0
  189.7320  172.7750  143.6190 O   0  0  0  0  0  0  0  0  0  0  0  0
  190.0250  172.2590  140.7430 C   0  0  0  0  0  2  0  0  0  0  0  0
  191.2680  172.0640  139.8810 C   0  0  0  0  0  2  0  0  0  0  0  0
  191.3920  173.1910  138.8720 C   0  0  0  0  0  2  0  0  0  0  0  0
  190.8060  172.7670  137.5370 C   0  0  0  0  0  2  0  0  0  0  0  0
  189.6980  170.7310  136.6970 C   0  0  0  0  0  2  0  0  0  0  0  0
  190.9400  171.2670  137.3770 C   0  0  0  0  0  3  0  0  0  0  0  0
  190.9710  170.9270  135.9010 C   0  0  0  0  0  2  0  0  0  0  0  0
  187.3170  176.2690  141.7590 C   0  0  0  0  0  2  0  0  0  0  0  0
  187.4340  177.7820  141.6370 C   0  0  0  0  0  2  0  0  0  0  0  0
  186.6010  178.5040  142.6880 C   0  0  0  0  0  2  0  0  0  0  0  0
  185.5240  177.5900  143.2570 C   0  0  0  0  0  2  0  0  0  0  0  0
  183.6770  179.0460  144.8040 O   0  0  0  0  0  0  0  0  0  0  0  0
  185.5430  177.6290  144.7130 N   0  0  0  0  0  0  0  0  0  0  0  0
  184.5400  178.3720  145.4290 C   0  0  0  0  0  0  0  0  0  0  0  0
  185.8200  178.0010  147.5350 C   0  0  0  0  0  2  0  0  0  0  0  0
  186.4510  176.7960  146.8560 C   0  0  0  0  0  2  0  0  0  0  0  0
  186.7380  177.1290  145.3960 C   0  0  0  0  0  2  0  0  0  0  0  0
  184.4540  178.2880  146.9220 C   0  0  0  0  0  2  0  0  0  0  0  0
  1 17  1  1  0  0  0
  1  4  1  0  0  0  0
  2  5  1  0  0  0  0
  4  6  1  0  0  0  0
  4 16  1  1  0  0  0
  5  6  1  0  0  0  0
  6 10  1  1  0  0  0
  7  3  1  6  0  0  0
  7  1  1  0  0  0  0
  7  2  1  0  0  0  0
  8 14  1  0  0  0  0
  8  9  1  0  0  0  0
 10 12  1  0  0  0  0
 10 13  2  0  0  0  0
 11  9  2  0  0  0  0
 12  8  2  0  0  0  0
 13 11  1  0  0  0  0
 16 15  1  0  0  0  0
 18 17  1  0  0  0  0
 19 18  1  0  0  0  0
 20 19  1  0  0  0  0
 21 22  1  0  0  0  0
 22 20  1  0  0  0  0
 23 21  1  0  0  0  0
 23 22  1  0  0  0  0
 24  2  1  0  0  0  0
 25 24  1  0  0  0  0
 25 26  1  0  0  0  0
 26 27  1  0  0  0  0
 27 29  1  0  0  0  0
 28 30  2  0  0  0  0
 29 33  1  0  0  0  0
 29 30  1  0  0  0  0
 30 34  1  0  0  0  0
 32 31  1  0  0  0  0
 33 32  1  0  0  0  0
 34 31  1  0  0  0  0
M  END
>  <MODEL>
6

>  <REMARK>
 VINA RESULT:      -6.3      3.304      5.406
  Name = 
  12 active torsions:
  status: ('A' for Active; 'I' for Inactive)
    1  A    between atoms: C_2  and  C_15
    2  A    between atoms: C_2  and  C_25
    3  A    between atoms: C_3  and  N_13
    4  A    between atoms: C_3  and  C_17
    5  A    between atoms: C_4  and  C_15
    6  A    between atoms: N_5  and  C_18
    7  A    between atoms: C_6  and  C_9
    8  A    between atoms: C_9  and  C_25
    9  A    between atoms: C_12  and  C_28
   10  A    between atoms: C_17  and  C_29
   11  A    between atoms: C_18  and  C_29
   12  A    between atoms: C_21  and  O_32
                            x       y       z     vdW  Elec       q    Type
                         _______ _______ _______ _____ _____    ______ ____

>  <TORSDO>
F 12

$$$$
=
 OpenBabel11052418533D

 34 37  0  0  1  0  0  0  0  0999 V2000
  189.1360  176.9580  143.2480 C   0  0  2  0  0  3  0  0  0  0  0  0
  189.7850  175.6750  145.2380 N   0  0  0  0  0  0  0  0  0  0  0  0
  188.8820  177.8380  145.4560 O   0  0  0  0  0  1  0  0  0  0  0  0
  189.3940  175.6820  142.4320 C   0  0  1  0  0  3  0  0  0  0  0  0
  189.6700  174.5230  144.5170 O   0  0  0  0  0  0  0  0  0  0  0  0
  190.2920  174.7730  143.2790 C   0  0  1  0  0  3  0  0  0  0  0  0
  188.8110  176.6510  144.7190 C   0  0  1  0  0  3  0  0  0  0  0  0
  191.6570  172.3700  140.6880 C   0  0  0  0  0  0  0  0  0  0  0  0
  191.2950  171.1320  141.2260 C   0  0  0  0  0  3  0  0  0  0  0  0
  190.6410  173.4950  142.5800 C   0  0  0  0  0  0  0  0  0  0  0  0
  190.6010  171.0720  142.4380 C   0  0  0  0  0  3  0  0  0  0  0  0
  191.3260  173.5500  141.3620 C   0  0  0  0  0  3  0  0  0  0  0  0
  190.2730  172.2510  143.1130 C   0  0  0  0  0  3  0  0  0  0  0  0
  192.5240  172.4440  139.1700 Cl  0  0  0  0  0  0  0  0  0  0  0  0
  188.1020  175.0540  140.7410 C   0  0  0  0  0  1  0  0  0  0  0  0
  188.1890  175.0300  142.1340 O   0  0  0  0  0  0  0  0  0  0  0  0
  188.1590  177.9320  142.5840 C   0  0  0  0  0  2  0  0  0  0  0  0
  186.7360  177.7910  143.1130 C   0  0  0  0  0  2  0  0  0  0  0  0
  185.9620  179.0790  142.8980 C   0  0  0  0  0  2  0  0  0  0  0  0
  185.4550  179.6150  144.2240 C   0  0  0  0  0  2  0  0  0  0  0  0
  185.5530  179.0420  146.6200 C   0  0  0  0  0  2  0  0  0  0  0  0
  185.3600  178.4840  145.2260 C   0  0  0  0  0  3  0  0  0  0  0  0
  184.1610  178.7140  146.1230 C   0  0  0  0  0  2  0  0  0  0  0  0
  189.3980  175.3280  146.6000 C   0  0  0  0  0  2  0  0  0  0  0  0
  190.5210  175.6600  147.5740 C   0  0  0  0  0  2  0  0  0  0  0  0
  191.7990  176.0650  146.8510 C   0  0  0  0  0  2  0  0  0  0  0  0
  192.7480  174.8830  146.7100 C   0  0  0  0  0  2  0  0  0  0  0  0
  193.8150  172.5660  145.5200 O   0  0  0  0  0  0  0  0  0  0  0  0
  193.3260  174.8540  145.3730 N   0  0  0  0  0  0  0  0  0  0  0  0
  193.8190  173.6180  144.8250 C   0  0  0  0  0  0  0  0  0  0  0  0
  194.7890  174.8920  142.9160 C   0  0  0  0  0  2  0  0  0  0  0  0
  193.7740  175.9830  143.2200 C   0  0  0  0  0  2  0  0  0  0  0  0
  193.6280  176.1340  144.7310 C   0  0  0  0  0  2  0  0  0  0  0  0
  194.2650  173.5450  143.3980 C   0  0  0  0  0  2  0  0  0  0  0  0
  1 17  1  6  0  0  0
  1  7  1  0  0  0  0
  2 24  1  0  0  0  0
  4 16  1  1  0  0  0
  4  1  1  0  0  0  0
  4  6  1  0  0  0  0
  5  2  1  0  0  0  0
  6 10  1  6  0  0  0
  6  5  1  0  0  0  0
  7  2  1  0  0  0  0
  7  3  1  1  0  0  0
  8  9  2  0  0  0  0
  8 12  1  0  0  0  0
  9 11  1  0  0  0  0
 10 13  1  0  0  0  0
 11 13  2  0  0  0  0
 12 10  2  0  0  0  0
 14  8  1  0  0  0  0
 15 16  1  0  0  0  0
 17 18  1  0  0  0  0
 19 18  1  0  0  0  0
 19 20  1  0  0  0  0
 20 22  1  0  0  0  0
 22 23  1  0  0  0  0
 22 21  1  0  0  0  0
 23 21  1  0  0  0  0
 24 25  1  0  0  0  0
 26 25  1  0  0  0  0
 27 26  1  0  0  0  0
 29 27  1  0  0  0  0
 30 29  1  0  0  0  0
 30 28  2  0  0  0  0
 31 32  1  0  0  0  0
 31 34  1  0  0  0  0
 32 33  1  0  0  0  0
 33 29  1  0  0  0  0
 34 30  1  0  0  0  0
M  END
>  <MODEL>
7

>  <REMARK>
 VINA RESULT:      -6.2      3.235      8.473
  Name = 
  12 active torsions:
  status: ('A' for Active; 'I' for Inactive)
    1  A    between atoms: C_2  and  C_15
    2  A    between atoms: C_2  and  C_25
    3  A    between atoms: C_3  and  N_13
    4  A    between atoms: C_3  and  C_17
    5  A    between atoms: C_4  and  C_15
    6  A    between atoms: N_5  and  C_18
    7  A    between atoms: C_6  and  C_9
    8  A    between atoms: C_9  and  C_25
    9  A    between atoms: C_12  and  C_28
   10  A    between atoms: C_17  and  C_29
   11  A    between atoms: C_18  and  C_29
   12  A    between atoms: C_21  and  O_32
                            x       y       z     vdW  Elec       q    Type
                         _______ _______ _______ _____ _____    ______ ____

>  <TORSDO>
F 12

$$$$
=
 OpenBabel11052418533D

 34 37  0  0  1  0  0  0  0  0999 V2000
  188.7800  176.0300  143.1400 C   0  0  2  0  0  3  0  0  0  0  0  0
  190.1460  174.0720  142.5680 N   0  0  0  0  0  0  0  0  0  0  0  0
  187.9960  174.3350  141.6470 O   0  0  0  0  0  1  0  0  0  0  0  0
  190.0190  176.5950  143.8510 C   0  0  1  0  0  3  0  0  0  0  0  0
  191.2660  174.7690  142.9160 O   0  0  0  0  0  0  0  0  0  0  0  0
  190.9620  175.4180  144.1280 C   0  0  1  0  0  3  0  0  0  0  0  0
  189.1500  175.0200  142.0410 C   0  0  1  0  0  3  0  0  0  0  0  0
  194.5710  176.3700  144.7750 C   0  0  0  0  0  0  0  0  0  0  0  0
  194.5650  176.5930  146.1550 C   0  0  0  0  0  3  0  0  0  0  0  0
  192.2070  175.8350  144.8470 C   0  0  0  0  0  0  0  0  0  0  0  0
  193.3840  176.4320  146.8850 C   0  0  0  0  0  3  0  0  0  0  0  0
  193.3940  175.9880  144.1230 C   0  0  0  0  0  3  0  0  0  0  0  0
  192.2070  176.0520  146.2330 C   0  0  0  0  0  3  0  0  0  0  0  0
  196.0500  176.5700  143.8630 Cl  0  0  0  0  0  0  0  0  0  0  0  0
  190.8240  178.6620  143.8790 C   0  0  0  0  0  1  0  0  0  0  0  0
  190.6590  177.5510  143.0500 O   0  0  0  0  0  0  0  0  0  0  0  0
  187.7790  177.0990  142.6920 C   0  0  0  0  0  2  0  0  0  0  0  0
  187.2790  177.9590  143.8470 C   0  0  0  0  0  2  0  0  0  0  0  0
  186.0260  178.7130  143.4420 C   0  0  0  0  0  2  0  0  0  0  0  0
  184.9170  178.4690  144.4490 C   0  0  0  0  0  2  0  0  0  0  0  0
  185.5030  179.0410  146.7740 C   0  0  0  0  0  2  0  0  0  0  0  0
  185.5090  177.9380  145.7370 C   0  0  0  0  0  3  0  0  0  0  0  0
  184.4460  177.9590  146.8170 C   0  0  0  0  0  2  0  0  0  0  0  0
  190.5530  173.1890  141.4820 C   0  0  0  0  0  2  0  0  0  0  0  0
  191.7740  173.7510  140.7680 C   0  0  0  0  0  2  0  0  0  0  0  0
  192.9570  172.7930  140.8230 C   0  0  0  0  0  2  0  0  0  0  0  0
  192.7910  171.7810  141.9470 C   0  0  0  0  0  2  0  0  0  0  0  0
  191.9890  172.0290  144.6350 O   0  0  0  0  0  0  0  0  0  0  0  0
  193.7070  172.0820  143.0400 N   0  0  0  0  0  0  0  0  0  0  0  0
  193.2190  172.1570  144.3920 C   0  0  0  0  0  0  0  0  0  0  0  0
  195.4390  173.0390  145.1050 C   0  0  0  0  0  2  0  0  0  0  0  0
  196.0190  172.3850  143.8600 C   0  0  0  0  0  2  0  0  0  0  0  0
  195.0480  172.5580  142.6970 C   0  0  0  0  0  2  0  0  0  0  0  0
  194.1740  172.3050  145.5360 C   0  0  0  0  0  2  0  0  0  0  0  0
  1 17  1  6  0  0  0
  1  4  1  0  0  0  0
  2  5  1  0  0  0  0
  4 16  1  6  0  0  0
  4  6  1  0  0  0  0
  5  6  1  0  0  0  0
  6 10  1  6  0  0  0
  7  3  1  1  0  0  0
  7  2  1  0  0  0  0
  7  1  1  0  0  0  0
  8  9  1  0  0  0  0
  9 11  2  0  0  0  0
 10 13  2  0  0  0  0
 12  8  2  0  0  0  0
 12 10  1  0  0  0  0
 13 11  1  0  0  0  0
 14  8  1  0  0  0  0
 16 15  1  0  0  0  0
 17 18  1  0  0  0  0
 19 18  1  0  0  0  0
 19 20  1  0  0  0  0
 20 22  1  0  0  0  0
 21 23  1  0  0  0  0
 22 21  1  0  0  0  0
 22 23  1  0  0  0  0
 24  2  1  0  0  0  0
 25 26  1  0  0  0  0
 25 24  1  0  0  0  0
 26 27  1  0  0  0  0
 27 29  1  0  0  0  0
 29 30  1  0  0  0  0
 30 28  2  0  0  0  0
 30 34  1  0  0  0  0
 31 34  1  0  0  0  0
 32 31  1  0  0  0  0
 33 29  1  0  0  0  0
 33 32  1  0  0  0  0
M  END
>  <MODEL>
8

>  <REMARK>
 VINA RESULT:      -6.2      2.959      8.254
  Name = 
  12 active torsions:
  status: ('A' for Active; 'I' for Inactive)
    1  A    between atoms: C_2  and  C_15
    2  A    between atoms: C_2  and  C_25
    3  A    between atoms: C_3  and  N_13
    4  A    between atoms: C_3  and  C_17
    5  A    between atoms: C_4  and  C_15
    6  A    between atoms: N_5  and  C_18
    7  A    between atoms: C_6  and  C_9
    8  A    between atoms: C_9  and  C_25
    9  A    between atoms: C_12  and  C_28
   10  A    between atoms: C_17  and  C_29
   11  A    between atoms: C_18  and  C_29
   12  A    between atoms: C_21  and  O_32
                            x       y       z     vdW  Elec       q    Type
                         _______ _______ _______ _____ _____    ______ ____

>  <TORSDO>
F 12

$$$$
=
 OpenBabel11052418533D

 34 37  0  0  1  0  0  0  0  0999 V2000
  189.0410  175.0270  143.1300 C   0  0  2  0  0  3  0  0  0  0  0  0
  188.7650  175.2050  145.5630 N   0  0  0  0  0  0  0  0  0  0  0  0
  190.3990  173.7780  144.6510 O   0  0  0  0  0  1  0  0  0  0  0  0
  188.0550  176.1990  143.0060 C   0  0  1  0  0  3  0  0  0  0  0  0
  188.1770  176.4250  145.3930 O   0  0  0  0  0  0  0  0  0  0  0  0
  187.2740  176.2790  144.3240 C   0  0  1  0  0  3  0  0  0  0  0  0
  189.7560  175.0100  144.4910 C   0  0  1  0  0  3  0  0  0  0  0  0
  184.2660  178.3640  143.3480 C   0  0  0  0  0  0  0  0  0  0  0  0
  184.3350  179.4150  144.2670 C   0  0  0  0  0  3  0  0  0  0  0  0
  186.2530  177.3740  144.3220 C   0  0  0  0  0  0  0  0  0  0  0  0
  185.3660  179.4530  145.2100 C   0  0  0  0  0  3  0  0  0  0  0  0
  185.2260  177.3470  143.3730 C   0  0  0  0  0  3  0  0  0  0  0  0
  186.3250  178.4350  145.2370 C   0  0  0  0  0  3  0  0  0  0  0  0
  182.9760  178.3190  142.1670 Cl  0  0  0  0  0  0  0  0  0  0  0  0
  188.1830  177.9070  141.5970 C   0  0  0  0  0  1  0  0  0  0  0  0
  188.7380  177.4010  142.7740 O   0  0  0  0  0  0  0  0  0  0  0  0
  189.9800  174.8760  141.9300 C   0  0  0  0  0  2  0  0  0  0  0  0
  189.3180  174.1790  140.7470 C   0  0  0  0  0  2  0  0  0  0  0  0
  189.1130  172.7060  141.0500 C   0  0  0  0  0  2  0  0  0  0  0  0
  190.4520  171.9960  141.1330 C   0  0  0  0  0  2  0  0  0  0  0  0
  190.9710  169.6870  141.8260 C   0  0  0  0  0  2  0  0  0  0  0  0
  190.4410  171.0260  142.2950 C   0  0  0  0  0  3  0  0  0  0  0  0
  191.8650  170.6190  142.6160 C   0  0  0  0  0  2  0  0  0  0  0  0
  189.4770  175.2840  146.8320 C   0  0  0  0  0  2  0  0  0  0  0  0
  190.2460  176.5940  146.9310 C   0  0  0  0  0  2  0  0  0  0  0  0
  191.5710  176.4230  147.6630 C   0  0  0  0  0  2  0  0  0  0  0  0
  192.2610  175.1290  147.2530 C   0  0  0  0  0  2  0  0  0  0  0  0
  193.3440  173.2030  145.5080 O   0  0  0  0  0  0  0  0  0  0  0  0
  193.3400  175.4060  146.3130 N   0  0  0  0  0  0  0  0  0  0  0  0
  193.8120  174.3710  145.4310 C   0  0  0  0  0  0  0  0  0  0  0  0
  195.6930  175.8590  144.7540 C   0  0  0  0  0  2  0  0  0  0  0  0
  194.8350  177.0310  145.2050 C   0  0  0  0  0  2  0  0  0  0  0  0
  194.0880  176.6520  146.4790 C   0  0  0  0  0  2  0  0  0  0  0  0
  194.8050  174.6870  144.3550 C   0  0  0  0  0  2  0  0  0  0  0  0
  1 17  1  6  0  0  0
  1  7  1  0  0  0  0
  2 24  1  0  0  0  0
  4 16  1  1  0  0  0
  4  1  1  0  0  0  0
  4  6  1  0  0  0  0
  5  2  1  0  0  0  0
  6 10  1  6  0  0  0
  6  5  1  0  0  0  0
  7  3  1  1  0  0  0
  7  2  1  0  0  0  0
  8 12  2  0  0  0  0
  8  9  1  0  0  0  0
  9 11  2  0  0  0  0
 10 13  2  0  0  0  0
 11 13  1  0  0  0  0
 12 10  1  0  0  0  0
 14  8  1  0  0  0  0
 15 16  1  0  0  0  0
 18 19  1  0  0  0  0
 18 17  1  0  0  0  0
 19 20  1  0  0  0  0
 20 22  1  0  0  0  0
 21 22  1  0  0  0  0
 21 23  1  0  0  0  0
 22 23  1  0  0  0  0
 24 25  1  0  0  0  0
 25 26  1  0  0  0  0
 27 26  1  0  0  0  0
 29 33  1  0  0  0  0
 29 27  1  0  0  0  0
 30 28  2  0  0  0  0
 30 29  1  0  0  0  0
 31 32  1  0  0  0  0
 32 33  1  0  0  0  0
 34 31  1  0  0  0  0
 34 30  1  0  0  0  0
M  END
>  <MODEL>
9

>  <REMARK>
 VINA RESULT:      -6.2      2.781      6.798
  Name = 
  12 active torsions:
  status: ('A' for Active; 'I' for Inactive)
    1  A    between atoms: C_2  and  C_15
    2  A    between atoms: C_2  and  C_25
    3  A    between atoms: C_3  and  N_13
    4  A    between atoms: C_3  and  C_17
    5  A    between atoms: C_4  and  C_15
    6  A    between atoms: N_5  and  C_18
    7  A    between atoms: C_6  and  C_9
    8  A    between atoms: C_9  and  C_25
    9  A    between atoms: C_12  and  C_28
   10  A    between atoms: C_17  and  C_29
   11  A    between atoms: C_18  and  C_29
   12  A    between atoms: C_21  and  O_32
                            x       y       z     vdW  Elec       q    Type
                         _______ _______ _______ _____ _____    ______ ____

>  <TORSDO>
F 12

$$$$
