=
 OpenBabel11052417143D

 30 31  0  0  1  0  0  0  0  0999 V2000
  190.1140  174.8990  142.5900 N   0  0  0  0  0  0  0  0  0  0  0  0
  189.0450  175.2120  141.6610 C   0  0  1  0  0  3  0  0  0  0  0  0
  191.7020  175.4530  144.4110 N   0  0  0  0  0  2  0  0  0  0  0  0
  189.1040  174.1220  140.6040 C   0  0  0  0  0  2  0  0  0  0  0  0
  190.7510  173.6250  142.3240 C   0  0  0  0  0  2  0  0  0  0  0  0
  189.9670  173.0080  141.1810 C   0  0  0  0  0  2  0  0  0  0  0  0
  190.0480  176.9460  143.7160 O   0  0  0  0  0  0  0  0  0  0  0  0
  190.5950  175.8160  143.5810 C   0  0  0  0  0  0  0  0  0  0  0  0
  192.2180  176.3240  145.4620 C   0  0  1  0  0  3  0  0  0  0  0  0
  191.8050  174.8880  147.3240 O   0  0  0  0  0  0  0  0  0  0  0  0
  191.5880  176.0050  146.7830 C   0  0  0  0  0  0  0  0  0  0  0  0
  190.7200  176.9420  147.4200 N   0  0  0  0  0  1  0  0  0  0  0  0
  194.2870  177.1440  146.6700 C   0  0  0  0  0  1  0  0  0  0  0  0
  193.7480  176.2750  145.5440 C   0  0  2  0  0  3  0  0  0  0  0  0
  196.3250  175.2430  144.5600 O   0  0  0  0  0  0  0  0  0  0  0  0
  194.4070  176.5600  144.2670 N   0  0  0  0  0  2  0  0  0  0  0  0
  196.2110  176.4570  142.5890 N   0  0  0  0  0  1  0  0  0  0  0  0
  195.6790  176.0530  143.8450 C   0  0  0  0  0  0  0  0  0  0  0  0
  187.7030  175.1680  142.3850 C   0  0  0  0  0  2  0  0  0  0  0  0
  187.1810  176.5150  142.5570 N   0  0  0  0  0  0  0  0  0  0  0  0
  186.8170  176.9900  141.2350 C   0  0  0  0  0  1  0  0  0  0  0  0
  185.9430  176.4090  143.3180 C   0  0  0  0  0  2  0  0  0  0  0  0
  186.3590  178.3930  147.4200 C   0  0  0  0  0  0  0  0  0  0  0  0
  184.9030  178.4070  147.0890 C   0  0  0  0  0  2  0  0  0  0  0  0
  186.7950  179.0870  148.5410 O   0  0  0  0  0  1  0  0  0  0  0  0
  186.0190  177.2560  144.5460 C   0  0  0  0  0  0  0  0  0  0  0  0
  184.6550  178.9840  145.7330 C   0  0  0  0  0  3  0  0  0  0  0  0
  187.2460  177.6930  146.7060 C   0  0  0  0  0  3  0  0  0  0  0  0
  185.1310  178.4370  144.6120 C   0  0  0  0  0  3  0  0  0  0  0  0
  186.9620  176.9630  145.4530 C   0  0  0  0  0  3  0  0  0  0  0  0
  1  8  1  0  0  0  0
  2 19  1  1  0  0  0
  2  1  1  0  0  0  0
  4  6  1  0  0  0  0
  4  2  1  0  0  0  0
  5  1  1  0  0  0  0
  6  5  1  0  0  0  0
  8  7  2  0  0  0  0
  8  3  1  0  0  0  0
  9  3  1  6  0  0  0
  9 14  1  0  0  0  0
  9 11  1  0  0  0  0
 11 10  2  0  0  0  0
 11 12  1  0  0  0  0
 14 13  1  1  0  0  0
 16 14  1  0  0  0  0
 17 18  1  0  0  0  0
 18 16  1  0  0  0  0
 18 15  2  0  0  0  0
 19 20  1  0  0  0  0
 20 22  1  0  0  0  0
 21 20  1  0  0  0  0
 22 26  1  0  0  0  0
 23 25  1  0  0  0  0
 24 23  1  0  0  0  0
 26 29  1  0  0  0  0
 26 30  2  0  0  0  0
 27 24  1  0  0  0  0
 28 23  2  0  0  0  0
 29 27  2  0  0  0  0
 30 28  1  0  0  0  0
M  END
>  <MODEL>
1

>  <REMARK>
 VINA RESULT:      -6.9      0.000      0.000
  Name = 
  8 active torsions:
  status: ('A' for Active; 'I' for Inactive)
    1  A    between atoms: C_3  and  N_11
    2  A    between atoms: C_3  and  C_19
    3  A    between atoms: C_4  and  C_8
    4  A    between atoms: C_8  and  C_12
    5  A    between atoms: C_8  and  N_13
    6  A    between atoms: N_9  and  C_12
    7  A    between atoms: C_10  and  C_25
    8  A    between atoms: N_11  and  C_25
                            x       y       z     vdW  Elec       q    Type
                         _______ _______ _______ _____ _____    ______ ____

>  <TORSDO>
F 8

$$$$
=
 OpenBabel11052417143D

 30 31  0  0  1  0  0  0  0  0999 V2000
  191.8600  176.0650  144.5290 N   0  0  0  0  0  0  0  0  0  0  0  0
  190.6630  176.6060  145.1440 C   0  0  1  0  0  3  0  0  0  0  0  0
  193.8320  174.5640  144.4580 N   0  0  0  0  0  2  0  0  0  0  0  0
  190.3960  177.9120  144.4130 C   0  0  0  0  0  2  0  0  0  0  0  0
  192.2960  176.8120  143.3670 C   0  0  0  0  0  2  0  0  0  0  0  0
  191.2400  177.8780  143.1460 C   0  0  0  0  0  2  0  0  0  0  0  0
  192.2330  174.4260  146.1530 O   0  0  0  0  0  0  0  0  0  0  0  0
  192.6230  174.9900  145.0930 C   0  0  0  0  0  0  0  0  0  0  0  0
  194.6360  173.4540  144.9590 C   0  0  1  0  0  3  0  0  0  0  0  0
  194.9530  171.9260  143.1520 O   0  0  0  0  0  0  0  0  0  0  0  0
  194.3300  172.1900  144.2150 C   0  0  0  0  0  0  0  0  0  0  0  0
  193.3200  171.2970  144.6830 N   0  0  0  0  0  1  0  0  0  0  0  0
  196.8340  173.3530  146.2100 C   0  0  0  0  0  1  0  0  0  0  0  0
  196.1340  173.7740  144.9280 C   0  0  2  0  0  3  0  0  0  0  0  0
  197.2130  174.8230  142.3960 O   0  0  0  0  0  0  0  0  0  0  0  0
  196.4220  175.1670  144.5760 N   0  0  0  0  0  2  0  0  0  0  0  0
  197.2420  177.0120  143.1600 N   0  0  0  0  0  1  0  0  0  0  0  0
  196.9760  175.6250  143.3370 C   0  0  0  0  0  0  0  0  0  0  0  0
  189.4980  175.6440  144.9400 C   0  0  0  0  0  2  0  0  0  0  0  0
  188.5790  175.7220  146.0660 N   0  0  0  0  0  0  0  0  0  0  0  0
  189.3100  175.2570  147.2300 C   0  0  0  0  0  1  0  0  0  0  0  0
  188.2840  177.1300  146.2920 C   0  0  0  0  0  2  0  0  0  0  0  0
  184.4130  178.7800  144.4940 C   0  0  0  0  0  0  0  0  0  0  0  0
  184.2060  178.7300  145.9730 C   0  0  0  0  0  2  0  0  0  0  0  0
  183.3310  179.0840  143.6790 O   0  0  0  0  0  1  0  0  0  0  0  0
  186.9250  177.4630  145.7710 C   0  0  0  0  0  0  0  0  0  0  0  0
  184.5430  177.3850  146.5280 C   0  0  0  0  0  3  0  0  0  0  0  0
  185.6130  178.5920  143.9360 C   0  0  0  0  0  3  0  0  0  0  0  0
  185.7660  176.8540  146.4590 C   0  0  0  0  0  3  0  0  0  0  0  0
  186.8450  178.1930  144.6490 C   0  0  0  0  0  3  0  0  0  0  0  0
  1  8  1  0  0  0  0
  1  2  1  0  0  0  0
  2 19  1  6  0  0  0
  3  9  1  0  0  0  0
  3  8  1  0  0  0  0
  4  2  1  0  0  0  0
  5  1  1  0  0  0  0
  6  5  1  0  0  0  0
  6  4  1  0  0  0  0
  8  7  2  0  0  0  0
  9 11  1  6  0  0  0
 10 11  2  0  0  0  0
 11 12  1  0  0  0  0
 14  9  1  0  0  0  0
 14 13  1  1  0  0  0
 15 18  2  0  0  0  0
 16 14  1  0  0  0  0
 17 18  1  0  0  0  0
 18 16  1  0  0  0  0
 19 20  1  0  0  0  0
 20 22  1  0  0  0  0
 20 21  1  0  0  0  0
 23 24  1  0  0  0  0
 24 27  1  0  0  0  0
 25 23  1  0  0  0  0
 26 22  1  0  0  0  0
 26 29  1  0  0  0  0
 28 23  2  0  0  0  0
 28 30  1  0  0  0  0
 29 27  2  0  0  0  0
 30 26  2  0  0  0  0
M  END
>  <MODEL>
2

>  <REMARK>
 VINA RESULT:      -6.6      2.730      3.924
  Name = 
  8 active torsions:
  status: ('A' for Active; 'I' for Inactive)
    1  A    between atoms: C_3  and  N_11
    2  A    between atoms: C_3  and  C_19
    3  A    between atoms: C_4  and  C_8
    4  A    between atoms: C_8  and  C_12
    5  A    between atoms: C_8  and  N_13
    6  A    between atoms: N_9  and  C_12
    7  A    between atoms: C_10  and  C_25
    8  A    between atoms: N_11  and  C_25
                            x       y       z     vdW  Elec       q    Type
                         _______ _______ _______ _____ _____    ______ ____

>  <TORSDO>
F 8

$$$$
=
 OpenBabel11052417143D

 30 31  0  0  1  0  0  0  0  0999 V2000
  192.0420  175.1840  144.2430 N   0  0  0  0  0  0  0  0  0  0  0  0
  190.8990  176.0590  144.4180 C   0  0  1  0  0  3  0  0  0  0  0  0
  194.4700  174.6830  144.2310 N   0  0  0  0  0  2  0  0  0  0  0  0
  189.7460  175.3530  143.7210 C   0  0  0  0  0  2  0  0  0  0  0  0
  191.7020  173.9090  143.6440 C   0  0  0  0  0  2  0  0  0  0  0  0
  190.1920  173.9130  143.5020 C   0  0  0  0  0  2  0  0  0  0  0  0
  193.6350  176.7410  144.9490 O   0  0  0  0  0  0  0  0  0  0  0  0
  193.3940  175.5870  144.4970 C   0  0  0  0  0  0  0  0  0  0  0  0
  195.8640  175.0160  144.5010 C   0  0  1  0  0  3  0  0  0  0  0  0
  196.7900  173.8160  146.3450 O   0  0  0  0  0  0  0  0  0  0  0  0
  196.5900  173.8510  145.1020 C   0  0  0  0  0  0  0  0  0  0  0  0
  197.0810  172.7960  144.2760 N   0  0  0  0  0  1  0  0  0  0  0  0
  196.8870  177.0240  143.3470 C   0  0  0  0  0  1  0  0  0  0  0  0
  196.5800  175.5380  143.2500 C   0  0  2  0  0  3  0  0  0  0  0  0
  197.7600  175.0310  140.6000 O   0  0  0  0  0  0  0  0  0  0  0  0
  195.8890  175.2000  142.0030 N   0  0  0  0  0  2  0  0  0  0  0  0
  195.6960  174.7100  139.5940 N   0  0  0  0  0  1  0  0  0  0  0  0
  196.5080  174.9900  140.7280 C   0  0  0  0  0  0  0  0  0  0  0  0
  190.5940  176.2190  145.9030 C   0  0  0  0  0  2  0  0  0  0  0  0
  189.1910  175.9300  146.1630 N   0  0  0  0  0  0  0  0  0  0  0  0
  189.1600  174.9890  147.2670 C   0  0  0  0  0  1  0  0  0  0  0  0
  188.5730  177.1580  146.6420 C   0  0  0  0  0  2  0  0  0  0  0  0
  184.8850  178.4460  144.2610 C   0  0  0  0  0  0  0  0  0  0  0  0
  184.5370  178.6130  145.7040 C   0  0  0  0  0  2  0  0  0  0  0  0
  183.8850  178.6050  143.3110 O   0  0  0  0  0  1  0  0  0  0  0  0
  187.2690  177.3830  145.9510 C   0  0  0  0  0  0  0  0  0  0  0  0
  184.8250  177.3720  146.4830 C   0  0  0  0  0  3  0  0  0  0  0  0
  186.1340  178.2010  143.8530 C   0  0  0  0  0  3  0  0  0  0  0  0
  186.0520  176.8610  146.6100 C   0  0  0  0  0  3  0  0  0  0  0  0
  187.2940  177.9370  144.7300 C   0  0  0  0  0  3  0  0  0  0  0  0
  1  2  1  0  0  0  0
  1  8  1  0  0  0  0
  2 19  1  1  0  0  0
  3  8  1  0  0  0  0
  4  2  1  0  0  0  0
  5  1  1  0  0  0  0
  6  5  1  0  0  0  0
  6  4  1  0  0  0  0
  8  7  2  0  0  0  0
  9  3  1  6  0  0  0
  9 11  1  0  0  0  0
 11 10  2  0  0  0  0
 12 11  1  0  0  0  0
 14 13  1  1  0  0  0
 14  9  1  0  0  0  0
 15 18  2  0  0  0  0
 16 14  1  0  0  0  0
 17 18  1  0  0  0  0
 18 16  1  0  0  0  0
 19 20  1  0  0  0  0
 20 22  1  0  0  0  0
 20 21  1  0  0  0  0
 23 24  1  0  0  0  0
 24 27  1  0  0  0  0
 25 23  1  0  0  0  0
 26 29  1  0  0  0  0
 26 22  1  0  0  0  0
 27 29  2  0  0  0  0
 28 23  2  0  0  0  0
 28 30  1  0  0  0  0
 30 26  2  0  0  0  0
M  END
>  <MODEL>
3

>  <REMARK>
 VINA RESULT:      -6.6      2.365      3.979
  Name = 
  8 active torsions:
  status: ('A' for Active; 'I' for Inactive)
    1  A    between atoms: C_3  and  N_11
    2  A    between atoms: C_3  and  C_19
    3  A    between atoms: C_4  and  C_8
    4  A    between atoms: C_8  and  C_12
    5  A    between atoms: C_8  and  N_13
    6  A    between atoms: N_9  and  C_12
    7  A    between atoms: C_10  and  C_25
    8  A    between atoms: N_11  and  C_25
                            x       y       z     vdW  Elec       q    Type
                         _______ _______ _______ _____ _____    ______ ____

>  <TORSDO>
F 8

$$$$
=
 OpenBabel11052417143D

 30 31  0  0  1  0  0  0  0  0999 V2000
  192.1330  175.2050  144.6380 N   0  0  0  0  0  0  0  0  0  0  0  0
  190.7810  174.7080  144.4720 C   0  0  1  0  0  3  0  0  0  0  0  0
  194.5240  175.3780  144.0070 N   0  0  0  0  0  2  0  0  0  0  0  0
  190.0930  174.9710  145.8020 C   0  0  0  0  0  2  0  0  0  0  0  0
  192.3360  175.9080  145.8880 C   0  0  0  0  0  2  0  0  0  0  0  0
  190.9750  175.9600  146.5540 C   0  0  0  0  0  2  0  0  0  0  0  0
  192.9800  174.2220  142.6940 O   0  0  0  0  0  0  0  0  0  0  0  0
  193.2030  174.9060  143.7310 C   0  0  0  0  0  0  0  0  0  0  0  0
  195.6490  175.1420  143.1090 C   0  0  1  0  0  3  0  0  0  0  0  0
  196.8200  177.1850  143.5010 O   0  0  0  0  0  0  0  0  0  0  0  0
  196.2600  176.4350  142.6590 C   0  0  0  0  0  0  0  0  0  0  0  0
  196.1860  176.8370  141.2920 N   0  0  0  0  0  1  0  0  0  0  0  0
  197.8800  173.9810  142.8100 C   0  0  0  0  0  1  0  0  0  0  0  0
  196.6970  174.2160  143.7370 C   0  0  2  0  0  3  0  0  0  0  0  0
  197.0230  173.0180  146.4080 O   0  0  0  0  0  0  0  0  0  0  0  0
  196.1340  172.9600  144.2390 N   0  0  0  0  0  2  0  0  0  0  0  0
  195.7660  171.1470  145.8690 N   0  0  0  0  0  1  0  0  0  0  0  0
  196.3460  172.4040  145.5420 C   0  0  0  0  0  0  0  0  0  0  0  0
  190.0800  175.4800  143.3590 C   0  0  0  0  0  2  0  0  0  0  0  0
  189.4220  176.6590  143.9020 N   0  0  0  0  0  0  0  0  0  0  0  0
  190.1250  177.8100  143.3650 C   0  0  0  0  0  1  0  0  0  0  0  0
  188.0740  176.6990  143.3520 C   0  0  0  0  0  2  0  0  0  0  0  0
  185.0350  178.0300  146.5020 C   0  0  0  0  0  0  0  0  0  0  0  0
  184.4530  178.3900  145.1740 C   0  0  0  0  0  2  0  0  0  0  0  0
  184.3960  178.4740  147.6520 O   0  0  0  0  0  1  0  0  0  0  0  0
  187.1420  177.3530  144.3180 C   0  0  0  0  0  0  0  0  0  0  0  0
  185.4220  179.1690  144.3460 C   0  0  0  0  0  3  0  0  0  0  0  0
  186.1160  177.2530  146.6190 C   0  0  0  0  0  3  0  0  0  0  0  0
  186.5970  178.6770  143.9460 C   0  0  0  0  0  3  0  0  0  0  0  0
  186.9500  176.7580  145.5040 C   0  0  0  0  0  3  0  0  0  0  0  0
  1  5  1  0  0  0  0
  2 19  1  6  0  0  0
  2  1  1  0  0  0  0
  2  4  1  0  0  0  0
  4  6  1  0  0  0  0
  5  6  1  0  0  0  0
  7  8  2  0  0  0  0
  8  3  1  0  0  0  0
  8  1  1  0  0  0  0
  9 11  1  1  0  0  0
  9 14  1  0  0  0  0
  9  3  1  0  0  0  0
 11 10  2  0  0  0  0
 12 11  1  0  0  0  0
 14 13  1  6  0  0  0
 14 16  1  0  0  0  0
 16 18  1  0  0  0  0
 18 17  1  0  0  0  0
 18 15  2  0  0  0  0
 19 20  1  0  0  0  0
 21 20  1  0  0  0  0
 22 20  1  0  0  0  0
 22 26  1  0  0  0  0
 23 28  2  0  0  0  0
 23 25  1  0  0  0  0
 24 23  1  0  0  0  0
 26 30  2  0  0  0  0
 27 24  1  0  0  0  0
 29 26  1  0  0  0  0
 29 27  2  0  0  0  0
 30 28  1  0  0  0  0
M  END
>  <MODEL>
4

>  <REMARK>
 VINA RESULT:      -6.4      2.286      4.086
  Name = 
  8 active torsions:
  status: ('A' for Active; 'I' for Inactive)
    1  A    between atoms: C_3  and  N_11
    2  A    between atoms: C_3  and  C_19
    3  A    between atoms: C_4  and  C_8
    4  A    between atoms: C_8  and  C_12
    5  A    between atoms: C_8  and  N_13
    6  A    between atoms: N_9  and  C_12
    7  A    between atoms: C_10  and  C_25
    8  A    between atoms: N_11  and  C_25
                            x       y       z     vdW  Elec       q    Type
                         _______ _______ _______ _____ _____    ______ ____

>  <TORSDO>
F 8

$$$$
=
 OpenBabel11052417143D

 30 31  0  0  1  0  0  0  0  0999 V2000
  187.0360  176.9770  142.3800 N   0  0  0  0  0  0  0  0  0  0  0  0
  186.8750  177.9390  143.4530 C   0  0  1  0  0  3  0  0  0  0  0  0
  188.1170  175.0290  141.2910 N   0  0  0  0  0  2  0  0  0  0  0  0
  186.0620  179.0740  142.8530 C   0  0  0  0  0  2  0  0  0  0  0  0
  186.2700  177.3060  141.1950 C   0  0  0  0  0  2  0  0  0  0  0  0
  185.4630  178.5370  141.5590 C   0  0  0  0  0  2  0  0  0  0  0  0
  188.6690  175.6990  143.4580 O   0  0  0  0  0  0  0  0  0  0  0  0
  187.9710  175.8910  142.4240 C   0  0  0  0  0  0  0  0  0  0  0  0
  189.0210  173.8850  141.2830 C   0  0  1  0  0  3  0  0  0  0  0  0
  187.2330  172.4190  141.8760 O   0  0  0  0  0  0  0  0  0  0  0  0
  188.4410  172.7340  142.0470 C   0  0  0  0  0  0  0  0  0  0  0  0
  189.2340  172.0120  142.9880 N   0  0  0  0  0  1  0  0  0  0  0  0
  188.3520  173.8750  138.8410 C   0  0  0  0  0  1  0  0  0  0  0  0
  189.4090  173.4730  139.8590 C   0  0  2  0  0  3  0  0  0  0  0  0
  192.0660  172.2490  140.2030 O   0  0  0  0  0  0  0  0  0  0  0  0
  189.7740  172.0590  139.7430 N   0  0  0  0  0  2  0  0  0  0  0  0
  191.2970  170.1190  139.7050 N   0  0  0  0  0  1  0  0  0  0  0  0
  191.0910  171.5150  139.8920 C   0  0  0  0  0  0  0  0  0  0  0  0
  186.1100  177.3000  144.6070 C   0  0  0  0  0  2  0  0  0  0  0  0
  186.5980  177.8120  145.8790 N   0  0  0  0  0  0  0  0  0  0  0  0
  185.5180  178.5940  146.4520 C   0  0  0  0  0  1  0  0  0  0  0  0
  186.8020  176.6710  146.7600 C   0  0  0  0  0  2  0  0  0  0  0  0
  191.3590  176.2740  146.6530 C   0  0  0  0  0  0  0  0  0  0  0  0
  190.8120  175.0610  145.9720 C   0  0  0  0  0  2  0  0  0  0  0  0
  192.7210  176.3340  146.9150 O   0  0  0  0  0  1  0  0  0  0  0  0
  188.2580  176.3640  146.8780 C   0  0  0  0  0  0  0  0  0  0  0  0
  189.7800  174.3810  146.8120 C   0  0  0  0  0  3  0  0  0  0  0  0
  190.5900  177.3200  146.9700 C   0  0  0  0  0  3  0  0  0  0  0  0
  188.6360  174.9650  147.1740 C   0  0  0  0  0  3  0  0  0  0  0  0
  189.1210  177.3890  146.8260 C   0  0  0  0  0  3  0  0  0  0  0  0
  1  8  1  0  0  0  0
  1  2  1  0  0  0  0
  2 19  1  1  0  0  0
  3  8  1  0  0  0  0
  4  2  1  0  0  0  0
  5  6  1  0  0  0  0
  5  1  1  0  0  0  0
  6  4  1  0  0  0  0
  8  7  2  0  0  0  0
  9  3  1  6  0  0  0
  9 11  1  0  0  0  0
 10 11  2  0  0  0  0
 11 12  1  0  0  0  0
 14 13  1  6  0  0  0
 14  9  1  0  0  0  0
 16 14  1  0  0  0  0
 16 18  1  0  0  0  0
 17 18  1  0  0  0  0
 18 15  2  0  0  0  0
 19 20  1  0  0  0  0
 20 21  1  0  0  0  0
 20 22  1  0  0  0  0
 22 26  1  0  0  0  0
 23 25  1  0  0  0  0
 23 28  2  0  0  0  0
 24 23  1  0  0  0  0
 24 27  1  0  0  0  0
 26 29  1  0  0  0  0
 27 29  2  0  0  0  0
 30 26  2  0  0  0  0
 30 28  1  0  0  0  0
M  END
>  <MODEL>
5

>  <REMARK>
 VINA RESULT:      -6.4      3.179      5.981
  Name = 
  8 active torsions:
  status: ('A' for Active; 'I' for Inactive)
    1  A    between atoms: C_3  and  N_11
    2  A    between atoms: C_3  and  C_19
    3  A    between atoms: C_4  and  C_8
    4  A    between atoms: C_8  and  C_12
    5  A    between atoms: C_8  and  N_13
    6  A    between atoms: N_9  and  C_12
    7  A    between atoms: C_10  and  C_25
    8  A    between atoms: N_11  and  C_25
                            x       y       z     vdW  Elec       q    Type
                         _______ _______ _______ _____ _____    ______ ____

>  <TORSDO>
F 8

$$$$
=
 OpenBabel11052417143D

 30 31  0  0  1  0  0  0  0  0999 V2000
  187.0860  176.8080  142.5690 N   0  0  0  0  0  0  0  0  0  0  0  0
  186.8780  177.7370  143.6630 C   0  0  1  0  0  3  0  0  0  0  0  0
  188.2240  174.9020  141.4660 N   0  0  0  0  0  2  0  0  0  0  0  0
  186.0760  178.8820  143.0660 C   0  0  0  0  0  2  0  0  0  0  0  0
  186.3610  177.1650  141.3680 C   0  0  0  0  0  2  0  0  0  0  0  0
  185.5290  178.3780  141.7370 C   0  0  0  0  0  2  0  0  0  0  0  0
  188.6910  175.5130  143.6690 O   0  0  0  0  0  0  0  0  0  0  0  0
  188.0290  175.7290  142.6160 C   0  0  0  0  0  0  0  0  0  0  0  0
  189.1390  173.7650  141.4580 C   0  0  1  0  0  3  0  0  0  0  0  0
  189.2740  171.8350  142.8560 O   0  0  0  0  0  0  0  0  0  0  0  0
  188.5390  172.5860  142.1610 C   0  0  0  0  0  0  0  0  0  0  0  0
  187.1500  172.2880  142.0260 N   0  0  0  0  0  1  0  0  0  0  0  0
  191.1030  173.3660  139.9100 C   0  0  0  0  0  1  0  0  0  0  0  0
  189.5880  173.4030  140.0380 C   0  0  2  0  0  3  0  0  0  0  0  0
  188.9490  172.6720  137.2570 O   0  0  0  0  0  0  0  0  0  0  0  0
  188.9700  174.2370  139.0040 N   0  0  0  0  0  2  0  0  0  0  0  0
  188.1380  174.7830  136.7480 N   0  0  0  0  0  1  0  0  0  0  0  0
  188.7040  173.8430  137.6520 C   0  0  0  0  0  0  0  0  0  0  0  0
  186.0770  177.0590  144.7700 C   0  0  0  0  0  2  0  0  0  0  0  0
  186.2760  177.7550  146.0330 N   0  0  0  0  0  0  0  0  0  0  0  0
  184.9780  178.2640  146.4330 C   0  0  0  0  0  1  0  0  0  0  0  0
  186.6590  176.7600  147.0240 C   0  0  0  0  0  2  0  0  0  0  0  0
  191.0390  175.4670  147.3100 C   0  0  0  0  0  0  0  0  0  0  0  0
  190.9410  176.7880  148.0020 C   0  0  0  0  0  2  0  0  0  0  0  0
  192.2960  174.9170  147.0980 O   0  0  0  0  0  1  0  0  0  0  0  0
  188.1310  176.5160  146.9680 C   0  0  0  0  0  0  0  0  0  0  0  0
  190.2660  177.8070  147.1430 C   0  0  0  0  0  3  0  0  0  0  0  0
  189.9570  174.7760  146.9380 C   0  0  0  0  0  3  0  0  0  0  0  0
  189.0050  177.6840  146.7230 C   0  0  0  0  0  3  0  0  0  0  0  0
  188.5590  175.2460  147.0260 C   0  0  0  0  0  3  0  0  0  0  0  0
  1  8  1  0  0  0  0
  1  2  1  0  0  0  0
  2 19  1  1  0  0  0
  3  8  1  0  0  0  0
  4  2  1  0  0  0  0
  5  6  1  0  0  0  0
  5  1  1  0  0  0  0
  6  4  1  0  0  0  0
  8  7  2  0  0  0  0
  9  3  1  6  0  0  0
  9 11  1  0  0  0  0
 11 10  2  0  0  0  0
 12 11  1  0  0  0  0
 14 13  1  1  0  0  0
 14  9  1  0  0  0  0
 15 18  2  0  0  0  0
 16 14  1  0  0  0  0
 17 18  1  0  0  0  0
 18 16  1  0  0  0  0
 19 20  1  0  0  0  0
 20 21  1  0  0  0  0
 20 22  1  0  0  0  0
 23 24  1  0  0  0  0
 25 23  1  0  0  0  0
 26 22  1  0  0  0  0
 26 30  2  0  0  0  0
 27 24  1  0  0  0  0
 28 30  1  0  0  0  0
 28 23  2  0  0  0  0
 29 26  1  0  0  0  0
 29 27  2  0  0  0  0
M  END
>  <MODEL>
6

>  <REMARK>
 VINA RESULT:      -6.2      3.290      6.145
  Name = 
  8 active torsions:
  status: ('A' for Active; 'I' for Inactive)
    1  A    between atoms: C_3  and  N_11
    2  A    between atoms: C_3  and  C_19
    3  A    between atoms: C_4  and  C_8
    4  A    between atoms: C_8  and  C_12
    5  A    between atoms: C_8  and  N_13
    6  A    between atoms: N_9  and  C_12
    7  A    between atoms: C_10  and  C_25
    8  A    between atoms: N_11  and  C_25
                            x       y       z     vdW  Elec       q    Type
                         _______ _______ _______ _____ _____    ______ ____

>  <TORSDO>
F 8

$$$$
=
 OpenBabel11052417143D

 30 31  0  0  1  0  0  0  0  0999 V2000
  190.8380  176.0550  143.1520 N   0  0  0  0  0  0  0  0  0  0  0  0
  191.4740  176.8960  144.1470 C   0  0  1  0  0  3  0  0  0  0  0  0
  190.6310  173.9860  141.8030 N   0  0  0  0  0  2  0  0  0  0  0  0
  190.9350  178.2940  143.8910 C   0  0  0  0  0  2  0  0  0  0  0  0
  189.8210  176.7440  142.3850 C   0  0  0  0  0  2  0  0  0  0  0  0
  189.7140  178.1280  142.9960 C   0  0  0  0  0  2  0  0  0  0  0  0
  192.2150  174.2000  143.5030 O   0  0  0  0  0  0  0  0  0  0  0  0
  191.2690  174.7210  142.8500 C   0  0  0  0  0  0  0  0  0  0  0  0
  190.9950  172.6130  141.4690 C   0  0  1  0  0  3  0  0  0  0  0  0
  190.4410  170.4120  142.2100 O   0  0  0  0  0  0  0  0  0  0  0  0
  190.1310  171.6330  142.2030 C   0  0  0  0  0  0  0  0  0  0  0  0
  188.9450  172.0650  142.8690 N   0  0  0  0  0  1  0  0  0  0  0  0
  192.3590  172.1810  139.3800 C   0  0  0  0  0  1  0  0  0  0  0  0
  190.9640  172.3650  139.9570 C   0  0  2  0  0  3  0  0  0  0  0  0
  188.0830  172.3530  139.3430 O   0  0  0  0  0  0  0  0  0  0  0  0
  190.1930  173.3700  139.2200 N   0  0  0  0  0  2  0  0  0  0  0  0
  188.1920  174.3410  138.1540 N   0  0  0  0  0  1  0  0  0  0  0  0
  188.7930  173.3040  138.9220 C   0  0  0  0  0  0  0  0  0  0  0  0
  191.0790  176.4300  145.5450 C   0  0  0  0  0  2  0  0  0  0  0  0
  189.6460  176.1840  145.6060 N   0  0  0  0  0  0  0  0  0  0  0  0
  189.4820  174.7940  145.9880 C   0  0  0  0  0  1  0  0  0  0  0  0
  189.1120  176.9840  146.6990 C   0  0  0  0  0  2  0  0  0  0  0  0
  185.0870  178.7220  145.3920 C   0  0  0  0  0  0  0  0  0  0  0  0
  185.2330  179.0390  146.8450 C   0  0  0  0  0  2  0  0  0  0  0  0
  183.8730  178.9870  144.7710 O   0  0  0  0  0  1  0  0  0  0  0  0
  187.7030  177.3820  146.4070 C   0  0  0  0  0  0  0  0  0  0  0  0
  185.5710  177.8200  147.6390 C   0  0  0  0  0  3  0  0  0  0  0  0
  186.0990  178.2440  144.6620 C   0  0  0  0  0  3  0  0  0  0  0  0
  186.6920  177.1170  147.4530 C   0  0  0  0  0  3  0  0  0  0  0  0
  187.4240  177.8430  145.1790 C   0  0  0  0  0  3  0  0  0  0  0  0
  1  2  1  0  0  0  0
  2 19  1  1  0  0  0
  3  8  1  0  0  0  0
  4  2  1  0  0  0  0
  5  6  1  0  0  0  0
  5  1  1  0  0  0  0
  6  4  1  0  0  0  0
  8  1  1  0  0  0  0
  8  7  2  0  0  0  0
  9  3  1  6  0  0  0
  9 11  1  0  0  0  0
 11 10  2  0  0  0  0
 11 12  1  0  0  0  0
 14 13  1  6  0  0  0
 14  9  1  0  0  0  0
 16 14  1  0  0  0  0
 17 18  1  0  0  0  0
 18 16  1  0  0  0  0
 18 15  2  0  0  0  0
 19 20  1  0  0  0  0
 20 21  1  0  0  0  0
 20 22  1  0  0  0  0
 23 24  1  0  0  0  0
 24 27  1  0  0  0  0
 25 23  1  0  0  0  0
 26 22  1  0  0  0  0
 26 29  1  0  0  0  0
 28 30  1  0  0  0  0
 28 23  2  0  0  0  0
 29 27  2  0  0  0  0
 30 26  2  0  0  0  0
M  END
>  <MODEL>
7

>  <REMARK>
 VINA RESULT:      -6.2      2.814      5.471
  Name = 
  8 active torsions:
  status: ('A' for Active; 'I' for Inactive)
    1  A    between atoms: C_3  and  N_11
    2  A    between atoms: C_3  and  C_19
    3  A    between atoms: C_4  and  C_8
    4  A    between atoms: C_8  and  C_12
    5  A    between atoms: C_8  and  N_13
    6  A    between atoms: N_9  and  C_12
    7  A    between atoms: C_10  and  C_25
    8  A    between atoms: N_11  and  C_25
                            x       y       z     vdW  Elec       q    Type
                         _______ _______ _______ _____ _____    ______ ____

>  <TORSDO>
F 8

$$$$
=
 OpenBabel11052417143D

 30 31  0  0  1  0  0  0  0  0999 V2000
  190.4700  176.5410  145.6280 N   0  0  0  0  0  0  0  0  0  0  0  0
  191.8980  176.3330  145.4830 C   0  0  1  0  0  3  0  0  0  0  0  0
  188.2650  177.3860  144.8730 N   0  0  0  0  0  2  0  0  0  0  0  0
  192.3940  175.9920  146.8790 C   0  0  0  0  0  2  0  0  0  0  0  0
  189.9730  176.2100  146.9470 C   0  0  0  0  0  2  0  0  0  0  0  0
  191.1610  175.6440  147.7020 C   0  0  0  0  0  2  0  0  0  0  0  0
  190.1600  177.4920  143.5160 O   0  0  0  0  0  0  0  0  0  0  0  0
  189.6530  177.1530  144.6210 C   0  0  0  0  0  0  0  0  0  0  0  0
  187.3700  177.9700  143.8800 C   0  0  1  0  0  3  0  0  0  0  0  0
  186.4920  175.9120  143.0460 O   0  0  0  0  0  0  0  0  0  0  0  0
  187.0780  176.9950  142.7790 C   0  0  0  0  0  0  0  0  0  0  0  0
  187.4830  177.2690  141.4390 N   0  0  0  0  0  1  0  0  0  0  0  0
  185.6220  179.8020  143.8720 C   0  0  0  0  0  1  0  0  0  0  0  0
  186.0810  178.5020  144.5140 C   0  0  2  0  0  3  0  0  0  0  0  0
  184.8060  176.7670  146.5240 O   0  0  0  0  0  0  0  0  0  0  0  0
  186.1530  178.6060  145.9740 N   0  0  0  0  0  2  0  0  0  0  0  0
  185.6190  178.0070  148.3060 N   0  0  0  0  0  1  0  0  0  0  0  0
  185.4890  177.7510  146.9120 C   0  0  0  0  0  0  0  0  0  0  0  0
  192.1550  175.1660  144.5360 C   0  0  0  0  0  2  0  0  0  0  0  0
  192.7750  175.6430  143.3080 N   0  0  0  0  0  0  0  0  0  0  0  0
  194.1220  176.0550  143.6570 C   0  0  0  0  0  1  0  0  0  0  0  0
  192.9050  174.5020  142.4130 C   0  0  0  0  0  2  0  0  0  0  0  0
  188.5920  172.9890  142.2050 C   0  0  0  0  0  0  0  0  0  0  0  0
  189.2430  172.2580  143.3340 C   0  0  0  0  0  2  0  0  0  0  0  0
  187.3200  172.6010  141.8050 O   0  0  0  0  0  1  0  0  0  0  0  0
  191.5920  173.8040  142.2720 C   0  0  0  0  0  0  0  0  0  0  0  0
  190.5310  171.6310  142.9100 C   0  0  0  0  0  3  0  0  0  0  0  0
  189.1710  174.0330  141.6040 C   0  0  0  0  0  3  0  0  0  0  0  0
  191.5760  172.3390  142.4740 C   0  0  0  0  0  3  0  0  0  0  0  0
  190.5400  174.5260  141.8580 C   0  0  0  0  0  3  0  0  0  0  0  0
  1  5  1  0  0  0  0
  2 19  1  6  0  0  0
  2  1  1  0  0  0  0
  2  4  1  0  0  0  0
  4  6  1  0  0  0  0
  5  6  1  0  0  0  0
  7  8  2  0  0  0  0
  8  3  1  0  0  0  0
  8  1  1  0  0  0  0
  9 11  1  6  0  0  0
  9 14  1  0  0  0  0
  9  3  1  0  0  0  0
 11 10  2  0  0  0  0
 12 11  1  0  0  0  0
 14 13  1  6  0  0  0
 14 16  1  0  0  0  0
 15 18  2  0  0  0  0
 16 18  1  0  0  0  0
 18 17  1  0  0  0  0
 20 21  1  0  0  0  0
 20 19  1  0  0  0  0
 22 20  1  0  0  0  0
 23 24  1  0  0  0  0
 25 23  1  0  0  0  0
 26 22  1  0  0  0  0
 26 29  1  0  0  0  0
 27 24  1  0  0  0  0
 28 30  1  0  0  0  0
 28 23  2  0  0  0  0
 29 27  2  0  0  0  0
 30 26  2  0  0  0  0
M  END
>  <MODEL>
8

>  <REMARK>
 VINA RESULT:      -6.2      2.332      7.470
  Name = 
  8 active torsions:
  status: ('A' for Active; 'I' for Inactive)
    1  A    between atoms: C_3  and  N_11
    2  A    between atoms: C_3  and  C_19
    3  A    between atoms: C_4  and  C_8
    4  A    between atoms: C_8  and  C_12
    5  A    between atoms: C_8  and  N_13
    6  A    between atoms: N_9  and  C_12
    7  A    between atoms: C_10  and  C_25
    8  A    between atoms: N_11  and  C_25
                            x       y       z     vdW  Elec       q    Type
                         _______ _______ _______ _____ _____    ______ ____

>  <TORSDO>
F 8

$$$$
=
 OpenBabel11052417143D

 30 31  0  0  1  0  0  0  0  0999 V2000
  191.5960  175.4330  144.1990 N   0  0  0  0  0  0  0  0  0  0  0  0
  191.2780  175.7700  145.5730 C   0  0  1  0  0  3  0  0  0  0  0  0
  191.2210  174.2190  142.0700 N   0  0  0  0  0  2  0  0  0  0  0  0
  192.5360  176.4190  146.1260 C   0  0  0  0  0  2  0  0  0  0  0  0
  192.8790  175.9460  143.7650 C   0  0  0  0  0  2  0  0  0  0  0  0
  193.4020  176.7730  144.9240 C   0  0  0  0  0  2  0  0  0  0  0  0
  189.7240  174.0760  143.8550 O   0  0  0  0  0  0  0  0  0  0  0  0
  190.7970  174.5560  143.3940 C   0  0  0  0  0  0  0  0  0  0  0  0
  190.4380  173.3630  141.1860 C   0  0  1  0  0  3  0  0  0  0  0  0
  189.6990  171.4230  142.3650 O   0  0  0  0  0  0  0  0  0  0  0  0
  190.5540  171.9240  141.5870 C   0  0  0  0  0  0  0  0  0  0  0  0
  191.6400  171.1230  141.1210 N   0  0  0  0  0  1  0  0  0  0  0  0
  188.1870  173.0090  140.0810 C   0  0  0  0  0  1  0  0  0  0  0  0
  188.9740  173.8070  141.1100 C   0  0  2  0  0  3  0  0  0  0  0  0
  187.0580  175.6110  142.4320 O   0  0  0  0  0  0  0  0  0  0  0  0
  188.8150  175.2510  140.9220 N   0  0  0  0  0  2  0  0  0  0  0  0
  187.7840  177.4680  141.2490 N   0  0  0  0  0  1  0  0  0  0  0  0
  187.8450  176.0830  141.5700 C   0  0  0  0  0  0  0  0  0  0  0  0
  190.1200  176.7620  145.6060 C   0  0  0  0  0  2  0  0  0  0  0  0
  188.9330  176.1300  146.1650 N   0  0  0  0  0  0  0  0  0  0  0  0
  189.3990  175.1880  147.1660 C   0  0  0  0  0  1  0  0  0  0  0  0
  188.1850  177.1580  146.8740 C   0  0  0  0  0  2  0  0  0  0  0  0
  184.6080  178.7470  144.5040 C   0  0  0  0  0  0  0  0  0  0  0  0
  184.1700  178.6680  145.9300 C   0  0  0  0  0  2  0  0  0  0  0  0
  183.6620  179.0400  143.5300 O   0  0  0  0  0  1  0  0  0  0  0  0
  186.9180  177.4680  146.1470 C   0  0  0  0  0  0  0  0  0  0  0  0
  184.4480  177.3220  146.5140 C   0  0  0  0  0  3  0  0  0  0  0  0
  185.8860  178.5970  144.1420 C   0  0  0  0  0  3  0  0  0  0  0  0
  185.6800  176.8210  146.6340 C   0  0  0  0  0  3  0  0  0  0  0  0
  186.9990  178.2140  145.0360 C   0  0  0  0  0  3  0  0  0  0  0  0
  1  2  1  0  0  0  0
  2 19  1  6  0  0  0
  2  4  1  0  0  0  0
  3  8  1  0  0  0  0
  5  1  1  0  0  0  0
  5  6  1  0  0  0  0
  6  4  1  0  0  0  0
  8  7  2  0  0  0  0
  8  1  1  0  0  0  0
  9 11  1  1  0  0  0
  9  3  1  0  0  0  0
 11 10  2  0  0  0  0
 12 11  1  0  0  0  0
 14 13  1  6  0  0  0
 14  9  1  0  0  0  0
 16 14  1  0  0  0  0
 16 18  1  0  0  0  0
 17 18  1  0  0  0  0
 18 15  2  0  0  0  0
 19 20  1  0  0  0  0
 20 22  1  0  0  0  0
 20 21  1  0  0  0  0
 23 24  1  0  0  0  0
 24 27  1  0  0  0  0
 25 23  1  0  0  0  0
 26 29  1  0  0  0  0
 26 22  1  0  0  0  0
 27 29  2  0  0  0  0
 28 23  2  0  0  0  0
 28 30  1  0  0  0  0
 30 26  2  0  0  0  0
M  END
>  <MODEL>
9

>  <REMARK>
 VINA RESULT:      -6.2      2.499      5.555
  Name = 
  8 active torsions:
  status: ('A' for Active; 'I' for Inactive)
    1  A    between atoms: C_3  and  N_11
    2  A    between atoms: C_3  and  C_19
    3  A    between atoms: C_4  and  C_8
    4  A    between atoms: C_8  and  C_12
    5  A    between atoms: C_8  and  N_13
    6  A    between atoms: N_9  and  C_12
    7  A    between atoms: C_10  and  C_25
    8  A    between atoms: N_11  and  C_25
                            x       y       z     vdW  Elec       q    Type
                         _______ _______ _______ _____ _____    ______ ____

>  <TORSDO>
F 8

$$$$
