=
 OpenBabel11052417443D

 31 35  0  0  1  0  0  0  0  0999 V2000
  189.0750  174.6120  141.3020 C   0  0  0  0  0  0  0  0  0  0  0  0
  189.2620  176.3550  144.5880 C   0  0  0  0  0  0  0  0  0  0  0  0
  187.7940  176.6490  144.8560 C   0  0  2  0  0  3  0  0  0  0  0  0
  185.9500  178.0640  143.9980 C   0  0  0  0  0  3  0  0  0  0  0  0
  189.6740  175.7610  143.4460 C   0  0  0  0  0  0  0  0  0  0  0  0
  190.4990  173.5280  141.3970 S   0  0  0  0  0  0  0  0  0  0  0  0
  187.0890  177.4030  143.7530 C   0  0  0  0  0  3  0  0  0  0  0  0
  191.6240  176.1870  145.4620 N   0  0  0  0  0  0  0  0  0  0  0  0
  188.3890  174.6560  140.2490 O   0  0  0  0  0  0  0  0  0  0  0  0
  188.4630  177.4330  147.1280 C   0  0  0  0  0  3  0  0  0  0  0  0
  183.8320  178.8700  145.6350 Cl  0  0  0  0  0  0  0  0  0  0  0  0
  192.0130  175.6460  144.1960 C   0  0  0  0  0  3  0  0  0  0  0  0
  190.2480  176.5500  145.6860 C   0  0  0  0  0  0  0  0  0  0  0  0
  188.7300  175.4360  142.4150 N   0  0  0  0  0  2  0  0  0  0  0  0
  185.4170  178.1780  145.3750 C   0  0  0  0  0  0  0  0  0  0  0  0
  191.1130  175.4290  143.2370 C   0  0  0  0  0  0  0  0  0  0  0  0
  191.5780  174.8930  141.9210 C   0  0  0  0  0  2  0  0  0  0  0  0
  189.8530  177.0270  146.8740 C   0  0  0  0  0  3  0  0  0  0  0  0
  187.5210  177.3000  146.1960 C   0  0  0  0  0  0  0  0  0  0  0  0
  186.1800  177.8570  146.4270 C   0  0  0  0  0  3  0  0  0  0  0  0
  192.6600  176.4260  146.4610 C   0  0  0  0  0  2  0  0  0  0  0  0
  197.7030  174.4440  144.1800 C   0  0  1  0  0  3  0  0  0  0  0  0
  194.4240  174.6800  146.0060 N   0  0  0  0  0  2  0  0  0  0  0  0
  197.3340  172.2810  145.2930 C   0  0  0  0  0  2  0  0  0  0  0  0
  194.7130  176.9190  145.3680 O   0  0  0  0  0  0  0  0  0  0  0  0
  197.9360  175.1140  142.9140 N   0  0  0  0  0  1  0  0  0  0  0  0
  193.9940  176.0430  145.9190 C   0  0  0  0  0  0  0  0  0  0  0  0
  196.4290  174.8920  144.7490 N   0  0  0  0  0  0  0  0  0  0  0  0
  195.9060  172.6740  145.6540 C   0  0  0  0  0  2  0  0  0  0  0  0
  195.6440  174.1470  145.4760 C   0  0  0  0  0  0  0  0  0  0  0  0
  197.7280  172.9350  143.9800 C   0  0  0  0  0  2  0  0  0  0  0  0
  1  6  1  0  0  0  0
  1 14  1  0  0  0  0
  2  3  1  0  0  0  0
  2 13  1  0  0  0  0
  3  7  1  6  0  0  0
  3 19  1  0  0  0  0
  4 15  1  0  0  0  0
  5  2  2  0  0  0  0
  6 17  1  0  0  0  0
  7  4  2  0  0  0  0
  8 13  1  0  0  0  0
  8 21  1  0  0  0  0
  9  1  2  0  0  0  0
 12  8  1  0  0  0  0
 13 18  2  0  0  0  0
 14  5  1  0  0  0  0
 15 11  1  0  0  0  0
 15 20  2  0  0  0  0
 16  5  1  0  0  0  0
 16 12  2  0  0  0  0
 17 16  1  0  0  0  0
 18 10  1  0  0  0  0
 19 20  1  0  0  0  0
 19 10  2  0  0  0  0
 22 26  1  6  0  0  0
 22 28  1  0  0  0  0
 24 29  1  0  0  0  0
 25 27  2  0  0  0  0
 27 23  1  0  0  0  0
 27 21  1  0  0  0  0
 28 30  2  0  0  0  0
 30 29  1  0  0  0  0
 30 23  1  0  0  0  0
 31 22  1  0  0  0  0
 31 24  1  0  0  0  0
M  END
>  <MODEL>
1

>  <REMARK>
 VINA RESULT:      -8.6      0.000      0.000
  Name = 
  2 active torsions:
  status: ('A' for Active; 'I' for Inactive)
    1  A    between atoms: C_9  and  C_23
    2  A    between atoms: N_15  and  C_23
                            x       y       z     vdW  Elec       q    Type
                         _______ _______ _______ _____ _____    ______ ____

>  <TORSDO>
F 2

$$$$
=
 OpenBabel11052417443D

 31 35  0  0  1  0  0  0  0  0999 V2000
  188.4160  173.0700  141.3220 C   0  0  0  0  0  0  0  0  0  0  0  0
  188.5560  175.7530  143.9020 C   0  0  0  0  0  0  0  0  0  0  0  0
  187.1160  176.2420  143.9040 C   0  0  2  0  0  3  0  0  0  0  0  0
  185.5180  177.4590  142.4550 C   0  0  0  0  0  3  0  0  0  0  0  0
  188.9810  174.7900  143.0530 C   0  0  0  0  0  0  0  0  0  0  0  0
  189.6940  171.9560  141.9030 S   0  0  0  0  0  0  0  0  0  0  0  0
  186.5870  176.6590  142.5520 C   0  0  0  0  0  3  0  0  0  0  0  0
  190.8100  175.6720  145.0340 N   0  0  0  0  0  0  0  0  0  0  0  0
  187.8210  172.8330  140.2400 O   0  0  0  0  0  0  0  0  0  0  0  0
  187.6990  177.6530  145.8770 C   0  0  0  0  0  3  0  0  0  0  0  0
  183.3900  178.9260  143.5200 Cl  0  0  0  0  0  0  0  0  0  0  0  0
  191.2280  174.7230  144.0500 C   0  0  0  0  0  3  0  0  0  0  0  0
  189.4730  176.2040  144.9850 C   0  0  0  0  0  0  0  0  0  0  0  0
  188.0860  174.2340  142.0790 N   0  0  0  0  0  2  0  0  0  0  0  0
  184.8990  178.0540  143.6620 C   0  0  0  0  0  0  0  0  0  0  0  0
  190.3830  174.2870  143.1150 C   0  0  0  0  0  0  0  0  0  0  0  0
  190.8810  173.3190  142.0900 C   0  0  0  0  0  2  0  0  0  0  0  0
  189.0470  177.0690  145.9150 C   0  0  0  0  0  3  0  0  0  0  0  0
  186.8200  177.3100  144.9380 C   0  0  0  0  0  0  0  0  0  0  0  0
  185.5390  178.0230  144.8370 C   0  0  0  0  0  3  0  0  0  0  0  0
  191.7890  176.1290  146.0150 C   0  0  0  0  0  2  0  0  0  0  0  0
  197.1150  175.9440  143.5310 C   0  0  1  0  0  3  0  0  0  0  0  0
  194.1170  175.2140  145.6820 N   0  0  0  0  0  2  0  0  0  0  0  0
  197.7510  174.1380  145.0760 C   0  0  0  0  0  2  0  0  0  0  0  0
  193.3900  177.1630  144.5950 O   0  0  0  0  0  0  0  0  0  0  0  0
  196.9930  176.3420  142.1410 N   0  0  0  0  0  1  0  0  0  0  0  0
  193.1390  176.2190  145.3900 C   0  0  0  0  0  0  0  0  0  0  0  0
  195.7920  175.9420  144.1610 N   0  0  0  0  0  0  0  0  0  0  0  0
  196.3050  173.9770  145.5350 C   0  0  0  0  0  2  0  0  0  0  0  0
  195.4290  175.1280  145.1120 C   0  0  0  0  0  0  0  0  0  0  0  0
  197.7800  174.5780  143.6230 C   0  0  0  0  0  2  0  0  0  0  0  0
  1  6  1  0  0  0  0
  1 14  1  0  0  0  0
  2  3  1  0  0  0  0
  2 13  1  0  0  0  0
  3  7  1  6  0  0  0
  3 19  1  0  0  0  0
  4  7  2  0  0  0  0
  4 15  1  0  0  0  0
  5 16  1  0  0  0  0
  5  2  2  0  0  0  0
  6 17  1  0  0  0  0
  8 21  1  0  0  0  0
  9  1  2  0  0  0  0
 10 18  1  0  0  0  0
 11 15  1  0  0  0  0
 12  8  1  0  0  0  0
 13  8  1  0  0  0  0
 13 18  2  0  0  0  0
 14  5  1  0  0  0  0
 15 20  2  0  0  0  0
 16 12  2  0  0  0  0
 17 16  1  0  0  0  0
 19 10  2  0  0  0  0
 20 19  1  0  0  0  0
 22 26  1  6  0  0  0
 22 31  1  0  0  0  0
 22 28  1  0  0  0  0
 24 29  1  0  0  0  0
 25 27  2  0  0  0  0
 27 23  1  0  0  0  0
 27 21  1  0  0  0  0
 28 30  2  0  0  0  0
 30 29  1  0  0  0  0
 30 23  1  0  0  0  0
 31 24  1  0  0  0  0
M  END
>  <MODEL>
2

>  <REMARK>
 VINA RESULT:      -8.6      1.336      1.493
  Name = 
  2 active torsions:
  status: ('A' for Active; 'I' for Inactive)
    1  A    between atoms: C_9  and  C_23
    2  A    between atoms: N_15  and  C_23
                            x       y       z     vdW  Elec       q    Type
                         _______ _______ _______ _____ _____    ______ ____

>  <TORSDO>
F 2

$$$$
=
 OpenBabel11052417443D

 31 35  0  0  1  0  0  0  0  0999 V2000
  190.5200  171.3120  141.5960 C   0  0  0  0  0  0  0  0  0  0  0  0
  191.9040  174.3450  143.2580 C   0  0  0  0  0  0  0  0  0  0  0  0
  193.2690  173.8450  143.7060 C   0  0  2  0  0  3  0  0  0  0  0  0
  194.2790  172.2660  145.3260 C   0  0  0  0  0  3  0  0  0  0  0  0
  191.0150  173.5350  142.6400 C   0  0  0  0  0  0  0  0  0  0  0  0
  189.4470  172.0450  140.3630 S   0  0  0  0  0  0  0  0  0  0  0  0
  193.2380  172.5910  144.5480 C   0  0  0  0  0  3  0  0  0  0  0  0
  190.3540  176.2880  142.8210 N   0  0  0  0  0  0  0  0  0  0  0  0
  190.5590  170.0620  141.7310 O   0  0  0  0  0  0  0  0  0  0  0  0
  193.8010  176.1870  144.3770 C   0  0  0  0  0  3  0  0  0  0  0  0
  196.8600  172.6430  146.3320 Cl  0  0  0  0  0  0  0  0  0  0  0  0
  189.4160  175.3640  142.2610 C   0  0  0  0  0  3  0  0  0  0  0  0
  191.6120  175.8030  143.3270 C   0  0  0  0  0  0  0  0  0  0  0  0
  191.3170  172.1470  142.4360 N   0  0  0  0  0  2  0  0  0  0  0  0
  195.4330  173.1810  145.4750 C   0  0  0  0  0  0  0  0  0  0  0  0
  189.7090  174.0680  142.1570 C   0  0  0  0  0  0  0  0  0  0  0  0
  188.6800  173.1400  141.5940 C   0  0  0  0  0  2  0  0  0  0  0  0
  192.5200  176.6520  143.8260 C   0  0  0  0  0  3  0  0  0  0  0  0
  194.1370  174.8990  144.3620 C   0  0  0  0  0  0  0  0  0  0  0  0
  195.3520  174.4500  145.0580 C   0  0  0  0  0  3  0  0  0  0  0  0
  189.9640  177.6890  142.9300 C   0  0  0  0  0  2  0  0  0  0  0  0
  185.7650  178.1550  147.0180 C   0  0  1  0  0  3  0  0  0  0  0  0
  187.6200  178.1410  143.7470 N   0  0  0  0  0  2  0  0  0  0  0  0
  184.1920  178.9220  145.2880 C   0  0  0  0  0  2  0  0  0  0  0  0
  189.3900  177.7490  145.2360 O   0  0  0  0  0  0  0  0  0  0  0  0
  186.0160  177.1720  148.0560 N   0  0  0  0  0  1  0  0  0  0  0  0
  188.9940  177.8670  144.0460 C   0  0  0  0  0  0  0  0  0  0  0  0
  186.7770  178.0300  145.9650 N   0  0  0  0  0  0  0  0  0  0  0  0
  185.1720  178.5400  144.1830 C   0  0  0  0  0  2  0  0  0  0  0  0
  186.5610  178.2710  144.7030 C   0  0  0  0  0  0  0  0  0  0  0  0
  184.3570  177.9780  146.4660 C   0  0  0  0  0  2  0  0  0  0  0  0
  1  9  2  0  0  0  0
  1 14  1  0  0  0  0
  2 13  1  0  0  0  0
  2  3  1  0  0  0  0
  3 19  1  0  0  0  0
  3  7  1  1  0  0  0
  4 15  1  0  0  0  0
  5  2  2  0  0  0  0
  6 17  1  0  0  0  0
  6  1  1  0  0  0  0
  7  4  2  0  0  0  0
  8 21  1  0  0  0  0
  8 13  1  0  0  0  0
 12  8  1  0  0  0  0
 13 18  2  0  0  0  0
 14  5  1  0  0  0  0
 15 11  1  0  0  0  0
 16 12  2  0  0  0  0
 16  5  1  0  0  0  0
 17 16  1  0  0  0  0
 18 10  1  0  0  0  0
 19 10  2  0  0  0  0
 19 20  1  0  0  0  0
 20 15  2  0  0  0  0
 21 27  1  0  0  0  0
 22 26  1  1  0  0  0
 23 27  1  0  0  0  0
 23 30  1  0  0  0  0
 24 31  1  0  0  0  0
 27 25  2  0  0  0  0
 28 22  1  0  0  0  0
 29 30  1  0  0  0  0
 29 24  1  0  0  0  0
 30 28  2  0  0  0  0
 31 22  1  0  0  0  0
M  END
>  <MODEL>
3

>  <REMARK>
 VINA RESULT:      -8.6      3.917      8.304
  Name = 
  2 active torsions:
  status: ('A' for Active; 'I' for Inactive)
    1  A    between atoms: C_9  and  C_23
    2  A    between atoms: N_15  and  C_23
                            x       y       z     vdW  Elec       q    Type
                         _______ _______ _______ _____ _____    ______ ____

>  <TORSDO>
F 2

$$$$
=
 OpenBabel11052417443D

 31 35  0  0  1  0  0  0  0  0999 V2000
  190.6780  171.3620  141.7470 C   0  0  0  0  0  0  0  0  0  0  0  0
  192.4570  173.3730  144.3270 C   0  0  0  0  0  0  0  0  0  0  0  0
  193.8170  172.6910  144.3540 C   0  0  2  0  0  3  0  0  0  0  0  0
  194.8570  170.5490  145.0370 C   0  0  0  0  0  3  0  0  0  0  0  0
  191.4500  172.9250  143.5460 C   0  0  0  0  0  0  0  0  0  0  0  0
  189.5470  172.5770  141.0710 S   0  0  0  0  0  0  0  0  0  0  0  0
  193.7720  171.2010  144.5990 C   0  0  0  0  0  3  0  0  0  0  0  0
  191.0300  175.3650  144.9290 N   0  0  0  0  0  0  0  0  0  0  0  0
  190.6310  170.1700  141.3460 O   0  0  0  0  0  0  0  0  0  0  0  0
  194.5980  174.5180  145.8620 C   0  0  0  0  0  3  0  0  0  0  0  0
  197.5480  170.3910  145.7780 Cl  0  0  0  0  0  0  0  0  0  0  0  0
  189.9700  174.7910  144.1590 C   0  0  0  0  0  3  0  0  0  0  0  0
  192.2900  174.6750  145.0290 C   0  0  0  0  0  0  0  0  0  0  0  0
  191.6190  171.7420  142.7500 N   0  0  0  0  0  2  0  0  0  0  0  0
  196.0890  171.2820  145.4060 C   0  0  0  0  0  0  0  0  0  0  0  0
  190.1480  173.6500  143.4930 C   0  0  0  0  0  0  0  0  0  0  0  0
  188.9970  173.0760  142.7290 C   0  0  0  0  0  2  0  0  0  0  0  0
  193.3090  175.2090  145.7170 C   0  0  0  0  0  3  0  0  0  0  0  0
  194.8270  173.3460  145.2740 C   0  0  0  0  0  0  0  0  0  0  0  0
  196.0660  172.6110  145.5640 C   0  0  0  0  0  3  0  0  0  0  0  0
  190.7650  176.6020  145.6560 C   0  0  0  0  0  2  0  0  0  0  0  0
  185.4130  178.8410  144.7070 C   0  0  1  0  0  3  0  0  0  0  0  0
  188.3280  176.9830  146.1860 N   0  0  0  0  0  2  0  0  0  0  0  0
  184.5690  177.6020  146.6570 C   0  0  0  0  0  2  0  0  0  0  0  0
  189.2900  177.7520  144.1900 O   0  0  0  0  0  0  0  0  0  0  0  0
  185.5580  180.1470  144.0900 N   0  0  0  0  0  1  0  0  0  0  0  0
  189.4280  177.1420  145.2830 C   0  0  0  0  0  0  0  0  0  0  0  0
  186.7360  178.2800  144.9910 N   0  0  0  0  0  0  0  0  0  0  0  0
  185.9890  177.2420  147.0830 C   0  0  0  0  0  2  0  0  0  0  0  0
  187.0050  177.5000  146.0000 C   0  0  0  0  0  0  0  0  0  0  0  0
  184.5690  178.9550  145.9690 C   0  0  0  0  0  2  0  0  0  0  0  0
  1 14  1  0  0  0  0
  2  3  1  0  0  0  0
  2 13  1  0  0  0  0
  3  7  1  1  0  0  0
  3 19  1  0  0  0  0
  4 15  1  0  0  0  0
  5  2  2  0  0  0  0
  6  1  1  0  0  0  0
  6 17  1  0  0  0  0
  7  4  2  0  0  0  0
  8 13  1  0  0  0  0
  8 21  1  0  0  0  0
  9  1  2  0  0  0  0
 12  8  1  0  0  0  0
 13 18  2  0  0  0  0
 14  5  1  0  0  0  0
 15 20  2  0  0  0  0
 15 11  1  0  0  0  0
 16  5  1  0  0  0  0
 16 12  2  0  0  0  0
 17 16  1  0  0  0  0
 18 10  1  0  0  0  0
 19 20  1  0  0  0  0
 19 10  2  0  0  0  0
 22 26  1  1  0  0  0
 22 28  1  0  0  0  0
 22 31  1  0  0  0  0
 24 29  1  0  0  0  0
 25 27  2  0  0  0  0
 27 21  1  0  0  0  0
 27 23  1  0  0  0  0
 28 30  2  0  0  0  0
 30 23  1  0  0  0  0
 30 29  1  0  0  0  0
 31 24  1  0  0  0  0
M  END
>  <MODEL>
4

>  <REMARK>
 VINA RESULT:      -8.3      3.939      8.517
  Name = 
  2 active torsions:
  status: ('A' for Active; 'I' for Inactive)
    1  A    between atoms: C_9  and  C_23
    2  A    between atoms: N_15  and  C_23
                            x       y       z     vdW  Elec       q    Type
                         _______ _______ _______ _____ _____    ______ ____

>  <TORSDO>
F 2

$$$$
=
 OpenBabel11052417443D

 31 35  0  0  1  0  0  0  0  0999 V2000
  192.7810  176.6180  144.2330 C   0  0  0  0  0  0  0  0  0  0  0  0
  189.2400  175.7660  143.4520 C   0  0  0  0  0  0  0  0  0  0  0  0
  188.4950  176.8450  144.2240 C   0  0  2  0  0  3  0  0  0  0  0  0
  188.0140  177.5260  146.5570 C   0  0  0  0  0  3  0  0  0  0  0  0
  190.5860  175.6600  143.4950 C   0  0  0  0  0  0  0  0  0  0  0  0
  193.6150  176.0410  142.7560 S   0  0  0  0  0  0  0  0  0  0  0  0
  188.8420  176.9260  145.6920 C   0  0  0  0  0  3  0  0  0  0  0  0
  189.2090  173.9690  141.6810 N   0  0  0  0  0  0  0  0  0  0  0  0
  193.4500  177.0790  145.1930 O   0  0  0  0  0  0  0  0  0  0  0  0
  186.3980  176.0400  143.1380 C   0  0  0  0  0  3  0  0  0  0  0  0
  185.7160  178.9730  147.2210 Cl  0  0  0  0  0  0  0  0  0  0  0  0
  190.6250  173.8410  141.8400 C   0  0  0  0  0  3  0  0  0  0  0  0
  188.4890  174.9290  142.4770 C   0  0  0  0  0  0  0  0  0  0  0  0
  191.3580  176.5400  144.3260 N   0  0  0  0  0  2  0  0  0  0  0  0
  186.6850  178.0180  146.1230 C   0  0  0  0  0  0  0  0  0  0  0  0
  191.2950  174.6320  142.6800 C   0  0  0  0  0  0  0  0  0  0  0  0
  192.7690  174.4350  142.8320 C   0  0  0  0  0  2  0  0  0  0  0  0
  187.1680  175.0900  142.3230 C   0  0  0  0  0  3  0  0  0  0  0  0
  186.9910  176.8210  144.0390 C   0  0  0  0  0  0  0  0  0  0  0  0
  186.1770  177.6460  144.9420 C   0  0  0  0  0  3  0  0  0  0  0  0
  188.5310  173.0570  140.7660 C   0  0  0  0  0  2  0  0  0  0  0  0
  188.9840  175.3820  135.3850 C   0  0  1  0  0  3  0  0  0  0  0  0
  187.7570  174.4630  138.8190 N   0  0  0  0  0  2  0  0  0  0  0  0
  186.7560  176.3910  135.6550 C   0  0  0  0  0  2  0  0  0  0  0  0
  189.6670  173.1080  138.6790 O   0  0  0  0  0  0  0  0  0  0  0  0
  190.3850  175.6330  135.1040 N   0  0  0  0  0  1  0  0  0  0  0  0
  188.6930  173.5250  139.3610 C   0  0  0  0  0  0  0  0  0  0  0  0
  188.8420  174.8400  136.7390 N   0  0  0  0  0  0  0  0  0  0  0  0
  186.7410  176.0410  137.1390 C   0  0  0  0  0  2  0  0  0  0  0  0
  187.8160  175.0530  137.5150 C   0  0  0  0  0  0  0  0  0  0  0  0
  188.1820  176.6640  135.2080 C   0  0  0  0  0  2  0  0  0  0  0  0
  1 14  1  0  0  0  0
  1  9  2  0  0  0  0
  2  5  2  0  0  0  0
  2  3  1  0  0  0  0
  3  7  1  1  0  0  0
  5 14  1  0  0  0  0
  6 17  1  0  0  0  0
  6  1  1  0  0  0  0
  7  4  2  0  0  0  0
  8 12  1  0  0  0  0
  8 13  1  0  0  0  0
 10 19  2  0  0  0  0
 12 16  2  0  0  0  0
 13  2  1  0  0  0  0
 15  4  1  0  0  0  0
 15 11  1  0  0  0  0
 16 17  1  0  0  0  0
 16  5  1  0  0  0  0
 18 13  2  0  0  0  0
 18 10  1  0  0  0  0
 19  3  1  0  0  0  0
 19 20  1  0  0  0  0
 20 15  2  0  0  0  0
 21  8  1  0  0  0  0
 22 26  1  1  0  0  0
 22 28  1  0  0  0  0
 23 27  1  0  0  0  0
 24 29  1  0  0  0  0
 25 27  2  0  0  0  0
 27 21  1  0  0  0  0
 28 30  2  0  0  0  0
 29 30  1  0  0  0  0
 30 23  1  0  0  0  0
 31 22  1  0  0  0  0
 31 24  1  0  0  0  0
M  END
>  <MODEL>
5

>  <REMARK>
 VINA RESULT:      -8.3      3.258      7.337
  Name = 
  2 active torsions:
  status: ('A' for Active; 'I' for Inactive)
    1  A    between atoms: C_9  and  C_23
    2  A    between atoms: N_15  and  C_23
                            x       y       z     vdW  Elec       q    Type
                         _______ _______ _______ _____ _____    ______ ____

>  <TORSDO>
F 2

$$$$
=
 OpenBabel11052417443D

 31 35  0  0  1  0  0  0  0  0999 V2000
  186.1080  177.8800  146.8720 C   0  0  0  0  0  0  0  0  0  0  0  0
  187.1100  176.9800  143.3990 C   0  0  0  0  0  0  0  0  0  0  0  0
  188.2010  175.9530  143.6590 C   0  0  0  0  0  0  0  0  0  0  0  0
  190.5040  175.8110  144.5610 C   0  0  0  0  0  3  0  0  0  0  0  0
  186.4850  177.6270  144.4080 C   0  0  0  0  0  0  0  0  0  0  0  0
  184.3840  178.3100  146.6410 S   0  0  0  0  0  0  0  0  0  0  0  0
  189.3160  176.4290  144.5610 C   0  0  0  0  0  3  0  0  0  0  0  0
  185.4880  178.0460  141.7860 N   0  0  0  0  0  0  0  0  0  0  0  0
  186.6430  178.0140  148.0030 O   0  0  0  0  0  0  0  0  0  0  0  0
  188.2350  175.5090  141.2040 C   0  0  0  0  0  3  0  0  0  0  0  0
  192.2790  173.8070  143.7530 Cl  0  0  0  0  0  0  0  0  0  0  0  0
  184.9300  178.7710  142.8850 C   0  0  0  0  0  3  0  0  0  0  0  0
  186.5820  177.1380  142.0160 C   0  0  0  0  0  0  0  0  0  0  0  0
  186.8790  177.4010  145.7700 N   0  0  0  0  0  2  0  0  0  0  0  0
  190.7990  174.7270  143.5950 C   0  0  0  0  0  0  0  0  0  0  0  0
  185.3760  178.5840  144.1270 C   0  0  0  0  0  0  0  0  0  0  0  0
  184.7800  179.3920  145.2360 C   0  0  0  0  0  2  0  0  0  0  0  0
  187.1010  176.4230  141.0090 C   0  0  0  0  0  3  0  0  0  0  0  0
  188.7720  175.3170  142.4080 C   0  0  0  0  0  0  0  0  0  0  0  0
  189.9990  174.5200  142.5430 C   0  0  0  0  0  2  0  0  0  0  0  0
  184.9740  178.3140  140.4470 C   0  0  0  0  0  2  0  0  0  0  0  0
  179.1240  177.7340  140.3910 C   0  0  1  0  0  3  0  0  0  0  0  0
  182.6410  178.6680  141.3400 N   0  0  0  0  0  2  0  0  0  0  0  0
  179.0050  178.9110  142.5480 C   0  0  0  0  0  2  0  0  0  0  0  0
  183.0580  177.2730  139.5000 O   0  0  0  0  0  0  0  0  0  0  0  0
  178.6720  177.7150  139.0110 N   0  0  0  0  0  1  0  0  0  0  0  0
  183.5110  178.0370  140.3930 C   0  0  0  0  0  0  0  0  0  0  0  0
  180.5770  177.9200  140.4310 N   0  0  0  0  0  0  0  0  0  0  0  0
  180.4720  179.3170  142.4430 C   0  0  0  0  0  2  0  0  0  0  0  0
  181.2130  178.5540  141.3750 C   0  0  0  0  0  0  0  0  0  0  0  0
  178.3970  178.8300  141.1590 C   0  0  0  0  0  2  0  0  0  0  0  0
  1  9  2  0  0  0  0
  2  3  1  0  0  0  0
  2  5  2  0  0  0  0
  3  7  2  0  0  0  0
  5 14  1  0  0  0  0
  6  1  1  0  0  0  0
  7  4  1  0  0  0  0
  8 13  1  0  0  0  0
  8 12  1  0  0  0  0
 10 19  2  0  0  0  0
 12 16  2  0  0  0  0
 13  2  1  0  0  0  0
 14  1  1  0  0  0  0
 15 11  1  0  0  0  0
 15  4  2  0  0  0  0
 16  5  1  0  0  0  0
 16 17  1  0  0  0  0
 17  6  1  0  0  0  0
 18 10  1  0  0  0  0
 18 13  2  0  0  0  0
 19 20  1  0  0  0  0
 19  3  1  0  0  0  0
 20 15  1  0  0  0  0
 21  8  1  0  0  0  0
 22 26  1  6  0  0  0
 22 28  1  0  0  0  0
 22 31  1  0  0  0  0
 23 30  1  0  0  0  0
 25 27  2  0  0  0  0
 27 21  1  0  0  0  0
 27 23  1  0  0  0  0
 28 30  2  0  0  0  0
 29 24  1  0  0  0  0
 30 29  1  0  0  0  0
 31 24  1  0  0  0  0
M  END
>  <MODEL>
6

>  <REMARK>
 VINA RESULT:      -8.2      5.401     11.089
  Name = 
  2 active torsions:
  status: ('A' for Active; 'I' for Inactive)
    1  A    between atoms: C_9  and  C_23
    2  A    between atoms: N_15  and  C_23
                            x       y       z     vdW  Elec       q    Type
                         _______ _______ _______ _____ _____    ______ ____

>  <TORSDO>
F 2

$$$$
=
 OpenBabel11052417443D

 31 35  0  0  1  0  0  0  0  0999 V2000
  192.7060  176.2160  144.5670 C   0  0  0  0  0  0  0  0  0  0  0  0
  189.1120  175.7020  143.7360 C   0  0  0  0  0  0  0  0  0  0  0  0
  188.4600  176.8380  144.5090 C   0  0  2  0  0  3  0  0  0  0  0  0
  188.0130  177.5410  146.8420 C   0  0  0  0  0  3  0  0  0  0  0  0
  190.4420  175.4710  143.7940 C   0  0  0  0  0  0  0  0  0  0  0  0
  193.5030  175.5770  143.0950 S   0  0  0  0  0  0  0  0  0  0  0  0
  188.7940  176.8740  145.9810 C   0  0  0  0  0  3  0  0  0  0  0  0
  188.9390  173.9300  141.9470 N   0  0  0  0  0  0  0  0  0  0  0  0
  193.4030  176.6040  145.5400 O   0  0  0  0  0  0  0  0  0  0  0  0
  186.3120  176.2400  143.3890 C   0  0  0  0  0  3  0  0  0  0  0  0
  185.8500  179.1880  147.4920 Cl  0  0  0  0  0  0  0  0  0  0  0  0
  190.3350  173.6710  142.1220 C   0  0  0  0  0  3  0  0  0  0  0  0
  188.3000  174.9460  142.7430 C   0  0  0  0  0  0  0  0  0  0  0  0
  191.2810  176.2690  144.6430 N   0  0  0  0  0  2  0  0  0  0  0  0
  186.7420  178.1570  146.3970 C   0  0  0  0  0  0  0  0  0  0  0  0
  191.0630  174.3890  142.9770 C   0  0  0  0  0  0  0  0  0  0  0  0
  192.5110  174.0550  143.1460 C   0  0  0  0  0  2  0  0  0  0  0  0
  187.0010  175.2290  142.5750 C   0  0  0  0  0  3  0  0  0  0  0  0
  186.9630  176.9550  144.3050 C   0  0  0  0  0  0  0  0  0  0  0  0
  186.2160  177.8430  145.2070 C   0  0  0  0  0  3  0  0  0  0  0  0
  188.1910  173.0920  141.0150 C   0  0  0  0  0  2  0  0  0  0  0  0
  189.7020  173.6730  135.3630 C   0  0  1  0  0  3  0  0  0  0  0  0
  189.0220  172.2620  138.7820 N   0  0  0  0  0  2  0  0  0  0  0  0
  190.4040  171.3160  135.3280 C   0  0  0  0  0  2  0  0  0  0  0  0
  188.6330  174.5410  139.1830 O   0  0  0  0  0  0  0  0  0  0  0  0
  188.8480  174.6770  134.7550 N   0  0  0  0  0  1  0  0  0  0  0  0
  188.6330  173.3590  139.6170 C   0  0  0  0  0  0  0  0  0  0  0  0
  189.3160  173.4810  136.7640 N   0  0  0  0  0  0  0  0  0  0  0  0
  189.7620  171.0710  136.6900 C   0  0  0  0  0  2  0  0  0  0  0  0
  189.4060  172.3490  137.4040 C   0  0  0  0  0  0  0  0  0  0  0  0
  189.6170  172.3740  134.5750 C   0  0  0  0  0  2  0  0  0  0  0  0
  1 14  1  0  0  0  0
  1  9  2  0  0  0  0
  2  5  2  0  0  0  0
  2  3  1  0  0  0  0
  3  7  1  1  0  0  0
  5 14  1  0  0  0  0
  6 17  1  0  0  0  0
  6  1  1  0  0  0  0
  7  4  2  0  0  0  0
  8 12  1  0  0  0  0
  8 13  1  0  0  0  0
 10 19  2  0  0  0  0
 12 16  2  0  0  0  0
 13  2  1  0  0  0  0
 15  4  1  0  0  0  0
 15 11  1  0  0  0  0
 16 17  1  0  0  0  0
 16  5  1  0  0  0  0
 18 13  2  0  0  0  0
 18 10  1  0  0  0  0
 19  3  1  0  0  0  0
 19 20  1  0  0  0  0
 20 15  2  0  0  0  0
 21  8  1  0  0  0  0
 22 26  1  6  0  0  0
 22 28  1  0  0  0  0
 23 27  1  0  0  0  0
 24 29  1  0  0  0  0
 25 27  2  0  0  0  0
 27 21  1  0  0  0  0
 28 30  2  0  0  0  0
 29 30  1  0  0  0  0
 30 23  1  0  0  0  0
 31 24  1  0  0  0  0
 31 22  1  0  0  0  0
M  END
>  <MODEL>
7

>  <REMARK>
 VINA RESULT:      -8.2      3.462      6.954
  Name = 
  2 active torsions:
  status: ('A' for Active; 'I' for Inactive)
    1  A    between atoms: C_9  and  C_23
    2  A    between atoms: N_15  and  C_23
                            x       y       z     vdW  Elec       q    Type
                         _______ _______ _______ _____ _____    ______ ____

>  <TORSDO>
F 2

$$$$
=
 OpenBabel11052417443D

 31 35  0  0  1  0  0  0  0  0999 V2000
  194.2050  174.8320  145.7050 C   0  0  0  0  0  0  0  0  0  0  0  0
  191.3270  174.5590  143.3560 C   0  0  0  0  0  0  0  0  0  0  0  0
  191.1590  173.0500  143.2620 C   0  0  0  0  0  0  0  0  0  0  0  0
  192.3250  171.0580  142.3620 C   0  0  0  0  0  3  0  0  0  0  0  0
  192.3180  175.1220  144.0820 C   0  0  0  0  0  0  0  0  0  0  0  0
  193.8620  176.4000  146.5010 S   0  0  0  0  0  0  0  0  0  0  0  0
  192.4060  172.2980  142.8610 C   0  0  0  0  0  3  0  0  0  0  0  0
  190.3810  176.8650  142.9610 N   0  0  0  0  0  0  0  0  0  0  0  0
  195.2620  174.2070  145.9780 O   0  0  0  0  0  0  0  0  0  0  0  0
  189.0730  173.4590  141.9560 C   0  0  0  0  0  3  0  0  0  0  0  0
  190.9320  168.7510  141.6170 Cl  0  0  0  0  0  0  0  0  0  0  0  0
  191.5040  177.4040  143.6630 C   0  0  0  0  0  3  0  0  0  0  0  0
  190.2660  175.4390  142.7940 C   0  0  0  0  0  0  0  0  0  0  0  0
  193.2860  174.2990  144.7500 N   0  0  0  0  0  2  0  0  0  0  0  0
  191.0110  170.4370  142.0750 C   0  0  0  0  0  0  0  0  0  0  0  0
  192.4220  176.6040  144.2070 C   0  0  0  0  0  0  0  0  0  0  0  0
  193.5940  177.2210  144.9020 C   0  0  0  0  0  2  0  0  0  0  0  0
  189.2070  174.9070  142.1690 C   0  0  0  0  0  3  0  0  0  0  0  0
  189.9810  172.6030  142.4190 C   0  0  0  0  0  0  0  0  0  0  0  0
  189.8990  171.1810  142.0580 C   0  0  0  0  0  2  0  0  0  0  0  0
  189.4250  177.7930  142.3670 C   0  0  0  0  0  2  0  0  0  0  0  0
  184.6770  178.0490  145.8240 C   0  0  1  0  0  3  0  0  0  0  0  0
  188.2040  177.6850  144.5720 N   0  0  0  0  0  2  0  0  0  0  0  0
  186.0700  177.4210  147.7520 C   0  0  0  0  0  2  0  0  0  0  0  0
  187.0570  177.9060  142.5380 O   0  0  0  0  0  0  0  0  0  0  0  0
  183.7590  179.0340  145.2810 N   0  0  0  0  0  1  0  0  0  0  0  0
  188.1540  177.7900  143.1450 C   0  0  0  0  0  0  0  0  0  0  0  0
  185.8880  177.9970  145.0010 N   0  0  0  0  0  0  0  0  0  0  0  0
  187.3440  177.6250  146.9390 C   0  0  0  0  0  2  0  0  0  0  0  0
  187.0800  177.7330  145.4590 C   0  0  0  0  0  0  0  0  0  0  0  0
  184.9980  178.3840  147.2740 C   0  0  0  0  0  2  0  0  0  0  0  0
  1  9  2  0  0  0  0
  1  6  1  0  0  0  0
  2  5  2  0  0  0  0
  3  2  1  0  0  0  0
  4  7  1  0  0  0  0
  5 16  1  0  0  0  0
  5 14  1  0  0  0  0
  7  3  2  0  0  0  0
  8 12  1  0  0  0  0
 10 18  1  0  0  0  0
 10 19  2  0  0  0  0
 11 15  1  0  0  0  0
 12 16  2  0  0  0  0
 13  8  1  0  0  0  0
 13  2  1  0  0  0  0
 14  1  1  0  0  0  0
 15  4  2  0  0  0  0
 16 17  1  0  0  0  0
 17  6  1  0  0  0  0
 18 13  2  0  0  0  0
 19  3  1  0  0  0  0
 20 15  1  0  0  0  0
 20 19  1  0  0  0  0
 21  8  1  0  0  0  0
 21 27  1  0  0  0  0
 22 26  1  6  0  0  0
 22 31  1  0  0  0  0
 23 30  1  0  0  0  0
 25 27  2  0  0  0  0
 27 23  1  0  0  0  0
 28 30  2  0  0  0  0
 28 22  1  0  0  0  0
 29 24  1  0  0  0  0
 30 29  1  0  0  0  0
 31 24  1  0  0  0  0
M  END
>  <MODEL>
8

>  <REMARK>
 VINA RESULT:      -8.2      3.686      8.351
  Name = 
  2 active torsions:
  status: ('A' for Active; 'I' for Inactive)
    1  A    between atoms: C_9  and  C_23
    2  A    between atoms: N_15  and  C_23
                            x       y       z     vdW  Elec       q    Type
                         _______ _______ _______ _____ _____    ______ ____

>  <TORSDO>
F 2

$$$$
=
 OpenBabel11052417443D

 31 35  0  0  1  0  0  0  0  0999 V2000
  190.8900  173.3540  140.2610 C   0  0  0  0  0  0  0  0  0  0  0  0
  191.9660  174.7860  143.5260 C   0  0  0  0  0  0  0  0  0  0  0  0
  193.3190  175.3770  143.1630 C   0  0  2  0  0  3  0  0  0  0  0  0
  195.5990  174.6520  142.5160 C   0  0  0  0  0  3  0  0  0  0  0  0
  191.2220  174.1030  142.6280 C   0  0  0  0  0  0  0  0  0  0  0  0
  189.1070  173.4840  140.3900 S   0  0  0  0  0  0  0  0  0  0  0  0
  194.2830  174.4040  142.5240 C   0  0  0  0  0  3  0  0  0  0  0  0
  190.0380  174.6450  145.1490 N   0  0  0  0  0  0  0  0  0  0  0  0
  191.4080  172.7990  139.2580 O   0  0  0  0  0  0  0  0  0  0  0  0
  193.3800  176.3950  145.4390 C   0  0  0  0  0  3  0  0  0  0  0  0
  197.8460  176.2310  143.0390 Cl  0  0  0  0  0  0  0  0  0  0  0  0
  189.3380  173.8480  144.1890 C   0  0  0  0  0  3  0  0  0  0  0  0
  191.3580  175.1310  144.8410 C   0  0  0  0  0  0  0  0  0  0  0  0
  191.7200  173.8640  141.3040 N   0  0  0  0  0  2  0  0  0  0  0  0
  196.1580  175.8210  143.2350 C   0  0  0  0  0  0  0  0  0  0  0  0
  189.8700  173.5890  142.9940 C   0  0  0  0  0  0  0  0  0  0  0  0
  189.1110  172.7230  142.0400 C   0  0  0  0  0  2  0  0  0  0  0  0
  192.0210  175.9060  145.7100 C   0  0  0  0  0  3  0  0  0  0  0  0
  193.9990  176.1250  144.2920 C   0  0  0  0  0  0  0  0  0  0  0  0
  195.4100  176.4960  144.1160 C   0  0  0  0  0  3  0  0  0  0  0  0
  189.4120  174.8720  146.4470 C   0  0  0  0  0  2  0  0  0  0  0  0
  185.1900  178.8560  145.5160 C   0  0  1  0  0  3  0  0  0  0  0  0
  188.1250  176.5470  145.0680 N   0  0  0  0  0  2  0  0  0  0  0  0
  186.0920  179.2570  143.2630 C   0  0  0  0  0  2  0  0  0  0  0  0
  187.6990  176.2470  147.3550 O   0  0  0  0  0  0  0  0  0  0  0  0
  184.0190  178.4810  146.2880 N   0  0  0  0  0  1  0  0  0  0  0  0
  188.3690  175.9300  146.3370 C   0  0  0  0  0  0  0  0  0  0  0  0
  186.2430  177.8540  145.7000 N   0  0  0  0  0  0  0  0  0  0  0  0
  187.0060  178.0410  143.3770 C   0  0  0  0  0  2  0  0  0  0  0  0
  187.1160  177.5270  144.7890 C   0  0  0  0  0  0  0  0  0  0  0  0
  184.8160  179.0130  144.0490 C   0  0  0  0  0  2  0  0  0  0  0  0
  1  6  1  0  0  0  0
  1 14  1  0  0  0  0
  2 13  1  0  0  0  0
  3  7  1  1  0  0  0
  3  2  1  0  0  0  0
  3 19  1  0  0  0  0
  4  7  2  0  0  0  0
  4 15  1  0  0  0  0
  5 16  1  0  0  0  0
  5  2  2  0  0  0  0
  6 17  1  0  0  0  0
  8 21  1  0  0  0  0
  9  1  2  0  0  0  0
 10 18  1  0  0  0  0
 11 15  1  0  0  0  0
 12  8  1  0  0  0  0
 13  8  1  0  0  0  0
 13 18  2  0  0  0  0
 14  5  1  0  0  0  0
 15 20  2  0  0  0  0
 16 12  2  0  0  0  0
 17 16  1  0  0  0  0
 19 10  2  0  0  0  0
 20 19  1  0  0  0  0
 22 28  1  0  0  0  0
 22 26  1  1  0  0  0
 23 27  1  0  0  0  0
 24 29  1  0  0  0  0
 24 31  1  0  0  0  0
 27 21  1  0  0  0  0
 27 25  2  0  0  0  0
 29 30  1  0  0  0  0
 30 23  1  0  0  0  0
 30 28  2  0  0  0  0
 31 22  1  0  0  0  0
M  END
>  <MODEL>
9

>  <REMARK>
 VINA RESULT:      -8.1      3.940      8.097
  Name = 
  2 active torsions:
  status: ('A' for Active; 'I' for Inactive)
    1  A    between atoms: C_9  and  C_23
    2  A    between atoms: N_15  and  C_23
                            x       y       z     vdW  Elec       q    Type
                         _______ _______ _______ _____ _____    ______ ____

>  <TORSDO>
F 2

$$$$
