=
 OpenBabel11052418053D

 28 31  0  0  1  0  0  0  0  0999 V2000
  190.7160  174.5230  143.6660 C   0  0  2  0  0  3  0  0  0  0  0  0
  188.5800  173.0880  140.3950 O   0  0  0  0  0  0  0  0  0  0  0  0
  187.4270  176.4950  143.7870 N   0  0  0  0  0  0  0  0  0  0  0  0
  188.5600  174.3640  142.3600 N   0  0  0  0  0  0  0  0  0  0  0  0
  188.8810  176.3120  143.8070 C   0  0  0  0  0  2  0  0  0  0  0  0
  190.7170  173.3870  141.3730 C   0  0  0  0  0  2  0  0  0  0  0  0
  187.1880  174.7380  142.1480 C   0  0  0  0  0  3  0  0  0  0  0  0
  189.2380  173.6020  141.3400 C   0  0  0  0  0  0  0  0  0  0  0  0
  186.6420  175.7390  142.8430 C   0  0  0  0  0  3  0  0  0  0  0  0
  191.5600  174.8270  142.0860 S   0  0  0  0  0  0  0  0  0  0  0  0
  189.2130  174.8360  143.5950 C   0  0  2  0  0  3  0  0  0  0  0  0
  186.9900  177.5300  145.9030 C   0  0  0  0  0  3  0  0  0  0  0  0
  184.9290  179.1750  144.3570 C   0  0  0  0  0  3  0  0  0  0  0  0
  184.9520  178.5800  146.7730 C   0  0  0  0  0  0  0  0  0  0  0  0
  186.8260  177.5460  144.5720 C   0  0  0  0  0  0  0  0  0  0  0  0
  186.5160  179.0990  142.5450 C   0  0  0  0  0  1  0  0  0  0  0  0
  184.2930  178.9080  145.6620 C   0  0  0  0  0  3  0  0  0  0  0  0
  186.0610  178.6320  143.8870 C   0  0  0  0  0  0  0  0  0  0  0  0
  184.2540  178.3410  147.9080 F   0  0  0  0  0  0  0  0  0  0  0  0
  186.4440  178.5700  146.8240 C   0  0  0  0  0  2  0  0  0  0  0  0
  191.4160  175.1320  144.8500 C   0  0  0  0  0  0  0  0  0  0  0  0
  192.4600  176.0530  144.6730 C   0  0  0  0  0  3  0  0  0  0  0  0
  191.6040  175.4120  147.2550 C   0  0  0  0  0  0  0  0  0  0  0  0
  193.0760  176.6430  145.7790 C   0  0  0  0  0  3  0  0  0  0  0  0
  189.9640  173.9450  146.3410 F   0  0  0  0  0  0  0  0  0  0  0  0
  190.9840  174.8190  146.1490 C   0  0  0  0  0  0  0  0  0  0  0  0
  191.1930  175.1110  148.5120 F   0  0  0  0  0  0  0  0  0  0  0  0
  192.6480  176.3230  147.0690 C   0  0  0  0  0  3  0  0  0  0  0  0
  1 21  1  1  0  0  0
  2  8  2  0  0  0  0
  3  5  1  0  0  0  0
  3 15  1  0  0  0  0
  4 11  1  0  0  0  0
  6 10  1  0  0  0  0
  7  4  1  0  0  0  0
  7  9  2  0  0  0  0
  8  6  1  0  0  0  0
  8  4  1  0  0  0  0
  9  3  1  0  0  0  0
 10  1  1  0  0  0  0
 11  1  1  0  0  0  0
 11  5  1  6  0  0  0
 12 20  1  0  0  0  0
 13 17  1  0  0  0  0
 14 20  1  0  0  0  0
 14 19  1  0  0  0  0
 15 12  2  0  0  0  0
 16 18  1  0  0  0  0
 17 14  2  0  0  0  0
 18 13  2  0  0  0  0
 18 15  1  0  0  0  0
 21 26  1  0  0  0  0
 22 21  2  0  0  0  0
 22 24  1  0  0  0  0
 23 27  1  0  0  0  0
 24 28  2  0  0  0  0
 26 25  1  0  0  0  0
 26 23  2  0  0  0  0
 28 23  1  0  0  0  0
M  END
>  <MODEL>
1

>  <REMARK>
 VINA RESULT:      -8.4      0.000      0.000
  Name = 
  2 active torsions:
  status: ('A' for Active; 'I' for Inactive)
    1  A    between atoms: C_1  and  C_2
    2  A    between atoms: N_10  and  C_13
                            x       y       z     vdW  Elec       q    Type
                         _______ _______ _______ _____ _____    ______ ____

>  <TORSDO>
F 2

$$$$
=
 OpenBabel11052418053D

 28 31  0  0  1  0  0  0  0  0999 V2000
  187.4830  177.6090  145.7770 C   0  0  2  0  0  3  0  0  0  0  0  0
  184.4010  179.7830  144.0180 O   0  0  0  0  0  0  0  0  0  0  0  0
  187.5520  176.4860  142.1090 N   0  0  0  0  0  0  0  0  0  0  0  0
  186.2610  178.3910  143.7100 N   0  0  0  0  0  0  0  0  0  0  0  0
  187.5410  176.3110  143.5640 C   0  0  0  0  0  2  0  0  0  0  0  0
  185.2870  178.8980  146.0290 C   0  0  0  0  0  2  0  0  0  0  0  0
  186.0620  178.3790  142.2860 C   0  0  0  0  0  3  0  0  0  0  0  0
  185.2820  179.0500  144.5410 C   0  0  0  0  0  0  0  0  0  0  0  0
  186.6940  177.4850  141.5210 C   0  0  0  0  0  3  0  0  0  0  0  0
  185.8600  177.2430  146.5040 S   0  0  0  0  0  0  0  0  0  0  0  0
  187.4340  177.6750  144.2430 C   0  0  2  0  0  3  0  0  0  0  0  0
  187.7780  175.2500  140.0690 C   0  0  0  0  0  3  0  0  0  0  0  0
  189.9230  173.6840  141.5830 C   0  0  0  0  0  3  0  0  0  0  0  0
  188.5050  172.9420  139.6770 C   0  0  0  0  0  0  0  0  0  0  0  0
  188.2710  175.5500  141.2790 C   0  0  0  0  0  0  0  0  0  0  0  0
  190.4520  175.7930  142.6210 C   0  0  0  0  0  1  0  0  0  0  0  0
  189.2250  172.6720  140.7650 C   0  0  0  0  0  3  0  0  0  0  0  0
  189.5510  174.9570  141.7760 C   0  0  0  0  0  0  0  0  0  0  0  0
  187.8970  171.9270  139.0200 F   0  0  0  0  0  0  0  0  0  0  0  0
  188.4360  174.3190  139.1060 C   0  0  0  0  0  2  0  0  0  0  0  0
  188.5940  176.7530  146.3210 C   0  0  0  0  0  0  0  0  0  0  0  0
  188.3150  175.5610  147.0070 C   0  0  0  0  0  3  0  0  0  0  0  0
  190.9700  176.3090  146.5610 C   0  0  0  0  0  0  0  0  0  0  0  0
  189.3540  174.7540  147.4720 C   0  0  0  0  0  3  0  0  0  0  0  0
  190.2220  178.2610  145.4160 F   0  0  0  0  0  0  0  0  0  0  0  0
  189.9300  177.1210  146.0920 C   0  0  0  0  0  0  0  0  0  0  0  0
  192.2620  176.6620  146.3450 F   0  0  0  0  0  0  0  0  0  0  0  0
  190.6810  175.1280  147.2500 C   0  0  0  0  0  3  0  0  0  0  0  0
  1 21  1  6  0  0  0
  1 10  1  0  0  0  0
  2  8  2  0  0  0  0
  3  5  1  0  0  0  0
  4 11  1  0  0  0  0
  4  8  1  0  0  0  0
  6 10  1  0  0  0  0
  7  4  1  0  0  0  0
  8  6  1  0  0  0  0
  9  3  1  0  0  0  0
  9  7  2  0  0  0  0
 11  5  1  6  0  0  0
 11  1  1  0  0  0  0
 12 15  2  0  0  0  0
 13 18  2  0  0  0  0
 14 17  2  0  0  0  0
 15 18  1  0  0  0  0
 15  3  1  0  0  0  0
 17 13  1  0  0  0  0
 18 16  1  0  0  0  0
 19 14  1  0  0  0  0
 20 14  1  0  0  0  0
 20 12  1  0  0  0  0
 21 22  1  0  0  0  0
 22 24  2  0  0  0  0
 23 28  2  0  0  0  0
 25 26  1  0  0  0  0
 26 21  2  0  0  0  0
 26 23  1  0  0  0  0
 27 23  1  0  0  0  0
 28 24  1  0  0  0  0
M  END
>  <MODEL>
2

>  <REMARK>
 VINA RESULT:      -8.3      3.198      6.047
  Name = 
  2 active torsions:
  status: ('A' for Active; 'I' for Inactive)
    1  A    between atoms: C_1  and  C_2
    2  A    between atoms: N_10  and  C_13
                            x       y       z     vdW  Elec       q    Type
                         _______ _______ _______ _____ _____    ______ ____

>  <TORSDO>
F 2

$$$$
=
 OpenBabel11052418053D

 28 31  0  0  1  0  0  0  0  0999 V2000
  187.5920  177.2570  145.1660 C   0  0  2  0  0  3  0  0  0  0  0  0
  184.5960  178.8630  142.7640 O   0  0  0  0  0  0  0  0  0  0  0  0
  188.2670  175.7200  141.7150 N   0  0  0  0  0  0  0  0  0  0  0  0
  186.6000  177.6520  142.8770 N   0  0  0  0  0  0  0  0  0  0  0  0
  188.0720  175.7190  143.1680 C   0  0  0  0  0  2  0  0  0  0  0  0
  185.2740  178.3230  144.9680 C   0  0  0  0  0  2  0  0  0  0  0  0
  186.6010  177.4490  141.4530 C   0  0  0  0  0  3  0  0  0  0  0  0
  185.4600  178.2960  143.4850 C   0  0  0  0  0  0  0  0  0  0  0  0
  187.4100  176.5440  140.8980 C   0  0  0  0  0  3  0  0  0  0  0  0
  185.9240  176.8080  145.7260 S   0  0  0  0  0  0  0  0  0  0  0  0
  187.7490  177.1340  143.6420 C   0  0  2  0  0  3  0  0  0  0  0  0
  188.8490  174.2300  139.9320 C   0  0  0  0  0  3  0  0  0  0  0  0
  190.9990  173.2170  141.8550 C   0  0  0  0  0  3  0  0  0  0  0  0
  189.8860  172.0090  139.9870 C   0  0  0  0  0  0  0  0  0  0  0  0
  189.1750  174.7740  141.1140 C   0  0  0  0  0  0  0  0  0  0  0  0
  191.1600  175.5120  142.5720 C   0  0  0  0  0  1  0  0  0  0  0  0
  190.5170  172.0080  141.1600 C   0  0  0  0  0  3  0  0  0  0  0  0
  190.4590  174.4430  141.8050 C   0  0  0  0  0  0  0  0  0  0  0  0
  189.4750  170.8330  139.4570 F   0  0  0  0  0  0  0  0  0  0  0  0
  189.7100  173.2610  139.1930 C   0  0  0  0  0  2  0  0  0  0  0  0
  188.6910  176.5970  145.9520 C   0  0  0  0  0  0  0  0  0  0  0  0
  188.4230  175.4910  146.7740 C   0  0  0  0  0  3  0  0  0  0  0  0
  191.0460  176.4210  146.5200 C   0  0  0  0  0  0  0  0  0  0  0  0
  189.4570  174.8600  147.4690 C   0  0  0  0  0  3  0  0  0  0  0  0
  190.2950  178.1120  145.0180 F   0  0  0  0  0  0  0  0  0  0  0  0
  190.0120  177.0550  145.8210 C   0  0  0  0  0  0  0  0  0  0  0  0
  192.3230  176.8620  146.3990 F   0  0  0  0  0  0  0  0  0  0  0  0
  190.7680  175.3250  147.3420 C   0  0  0  0  0  3  0  0  0  0  0  0
  1 10  1  0  0  0  0
  1 21  1  1  0  0  0
  2  8  2  0  0  0  0
  3  5  1  0  0  0  0
  4  8  1  0  0  0  0
  4 11  1  0  0  0  0
  6 10  1  0  0  0  0
  7  4  1  0  0  0  0
  8  6  1  0  0  0  0
  9  7  2  0  0  0  0
  9  3  1  0  0  0  0
 11  5  1  1  0  0  0
 11  1  1  0  0  0  0
 12 15  2  0  0  0  0
 14 17  2  0  0  0  0
 15  3  1  0  0  0  0
 15 18  1  0  0  0  0
 17 13  1  0  0  0  0
 18 13  2  0  0  0  0
 18 16  1  0  0  0  0
 19 14  1  0  0  0  0
 20 12  1  0  0  0  0
 20 14  1  0  0  0  0
 21 22  1  0  0  0  0
 22 24  2  0  0  0  0
 23 28  2  0  0  0  0
 25 26  1  0  0  0  0
 26 21  2  0  0  0  0
 26 23  1  0  0  0  0
 27 23  1  0  0  0  0
 28 24  1  0  0  0  0
M  END
>  <MODEL>
3

>  <REMARK>
 VINA RESULT:      -7.9      3.000      6.173
  Name = 
  2 active torsions:
  status: ('A' for Active; 'I' for Inactive)
    1  A    between atoms: C_1  and  C_2
    2  A    between atoms: N_10  and  C_13
                            x       y       z     vdW  Elec       q    Type
                         _______ _______ _______ _____ _____    ______ ____

>  <TORSDO>
F 2

$$$$
=
 OpenBabel11052418053D

 28 31  0  0  1  0  0  0  0  0999 V2000
  187.8950  177.3590  145.2200 C   0  0  2  0  0  3  0  0  0  0  0  0
  185.0710  179.0400  142.6660 O   0  0  0  0  0  0  0  0  0  0  0  0
  188.4410  175.5020  141.9070 N   0  0  0  0  0  0  0  0  0  0  0  0
  186.9540  177.6640  142.8960 N   0  0  0  0  0  0  0  0  0  0  0  0
  188.2400  175.6320  143.3530 C   0  0  0  0  0  2  0  0  0  0  0  0
  185.6860  178.6150  144.9130 C   0  0  0  0  0  2  0  0  0  0  0  0
  186.9430  177.3510  141.4930 C   0  0  0  0  0  3  0  0  0  0  0  0
  185.8760  178.4540  143.4390 C   0  0  0  0  0  0  0  0  0  0  0  0
  187.6680  176.3350  141.0190 C   0  0  0  0  0  3  0  0  0  0  0  0
  186.1900  177.1100  145.7940 S   0  0  0  0  0  0  0  0  0  0  0  0
  188.0470  177.1040  143.7130 C   0  0  2  0  0  3  0  0  0  0  0  0
  190.5910  174.5980  141.3620 C   0  0  0  0  0  3  0  0  0  0  0  0
  189.0010  172.4690  139.8490 C   0  0  0  0  0  3  0  0  0  0  0  0
  191.3190  173.2730  139.4320 C   0  0  0  0  0  0  0  0  0  0  0  0
  189.2610  174.4330  141.3910 C   0  0  0  0  0  0  0  0  0  0  0  0
  187.4000  172.6750  141.6380 C   0  0  0  0  0  1  0  0  0  0  0  0
  190.1810  172.7310  139.0010 C   0  0  0  0  0  3  0  0  0  0  0  0
  188.6140  173.1670  140.9260 C   0  0  0  0  0  0  0  0  0  0  0  0
  192.3270  173.4800  138.5520 F   0  0  0  0  0  0  0  0  0  0  0  0
  191.5500  173.5620  140.8780 C   0  0  0  0  0  2  0  0  0  0  0  0
  188.9240  176.6640  146.0690 C   0  0  0  0  0  0  0  0  0  0  0  0
  188.5700  175.5790  146.8850 C   0  0  0  0  0  3  0  0  0  0  0  0
  191.2380  176.4020  146.7600 C   0  0  0  0  0  0  0  0  0  0  0  0
  189.5410  174.9160  147.6380 C   0  0  0  0  0  3  0  0  0  0  0  0
  190.6340  178.1050  145.2050 F   0  0  0  0  0  0  0  0  0  0  0  0
  190.2670  177.0690  146.0020 C   0  0  0  0  0  0  0  0  0  0  0  0
  192.5360  176.7910  146.7010 F   0  0  0  0  0  0  0  0  0  0  0  0
  190.8740  175.3270  147.5750 C   0  0  0  0  0  3  0  0  0  0  0  0
  1 10  1  0  0  0  0
  1 21  1  1  0  0  0
  2  8  2  0  0  0  0
  3  5  1  0  0  0  0
  4  8  1  0  0  0  0
  4 11  1  0  0  0  0
  6 10  1  0  0  0  0
  7  4  1  0  0  0  0
  8  6  1  0  0  0  0
  9  7  2  0  0  0  0
  9  3  1  0  0  0  0
 11  5  1  1  0  0  0
 11  1  1  0  0  0  0
 12 15  2  0  0  0  0
 13 18  2  0  0  0  0
 14 20  1  0  0  0  0
 15  3  1  0  0  0  0
 17 14  2  0  0  0  0
 17 13  1  0  0  0  0
 18 15  1  0  0  0  0
 18 16  1  0  0  0  0
 19 14  1  0  0  0  0
 20 12  1  0  0  0  0
 21 22  1  0  0  0  0
 22 24  2  0  0  0  0
 23 28  2  0  0  0  0
 25 26  1  0  0  0  0
 26 21  2  0  0  0  0
 26 23  1  0  0  0  0
 27 23  1  0  0  0  0
 28 24  1  0  0  0  0
M  END
>  <MODEL>
4

>  <REMARK>
 VINA RESULT:      -7.6      3.031      6.241
  Name = 
  2 active torsions:
  status: ('A' for Active; 'I' for Inactive)
    1  A    between atoms: C_1  and  C_2
    2  A    between atoms: N_10  and  C_13
                            x       y       z     vdW  Elec       q    Type
                         _______ _______ _______ _____ _____    ______ ____

>  <TORSDO>
F 2

$$$$
=
 OpenBabel11052418053D

 28 31  0  0  1  0  0  0  0  0999 V2000
  192.5360  174.4540  142.8320 C   0  0  2  0  0  3  0  0  0  0  0  0
  191.0200  172.9340  139.2660 O   0  0  0  0  0  0  0  0  0  0  0  0
  188.9190  175.7320  142.7590 N   0  0  0  0  0  0  0  0  0  0  0  0
  190.5750  173.9990  141.3050 N   0  0  0  0  0  0  0  0  0  0  0  0
  190.3720  175.8330  142.9130 C   0  0  0  0  0  2  0  0  0  0  0  0
  192.9610  173.5510  140.4750 C   0  0  0  0  0  2  0  0  0  0  0  0
  189.1790  174.1170  140.9820 C   0  0  0  0  0  3  0  0  0  0  0  0
  191.4770  173.4770  140.3070 C   0  0  0  0  0  0  0  0  0  0  0  0
  188.3860  174.9260  141.6880 C   0  0  0  0  0  3  0  0  0  0  0  0
  193.4330  175.0570  141.3720 S   0  0  0  0  0  0  0  0  0  0  0  0
  191.0120  174.4750  142.6310 C   0  0  2  0  0  3  0  0  0  0  0  0
  187.9740  176.3490  144.8720 C   0  0  0  0  0  3  0  0  0  0  0  0
  186.0320  178.0170  143.2000 C   0  0  0  0  0  3  0  0  0  0  0  0
  185.6930  177.0310  145.4590 C   0  0  0  0  0  0  0  0  0  0  0  0
  188.0540  176.5720  143.5520 C   0  0  0  0  0  0  0  0  0  0  0  0
  187.9190  178.4030  141.7510 C   0  0  0  0  0  1  0  0  0  0  0  0
  185.2100  177.4730  144.2980 C   0  0  0  0  0  3  0  0  0  0  0  0
  187.2910  177.6760  142.8920 C   0  0  0  0  0  0  0  0  0  0  0  0
  184.8370  176.5360  146.3840 F   0  0  0  0  0  0  0  0  0  0  0  0
  187.1390  177.1600  145.8060 C   0  0  0  0  0  2  0  0  0  0  0  0
  192.9950  175.0780  144.1210 C   0  0  0  0  0  0  0  0  0  0  0  0
  193.9360  176.1180  144.1220 C   0  0  0  0  0  3  0  0  0  0  0  0
  192.8280  175.2540  146.5380 C   0  0  0  0  0  0  0  0  0  0  0  0
  194.3250  176.7180  145.3220 C   0  0  0  0  0  3  0  0  0  0  0  0
  191.5100  173.6580  145.3560 F   0  0  0  0  0  0  0  0  0  0  0  0
  192.4350  174.6520  145.3370 C   0  0  0  0  0  0  0  0  0  0  0  0
  192.2930  174.8450  147.7150 F   0  0  0  0  0  0  0  0  0  0  0  0
  193.7720  176.2860  146.5290 C   0  0  0  0  0  3  0  0  0  0  0  0
  1 21  1  1  0  0  0
  2  8  2  0  0  0  0
  3  5  1  0  0  0  0
  3 15  1  0  0  0  0
  4 11  1  0  0  0  0
  6 10  1  0  0  0  0
  7  4  1  0  0  0  0
  7  9  2  0  0  0  0
  8  6  1  0  0  0  0
  8  4  1  0  0  0  0
  9  3  1  0  0  0  0
 10  1  1  0  0  0  0
 11  1  1  0  0  0  0
 11  5  1  6  0  0  0
 12 20  1  0  0  0  0
 13 17  1  0  0  0  0
 14 20  1  0  0  0  0
 14 19  1  0  0  0  0
 15 12  2  0  0  0  0
 16 18  1  0  0  0  0
 17 14  2  0  0  0  0
 18 13  2  0  0  0  0
 18 15  1  0  0  0  0
 21 22  2  0  0  0  0
 21 26  1  0  0  0  0
 22 24  1  0  0  0  0
 23 27  1  0  0  0  0
 24 28  2  0  0  0  0
 26 25  1  0  0  0  0
 26 23  2  0  0  0  0
 28 23  1  0  0  0  0
M  END
>  <MODEL>
5

>  <REMARK>
 VINA RESULT:      -7.5      1.597      1.982
  Name = 
  2 active torsions:
  status: ('A' for Active; 'I' for Inactive)
    1  A    between atoms: C_1  and  C_2
    2  A    between atoms: N_10  and  C_13
                            x       y       z     vdW  Elec       q    Type
                         _______ _______ _______ _____ _____    ______ ____

>  <TORSDO>
F 2

$$$$
=
 OpenBabel11052418053D

 28 31  0  0  1  0  0  0  0  0999 V2000
  191.1670  174.0450  143.3880 C   0  0  2  0  0  3  0  0  0  0  0  0
  193.5940  175.2730  146.5390 O   0  0  0  0  0  0  0  0  0  0  0  0
  189.0310  176.6510  145.2240 N   0  0  0  0  0  0  0  0  0  0  0  0
  191.6440  175.6370  145.2910 N   0  0  0  0  0  0  0  0  0  0  0  0
  189.3180  175.3650  144.5820 C   0  0  0  0  0  2  0  0  0  0  0  0
  193.1180  173.5610  144.9720 C   0  0  0  0  0  2  0  0  0  0  0  0
  191.2680  176.7410  146.1310 C   0  0  0  0  0  3  0  0  0  0  0  0
  192.8060  174.8580  145.6470 C   0  0  0  0  0  0  0  0  0  0  0  0
  190.0290  177.2380  146.0840 C   0  0  0  0  0  3  0  0  0  0  0  0
  191.5930  172.6890  144.5190 S   0  0  0  0  0  0  0  0  0  0  0  0
  190.7780  175.3290  144.1380 C   0  0  2  0  0  3  0  0  0  0  0  0
  187.2840  177.6920  143.9580 C   0  0  0  0  0  3  0  0  0  0  0  0
  186.0210  178.2480  146.6860 C   0  0  0  0  0  3  0  0  0  0  0  0
  185.7470  179.5050  144.5560 C   0  0  0  0  0  0  0  0  0  0  0  0
  187.7060  177.2160  145.1380 C   0  0  0  0  0  0  0  0  0  0  0  0
  186.9190  176.1040  147.3200 C   0  0  0  0  0  1  0  0  0  0  0  0
  185.7390  179.4580  145.8880 C   0  0  0  0  0  3  0  0  0  0  0  0
  186.8330  177.2350  146.3520 C   0  0  0  0  0  0  0  0  0  0  0  0
  185.4890  180.6810  143.9360 F   0  0  0  0  0  0  0  0  0  0  0  0
  185.9310  178.2760  143.7290 C   0  0  0  0  0  2  0  0  0  0  0  0
  190.2010  173.6480  142.3070 C   0  0  0  0  0  0  0  0  0  0  0  0
  188.9550  173.0870  142.6260 C   0  0  0  0  0  3  0  0  0  0  0  0
  189.6140  173.5590  139.9510 C   0  0  0  0  0  0  0  0  0  0  0  0
  188.0480  172.7590  141.6150 C   0  0  0  0  0  3  0  0  0  0  0  0
  191.7180  174.4480  140.6330 F   0  0  0  0  0  0  0  0  0  0  0  0
  190.5250  173.8910  140.9620 C   0  0  0  0  0  0  0  0  0  0  0  0
  189.9230  173.7890  138.6510 F   0  0  0  0  0  0  0  0  0  0  0  0
  188.3780  172.9950  140.2790 C   0  0  0  0  0  3  0  0  0  0  0  0
  1 21  1  1  0  0  0
  1 11  1  0  0  0  0
  1 10  1  0  0  0  0
  3  9  1  0  0  0  0
  4  8  1  0  0  0  0
  4  7  1  0  0  0  0
  5  3  1  0  0  0  0
  6  8  1  0  0  0  0
  8  2  2  0  0  0  0
  9  7  2  0  0  0  0
 10  6  1  0  0  0  0
 11  5  1  1  0  0  0
 11  4  1  0  0  0  0
 12 15  2  0  0  0  0
 14 17  2  0  0  0  0
 15  3  1  0  0  0  0
 15 18  1  0  0  0  0
 17 13  1  0  0  0  0
 18 13  2  0  0  0  0
 18 16  1  0  0  0  0
 19 14  1  0  0  0  0
 20 12  1  0  0  0  0
 20 14  1  0  0  0  0
 21 22  1  0  0  0  0
 23 28  2  0  0  0  0
 23 26  1  0  0  0  0
 24 22  2  0  0  0  0
 25 26  1  0  0  0  0
 26 21  2  0  0  0  0
 27 23  1  0  0  0  0
 28 24  1  0  0  0  0
M  END
>  <MODEL>
6

>  <REMARK>
 VINA RESULT:      -7.4      3.050      5.030
  Name = 
  2 active torsions:
  status: ('A' for Active; 'I' for Inactive)
    1  A    between atoms: C_1  and  C_2
    2  A    between atoms: N_10  and  C_13
                            x       y       z     vdW  Elec       q    Type
                         _______ _______ _______ _____ _____    ______ ____

>  <TORSDO>
F 2

$$$$
=
 OpenBabel11052418053D

 28 31  0  0  1  0  0  0  0  0999 V2000
  185.7540  177.7130  144.2870 C   0  0  2  0  0  3  0  0  0  0  0  0
  185.6790  177.5990  148.4470 O   0  0  0  0  0  0  0  0  0  0  0  0
  189.0580  175.9960  145.2120 N   0  0  0  0  0  0  0  0  0  0  0  0
  186.7140  176.8820  146.4700 N   0  0  0  0  0  0  0  0  0  0  0  0
  188.1970  176.9620  144.5240 C   0  0  0  0  0  2  0  0  0  0  0  0
  184.8660  178.6610  146.4920 C   0  0  0  0  0  2  0  0  0  0  0  0
  187.7120  176.1580  147.2100 C   0  0  0  0  0  3  0  0  0  0  0  0
  185.7680  177.6970  147.1930 C   0  0  0  0  0  0  0  0  0  0  0  0
  188.8180  175.7170  146.6060 C   0  0  0  0  0  3  0  0  0  0  0  0
  185.6870  179.3670  145.0350 S   0  0  0  0  0  0  0  0  0  0  0  0
  186.7550  176.7900  144.9990 C   0  0  2  0  0  3  0  0  0  0  0  0
  191.4010  175.4990  145.2000 C   0  0  0  0  0  3  0  0  0  0  0  0
  191.0150  175.0960  142.1940 C   0  0  0  0  0  3  0  0  0  0  0  0
  193.0750  175.7540  143.4260 C   0  0  0  0  0  0  0  0  0  0  0  0
  190.2300  175.4810  144.5470 C   0  0  0  0  0  0  0  0  0  0  0  0
  188.8620  174.1930  142.7900 C   0  0  0  0  0  1  0  0  0  0  0  0
  192.3330  175.7500  142.3190 C   0  0  0  0  0  3  0  0  0  0  0  0
  190.1080  174.9210  143.1660 C   0  0  0  0  0  0  0  0  0  0  0  0
  194.2610  176.4050  143.4230 F   0  0  0  0  0  0  0  0  0  0  0  0
  192.6800  174.9750  144.6370 C   0  0  0  0  0  2  0  0  0  0  0  0
  185.8950  177.7350  142.7890 C   0  0  0  0  0  0  0  0  0  0  0  0
  187.1380  177.5050  142.1800 C   0  0  0  0  0  3  0  0  0  0  0  0
  184.8750  177.9150  140.5920 C   0  0  0  0  0  0  0  0  0  0  0  0
  187.2490  177.4870  140.7880 C   0  0  0  0  0  3  0  0  0  0  0  0
  183.5440  178.1390  142.5570 F   0  0  0  0  0  0  0  0  0  0  0  0
  184.7590  177.9330  141.9880 C   0  0  0  0  0  0  0  0  0  0  0  0
  183.7810  178.1080  139.8140 F   0  0  0  0  0  0  0  0  0  0  0  0
  186.1190  177.6920  139.9950 C   0  0  0  0  0  3  0  0  0  0  0  0
  1 21  1  6  0  0  0
  1 11  1  0  0  0  0
  1 10  1  0  0  0  0
  3  9  1  0  0  0  0
  4  8  1  0  0  0  0
  4  7  1  0  0  0  0
  5  3  1  0  0  0  0
  6  8  1  0  0  0  0
  8  2  2  0  0  0  0
  9  7  2  0  0  0  0
 10  6  1  0  0  0  0
 11  5  1  6  0  0  0
 11  4  1  0  0  0  0
 13 17  1  0  0  0  0
 13 18  2  0  0  0  0
 14 20  1  0  0  0  0
 15 12  2  0  0  0  0
 15  3  1  0  0  0  0
 16 18  1  0  0  0  0
 17 14  2  0  0  0  0
 18 15  1  0  0  0  0
 19 14  1  0  0  0  0
 20 12  1  0  0  0  0
 22 21  1  0  0  0  0
 23 26  1  0  0  0  0
 24 22  2  0  0  0  0
 26 25  1  0  0  0  0
 26 21  2  0  0  0  0
 27 23  1  0  0  0  0
 28 23  2  0  0  0  0
 28 24  1  0  0  0  0
M  END
>  <MODEL>
7

>  <REMARK>
 VINA RESULT:      -7.4      3.589      7.446
  Name = 
  2 active torsions:
  status: ('A' for Active; 'I' for Inactive)
    1  A    between atoms: C_1  and  C_2
    2  A    between atoms: N_10  and  C_13
                            x       y       z     vdW  Elec       q    Type
                         _______ _______ _______ _____ _____    ______ ____

>  <TORSDO>
F 2

$$$$
=
 OpenBabel11052418053D

 28 31  0  0  1  0  0  0  0  0999 V2000
  191.4710  172.9170  142.9200 C   0  0  2  0  0  3  0  0  0  0  0  0
  194.3320  172.8530  145.9420 O   0  0  0  0  0  0  0  0  0  0  0  0
  190.1700  175.4780  145.4640 N   0  0  0  0  0  0  0  0  0  0  0  0
  192.4520  173.9090  145.0260 N   0  0  0  0  0  0  0  0  0  0  0  0
  190.0870  174.3310  144.5560 C   0  0  0  0  0  2  0  0  0  0  0  0
  193.3460  171.6740  144.1400 C   0  0  0  0  0  2  0  0  0  0  0  0
  192.4160  174.8620  146.1020 C   0  0  0  0  0  3  0  0  0  0  0  0
  193.4080  172.8300  145.0850 C   0  0  0  0  0  0  0  0  0  0  0  0
  191.3370  175.6240  146.2970 C   0  0  0  0  0  3  0  0  0  0  0  0
  191.6260  171.2880  143.7080 S   0  0  0  0  0  0  0  0  0  0  0  0
  191.4610  174.0620  143.9440 C   0  0  2  0  0  3  0  0  0  0  0  0
  188.2720  176.1800  146.7460 C   0  0  0  0  0  3  0  0  0  0  0  0
  187.4730  177.6950  144.2130 C   0  0  0  0  0  3  0  0  0  0  0  0
  186.0160  176.8220  146.0310 C   0  0  0  0  0  0  0  0  0  0  0  0
  189.0210  176.3330  145.6450 C   0  0  0  0  0  0  0  0  0  0  0  0
  189.8370  178.0590  143.9210 C   0  0  0  0  0  1  0  0  0  0  0  0
  186.2010  177.1850  144.7630 C   0  0  0  0  0  3  0  0  0  0  0  0
  188.7100  177.3760  144.6190 C   0  0  0  0  0  0  0  0  0  0  0  0
  184.8050  176.3520  146.4130 F   0  0  0  0  0  0  0  0  0  0  0  0
  187.0760  177.0140  147.0640 C   0  0  0  0  0  2  0  0  0  0  0  0
  190.3660  172.9920  141.9030 C   0  0  0  0  0  0  0  0  0  0  0  0
  189.0630  172.5820  142.2250 C   0  0  0  0  0  3  0  0  0  0  0  0
  189.5940  173.6380  139.6930 C   0  0  0  0  0  0  0  0  0  0  0  0
  188.0350  172.6930  141.2860 C   0  0  0  0  0  3  0  0  0  0  0  0
  191.8760  173.9480  140.3070 F   0  0  0  0  0  0  0  0  0  0  0  0
  190.6260  173.5290  140.6320 C   0  0  0  0  0  0  0  0  0  0  0  0
  189.8410  174.1550  138.4630 F   0  0  0  0  0  0  0  0  0  0  0  0
  188.3000  173.2210  140.0200 C   0  0  0  0  0  3  0  0  0  0  0  0
  1 21  1  1  0  0  0
  1 10  1  0  0  0  0
  1 11  1  0  0  0  0
  3 15  1  0  0  0  0
  3  9  1  0  0  0  0
  4  8  1  0  0  0  0
  4  7  1  0  0  0  0
  5  3  1  0  0  0  0
  6  8  1  0  0  0  0
  7  9  2  0  0  0  0
  8  2  2  0  0  0  0
 10  6  1  0  0  0  0
 11  5  1  1  0  0  0
 11  4  1  0  0  0  0
 12 20  1  0  0  0  0
 13 18  2  0  0  0  0
 13 17  1  0  0  0  0
 14 19  1  0  0  0  0
 14 20  1  0  0  0  0
 15 12  2  0  0  0  0
 16 18  1  0  0  0  0
 17 14  2  0  0  0  0
 18 15  1  0  0  0  0
 21 22  1  0  0  0  0
 23 28  2  0  0  0  0
 23 26  1  0  0  0  0
 24 22  2  0  0  0  0
 25 26  1  0  0  0  0
 26 21  2  0  0  0  0
 27 23  1  0  0  0  0
 28 24  1  0  0  0  0
M  END
>  <MODEL>
8

>  <REMARK>
 VINA RESULT:      -7.3      3.178      5.153
  Name = 
  2 active torsions:
  status: ('A' for Active; 'I' for Inactive)
    1  A    between atoms: C_1  and  C_2
    2  A    between atoms: N_10  and  C_13
                            x       y       z     vdW  Elec       q    Type
                         _______ _______ _______ _____ _____    ______ ____

>  <TORSDO>
F 2

$$$$
=
 OpenBabel11052418053D

 28 31  0  0  1  0  0  0  0  0999 V2000
  191.2460  174.3310  143.5850 C   0  0  2  0  0  3  0  0  0  0  0  0
  189.3810  172.5080  140.3420 O   0  0  0  0  0  0  0  0  0  0  0  0
  187.8300  176.0680  143.4020 N   0  0  0  0  0  0  0  0  0  0  0  0
  189.1740  173.9220  142.1990 N   0  0  0  0  0  0  0  0  0  0  0  0
  189.2900  175.9910  143.5030 C   0  0  0  0  0  2  0  0  0  0  0  0
  191.4400  173.0290  141.3910 C   0  0  0  0  0  2  0  0  0  0  0  0
  187.7930  174.1810  141.8950 C   0  0  0  0  0  3  0  0  0  0  0  0
  189.9530  173.1360  141.2730 C   0  0  0  0  0  0  0  0  0  0  0  0
  187.1470  175.1900  142.4850 C   0  0  0  0  0  3  0  0  0  0  0  0
  192.1470  174.5750  142.0270 S   0  0  0  0  0  0  0  0  0  0  0  0
  189.7310  174.5310  143.4220 C   0  0  2  0  0  3  0  0  0  0  0  0
  187.0740  177.1260  145.4150 C   0  0  0  0  0  3  0  0  0  0  0  0
  185.2920  178.7680  143.5500 C   0  0  0  0  0  3  0  0  0  0  0  0
  184.9320  178.1950  145.9450 C   0  0  0  0  0  0  0  0  0  0  0  0
  187.1210  177.1300  144.0750 C   0  0  0  0  0  0  0  0  0  0  0  0
  187.1430  178.6650  142.0110 C   0  0  0  0  0  1  0  0  0  0  0  0
  184.4580  178.5160  144.7420 C   0  0  0  0  0  3  0  0  0  0  0  0
  186.4800  178.2140  143.2680 C   0  0  0  0  0  0  0  0  0  0  0  0
  184.0630  177.9700  146.9580 F   0  0  0  0  0  0  0  0  0  0  0  0
  186.3970  178.1770  146.2300 C   0  0  0  0  0  2  0  0  0  0  0  0
  191.8420  175.0740  144.7490 C   0  0  0  0  0  0  0  0  0  0  0  0
  191.5440  174.7030  146.0690 C   0  0  0  0  0  3  0  0  0  0  0  0
  193.3410  176.7890  145.5920 C   0  0  0  0  0  0  0  0  0  0  0  0
  192.1340  175.3740  147.1420 C   0  0  0  0  0  3  0  0  0  0  0  0
  193.0680  176.4810  143.2450 F   0  0  0  0  0  0  0  0  0  0  0  0
  192.7520  176.1180  144.5140 C   0  0  0  0  0  0  0  0  0  0  0  0
  194.2190  177.7990  145.3710 F   0  0  0  0  0  0  0  0  0  0  0  0
  193.0320  176.4170  146.9040 C   0  0  0  0  0  3  0  0  0  0  0  0
  1 21  1  1  0  0  0
  2  8  2  0  0  0  0
  3  5  1  0  0  0  0
  3 15  1  0  0  0  0
  4 11  1  0  0  0  0
  6 10  1  0  0  0  0
  7  4  1  0  0  0  0
  7  9  2  0  0  0  0
  8  6  1  0  0  0  0
  8  4  1  0  0  0  0
  9  3  1  0  0  0  0
 10  1  1  0  0  0  0
 11  5  1  6  0  0  0
 11  1  1  0  0  0  0
 12 20  1  0  0  0  0
 13 17  1  0  0  0  0
 14 20  1  0  0  0  0
 14 19  1  0  0  0  0
 15 12  2  0  0  0  0
 16 18  1  0  0  0  0
 17 14  2  0  0  0  0
 18 13  2  0  0  0  0
 18 15  1  0  0  0  0
 21 22  1  0  0  0  0
 22 24  2  0  0  0  0
 23 28  2  0  0  0  0
 25 26  1  0  0  0  0
 26 21  2  0  0  0  0
 26 23  1  0  0  0  0
 27 23  1  0  0  0  0
 28 24  1  0  0  0  0
M  END
>  <MODEL>
9

>  <REMARK>
 VINA RESULT:      -7.3      1.533      1.790
  Name = 
  2 active torsions:
  status: ('A' for Active; 'I' for Inactive)
    1  A    between atoms: C_1  and  C_2
    2  A    between atoms: N_10  and  C_13
                            x       y       z     vdW  Elec       q    Type
                         _______ _______ _______ _____ _____    ______ ____

>  <TORSDO>
F 2

$$$$
