=
 OpenBabel11052419273D

 55 64  0  0  1  0  0  0  0  0999 V2000
  188.3710  173.9110  141.1680 C   0  0  0  0  0  2  0  0  0  0  0  0
  194.0540  172.8910  142.4550 C   0  0  0  0  0  3  0  0  0  0  0  0
  191.9390  172.0600  144.2620 C   0  0  0  0  0  2  0  0  0  0  0  0
  194.2990  171.7560  139.7030 C   0  0  0  0  0  3  0  0  0  0  0  0
  195.7220  173.7230  139.0720 C   0  0  0  0  0  2  0  0  0  0  0  0
  191.3600  174.5140  146.3640 C   0  0  0  0  0  3  0  0  0  0  0  0
  191.5800  175.3010  147.6270 C   0  0  0  0  0  2  0  0  0  0  0  0
  190.6740  176.5600  145.1160 C   0  0  1  0  0  3  0  0  0  0  0  0
  191.0800  177.3600  146.3600 C   0  0  0  0  0  2  0  0  0  0  0  0
  190.5160  175.0030  142.7960 N   0  0  0  0  0  2  0  0  0  0  0  0
  196.4390  171.4380  138.7190 O   0  0  0  0  0  0  0  0  0  0  0  0
  196.8950  172.7470  139.0680 C   0  0  0  0  0  2  0  0  0  0  0  0
  190.7640  176.5830  147.6320 C   0  0  0  0  0  2  0  0  0  0  0  0
  189.3160  172.0410  138.0070 C   0  0  0  0  0  3  0  0  0  0  0  0
  191.0460  175.0880  145.1880 C   0  0  0  0  0  0  0  0  0  0  0  0
  191.2290  173.3570  138.7150 C   0  0  0  0  0  0  0  0  0  0  0  0
  188.6530  175.2580  141.4340 O   0  0  0  0  0  0  0  0  0  0  0  0
  190.4750  173.8500  139.7900 C   0  0  0  0  0  3  0  0  0  0  0  0
  188.8390  176.6990  143.3780 C   0  0  1  0  0  3  0  0  0  0  0  0
  195.0720  173.3510  141.4560 C   0  0  0  0  0  2  0  0  0  0  0  0
  189.1760  176.6980  144.8760 C   0  0  0  0  0  2  0  0  0  0  0  0
  193.0380  173.6790  142.7940 C   0  0  0  0  0  3  0  0  0  0  0  0
  191.9580  173.2700  143.7130 C   0  0  0  0  0  0  0  0  0  0  0  0
  188.5770  172.5240  139.0920 C   0  0  0  0  0  3  0  0  0  0  0  0
  195.1970  170.9390  139.1380 C   0  0  0  0  0  0  0  0  0  0  0  0
  194.6060  173.2110  139.9950 C   0  0  2  0  0  0  0  0  0  0  0  0
  189.1490  173.4410  139.9820 C   0  0  0  0  0  0  0  0  0  0  0  0
  190.8080  174.2030  143.9820 C   0  0  2  0  0  3  0  0  0  0  0  0
  189.0880  175.3010  142.7660 C   0  0  2  0  0  3  0  0  0  0  0  0
  193.3690  174.0920  139.7760 C   0  0  0  0  0  2  0  0  0  0  0  0
  192.6290  173.8350  138.4650 C   0  0  0  0  0  2  0  0  0  0  0  0
  190.6360  172.4620  137.8150 C   0  0  0  0  0  3  0  0  0  0  0  0
  185.5580  177.4170  145.5270 C   0  0  1  0  0  3  0  0  0  0  0  0
  186.3780  176.1130  143.5740 C   0  0  0  0  0  2  0  0  0  0  0  0
  184.2440  179.4110  145.6580 O   0  0  0  0  0  0  0  0  0  0  0  0
  185.7870  178.2320  144.3030 C   0  0  2  0  0  0  0  0  0  0  0  0
  187.1340  178.3370  143.9380 O   0  0  0  0  0  0  0  0  0  0  0  0
  184.9110  179.4500  144.4190 C   0  0  0  0  0  2  0  0  0  0  0  0
  184.3550  178.0910  146.1430 C   0  0  0  0  0  2  0  0  0  0  0  0
  185.2090  176.8670  144.1440 C   0  0  2  0  0  3  0  0  0  0  0  0
  187.3920  177.1840  143.1650 C   0  0  1  0  0  3  0  0  0  0  0  0
  193.8330  169.3430  135.2660 O   0  0  0  0  0  1  0  0  0  0  0  0
  195.2480  168.8500  137.5540 C   0  0  1  0  0  3  0  0  0  0  0  0
  193.3840  170.4620  137.2270 O   0  0  0  0  0  0  0  0  0  0  0  0
  193.7420  169.1980  137.7990 C   0  0  1  0  0  0  0  0  0  0  0  0
  193.0790  169.3610  136.4460 C   0  0  2  0  0  0  0  0  0  0  0  0
  195.9230  169.7770  136.7450 O   0  0  0  0  0  1  0  0  0  0  0  0
  194.8420  169.4930  138.8450 C   0  0  2  0  0  0  0  0  0  0  0  0
  194.7720  168.5300  140.0280 C   0  0  2  0  0  3  0  0  0  0  0  0
  193.4590  168.4310  140.4940 O   0  0  0  0  0  1  0  0  0  0  0  0
  195.6770  168.9870  141.1580 C   0  0  0  0  0  1  0  0  0  0  0  0
  191.5960  169.1800  136.3160 C   0  0  0  0  0  0  0  0  0  0  0  0
  190.9620  169.9040  135.5630 O   0  0  0  0  0  0  0  0  0  0  0  0
  190.8730  168.1660  137.1450 C   0  0  0  0  0  2  0  0  0  0  0  0
  190.4340  168.7590  138.3950 N   0  0  0  0  0  1  0  0  0  0  0  0
  1 17  1  0  0  0  0
  2 22  2  0  0  0  0
  4 26  1  0  0  0  0
  6  7  1  0  0  0  0
  7 13  1  0  0  0  0
  8 21  1  1  0  0  0
  8 15  1  0  0  0  0
  8  9  1  0  0  0  0
  9 13  1  0  0  0  0
 11 12  1  0  0  0  0
 11 25  1  0  0  0  0
 12  5  1  0  0  0  0
 14 24  1  0  0  0  0
 15  6  2  0  0  0  0
 16 18  2  0  0  0  0
 18 27  1  0  0  0  0
 19 21  1  1  0  0  0
 20  2  1  0  0  0  0
 22 23  1  0  0  0  0
 23 28  1  0  0  0  0
 23  3  2  0  0  0  0
 24 27  2  0  0  0  0
 25  4  2  0  0  0  0
 26  5  1  6  0  0  0
 26 20  1  0  0  0  0
 27  1  1  0  0  0  0
 28 10  1  6  0  0  0
 28 15  1  0  0  0  0
 29 17  1  6  0  0  0
 29 10  1  0  0  0  0
 29 19  1  0  0  0  0
 30 26  1  0  0  0  0
 31 16  1  0  0  0  0
 31 30  1  0  0  0  0
 32 14  2  0  0  0  0
 32 16  1  0  0  0  0
 33 39  1  1  0  0  0
 35 39  1  0  0  0  0
 36 38  1  6  0  0  0
 36 33  1  0  0  0  0
 37 36  1  0  0  0  0
 38 35  1  0  0  0  0
 40 34  1  6  0  0  0
 40 36  1  0  0  0  0
 40 33  1  0  0  0  0
 41 19  1  0  0  0  0
 41 34  1  1  0  0  0
 41 37  1  0  0  0  0
 43 47  1  6  0  0  0
 43 45  1  0  0  0  0
 43 48  1  0  0  0  0
 45 44  1  6  0  0  0
 45 48  1  0  0  0  0
 46 42  1  6  0  0  0
 46 44  1  0  0  0  0
 46 45  1  0  0  0  0
 48 25  1  0  0  0  0
 48 49  1  1  0  0  0
 49 50  1  0  0  0  0
 49 51  1  1  0  0  0
 52 46  1  0  0  0  0
 52 54  1  0  0  0  0
 53 52  2  0  0  0  0
 54 55  1  0  0  0  0
M  END
>  <MODEL>
1

>  <REMARK>
 VINA RESULT:      -7.7      0.000      0.000
  Name = 
  5 active torsions:
  status: ('A' for Active; 'I' for Inactive)
    1  A    between atoms: C_1  and  C_53
    2  A    between atoms: C_11  and  C_29
    3  A    between atoms: C_29  and  C_38
    4  A    between atoms: C_33  and  C_52
    5  A    between atoms: C_42  and  C_53
                            x       y       z     vdW  Elec       q    Type
                         _______ _______ _______ _____ _____    ______ ____

>  <TORSDO>
F 5

$$$$
=
 OpenBabel11052419273D

 55 64  0  0  1  0  0  0  0  0999 V2000
  189.0910  173.2150  140.7140 C   0  0  0  0  0  2  0  0  0  0  0  0
  194.9980  173.4860  140.5540 C   0  0  0  0  0  3  0  0  0  0  0  0
  193.6250  172.0080  142.6430 C   0  0  0  0  0  2  0  0  0  0  0  0
  194.7880  172.6960  137.6810 C   0  0  0  0  0  3  0  0  0  0  0  0
  195.5580  174.9970  137.0440 C   0  0  0  0  0  2  0  0  0  0  0  0
  193.0760  174.0500  145.1540 C   0  0  0  0  0  3  0  0  0  0  0  0
  193.4290  174.7500  146.4380 C   0  0  0  0  0  2  0  0  0  0  0  0
  191.6820  175.9740  144.3980 C   0  0  1  0  0  3  0  0  0  0  0  0
  192.2050  176.7330  145.6250 C   0  0  0  0  0  2  0  0  0  0  0  0
  191.2900  174.6410  141.9700 N   0  0  0  0  0  2  0  0  0  0  0  0
  196.6350  172.9950  136.2130 O   0  0  0  0  0  0  0  0  0  0  0  0
  196.8730  174.3380  136.6400 C   0  0  0  0  0  2  0  0  0  0  0  0
  192.3860  175.7910  146.8090 C   0  0  0  0  0  2  0  0  0  0  0  0
  189.5980  171.9220  137.1850 C   0  0  0  0  0  3  0  0  0  0  0  0
  192.3650  174.6350  144.1720 C   0  0  0  0  0  0  0  0  0  0  0  0
  191.3010  173.5900  137.6370 C   0  0  0  0  0  0  0  0  0  0  0  0
  189.1360  174.5600  141.1040 O   0  0  0  0  0  0  0  0  0  0  0  0
  190.7510  173.7880  138.9120 C   0  0  0  0  0  3  0  0  0  0  0  0
  189.4880  175.8220  143.1470 C   0  0  1  0  0  3  0  0  0  0  0  0
  195.6150  174.2660  139.4320 C   0  0  0  0  0  2  0  0  0  0  0  0
  190.1780  175.7670  144.5180 C   0  0  0  0  0  2  0  0  0  0  0  0
  193.9540  173.9710  141.2190 C   0  0  0  0  0  3  0  0  0  0  0  0
  193.2480  173.2320  142.2840 C   0  0  0  0  0  0  0  0  0  0  0  0
  189.0660  172.1120  138.4650 C   0  0  0  0  0  3  0  0  0  0  0  0
  195.6710  172.1750  136.8190 C   0  0  0  0  0  0  0  0  0  0  0  0
  194.8410  174.1500  138.1060 C   0  0  2  0  0  0  0  0  0  0  0  0
  189.6320  173.0550  139.3290 C   0  0  0  0  0  0  0  0  0  0  0  0
  192.0300  173.8320  142.9330 C   0  0  2  0  0  3  0  0  0  0  0  0
  189.8690  174.5870  142.2990 C   0  0  2  0  0  3  0  0  0  0  0  0
  193.4310  174.7220  138.2960 C   0  0  0  0  0  2  0  0  0  0  0  0
  192.4610  174.4130  137.1570 C   0  0  0  0  0  2  0  0  0  0  0  0
  190.7090  172.6640  136.7700 C   0  0  0  0  0  3  0  0  0  0  0  0
  186.8590  178.4310  144.6240 C   0  0  1  0  0  3  0  0  0  0  0  0
  187.5870  176.0600  144.8110 C   0  0  0  0  0  2  0  0  0  0  0  0
  184.9570  179.4230  143.5660 O   0  0  0  0  0  0  0  0  0  0  0  0
  186.4300  177.5710  143.4880 C   0  0  2  0  0  0  0  0  0  0  0  0
  187.4880  177.1230  142.6880 O   0  0  0  0  0  0  0  0  0  0  0  0
  185.2130  178.2180  142.8850 C   0  0  0  0  0  2  0  0  0  0  0  0
  185.6920  179.3790  144.7700 C   0  0  0  0  0  2  0  0  0  0  0  0
  186.4070  176.9900  144.8610 C   0  0  2  0  0  3  0  0  0  0  0  0
  187.9630  175.9610  143.3310 C   0  0  1  0  0  3  0  0  0  0  0  0
  192.1150  170.2050  135.1240 O   0  0  0  0  0  1  0  0  0  0  0  0
  194.8470  170.3250  135.1540 C   0  0  1  0  0  3  0  0  0  0  0  0
  193.2680  171.0030  136.9490 O   0  0  0  0  0  0  0  0  0  0  0  0
  194.2080  170.0010  136.5450 C   0  0  1  0  0  0  0  0  0  0  0  0
  192.7090  169.8880  136.3510 C   0  0  2  0  0  0  0  0  0  0  0  0
  194.3090  171.4610  134.5310 O   0  0  0  0  0  1  0  0  0  0  0  0
  195.5710  170.7190  136.4050 C   0  0  2  0  0  0  0  0  0  0  0  0
  196.7350  169.8000  136.7690 C   0  0  2  0  0  3  0  0  0  0  0  0
  196.3570  168.4620  136.6290 O   0  0  0  0  0  1  0  0  0  0  0  0
  197.2020  170.0480  138.1920 C   0  0  0  0  0  1  0  0  0  0  0  0
  191.8890  169.0980  137.3270 C   0  0  0  0  0  0  0  0  0  0  0  0
  191.2070  168.1670  136.9290 O   0  0  0  0  0  0  0  0  0  0  0  0
  191.8440  169.4790  138.7730 C   0  0  0  0  0  2  0  0  0  0  0  0
  190.6270  168.9790  139.3880 N   0  0  0  0  0  1  0  0  0  0  0  0
  1 17  1  0  0  0  0
  2 22  2  0  0  0  0
  4 26  1  0  0  0  0
  6  7  1  0  0  0  0
  7 13  1  0  0  0  0
  8 21  1  1  0  0  0
  8  9  1  0  0  0  0
  9 13  1  0  0  0  0
 10 29  1  0  0  0  0
 11 12  1  0  0  0  0
 11 25  1  0  0  0  0
 12  5  1  0  0  0  0
 14 24  1  0  0  0  0
 15  8  1  0  0  0  0
 15  6  2  0  0  0  0
 16 18  2  0  0  0  0
 18 27  1  0  0  0  0
 19 41  1  0  0  0  0
 19 21  1  1  0  0  0
 20  2  1  0  0  0  0
 22 23  1  0  0  0  0
 23  3  2  0  0  0  0
 23 28  1  0  0  0  0
 24 27  2  0  0  0  0
 25  4  2  0  0  0  0
 26  5  1  6  0  0  0
 26 30  1  0  0  0  0
 26 20  1  0  0  0  0
 27  1  1  0  0  0  0
 28 10  1  6  0  0  0
 28 15  1  0  0  0  0
 29 17  1  6  0  0  0
 29 19  1  0  0  0  0
 31 16  1  0  0  0  0
 31 30  1  0  0  0  0
 32 14  2  0  0  0  0
 32 16  1  0  0  0  0
 33 39  1  1  0  0  0
 33 40  1  0  0  0  0
 35 39  1  0  0  0  0
 36 38  1  6  0  0  0
 36 33  1  0  0  0  0
 36 40  1  0  0  0  0
 37 41  1  0  0  0  0
 37 36  1  0  0  0  0
 38 35  1  0  0  0  0
 40 34  1  6  0  0  0
 41 34  1  1  0  0  0
 43 47  1  6  0  0  0
 43 48  1  0  0  0  0
 43 45  1  0  0  0  0
 45 44  1  6  0  0  0
 46 42  1  6  0  0  0
 46 45  1  0  0  0  0
 46 44  1  0  0  0  0
 46 52  1  0  0  0  0
 48 45  1  0  0  0  0
 48 49  1  1  0  0  0
 48 25  1  0  0  0  0
 49 51  1  1  0  0  0
 50 49  1  0  0  0  0
 52 54  1  0  0  0  0
 53 52  2  0  0  0  0
 54 55  1  0  0  0  0
M  END
>  <MODEL>
2

>  <REMARK>
 VINA RESULT:      -7.4      1.651      2.049
  Name = 
  5 active torsions:
  status: ('A' for Active; 'I' for Inactive)
    1  A    between atoms: C_1  and  C_53
    2  A    between atoms: C_11  and  C_29
    3  A    between atoms: C_29  and  C_38
    4  A    between atoms: C_33  and  C_52
    5  A    between atoms: C_42  and  C_53
                            x       y       z     vdW  Elec       q    Type
                         _______ _______ _______ _____ _____    ______ ____

>  <TORSDO>
F 5

$$$$
=
 OpenBabel11052419273D

 55 64  0  0  1  0  0  0  0  0999 V2000
  189.1710  173.2140  142.0870 C   0  0  0  0  0  2  0  0  0  0  0  0
  194.9140  174.1960  143.1120 C   0  0  0  0  0  3  0  0  0  0  0  0
  193.2440  172.8830  145.0920 C   0  0  0  0  0  2  0  0  0  0  0  0
  195.4270  172.9710  140.4370 C   0  0  0  0  0  3  0  0  0  0  0  0
  196.1110  175.2310  139.5880 C   0  0  0  0  0  2  0  0  0  0  0  0
  191.9640  175.1890  147.0460 C   0  0  0  0  0  3  0  0  0  0  0  0
  191.9550  176.1100  148.2360 C   0  0  0  0  0  2  0  0  0  0  0  0
  190.6080  176.7900  145.7000 C   0  0  1  0  0  3  0  0  0  0  0  0
  190.7710  177.7810  146.8590 C   0  0  0  0  0  2  0  0  0  0  0  0
  190.8930  175.0750  143.5080 N   0  0  0  0  0  2  0  0  0  0  0  0
  197.5220  173.2780  139.3540 O   0  0  0  0  0  0  0  0  0  0  0  0
  197.5370  174.6880  139.5840 C   0  0  0  0  0  2  0  0  0  0  0  0
  190.7660  177.0550  148.1990 C   0  0  0  0  0  2  0  0  0  0  0  0
  190.5730  171.4870  139.0160 C   0  0  0  0  0  3  0  0  0  0  0  0
  191.4430  175.5290  145.8530 C   0  0  0  0  0  0  0  0  0  0  0  0
  191.9730  173.4050  139.5170 C   0  0  0  0  0  0  0  0  0  0  0  0
  189.0060  174.5980  142.2410 O   0  0  0  0  0  0  0  0  0  0  0  0
  191.1350  173.7180  140.5970 C   0  0  0  0  0  3  0  0  0  0  0  0
  188.7740  176.1810  144.0660 C   0  0  1  0  0  3  0  0  0  0  0  0
  195.6940  174.8730  142.0250 C   0  0  0  0  0  2  0  0  0  0  0  0
  189.1410  176.4160  145.5380 C   0  0  0  0  0  2  0  0  0  0  0  0
  193.7080  174.6390  143.4520 C   0  0  0  0  0  3  0  0  0  0  0  0
  192.8500  173.9840  144.4590 C   0  0  0  0  0  0  0  0  0  0  0  0
  189.7510  171.7960  140.1050 C   0  0  0  0  0  3  0  0  0  0  0  0
  196.5250  172.4430  139.8790 C   0  0  0  0  0  0  0  0  0  0  0  0
  195.2520  174.4660  140.6070 C   0  0  2  0  0  0  0  0  0  0  0  0
  190.0220  172.9210  140.8930 C   0  0  0  0  0  0  0  0  0  0  0  0
  191.4680  174.5150  144.7280 C   0  0  2  0  0  3  0  0  0  0  0  0
  189.4460  174.8920  143.5400 C   0  0  2  0  0  3  0  0  0  0  0  0
  193.7900  174.8790  140.3990 C   0  0  0  0  0  2  0  0  0  0  0  0
  193.1320  174.2860  139.1540 C   0  0  0  0  0  2  0  0  0  0  0  0
  191.6770  172.2930  138.7190 C   0  0  0  0  0  3  0  0  0  0  0  0
  185.6490  178.6010  144.5840 C   0  0  1  0  0  3  0  0  0  0  0  0
  186.5340  176.3730  145.2430 C   0  0  0  0  0  2  0  0  0  0  0  0
  183.9480  179.2290  143.0230 O   0  0  0  0  0  0  0  0  0  0  0  0
  185.5680  177.5730  143.5110 C   0  0  2  0  0  0  0  0  0  0  0  0
  186.8160  177.1700  143.0210 O   0  0  0  0  0  0  0  0  0  0  0  0
  184.4620  177.9950  142.5820 C   0  0  0  0  0  2  0  0  0  0  0  0
  184.3950  179.4110  144.3490 C   0  0  0  0  0  2  0  0  0  0  0  0
  185.2910  177.1530  144.9150 C   0  0  2  0  0  3  0  0  0  0  0  0
  187.2410  176.1530  143.9030 C   0  0  1  0  0  3  0  0  0  0  0  0
  193.4950  169.7710  138.1230 O   0  0  0  0  0  1  0  0  0  0  0  0
  196.1630  170.2650  138.4640 C   0  0  1  0  0  3  0  0  0  0  0  0
  194.2770  170.9890  139.9130 O   0  0  0  0  0  0  0  0  0  0  0  0
  195.3740  170.0740  139.8020 C   0  0  1  0  0  0  0  0  0  0  0  0
  193.9410  169.7290  139.4490 C   0  0  2  0  0  0  0  0  0  0  0  0
  195.5920  171.2090  137.5960 O   0  0  0  0  0  1  0  0  0  0  0  0
  196.6520  170.9400  139.7090 C   0  0  2  0  0  0  0  0  0  0  0  0
  197.8500  170.2550  140.3630 C   0  0  2  0  0  3  0  0  0  0  0  0
  197.8080  168.8780  140.1260 O   0  0  0  0  0  1  0  0  0  0  0  0
  197.8750  170.5100  141.8580 C   0  0  0  0  0  1  0  0  0  0  0  0
  193.0850  168.9940  140.4380 C   0  0  0  0  0  0  0  0  0  0  0  0
  192.2740  168.1720  140.0410 O   0  0  0  0  0  0  0  0  0  0  0  0
  193.1670  169.3040  141.8990 C   0  0  0  0  0  2  0  0  0  0  0  0
  192.2440  170.3710  142.2400 N   0  0  0  0  0  1  0  0  0  0  0  0
  1 17  1  0  0  0  0
  2 22  2  0  0  0  0
  4 26  1  0  0  0  0
  6  7  1  0  0  0  0
  8 21  1  1  0  0  0
  8 15  1  0  0  0  0
  8  9  1  0  0  0  0
  9 13  1  0  0  0  0
 10 29  1  0  0  0  0
 11 12  1  0  0  0  0
 11 25  1  0  0  0  0
 12  5  1  0  0  0  0
 13  7  1  0  0  0  0
 14 24  1  0  0  0  0
 15  6  2  0  0  0  0
 16 18  2  0  0  0  0
 18 27  1  0  0  0  0
 19 21  1  1  0  0  0
 20  2  1  0  0  0  0
 22 23  1  0  0  0  0
 23 28  1  0  0  0  0
 23  3  2  0  0  0  0
 24 27  2  0  0  0  0
 25  4  2  0  0  0  0
 26  5  1  6  0  0  0
 26 20  1  0  0  0  0
 27  1  1  0  0  0  0
 28 10  1  6  0  0  0
 28 15  1  0  0  0  0
 29 17  1  6  0  0  0
 29 19  1  0  0  0  0
 30 26  1  0  0  0  0
 31 16  1  0  0  0  0
 31 30  1  0  0  0  0
 32 14  2  0  0  0  0
 32 16  1  0  0  0  0
 33 39  1  6  0  0  0
 33 40  1  0  0  0  0
 35 39  1  0  0  0  0
 36 38  1  6  0  0  0
 36 33  1  0  0  0  0
 36 40  1  0  0  0  0
 37 36  1  0  0  0  0
 37 41  1  0  0  0  0
 38 35  1  0  0  0  0
 40 34  1  1  0  0  0
 41 19  1  0  0  0  0
 41 34  1  1  0  0  0
 43 47  1  6  0  0  0
 43 48  1  0  0  0  0
 43 45  1  0  0  0  0
 45 44  1  6  0  0  0
 46 42  1  6  0  0  0
 46 45  1  0  0  0  0
 46 44  1  0  0  0  0
 46 52  1  0  0  0  0
 48 45  1  0  0  0  0
 48 25  1  0  0  0  0
 48 49  1  1  0  0  0
 49 51  1  1  0  0  0
 50 49  1  0  0  0  0
 52 54  1  0  0  0  0
 53 52  2  0  0  0  0
 54 55  1  0  0  0  0
M  END
>  <MODEL>
3

>  <REMARK>
 VINA RESULT:      -6.8      1.720      2.214
  Name = 
  5 active torsions:
  status: ('A' for Active; 'I' for Inactive)
    1  A    between atoms: C_1  and  C_53
    2  A    between atoms: C_11  and  C_29
    3  A    between atoms: C_29  and  C_38
    4  A    between atoms: C_33  and  C_52
    5  A    between atoms: C_42  and  C_53
                            x       y       z     vdW  Elec       q    Type
                         _______ _______ _______ _____ _____    ______ ____

>  <TORSDO>
F 5

$$$$
=
 OpenBabel11052419273D

 55 64  0  0  1  0  0  0  0  0999 V2000
  193.4950  174.6380  142.3740 C   0  0  0  0  0  2  0  0  0  0  0  0
  187.5950  174.8690  142.0100 C   0  0  0  0  0  3  0  0  0  0  0  0
  188.9710  172.3430  142.4080 C   0  0  0  0  0  2  0  0  0  0  0  0
  187.7240  177.0580  144.0370 C   0  0  0  0  0  3  0  0  0  0  0  0
  187.0030  178.6770  142.2610 C   0  0  0  0  0  2  0  0  0  0  0  0
  189.6260  171.0550  139.4600 C   0  0  0  0  0  3  0  0  0  0  0  0
  189.3190  170.2350  138.2370 C   0  0  0  0  0  2  0  0  0  0  0  0
  191.0550  172.6190  138.1460 C   0  0  1  0  0  3  0  0  0  0  0  0
  190.5790  171.8750  136.8920 C   0  0  0  0  0  2  0  0  0  0  0  0
  191.3620  174.1660  140.4580 N   0  0  0  0  0  2  0  0  0  0  0  0
  185.8560  178.4880  144.3840 O   0  0  0  0  0  0  0  0  0  0  0  0
  185.6620  178.7250  142.9890 C   0  0  0  0  0  2  0  0  0  0  0  0
  190.3970  170.3900  137.1780 C   0  0  0  0  0  2  0  0  0  0  0  0
  192.8800  177.1740  145.1250 C   0  0  0  0  0  3  0  0  0  0  0  0
  190.3320  172.2000  139.4160 C   0  0  0  0  0  0  0  0  0  0  0  0
  191.2320  177.5300  143.3800 C   0  0  0  0  0  0  0  0  0  0  0  0
  193.4940  174.9100  140.9990 O   0  0  0  0  0  0  0  0  0  0  0  0
  191.8140  176.4920  142.6370 C   0  0  0  0  0  3  0  0  0  0  0  0
  193.2190  173.6740  138.9290 C   0  0  1  0  0  3  0  0  0  0  0  0
  186.9770  176.2200  141.8120 C   0  0  0  0  0  2  0  0  0  0  0  0
  192.5560  172.4270  138.3250 C   0  0  0  0  0  2  0  0  0  0  0  0
  188.6650  174.5080  141.3090 C   0  0  0  0  0  3  0  0  0  0  0  0
  189.3730  173.2260  141.4990 C   0  0  0  0  0  0  0  0  0  0  0  0
  193.4440  176.1290  144.3870 C   0  0  0  0  0  3  0  0  0  0  0  0
  186.8100  177.5790  144.8660 C   0  0  0  0  0  0  0  0  0  0  0  0
  187.7190  177.3490  142.5500 C   0  0  2  0  0  0  0  0  0  0  0  0
  192.9210  175.7910  143.1330 C   0  0  0  0  0  0  0  0  0  0  0  0
  190.6200  172.9330  140.7090 C   0  0  2  0  0  3  0  0  0  0  0  0
  192.7870  173.8560  140.4020 C   0  0  2  0  0  3  0  0  0  0  0  0
  189.1480  177.4520  142.0020 C   0  0  0  0  0  2  0  0  0  0  0  0
  190.0860  178.3280  142.8320 C   0  0  0  0  0  2  0  0  0  0  0  0
  191.7820  177.8780  144.6210 C   0  0  0  0  0  3  0  0  0  0  0  0
  195.9850  174.1160  136.0920 C   0  0  1  0  0  3  0  0  0  0  0  0
  195.1450  172.4900  137.7760 C   0  0  0  0  0  2  0  0  0  0  0  0
  197.9230  175.5180  136.0760 O   0  0  0  0  0  0  0  0  0  0  0  0
  196.3600  174.4430  137.4940 C   0  0  2  0  0  0  0  0  0  0  0  0
  195.2750  174.8050  138.3000 O   0  0  0  0  0  0  0  0  0  0  0  0
  197.6020  175.2910  137.4280 C   0  0  0  0  0  2  0  0  0  0  0  0
  197.1980  174.5750  135.3180 C   0  0  0  0  0  2  0  0  0  0  0  0
  196.3690  173.0120  137.0760 C   0  0  2  0  0  3  0  0  0  0  0  0
  194.7500  173.5830  138.7720 C   0  0  1  0  0  3  0  0  0  0  0  0
  190.4340  177.5250  147.3690 O   0  0  0  0  0  1  0  0  0  0  0  0
  187.7550  178.0650  147.2630 C   0  0  1  0  0  3  0  0  0  0  0  0
  189.0550  176.4940  145.8410 O   0  0  0  0  0  0  0  0  0  0  0  0
  188.1200  176.5810  146.9230 C   0  0  1  0  0  0  0  0  0  0  0  0
  189.6160  176.4200  147.1040 C   0  0  2  0  0  0  0  0  0  0  0  0
  188.4800  179.0130  146.5260 O   0  0  0  0  0  1  0  0  0  0  0  0
  186.8620  177.2780  146.3520 C   0  0  2  0  0  0  0  0  0  0  0  0
  185.5840  176.7700  147.0150 C   0  0  2  0  0  3  0  0  0  0  0  0
  184.8180  176.0460  146.0980 O   0  0  0  0  0  1  0  0  0  0  0  0
  184.7610  177.9210  147.5650 C   0  0  0  0  0  1  0  0  0  0  0  0
  190.1930  175.0600  147.3640 C   0  0  0  0  0  0  0  0  0  0  0  0
  191.0070  174.9120  148.2630 O   0  0  0  0  0  0  0  0  0  0  0  0
  189.8330  173.8960  146.4960 C   0  0  0  0  0  2  0  0  0  0  0  0
  190.7460  173.8060  145.3720 N   0  0  0  0  0  1  0  0  0  0  0  0
  1 27  1  0  0  0  0
  4 25  2  0  0  0  0
  5 26  1  0  0  0  0
  5 12  1  0  0  0  0
  7  6  1  0  0  0  0
  8  9  1  6  0  0  0
  8 21  1  0  0  0  0
  8 15  1  0  0  0  0
  9 13  1  0  0  0  0
 10 28  1  0  0  0  0
 11 25  1  0  0  0  0
 12 11  1  0  0  0  0
 13  7  1  0  0  0  0
 15  6  2  0  0  0  0
 16 32  2  0  0  0  0
 17  1  1  0  0  0  0
 18 27  2  0  0  0  0
 18 16  1  0  0  0  0
 19 21  1  1  0  0  0
 19 29  1  0  0  0  0
 20  2  1  0  0  0  0
 22 23  1  0  0  0  0
 22  2  2  0  0  0  0
 23  3  2  0  0  0  0
 24 14  2  0  0  0  0
 25 48  1  0  0  0  0
 26 20  1  6  0  0  0
 26  4  1  0  0  0  0
 27 24  1  0  0  0  0
 28 15  1  6  0  0  0
 28 23  1  0  0  0  0
 29 10  1  6  0  0  0
 29 17  1  0  0  0  0
 30 26  1  0  0  0  0
 30 31  1  0  0  0  0
 31 16  1  0  0  0  0
 32 14  1  0  0  0  0
 33 39  1  6  0  0  0
 33 40  1  0  0  0  0
 33 36  1  0  0  0  0
 35 38  1  0  0  0  0
 36 38  1  1  0  0  0
 36 37  1  0  0  0  0
 37 41  1  0  0  0  0
 39 35  1  0  0  0  0
 40 36  1  0  0  0  0
 40 34  1  1  0  0  0
 41 34  1  6  0  0  0
 41 19  1  0  0  0  0
 43 47  1  6  0  0  0
 44 46  1  0  0  0  0
 45 44  1  6  0  0  0
 45 46  1  0  0  0  0
 45 43  1  0  0  0  0
 46 52  1  0  0  0  0
 46 42  1  1  0  0  0
 48 45  1  0  0  0  0
 48 49  1  1  0  0  0
 48 43  1  0  0  0  0
 49 51  1  6  0  0  0
 50 49  1  0  0  0  0
 52 53  2  0  0  0  0
 54 52  1  0  0  0  0
 55 54  1  0  0  0  0
M  END
>  <MODEL>
4

>  <REMARK>
 VINA RESULT:      -6.5      2.928     10.725
  Name = 
  5 active torsions:
  status: ('A' for Active; 'I' for Inactive)
    1  A    between atoms: C_1  and  C_53
    2  A    between atoms: C_11  and  C_29
    3  A    between atoms: C_29  and  C_38
    4  A    between atoms: C_33  and  C_52
    5  A    between atoms: C_42  and  C_53
                            x       y       z     vdW  Elec       q    Type
                         _______ _______ _______ _____ _____    ______ ____

>  <TORSDO>
F 5

$$$$
=
 OpenBabel11052419273D

 55 64  0  0  1  0  0  0  0  0999 V2000
  191.5060  171.7370  139.1920 C   0  0  0  0  0  2  0  0  0  0  0  0
  192.7160  173.9790  144.5310 C   0  0  0  0  0  3  0  0  0  0  0  0
  194.5500  174.3360  142.3080 C   0  0  0  0  0  2  0  0  0  0  0  0
  189.9600  175.1290  144.4870 C   0  0  0  0  0  3  0  0  0  0  0  0
  189.3130  173.5180  146.2980 C   0  0  0  0  0  2  0  0  0  0  0  0
  196.6630  171.8240  142.3060 C   0  0  0  0  0  3  0  0  0  0  0  0
  197.9240  171.1090  142.7080 C   0  0  0  0  0  2  0  0  0  0  0  0
  195.4270  169.6720  142.0680 C   0  0  1  0  0  3  0  0  0  0  0  0
  196.6660  168.9860  142.6550 C   0  0  0  0  0  2  0  0  0  0  0  0
  193.1070  171.1470  141.5450 N   0  0  0  0  0  2  0  0  0  0  0  0
  188.9460  175.9020  146.4940 O   0  0  0  0  0  0  0  0  0  0  0  0
  189.2920  174.7270  147.2290 C   0  0  0  0  0  2  0  0  0  0  0  0
  197.9410  169.6800  142.1920 C   0  0  0  0  0  2  0  0  0  0  0  0
  188.3300  173.7550  139.6660 C   0  0  0  0  0  3  0  0  0  0  0  0
  195.4920  171.1900  142.1100 C   0  0  0  0  0  0  0  0  0  0  0  0
  189.0140  172.8920  141.8280 C   0  0  0  0  0  0  0  0  0  0  0  0
  191.7700  170.4850  139.7650 O   0  0  0  0  0  0  0  0  0  0  0  0
  190.1000  172.2510  141.2150 C   0  0  0  0  0  3  0  0  0  0  0  0
  193.7130  169.1280  140.2860 C   0  0  1  0  0  3  0  0  0  0  0  0
  191.7040  173.7490  145.6120 C   0  0  0  0  0  2  0  0  0  0  0  0
  195.2070  169.2100  140.6330 C   0  0  0  0  0  2  0  0  0  0  0  0
  193.0690  172.9900  143.7160 C   0  0  0  0  0  3  0  0  0  0  0  0
  194.0020  173.1570  142.5840 C   0  0  0  0  0  0  0  0  0  0  0  0
  189.4260  173.1270  139.0630 C   0  0  0  0  0  3  0  0  0  0  0  0
  189.3810  176.1200  145.1780 C   0  0  0  0  0  0  0  0  0  0  0  0
  190.2490  173.7770  145.1080 C   0  0  2  0  0  0  0  0  0  0  0  0
  190.3080  172.3610  139.8340 C   0  0  0  0  0  0  0  0  0  0  0  0
  194.2880  171.9970  141.6700 C   0  0  2  0  0  3  0  0  0  0  0  0
  193.0970  170.5440  140.2150 C   0  0  2  0  0  3  0  0  0  0  0  0
  190.0480  172.6470  144.0910 C   0  0  0  0  0  2  0  0  0  0  0  0
  188.7470  172.7310  143.2960 C   0  0  0  0  0  2  0  0  0  0  0  0
  188.1210  173.6320  141.0430 C   0  0  0  0  0  3  0  0  0  0  0  0
  192.1550  169.6550  136.6540 C   0  0  1  0  0  3  0  0  0  0  0  0
  192.0360  168.1660  138.6430 C   0  0  0  0  0  2  0  0  0  0  0  0
  193.1780  169.3550  134.5130 O   0  0  0  0  0  0  0  0  0  0  0  0
  193.3130  168.7310  136.7930 C   0  0  2  0  0  0  0  0  0  0  0  0
  194.1290  169.0090  137.8950 O   0  0  0  0  0  0  0  0  0  0  0  0
  193.8930  168.5470  135.4160 C   0  0  0  0  0  2  0  0  0  0  0  0
  191.9790  169.7290  135.1560 C   0  0  0  0  0  2  0  0  0  0  0  0
  191.9560  168.2200  137.1420 C   0  0  2  0  0  3  0  0  0  0  0  0
  193.5200  168.3380  138.9770 C   0  0  1  0  0  3  0  0  0  0  0  0
  185.4060  177.9460  144.6660 O   0  0  0  0  0  1  0  0  0  0  0  0
  188.0720  178.3900  145.0840 C   0  0  1  0  0  3  0  0  0  0  0  0
  187.0010  176.4300  143.9920 O   0  0  0  0  0  0  0  0  0  0  0  0
  187.7530  177.6260  143.7550 C   0  0  1  0  0  0  0  0  0  0  0  0
  186.2460  177.5310  143.6270 C   0  0  2  0  0  0  0  0  0  0  0  0
  187.4810  177.8220  146.2230 O   0  0  0  0  0  1  0  0  0  0  0  0
  189.0910  177.4520  144.5120 C   0  0  2  0  0  0  0  0  0  0  0  0
  190.2440  178.1470  143.7910 C   0  0  2  0  0  3  0  0  0  0  0  0
  190.4440  177.5730  142.5330 O   0  0  0  0  0  1  0  0  0  0  0  0
  191.5260  178.0550  144.5980 C   0  0  0  0  0  1  0  0  0  0  0  0
  185.6240  177.3410  142.2750 C   0  0  0  0  0  0  0  0  0  0  0  0
  186.2330  176.7290  141.4110 O   0  0  0  0  0  0  0  0  0  0  0  0
  184.2960  177.9480  141.9510 C   0  0  0  0  0  2  0  0  0  0  0  0
  184.2830  178.4270  140.5810 N   0  0  0  0  0  1  0  0  0  0  0  0
  1 17  1  0  0  0  0
  1 27  1  0  0  0  0
  2 20  1  0  0  0  0
  3 23  2  0  0  0  0
  4 26  1  0  0  0  0
  4 25  2  0  0  0  0
  5 12  1  0  0  0  0
  6  7  1  0  0  0  0
  8 21  1  6  0  0  0
  8 15  1  0  0  0  0
  8  9  1  0  0  0  0
 11 12  1  0  0  0  0
 13  9  1  0  0  0  0
 13  7  1  0  0  0  0
 14 32  1  0  0  0  0
 15  6  2  0  0  0  0
 16 31  1  0  0  0  0
 18 16  1  0  0  0  0
 19 21  1  6  0  0  0
 22  2  2  0  0  0  0
 23 22  1  0  0  0  0
 24 14  2  0  0  0  0
 24 27  1  0  0  0  0
 25 11  1  0  0  0  0
 26 30  1  6  0  0  0
 26 20  1  0  0  0  0
 26  5  1  0  0  0  0
 27 18  2  0  0  0  0
 28 10  1  1  0  0  0
 28 15  1  0  0  0  0
 28 23  1  0  0  0  0
 29 17  1  1  0  0  0
 29 19  1  0  0  0  0
 29 10  1  0  0  0  0
 31 30  1  0  0  0  0
 32 16  2  0  0  0  0
 33 39  1  6  0  0  0
 33 36  1  0  0  0  0
 33 40  1  0  0  0  0
 35 39  1  0  0  0  0
 35 38  1  0  0  0  0
 36 38  1  6  0  0  0
 36 40  1  0  0  0  0
 36 37  1  0  0  0  0
 37 41  1  0  0  0  0
 40 34  1  1  0  0  0
 41 34  1  6  0  0  0
 41 19  1  0  0  0  0
 43 47  1  1  0  0  0
 45 44  1  1  0  0  0
 45 48  1  0  0  0  0
 45 43  1  0  0  0  0
 46 45  1  0  0  0  0
 46 44  1  0  0  0  0
 46 42  1  1  0  0  0
 48 49  1  6  0  0  0
 48 43  1  0  0  0  0
 48 25  1  0  0  0  0
 49 51  1  1  0  0  0
 50 49  1  0  0  0  0
 52 46  1  0  0  0  0
 53 52  2  0  0  0  0
 54 52  1  0  0  0  0
 55 54  1  0  0  0  0
M  END
>  <MODEL>
5

>  <REMARK>
 VINA RESULT:      -6.0      2.160      9.986
  Name = 
  5 active torsions:
  status: ('A' for Active; 'I' for Inactive)
    1  A    between atoms: C_1  and  C_53
    2  A    between atoms: C_11  and  C_29
    3  A    between atoms: C_29  and  C_38
    4  A    between atoms: C_33  and  C_52
    5  A    between atoms: C_42  and  C_53
                            x       y       z     vdW  Elec       q    Type
                         _______ _______ _______ _____ _____    ______ ____

>  <TORSDO>
F 5

$$$$
=
 OpenBabel11052419273D

 55 64  0  0  1  0  0  0  0  0999 V2000
  193.2420  174.3810  142.5990 C   0  0  0  0  0  2  0  0  0  0  0  0
  187.4470  175.0520  141.6140 C   0  0  0  0  0  3  0  0  0  0  0  0
  188.5990  172.4190  142.0300 C   0  0  0  0  0  2  0  0  0  0  0  0
  187.4970  177.1380  143.7520 C   0  0  0  0  0  3  0  0  0  0  0  0
  187.0880  178.8790  141.9940 C   0  0  0  0  0  2  0  0  0  0  0  0
  189.4880  171.2150  139.1080 C   0  0  0  0  0  3  0  0  0  0  0  0
  189.2640  170.4730  137.8190 C   0  0  0  0  0  2  0  0  0  0  0  0
  191.1560  172.7270  138.0360 C   0  0  1  0  0  3  0  0  0  0  0  0
  190.7730  172.0740  136.7020 C   0  0  0  0  0  2  0  0  0  0  0  0
  191.3070  174.1470  140.4430 N   0  0  0  0  0  2  0  0  0  0  0  0
  185.7020  178.6820  143.9680 O   0  0  0  0  0  0  0  0  0  0  0  0
  185.6810  178.9920  142.5740 C   0  0  0  0  0  2  0  0  0  0  0  0
  190.4610  170.5950  136.8910 C   0  0  0  0  0  2  0  0  0  0  0  0
  192.4970  176.8340  145.3940 C   0  0  0  0  0  3  0  0  0  0  0  0
  190.2700  172.3070  139.1980 C   0  0  0  0  0  0  0  0  0  0  0  0
  191.0800  177.3830  143.5010 C   0  0  0  0  0  0  0  0  0  0  0  0
  193.4110  174.7110  141.2480 O   0  0  0  0  0  0  0  0  0  0  0  0
  191.6700  176.3390  142.7740 C   0  0  0  0  0  3  0  0  0  0  0  0
  193.2850  173.5880  139.1000 C   0  0  1  0  0  3  0  0  0  0  0  0
  186.9470  176.4520  141.4200 C   0  0  0  0  0  2  0  0  0  0  0  0
  192.6110  172.4200  138.3660 C   0  0  0  0  0  2  0  0  0  0  0  0
  188.5620  174.6450  141.0150 C   0  0  0  0  0  3  0  0  0  0  0  0
  189.1570  173.3090  141.2150 C   0  0  0  0  0  0  0  0  0  0  0  0
  193.0680  175.7830  144.6680 C   0  0  0  0  0  3  0  0  0  0  0  0
  186.5330  177.6870  144.5030 C   0  0  0  0  0  0  0  0  0  0  0  0
  187.6770  177.4920  142.2900 C   0  0  2  0  0  0  0  0  0  0  0  0
  192.6650  175.5390  143.3500 C   0  0  0  0  0  0  0  0  0  0  0  0
  190.4610  172.9610  140.5510 C   0  0  2  0  0  3  0  0  0  0  0  0
  192.7060  173.7380  140.5250 C   0  0  2  0  0  3  0  0  0  0  0  0
  189.1610  177.5150  141.9040 C   0  0  0  0  0  2  0  0  0  0  0  0
  190.0580  178.2840  142.8740 C   0  0  0  0  0  2  0  0  0  0  0  0
  191.5110  177.6360  144.8100 C   0  0  0  0  0  3  0  0  0  0  0  0
  196.2920  173.4420  141.7140 C   0  0  1  0  0  3  0  0  0  0  0  0
  195.5310  174.6260  139.6630 C   0  0  0  0  0  2  0  0  0  0  0  0
  197.9330  171.7320  142.0350 O   0  0  0  0  0  0  0  0  0  0  0  0
  196.4070  172.6370  140.4680 C   0  0  2  0  0  0  0  0  0  0  0  0
  195.1730  172.2890  139.9040 O   0  0  0  0  0  0  0  0  0  0  0  0
  197.4750  171.6050  140.7100 C   0  0  0  0  0  2  0  0  0  0  0  0
  197.4990  172.9910  142.5020 C   0  0  0  0  0  2  0  0  0  0  0  0
  196.7280  174.0910  140.4000 C   0  0  2  0  0  3  0  0  0  0  0  0
  194.8140  173.3940  139.1050 C   0  0  1  0  0  3  0  0  0  0  0  0
  189.8500  177.2070  147.3620 O   0  0  0  0  0  1  0  0  0  0  0  0
  187.2520  177.9840  147.0080 C   0  0  1  0  0  3  0  0  0  0  0  0
  188.5630  176.3680  145.6480 O   0  0  0  0  0  0  0  0  0  0  0  0
  187.5270  176.4900  146.6310 C   0  0  1  0  0  0  0  0  0  0  0  0
  188.9770  176.1910  146.9570 C   0  0  2  0  0  0  0  0  0  0  0  0
  188.1280  178.8960  146.4000 O   0  0  0  0  0  1  0  0  0  0  0  0
  186.4000  177.3190  145.9700 C   0  0  2  0  0  0  0  0  0  0  0  0
  185.0200  176.8980  146.4690 C   0  0  2  0  0  3  0  0  0  0  0  0
  184.0770  177.8840  146.1720 O   0  0  0  0  0  1  0  0  0  0  0  0
  185.0360  176.6460  147.9660 C   0  0  0  0  0  1  0  0  0  0  0  0
  189.4080  174.7760  147.2050 C   0  0  0  0  0  0  0  0  0  0  0  0
  188.9230  174.1510  148.1360 O   0  0  0  0  0  0  0  0  0  0  0  0
  190.4720  174.1410  146.3670 C   0  0  0  0  0  2  0  0  0  0  0  0
  189.8770  173.4420  145.2420 N   0  0  0  0  0  1  0  0  0  0  0  0
  1 27  1  0  0  0  0
  4 25  2  0  0  0  0
  5 26  1  0  0  0  0
  5 12  1  0  0  0  0
  6 15  2  0  0  0  0
  7  6  1  0  0  0  0
  8  9  1  6  0  0  0
  8 21  1  0  0  0  0
  8 15  1  0  0  0  0
  9 13  1  0  0  0  0
 10 28  1  0  0  0  0
 11 25  1  0  0  0  0
 12 11  1  0  0  0  0
 13  7  1  0  0  0  0
 16 32  2  0  0  0  0
 17  1  1  0  0  0  0
 18 27  2  0  0  0  0
 18 16  1  0  0  0  0
 19 21  1  1  0  0  0
 19 41  1  0  0  0  0
 19 29  1  0  0  0  0
 20  2  1  0  0  0  0
 22 23  1  0  0  0  0
 22  2  2  0  0  0  0
 23  3  2  0  0  0  0
 24 14  2  0  0  0  0
 25 48  1  0  0  0  0
 26 20  1  6  0  0  0
 26  4  1  0  0  0  0
 27 24  1  0  0  0  0
 28 15  1  6  0  0  0
 28 23  1  0  0  0  0
 29 10  1  6  0  0  0
 29 17  1  0  0  0  0
 30 26  1  0  0  0  0
 30 31  1  0  0  0  0
 31 16  1  0  0  0  0
 32 14  1  0  0  0  0
 33 39  1  1  0  0  0
 35 39  1  0  0  0  0
 36 38  1  6  0  0  0
 36 33  1  0  0  0  0
 37 36  1  0  0  0  0
 38 35  1  0  0  0  0
 40 34  1  6  0  0  0
 40 36  1  0  0  0  0
 40 33  1  0  0  0  0
 41 34  1  1  0  0  0
 41 37  1  0  0  0  0
 43 47  1  6  0  0  0
 44 46  1  0  0  0  0
 45 44  1  6  0  0  0
 45 46  1  0  0  0  0
 45 43  1  0  0  0  0
 46 52  1  0  0  0  0
 46 42  1  1  0  0  0
 48 49  1  1  0  0  0
 48 45  1  0  0  0  0
 48 43  1  0  0  0  0
 49 51  1  1  0  0  0
 50 49  1  0  0  0  0
 52 53  2  0  0  0  0
 54 52  1  0  0  0  0
 55 54  1  0  0  0  0
M  END
>  <MODEL>
6

>  <REMARK>
 VINA RESULT:      -5.5      2.600     10.556
  Name = 
  5 active torsions:
  status: ('A' for Active; 'I' for Inactive)
    1  A    between atoms: C_1  and  C_53
    2  A    between atoms: C_11  and  C_29
    3  A    between atoms: C_29  and  C_38
    4  A    between atoms: C_33  and  C_52
    5  A    between atoms: C_42  and  C_53
                            x       y       z     vdW  Elec       q    Type
                         _______ _______ _______ _____ _____    ______ ____

>  <TORSDO>
F 5

$$$$
=
 OpenBabel11052419273D

 55 64  0  0  1  0  0  0  0  0999 V2000
  189.5210  172.8450  140.3950 C   0  0  0  0  0  2  0  0  0  0  0  0
  192.8560  174.5230  144.9850 C   0  0  0  0  0  3  0  0  0  0  0  0
  190.2080  173.4010  145.3900 C   0  0  0  0  0  2  0  0  0  0  0  0
  195.0590  172.9280  143.7500 C   0  0  0  0  0  3  0  0  0  0  0  0
  196.2590  175.0720  143.2430 C   0  0  0  0  0  2  0  0  0  0  0  0
  188.0390  175.8640  145.3930 C   0  0  0  0  0  3  0  0  0  0  0  0
  187.2310  176.9630  146.0290 C   0  0  0  0  0  2  0  0  0  0  0  0
  188.1350  177.0860  143.2220 C   0  0  1  0  0  3  0  0  0  0  0  0
  187.4730  178.2650  143.9470 C   0  0  0  0  0  2  0  0  0  0  0  0
  189.8080  175.0680  142.2440 N   0  0  0  0  0  2  0  0  0  0  0  0
  197.3110  173.2510  144.4410 O   0  0  0  0  0  0  0  0  0  0  0  0
  197.2300  174.6750  144.3510 C   0  0  0  0  0  2  0  0  0  0  0  0
  186.4760  177.7720  144.9880 C   0  0  0  0  0  2  0  0  0  0  0  0
  192.6020  170.7780  139.6110 C   0  0  0  0  0  3  0  0  0  0  0  0
  188.5430  175.9520  144.1480 C   0  0  0  0  0  0  0  0  0  0  0  0
  193.3230  172.8750  140.5960 C   0  0  0  0  0  0  0  0  0  0  0  0
  189.3680  174.2130  140.1300 O   0  0  0  0  0  0  0  0  0  0  0  0
  191.9830  173.2810  140.6800 C   0  0  0  0  0  3  0  0  0  0  0  0
  187.9870  176.0460  140.9200 C   0  0  1  0  0  3  0  0  0  0  0  0
  194.2110  175.0830  144.6730 C   0  0  0  0  0  2  0  0  0  0  0  0
  187.2040  176.5530  142.1400 C   0  0  0  0  0  2  0  0  0  0  0  0
  191.7930  174.8990  144.2810 C   0  0  0  0  0  3  0  0  0  0  0  0
  190.4410  174.3390  144.4780 C   0  0  0  0  0  0  0  0  0  0  0  0
  191.2670  171.1820  139.7150 C   0  0  0  0  0  3  0  0  0  0  0  0
  196.1960  172.4220  144.2440 C   0  0  0  0  0  0  0  0  0  0  0  0
  194.8920  174.4080  143.4680 C   0  0  2  0  0  0  0  0  0  0  0  0
  190.9520  172.4420  140.2380 C   0  0  0  0  0  0  0  0  0  0  0  0
  189.3110  174.7740  143.5850 C   0  0  2  0  0  3  0  0  0  0  0  0
  188.7640  174.7570  141.2730 C   0  0  2  0  0  3  0  0  0  0  0  0
  194.0400  174.6410  142.2150 C   0  0  0  0  0  2  0  0  0  0  0  0
  194.4380  173.7910  141.0090 C   0  0  0  0  0  2  0  0  0  0  0  0
  193.6280  171.6250  140.0440 C   0  0  0  0  0  3  0  0  0  0  0  0
  187.5970  177.2510  137.1400 C   0  0  1  0  0  3  0  0  0  0  0  0
  186.3800  177.1670  139.3070 C   0  0  0  0  0  2  0  0  0  0  0  0
  187.3770  175.9410  135.1500 O   0  0  0  0  0  0  0  0  0  0  0  0
  187.0890  175.9000  137.5000 C   0  0  2  0  0  0  0  0  0  0  0  0
  187.7260  175.3350  138.6110 O   0  0  0  0  0  0  0  0  0  0  0  0
  186.9330  175.1340  136.2140 C   0  0  0  0  0  2  0  0  0  0  0  0
  187.4410  177.2640  135.6370 C   0  0  0  0  0  2  0  0  0  0  0  0
  186.2350  177.0820  137.8130 C   0  0  2  0  0  3  0  0  0  0  0  0
  187.0300  175.8460  139.7280 C   0  0  1  0  0  3  0  0  0  0  0  0
  195.0410  169.2200  141.4490 O   0  0  0  0  0  1  0  0  0  0  0  0
  196.7840  170.0090  143.4030 C   0  0  1  0  0  3  0  0  0  0  0  0
  194.4570  170.7950  143.0230 O   0  0  0  0  0  0  0  0  0  0  0  0
  195.2870  169.9790  143.8580 C   0  0  1  0  0  0  0  0  0  0  0  0
  194.4620  169.4490  142.7030 C   0  0  2  0  0  0  0  0  0  0  0  0
  197.0060  170.7320  142.2210 O   0  0  0  0  0  1  0  0  0  0  0  0
  196.3280  170.9310  144.4930 C   0  0  2  0  0  0  0  0  0  0  0  0
  196.7240  170.4820  145.8970 C   0  0  2  0  0  3  0  0  0  0  0  0
  197.8520  169.6600  145.8420 O   0  0  0  0  0  1  0  0  0  0  0  0
  195.5870  169.7370  146.5720 C   0  0  0  0  0  1  0  0  0  0  0  0
  193.1260  168.8200  142.9670 C   0  0  0  0  0  0  0  0  0  0  0  0
  192.6870  168.7940  144.1070 O   0  0  0  0  0  0  0  0  0  0  0  0
  192.3560  168.1660  141.8650 C   0  0  0  0  0  2  0  0  0  0  0  0
  190.9380  168.4410  142.0100 N   0  0  0  0  0  1  0  0  0  0  0  0
  4 25  2  0  0  0  0
  5 26  1  0  0  0  0
  5 12  1  0  0  0  0
  6  7  1  0  0  0  0
  8 21  1  6  0  0  0
  8  9  1  0  0  0  0
  8 15  1  0  0  0  0
  9 13  1  0  0  0  0
 12 11  1  0  0  0  0
 13  7  1  0  0  0  0
 14 24  2  0  0  0  0
 14 32  1  0  0  0  0
 15  6  2  0  0  0  0
 16 18  1  0  0  0  0
 16 31  1  0  0  0  0
 17  1  1  0  0  0  0
 19 29  1  0  0  0  0
 19 21  1  1  0  0  0
 20  2  1  0  0  0  0
 22 23  1  0  0  0  0
 22  2  2  0  0  0  0
 23  3  2  0  0  0  0
 24 27  1  0  0  0  0
 25 11  1  0  0  0  0
 25 48  1  0  0  0  0
 26 30  1  6  0  0  0
 26  4  1  0  0  0  0
 26 20  1  0  0  0  0
 27  1  1  0  0  0  0
 27 18  2  0  0  0  0
 28 10  1  6  0  0  0
 28 15  1  0  0  0  0
 28 23  1  0  0  0  0
 29 17  1  6  0  0  0
 29 10  1  0  0  0  0
 31 30  1  0  0  0  0
 32 16  2  0  0  0  0
 33 39  1  6  0  0  0
 33 36  1  0  0  0  0
 33 40  1  0  0  0  0
 35 39  1  0  0  0  0
 35 38  1  0  0  0  0
 36 38  1  6  0  0  0
 36 40  1  0  0  0  0
 36 37  1  0  0  0  0
 37 41  1  0  0  0  0
 40 34  1  1  0  0  0
 41 34  1  6  0  0  0
 41 19  1  0  0  0  0
 43 47  1  6  0  0  0
 43 45  1  0  0  0  0
 43 48  1  0  0  0  0
 45 44  1  6  0  0  0
 45 48  1  0  0  0  0
 46 42  1  6  0  0  0
 46 52  1  0  0  0  0
 46 44  1  0  0  0  0
 46 45  1  0  0  0  0
 48 49  1  1  0  0  0
 49 51  1  6  0  0  0
 50 49  1  0  0  0  0
 52 53  2  0  0  0  0
 54 55  1  0  0  0  0
 54 52  1  0  0  0  0
M  END
>  <MODEL>
7

>  <REMARK>
 VINA RESULT:      -5.1      3.120      5.260
  Name = 
  5 active torsions:
  status: ('A' for Active; 'I' for Inactive)
    1  A    between atoms: C_1  and  C_53
    2  A    between atoms: C_11  and  C_29
    3  A    between atoms: C_29  and  C_38
    4  A    between atoms: C_33  and  C_52
    5  A    between atoms: C_42  and  C_53
                            x       y       z     vdW  Elec       q    Type
                         _______ _______ _______ _____ _____    ______ ____

>  <TORSDO>
F 5

$$$$
=
 OpenBabel11052419273D

 55 64  0  0  1  0  0  0  0  0999 V2000
  191.6390  176.6140  143.1680 C   0  0  0  0  0  2  0  0  0  0  0  0
  192.7970  171.0730  141.4460 C   0  0  0  0  0  3  0  0  0  0  0  0
  193.0460  173.2980  139.5960 C   0  0  0  0  0  2  0  0  0  0  0  0
  194.5200  170.8580  143.8770 C   0  0  0  0  0  3  0  0  0  0  0  0
  192.8560  169.2550  144.8540 C   0  0  0  0  0  2  0  0  0  0  0  0
  190.1560  173.7160  138.0990 C   0  0  0  0  0  3  0  0  0  0  0  0
  189.1310  173.4610  137.0260 C   0  0  0  0  0  2  0  0  0  0  0  0
  188.3830  174.1920  139.7860 C   0  0  1  0  0  3  0  0  0  0  0  0
  187.3660  173.7500  138.7260 C   0  0  0  0  0  2  0  0  0  0  0  0
  190.3910  174.4240  141.7210 N   0  0  0  0  0  2  0  0  0  0  0  0
  195.2120  168.7280  144.6760 O   0  0  0  0  0  0  0  0  0  0  0  0
  193.8990  168.1710  144.5970 C   0  0  0  0  0  2  0  0  0  0  0  0
  187.8190  174.1640  137.3320 C   0  0  0  0  0  2  0  0  0  0  0  0
  194.2210  175.7530  145.8090 C   0  0  0  0  0  3  0  0  0  0  0  0
  189.8290  173.9500  139.3830 C   0  0  0  0  0  0  0  0  0  0  0  0
  192.9380  173.7530  145.3190 C   0  0  0  0  0  0  0  0  0  0  0  0
  190.2930  176.2240  143.1860 O   0  0  0  0  0  0  0  0  0  0  0  0
  192.1640  174.4880  144.4080 C   0  0  0  0  0  3  0  0  0  0  0  0
  188.4830  175.9630  141.5910 C   0  0  1  0  0  3  0  0  0  0  0  0
  192.6470  169.9940  142.4760 C   0  0  0  0  0  2  0  0  0  0  0  0
  188.1840  175.6660  140.1140 C   0  0  0  0  0  2  0  0  0  0  0  0
  191.8770  172.0260  141.3300 C   0  0  0  0  0  3  0  0  0  0  0  0
  191.9900  173.1610  140.3920 C   0  0  0  0  0  0  0  0  0  0  0  0
  193.4570  176.4750  144.8860 C   0  0  0  0  0  3  0  0  0  0  0  0
  195.5080  170.0190  144.2140 C   0  0  0  0  0  0  0  0  0  0  0  0
  193.0650  170.4340  143.8920 C   0  0  2  0  0  0  0  0  0  0  0  0
  192.4170  175.8490  144.1910 C   0  0  0  0  0  0  0  0  0  0  0  0
  190.9340  174.2320  140.3800 C   0  0  2  0  0  3  0  0  0  0  0  0
  189.9950  175.8200  141.8760 C   0  0  2  0  0  3  0  0  0  0  0  0
  192.1590  171.5840  144.3480 C   0  0  0  0  0  2  0  0  0  0  0  0
  192.6370  172.3110  145.6040 C   0  0  0  0  0  2  0  0  0  0  0  0
  193.9580  174.3970  146.0290 C   0  0  0  0  0  3  0  0  0  0  0  0
  185.1310  177.6220  142.9730 C   0  0  1  0  0  3  0  0  0  0  0  0
  186.7500  177.7490  141.0900 C   0  0  0  0  0  2  0  0  0  0  0  0
  184.8160  179.0240  144.8850 O   0  0  0  0  0  0  0  0  0  0  0  0
  186.4270  178.2620  143.3270 C   0  0  2  0  0  0  0  0  0  0  0  0
  187.5150  177.3810  143.3100 O   0  0  0  0  0  0  0  0  0  0  0  0
  186.1650  179.1590  144.5070 C   0  0  0  0  0  2  0  0  0  0  0  0
  184.1460  178.4060  143.8090 C   0  0  0  0  0  2  0  0  0  0  0  0
  185.8420  178.5460  141.9850 C   0  0  2  0  0  3  0  0  0  0  0  0
  187.9430  177.3580  141.9660 C   0  0  1  0  0  3  0  0  0  0  0  0
  197.0310  173.7340  146.0260 O   0  0  0  0  0  1  0  0  0  0  0  0
  197.5600  171.1200  145.4190 C   0  0  1  0  0  3  0  0  0  0  0  0
  195.9610  172.6560  144.2960 O   0  0  0  0  0  0  0  0  0  0  0  0
  197.2340  172.0100  144.1730 C   0  0  1  0  0  0  0  0  0  0  0  0
  197.0470  173.4340  144.6580 C   0  0  2  0  0  0  0  0  0  0  0  0
  196.6080  171.2060  146.4460 O   0  0  0  0  0  1  0  0  0  0  0  0
  196.9510  170.4890  144.2040 C   0  0  2  0  0  0  0  0  0  0  0  0
  197.9410  169.7120  143.3400 C   0  0  2  0  0  3  0  0  0  0  0  0
  197.6500  169.8950  141.9860 O   0  0  0  0  0  1  0  0  0  0  0  0
  197.9060  168.2310  143.6700 C   0  0  0  0  0  1  0  0  0  0  0  0
  197.2410  174.5770  143.7070 C   0  0  0  0  0  0  0  0  0  0  0  0
  196.8150  175.6840  143.9980 O   0  0  0  0  0  0  0  0  0  0  0  0
  197.8920  174.3640  142.3770 C   0  0  0  0  0  2  0  0  0  0  0  0
  196.8890  174.3100  141.3280 N   0  0  0  0  0  1  0  0  0  0  0  0
  1 17  1  0  0  0  0
  1 27  1  0  0  0  0
  2 20  1  0  0  0  0
  3 23  2  0  0  0  0
  4 26  1  0  0  0  0
  4 25  2  0  0  0  0
  6 15  2  0  0  0  0
  7 13  1  0  0  0  0
  7  6  1  0  0  0  0
  8  9  1  6  0  0  0
  8 21  1  0  0  0  0
 12 11  1  0  0  0  0
 12  5  1  0  0  0  0
 13  9  1  0  0  0  0
 14 32  1  0  0  0  0
 15  8  1  0  0  0  0
 16 31  1  0  0  0  0
 16 32  2  0  0  0  0
 18 16  1  0  0  0  0
 19 21  1  6  0  0  0
 19 29  1  0  0  0  0
 19 41  1  0  0  0  0
 22  2  2  0  0  0  0
 23 22  1  0  0  0  0
 24 14  2  0  0  0  0
 25 11  1  0  0  0  0
 26 20  1  6  0  0  0
 26 30  1  0  0  0  0
 26  5  1  0  0  0  0
 27 18  2  0  0  0  0
 27 24  1  0  0  0  0
 28 15  1  6  0  0  0
 28 23  1  0  0  0  0
 28 10  1  0  0  0  0
 29 10  1  1  0  0  0
 29 17  1  0  0  0  0
 30 31  1  0  0  0  0
 33 36  1  0  0  0  0
 33 39  1  1  0  0  0
 36 38  1  1  0  0  0
 37 36  1  0  0  0  0
 38 35  1  0  0  0  0
 39 35  1  0  0  0  0
 40 34  1  6  0  0  0
 40 33  1  0  0  0  0
 40 36  1  0  0  0  0
 41 34  1  6  0  0  0
 41 37  1  0  0  0  0
 43 47  1  1  0  0  0
 44 46  1  0  0  0  0
 45 48  1  0  0  0  0
 45 44  1  1  0  0  0
 45 46  1  0  0  0  0
 45 43  1  0  0  0  0
 46 42  1  1  0  0  0
 48 49  1  6  0  0  0
 48 25  1  0  0  0  0
 48 43  1  0  0  0  0
 49 51  1  1  0  0  0
 50 49  1  0  0  0  0
 52 53  2  0  0  0  0
 52 46  1  0  0  0  0
 54 52  1  0  0  0  0
 55 54  1  0  0  0  0
M  END
>  <MODEL>
8

>  <REMARK>
 VINA RESULT:      -4.8      3.364      6.612
  Name = 
  5 active torsions:
  status: ('A' for Active; 'I' for Inactive)
    1  A    between atoms: C_1  and  C_53
    2  A    between atoms: C_11  and  C_29
    3  A    between atoms: C_29  and  C_38
    4  A    between atoms: C_33  and  C_52
    5  A    between atoms: C_42  and  C_53
                            x       y       z     vdW  Elec       q    Type
                         _______ _______ _______ _____ _____    ______ ____

>  <TORSDO>
F 5

$$$$
