=
 OpenBabel11052418253D

 27 30  0  0  0  0  0  0  0  0999 V2000
  188.0640  176.9130  144.2180 C   0  0  0  0  0  0  0  0  0  0  0  0
  187.0620  176.2100  142.0910 O   0  0  0  0  0  0  0  0  0  0  0  0
  184.3490  179.3950  145.1280 C   0  0  0  0  0  3  0  0  0  0  0  0
  182.6920  179.2870  143.4060 F   0  0  0  0  0  0  0  0  0  0  0  0
  187.6960  177.6800  145.2040 N   0  0  0  0  0  0  0  0  0  0  0  0
  184.7260  178.0530  143.1210 C   0  0  0  0  0  0  0  0  0  0  0  0
  184.3100  177.5690  141.8870 O   0  0  0  0  0  1  0  0  0  0  0  0
  185.9650  177.7030  143.6520 C   0  0  0  0  0  0  0  0  0  0  0  0
  189.3520  176.2640  144.1600 N   0  0  0  0  0  0  0  0  0  0  0  0
  183.9080  178.9140  143.8770 C   0  0  0  0  0  0  0  0  0  0  0  0
  186.3960  178.1690  144.8710 C   0  0  0  0  0  0  0  0  0  0  0  0
  187.0350  176.8630  143.1680 C   0  0  0  0  0  0  0  0  0  0  0  0
  185.6070  179.0240  145.6380 C   0  0  0  0  0  3  0  0  0  0  0  0
  191.5830  175.4190  147.6920 C   0  0  0  0  0  3  0  0  0  0  0  0
  190.1200  175.9660  145.3490 C   0  0  0  0  0  0  0  0  0  0  0  0
  189.5640  175.1860  146.3800 C   0  0  0  0  0  3  0  0  0  0  0  0
  190.2910  174.9120  147.5410 C   0  0  0  0  0  3  0  0  0  0  0  0
  192.1460  176.2030  146.6830 C   0  0  0  0  0  3  0  0  0  0  0  0
  191.4190  176.4770  145.5230 C   0  0  0  0  0  3  0  0  0  0  0  0
  189.8950  175.8920  142.8520 C   0  0  0  0  0  2  0  0  0  0  0  0
  191.6470  171.8270  142.5960 C   0  0  0  0  0  2  0  0  0  0  0  0
  190.2200  171.4060  142.2740 C   0  0  0  0  0  2  0  0  0  0  0  0
  190.2620  174.4150  142.8200 C   0  0  0  0  0  3  0  0  0  0  0  0
  192.1220  173.0280  141.7720 C   0  0  0  0  0  2  0  0  0  0  0  0
  189.2510  172.1270  143.2030 C   0  0  0  0  0  2  0  0  0  0  0  0
  188.9960  173.5660  142.7670 C   0  0  0  0  0  2  0  0  0  0  0  0
  191.0900  174.1430  141.5740 C   0  0  0  0  0  2  0  0  0  0  0  0
  1  5  2  0  0  0  0
  2 12  2  0  0  0  0
  3 13  1  0  0  0  0
  4 10  1  0  0  0  0
  6  8  2  0  0  0  0
  6 10  1  0  0  0  0
  7  6  1  0  0  0  0
  8 11  1  0  0  0  0
  9  1  1  0  0  0  0
  9 15  1  0  0  0  0
 10  3  2  0  0  0  0
 11  5  1  0  0  0  0
 11 13  2  0  0  0  0
 12  8  1  0  0  0  0
 12  1  1  0  0  0  0
 15 19  2  0  0  0  0
 15 16  1  0  0  0  0
 16 17  2  0  0  0  0
 17 14  1  0  0  0  0
 18 14  2  0  0  0  0
 19 18  1  0  0  0  0
 20  9  1  0  0  0  0
 22 21  1  0  0  0  0
 22 25  1  0  0  0  0
 23 20  1  0  0  0  0
 24 21  1  0  0  0  0
 26 23  1  0  0  0  0
 26 25  1  0  0  0  0
 27 24  1  0  0  0  0
 27 23  1  0  0  0  0
M  END
>  <MODEL>
1

>  <REMARK>
 VINA RESULT:      -7.5      0.000      0.000
  Name = 
  3 active torsions:
  status: ('A' for Active; 'I' for Inactive)
    1  A    between atoms: C_1  and  N_15
    2  A    between atoms: C_1  and  C_18
    3  A    between atoms: C_9  and  N_15
                            x       y       z     vdW  Elec       q    Type
                         _______ _______ _______ _____ _____    ______ ____

>  <TORSDO>
F 3

$$$$
=
 OpenBabel11052418253D

 27 30  0  0  0  0  0  0  0  0999 V2000
  189.9300  175.7670  143.1210 C   0  0  0  0  0  0  0  0  0  0  0  0
  188.5410  177.1800  141.6740 O   0  0  0  0  0  0  0  0  0  0  0  0
  189.3040  172.2640  140.2700 C   0  0  0  0  0  3  0  0  0  0  0  0
  187.9220  172.8040  138.3940 F   0  0  0  0  0  0  0  0  0  0  0  0
  190.3270  174.5280  143.0950 N   0  0  0  0  0  0  0  0  0  0  0  0
  188.3730  174.5080  140.0160 C   0  0  0  0  0  0  0  0  0  0  0  0
  187.6100  175.4360  139.3180 O   0  0  0  0  0  1  0  0  0  0  0  0
  189.0140  174.8510  141.2050 C   0  0  0  0  0  0  0  0  0  0  0  0
  190.2450  176.6760  144.1970 N   0  0  0  0  0  0  0  0  0  0  0  0
  188.5250  173.1910  139.5460 C   0  0  0  0  0  0  0  0  0  0  0  0
  189.7750  173.9510  141.9110 C   0  0  0  0  0  0  0  0  0  0  0  0
  189.0780  176.0790  141.9630 C   0  0  0  0  0  0  0  0  0  0  0  0
  189.9400  172.6400  141.4680 C   0  0  0  0  0  3  0  0  0  0  0  0
  193.6790  176.1090  146.6580 C   0  0  0  0  0  3  0  0  0  0  0  0
  191.4040  176.4960  145.0440 C   0  0  0  0  0  0  0  0  0  0  0  0
  192.6630  176.9750  144.6400 C   0  0  0  0  0  3  0  0  0  0  0  0
  193.7920  176.7870  145.4430 C   0  0  0  0  0  3  0  0  0  0  0  0
  192.4380  175.6190  147.0700 C   0  0  0  0  0  3  0  0  0  0  0  0
  191.3110  175.8070  146.2670 C   0  0  0  0  0  3  0  0  0  0  0  0
  189.3620  177.8190  144.4350 C   0  0  0  0  0  2  0  0  0  0  0  0
  185.3010  176.5820  145.7120 C   0  0  0  0  0  2  0  0  0  0  0  0
  185.7470  177.0910  147.0750 C   0  0  0  0  0  2  0  0  0  0  0  0
  188.0700  177.3730  145.1050 C   0  0  0  0  0  3  0  0  0  0  0  0
  185.5880  177.5690  144.5750 C   0  0  0  0  0  2  0  0  0  0  0  0
  187.1730  176.6290  147.3510 C   0  0  0  0  0  2  0  0  0  0  0  0
  188.2080  177.4790  146.6200 C   0  0  0  0  0  2  0  0  0  0  0  0
  186.9410  178.2840  144.6470 C   0  0  0  0  0  2  0  0  0  0  0  0
  1  9  1  0  0  0  0
  2 12  2  0  0  0  0
  3 13  1  0  0  0  0
  4 10  1  0  0  0  0
  5  1  2  0  0  0  0
  6  8  2  0  0  0  0
  7  6  1  0  0  0  0
  8 11  1  0  0  0  0
  8 12  1  0  0  0  0
  9 20  1  0  0  0  0
  9 15  1  0  0  0  0
 10  6  1  0  0  0  0
 10  3  2  0  0  0  0
 11  5  1  0  0  0  0
 12  1  1  0  0  0  0
 13 11  2  0  0  0  0
 14 18  1  0  0  0  0
 15 19  1  0  0  0  0
 16 15  2  0  0  0  0
 16 17  1  0  0  0  0
 17 14  2  0  0  0  0
 19 18  2  0  0  0  0
 20 23  1  0  0  0  0
 21 22  1  0  0  0  0
 22 25  1  0  0  0  0
 23 26  1  0  0  0  0
 24 27  1  0  0  0  0
 24 21  1  0  0  0  0
 26 25  1  0  0  0  0
 27 23  1  0  0  0  0
M  END
>  <MODEL>
2

>  <REMARK>
 VINA RESULT:      -7.4      2.640      5.794
  Name = 
  3 active torsions:
  status: ('A' for Active; 'I' for Inactive)
    1  A    between atoms: C_1  and  N_15
    2  A    between atoms: C_1  and  C_18
    3  A    between atoms: C_9  and  N_15
                            x       y       z     vdW  Elec       q    Type
                         _______ _______ _______ _____ _____    ______ ____

>  <TORSDO>
F 3

$$$$
=
 OpenBabel11052418253D

 27 30  0  0  0  0  0  0  0  0999 V2000
  188.9350  174.9280  142.5010 C   0  0  0  0  0  0  0  0  0  0  0  0
  187.6990  175.7090  140.5310 O   0  0  0  0  0  0  0  0  0  0  0  0
  191.3110  172.0730  139.8560 C   0  0  0  0  0  3  0  0  0  0  0  0
  190.6850  172.1760  137.5500 F   0  0  0  0  0  0  0  0  0  0  0  0
  189.8790  174.0570  142.7140 N   0  0  0  0  0  0  0  0  0  0  0  0
  189.5530  173.5970  139.1110 C   0  0  0  0  0  0  0  0  0  0  0  0
  188.7600  174.1410  138.1070 O   0  0  0  0  0  1  0  0  0  0  0  0
  189.4220  174.0090  140.4350 C   0  0  0  0  0  0  0  0  0  0  0  0
  188.3080  175.6880  143.5570 N   0  0  0  0  0  0  0  0  0  0  0  0
  190.5170  172.6130  138.8230 C   0  0  0  0  0  0  0  0  0  0  0  0
  190.1950  173.4870  141.4430 C   0  0  0  0  0  0  0  0  0  0  0  0
  188.5610  174.9730  141.0790 C   0  0  0  0  0  0  0  0  0  0  0  0
  191.1560  172.5090  141.1850 C   0  0  0  0  0  3  0  0  0  0  0  0
  190.2210  176.4760  147.2830 C   0  0  0  0  0  3  0  0  0  0  0  0
  188.9730  175.9540  144.8130 C   0  0  0  0  0  0  0  0  0  0  0  0
  189.0190  174.9710  145.8180 C   0  0  0  0  0  3  0  0  0  0  0  0
  189.6420  175.2280  147.0430 C   0  0  0  0  0  3  0  0  0  0  0  0
  190.1760  177.4660  146.3000 C   0  0  0  0  0  3  0  0  0  0  0  0
  189.5540  177.2080  145.0760 C   0  0  0  0  0  3  0  0  0  0  0  0
  186.9570  176.2070  143.3430 C   0  0  0  0  0  2  0  0  0  0  0  0
  186.0710  178.5520  146.9990 C   0  0  0  0  0  2  0  0  0  0  0  0
  185.0840  179.2830  146.0990 C   0  0  0  0  0  2  0  0  0  0  0  0
  186.5790  177.1950  144.4370 C   0  0  0  0  0  3  0  0  0  0  0  0
  185.9610  177.0270  146.9020 C   0  0  0  0  0  2  0  0  0  0  0  0
  185.7320  179.5600  144.7480 C   0  0  0  0  0  2  0  0  0  0  0  0
  185.7430  178.3270  143.8490 C   0  0  0  0  0  2  0  0  0  0  0  0
  185.7550  176.4690  145.4900 C   0  0  0  0  0  2  0  0  0  0  0  0
  1  5  2  0  0  0  0
  1  9  1  0  0  0  0
  2 12  2  0  0  0  0
  3 13  1  0  0  0  0
  4 10  1  0  0  0  0
  6  8  2  0  0  0  0
  7  6  1  0  0  0  0
  8 12  1  0  0  0  0
  8 11  1  0  0  0  0
  9 15  1  0  0  0  0
 10  6  1  0  0  0  0
 10  3  2  0  0  0  0
 11  5  1  0  0  0  0
 12  1  1  0  0  0  0
 13 11  2  0  0  0  0
 15 19  2  0  0  0  0
 15 16  1  0  0  0  0
 16 17  2  0  0  0  0
 17 14  1  0  0  0  0
 18 14  2  0  0  0  0
 19 18  1  0  0  0  0
 20  9  1  0  0  0  0
 20 23  1  0  0  0  0
 22 21  1  0  0  0  0
 23 27  1  0  0  0  0
 24 21  1  0  0  0  0
 25 22  1  0  0  0  0
 26 23  1  0  0  0  0
 26 25  1  0  0  0  0
 27 24  1  0  0  0  0
M  END
>  <MODEL>
3

>  <REMARK>
 VINA RESULT:      -7.4      3.028      6.662
  Name = 
  3 active torsions:
  status: ('A' for Active; 'I' for Inactive)
    1  A    between atoms: C_1  and  N_15
    2  A    between atoms: C_1  and  C_18
    3  A    between atoms: C_9  and  N_15
                            x       y       z     vdW  Elec       q    Type
                         _______ _______ _______ _____ _____    ______ ____

>  <TORSDO>
F 3

$$$$
=
 OpenBabel11052418253D

 27 30  0  0  0  0  0  0  0  0999 V2000
  191.3750  176.7100  143.8250 C   0  0  0  0  0  0  0  0  0  0  0  0
  191.9070  176.6140  146.2180 O   0  0  0  0  0  0  0  0  0  0  0  0
  195.6230  175.3730  142.8450 C   0  0  0  0  0  3  0  0  0  0  0  0
  196.9770  175.0230  144.7860 F   0  0  0  0  0  0  0  0  0  0  0  0
  192.0290  176.4790  142.7230 N   0  0  0  0  0  0  0  0  0  0  0  0
  194.7080  175.7320  145.0820 C   0  0  0  0  0  0  0  0  0  0  0  0
  194.8440  175.7380  146.4650 O   0  0  0  0  0  1  0  0  0  0  0  0
  193.5030  176.0820  144.4760 C   0  0  0  0  0  0  0  0  0  0  0  0
  190.0110  177.1820  143.8500 N   0  0  0  0  0  0  0  0  0  0  0  0
  195.7820  175.3720  144.2470 C   0  0  0  0  0  0  0  0  0  0  0  0
  193.3450  176.0820  143.1110 C   0  0  0  0  0  0  0  0  0  0  0  0
  192.2250  176.4940  145.0060 C   0  0  0  0  0  0  0  0  0  0  0  0
  194.3930  175.7310  142.2620 C   0  0  0  0  0  3  0  0  0  0  0  0
  187.2780  176.5300  140.6450 C   0  0  0  0  0  3  0  0  0  0  0  0
  189.0960  176.9530  142.7530 C   0  0  0  0  0  0  0  0  0  0  0  0
  188.6470  178.0280  141.9630 C   0  0  0  0  0  3  0  0  0  0  0  0
  187.7470  177.8170  140.9140 C   0  0  0  0  0  3  0  0  0  0  0  0
  187.7060  175.4540  141.4250 C   0  0  0  0  0  3  0  0  0  0  0  0
  188.6050  175.6650  142.4730 C   0  0  0  0  0  3  0  0  0  0  0  0
  189.5400  177.9130  145.0270 C   0  0  0  0  0  2  0  0  0  0  0  0
  185.2930  176.7370  145.5060 C   0  0  0  0  0  2  0  0  0  0  0  0
  185.5460  177.0190  146.9800 C   0  0  0  0  0  2  0  0  0  0  0  0
  188.1480  177.4490  145.4300 C   0  0  0  0  0  3  0  0  0  0  0  0
  185.7810  177.8590  144.5840 C   0  0  0  0  0  2  0  0  0  0  0  0
  186.8970  176.4420  147.3860 C   0  0  0  0  0  2  0  0  0  0  0  0
  188.0590  177.3280  146.9480 C   0  0  0  0  0  2  0  0  0  0  0  0
  187.1320  178.4780  144.9570 C   0  0  0  0  0  2  0  0  0  0  0  0
  1  9  1  0  0  0  0
  1 12  1  0  0  0  0
  3 10  1  0  0  0  0
  5 11  1  0  0  0  0
  5  1  2  0  0  0  0
  6  7  1  0  0  0  0
  8 12  1  0  0  0  0
  8  6  1  0  0  0  0
  9 20  1  0  0  0  0
 10  4  1  0  0  0  0
 10  6  2  0  0  0  0
 11  8  2  0  0  0  0
 12  2  2  0  0  0  0
 13  3  2  0  0  0  0
 13 11  1  0  0  0  0
 14 17  2  0  0  0  0
 14 18  1  0  0  0  0
 15  9  1  0  0  0  0
 16 15  2  0  0  0  0
 17 16  1  0  0  0  0
 18 19  2  0  0  0  0
 19 15  1  0  0  0  0
 20 23  1  0  0  0  0
 21 22  1  0  0  0  0
 22 25  1  0  0  0  0
 23 26  1  0  0  0  0
 24 27  1  0  0  0  0
 24 21  1  0  0  0  0
 26 25  1  0  0  0  0
 27 23  1  0  0  0  0
M  END
>  <MODEL>
4

>  <REMARK>
 VINA RESULT:      -7.2      4.293      7.927
  Name = 
  3 active torsions:
  status: ('A' for Active; 'I' for Inactive)
    1  A    between atoms: C_1  and  N_15
    2  A    between atoms: C_1  and  C_18
    3  A    between atoms: C_9  and  N_15
                            x       y       z     vdW  Elec       q    Type
                         _______ _______ _______ _____ _____    ______ ____

>  <TORSDO>
F 3

$$$$
=
 OpenBabel11052418253D

 27 30  0  0  0  0  0  0  0  0999 V2000
  192.6930  175.5360  145.2850 C   0  0  0  0  0  0  0  0  0  0  0  0
  191.8950  177.2150  143.6840 O   0  0  0  0  0  0  0  0  0  0  0  0
  188.5480  175.4010  147.1800 C   0  0  0  0  0  3  0  0  0  0  0  0
  186.9840  176.8850  146.1440 F   0  0  0  0  0  0  0  0  0  0  0  0
  192.1600  174.8750  146.2730 N   0  0  0  0  0  0  0  0  0  0  0  0
  189.2230  176.8050  145.2990 C   0  0  0  0  0  0  0  0  0  0  0  0
  188.9390  177.7600  144.3300 O   0  0  0  0  0  1  0  0  0  0  0  0
  190.4950  176.2450  145.4050 C   0  0  0  0  0  0  0  0  0  0  0  0
  194.0830  175.4180  144.9140 N   0  0  0  0  0  0  0  0  0  0  0  0
  188.2370  176.3710  146.2040 C   0  0  0  0  0  0  0  0  0  0  0  0
  190.7990  175.2990  146.3540 C   0  0  0  0  0  0  0  0  0  0  0  0
  191.7180  176.4460  144.6640 C   0  0  0  0  0  0  0  0  0  0  0  0
  189.8410  174.8530  147.2630 C   0  0  0  0  0  3  0  0  0  0  0  0
  196.4220  171.9610  145.7770 C   0  0  0  0  0  3  0  0  0  0  0  0
  194.8650  174.2400  145.2190 C   0  0  0  0  0  0  0  0  0  0  0  0
  196.0880  174.3540  145.9060 C   0  0  0  0  0  3  0  0  0  0  0  0
  196.8590  173.2230  146.1860 C   0  0  0  0  0  3  0  0  0  0  0  0
  195.2150  171.8320  145.0870 C   0  0  0  0  0  3  0  0  0  0  0  0
  194.4450  172.9630  144.8070 C   0  0  0  0  0  3  0  0  0  0  0  0
  194.7180  176.5290  144.2030 C   0  0  0  0  0  2  0  0  0  0  0  0
  197.5080  174.9510  141.1400 C   0  0  0  0  0  2  0  0  0  0  0  0
  196.6550  175.7630  140.1750 C   0  0  0  0  0  2  0  0  0  0  0  0
  195.4840  176.0240  142.9880 C   0  0  0  0  0  3  0  0  0  0  0  0
  197.9400  175.7450  142.3780 C   0  0  0  0  0  2  0  0  0  0  0  0
  195.1810  175.5790  140.5160 C   0  0  0  0  0  2  0  0  0  0  0  0
  194.7550  176.4250  141.7110 C   0  0  0  0  0  2  0  0  0  0  0  0
  196.8680  176.6560  142.9850 C   0  0  0  0  0  2  0  0  0  0  0  0
  1  5  2  0  0  0  0
  2 12  2  0  0  0  0
  3 13  1  0  0  0  0
  4 10  1  0  0  0  0
  5 11  1  0  0  0  0
  6  8  2  0  0  0  0
  6 10  1  0  0  0  0
  7  6  1  0  0  0  0
  8 11  1  0  0  0  0
  9 15  1  0  0  0  0
  9  1  1  0  0  0  0
 10  3  2  0  0  0  0
 11 13  2  0  0  0  0
 12  1  1  0  0  0  0
 12  8  1  0  0  0  0
 14 17  1  0  0  0  0
 15 16  1  0  0  0  0
 16 17  2  0  0  0  0
 18 14  2  0  0  0  0
 19 18  1  0  0  0  0
 19 15  2  0  0  0  0
 20  9  1  0  0  0  0
 21 24  1  0  0  0  0
 22 25  1  0  0  0  0
 22 21  1  0  0  0  0
 23 20  1  0  0  0  0
 24 27  1  0  0  0  0
 25 26  1  0  0  0  0
 26 23  1  0  0  0  0
 27 23  1  0  0  0  0
M  END
>  <MODEL>
5

>  <REMARK>
 VINA RESULT:      -7.2      4.133      5.873
  Name = 
  3 active torsions:
  status: ('A' for Active; 'I' for Inactive)
    1  A    between atoms: C_1  and  N_15
    2  A    between atoms: C_1  and  C_18
    3  A    between atoms: C_9  and  N_15
                            x       y       z     vdW  Elec       q    Type
                         _______ _______ _______ _____ _____    ______ ____

>  <TORSDO>
F 3

$$$$
=
 OpenBabel11052418253D

 27 30  0  0  0  0  0  0  0  0999 V2000
  187.9750  175.7470  142.5620 C   0  0  0  0  0  0  0  0  0  0  0  0
  189.0670  175.2900  144.7110 O   0  0  0  0  0  0  0  0  0  0  0  0
  189.8780  171.9880  140.8180 C   0  0  0  0  0  3  0  0  0  0  0  0
  191.2570  170.8120  142.3800 F   0  0  0  0  0  0  0  0  0  0  0  0
  187.9470  175.1640  141.3980 N   0  0  0  0  0  0  0  0  0  0  0  0
  190.1640  172.8190  143.0980 C   0  0  0  0  0  0  0  0  0  0  0  0
  190.7110  172.7140  144.3710 O   0  0  0  0  0  1  0  0  0  0  0  0
  189.3220  173.8770  142.7610 C   0  0  0  0  0  0  0  0  0  0  0  0
  187.2970  176.9910  142.8390 N   0  0  0  0  0  0  0  0  0  0  0  0
  190.4420  171.8610  142.1050 C   0  0  0  0  0  0  0  0  0  0  0  0
  188.7700  174.0020  141.5090 C   0  0  0  0  0  0  0  0  0  0  0  0
  188.8310  175.0120  143.5070 C   0  0  0  0  0  0  0  0  0  0  0  0
  189.0310  173.0680  140.5070 C   0  0  0  0  0  3  0  0  0  0  0  0
  183.9260  178.3280  140.6000 C   0  0  0  0  0  3  0  0  0  0  0  0
  186.1470  177.4280  142.0790 C   0  0  0  0  0  0  0  0  0  0  0  0
  186.2930  177.8470  140.7440 C   0  0  0  0  0  3  0  0  0  0  0  0
  185.1900  178.2900  140.0090 C   0  0  0  0  0  3  0  0  0  0  0  0
  183.7650  177.9240  141.9280 C   0  0  0  0  0  3  0  0  0  0  0  0
  184.8680  177.4820  142.6620 C   0  0  0  0  0  3  0  0  0  0  0  0
  187.7910  177.8340  143.9290 C   0  0  0  0  0  2  0  0  0  0  0  0
  184.4360  178.2920  146.7910 C   0  0  0  0  0  2  0  0  0  0  0  0
  185.5320  178.2090  147.8440 C   0  0  0  0  0  2  0  0  0  0  0  0
  186.7920  177.8720  145.0770 C   0  0  0  0  0  3  0  0  0  0  0  0
  184.7550  179.2810  145.6650 C   0  0  0  0  0  2  0  0  0  0  0  0
  186.5160  177.1050  147.4730 C   0  0  0  0  0  2  0  0  0  0  0  0
  187.4960  177.5440  146.3900 C   0  0  0  0  0  2  0  0  0  0  0  0
  186.2040  179.2720  145.1680 C   0  0  0  0  0  2  0  0  0  0  0  0
  1  9  1  0  0  0  0
  1 12  1  0  0  0  0
  3 10  1  0  0  0  0
  5 11  1  0  0  0  0
  5  1  2  0  0  0  0
  6  7  1  0  0  0  0
  8  6  1  0  0  0  0
  8 12  1  0  0  0  0
  9 20  1  0  0  0  0
 10  4  1  0  0  0  0
 10  6  2  0  0  0  0
 11  8  2  0  0  0  0
 12  2  2  0  0  0  0
 13  3  2  0  0  0  0
 13 11  1  0  0  0  0
 14 18  1  0  0  0  0
 15 19  1  0  0  0  0
 15  9  1  0  0  0  0
 16 15  2  0  0  0  0
 17 14  2  0  0  0  0
 17 16  1  0  0  0  0
 18 19  2  0  0  0  0
 20 23  1  0  0  0  0
 21 22  1  0  0  0  0
 23 27  1  0  0  0  0
 23 26  1  0  0  0  0
 24 21  1  0  0  0  0
 25 22  1  0  0  0  0
 26 25  1  0  0  0  0
 27 24  1  0  0  0  0
M  END
>  <MODEL>
6

>  <REMARK>
 VINA RESULT:      -7.1      3.458      7.693
  Name = 
  3 active torsions:
  status: ('A' for Active; 'I' for Inactive)
    1  A    between atoms: C_1  and  N_15
    2  A    between atoms: C_1  and  C_18
    3  A    between atoms: C_9  and  N_15
                            x       y       z     vdW  Elec       q    Type
                         _______ _______ _______ _____ _____    ______ ____

>  <TORSDO>
F 3

$$$$
=
 OpenBabel11052418253D

 27 30  0  0  0  0  0  0  0  0999 V2000
  188.1630  177.0660  143.9440 C   0  0  0  0  0  0  0  0  0  0  0  0
  187.7770  176.6670  141.5540 O   0  0  0  0  0  0  0  0  0  0  0  0
  183.9590  178.7900  144.3160 C   0  0  0  0  0  3  0  0  0  0  0  0
  182.7520  178.7980  142.2510 F   0  0  0  0  0  0  0  0  0  0  0  0
  187.4630  177.5660  144.9210 N   0  0  0  0  0  0  0  0  0  0  0  0
  184.9860  177.9340  142.2710 C   0  0  0  0  0  0  0  0  0  0  0  0
  184.9350  177.6510  140.9120 O   0  0  0  0  0  1  0  0  0  0  0  0
  186.1260  177.6580  143.0230 C   0  0  0  0  0  0  0  0  0  0  0  0
  189.5290  176.6230  144.0950 N   0  0  0  0  0  0  0  0  0  0  0  0
  183.8860  178.5090  142.9350 C   0  0  0  0  0  0  0  0  0  0  0  0
  186.1980  177.9290  144.3680 C   0  0  0  0  0  0  0  0  0  0  0  0
  187.4070  177.0840  142.6820 C   0  0  0  0  0  0  0  0  0  0  0  0
  185.1240  178.5000  145.0490 C   0  0  0  0  0  3  0  0  0  0  0  0
  191.0750  175.4150  147.8790 C   0  0  0  0  0  3  0  0  0  0  0  0
  190.0660  176.2040  145.3710 C   0  0  0  0  0  0  0  0  0  0  0  0
  189.3720  175.2740  146.1660 C   0  0  0  0  0  3  0  0  0  0  0  0
  189.8750  174.8800  147.4090 C   0  0  0  0  0  3  0  0  0  0  0  0
  191.7720  176.3460  147.1060 C   0  0  0  0  0  3  0  0  0  0  0  0
  191.2700  176.7400  145.8640 C   0  0  0  0  0  3  0  0  0  0  0  0
  190.3940  176.5940  142.9150 C   0  0  0  0  0  2  0  0  0  0  0  0
  192.9650  172.9820  142.9400 C   0  0  0  0  0  2  0  0  0  0  0  0
  192.2080  172.6290  141.6670 C   0  0  0  0  0  2  0  0  0  0  0  0
  191.0900  175.2460  142.7880 C   0  0  0  0  0  3  0  0  0  0  0  0
  193.4930  174.4200  142.9490 C   0  0  0  0  0  2  0  0  0  0  0  0
  190.7250  172.9220  141.8560 C   0  0  0  0  0  2  0  0  0  0  0  0
  190.4060  174.4070  141.7140 C   0  0  0  0  0  2  0  0  0  0  0  0
  192.5380  175.4780  142.3860 C   0  0  0  0  0  2  0  0  0  0  0  0
  1  9  1  0  0  0  0
  1  5  2  0  0  0  0
  2 12  2  0  0  0  0
  3 13  1  0  0  0  0
  4 10  1  0  0  0  0
  6 10  1  0  0  0  0
  6  8  2  0  0  0  0
  7  6  1  0  0  0  0
  8 11  1  0  0  0  0
  9 15  1  0  0  0  0
 10  3  2  0  0  0  0
 11  5  1  0  0  0  0
 11 13  2  0  0  0  0
 12  8  1  0  0  0  0
 12  1  1  0  0  0  0
 15 19  2  0  0  0  0
 15 16  1  0  0  0  0
 16 17  2  0  0  0  0
 17 14  1  0  0  0  0
 18 14  2  0  0  0  0
 19 18  1  0  0  0  0
 20  9  1  0  0  0  0
 21 24  1  0  0  0  0
 22 25  1  0  0  0  0
 22 21  1  0  0  0  0
 23 20  1  0  0  0  0
 26 25  1  0  0  0  0
 26 23  1  0  0  0  0
 27 23  1  0  0  0  0
 27 24  1  0  0  0  0
M  END
>  <MODEL>
7

>  <REMARK>
 VINA RESULT:      -7.0      0.980      1.216
  Name = 
  3 active torsions:
  status: ('A' for Active; 'I' for Inactive)
    1  A    between atoms: C_1  and  N_15
    2  A    between atoms: C_1  and  C_18
    3  A    between atoms: C_9  and  N_15
                            x       y       z     vdW  Elec       q    Type
                         _______ _______ _______ _____ _____    ______ ____

>  <TORSDO>
F 3

$$$$
=
 OpenBabel11052418253D

 27 30  0  0  0  0  0  0  0  0999 V2000
  188.7480  175.7250  144.5490 C   0  0  0  0  0  0  0  0  0  0  0  0
  189.0960  176.9090  146.6690 O   0  0  0  0  0  0  0  0  0  0  0  0
  184.7860  177.9130  143.9990 C   0  0  0  0  0  3  0  0  0  0  0  0
  184.2770  179.4150  145.7890 F   0  0  0  0  0  0  0  0  0  0  0  0
  187.8180  175.7160  143.6380 N   0  0  0  0  0  0  0  0  0  0  0  0
  186.3160  178.1630  145.8870 C   0  0  0  0  0  0  0  0  0  0  0  0
  186.6620  178.7370  147.1040 O   0  0  0  0  0  1  0  0  0  0  0  0
  187.1440  177.2260  145.2710 C   0  0  0  0  0  0  0  0  0  0  0  0
  189.9130  174.8730  144.4980 N   0  0  0  0  0  0  0  0  0  0  0  0
  185.1190  178.5090  145.2340 C   0  0  0  0  0  0  0  0  0  0  0  0
  186.8230  176.6460  144.0680 C   0  0  0  0  0  0  0  0  0  0  0  0
  188.4150  176.6500  145.6430 C   0  0  0  0  0  0  0  0  0  0  0  0
  185.6420  176.9690  143.4010 C   0  0  0  0  0  3  0  0  0  0  0  0
  191.4490  173.2720  140.8590 C   0  0  0  0  0  3  0  0  0  0  0  0
  190.4240  174.3410  143.2540 C   0  0  0  0  0  0  0  0  0  0  0  0
  190.0410  173.0610  142.8150 C   0  0  0  0  0  3  0  0  0  0  0  0
  190.5460  172.5320  141.6240 C   0  0  0  0  0  3  0  0  0  0  0  0
  191.8480  174.5410  141.2850 C   0  0  0  0  0  3  0  0  0  0  0  0
  191.3420  175.0690  142.4750 C   0  0  0  0  0  3  0  0  0  0  0  0
  190.5980  174.5420  145.7480 C   0  0  0  0  0  2  0  0  0  0  0  0
  194.9300  175.1340  145.0110 C   0  0  0  0  0  2  0  0  0  0  0  0
  194.9380  175.6640  146.4380 C   0  0  0  0  0  2  0  0  0  0  0  0
  192.0700  174.9250  145.6750 C   0  0  0  0  0  3  0  0  0  0  0  0
  194.2030  173.7920  144.8690 C   0  0  0  0  0  2  0  0  0  0  0  0
  193.7290  176.5650  146.6560 C   0  0  0  0  0  2  0  0  0  0  0  0
  192.4490  175.7680  146.8880 C   0  0  0  0  0  2  0  0  0  0  0  0
  192.9070  173.6550  145.6750 C   0  0  0  0  0  2  0  0  0  0  0  0
  1 12  1  0  0  0  0
  3 10  1  0  0  0  0
  5 11  1  0  0  0  0
  5  1  2  0  0  0  0
  6  7  1  0  0  0  0
  8 12  1  0  0  0  0
  8  6  1  0  0  0  0
  9  1  1  0  0  0  0
  9 20  1  0  0  0  0
 10  4  1  0  0  0  0
 10  6  2  0  0  0  0
 11  8  2  0  0  0  0
 12  2  2  0  0  0  0
 13  3  2  0  0  0  0
 13 11  1  0  0  0  0
 14 18  2  0  0  0  0
 14 17  1  0  0  0  0
 15  9  1  0  0  0  0
 16 15  1  0  0  0  0
 17 16  2  0  0  0  0
 18 19  1  0  0  0  0
 19 15  2  0  0  0  0
 21 22  1  0  0  0  0
 22 25  1  0  0  0  0
 23 27  1  0  0  0  0
 23 20  1  0  0  0  0
 23 26  1  0  0  0  0
 24 21  1  0  0  0  0
 24 27  1  0  0  0  0
 25 26  1  0  0  0  0
M  END
>  <MODEL>
8

>  <REMARK>
 VINA RESULT:      -7.0      2.250      4.340
  Name = 
  3 active torsions:
  status: ('A' for Active; 'I' for Inactive)
    1  A    between atoms: C_1  and  N_15
    2  A    between atoms: C_1  and  C_18
    3  A    between atoms: C_9  and  N_15
                            x       y       z     vdW  Elec       q    Type
                         _______ _______ _______ _____ _____    ______ ____

>  <TORSDO>
F 3

$$$$
=
 OpenBabel11052418253D

 27 30  0  0  0  0  0  0  0  0999 V2000
  189.2790  176.3420  144.3570 C   0  0  0  0  0  0  0  0  0  0  0  0
  189.2540  174.7610  146.2340 O   0  0  0  0  0  0  0  0  0  0  0  0
  193.7220  177.0840  145.0650 C   0  0  0  0  0  3  0  0  0  0  0  0
  194.6120  175.8300  146.8980 F   0  0  0  0  0  0  0  0  0  0  0  0
  190.1830  177.0900  143.7920 N   0  0  0  0  0  0  0  0  0  0  0  0
  192.2900  175.5860  146.3600 C   0  0  0  0  0  0  0  0  0  0  0  0
  192.1020  174.6750  147.3920 O   0  0  0  0  0  1  0  0  0  0  0  0
  191.2370  175.9610  145.5290 C   0  0  0  0  0  0  0  0  0  0  0  0
  187.8940  176.3320  143.9510 N   0  0  0  0  0  0  0  0  0  0  0  0
  193.5520  176.1600  146.1180 C   0  0  0  0  0  0  0  0  0  0  0  0
  191.4000  176.8580  144.5010 C   0  0  0  0  0  0  0  0  0  0  0  0
  189.8440  175.5830  145.4840 C   0  0  0  0  0  0  0  0  0  0  0  0
  192.6390  177.4430  144.2420 C   0  0  0  0  0  3  0  0  0  0  0  0
  186.6230  177.4360  140.0350 C   0  0  0  0  0  3  0  0  0  0  0  0
  187.4790  176.7110  142.6180 C   0  0  0  0  0  0  0  0  0  0  0  0
  186.7110  177.8710  142.4140 C   0  0  0  0  0  3  0  0  0  0  0  0
  186.2890  178.2330  141.1310 C   0  0  0  0  0  3  0  0  0  0  0  0
  187.3770  176.2750  140.2220 C   0  0  0  0  0  3  0  0  0  0  0  0
  187.7990  175.9140  141.5040 C   0  0  0  0  0  3  0  0  0  0  0  0
  186.8790  175.9200  144.9220 C   0  0  0  0  0  2  0  0  0  0  0  0
  186.0480  179.4060  147.5320 C   0  0  0  0  0  2  0  0  0  0  0  0
  184.5950  178.9890  147.3570 C   0  0  0  0  0  2  0  0  0  0  0  0
  186.3650  177.1190  145.7060 C   0  0  0  0  0  3  0  0  0  0  0  0
  186.9690  178.2410  147.9110 C   0  0  0  0  0  2  0  0  0  0  0  0
  184.3390  178.6240  145.9000 C   0  0  0  0  0  2  0  0  0  0  0  0
  184.8510  177.2290  145.5560 C   0  0  0  0  0  2  0  0  0  0  0  0
  186.7020  176.9230  147.1770 C   0  0  0  0  0  2  0  0  0  0  0  0
  1 12  1  0  0  0  0
  3 10  1  0  0  0  0
  5  1  2  0  0  0  0
  5 11  1  0  0  0  0
  6  7  1  0  0  0  0
  8  6  1  0  0  0  0
  9  1  1  0  0  0  0
  9 20  1  0  0  0  0
 10  6  2  0  0  0  0
 10  4  1  0  0  0  0
 11  8  2  0  0  0  0
 12  8  1  0  0  0  0
 12  2  2  0  0  0  0
 13 11  1  0  0  0  0
 13  3  2  0  0  0  0
 14 18  2  0  0  0  0
 14 17  1  0  0  0  0
 15  9  1  0  0  0  0
 16 15  1  0  0  0  0
 17 16  2  0  0  0  0
 18 19  1  0  0  0  0
 19 15  2  0  0  0  0
 20 23  1  0  0  0  0
 21 24  1  0  0  0  0
 22 21  1  0  0  0  0
 23 27  1  0  0  0  0
 25 22  1  0  0  0  0
 26 23  1  0  0  0  0
 26 25  1  0  0  0  0
 27 24  1  0  0  0  0
M  END
>  <MODEL>
9

>  <REMARK>
 VINA RESULT:      -7.0      3.844      7.539
  Name = 
  3 active torsions:
  status: ('A' for Active; 'I' for Inactive)
    1  A    between atoms: C_1  and  N_15
    2  A    between atoms: C_1  and  C_18
    3  A    between atoms: C_9  and  N_15
                            x       y       z     vdW  Elec       q    Type
                         _______ _______ _______ _____ _____    ______ ____

>  <TORSDO>
F 3

$$$$
