=
 OpenBabel11052419163D

 32 37  0  0  1  0  0  0  0  0999 V2000
  189.6860  174.7130  144.5620 C   0  0  1  0  0  3  0  0  0  0  0  0
  187.7920  176.2410  144.4000 C   0  0  0  0  0  0  0  0  0  0  0  0
  190.7110  174.2520  145.2900 C   0  0  0  0  0  3  0  0  0  0  0  0
  188.7300  175.6630  145.1670 C   0  0  0  0  0  0  0  0  0  0  0  0
  186.7370  177.1270  145.0190 C   0  0  2  0  0  3  0  0  0  0  0  0
  185.9460  177.5060  139.8820 C   0  0  0  0  0  2  0  0  0  0  0  0
  187.6770  175.9140  142.9590 C   0  0  0  0  0  0  0  0  0  0  0  0
  185.4750  178.7840  141.9500 O   0  0  0  0  0  0  0  0  0  0  0  0
  186.0690  177.8270  142.7750 C   0  0  0  0  0  0  0  0  0  0  0  0
  188.7540  175.9270  146.6530 C   0  0  0  0  0  0  0  0  0  0  0  0
  186.1890  178.0720  144.0470 N   0  0  0  0  0  0  0  0  0  0  0  0
  188.5110  177.4080  146.9100 C   0  0  0  0  0  2  0  0  0  0  0  0
  190.0360  175.4800  147.3050 C   0  0  0  0  0  3  0  0  0  0  0  0
  188.4790  174.9850  142.4140 C   0  0  0  0  0  3  0  0  0  0  0  0
  189.5120  174.3430  143.1820 N   0  0  0  0  0  0  0  0  0  0  0  0
  186.5730  176.5480  142.1460 C   0  0  1  0  0  3  0  0  0  0  0  0
  187.1860  177.8830  146.2880 C   0  0  2  0  0  3  0  0  0  0  0  0
  190.9140  174.6850  146.6850 C   0  0  0  0  0  3  0  0  0  0  0  0
  185.0010  178.4500  140.6460 C   0  0  0  0  0  2  0  0  0  0  0  0
  187.0620  176.9080  140.7410 C   0  0  0  0  0  2  0  0  0  0  0  0
  190.8220  172.8540  140.0700 C   0  0  1  0  0  3  0  0  0  0  0  0
  192.4590  169.7150  141.3760 N   0  0  0  0  0  1  0  0  0  0  0  0
  191.1270  173.4850  138.7240 C   0  0  0  0  0  1  0  0  0  0  0  0
  190.6880  170.9380  142.3030 N   0  0  0  0  0  0  0  0  0  0  0  0
  190.3890  173.3620  142.5450 C   0  0  1  0  0  3  0  0  0  0  0  0
  191.6960  171.7530  140.3010 O   0  0  0  0  0  0  0  0  0  0  0  0
  189.7000  172.0010  142.4500 C   0  0  0  0  0  2  0  0  0  0  0  0
  190.9010  173.8900  141.2000 C   0  0  1  0  0  3  0  0  0  0  0  0
  192.3090  174.4410  141.3730 C   0  0  0  0  0  1  0  0  0  0  0  0
  191.5680  170.8240  141.3490 C   0  0  0  0  0  0  0  0  0  0  0  0
  186.0720  177.9130  147.3250 C   0  0  0  0  0  2  0  0  0  0  0  0
  185.6630  179.2240  147.5760 O   0  0  0  0  0  1  0  0  0  0  0  0
  1  4  1  0  0  0  0
  1  3  1  6  0  0  0
  2  5  1  0  0  0  0
  2  4  2  0  0  0  0
  3 18  2  0  0  0  0
  4 10  1  0  0  0  0
  5 11  1  6  0  0  0
  5 17  1  0  0  0  0
  6 19  1  0  0  0  0
  6 20  1  0  0  0  0
  7  2  1  0  0  0  0
  8  9  1  0  0  0  0
  9 11  2  0  0  0  0
 10 12  1  0  0  0  0
 10 13  2  0  0  0  0
 14  7  2  0  0  0  0
 14 15  1  0  0  0  0
 15  1  1  0  0  0  0
 16 20  1  6  0  0  0
 16  9  1  0  0  0  0
 16  7  1  0  0  0  0
 17 12  1  0  0  0  0
 17 31  1  1  0  0  0
 18 13  1  0  0  0  0
 19  8  1  0  0  0  0
 21 23  1  6  0  0  0
 21 26  1  0  0  0  0
 21 28  1  0  0  0  0
 24 27  1  0  0  0  0
 25 27  1  6  0  0  0
 25 15  1  0  0  0  0
 26 30  1  0  0  0  0
 28 29  1  1  0  0  0
 28 25  1  0  0  0  0
 30 22  1  0  0  0  0
 30 24  2  0  0  0  0
 31 32  1  0  0  0  0
M  END
>  <MODEL>
1

>  <REMARK>
 VINA RESULT:      -8.4      0.000      0.000
  Name = 
  2 active torsions:
  status: ('A' for Active; 'I' for Inactive)
    1  A    between atoms: C_13  and  C_29
    2  A    between atoms: C_16  and  N_27
                            x       y       z     vdW  Elec       q    Type
                         _______ _______ _______ _____ _____    ______ ____

>  <TORSDO>
F 2

$$$$
=
 OpenBabel11052419163D

 32 37  0  0  1  0  0  0  0  0999 V2000
  191.6320  174.9560  145.7630 C   0  0  1  0  0  3  0  0  0  0  0  0
  189.7140  175.1990  144.2770 C   0  0  0  0  0  0  0  0  0  0  0  0
  192.2770  175.3770  146.8590 C   0  0  0  0  0  3  0  0  0  0  0  0
  190.2970  175.5040  145.4470 C   0  0  0  0  0  0  0  0  0  0  0  0
  188.3050  175.6550  143.9810 C   0  0  2  0  0  3  0  0  0  0  0  0
  189.9410  173.4460  139.5540 C   0  0  0  0  0  2  0  0  0  0  0  0
  190.3750  174.2900  143.3090 C   0  0  0  0  0  0  0  0  0  0  0  0
  188.2480  175.0850  140.3180 O   0  0  0  0  0  0  0  0  0  0  0  0
  188.6100  174.9580  141.6600 C   0  0  0  0  0  0  0  0  0  0  0  0
  189.5550  176.3390  146.4610 C   0  0  0  0  0  0  0  0  0  0  0  0
  188.0540  175.7340  142.5430 N   0  0  0  0  0  0  0  0  0  0  0  0
  188.8500  177.4900  145.7550 C   0  0  0  0  0  2  0  0  0  0  0  0
  190.4490  176.8590  147.5560 C   0  0  0  0  0  3  0  0  0  0  0  0
  191.5450  173.7130  143.6200 C   0  0  0  0  0  3  0  0  0  0  0  0
  192.2250  174.0130  144.8530 N   0  0  0  0  0  0  0  0  0  0  0  0
  189.6580  173.9330  142.0280 C   0  0  1  0  0  3  0  0  0  0  0  0
  187.8980  176.9840  144.6560 C   0  0  2  0  0  3  0  0  0  0  0  0
  191.6850  176.3900  147.7530 C   0  0  0  0  0  3  0  0  0  0  0  0
  188.5430  174.0600  139.3680 C   0  0  0  0  0  2  0  0  0  0  0  0
  190.6360  173.8570  140.8540 C   0  0  0  0  0  2  0  0  0  0  0  0
  195.5960  173.0790  143.6760 C   0  0  1  0  0  3  0  0  0  0  0  0
  196.6840  170.6660  146.3650 N   0  0  0  0  0  1  0  0  0  0  0  0
  196.5420  173.7880  142.7240 C   0  0  0  0  0  1  0  0  0  0  0  0
  194.5100  171.2120  145.6790 N   0  0  0  0  0  0  0  0  0  0  0  0
  193.5160  173.3900  145.1420 C   0  0  1  0  0  3  0  0  0  0  0  0
  196.3380  172.3360  144.6380 O   0  0  0  0  0  0  0  0  0  0  0  0
  193.4470  171.8770  144.9350 C   0  0  0  0  0  2  0  0  0  0  0  0
  194.6340  174.0720  144.3430 C   0  0  1  0  0  3  0  0  0  0  0  0
  195.3630  175.0640  145.2360 C   0  0  0  0  0  1  0  0  0  0  0  0
  195.7920  171.4100  145.5430 C   0  0  0  0  0  0  0  0  0  0  0  0
  186.4630  176.9180  145.1600 C   0  0  0  0  0  2  0  0  0  0  0  0
  185.5780  177.4250  144.2050 O   0  0  0  0  0  1  0  0  0  0  0  0
  1  3  1  6  0  0  0
  2  4  2  0  0  0  0
  3 18  2  0  0  0  0
  4  1  1  0  0  0  0
  4 10  1  0  0  0  0
  5 11  1  6  0  0  0
  5  2  1  0  0  0  0
  5 17  1  0  0  0  0
  6 20  1  0  0  0  0
  7 14  2  0  0  0  0
  7  2  1  0  0  0  0
  8  9  1  0  0  0  0
  9 16  1  0  0  0  0
  9 11  2  0  0  0  0
 10 13  2  0  0  0  0
 12 10  1  0  0  0  0
 13 18  1  0  0  0  0
 14 15  1  0  0  0  0
 15  1  1  0  0  0  0
 16 20  1  6  0  0  0
 16  7  1  0  0  0  0
 17 31  1  1  0  0  0
 17 12  1  0  0  0  0
 19  6  1  0  0  0  0
 19  8  1  0  0  0  0
 21 23  1  6  0  0  0
 21 28  1  0  0  0  0
 21 26  1  0  0  0  0
 25 15  1  6  0  0  0
 26 30  1  0  0  0  0
 27 25  1  0  0  0  0
 27 24  1  0  0  0  0
 28 25  1  0  0  0  0
 28 29  1  1  0  0  0
 30 24  2  0  0  0  0
 30 22  1  0  0  0  0
 32 31  1  0  0  0  0
M  END
>  <MODEL>
2

>  <REMARK>
 VINA RESULT:      -7.7      3.135      4.180
  Name = 
  2 active torsions:
  status: ('A' for Active; 'I' for Inactive)
    1  A    between atoms: C_13  and  C_29
    2  A    between atoms: C_16  and  N_27
                            x       y       z     vdW  Elec       q    Type
                         _______ _______ _______ _____ _____    ______ ____

>  <TORSDO>
F 2

$$$$
=
 OpenBabel11052419163D

 32 37  0  0  1  0  0  0  0  0999 V2000
  190.5980  174.2870  143.2490 C   0  0  1  0  0  3  0  0  0  0  0  0
  188.8100  175.8800  143.7090 C   0  0  0  0  0  0  0  0  0  0  0  0
  191.7570  173.7400  143.6370 C   0  0  0  0  0  3  0  0  0  0  0  0
  189.8900  175.2170  144.1510 C   0  0  0  0  0  0  0  0  0  0  0  0
  188.0070  176.7480  144.6470 C   0  0  2  0  0  3  0  0  0  0  0  0
  185.8780  177.5390  139.9570 C   0  0  0  0  0  2  0  0  0  0  0  0
  188.2940  175.6660  142.3350 C   0  0  0  0  0  0  0  0  0  0  0  0
  186.0490  178.6710  142.1530 O   0  0  0  0  0  0  0  0  0  0  0  0
  186.7940  177.6370  142.7220 C   0  0  0  0  0  0  0  0  0  0  0  0
  190.3280  175.3670  145.5880 C   0  0  0  0  0  0  0  0  0  0  0  0
  187.2650  177.7810  143.9250 N   0  0  0  0  0  0  0  0  0  0  0  0
  190.2380  176.8320  145.9960 C   0  0  0  0  0  2  0  0  0  0  0  0
  191.7140  174.8320  145.8350 C   0  0  0  0  0  3  0  0  0  0  0  0
  188.8710  174.7580  141.5340 C   0  0  0  0  0  3  0  0  0  0  0  0
  190.0400  174.0280  141.9480 N   0  0  0  0  0  0  0  0  0  0  0  0
  187.0440  176.3940  141.8980 C   0  0  1  0  0  3  0  0  0  0  0  0
  188.8200  177.3930  145.7910 C   0  0  2  0  0  3  0  0  0  0  0  0
  192.3510  174.0600  144.9490 C   0  0  0  0  0  3  0  0  0  0  0  0
  185.2230  178.4510  141.0090 C   0  0  0  0  0  2  0  0  0  0  0  0
  187.1530  176.8440  140.4390 C   0  0  0  0  0  2  0  0  0  0  0  0
  190.8750  173.0840  138.4780 C   0  0  1  0  0  3  0  0  0  0  0  0
  191.8600  169.4670  138.9050 N   0  0  0  0  0  1  0  0  0  0  0  0
  191.2520  173.9420  137.2850 C   0  0  0  0  0  1  0  0  0  0  0  0
  190.4290  170.7620  140.2350 N   0  0  0  0  0  0  0  0  0  0  0  0
  190.6610  173.0710  141.0340 C   0  0  1  0  0  3  0  0  0  0  0  0
  191.5030  171.8100  138.3820 O   0  0  0  0  0  0  0  0  0  0  0  0
  189.6960  171.9330  140.7000 C   0  0  0  0  0  2  0  0  0  0  0  0
  191.2190  173.7890  139.7980 C   0  0  1  0  0  3  0  0  0  0  0  0
  192.7170  173.9950  139.9640 C   0  0  0  0  0  1  0  0  0  0  0  0
  191.2250  170.7040  139.2040 C   0  0  0  0  0  0  0  0  0  0  0  0
  188.0300  177.3780  147.0930 C   0  0  0  0  0  2  0  0  0  0  0  0
  186.9310  176.5230  146.9960 O   0  0  0  0  0  1  0  0  0  0  0  0
  1  3  1  6  0  0  0
  1  4  1  0  0  0  0
  2  4  2  0  0  0  0
  3 18  2  0  0  0  0
  4 10  1  0  0  0  0
  5  2  1  6  0  0  0
  5 17  1  0  0  0  0
  6 20  1  0  0  0  0
  6 19  1  0  0  0  0
  7  2  1  0  0  0  0
  8  9  1  0  0  0  0
  9 11  2  0  0  0  0
 10 13  2  0  0  0  0
 10 12  1  0  0  0  0
 11  5  1  0  0  0  0
 14 15  1  0  0  0  0
 14  7  2  0  0  0  0
 15  1  1  0  0  0  0
 16 20  1  6  0  0  0
 16  7  1  0  0  0  0
 16  9  1  0  0  0  0
 17 12  1  0  0  0  0
 17 31  1  1  0  0  0
 18 13  1  0  0  0  0
 19  8  1  0  0  0  0
 21 23  1  6  0  0  0
 21 28  1  0  0  0  0
 22 30  1  0  0  0  0
 24 27  1  0  0  0  0
 25 27  1  6  0  0  0
 25 15  1  0  0  0  0
 26 21  1  0  0  0  0
 26 30  1  0  0  0  0
 28 29  1  1  0  0  0
 28 25  1  0  0  0  0
 30 24  2  0  0  0  0
 32 31  1  0  0  0  0
M  END
>  <MODEL>
3

>  <REMARK>
 VINA RESULT:      -7.4      1.403      1.669
  Name = 
  2 active torsions:
  status: ('A' for Active; 'I' for Inactive)
    1  A    between atoms: C_13  and  C_29
    2  A    between atoms: C_16  and  N_27
                            x       y       z     vdW  Elec       q    Type
                         _______ _______ _______ _____ _____    ______ ____

>  <TORSDO>
F 2

$$$$
=
 OpenBabel11052419163D

 32 37  0  0  1  0  0  0  0  0999 V2000
  189.9000  175.2460  144.4580 C   0  0  1  0  0  3  0  0  0  0  0  0
  187.7480  176.3810  144.2870 C   0  0  0  0  0  0  0  0  0  0  0  0
  190.9620  174.9380  145.2130 C   0  0  0  0  0  3  0  0  0  0  0  0
  188.7470  175.9390  145.0680 C   0  0  0  0  0  0  0  0  0  0  0  0
  186.5090  176.9910  144.9000 C   0  0  2  0  0  3  0  0  0  0  0  0
  185.8940  177.6140  139.7630 C   0  0  0  0  0  2  0  0  0  0  0  0
  187.7670  176.1530  142.8220 C   0  0  0  0  0  0  0  0  0  0  0  0
  185.0840  178.6070  141.8820 O   0  0  0  0  0  0  0  0  0  0  0  0
  185.8180  177.7220  142.6740 C   0  0  0  0  0  0  0  0  0  0  0  0
  188.6500  176.0840  146.5670 C   0  0  0  0  0  0  0  0  0  0  0  0
  185.8290  177.8850  143.9640 N   0  0  0  0  0  0  0  0  0  0  0  0
  188.1040  177.4640  146.9100 C   0  0  0  0  0  2  0  0  0  0  0  0
  189.9630  175.8460  147.2630 C   0  0  0  0  0  3  0  0  0  0  0  0
  188.7610  175.4460  142.2640 C   0  0  0  0  0  3  0  0  0  0  0  0
  189.8660  174.9600  143.0480 N   0  0  0  0  0  0  0  0  0  0  0  0
  186.5960  176.6210  141.9900 C   0  0  1  0  0  3  0  0  0  0  0  0
  186.7400  177.7180  146.2420 C   0  0  2  0  0  3  0  0  0  0  0  0
  191.0100  175.2910  146.6440 C   0  0  0  0  0  3  0  0  0  0  0  0
  184.7460  178.2910  140.5310 C   0  0  0  0  0  2  0  0  0  0  0  0
  187.0660  177.1800  140.6450 C   0  0  0  0  0  2  0  0  0  0  0  0
  192.3750  172.2590  143.2260 C   0  0  1  0  0  3  0  0  0  0  0  0
  194.5870  173.0990  140.2860 N   0  0  0  0  0  1  0  0  0  0  0  0
  192.3160  170.8980  143.8950 C   0  0  0  0  0  1  0  0  0  0  0  0
  193.2350  174.5300  141.5580 N   0  0  0  0  0  0  0  0  0  0  0  0
  190.9500  174.2230  142.3990 C   0  0  1  0  0  3  0  0  0  0  0  0
  193.2190  172.2030  142.0790 O   0  0  0  0  0  0  0  0  0  0  0  0
  192.2840  174.9470  142.5820 C   0  0  0  0  0  2  0  0  0  0  0  0
  190.9690  172.7650  142.8730 C   0  0  1  0  0  3  0  0  0  0  0  0
  190.2880  171.8850  141.8360 C   0  0  0  0  0  1  0  0  0  0  0  0
  193.6550  173.3150  141.3390 C   0  0  0  0  0  0  0  0  0  0  0  0
  185.5960  177.4460  147.2100 C   0  0  0  0  0  2  0  0  0  0  0  0
  184.7460  178.5500  147.2960 O   0  0  0  0  0  1  0  0  0  0  0  0
  1  4  1  0  0  0  0
  1  3  1  6  0  0  0
  2  5  1  0  0  0  0
  2  4  2  0  0  0  0
  3 18  2  0  0  0  0
  4 10  1  0  0  0  0
  5 11  1  6  0  0  0
  5 17  1  0  0  0  0
  6 19  1  0  0  0  0
  6 20  1  0  0  0  0
  7  2  1  0  0  0  0
  8  9  1  0  0  0  0
  9 11  2  0  0  0  0
 10 12  1  0  0  0  0
 10 13  2  0  0  0  0
 14  7  2  0  0  0  0
 14 15  1  0  0  0  0
 15  1  1  0  0  0  0
 16 20  1  6  0  0  0
 16  9  1  0  0  0  0
 16  7  1  0  0  0  0
 17 12  1  0  0  0  0
 17 31  1  1  0  0  0
 18 13  1  0  0  0  0
 19  8  1  0  0  0  0
 21 23  1  6  0  0  0
 22 30  1  0  0  0  0
 24 27  1  0  0  0  0
 25 27  1  1  0  0  0
 25 28  1  0  0  0  0
 25 15  1  0  0  0  0
 26 21  1  0  0  0  0
 28 29  1  6  0  0  0
 28 21  1  0  0  0  0
 30 24  2  0  0  0  0
 30 26  1  0  0  0  0
 31 32  1  0  0  0  0
M  END
>  <MODEL>
4

>  <REMARK>
 VINA RESULT:      -7.4      1.488      2.075
  Name = 
  2 active torsions:
  status: ('A' for Active; 'I' for Inactive)
    1  A    between atoms: C_13  and  C_29
    2  A    between atoms: C_16  and  N_27
                            x       y       z     vdW  Elec       q    Type
                         _______ _______ _______ _____ _____    ______ ____

>  <TORSDO>
F 2

$$$$
=
 OpenBabel11052419163D

 32 37  0  0  1  0  0  0  0  0999 V2000
  191.9670  173.9730  144.3070 C   0  0  1  0  0  3  0  0  0  0  0  0
  190.5810  175.4700  145.6450 C   0  0  0  0  0  0  0  0  0  0  0  0
  193.1900  173.5030  144.0350 C   0  0  0  0  0  3  0  0  0  0  0  0
  191.7720  174.8790  145.4580 C   0  0  0  0  0  0  0  0  0  0  0  0
  190.3270  176.3090  146.8740 C   0  0  2  0  0  3  0  0  0  0  0  0
  186.0390  176.8790  143.9680 C   0  0  0  0  0  2  0  0  0  0  0  0
  189.4440  175.1980  144.7330 C   0  0  0  0  0  0  0  0  0  0  0  0
  187.2510  178.0640  145.7740 O   0  0  0  0  0  0  0  0  0  0  0  0
  188.2430  177.0860  145.8630 C   0  0  0  0  0  0  0  0  0  0  0  0
  192.8790  175.0840  146.4630 C   0  0  0  0  0  0  0  0  0  0  0  0
  189.2580  177.2820  146.6510 N   0  0  0  0  0  0  0  0  0  0  0  0
  192.9250  176.5490  146.8770 C   0  0  0  0  0  2  0  0  0  0  0  0
  194.2220  174.6350  145.9530 C   0  0  0  0  0  3  0  0  0  0  0  0
  189.5770  174.3080  143.7370 C   0  0  0  0  0  3  0  0  0  0  0  0
  190.8330  173.6560  143.4790 N   0  0  0  0  0  0  0  0  0  0  0  0
  188.1070  175.8440  145.0130 C   0  0  1  0  0  3  0  0  0  0  0  0
  191.5730  177.0230  147.4410 C   0  0  2  0  0  3  0  0  0  0  0  0
  194.3560  173.8830  144.8550 C   0  0  0  0  0  3  0  0  0  0  0  0
  185.9680  177.7730  145.2180 C   0  0  0  0  0  2  0  0  0  0  0  0
  187.4190  176.2690  143.7130 C   0  0  0  0  0  2  0  0  0  0  0  0
  189.7290  172.6270  140.1110 C   0  0  1  0  0  3  0  0  0  0  0  0
  191.1600  169.1430  139.8880 N   0  0  0  0  0  1  0  0  0  0  0  0
  189.2990  173.4570  138.9150 C   0  0  0  0  0  1  0  0  0  0  0  0
  190.5620  170.3610  141.7980 N   0  0  0  0  0  0  0  0  0  0  0  0
  190.9500  172.7180  142.3630 C   0  0  1  0  0  3  0  0  0  0  0  0
  190.3320  171.4140  139.6710 O   0  0  0  0  0  0  0  0  0  0  0  0
  190.0850  171.4800  142.6030 C   0  0  0  0  0  2  0  0  0  0  0  0
  190.6620  173.4250  141.0330 C   0  0  1  0  0  3  0  0  0  0  0  0
  191.9750  173.7780  140.3510 C   0  0  0  0  0  1  0  0  0  0  0  0
  190.6660  170.3290  140.4990 C   0  0  0  0  0  0  0  0  0  0  0  0
  191.5720  176.9890  148.9640 C   0  0  0  0  0  2  0  0  0  0  0  0
  191.4330  178.2760  149.4880 O   0  0  0  0  0  1  0  0  0  0  0  0
  1  3  1  6  0  0  0
  1  4  1  0  0  0  0
  3 18  2  0  0  0  0
  4  2  2  0  0  0  0
  4 10  1  0  0  0  0
  5  2  1  6  0  0  0
  5 17  1  0  0  0  0
  6 19  1  0  0  0  0
  7 16  1  0  0  0  0
  7  2  1  0  0  0  0
  8  9  1  0  0  0  0
  9 11  2  0  0  0  0
 10 12  1  0  0  0  0
 11  5  1  0  0  0  0
 12 17  1  0  0  0  0
 13 10  2  0  0  0  0
 14  7  2  0  0  0  0
 15 14  1  0  0  0  0
 15  1  1  0  0  0  0
 16 20  1  6  0  0  0
 16  9  1  0  0  0  0
 17 31  1  1  0  0  0
 18 13  1  0  0  0  0
 19  8  1  0  0  0  0
 20  6  1  0  0  0  0
 21 23  1  6  0  0  0
 21 28  1  0  0  0  0
 22 30  1  0  0  0  0
 24 27  1  0  0  0  0
 25 27  1  1  0  0  0
 25 15  1  0  0  0  0
 26 21  1  0  0  0  0
 26 30  1  0  0  0  0
 28 29  1  6  0  0  0
 28 25  1  0  0  0  0
 30 24  2  0  0  0  0
 31 32  1  0  0  0  0
M  END
>  <MODEL>
5

>  <REMARK>
 VINA RESULT:      -7.4      2.172      3.339
  Name = 
  2 active torsions:
  status: ('A' for Active; 'I' for Inactive)
    1  A    between atoms: C_13  and  C_29
    2  A    between atoms: C_16  and  N_27
                            x       y       z     vdW  Elec       q    Type
                         _______ _______ _______ _____ _____    ______ ____

>  <TORSDO>
F 2

$$$$
=
 OpenBabel11052419163D

 32 37  0  0  1  0  0  0  0  0999 V2000
  190.0630  175.6780  145.5720 C   0  0  1  0  0  3  0  0  0  0  0  0
  191.3750  174.7360  143.7450 C   0  0  0  0  0  0  0  0  0  0  0  0
  189.9470  175.8980  146.8880 C   0  0  0  0  0  3  0  0  0  0  0  0
  191.3100  175.0950  145.0370 C   0  0  0  0  0  0  0  0  0  0  0  0
  192.6730  174.2420  143.1510 C   0  0  2  0  0  3  0  0  0  0  0  0
  189.1590  173.6330  139.3520 C   0  0  0  0  0  2  0  0  0  0  0  0
  190.2230  174.9490  142.8350 C   0  0  0  0  0  0  0  0  0  0  0  0
  191.3650  172.7330  140.0270 O   0  0  0  0  0  0  0  0  0  0  0  0
  191.4490  173.5560  141.1510 C   0  0  0  0  0  0  0  0  0  0  0  0
  192.5320  174.9710  145.9140 C   0  0  0  0  0  0  0  0  0  0  0  0
  192.4430  173.4040  141.9760 N   0  0  0  0  0  0  0  0  0  0  0  0
  193.2290  173.6470  145.6300 C   0  0  0  0  0  2  0  0  0  0  0  0
  192.2140  175.0990  147.3800 C   0  0  0  0  0  3  0  0  0  0  0  0
  189.1160  175.5610  143.2840 C   0  0  0  0  0  3  0  0  0  0  0  0
  188.9830  175.9550  144.6610 N   0  0  0  0  0  0  0  0  0  0  0  0
  190.3590  174.5780  141.3770 C   0  0  1  0  0  3  0  0  0  0  0  0
  193.6020  173.5090  144.1430 C   0  0  2  0  0  3  0  0  0  0  0  0
  191.0370  175.5550  147.8200 C   0  0  0  0  0  3  0  0  0  0  0  0
  190.5230  173.0660  138.9230 C   0  0  0  0  0  2  0  0  0  0  0  0
  189.0620  173.9690  140.8410 C   0  0  0  0  0  2  0  0  0  0  0  0
  186.4610  178.6120  144.2160 C   0  0  1  0  0  3  0  0  0  0  0  0
  184.6260  178.4600  147.5090 N   0  0  0  0  0  1  0  0  0  0  0  0
  185.9100  179.2490  142.9540 C   0  0  0  0  0  1  0  0  0  0  0  0
  186.8320  177.8280  147.0310 N   0  0  0  0  0  0  0  0  0  0  0  0
  187.7480  176.5880  145.1210 C   0  0  1  0  0  3  0  0  0  0  0  0
  185.4710  178.6210  145.2400 O   0  0  0  0  0  0  0  0  0  0  0  0
  188.0360  177.5840  146.2450 C   0  0  0  0  0  2  0  0  0  0  0  0
  186.9820  177.1950  143.9390 C   0  0  1  0  0  3  0  0  0  0  0  0
  185.8670  176.2490  143.5180 C   0  0  0  0  0  1  0  0  0  0  0  0
  185.6970  178.2930  146.5880 C   0  0  0  0  0  0  0  0  0  0  0  0
  195.0580  173.8880  143.9040 C   0  0  0  0  0  2  0  0  0  0  0  0
  195.1610  175.2170  143.4860 O   0  0  0  0  0  1  0  0  0  0  0  0
  1  3  1  1  0  0  0
  2  4  2  0  0  0  0
  3 18  2  0  0  0  0
  4  1  1  0  0  0  0
  4 10  1  0  0  0  0
  5 11  1  6  0  0  0
  5  2  1  0  0  0  0
  5 17  1  0  0  0  0
  6 20  1  0  0  0  0
  7 14  2  0  0  0  0
  7  2  1  0  0  0  0
  8  9  1  0  0  0  0
  9 16  1  0  0  0  0
  9 11  2  0  0  0  0
 10 13  2  0  0  0  0
 12 10  1  0  0  0  0
 13 18  1  0  0  0  0
 14 15  1  0  0  0  0
 15  1  1  0  0  0  0
 16 20  1  1  0  0  0
 16  7  1  0  0  0  0
 17 31  1  1  0  0  0
 17 12  1  0  0  0  0
 19  6  1  0  0  0  0
 19  8  1  0  0  0  0
 21 23  1  6  0  0  0
 21 26  1  0  0  0  0
 25 15  1  6  0  0  0
 25 27  1  0  0  0  0
 26 30  1  0  0  0  0
 27 24  1  0  0  0  0
 28 29  1  1  0  0  0
 28 21  1  0  0  0  0
 28 25  1  0  0  0  0
 30 24  2  0  0  0  0
 30 22  1  0  0  0  0
 32 31  1  0  0  0  0
M  END
>  <MODEL>
6

>  <REMARK>
 VINA RESULT:      -6.9      2.177      6.959
  Name = 
  2 active torsions:
  status: ('A' for Active; 'I' for Inactive)
    1  A    between atoms: C_13  and  C_29
    2  A    between atoms: C_16  and  N_27
                            x       y       z     vdW  Elec       q    Type
                         _______ _______ _______ _____ _____    ______ ____

>  <TORSDO>
F 2

$$$$
=
 OpenBabel11052419163D

 32 37  0  0  1  0  0  0  0  0999 V2000
  190.5780  174.2790  142.1260 C   0  0  0  0  0  0  0  0  0  0  0  0
  189.6780  176.0700  143.5150 C   0  0  0  0  0  0  0  0  0  0  0  0
  190.4010  173.4510  141.0890 C   0  0  0  0  0  3  0  0  0  0  0  0
  189.5830  175.3370  142.3940 C   0  0  0  0  0  0  0  0  0  0  0  0
  188.7390  177.2290  143.7530 C   0  0  2  0  0  3  0  0  0  0  0  0
  191.4980  176.8270  148.1560 C   0  0  0  0  0  2  0  0  0  0  0  0
  190.7880  175.8570  144.4740 C   0  0  0  0  0  0  0  0  0  0  0  0
  189.3320  177.7420  147.3780 O   0  0  0  0  0  0  0  0  0  0  0  0
  189.5530  177.3620  146.0530 C   0  0  0  0  0  0  0  0  0  0  0  0
  188.5100  175.6490  141.3800 C   0  0  2  0  0  3  0  0  0  0  0  0
  188.6060  177.5310  145.1780 N   0  0  0  0  0  0  0  0  0  0  0  0
  187.1960  175.9280  142.1000 C   0  0  0  0  0  2  0  0  0  0  0  0
  188.3330  174.5540  140.3620 C   0  0  0  0  0  3  0  0  0  0  0  0
  191.7510  174.9630  144.2010 C   0  0  0  0  0  3  0  0  0  0  0  0
  191.6950  174.1380  143.0230 N   0  0  0  0  0  0  0  0  0  0  0  0
  190.8840  176.7410  145.6950 C   0  0  1  0  0  3  0  0  0  0  0  0
  187.3390  177.0710  143.1200 C   0  0  2  0  0  3  0  0  0  0  0  0
  189.2210  173.5660  140.2120 C   0  0  0  0  0  3  0  0  0  0  0  0
  190.4150  177.9100  148.2940 C   0  0  0  0  0  2  0  0  0  0  0  0
  191.3440  175.9420  146.9170 C   0  0  0  0  0  2  0  0  0  0  0  0
  194.4060  172.0300  144.3760 C   0  0  1  0  0  3  0  0  0  0  0  0
  196.1710  170.9640  141.2170 N   0  0  0  0  0  1  0  0  0  0  0  0
  194.5330  171.3220  145.7120 C   0  0  0  0  0  1  0  0  0  0  0  0
  194.8800  172.8830  141.5970 N   0  0  0  0  0  0  0  0  0  0  0  0
  192.7440  173.1500  142.7770 C   0  0  1  0  0  3  0  0  0  0  0  0
  195.1050  171.3040  143.3700 O   0  0  0  0  0  0  0  0  0  0  0  0
  194.0310  173.8310  142.3100 C   0  0  0  0  0  2  0  0  0  0  0  0
  192.9330  172.2470  144.0020 C   0  0  1  0  0  3  0  0  0  0  0  0
  192.1990  170.9330  143.7820 C   0  0  0  0  0  1  0  0  0  0  0  0
  195.3610  171.7670  142.0680 C   0  0  0  0  0  0  0  0  0  0  0  0
  186.8570  178.3920  142.5350 C   0  0  0  0  0  2  0  0  0  0  0  0
  186.0400  179.0680  143.4430 O   0  0  0  0  0  1  0  0  0  0  0  0
  1  4  1  0  0  0  0
  1 15  1  0  0  0  0
  2  7  1  0  0  0  0
  3  1  2  0  0  0  0
  4  2  2  0  0  0  0
  5  2  1  1  0  0  0
  5 11  1  0  0  0  0
  6 19  1  0  0  0  0
  7 16  1  0  0  0  0
  8 19  1  0  0  0  0
  9  8  1  0  0  0  0
 10 13  1  6  0  0  0
 10 12  1  0  0  0  0
 10  4  1  0  0  0  0
 11  9  2  0  0  0  0
 12 17  1  0  0  0  0
 14  7  2  0  0  0  0
 15 14  1  0  0  0  0
 16  9  1  0  0  0  0
 16 20  1  1  0  0  0
 17 31  1  6  0  0  0
 17  5  1  0  0  0  0
 18 13  2  0  0  0  0
 18  3  1  0  0  0  0
 20  6  1  0  0  0  0
 21 23  1  1  0  0  0
 22 30  1  0  0  0  0
 24 30  2  0  0  0  0
 24 27  1  0  0  0  0
 25 27  1  1  0  0  0
 25 15  1  0  0  0  0
 25 28  1  0  0  0  0
 26 21  1  0  0  0  0
 28 29  1  6  0  0  0
 28 21  1  0  0  0  0
 30 26  1  0  0  0  0
 31 32  1  0  0  0  0
M  END
>  <MODEL>
7

>  <REMARK>
 VINA RESULT:      -6.7      2.561      5.195
  Name = 
  2 active torsions:
  status: ('A' for Active; 'I' for Inactive)
    1  A    between atoms: C_13  and  C_29
    2  A    between atoms: C_16  and  N_27
                            x       y       z     vdW  Elec       q    Type
                         _______ _______ _______ _____ _____    ______ ____

>  <TORSDO>
F 2

$$$$
=
 OpenBabel11052419163D

 32 37  0  0  1  0  0  0  0  0999 V2000
  192.3420  173.7670  141.9670 C   0  0  1  0  0  3  0  0  0  0  0  0
  191.1370  175.0680  143.6410 C   0  0  0  0  0  0  0  0  0  0  0  0
  193.5210  173.3910  141.4570 C   0  0  0  0  0  3  0  0  0  0  0  0
  192.3040  174.5640  143.2090 C   0  0  0  0  0  0  0  0  0  0  0  0
  191.0580  175.7900  144.9650 C   0  0  2  0  0  3  0  0  0  0  0  0
  186.3210  176.3430  142.8650 C   0  0  0  0  0  2  0  0  0  0  0  0
  189.8760  174.8060  142.9080 C   0  0  0  0  0  0  0  0  0  0  0  0
  187.7670  177.4460  144.5450 O   0  0  0  0  0  0  0  0  0  0  0  0
  188.8020  176.5240  144.3830 C   0  0  0  0  0  0  0  0  0  0  0  0
  193.5550  174.7510  144.0340 C   0  0  0  0  0  0  0  0  0  0  0  0
  189.9260  176.7140  145.0080 N   0  0  0  0  0  0  0  0  0  0  0  0
  193.6060  176.1780  144.5630 C   0  0  0  0  0  2  0  0  0  0  0  0
  194.8110  174.4230  143.2720 C   0  0  0  0  0  3  0  0  0  0  0  0
  189.8780  174.0080  141.8290 C   0  0  0  0  0  3  0  0  0  0  0  0
  191.1000  173.4520  141.3110 N   0  0  0  0  0  0  0  0  0  0  0  0
  188.5780  175.3480  143.4600 C   0  0  1  0  0  3  0  0  0  0  0  0
  192.3500  176.5260  145.3810 C   0  0  2  0  0  3  0  0  0  0  0  0
  194.7910  173.7710  142.1050 C   0  0  0  0  0  3  0  0  0  0  0  0
  186.4230  177.1280  144.1840 C   0  0  0  0  0  2  0  0  0  0  0  0
  187.6640  175.8360  142.3340 C   0  0  0  0  0  2  0  0  0  0  0  0
  189.6200  172.7600  138.0010 C   0  0  1  0  0  3  0  0  0  0  0  0
  190.8930  169.2730  137.3280 N   0  0  0  0  0  1  0  0  0  0  0  0
  189.1010  173.7060  136.9340 C   0  0  0  0  0  1  0  0  0  0  0  0
  190.5390  170.3300  139.3900 N   0  0  0  0  0  0  0  0  0  0  0  0
  191.0680  172.6150  140.1120 C   0  0  1  0  0  3  0  0  0  0  0  0
  190.1300  171.5750  137.3970 O   0  0  0  0  0  0  0  0  0  0  0  0
  190.1880  171.3850  140.3330 C   0  0  0  0  0  2  0  0  0  0  0  0
  190.6710  173.4460  138.8850 C   0  0  1  0  0  3  0  0  0  0  0  0
  191.9200  173.8230  138.1020 C   0  0  0  0  0  1  0  0  0  0  0  0
  190.5080  170.4110  138.0890 C   0  0  0  0  0  0  0  0  0  0  0  0
  192.6060  176.3700  146.8750 C   0  0  0  0  0  2  0  0  0  0  0  0
  192.0810  175.1640  147.3440 O   0  0  0  0  0  1  0  0  0  0  0  0
  1  3  1  6  0  0  0
  1  4  1  0  0  0  0
  3 18  2  0  0  0  0
  4  2  2  0  0  0  0
  4 10  1  0  0  0  0
  5  2  1  6  0  0  0
  5 11  1  0  0  0  0
  5 17  1  0  0  0  0
  6 19  1  0  0  0  0
  7 16  1  0  0  0  0
  7  2  1  0  0  0  0
  9  8  1  0  0  0  0
  9 11  2  0  0  0  0
 10 12  1  0  0  0  0
 12 17  1  0  0  0  0
 13 10  2  0  0  0  0
 14  7  2  0  0  0  0
 15 14  1  0  0  0  0
 15  1  1  0  0  0  0
 16 20  1  6  0  0  0
 16  9  1  0  0  0  0
 17 31  1  1  0  0  0
 18 13  1  0  0  0  0
 19  8  1  0  0  0  0
 20  6  1  0  0  0  0
 21 23  1  6  0  0  0
 21 28  1  0  0  0  0
 22 30  1  0  0  0  0
 24 27  1  0  0  0  0
 25 27  1  1  0  0  0
 25 15  1  0  0  0  0
 26 21  1  0  0  0  0
 26 30  1  0  0  0  0
 28 29  1  6  0  0  0
 28 25  1  0  0  0  0
 30 24  2  0  0  0  0
 31 32  1  0  0  0  0
M  END
>  <MODEL>
8

>  <REMARK>
 VINA RESULT:      -6.6      2.631      4.154
  Name = 
  2 active torsions:
  status: ('A' for Active; 'I' for Inactive)
    1  A    between atoms: C_13  and  C_29
    2  A    between atoms: C_16  and  N_27
                            x       y       z     vdW  Elec       q    Type
                         _______ _______ _______ _____ _____    ______ ____

>  <TORSDO>
F 2

$$$$
=
 OpenBabel11052419163D

 32 37  0  0  1  0  0  0  0  0999 V2000
  191.2460  174.5000  142.2220 C   0  0  0  0  0  0  0  0  0  0  0  0
  189.6610  175.8900  143.4470 C   0  0  0  0  0  0  0  0  0  0  0  0
  191.4520  173.6050  141.2480 C   0  0  0  0  0  3  0  0  0  0  0  0
  189.9100  175.1080  142.3850 C   0  0  0  0  0  0  0  0  0  0  0  0
  188.3400  176.6110  143.5740 C   0  0  2  0  0  3  0  0  0  0  0  0
  190.8170  177.5790  148.0550 C   0  0  0  0  0  2  0  0  0  0  0  0
  190.7190  176.1820  144.4440 C   0  0  0  0  0  0  0  0  0  0  0  0
  188.5080  177.5390  147.1600 O   0  0  0  0  0  0  0  0  0  0  0  0
  188.9240  177.1910  145.8740 C   0  0  0  0  0  0  0  0  0  0  0  0
  188.8510  174.9180  141.3260 C   0  0  2  0  0  3  0  0  0  0  0  0
  188.0300  176.9270  144.9680 N   0  0  0  0  0  0  0  0  0  0  0  0
  187.4970  174.7150  141.9920 C   0  0  0  0  0  2  0  0  0  0  0  0
  189.1580  173.7780  140.3910 C   0  0  0  0  0  3  0  0  0  0  0  0
  191.9620  175.7120  144.2630 C   0  0  0  0  0  3  0  0  0  0  0  0
  192.2860  174.8570  143.1510 N   0  0  0  0  0  0  0  0  0  0  0  0
  190.4080  177.1100  145.5950 C   0  0  1  0  0  3  0  0  0  0  0  0
  187.1400  175.8870  142.9240 C   0  0  2  0  0  3  0  0  0  0  0  0
  190.3630  173.2010  140.3380 C   0  0  0  0  0  3  0  0  0  0  0  0
  189.3970  178.1690  148.0840 C   0  0  0  0  0  2  0  0  0  0  0  0
  191.0760  176.6280  146.8850 C   0  0  0  0  0  2  0  0  0  0  0  0
  195.6500  174.4050  144.6010 C   0  0  1  0  0  3  0  0  0  0  0  0
  197.6360  173.3620  141.5680 N   0  0  0  0  0  1  0  0  0  0  0  0
  196.0830  174.1670  146.0350 C   0  0  0  0  0  1  0  0  0  0  0  0
  195.6760  174.6440  141.6650 N   0  0  0  0  0  0  0  0  0  0  0  0
  193.6440  174.3360  143.0060 C   0  0  1  0  0  3  0  0  0  0  0  0
  196.5660  173.7850  143.7040 O   0  0  0  0  0  0  0  0  0  0  0  0
  194.5260  175.3270  142.2470 C   0  0  0  0  0  2  0  0  0  0  0  0
  194.2110  173.9220  144.3690 C   0  0  1  0  0  3  0  0  0  0  0  0
  194.0800  172.4150  144.5370 C   0  0  0  0  0  1  0  0  0  0  0  0
  196.5840  173.9660  142.3100 C   0  0  0  0  0  0  0  0  0  0  0  0
  186.2200  176.8810  142.2280 C   0  0  0  0  0  2  0  0  0  0  0  0
  185.1900  177.2840  143.0800 O   0  0  0  0  0  1  0  0  0  0  0  0
  1  4  1  0  0  0  0
  1 15  1  0  0  0  0
  2  7  1  0  0  0  0
  3  1  2  0  0  0  0
  4  2  2  0  0  0  0
  5  2  1  1  0  0  0
  5 11  1  0  0  0  0
  6 19  1  0  0  0  0
  7 16  1  0  0  0  0
  8 19  1  0  0  0  0
  9  8  1  0  0  0  0
 10 13  1  1  0  0  0
 10 12  1  0  0  0  0
 10  4  1  0  0  0  0
 11  9  2  0  0  0  0
 12 17  1  0  0  0  0
 14  7  2  0  0  0  0
 15 14  1  0  0  0  0
 16  9  1  0  0  0  0
 16 20  1  1  0  0  0
 17 31  1  6  0  0  0
 17  5  1  0  0  0  0
 18 13  2  0  0  0  0
 18  3  1  0  0  0  0
 20  6  1  0  0  0  0
 21 23  1  1  0  0  0
 22 30  1  0  0  0  0
 24 27  1  0  0  0  0
 24 30  2  0  0  0  0
 25 27  1  1  0  0  0
 25 15  1  0  0  0  0
 25 28  1  0  0  0  0
 26 21  1  0  0  0  0
 28 29  1  6  0  0  0
 28 21  1  0  0  0  0
 30 26  1  0  0  0  0
 31 32  1  0  0  0  0
M  END
>  <MODEL>
9

>  <REMARK>
 VINA RESULT:      -6.5      3.011      5.517
  Name = 
  2 active torsions:
  status: ('A' for Active; 'I' for Inactive)
    1  A    between atoms: C_13  and  C_29
    2  A    between atoms: C_16  and  N_27
                            x       y       z     vdW  Elec       q    Type
                         _______ _______ _______ _____ _____    ______ ____

>  <TORSDO>
F 2

$$$$
