=
 OpenBabel11052418273D

 27 31  0  0  1  0  0  0  0  0999 V2000
  188.7140  176.8490  145.9260 N   0  0  0  0  0  2  0  0  0  0  0  0
  188.2130  176.2750  143.6320 C   0  0  0  0  0  0  0  0  0  0  0  0
  190.6600  176.4460  143.6620 O   0  0  0  0  0  0  0  0  0  0  0  0
  188.4390  173.4450  140.5630 C   0  0  0  0  0  3  0  0  0  0  0  0
  189.7420  172.1530  139.0410 F   0  0  0  0  0  0  0  0  0  0  0  0
  187.0650  175.6720  143.0930 C   0  0  0  0  0  3  0  0  0  0  0  0
  190.7950  174.5720  141.5760 C   0  0  0  0  0  3  0  0  0  0  0  0
  192.8680  176.4500  146.6050 C   0  0  0  0  0  0  0  0  0  0  0  0
  190.8550  173.6300  140.5450 C   0  0  0  0  0  3  0  0  0  0  0  0
  194.2320  176.3810  146.8540 O   0  0  0  0  0  1  0  0  0  0  0  0
  189.5570  174.9600  142.1050 C   0  0  0  0  0  0  0  0  0  0  0  0
  188.1270  177.3320  144.6900 C   0  0  1  0  0  3  0  0  0  0  0  0
  189.6800  173.0660  140.0390 C   0  0  0  0  0  0  0  0  0  0  0  0
  188.3720  174.3870  141.5930 C   0  0  0  0  0  0  0  0  0  0  0  0
  190.1140  176.6230  146.1000 C   0  0  0  0  0  0  0  0  0  0  0  0
  189.4760  175.8940  143.1500 C   0  0  0  0  0  0  0  0  0  0  0  0
  192.3990  176.4650  145.2910 C   0  0  0  0  0  3  0  0  0  0  0  0
  187.1670  174.7510  142.1000 N   0  0  0  0  0  0  0  0  0  0  0  0
  191.9670  176.4940  147.6670 C   0  0  0  0  0  3  0  0  0  0  0  0
  190.5990  176.5850  147.4110 C   0  0  0  0  0  3  0  0  0  0  0  0
  191.0280  176.5260  145.0150 C   0  0  0  0  0  0  0  0  0  0  0  0
  184.1810  178.8790  145.4430 C   0  0  0  0  0  3  0  0  0  0  0  0
  186.7450  177.8730  144.9300 C   0  0  0  0  0  0  0  0  0  0  0  0
  185.9630  177.3170  145.9480 C   0  0  0  0  0  3  0  0  0  0  0  0
  184.6820  177.8170  146.2030 C   0  0  0  0  0  3  0  0  0  0  0  0
  184.9600  179.4410  144.4280 C   0  0  0  0  0  3  0  0  0  0  0  0
  186.2410  178.9420  144.1720 C   0  0  0  0  0  3  0  0  0  0  0  0
  1 15  1  0  0  0  0
  2 12  1  0  0  0  0
  3 21  1  0  0  0  0
  4 14  1  0  0  0  0
  5 13  1  0  0  0  0
  6  2  2  0  0  0  0
  7 11  1  0  0  0  0
  8 10  1  0  0  0  0
  8 19  1  0  0  0  0
  9  7  2  0  0  0  0
 11 16  2  0  0  0  0
 12 23  1  1  0  0  0
 12  1  1  0  0  0  0
 13  9  1  0  0  0  0
 13  4  2  0  0  0  0
 14 18  2  0  0  0  0
 14 11  1  0  0  0  0
 15 20  1  0  0  0  0
 16  2  1  0  0  0  0
 16  3  1  0  0  0  0
 17  8  2  0  0  0  0
 18  6  1  0  0  0  0
 20 19  2  0  0  0  0
 21 17  1  0  0  0  0
 21 15  2  0  0  0  0
 22 25  1  0  0  0  0
 23 24  1  0  0  0  0
 24 25  2  0  0  0  0
 26 22  2  0  0  0  0
 27 26  1  0  0  0  0
 27 23  2  0  0  0  0
M  END
>  <MODEL>
1

>  <REMARK>
 VINA RESULT:      -8.5      0.000      0.000
  Name = 
  1 active torsions:
  status: ('A' for Active; 'I' for Inactive)
    1  A    between atoms: C_9  and  C_15
                            x       y       z     vdW  Elec       q    Type
                         _______ _______ _______ _____ _____    ______ ____

>  <TORSDO>
F 1

$$$$
=
 OpenBabel11052418273D

 27 31  0  0  1  0  0  0  0  0999 V2000
  187.6060  176.4070  142.7630 N   0  0  0  0  0  2  0  0  0  0  0  0
  188.9170  176.2990  144.7910 C   0  0  0  0  0  0  0  0  0  0  0  0
  189.5360  174.2480  143.5960 O   0  0  0  0  0  0  0  0  0  0  0  0
  192.7000  176.4160  146.5680 C   0  0  0  0  0  3  0  0  0  0  0  0
  194.8580  175.4570  146.8880 F   0  0  0  0  0  0  0  0  0  0  0  0
  189.2950  177.3310  145.6650 C   0  0  0  0  0  3  0  0  0  0  0  0
  192.0590  174.3190  144.8250 C   0  0  0  0  0  3  0  0  0  0  0  0
  188.9700  173.4690  140.0440 C   0  0  0  0  0  0  0  0  0  0  0  0
  193.3170  174.3670  145.4320 C   0  0  0  0  0  3  0  0  0  0  0  0
  189.3540  172.4840  139.1450 O   0  0  0  0  0  1  0  0  0  0  0  0
  191.1110  175.3170  145.0880 C   0  0  0  0  0  0  0  0  0  0  0  0
  187.5420  176.2270  144.2010 C   0  0  1  0  0  3  0  0  0  0  0  0
  193.6380  175.4140  146.3020 C   0  0  0  0  0  0  0  0  0  0  0  0
  191.4400  176.3730  145.9660 C   0  0  0  0  0  0  0  0  0  0  0  0
  188.1670  175.4410  141.8720 C   0  0  0  0  0  0  0  0  0  0  0  0
  189.8470  175.2950  144.4780 C   0  0  0  0  0  0  0  0  0  0  0  0
  189.3720  173.3910  141.3790 C   0  0  0  0  0  3  0  0  0  0  0  0
  190.5320  177.3480  146.2250 N   0  0  0  0  0  0  0  0  0  0  0  0
  188.1920  174.5410  139.6140 C   0  0  0  0  0  3  0  0  0  0  0  0
  187.7900  175.5170  140.5260 C   0  0  0  0  0  3  0  0  0  0  0  0
  189.0050  174.3770  142.3020 C   0  0  0  0  0  0  0  0  0  0  0  0
  184.6600  178.9400  145.8940 C   0  0  0  0  0  3  0  0  0  0  0  0
  186.5430  177.1680  144.8140 C   0  0  0  0  0  0  0  0  0  0  0  0
  186.3590  178.4320  144.2430 C   0  0  0  0  0  3  0  0  0  0  0  0
  185.4210  179.3180  144.7820 C   0  0  0  0  0  3  0  0  0  0  0  0
  184.8370  177.6770  146.4650 C   0  0  0  0  0  3  0  0  0  0  0  0
  185.7750  176.7910  145.9260 C   0  0  0  0  0  3  0  0  0  0  0  0
  1 12  1  0  0  0  0
  2  6  1  0  0  0  0
  3 16  1  0  0  0  0
  6 18  2  0  0  0  0
  7 11  2  0  0  0  0
  7  9  1  0  0  0  0
  8 17  1  0  0  0  0
  9 13  2  0  0  0  0
 10  8  1  0  0  0  0
 11 14  1  0  0  0  0
 12  2  1  0  0  0  0
 12 23  1  1  0  0  0
 13  4  1  0  0  0  0
 13  5  1  0  0  0  0
 14 18  1  0  0  0  0
 14  4  2  0  0  0  0
 15 21  1  0  0  0  0
 15  1  1  0  0  0  0
 16  2  2  0  0  0  0
 16 11  1  0  0  0  0
 17 21  2  0  0  0  0
 19  8  2  0  0  0  0
 19 20  1  0  0  0  0
 20 15  2  0  0  0  0
 21  3  1  0  0  0  0
 22 26  1  0  0  0  0
 23 27  1  0  0  0  0
 24 25  1  0  0  0  0
 24 23  2  0  0  0  0
 25 22  2  0  0  0  0
 27 26  2  0  0  0  0
M  END
>  <MODEL>
2

>  <REMARK>
 VINA RESULT:      -8.5      2.591      5.391
  Name = 
  1 active torsions:
  status: ('A' for Active; 'I' for Inactive)
    1  A    between atoms: C_9  and  C_15
                            x       y       z     vdW  Elec       q    Type
                         _______ _______ _______ _____ _____    ______ ____

>  <TORSDO>
F 1

$$$$
=
 OpenBabel11052418273D

 27 31  0  0  1  0  0  0  0  0999 V2000
  187.7680  176.4720  143.1720 N   0  0  0  0  0  2  0  0  0  0  0  0
  189.2200  176.2630  145.0930 C   0  0  0  0  0  0  0  0  0  0  0  0
  189.7160  174.2550  143.7750 O   0  0  0  0  0  0  0  0  0  0  0  0
  193.1220  176.2540  146.5950 C   0  0  0  0  0  3  0  0  0  0  0  0
  195.2810  175.2540  146.7170 F   0  0  0  0  0  0  0  0  0  0  0  0
  189.6760  177.2520  145.9790 C   0  0  0  0  0  3  0  0  0  0  0  0
  192.3220  174.2400  144.8200 C   0  0  0  0  0  3  0  0  0  0  0  0
  188.8830  173.6310  140.2460 C   0  0  0  0  0  0  0  0  0  0  0  0
  193.6220  174.2460  145.3350 C   0  0  0  0  0  3  0  0  0  0  0  0
  189.1850  172.6790  139.2820 O   0  0  0  0  0  1  0  0  0  0  0  0
  191.4130  175.2390  145.1900 C   0  0  0  0  0  0  0  0  0  0  0  0
  187.8040  176.2340  144.6030 C   0  0  1  0  0  3  0  0  0  0  0  0
  194.0210  175.2510  146.2210 C   0  0  0  0  0  0  0  0  0  0  0  0
  191.8210  176.2540  146.0840 C   0  0  0  0  0  0  0  0  0  0  0  0
  188.2470  175.5370  142.2040 C   0  0  0  0  0  0  0  0  0  0  0  0
  190.1070  175.2600  144.6740 C   0  0  0  0  0  0  0  0  0  0  0  0
  189.3790  173.4920  141.5430 C   0  0  0  0  0  3  0  0  0  0  0  0
  190.9510  177.2300  146.4470 N   0  0  0  0  0  0  0  0  0  0  0  0
  188.0940  174.7310  139.9170 C   0  0  0  0  0  3  0  0  0  0  0  0
  187.7750  175.6730  140.8940 C   0  0  0  0  0  3  0  0  0  0  0  0
  189.0950  174.4440  142.5290 C   0  0  0  0  0  0  0  0  0  0  0  0
  185.1570  178.8830  146.7260 C   0  0  0  0  0  3  0  0  0  0  0  0
  186.8680  177.1630  145.3240 C   0  0  0  0  0  0  0  0  0  0  0  0
  186.3820  176.7980  146.5840 C   0  0  0  0  0  3  0  0  0  0  0  0
  185.5270  177.6550  147.2840 C   0  0  0  0  0  3  0  0  0  0  0  0
  185.6440  179.2550  145.4700 C   0  0  0  0  0  3  0  0  0  0  0  0
  186.5000  178.3990  144.7700 C   0  0  0  0  0  3  0  0  0  0  0  0
  1 12  1  0  0  0  0
  2  6  1  0  0  0  0
  3 16  1  0  0  0  0
  6 18  2  0  0  0  0
  7 11  2  0  0  0  0
  7  9  1  0  0  0  0
  8 17  1  0  0  0  0
  9 13  2  0  0  0  0
 10  8  1  0  0  0  0
 11 14  1  0  0  0  0
 12  2  1  0  0  0  0
 12 23  1  1  0  0  0
 13  4  1  0  0  0  0
 13  5  1  0  0  0  0
 14 18  1  0  0  0  0
 14  4  2  0  0  0  0
 15 21  1  0  0  0  0
 15  1  1  0  0  0  0
 16  2  2  0  0  0  0
 16 11  1  0  0  0  0
 17 21  2  0  0  0  0
 19  8  2  0  0  0  0
 19 20  1  0  0  0  0
 20 15  2  0  0  0  0
 21  3  1  0  0  0  0
 22 25  1  0  0  0  0
 23 24  1  0  0  0  0
 24 25  2  0  0  0  0
 26 22  2  0  0  0  0
 27 23  2  0  0  0  0
 27 26  1  0  0  0  0
M  END
>  <MODEL>
3

>  <REMARK>
 VINA RESULT:      -8.3      2.655      5.317
  Name = 
  1 active torsions:
  status: ('A' for Active; 'I' for Inactive)
    1  A    between atoms: C_9  and  C_15
                            x       y       z     vdW  Elec       q    Type
                         _______ _______ _______ _____ _____    ______ ____

>  <TORSDO>
F 1

$$$$
=
 OpenBabel11052418273D

 27 31  0  0  1  0  0  0  0  0999 V2000
  190.9220  174.4670  143.2150 N   0  0  0  0  0  2  0  0  0  0  0  0
  189.8120  176.0010  144.7170 C   0  0  0  0  0  0  0  0  0  0  0  0
  188.5920  176.2770  142.6070 O   0  0  0  0  0  0  0  0  0  0  0  0
  186.3560  176.9820  146.8550 C   0  0  0  0  0  3  0  0  0  0  0  0
  184.0630  177.6310  146.8830 F   0  0  0  0  0  0  0  0  0  0  0  0
  189.7870  176.0150  146.1210 C   0  0  0  0  0  3  0  0  0  0  0  0
  186.2880  176.9700  144.0550 C   0  0  0  0  0  3  0  0  0  0  0  0
  188.6230  174.0320  139.6920 C   0  0  0  0  0  0  0  0  0  0  0  0
  185.1430  177.3030  144.7830 C   0  0  0  0  0  3  0  0  0  0  0  0
  187.9250  173.9020  138.5000 O   0  0  0  0  0  1  0  0  0  0  0  0
  187.4770  176.6440  144.7220 C   0  0  0  0  0  0  0  0  0  0  0  0
  191.0670  175.7070  143.9520 C   0  0  1  0  0  3  0  0  0  0  0  0
  185.1760  177.3080  146.1810 C   0  0  0  0  0  0  0  0  0  0  0  0
  187.5060  176.6490  146.1340 C   0  0  0  0  0  0  0  0  0  0  0  0
  190.0580  174.3150  142.0870 C   0  0  0  0  0  0  0  0  0  0  0  0
  188.6360  176.2930  144.0100 C   0  0  0  0  0  0  0  0  0  0  0  0
  188.3350  175.0870  140.5580 C   0  0  0  0  0  3  0  0  0  0  0  0
  188.6500  176.3310  146.7910 N   0  0  0  0  0  0  0  0  0  0  0  0
  189.6060  173.1030  140.0290 C   0  0  0  0  0  3  0  0  0  0  0  0
  190.3200  173.2500  141.2180 C   0  0  0  0  0  3  0  0  0  0  0  0
  189.0210  175.2340  141.7700 C   0  0  0  0  0  0  0  0  0  0  0  0
  194.6810  175.6150  146.2890 C   0  0  0  0  0  3  0  0  0  0  0  0
  192.3210  175.6950  144.7800 C   0  0  0  0  0  0  0  0  0  0  0  0
  192.7960  174.4770  145.2800 C   0  0  0  0  0  3  0  0  0  0  0  0
  193.9720  174.4360  146.0350 C   0  0  0  0  0  3  0  0  0  0  0  0
  194.2140  176.8330  145.7880 C   0  0  0  0  0  3  0  0  0  0  0  0
  193.0380  176.8740  145.0330 C   0  0  0  0  0  3  0  0  0  0  0  0
  1 12  1  0  0  0  0
  2  6  1  0  0  0  0
  3 16  1  0  0  0  0
  6 18  2  0  0  0  0
  7 11  2  0  0  0  0
  7  9  1  0  0  0  0
  8 19  2  0  0  0  0
  8 17  1  0  0  0  0
  9 13  2  0  0  0  0
 10  8  1  0  0  0  0
 11 14  1  0  0  0  0
 12  2  1  0  0  0  0
 12 23  1  1  0  0  0
 13  4  1  0  0  0  0
 13  5  1  0  0  0  0
 14 18  1  0  0  0  0
 14  4  2  0  0  0  0
 15  1  1  0  0  0  0
 16  2  2  0  0  0  0
 16 11  1  0  0  0  0
 17 21  2  0  0  0  0
 19 20  1  0  0  0  0
 20 15  2  0  0  0  0
 21 15  1  0  0  0  0
 21  3  1  0  0  0  0
 23 27  2  0  0  0  0
 23 24  1  0  0  0  0
 24 25  2  0  0  0  0
 25 22  1  0  0  0  0
 26 22  2  0  0  0  0
 27 26  1  0  0  0  0
M  END
>  <MODEL>
4

>  <REMARK>
 VINA RESULT:      -8.2      2.963      7.002
  Name = 
  1 active torsions:
  status: ('A' for Active; 'I' for Inactive)
    1  A    between atoms: C_9  and  C_15
                            x       y       z     vdW  Elec       q    Type
                         _______ _______ _______ _____ _____    ______ ____

>  <TORSDO>
F 1

$$$$
=
 OpenBabel11052418273D

 27 31  0  0  1  0  0  0  0  0999 V2000
  189.2050  176.6770  145.4100 N   0  0  0  0  0  2  0  0  0  0  0  0
  188.6200  175.9500  143.1810 C   0  0  0  0  0  0  0  0  0  0  0  0
  191.0690  176.0960  143.1150 O   0  0  0  0  0  0  0  0  0  0  0  0
  188.7160  172.9090  140.3130 C   0  0  0  0  0  3  0  0  0  0  0  0
  189.9540  171.5010  138.8420 F   0  0  0  0  0  0  0  0  0  0  0  0
  187.4500  175.3230  142.7250 C   0  0  0  0  0  3  0  0  0  0  0  0
  191.1150  174.0790  141.1630 C   0  0  0  0  0  3  0  0  0  0  0  0
  193.3770  176.2820  145.9750 C   0  0  0  0  0  0  0  0  0  0  0  0
  191.1310  173.0670  140.2000 C   0  0  0  0  0  3  0  0  0  0  0  0
  194.7480  176.2150  146.1810 O   0  0  0  0  0  1  0  0  0  0  0  0
  189.9000  174.5160  141.7060 C   0  0  0  0  0  0  0  0  0  0  0  0
  188.5800  177.0790  144.1650 C   0  0  1  0  0  3  0  0  0  0  0  0
  189.9340  172.4820  139.7750 C   0  0  0  0  0  0  0  0  0  0  0  0
  188.6930  173.9220  141.2750 C   0  0  0  0  0  0  0  0  0  0  0  0
  190.6080  176.4490  145.5520 C   0  0  0  0  0  0  0  0  0  0  0  0
  189.8620  175.5230  142.6850 C   0  0  0  0  0  0  0  0  0  0  0  0
  192.8630  176.2100  144.6790 C   0  0  0  0  0  3  0  0  0  0  0  0
  187.5090  174.3340  141.7970 N   0  0  0  0  0  0  0  0  0  0  0  0
  192.5140  176.4090  147.0600 C   0  0  0  0  0  3  0  0  0  0  0  0
  191.1380  176.4970  146.8460 C   0  0  0  0  0  3  0  0  0  0  0  0
  191.4830  176.2660  144.4470 C   0  0  0  0  0  0  0  0  0  0  0  0
  184.6520  178.7190  144.8060 C   0  0  0  0  0  3  0  0  0  0  0  0
  187.2120  177.6510  144.4120 C   0  0  0  0  0  0  0  0  0  0  0  0
  186.7680  178.7210  143.6280 C   0  0  0  0  0  3  0  0  0  0  0  0
  185.4910  179.2560  143.8250 C   0  0  0  0  0  3  0  0  0  0  0  0
  185.0880  177.6470  145.5890 C   0  0  0  0  0  3  0  0  0  0  0  0
  186.3650  177.1110  145.3920 C   0  0  0  0  0  3  0  0  0  0  0  0
  1 15  1  0  0  0  0
  2 12  1  0  0  0  0
  3 21  1  0  0  0  0
  4 14  1  0  0  0  0
  5 13  1  0  0  0  0
  6  2  1  0  0  0  0
  7 11  1  0  0  0  0
  8 10  1  0  0  0  0
  8 19  1  0  0  0  0
  9  7  2  0  0  0  0
 11 16  1  0  0  0  0
 12 23  1  1  0  0  0
 12  1  1  0  0  0  0
 13  9  1  0  0  0  0
 13  4  2  0  0  0  0
 14 11  2  0  0  0  0
 14 18  1  0  0  0  0
 15 20  1  0  0  0  0
 16  3  1  0  0  0  0
 16  2  2  0  0  0  0
 17  8  2  0  0  0  0
 18  6  2  0  0  0  0
 20 19  2  0  0  0  0
 21 17  1  0  0  0  0
 21 15  2  0  0  0  0
 22 26  1  0  0  0  0
 23 27  1  0  0  0  0
 24 25  1  0  0  0  0
 24 23  2  0  0  0  0
 25 22  2  0  0  0  0
 27 26  2  0  0  0  0
M  END
>  <MODEL>
5

>  <REMARK>
 VINA RESULT:      -7.9      0.732      1.192
  Name = 
  1 active torsions:
  status: ('A' for Active; 'I' for Inactive)
    1  A    between atoms: C_9  and  C_15
                            x       y       z     vdW  Elec       q    Type
                         _______ _______ _______ _____ _____    ______ ____

>  <TORSDO>
F 1

$$$$
=
 OpenBabel11052418273D

 27 31  0  0  1  0  0  0  0  0999 V2000
  189.3200  174.3600  143.6100 N   0  0  0  0  0  2  0  0  0  0  0  0
  188.1150  176.3750  144.1870 C   0  0  0  0  0  0  0  0  0  0  0  0
  187.9110  176.2610  141.7450 O   0  0  0  0  0  0  0  0  0  0  0  0
  184.4420  178.3590  144.4110 C   0  0  0  0  0  3  0  0  0  0  0  0
  182.5430  179.3100  143.3290 F   0  0  0  0  0  0  0  0  0  0  0  0
  187.5530  176.7580  145.4150 C   0  0  0  0  0  3  0  0  0  0  0  0
  185.4630  177.6260  141.9080 C   0  0  0  0  0  3  0  0  0  0  0  0
  188.5340  173.3520  139.5790 C   0  0  0  0  0  0  0  0  0  0  0  0
  184.2400  178.2960  141.9970 C   0  0  0  0  0  3  0  0  0  0  0  0
  188.3430  173.0160  138.2470 O   0  0  0  0  0  1  0  0  0  0  0  0
  186.1870  177.3210  143.0680 C   0  0  0  0  0  0  0  0  0  0  0  0
  189.4590  175.7170  144.1050 C   0  0  1  0  0  3  0  0  0  0  0  0
  183.7290  178.6620  143.2460 C   0  0  0  0  0  0  0  0  0  0  0  0
  185.6670  177.6900  144.3280 C   0  0  0  0  0  0  0  0  0  0  0  0
  188.9520  174.0430  142.2670 C   0  0  0  0  0  0  0  0  0  0  0  0
  187.4110  176.6360  143.0010 C   0  0  0  0  0  0  0  0  0  0  0  0
  188.1930  174.6260  140.0340 C   0  0  0  0  0  3  0  0  0  0  0  0
  186.3550  177.3960  145.4600 N   0  0  0  0  0  0  0  0  0  0  0  0
  189.0570  172.4140  140.4670 C   0  0  0  0  0  3  0  0  0  0  0  0
  189.2690  172.7630  141.8000 C   0  0  0  0  0  3  0  0  0  0  0  0
  188.3690  174.9850  141.3760 C   0  0  0  0  0  0  0  0  0  0  0  0
  191.7280  175.7230  147.7630 C   0  0  0  0  0  3  0  0  0  0  0  0
  190.2530  175.7430  145.3800 C   0  0  0  0  0  0  0  0  0  0  0  0
  189.8580  174.9270  146.4460 C   0  0  0  0  0  3  0  0  0  0  0  0
  190.5920  174.9180  147.6360 C   0  0  0  0  0  3  0  0  0  0  0  0
  192.1300  176.5370  146.7000 C   0  0  0  0  0  3  0  0  0  0  0  0
  191.3970  176.5460  145.5100 C   0  0  0  0  0  3  0  0  0  0  0  0
  1 12  1  0  0  0  0
  2  6  1  0  0  0  0
  3 16  1  0  0  0  0
  6 18  2  0  0  0  0
  7  9  2  0  0  0  0
  7 11  1  0  0  0  0
  8 17  2  0  0  0  0
  8 19  1  0  0  0  0
  9 13  1  0  0  0  0
 10  8  1  0  0  0  0
 11 14  2  0  0  0  0
 12  2  1  0  0  0  0
 12 23  1  1  0  0  0
 13  5  1  0  0  0  0
 13  4  2  0  0  0  0
 14  4  1  0  0  0  0
 14 18  1  0  0  0  0
 15  1  1  0  0  0  0
 16 11  1  0  0  0  0
 16  2  2  0  0  0  0
 17 21  1  0  0  0  0
 19 20  2  0  0  0  0
 20 15  1  0  0  0  0
 21  3  1  0  0  0  0
 21 15  2  0  0  0  0
 23 27  2  0  0  0  0
 23 24  1  0  0  0  0
 24 25  2  0  0  0  0
 25 22  1  0  0  0  0
 26 22  2  0  0  0  0
 27 26  1  0  0  0  0
M  END
>  <MODEL>
6

>  <REMARK>
 VINA RESULT:      -7.8      3.023      6.478
  Name = 
  1 active torsions:
  status: ('A' for Active; 'I' for Inactive)
    1  A    between atoms: C_9  and  C_15
                            x       y       z     vdW  Elec       q    Type
                         _______ _______ _______ _____ _____    ______ ____

>  <TORSDO>
F 1

$$$$
=
 OpenBabel11052418273D

 27 31  0  0  1  0  0  0  0  0999 V2000
  186.6760  177.3740  142.1400 N   0  0  0  0  0  2  0  0  0  0  0  0
  188.3290  176.7760  143.7980 C   0  0  0  0  0  0  0  0  0  0  0  0
  188.7320  175.1780  141.9810 O   0  0  0  0  0  0  0  0  0  0  0  0
  192.3680  176.5980  144.8620 C   0  0  0  0  0  3  0  0  0  0  0  0
  194.5530  175.7070  144.5220 F   0  0  0  0  0  0  0  0  0  0  0  0
  188.8530  177.5400  144.8530 C   0  0  0  0  0  3  0  0  0  0  0  0
  191.4340  175.0400  142.7300 C   0  0  0  0  0  3  0  0  0  0  0  0
  187.5420  175.3930  138.5050 C   0  0  0  0  0  0  0  0  0  0  0  0
  192.7810  174.9850  143.1010 C   0  0  0  0  0  3  0  0  0  0  0  0
  187.7630  174.7220  137.3110 O   0  0  0  0  0  1  0  0  0  0  0  0
  190.5450  175.8710  143.4240 C   0  0  0  0  0  0  0  0  0  0  0  0
  186.8700  176.7960  143.4560 C   0  0  1  0  0  3  0  0  0  0  0  0
  193.2480  175.7630  144.1650 C   0  0  0  0  0  0  0  0  0  0  0  0
  191.0210  176.6560  144.4970 C   0  0  0  0  0  0  0  0  0  0  0  0
  187.0710  176.7290  140.9280 C   0  0  0  0  0  0  0  0  0  0  0  0
  189.1910  175.9510  143.0580 C   0  0  0  0  0  0  0  0  0  0  0  0
  188.1770  174.9670  139.6730 C   0  0  0  0  0  3  0  0  0  0  0  0
  190.1700  177.4680  145.1740 N   0  0  0  0  0  0  0  0  0  0  0  0
  186.6950  176.4980  138.5380 C   0  0  0  0  0  3  0  0  0  0  0  0
  186.4590  177.1570  139.7450 C   0  0  0  0  0  3  0  0  0  0  0  0
  187.9770  175.6340  140.8880 C   0  0  0  0  0  0  0  0  0  0  0  0
  184.3990  178.7070  146.4170 C   0  0  0  0  0  3  0  0  0  0  0  0
  185.9940  177.4720  144.4720 C   0  0  0  0  0  0  0  0  0  0  0  0
  185.6140  176.7690  145.6210 C   0  0  0  0  0  3  0  0  0  0  0  0
  184.8160  177.3830  146.5910 C   0  0  0  0  0  3  0  0  0  0  0  0
  184.7800  179.4160  145.2750 C   0  0  0  0  0  3  0  0  0  0  0  0
  185.5780  178.8020  144.3050 C   0  0  0  0  0  3  0  0  0  0  0  0
  1 12  1  0  0  0  0
  2  6  1  0  0  0  0
  3 16  1  0  0  0  0
  6 18  2  0  0  0  0
  7  9  2  0  0  0  0
  7 11  1  0  0  0  0
  8 19  2  0  0  0  0
  8 17  1  0  0  0  0
  9 13  1  0  0  0  0
 10  8  1  0  0  0  0
 11 14  2  0  0  0  0
 12  2  1  0  0  0  0
 12 23  1  1  0  0  0
 13  5  1  0  0  0  0
 13  4  2  0  0  0  0
 14  4  1  0  0  0  0
 14 18  1  0  0  0  0
 15  1  1  0  0  0  0
 16 11  1  0  0  0  0
 16  2  2  0  0  0  0
 17 21  2  0  0  0  0
 19 20  1  0  0  0  0
 20 15  2  0  0  0  0
 21 15  1  0  0  0  0
 21  3  1  0  0  0  0
 22 25  1  0  0  0  0
 23 24  1  0  0  0  0
 24 25  2  0  0  0  0
 26 22  2  0  0  0  0
 27 23  2  0  0  0  0
 27 26  1  0  0  0  0
M  END
>  <MODEL>
7

>  <REMARK>
 VINA RESULT:      -7.8      2.756      5.403
  Name = 
  1 active torsions:
  status: ('A' for Active; 'I' for Inactive)
    1  A    between atoms: C_9  and  C_15
                            x       y       z     vdW  Elec       q    Type
                         _______ _______ _______ _____ _____    ______ ____

>  <TORSDO>
F 1

$$$$
=
 OpenBabel11052418273D

 27 31  0  0  1  0  0  0  0  0999 V2000
  190.5680  175.5760  142.7140 N   0  0  0  0  0  2  0  0  0  0  0  0
  188.2960  175.5500  143.5370 C   0  0  0  0  0  0  0  0  0  0  0  0
  189.6470  175.6740  145.5810 O   0  0  0  0  0  0  0  0  0  0  0  0
  185.2010  177.6130  145.4470 C   0  0  0  0  0  3  0  0  0  0  0  0
  184.3200  178.6650  147.3960 F   0  0  0  0  0  0  0  0  0  0  0  0
  187.1020  175.8770  142.8740 C   0  0  0  0  0  3  0  0  0  0  0  0
  187.5470  177.0260  146.8620 C   0  0  0  0  0  3  0  0  0  0  0  0
  193.1980  176.5960  145.8640 C   0  0  0  0  0  0  0  0  0  0  0  0
  186.5010  177.7090  147.4900 C   0  0  0  0  0  3  0  0  0  0  0  0
  194.0980  176.8770  146.8820 O   0  0  0  0  0  1  0  0  0  0  0  0
  187.4260  176.6290  145.5240 C   0  0  0  0  0  0  0  0  0  0  0  0
  189.3790  174.7590  142.8690 C   0  0  1  0  0  3  0  0  0  0  0  0
  185.3300  178.0020  146.7840 C   0  0  0  0  0  0  0  0  0  0  0  0
  186.2430  176.9290  144.8140 C   0  0  0  0  0  0  0  0  0  0  0  0
  191.3860  175.9960  143.8070 C   0  0  0  0  0  0  0  0  0  0  0  0
  188.4700  175.9540  144.8700 C   0  0  0  0  0  0  0  0  0  0  0  0
  191.8880  176.2280  146.1730 C   0  0  0  0  0  3  0  0  0  0  0  0
  186.1150  176.5540  143.5160 N   0  0  0  0  0  0  0  0  0  0  0  0
  193.5990  176.6920  144.5330 C   0  0  0  0  0  3  0  0  0  0  0  0
  192.6970  176.3870  143.5140 C   0  0  0  0  0  3  0  0  0  0  0  0
  190.9600  175.9480  145.1630 C   0  0  0  0  0  0  0  0  0  0  0  0
  188.2180  172.9140  139.1580 C   0  0  0  0  0  3  0  0  0  0  0  0
  188.9860  174.1310  141.5620 C   0  0  0  0  0  0  0  0  0  0  0  0
  189.0050  172.7370  141.4420 C   0  0  0  0  0  3  0  0  0  0  0  0
  188.6230  172.1290  140.2420 C   0  0  0  0  0  3  0  0  0  0  0  0
  188.1930  174.3060  139.2730 C   0  0  0  0  0  3  0  0  0  0  0  0
  188.5740  174.9150  140.4730 C   0  0  0  0  0  3  0  0  0  0  0  0
  1 12  1  0  0  0  0
  1 15  1  0  0  0  0
  2 16  1  0  0  0  0
  4 13  2  0  0  0  0
  6 18  1  0  0  0  0
  6  2  2  0  0  0  0
  7  9  2  0  0  0  0
  8 17  1  0  0  0  0
  8 10  1  0  0  0  0
 11  7  1  0  0  0  0
 12 23  1  6  0  0  0
 12  2  1  0  0  0  0
 13  5  1  0  0  0  0
 13  9  1  0  0  0  0
 14  4  1  0  0  0  0
 14 11  1  0  0  0  0
 15 21  1  0  0  0  0
 16 11  2  0  0  0  0
 16  3  1  0  0  0  0
 18 14  2  0  0  0  0
 19  8  2  0  0  0  0
 20 15  2  0  0  0  0
 20 19  1  0  0  0  0
 21  3  1  0  0  0  0
 21 17  2  0  0  0  0
 22 26  2  0  0  0  0
 22 25  1  0  0  0  0
 24 23  1  0  0  0  0
 25 24  2  0  0  0  0
 26 27  1  0  0  0  0
 27 23  2  0  0  0  0
M  END
>  <MODEL>
8

>  <REMARK>
 VINA RESULT:      -7.7      2.769      5.742
  Name = 
  1 active torsions:
  status: ('A' for Active; 'I' for Inactive)
    1  A    between atoms: C_9  and  C_15
                            x       y       z     vdW  Elec       q    Type
                         _______ _______ _______ _____ _____    ______ ____

>  <TORSDO>
F 1

$$$$
=
 OpenBabel11052418273D

 27 31  0  0  1  0  0  0  0  0999 V2000
  190.8630  175.3660  143.7620 N   0  0  0  0  0  2  0  0  0  0  0  0
  188.5220  175.4500  143.1670 C   0  0  0  0  0  0  0  0  0  0  0  0
  188.5150  175.8410  145.5890 O   0  0  0  0  0  0  0  0  0  0  0  0
  185.0510  177.7480  142.7760 C   0  0  0  0  0  3  0  0  0  0  0  0
  183.3160  179.0480  143.7670 F   0  0  0  0  0  0  0  0  0  0  0  0
  187.9270  175.6880  141.9180 C   0  0  0  0  0  3  0  0  0  0  0  0
  186.1640  177.3510  145.3160 C   0  0  0  0  0  3  0  0  0  0  0  0
  191.3660  176.7910  147.7120 C   0  0  0  0  0  0  0  0  0  0  0  0
  185.0000  178.1110  145.1710 C   0  0  0  0  0  3  0  0  0  0  0  0
  191.5660  177.2030  149.0220 O   0  0  0  0  0  1  0  0  0  0  0  0
  186.7780  176.7810  144.1930 C   0  0  0  0  0  0  0  0  0  0  0  0
  189.7320  174.5770  143.3120 C   0  0  1  0  0  3  0  0  0  0  0  0
  184.4440  178.3100  143.9030 C   0  0  0  0  0  0  0  0  0  0  0  0
  186.2150  176.9860  142.9140 C   0  0  0  0  0  0  0  0  0  0  0  0
  190.9640  175.9260  145.0730 C   0  0  0  0  0  0  0  0  0  0  0  0
  187.9550  176.0260  144.3150 C   0  0  0  0  0  0  0  0  0  0  0  0
  190.0820  176.4670  147.2710 C   0  0  0  0  0  3  0  0  0  0  0  0
  186.8020  176.4430  141.8180 N   0  0  0  0  0  0  0  0  0  0  0  0
  192.4440  176.7100  146.8330 C   0  0  0  0  0  3  0  0  0  0  0  0
  192.2410  176.2740  145.5240 C   0  0  0  0  0  3  0  0  0  0  0  0
  189.8540  176.0570  145.9520 C   0  0  0  0  0  0  0  0  0  0  0  0
  190.8140  172.3050  139.8200 C   0  0  0  0  0  3  0  0  0  0  0  0
  190.0860  173.7830  142.0870 C   0  0  0  0  0  0  0  0  0  0  0  0
  191.1950  174.1660  141.3240 C   0  0  0  0  0  3  0  0  0  0  0  0
  191.5570  173.4300  140.1910 C   0  0  0  0  0  3  0  0  0  0  0  0
  189.7080  171.9160  140.5810 C   0  0  0  0  0  3  0  0  0  0  0  0
  189.3460  172.6500  141.7140 C   0  0  0  0  0  3  0  0  0  0  0  0
  1 15  1  0  0  0  0
  2 12  1  0  0  0  0
  2 16  1  0  0  0  0
  3 21  1  0  0  0  0
  4 14  1  0  0  0  0
  4 13  2  0  0  0  0
  5 13  1  0  0  0  0
  6  2  2  0  0  0  0
  8 10  1  0  0  0  0
  9  7  2  0  0  0  0
 11 16  2  0  0  0  0
 11  7  1  0  0  0  0
 12 23  1  6  0  0  0
 12  1  1  0  0  0  0
 13  9  1  0  0  0  0
 14 11  1  0  0  0  0
 15 20  2  0  0  0  0
 15 21  1  0  0  0  0
 16  3  1  0  0  0  0
 17  8  1  0  0  0  0
 18  6  1  0  0  0  0
 18 14  2  0  0  0  0
 19  8  2  0  0  0  0
 20 19  1  0  0  0  0
 21 17  2  0  0  0  0
 22 25  2  0  0  0  0
 22 26  1  0  0  0  0
 24 23  2  0  0  0  0
 25 24  1  0  0  0  0
 26 27  2  0  0  0  0
 27 23  1  0  0  0  0
M  END
>  <MODEL>
9

>  <REMARK>
 VINA RESULT:      -7.6      2.548      5.800
  Name = 
  1 active torsions:
  status: ('A' for Active; 'I' for Inactive)
    1  A    between atoms: C_9  and  C_15
                            x       y       z     vdW  Elec       q    Type
                         _______ _______ _______ _____ _____    ______ ____

>  <TORSDO>
F 1

$$$$
