=
 OpenBabel11052417513D

 31 35  0  0  1  0  0  0  0  0999 V2000
  184.8050  178.4890  146.7430 C   0  0  0  0  0  0  0  0  0  0  0  0
  187.3640  177.6130  144.1150 N   0  0  0  0  0  0  0  0  0  0  0  0
  186.7110  177.7400  142.8270 C   0  0  0  0  0  0  0  0  0  0  0  0
  184.7380  177.7570  141.3650 C   0  0  0  0  0  0  0  0  0  0  0  0
  186.6720  177.7160  145.3850 C   0  0  0  0  0  0  0  0  0  0  0  0
  185.4160  177.9720  147.8890 C   0  0  0  0  0  3  0  0  0  0  0  0
  185.3820  177.6830  142.6870 C   0  0  0  0  0  3  0  0  0  0  0  0
  189.5180  177.1980  145.4400 C   0  0  2  0  0  3  0  0  0  0  0  0
  183.6060  179.1110  146.8380 F   0  0  0  0  0  0  0  0  0  0  0  0
  188.8480  177.7370  141.7280 N   0  0  0  0  0  0  0  0  0  0  0  0
  183.3950  177.6140  141.2720 F   0  0  0  0  0  0  0  0  0  0  0  0
  188.6020  176.5170  146.4570 C   0  0  0  0  0  2  0  0  0  0  0  0
  188.7960  177.3950  144.1260 C   0  0  0  0  0  0  0  0  0  0  0  0
  185.4320  178.3670  145.5020 C   0  0  0  0  0  3  0  0  0  0  0  0
  185.4590  177.9290  140.2540 C   0  0  0  0  0  3  0  0  0  0  0  0
  187.2910  177.2240  146.5520 C   0  0  0  0  0  0  0  0  0  0  0  0
  186.6560  177.3390  147.7920 C   0  0  0  0  0  3  0  0  0  0  0  0
  189.4960  177.4940  142.9850 C   0  0  0  0  0  3  0  0  0  0  0  0
  187.5590  177.8430  141.6180 C   0  0  0  0  0  0  0  0  0  0  0  0
  186.9520  178.1220  140.2720 C   0  0  0  0  0  2  0  0  0  0  0  0
  191.5070  176.7540  147.4250 O   0  0  0  0  0  0  0  0  0  0  0  0
  191.6840  176.1980  146.3070 C   0  0  0  0  0  0  0  0  0  0  0  0
  190.7240  176.3950  145.2640 N   0  0  0  0  0  2  0  0  0  0  0  0
  195.0380  173.6110  145.5630 C   0  0  0  0  0  0  0  0  0  0  0  0
  192.6610  173.9870  145.7700 C   0  0  0  0  0  3  0  0  0  0  0  0
  194.5460  177.2520  146.3910 C   0  0  0  0  0  1  0  0  0  0  0  0
  196.1030  172.7570  145.3180 O   0  0  0  0  0  1  0  0  0  0  0  0
  193.7320  173.1260  145.5250 C   0  0  0  0  0  3  0  0  0  0  0  0
  194.2080  175.8290  146.0940 C   0  0  0  0  0  0  0  0  0  0  0  0
  192.8740  175.3450  146.0580 C   0  0  0  0  0  0  0  0  0  0  0  0
  195.2730  174.9570  145.8460 C   0  0  0  0  0  3  0  0  0  0  0  0
  1  9  1  0  0  0  0
  1  6  1  0  0  0  0
  2 13  1  0  0  0  0
  2  5  1  0  0  0  0
  3  2  1  0  0  0  0
  4  7  1  0  0  0  0
  5 14  1  0  0  0  0
  5 16  2  0  0  0  0
  7  3  2  0  0  0  0
  8 23  1  6  0  0  0
  8 12  1  0  0  0  0
 10 18  1  0  0  0  0
 11  4  1  0  0  0  0
 12 16  1  0  0  0  0
 13  8  1  0  0  0  0
 14  1  2  0  0  0  0
 15 20  1  0  0  0  0
 15  4  2  0  0  0  0
 16 17  1  0  0  0  0
 17  6  2  0  0  0  0
 18 13  2  0  0  0  0
 19 10  2  0  0  0  0
 19  3  1  0  0  0  0
 20 19  1  0  0  0  0
 22 21  2  0  0  0  0
 23 22  1  0  0  0  0
 24 31  1  0  0  0  0
 25 30  2  0  0  0  0
 27 24  1  0  0  0  0
 28 24  2  0  0  0  0
 28 25  1  0  0  0  0
 29 26  1  0  0  0  0
 30 29  1  0  0  0  0
 30 22  1  0  0  0  0
 31 29  2  0  0  0  0
M  END
>  <MODEL>
1

>  <REMARK>
 VINA RESULT:      -9.2      0.000      0.000
  Name = 
  2 active torsions:
  status: ('A' for Active; 'I' for Inactive)
    1  A    between atoms: C_9  and  C_22
    2  A    between atoms: C_15  and  N_23
                            x       y       z     vdW  Elec       q    Type
                         _______ _______ _______ _____ _____    ______ ____

>  <TORSDO>
F 2

$$$$
=
 OpenBabel11052417513D

 31 35  0  0  1  0  0  0  0  0999 V2000
  185.2570  178.1520  146.4820 C   0  0  0  0  0  0  0  0  0  0  0  0
  188.3780  176.5530  145.0930 N   0  0  0  0  0  0  0  0  0  0  0  0
  189.4000  176.6590  146.1140 C   0  0  2  0  0  3  0  0  0  0  0  0
  190.4230  177.7010  148.0880 C   0  0  0  0  0  0  0  0  0  0  0  0
  187.0770  177.1860  145.1830 C   0  0  0  0  0  0  0  0  0  0  0  0
  184.5080  178.3260  145.3150 C   0  0  0  0  0  3  0  0  0  0  0  0
  189.3460  177.5700  147.0920 C   0  0  0  0  0  3  0  0  0  0  0  0
  187.6620  175.6460  142.8050 C   0  0  2  0  0  3  0  0  0  0  0  0
  184.7480  178.5360  147.6760 F   0  0  0  0  0  0  0  0  0  0  0  0
  190.7270  175.0110  144.9750 N   0  0  0  0  0  0  0  0  0  0  0  0
  190.3570  178.6920  149.0090 F   0  0  0  0  0  0  0  0  0  0  0  0
  186.8590  176.9420  142.6920 C   0  0  0  0  0  2  0  0  0  0  0  0
  188.6710  175.7440  143.9270 C   0  0  0  0  0  0  0  0  0  0  0  0
  186.5300  177.5810  146.4160 C   0  0  0  0  0  3  0  0  0  0  0  0
  191.4770  176.8810  148.0790 C   0  0  0  0  0  3  0  0  0  0  0  0
  186.3000  177.3410  144.0180 C   0  0  0  0  0  0  0  0  0  0  0  0
  185.0300  177.9220  144.0850 C   0  0  0  0  0  3  0  0  0  0  0  0
  189.7770  174.9850  143.9000 C   0  0  0  0  0  3  0  0  0  0  0  0
  190.5900  175.7840  146.0090 C   0  0  0  0  0  0  0  0  0  0  0  0
  191.6140  175.7400  147.1070 C   0  0  0  0  0  3  0  0  0  0  0  0
  187.8030  173.1030  141.5390 O   0  0  0  0  0  0  0  0  0  0  0  0
  188.3420  174.0690  140.9360 C   0  0  0  0  0  0  0  0  0  0  0  0
  188.3160  175.3720  141.5300 N   0  0  0  0  0  2  0  0  0  0  0  0
  190.1370  173.5490  137.0630 C   0  0  0  0  0  0  0  0  0  0  0  0
  188.2530  174.1200  138.4610 C   0  0  0  0  0  3  0  0  0  0  0  0
  191.2430  173.1720  140.6420 C   0  0  0  0  0  1  0  0  0  0  0  0
  190.6940  173.3890  135.8010 O   0  0  0  0  0  1  0  0  0  0  0  0
  188.8110  173.9580  137.1920 C   0  0  0  0  0  3  0  0  0  0  0  0
  190.3550  173.4590  139.4780 C   0  0  0  0  0  0  0  0  0  0  0  0
  189.0070  173.8750  139.6210 C   0  0  0  0  0  0  0  0  0  0  0  0
  190.9040  173.3010  138.2010 C   0  0  0  0  0  3  0  0  0  0  0  0
  1  9  1  0  0  0  0
  2  5  1  0  0  0  0
  2  3  1  0  0  0  0
  3  7  1  6  0  0  0
  4 11  1  0  0  0  0
  5 14  2  0  0  0  0
  6  1  2  0  0  0  0
  7  4  2  0  0  0  0
  8 23  1  6  0  0  0
  8 13  1  0  0  0  0
 10 19  2  0  0  0  0
 12  8  1  0  0  0  0
 12 16  1  0  0  0  0
 13  2  1  0  0  0  0
 14  1  1  0  0  0  0
 15  4  1  0  0  0  0
 16 17  2  0  0  0  0
 16  5  1  0  0  0  0
 17  6  1  0  0  0  0
 18 13  2  0  0  0  0
 18 10  1  0  0  0  0
 19  3  1  0  0  0  0
 19 20  1  0  0  0  0
 20 15  2  0  0  0  0
 22 23  1  0  0  0  0
 22 21  2  0  0  0  0
 24 28  2  0  0  0  0
 24 31  1  0  0  0  0
 25 30  2  0  0  0  0
 27 24  1  0  0  0  0
 28 25  1  0  0  0  0
 29 30  1  0  0  0  0
 29 26  1  0  0  0  0
 30 22  1  0  0  0  0
 31 29  2  0  0  0  0
M  END
>  <MODEL>
2

>  <REMARK>
 VINA RESULT:      -8.9      4.065      6.534
  Name = 
  2 active torsions:
  status: ('A' for Active; 'I' for Inactive)
    1  A    between atoms: C_9  and  C_22
    2  A    between atoms: C_15  and  N_23
                            x       y       z     vdW  Elec       q    Type
                         _______ _______ _______ _____ _____    ______ ____

>  <TORSDO>
F 2

$$$$
=
 OpenBabel11052417513D

 31 35  0  0  1  0  0  0  0  0999 V2000
  190.1260  177.6420  147.7590 C   0  0  0  0  0  0  0  0  0  0  0  0
  187.9620  176.7150  144.8110 N   0  0  0  0  0  0  0  0  0  0  0  0
  186.6780  177.3580  145.0080 C   0  0  0  0  0  0  0  0  0  0  0  0
  184.9170  178.3490  146.4030 C   0  0  0  0  0  0  0  0  0  0  0  0
  189.0190  176.7020  145.8030 C   0  0  0  0  0  0  0  0  0  0  0  0
  191.1420  176.6900  147.6490 C   0  0  0  0  0  3  0  0  0  0  0  0
  186.2480  177.7490  146.2130 C   0  0  0  0  0  3  0  0  0  0  0  0
  189.5050  175.3370  143.3000 C   0  0  2  0  0  3  0  0  0  0  0  0
  190.1600  178.5570  148.7560 F   0  0  0  0  0  0  0  0  0  0  0  0
  186.1180  176.9750  142.7030 N   0  0  0  0  0  0  0  0  0  0  0  0
  184.5000  178.6550  147.6550 F   0  0  0  0  0  0  0  0  0  0  0  0
  190.0270  174.7370  144.6050 C   0  0  0  0  0  2  0  0  0  0  0  0
  188.2050  176.0710  143.5370 C   0  0  0  0  0  0  0  0  0  0  0  0
  189.0750  177.6500  146.8390 C   0  0  0  0  0  3  0  0  0  0  0  0
  184.1020  178.5660  145.3670 C   0  0  0  0  0  3  0  0  0  0  0  0
  190.0660  175.7650  145.6870 C   0  0  0  0  0  0  0  0  0  0  0  0
  191.1110  175.7520  146.6150 C   0  0  0  0  0  3  0  0  0  0  0  0
  187.3350  176.2350  142.5280 C   0  0  0  0  0  3  0  0  0  0  0  0
  185.7780  177.4970  143.8420 C   0  0  0  0  0  0  0  0  0  0  0  0
  184.4990  178.2790  143.9440 C   0  0  0  0  0  2  0  0  0  0  0  0
  191.4490  174.5530  141.3760 O   0  0  0  0  0  0  0  0  0  0  0  0
  190.3610  173.9160  141.3780 C   0  0  0  0  0  0  0  0  0  0  0  0
  189.3390  174.2740  142.3140 N   0  0  0  0  0  2  0  0  0  0  0  0
  189.7750  170.6140  138.6860 C   0  0  0  0  0  0  0  0  0  0  0  0
  190.8350  171.6080  140.6150 C   0  0  0  0  0  3  0  0  0  0  0  0
  188.4210  174.1110  139.0310 C   0  0  0  0  0  1  0  0  0  0  0  0
  189.6030  169.5340  137.8320 O   0  0  0  0  0  1  0  0  0  0  0  0
  190.6640  170.5220  139.7560 C   0  0  0  0  0  3  0  0  0  0  0  0
  189.2230  172.8880  139.3290 C   0  0  0  0  0  0  0  0  0  0  0  0
  190.1240  172.8050  140.4210 C   0  0  0  0  0  0  0  0  0  0  0  0
  189.0590  171.7920  138.4750 C   0  0  0  0  0  3  0  0  0  0  0  0
  1  9  1  0  0  0  0
  2  3  1  0  0  0  0
  2  5  1  0  0  0  0
  3  7  2  0  0  0  0
  4 11  1  0  0  0  0
  5 14  1  0  0  0  0
  6  1  1  0  0  0  0
  7  4  1  0  0  0  0
  8 23  1  6  0  0  0
  8 13  1  0  0  0  0
  8 12  1  0  0  0  0
 10 19  2  0  0  0  0
 12 16  1  0  0  0  0
 13  2  1  0  0  0  0
 14  1  2  0  0  0  0
 15  4  2  0  0  0  0
 16  5  2  0  0  0  0
 16 17  1  0  0  0  0
 17  6  2  0  0  0  0
 18 10  1  0  0  0  0
 18 13  2  0  0  0  0
 19 20  1  0  0  0  0
 19  3  1  0  0  0  0
 20 15  1  0  0  0  0
 21 22  2  0  0  0  0
 22 23  1  0  0  0  0
 24 28  1  0  0  0  0
 26 29  1  0  0  0  0
 27 24  1  0  0  0  0
 28 25  2  0  0  0  0
 29 30  2  0  0  0  0
 30 25  1  0  0  0  0
 30 22  1  0  0  0  0
 31 24  2  0  0  0  0
 31 29  1  0  0  0  0
M  END
>  <MODEL>
3

>  <REMARK>
 VINA RESULT:      -8.9      4.206      5.799
  Name = 
  2 active torsions:
  status: ('A' for Active; 'I' for Inactive)
    1  A    between atoms: C_9  and  C_22
    2  A    between atoms: C_15  and  N_23
                            x       y       z     vdW  Elec       q    Type
                         _______ _______ _______ _____ _____    ______ ____

>  <TORSDO>
F 2

$$$$
=
 OpenBabel11052417513D

 31 35  0  0  1  0  0  0  0  0999 V2000
  184.5210  177.7740  141.2540 C   0  0  0  0  0  0  0  0  0  0  0  0
  187.1200  177.3610  143.9560 N   0  0  0  0  0  0  0  0  0  0  0  0
  186.4510  177.5660  145.2250 C   0  0  2  0  0  3  0  0  0  0  0  0
  184.6650  178.4940  146.6330 C   0  0  0  0  0  0  0  0  0  0  0  0
  186.4960  177.5860  142.6670 C   0  0  0  0  0  0  0  0  0  0  0  0
  185.3340  177.9340  140.1290 C   0  0  0  0  0  3  0  0  0  0  0  0
  185.3030  178.2450  145.3290 C   0  0  0  0  0  3  0  0  0  0  0  0
  189.2500  176.7010  142.6920 C   0  0  2  0  0  3  0  0  0  0  0  0
  183.1730  177.7910  141.1240 F   0  0  0  0  0  0  0  0  0  0  0  0
  188.3070  176.5700  146.3810 N   0  0  0  0  0  0  0  0  0  0  0  0
  183.5460  179.2530  146.6900 F   0  0  0  0  0  0  0  0  0  0  0  0
  188.7910  177.7250  141.6540 C   0  0  0  0  0  2  0  0  0  0  0  0
  188.4860  176.8780  143.9850 C   0  0  0  0  0  0  0  0  0  0  0  0
  185.0990  177.5960  142.5130 C   0  0  0  0  0  3  0  0  0  0  0  0
  185.1900  178.0100  147.7620 C   0  0  0  0  0  3  0  0  0  0  0  0
  187.3040  177.7200  141.5200 C   0  0  0  0  0  0  0  0  0  0  0  0
  186.7230  177.9080  140.2630 C   0  0  0  0  0  3  0  0  0  0  0  0
  189.0260  176.4690  145.1430 C   0  0  0  0  0  3  0  0  0  0  0  0
  187.1170  177.0850  146.4550 C   0  0  0  0  0  0  0  0  0  0  0  0
  186.4150  177.1360  147.7830 C   0  0  0  0  0  3  0  0  0  0  0  0
  191.1440  174.5800  142.6070 O   0  0  0  0  0  0  0  0  0  0  0  0
  191.5930  175.7350  142.8370 C   0  0  0  0  0  0  0  0  0  0  0  0
  190.6870  176.8420  142.9050 N   0  0  0  0  0  2  0  0  0  0  0  0
  195.8210  176.3910  143.2760 C   0  0  0  0  0  0  0  0  0  0  0  0
  193.8700  176.0100  141.9030 C   0  0  0  0  0  3  0  0  0  0  0  0
  192.8610  176.1060  145.5870 C   0  0  0  0  0  1  0  0  0  0  0  0
  197.1870  176.6010  143.3910 O   0  0  0  0  0  1  0  0  0  0  0  0
  195.2450  176.2200  142.0180 C   0  0  0  0  0  3  0  0  0  0  0  0
  193.6420  176.1380  144.3160 C   0  0  0  0  0  0  0  0  0  0  0  0
  193.0470  175.9640  143.0400 C   0  0  0  0  0  0  0  0  0  0  0  0
  195.0220  176.3500  144.4180 C   0  0  0  0  0  3  0  0  0  0  0  0
  1 14  1  0  0  0  0
  2 13  1  0  0  0  0
  2  3  1  0  0  0  0
  3  7  1  1  0  0  0
  3 19  1  0  0  0  0
  4 11  1  0  0  0  0
  4 15  1  0  0  0  0
  5  2  1  0  0  0  0
  6 17  1  0  0  0  0
  6  1  2  0  0  0  0
  7  4  2  0  0  0  0
  8 23  1  1  0  0  0
  8 13  1  0  0  0  0
  9  1  1  0  0  0  0
 10 19  2  0  0  0  0
 12  8  1  0  0  0  0
 13 18  2  0  0  0  0
 14  5  2  0  0  0  0
 15 20  2  0  0  0  0
 16 12  1  0  0  0  0
 16  5  1  0  0  0  0
 17 16  2  0  0  0  0
 18 10  1  0  0  0  0
 19 20  1  0  0  0  0
 21 22  2  0  0  0  0
 22 23  1  0  0  0  0
 22 30  1  0  0  0  0
 24 27  1  0  0  0  0
 24 31  1  0  0  0  0
 25 28  1  0  0  0  0
 25 30  2  0  0  0  0
 28 24  2  0  0  0  0
 29 31  2  0  0  0  0
 29 26  1  0  0  0  0
 30 29  1  0  0  0  0
M  END
>  <MODEL>
4

>  <REMARK>
 VINA RESULT:      -8.8      2.073      4.562
  Name = 
  2 active torsions:
  status: ('A' for Active; 'I' for Inactive)
    1  A    between atoms: C_9  and  C_22
    2  A    between atoms: C_15  and  N_23
                            x       y       z     vdW  Elec       q    Type
                         _______ _______ _______ _____ _____    ______ ____

>  <TORSDO>
F 2

$$$$
=
 OpenBabel11052417513D

 31 35  0  0  1  0  0  0  0  0999 V2000
  185.0810  178.4840  146.9580 C   0  0  0  0  0  0  0  0  0  0  0  0
  187.0870  177.3320  143.9790 N   0  0  0  0  0  0  0  0  0  0  0  0
  186.2850  177.5910  142.8000 C   0  0  0  0  0  0  0  0  0  0  0  0
  184.1480  177.9340  141.6390 C   0  0  0  0  0  0  0  0  0  0  0  0
  186.6050  177.4940  145.3360 C   0  0  0  0  0  0  0  0  0  0  0  0
  185.7660  177.8490  147.9980 C   0  0  0  0  0  3  0  0  0  0  0  0
  184.9550  177.7290  142.8540 C   0  0  0  0  0  3  0  0  0  0  0  0
  189.3230  176.5710  144.9750 C   0  0  2  0  0  3  0  0  0  0  0  0
  184.0110  179.2670  147.2310 F   0  0  0  0  0  0  0  0  0  0  0  0
  188.2210  177.3160  141.4050 N   0  0  0  0  0  0  0  0  0  0  0  0
  182.7990  177.9890  141.7390 F   0  0  0  0  0  0  0  0  0  0  0  0
  188.4710  175.9980  146.1070 C   0  0  0  0  0  2  0  0  0  0  0  0
  188.4590  176.9100  143.7810 C   0  0  0  0  0  0  0  0  0  0  0  0
  185.5020  178.3110  145.6380 C   0  0  0  0  0  3  0  0  0  0  0  0
  184.7220  178.0370  140.4370 C   0  0  0  0  0  3  0  0  0  0  0  0
  187.3030  176.8820  146.3970 C   0  0  0  0  0  0  0  0  0  0  0  0
  186.8740  177.0480  147.7170 C   0  0  0  0  0  3  0  0  0  0  0  0
  188.9980  176.9430  142.5520 C   0  0  0  0  0  3  0  0  0  0  0  0
  186.9580  177.6090  141.4830 C   0  0  0  0  0  0  0  0  0  0  0  0
  186.2150  178.0130  140.2410 C   0  0  0  0  0  2  0  0  0  0  0  0
  192.1110  176.9150  145.4250 O   0  0  0  0  0  0  0  0  0  0  0  0
  191.7500  175.8350  144.8830 C   0  0  0  0  0  0  0  0  0  0  0  0
  190.3610  175.6100  144.6180 N   0  0  0  0  0  2  0  0  0  0  0  0
  194.5960  172.7520  143.9380 C   0  0  0  0  0  0  0  0  0  0  0  0
  192.9160  173.7090  145.3860 C   0  0  0  0  0  3  0  0  0  0  0  0
  193.4260  175.9530  142.3360 C   0  0  0  0  0  1  0  0  0  0  0  0
  195.5070  171.7440  143.6560 O   0  0  0  0  0  1  0  0  0  0  0  0
  193.8330  172.6950  145.1040 C   0  0  0  0  0  3  0  0  0  0  0  0
  193.5270  174.8440  143.3300 C   0  0  0  0  0  0  0  0  0  0  0  0
  192.7450  174.7960  144.5130 C   0  0  0  0  0  0  0  0  0  0  0  0
  194.4420  173.8220  143.0570 C   0  0  0  0  0  3  0  0  0  0  0  0
  1  9  1  0  0  0  0
  1  6  1  0  0  0  0
  2  5  1  0  0  0  0
  3  7  2  0  0  0  0
  3  2  1  0  0  0  0
  4 11  1  0  0  0  0
  4  7  1  0  0  0  0
  5 14  1  0  0  0  0
  5 16  2  0  0  0  0
  8 23  1  6  0  0  0
  8 12  1  0  0  0  0
 10 19  2  0  0  0  0
 10 18  1  0  0  0  0
 12 16  1  0  0  0  0
 13  2  1  0  0  0  0
 13  8  1  0  0  0  0
 14  1  2  0  0  0  0
 15  4  2  0  0  0  0
 16 17  1  0  0  0  0
 17  6  2  0  0  0  0
 18 13  2  0  0  0  0
 19  3  1  0  0  0  0
 20 15  1  0  0  0  0
 20 19  1  0  0  0  0
 22 21  2  0  0  0  0
 23 22  1  0  0  0  0
 24 28  1  0  0  0  0
 26 29  1  0  0  0  0
 27 24  1  0  0  0  0
 28 25  2  0  0  0  0
 29 30  2  0  0  0  0
 30 22  1  0  0  0  0
 30 25  1  0  0  0  0
 31 29  1  0  0  0  0
 31 24  2  0  0  0  0
M  END
>  <MODEL>
5

>  <REMARK>
 VINA RESULT:      -8.7      1.321      1.440
  Name = 
  2 active torsions:
  status: ('A' for Active; 'I' for Inactive)
    1  A    between atoms: C_9  and  C_22
    2  A    between atoms: C_15  and  N_23
                            x       y       z     vdW  Elec       q    Type
                         _______ _______ _______ _____ _____    ______ ____

>  <TORSDO>
F 2

$$$$
=
 OpenBabel11052417513D

 31 35  0  0  1  0  0  0  0  0999 V2000
  185.3150  177.9830  145.7460 C   0  0  0  0  0  0  0  0  0  0  0  0
  188.5010  176.2320  144.7410 N   0  0  0  0  0  0  0  0  0  0  0  0
  189.4350  176.3860  145.8390 C   0  0  2  0  0  3  0  0  0  0  0  0
  190.3110  177.5380  147.8230 C   0  0  0  0  0  0  0  0  0  0  0  0
  187.2140  176.8960  144.6760 C   0  0  0  0  0  0  0  0  0  0  0  0
  184.6740  178.0930  144.5100 C   0  0  0  0  0  3  0  0  0  0  0  0
  189.3210  177.3610  146.7470 C   0  0  0  0  0  3  0  0  0  0  0  0
  187.9610  175.1900  142.4630 C   0  0  2  0  0  3  0  0  0  0  0  0
  184.7150  178.4560  146.8640 F   0  0  0  0  0  0  0  0  0  0  0  0
  190.8120  174.6390  144.9290 N   0  0  0  0  0  0  0  0  0  0  0  0
  190.1920  178.5890  148.6680 F   0  0  0  0  0  0  0  0  0  0  0  0
  187.2050  176.4910  142.1970 C   0  0  0  0  0  2  0  0  0  0  0  0
  188.8720  175.3420  143.6600 C   0  0  0  0  0  0  0  0  0  0  0  0
  186.5740  177.3840  145.8290 C   0  0  0  0  0  3  0  0  0  0  0  0
  191.3410  176.6980  147.9590 C   0  0  0  0  0  3  0  0  0  0  0  0
  186.5440  176.9880  143.4400 C   0  0  0  0  0  0  0  0  0  0  0  0
  185.2890  177.5980  143.3590 C   0  0  0  0  0  3  0  0  0  0  0  0
  189.9570  174.5610  143.7800 C   0  0  0  0  0  3  0  0  0  0  0  0
  190.6060  175.4830  145.8950 C   0  0  0  0  0  0  0  0  0  0  0  0
  191.5310  175.4910  147.0790 C   0  0  0  0  0  3  0  0  0  0  0  0
  187.7310  172.7180  141.0730 O   0  0  0  0  0  0  0  0  0  0  0  0
  188.5450  173.5610  140.6060 C   0  0  0  0  0  0  0  0  0  0  0  0
  188.7150  174.8170  141.2700 N   0  0  0  0  0  2  0  0  0  0  0  0
  190.9160  172.6210  137.1430 C   0  0  0  0  0  0  0  0  0  0  0  0
  190.4570  172.4340  139.5070 C   0  0  0  0  0  3  0  0  0  0  0  0
  187.8370  174.6690  137.8530 C   0  0  0  0  0  1  0  0  0  0  0  0
  191.6970  172.3030  136.0410 O   0  0  0  0  0  1  0  0  0  0  0  0
  191.2440  172.1140  138.4000 C   0  0  0  0  0  3  0  0  0  0  0  0
  189.0070  173.7770  138.0980 C   0  0  0  0  0  0  0  0  0  0  0  0
  189.3320  173.2660  139.3810 C   0  0  0  0  0  0  0  0  0  0  0  0
  189.8030  173.4490  136.9950 C   0  0  0  0  0  3  0  0  0  0  0  0
  1 14  1  0  0  0  0
  1  9  1  0  0  0  0
  2  3  1  0  0  0  0
  3 19  1  0  0  0  0
  3  7  1  6  0  0  0
  4 15  1  0  0  0  0
  4 11  1  0  0  0  0
  5  2  1  0  0  0  0
  5 14  2  0  0  0  0
  6  1  2  0  0  0  0
  7  4  2  0  0  0  0
  8 23  1  6  0  0  0
  8 13  1  0  0  0  0
 10 19  2  0  0  0  0
 12  8  1  0  0  0  0
 12 16  1  0  0  0  0
 13 18  2  0  0  0  0
 13  2  1  0  0  0  0
 16  5  1  0  0  0  0
 17 16  2  0  0  0  0
 17  6  1  0  0  0  0
 18 10  1  0  0  0  0
 19 20  1  0  0  0  0
 20 15  2  0  0  0  0
 22 21  2  0  0  0  0
 22 23  1  0  0  0  0
 24 28  1  0  0  0  0
 26 29  1  0  0  0  0
 27 24  1  0  0  0  0
 28 25  2  0  0  0  0
 29 30  2  0  0  0  0
 30 25  1  0  0  0  0
 30 22  1  0  0  0  0
 31 24  2  0  0  0  0
 31 29  1  0  0  0  0
M  END
>  <MODEL>
6

>  <REMARK>
 VINA RESULT:      -8.7      4.280      6.693
  Name = 
  2 active torsions:
  status: ('A' for Active; 'I' for Inactive)
    1  A    between atoms: C_9  and  C_22
    2  A    between atoms: C_15  and  N_23
                            x       y       z     vdW  Elec       q    Type
                         _______ _______ _______ _____ _____    ______ ____

>  <TORSDO>
F 2

$$$$
=
 OpenBabel11052417513D

 31 35  0  0  1  0  0  0  0  0999 V2000
  185.3640  177.5950  141.0500 C   0  0  0  0  0  0  0  0  0  0  0  0
  187.3230  176.8780  144.1930 N   0  0  0  0  0  0  0  0  0  0  0  0
  186.4810  177.2490  145.3130 C   0  0  2  0  0  3  0  0  0  0  0  0
  184.6570  178.5220  146.3520 C   0  0  0  0  0  0  0  0  0  0  0  0
  186.9890  177.1450  142.8070 C   0  0  0  0  0  0  0  0  0  0  0  0
  186.3810  177.5660  140.0930 C   0  0  0  0  0  3  0  0  0  0  0  0
  185.4670  178.1120  145.1920 C   0  0  0  0  0  3  0  0  0  0  0  0
  189.5010  175.8180  143.3540 C   0  0  2  0  0  3  0  0  0  0  0  0
  184.0850  177.8290  140.6720 F   0  0  0  0  0  0  0  0  0  0  0  0
  187.9000  176.0110  146.8060 N   0  0  0  0  0  0  0  0  0  0  0  0
  183.6930  179.4590  146.1910 F   0  0  0  0  0  0  0  0  0  0  0  0
  189.4190  176.8560  142.2360 C   0  0  0  0  0  2  0  0  0  0  0  0
  188.5580  176.1770  144.4810 C   0  0  0  0  0  0  0  0  0  0  0  0
  185.6650  177.3800  142.3970 C   0  0  0  0  0  3  0  0  0  0  0  0
  184.8780  178.0090  147.5660 C   0  0  0  0  0  3  0  0  0  0  0  0
  188.0010  177.0910  141.8280 C   0  0  0  0  0  0  0  0  0  0  0  0
  187.6980  177.3160  140.4830 C   0  0  0  0  0  3  0  0  0  0  0  0
  188.8020  175.7370  145.7240 C   0  0  0  0  0  3  0  0  0  0  0  0
  186.8220  176.7190  146.6520 C   0  0  0  0  0  0  0  0  0  0  0  0
  185.9120  176.9460  147.8260 C   0  0  0  0  0  3  0  0  0  0  0  0
  190.9020  173.4020  143.8950 O   0  0  0  0  0  0  0  0  0  0  0  0
  191.5350  174.4780  144.0700 C   0  0  0  0  0  0  0  0  0  0  0  0
  190.8780  175.7270  143.8280 N   0  0  0  0  0  2  0  0  0  0  0  0
  195.6610  174.3620  145.2770 C   0  0  0  0  0  0  0  0  0  0  0  0
  193.8760  173.7280  143.7780 C   0  0  0  0  0  3  0  0  0  0  0  0
  192.5050  175.9810  146.5420 C   0  0  0  0  0  1  0  0  0  0  0  0
  196.9980  174.3090  145.6450 O   0  0  0  0  0  1  0  0  0  0  0  0
  195.2210  173.6730  144.1480 C   0  0  0  0  0  3  0  0  0  0  0  0
  193.4060  175.1660  145.6750 C   0  0  0  0  0  0  0  0  0  0  0  0
  192.9480  174.4690  144.5280 C   0  0  0  0  0  0  0  0  0  0  0  0
  194.7570  175.1040  146.0360 C   0  0  0  0  0  3  0  0  0  0  0  0
  1 14  1  0  0  0  0
  2 13  1  0  0  0  0
  2  3  1  0  0  0  0
  3  7  1  1  0  0  0
  3 19  1  0  0  0  0
  4 15  1  0  0  0  0
  5  2  1  0  0  0  0
  6 17  1  0  0  0  0
  6  1  2  0  0  0  0
  7  4  2  0  0  0  0
  8 23  1  1  0  0  0
  8 13  1  0  0  0  0
  9  1  1  0  0  0  0
 11  4  1  0  0  0  0
 12  8  1  0  0  0  0
 13 18  2  0  0  0  0
 14  5  2  0  0  0  0
 15 20  2  0  0  0  0
 16 12  1  0  0  0  0
 16  5  1  0  0  0  0
 17 16  2  0  0  0  0
 18 10  1  0  0  0  0
 19 10  2  0  0  0  0
 19 20  1  0  0  0  0
 21 22  2  0  0  0  0
 22 30  1  0  0  0  0
 23 22  1  0  0  0  0
 24 27  1  0  0  0  0
 24 31  1  0  0  0  0
 25 28  1  0  0  0  0
 25 30  2  0  0  0  0
 28 24  2  0  0  0  0
 29 31  2  0  0  0  0
 29 26  1  0  0  0  0
 30 29  1  0  0  0  0
M  END
>  <MODEL>
7

>  <REMARK>
 VINA RESULT:      -8.4      1.492      4.266
  Name = 
  2 active torsions:
  status: ('A' for Active; 'I' for Inactive)
    1  A    between atoms: C_9  and  C_22
    2  A    between atoms: C_15  and  N_23
                            x       y       z     vdW  Elec       q    Type
                         _______ _______ _______ _____ _____    ______ ____

>  <TORSDO>
F 2

$$$$
=
 OpenBabel11052417513D

 31 35  0  0  1  0  0  0  0  0999 V2000
  190.2090  177.5340  147.5650 C   0  0  0  0  0  0  0  0  0  0  0  0
  188.3050  176.3320  144.5400 N   0  0  0  0  0  0  0  0  0  0  0  0
  187.0290  177.0190  144.5400 C   0  0  0  0  0  0  0  0  0  0  0  0
  185.1770  178.1970  145.6410 C   0  0  0  0  0  0  0  0  0  0  0  0
  189.2620  176.4060  145.6260 C   0  0  0  0  0  0  0  0  0  0  0  0
  191.2010  176.5550  147.6590 C   0  0  0  0  0  3  0  0  0  0  0  0
  186.5010  177.5520  145.6480 C   0  0  0  0  0  3  0  0  0  0  0  0
  189.9390  174.7610  143.3450 C   0  0  2  0  0  3  0  0  0  0  0  0
  190.1790  178.5540  148.4560 F   0  0  0  0  0  0  0  0  0  0  0  0
  186.6770  176.3940  142.2460 N   0  0  0  0  0  0  0  0  0  0  0  0
  184.6530  178.6490  146.8050 F   0  0  0  0  0  0  0  0  0  0  0  0
  190.3160  174.2990  144.7520 C   0  0  0  0  0  2  0  0  0  0  0  0
  188.6460  175.5450  143.3720 C   0  0  0  0  0  0  0  0  0  0  0  0
  189.2500  177.4630  146.5530 C   0  0  0  0  0  3  0  0  0  0  0  0
  184.4700  178.3150  144.5130 C   0  0  0  0  0  3  0  0  0  0  0  0
  190.2850  175.4400  145.7140 C   0  0  0  0  0  0  0  0  0  0  0  0
  191.2370  175.5090  146.7360 C   0  0  0  0  0  3  0  0  0  0  0  0
  187.8810  175.6140  142.2730 C   0  0  0  0  0  3  0  0  0  0  0  0
  186.2480  177.0470  143.2840 C   0  0  0  0  0  0  0  0  0  0  0  0
  184.9900  177.8630  143.1750 C   0  0  0  0  0  2  0  0  0  0  0  0
  191.9570  173.8530  141.5570 O   0  0  0  0  0  0  0  0  0  0  0  0
  190.8900  173.1830  141.5980 C   0  0  0  0  0  0  0  0  0  0  0  0
  189.8320  173.5990  142.4680 N   0  0  0  0  0  2  0  0  0  0  0  0
  190.3200  169.7680  139.0470 C   0  0  0  0  0  0  0  0  0  0  0  0
  190.1320  172.1360  139.4860 C   0  0  0  0  0  3  0  0  0  0  0  0
  191.7270  170.3860  142.4850 C   0  0  0  0  0  1  0  0  0  0  0  0
  190.1250  168.6820  138.2060 O   0  0  0  0  0  1  0  0  0  0  0  0
  189.9350  171.0440  138.6390 C   0  0  0  0  0  3  0  0  0  0  0  0
  191.1020  170.6700  141.1600 C   0  0  0  0  0  0  0  0  0  0  0  0
  190.7140  171.9730  140.7540 C   0  0  0  0  0  0  0  0  0  0  0  0
  190.9000  169.5840  140.3020 C   0  0  0  0  0  3  0  0  0  0  0  0
  1  6  1  0  0  0  0
  1  9  1  0  0  0  0
  2  3  1  0  0  0  0
  2  5  1  0  0  0  0
  3  7  2  0  0  0  0
  4  7  1  0  0  0  0
  4 11  1  0  0  0  0
  5 16  2  0  0  0  0
  5 14  1  0  0  0  0
  8 23  1  6  0  0  0
  8 13  1  0  0  0  0
  8 12  1  0  0  0  0
 10 18  1  0  0  0  0
 10 19  2  0  0  0  0
 12 16  1  0  0  0  0
 13  2  1  0  0  0  0
 14  1  2  0  0  0  0
 15  4  2  0  0  0  0
 16 17  1  0  0  0  0
 17  6  2  0  0  0  0
 18 13  2  0  0  0  0
 19  3  1  0  0  0  0
 20 19  1  0  0  0  0
 20 15  1  0  0  0  0
 21 22  2  0  0  0  0
 22 23  1  0  0  0  0
 24 31  1  0  0  0  0
 25 30  2  0  0  0  0
 27 24  1  0  0  0  0
 28 24  2  0  0  0  0
 28 25  1  0  0  0  0
 29 26  1  0  0  0  0
 30 29  1  0  0  0  0
 30 22  1  0  0  0  0
 31 29  2  0  0  0  0
M  END
>  <MODEL>
8

>  <REMARK>
 VINA RESULT:      -8.4      4.291      5.572
  Name = 
  2 active torsions:
  status: ('A' for Active; 'I' for Inactive)
    1  A    between atoms: C_9  and  C_22
    2  A    between atoms: C_15  and  N_23
                            x       y       z     vdW  Elec       q    Type
                         _______ _______ _______ _____ _____    ______ ____

>  <TORSDO>
F 2

$$$$
=
 OpenBabel11052417513D

 31 35  0  0  1  0  0  0  0  0999 V2000
  195.1050  174.3910  145.7620 C   0  0  0  0  0  0  0  0  0  0  0  0
  191.7450  173.7770  144.1610 N   0  0  0  0  0  0  0  0  0  0  0  0
  191.8920  172.6280  143.2900 C   0  0  0  0  0  0  0  0  0  0  0  0
  193.2050  171.1030  141.8830 C   0  0  0  0  0  0  0  0  0  0  0  0
  192.8500  174.4240  144.8400 C   0  0  0  0  0  0  0  0  0  0  0  0
  194.9330  175.6910  146.2440 C   0  0  0  0  0  3  0  0  0  0  0  0
  193.0790  172.2370  142.8130 C   0  0  0  0  0  3  0  0  0  0  0  0
  190.2020  175.5190  145.2350 C   0  0  2  0  0  3  0  0  0  0  0  0
  196.2750  173.7420  145.9660 F   0  0  0  0  0  0  0  0  0  0  0  0
  189.5040  172.3950  143.1710 N   0  0  0  0  0  0  0  0  0  0  0  0
  194.4190  170.7980  141.3680 F   0  0  0  0  0  0  0  0  0  0  0  0
  191.4030  176.4590  145.1170 C   0  0  0  0  0  2  0  0  0  0  0  0
  190.4070  174.2880  144.3820 C   0  0  0  0  0  0  0  0  0  0  0  0
  194.0690  173.7610  145.0690 C   0  0  0  0  0  3  0  0  0  0  0  0
  192.1370  170.3890  141.5150 C   0  0  0  0  0  3  0  0  0  0  0  0
  192.6810  175.7240  145.3560 C   0  0  0  0  0  0  0  0  0  0  0  0
  193.7230  176.3570  146.0400 C   0  0  0  0  0  3  0  0  0  0  0  0
  189.3460  173.5990  143.9360 C   0  0  0  0  0  3  0  0  0  0  0  0
  190.6690  171.9250  142.8440 C   0  0  0  0  0  0  0  0  0  0  0  0
  190.7570  170.6450  142.0620 C   0  0  0  0  0  2  0  0  0  0  0  0
  187.8560  175.7690  146.8240 O   0  0  0  0  0  0  0  0  0  0  0  0
  187.8440  176.3360  145.6980 C   0  0  0  0  0  0  0  0  0  0  0  0
  188.9910  176.2340  144.8480 N   0  0  0  0  0  2  0  0  0  0  0  0
  184.4140  178.4840  144.2440 C   0  0  0  0  0  0  0  0  0  0  0  0
  186.1670  176.8490  143.9500 C   0  0  0  0  0  3  0  0  0  0  0  0
  186.4340  178.4230  147.4210 C   0  0  0  0  0  1  0  0  0  0  0  0
  183.3080  179.1630  143.7520 O   0  0  0  0  0  1  0  0  0  0  0  0
  185.0560  177.5320  143.4530 C   0  0  0  0  0  3  0  0  0  0  0  0
  185.9960  178.0740  146.0380 C   0  0  0  0  0  0  0  0  0  0  0  0
  186.6570  177.1040  145.2420 C   0  0  0  0  0  0  0  0  0  0  0  0
  184.8830  178.7520  145.5300 C   0  0  0  0  0  3  0  0  0  0  0  0
  1  9  1  0  0  0  0
  1  6  1  0  0  0  0
  2 13  1  0  0  0  0
  2  5  1  0  0  0  0
  3  2  1  0  0  0  0
  4  7  1  0  0  0  0
  5 14  1  0  0  0  0
  5 16  2  0  0  0  0
  7  3  2  0  0  0  0
  8 23  1  6  0  0  0
 10 18  1  0  0  0  0
 11  4  1  0  0  0  0
 12  8  1  0  0  0  0
 12 16  1  0  0  0  0
 13  8  1  0  0  0  0
 14  1  2  0  0  0  0
 15  4  2  0  0  0  0
 15 20  1  0  0  0  0
 16 17  1  0  0  0  0
 17  6  2  0  0  0  0
 18 13  2  0  0  0  0
 19 10  2  0  0  0  0
 19  3  1  0  0  0  0
 20 19  1  0  0  0  0
 22 21  2  0  0  0  0
 23 22  1  0  0  0  0
 24 31  1  0  0  0  0
 25 30  2  0  0  0  0
 27 24  1  0  0  0  0
 28 25  1  0  0  0  0
 28 24  2  0  0  0  0
 29 26  1  0  0  0  0
 30 22  1  0  0  0  0
 30 29  1  0  0  0  0
 31 29  2  0  0  0  0
M  END
>  <MODEL>
9

>  <REMARK>
 VINA RESULT:      -8.1      4.538      8.494
  Name = 
  2 active torsions:
  status: ('A' for Active; 'I' for Inactive)
    1  A    between atoms: C_9  and  C_22
    2  A    between atoms: C_15  and  N_23
                            x       y       z     vdW  Elec       q    Type
                         _______ _______ _______ _____ _____    ______ ____

>  <TORSDO>
F 2

$$$$
