=
 OpenBabel11052421363D

 32 36  0  0  1  0  0  0  0  0999 V2000
  190.4400  171.2930  139.8540 C   0  0  0  0  0  2  0  0  0  0  0  0
  188.3320  175.1690  142.2310 C   0  0  0  0  0  0  0  0  0  0  0  0
  190.3380  174.4780  146.6790 C   0  0  0  0  0  3  0  0  0  0  0  0
  189.3780  175.2650  147.1670 C   0  0  0  0  0  3  0  0  0  0  0  0
  189.1390  173.9610  140.2740 C   0  0  0  0  0  0  0  0  0  0  0  0
  190.2530  173.7010  142.4190 C   0  0  0  0  0  3  0  0  0  0  0  0
  191.1660  172.4430  140.5080 C   0  0  0  0  0  2  0  0  0  0  0  0
  190.5480  174.2730  145.2020 C   0  0  0  0  0  3  0  0  0  0  0  0
  189.3490  174.5830  143.0290 C   0  0  0  0  0  0  0  0  0  0  0  0
  189.4430  174.8590  144.3470 C   0  0  0  0  0  0  0  0  0  0  0  0
  187.5020  176.4080  144.0810 N   0  0  0  0  0  0  0  0  0  0  0  0
  189.4420  173.0650  136.3690 S   0  0  0  0  0  0  0  0  0  0  0  0
  189.5990  172.7790  137.9770 C   0  0  0  0  0  0  0  0  0  0  0  0
  190.1630  173.3880  141.0600 C   0  0  0  0  0  0  0  0  0  0  0  0
  188.9840  173.7260  138.8650 N   0  0  0  0  0  2  0  0  0  0  0  0
  190.2570  171.5770  138.4430 N   0  0  0  0  0  0  0  0  0  0  0  0
  188.4310  175.9580  146.2820 C   0  0  0  0  0  3  0  0  0  0  0  0
  188.4640  175.7860  144.9550 C   0  0  1  0  0  3  0  0  0  0  0  0
  188.2450  174.8500  140.8750 C   0  0  0  0  0  3  0  0  0  0  0  0
  187.4770  176.0150  142.7300 N   0  0  0  0  0  0  0  0  0  0  0  0
  184.6330  177.9030  145.9460 C   0  0  0  0  0  0  0  0  0  0  0  0
  184.6010  179.1960  145.4210 C   0  0  0  0  0  3  0  0  0  0  0  0
  186.4890  178.6680  143.9940 C   0  0  0  0  0  0  0  0  0  0  0  0
  185.4750  180.8310  143.9280 F   0  0  0  0  0  0  0  0  0  0  0  0
  185.5250  179.5790  144.4450 C   0  0  0  0  0  0  0  0  0  0  0  0
  185.5940  176.9920  145.5010 C   0  0  0  0  0  3  0  0  0  0  0  0
  183.7310  177.5310  146.8860 F   0  0  0  0  0  0  0  0  0  0  0  0
  187.3440  179.0370  143.0080 F   0  0  0  0  0  0  0  0  0  0  0  0
  186.5380  177.3690  144.5370 C   0  0  0  0  0  0  0  0  0  0  0  0
  190.8460  170.6160  137.5150 C   0  0  0  0  0  2  0  0  0  0  0  0
  190.1040  169.2890  137.5660 C   0  0  0  0  0  2  0  0  0  0  0  0
  191.0520  168.1890  137.5190 N   0  0  0  0  0  1  0  0  0  0  0  0
  1  7  1  0  0  0  0
  2 20  2  0  0  0  0
  2  9  1  0  0  0  0
  3  4  1  0  0  0  0
  5 19  2  0  0  0  0
  5 14  1  0  0  0  0
  6  9  1  0  0  0  0
  7 14  1  0  0  0  0
  8  3  2  0  0  0  0
  9 10  2  0  0  0  0
 10 18  1  0  0  0  0
 10  8  1  0  0  0  0
 11 29  1  0  0  0  0
 11 18  1  0  0  0  0
 12 13  2  0  0  0  0
 13 16  1  0  0  0  0
 13 15  1  0  0  0  0
 14  6  2  0  0  0  0
 15  5  1  0  0  0  0
 16  1  1  0  0  0  0
 17  4  2  0  0  0  0
 18 17  1  1  0  0  0
 19  2  1  0  0  0  0
 20 11  1  0  0  0  0
 21 27  1  0  0  0  0
 22 21  2  0  0  0  0
 23 25  2  0  0  0  0
 23 29  1  0  0  0  0
 24 25  1  0  0  0  0
 25 22  1  0  0  0  0
 26 21  1  0  0  0  0
 28 23  1  0  0  0  0
 29 26  2  0  0  0  0
 30 31  1  0  0  0  0
 30 16  1  0  0  0  0
 32 31  1  0  0  0  0
M  END
>  <MODEL>
1

>  <REMARK>
 VINA RESULT:      -8.3      0.000      0.000
  Name = 
  3 active torsions:
  status: ('A' for Active; 'I' for Inactive)
    1  A    between atoms: C_1  and  C_10
    2  A    between atoms: C_10  and  N_24
    3  A    between atoms: N_16  and  C_32
                            x       y       z     vdW  Elec       q    Type
                         _______ _______ _______ _____ _____    ______ ____

>  <TORSDO>
F 3

$$$$
=
 OpenBabel11052421363D

 32 36  0  0  1  0  0  0  0  0999 V2000
  191.4810  171.3580  141.1910 C   0  0  0  0  0  2  0  0  0  0  0  0
  188.7470  175.2350  142.8040 C   0  0  0  0  0  0  0  0  0  0  0  0
  191.3310  176.3160  146.8580 C   0  0  0  0  0  3  0  0  0  0  0  0
  190.2650  176.9940  147.2840 C   0  0  0  0  0  3  0  0  0  0  0  0
  189.6120  173.7000  141.1200 C   0  0  0  0  0  0  0  0  0  0  0  0
  190.9810  174.3190  143.0310 C   0  0  0  0  0  3  0  0  0  0  0  0
  191.9650  172.7740  141.3850 C   0  0  0  0  0  2  0  0  0  0  0  0
  191.4240  175.7330  145.4730 C   0  0  0  0  0  3  0  0  0  0  0  0
  189.9580  175.1340  143.5370 C   0  0  0  0  0  0  0  0  0  0  0  0
  190.1230  175.7990  144.7010 C   0  0  0  0  0  0  0  0  0  0  0  0
  187.8410  176.7620  144.3830 N   0  0  0  0  0  0  0  0  0  0  0  0
  189.7030  171.7780  137.5930 S   0  0  0  0  0  0  0  0  0  0  0  0
  190.1000  172.0160  139.1670 C   0  0  0  0  0  0  0  0  0  0  0  0
  190.8240  173.6090  141.8380 C   0  0  0  0  0  0  0  0  0  0  0  0
  189.3680  173.0340  139.8710 N   0  0  0  0  0  2  0  0  0  0  0  0
  191.0820  171.1690  139.8080 N   0  0  0  0  0  0  0  0  0  0  0  0
  189.0840  177.1840  146.4270 C   0  0  0  0  0  3  0  0  0  0  0  0
  189.0150  176.6390  145.2070 C   0  0  1  0  0  3  0  0  0  0  0  0
  188.5950  174.5200  141.6140 C   0  0  0  0  0  3  0  0  0  0  0  0
  187.7670  175.9930  143.2060 N   0  0  0  0  0  0  0  0  0  0  0  0
  185.5390  179.7000  144.4980 C   0  0  0  0  0  0  0  0  0  0  0  0
  184.5840  179.2730  145.4220 C   0  0  0  0  0  3  0  0  0  0  0  0
  185.7690  177.1730  145.6800 C   0  0  0  0  0  0  0  0  0  0  0  0
  183.7770  177.6120  146.9250 F   0  0  0  0  0  0  0  0  0  0  0  0
  184.6990  178.0120  146.0150 C   0  0  0  0  0  0  0  0  0  0  0  0
  186.6060  178.8660  144.1590 C   0  0  0  0  0  3  0  0  0  0  0  0
  185.4300  180.9260  143.9300 F   0  0  0  0  0  0  0  0  0  0  0  0
  185.8970  175.9750  146.3050 F   0  0  0  0  0  0  0  0  0  0  0  0
  186.7230  177.5930  144.7330 C   0  0  0  0  0  0  0  0  0  0  0  0
  191.7870  170.1220  139.0750 C   0  0  0  0  0  2  0  0  0  0  0  0
  191.7490  168.8060  139.8380 C   0  0  0  0  0  2  0  0  0  0  0  0
  190.4550  168.1690  139.6630 N   0  0  0  0  0  1  0  0  0  0  0  0
  1  7  1  0  0  0  0
  2 20  2  0  0  0  0
  2  9  1  0  0  0  0
  3  4  1  0  0  0  0
  5 19  2  0  0  0  0
  5 14  1  0  0  0  0
  6  9  1  0  0  0  0
  7 14  1  0  0  0  0
  8  3  2  0  0  0  0
  9 10  2  0  0  0  0
 10 18  1  0  0  0  0
 10  8  1  0  0  0  0
 11 29  1  0  0  0  0
 11 18  1  0  0  0  0
 12 13  2  0  0  0  0
 13 16  1  0  0  0  0
 13 15  1  0  0  0  0
 14  6  2  0  0  0  0
 15  5  1  0  0  0  0
 16  1  1  0  0  0  0
 17  4  2  0  0  0  0
 18 17  1  1  0  0  0
 19  2  1  0  0  0  0
 20 11  1  0  0  0  0
 21 22  1  0  0  0  0
 22 25  2  0  0  0  0
 23 25  1  0  0  0  0
 23 28  1  0  0  0  0
 25 24  1  0  0  0  0
 26 21  2  0  0  0  0
 26 29  1  0  0  0  0
 27 21  1  0  0  0  0
 29 23  2  0  0  0  0
 30 16  1  0  0  0  0
 30 31  1  0  0  0  0
 32 31  1  0  0  0  0
M  END
>  <MODEL>
2

>  <REMARK>
 VINA RESULT:      -8.2      1.335      2.123
  Name = 
  3 active torsions:
  status: ('A' for Active; 'I' for Inactive)
    1  A    between atoms: C_1  and  C_10
    2  A    between atoms: C_10  and  N_24
    3  A    between atoms: N_16  and  C_32
                            x       y       z     vdW  Elec       q    Type
                         _______ _______ _______ _____ _____    ______ ____

>  <TORSDO>
F 3

$$$$
=
 OpenBabel11052421363D

 32 36  0  0  1  0  0  0  0  0999 V2000
  193.2190  174.9510  146.2000 C   0  0  0  0  0  2  0  0  0  0  0  0
  189.2910  176.8990  143.7730 C   0  0  0  0  0  0  0  0  0  0  0  0
  186.0890  176.9870  147.5170 C   0  0  0  0  0  3  0  0  0  0  0  0
  185.1200  177.1000  146.6070 C   0  0  0  0  0  3  0  0  0  0  0  0
  191.6630  176.4780  144.1430 C   0  0  0  0  0  0  0  0  0  0  0  0
  190.1440  176.6600  146.0310 C   0  0  0  0  0  3  0  0  0  0  0  0
  192.5210  176.2490  146.5250 C   0  0  0  0  0  2  0  0  0  0  0  0
  187.5500  177.0540  147.1620 C   0  0  0  0  0  3  0  0  0  0  0  0
  189.0550  176.8720  145.1720 C   0  0  0  0  0  0  0  0  0  0  0  0
  187.8110  177.0390  145.6700 C   0  0  0  0  0  0  0  0  0  0  0  0
  187.0000  177.3430  143.3280 N   0  0  0  0  0  0  0  0  0  0  0  0
  195.5520  176.2250  143.1630 S   0  0  0  0  0  0  0  0  0  0  0  0
  194.2280  175.9250  144.0850 C   0  0  0  0  0  0  0  0  0  0  0  0
  191.4360  176.4670  145.5360 C   0  0  0  0  0  0  0  0  0  0  0  0
  192.9580  176.3210  143.5410 N   0  0  0  0  0  2  0  0  0  0  0  0
  194.3580  175.2180  145.3410 N   0  0  0  0  0  0  0  0  0  0  0  0
  185.4270  177.2620  145.1780 C   0  0  0  0  0  3  0  0  0  0  0  0
  186.6880  177.2500  144.7300 C   0  0  1  0  0  3  0  0  0  0  0  0
  190.5840  176.7030  143.2850 C   0  0  0  0  0  3  0  0  0  0  0  0
  188.3290  177.1160  142.9230 N   0  0  0  0  0  0  0  0  0  0  0  0
  183.7430  178.2610  141.7490 C   0  0  0  0  0  0  0  0  0  0  0  0
  184.0250  178.0780  140.3940 C   0  0  0  0  0  3  0  0  0  0  0  0
  186.2850  177.4000  140.9550 C   0  0  0  0  0  0  0  0  0  0  0  0
  185.5550  177.4540  138.6800 F   0  0  0  0  0  0  0  0  0  0  0  0
  185.2940  177.6460  139.9970 C   0  0  0  0  0  0  0  0  0  0  0  0
  184.7290  178.0200  142.7080 C   0  0  0  0  0  3  0  0  0  0  0  0
  182.5100  178.6710  142.1340 F   0  0  0  0  0  0  0  0  0  0  0  0
  187.4940  176.9300  140.5570 F   0  0  0  0  0  0  0  0  0  0  0  0
  186.0090  177.6040  142.3210 C   0  0  0  0  0  0  0  0  0  0  0  0
  195.6590  174.8000  145.8540 C   0  0  0  0  0  2  0  0  0  0  0  0
  195.8680  173.3070  145.6510 C   0  0  0  0  0  2  0  0  0  0  0  0
  197.1550  172.9080  146.1930 N   0  0  0  0  0  1  0  0  0  0  0  0
  1  7  1  0  0  0  0
  2  9  1  0  0  0  0
  4  3  1  0  0  0  0
  5 14  1  0  0  0  0
  8  3  2  0  0  0  0
  9 10  2  0  0  0  0
  9  6  1  0  0  0  0
 10  8  1  0  0  0  0
 11 18  1  0  0  0  0
 12 13  2  0  0  0  0
 13 16  1  0  0  0  0
 14  6  2  0  0  0  0
 14  7  1  0  0  0  0
 15 13  1  0  0  0  0
 15  5  1  0  0  0  0
 16 30  1  0  0  0  0
 16  1  1  0  0  0  0
 17  4  2  0  0  0  0
 18 17  1  6  0  0  0
 18 10  1  0  0  0  0
 19  2  1  0  0  0  0
 19  5  2  0  0  0  0
 20 11  1  0  0  0  0
 20  2  2  0  0  0  0
 21 27  1  0  0  0  0
 21 26  1  0  0  0  0
 22 21  2  0  0  0  0
 23 29  1  0  0  0  0
 24 25  1  0  0  0  0
 25 22  1  0  0  0  0
 25 23  2  0  0  0  0
 28 23  1  0  0  0  0
 29 26  2  0  0  0  0
 29 11  1  0  0  0  0
 31 30  1  0  0  0  0
 31 32  1  0  0  0  0
M  END
>  <MODEL>
3

>  <REMARK>
 VINA RESULT:      -8.0      4.710      5.959
  Name = 
  3 active torsions:
  status: ('A' for Active; 'I' for Inactive)
    1  A    between atoms: C_1  and  C_10
    2  A    between atoms: C_10  and  N_24
    3  A    between atoms: N_16  and  C_32
                            x       y       z     vdW  Elec       q    Type
                         _______ _______ _______ _____ _____    ______ ____

>  <TORSDO>
F 3

$$$$
=
 OpenBabel11052421363D

 32 36  0  0  1  0  0  0  0  0999 V2000
  186.3180  178.7240  142.3750 C   0  0  0  0  0  2  0  0  0  0  0  0
  190.5750  176.3790  143.5980 C   0  0  0  0  0  0  0  0  0  0  0  0
  190.6380  177.4420  148.4090 C   0  0  0  0  0  3  0  0  0  0  0  0
  191.9360  177.1330  148.3990 C   0  0  0  0  0  3  0  0  0  0  0  0
  188.5910  176.7750  142.2380 C   0  0  0  0  0  0  0  0  0  0  0  0
  188.5310  177.1750  144.6340 C   0  0  0  0  0  3  0  0  0  0  0  0
  186.4640  177.5940  143.3640 C   0  0  0  0  0  2  0  0  0  0  0  0
  189.7390  177.2160  147.2230 C   0  0  0  0  0  3  0  0  0  0  0  0
  189.8740  176.7900  144.7620 C   0  0  0  0  0  0  0  0  0  0  0  0
  190.4850  176.8190  145.9660 C   0  0  0  0  0  0  0  0  0  0  0  0
  192.5410  175.9370  144.8560 N   0  0  0  0  0  0  0  0  0  0  0  0
  186.2800  176.5790  138.9560 S   0  0  0  0  0  0  0  0  0  0  0  0
  186.7490  177.1750  140.4120 C   0  0  0  0  0  0  0  0  0  0  0  0
  187.8860  177.1690  143.3960 C   0  0  0  0  0  0  0  0  0  0  0  0
  188.0060  176.7060  140.9280 N   0  0  0  0  0  2  0  0  0  0  0  0
  185.9550  178.1860  141.0760 N   0  0  0  0  0  0  0  0  0  0  0  0
  192.5820  176.5820  147.1990 C   0  0  0  0  0  3  0  0  0  0  0  0
  191.9050  176.4150  146.0560 C   0  0  1  0  0  3  0  0  0  0  0  0
  189.9250  176.3780  142.3620 C   0  0  0  0  0  3  0  0  0  0  0  0
  191.8150  175.9860  143.6510 N   0  0  0  0  0  0  0  0  0  0  0  0
  196.1990  175.7790  144.1240 C   0  0  0  0  0  0  0  0  0  0  0  0
  196.5460  174.5500  144.6900 C   0  0  0  0  0  3  0  0  0  0  0  0
  194.2450  174.2130  145.3760 C   0  0  0  0  0  0  0  0  0  0  0  0
  195.9130  172.5670  145.8450 F   0  0  0  0  0  0  0  0  0  0  0  0
  195.5710  173.7670  145.3130 C   0  0  0  0  0  0  0  0  0  0  0  0
  194.8780  176.2290  144.1860 C   0  0  0  0  0  3  0  0  0  0  0  0
  197.1440  176.5340  143.5130 F   0  0  0  0  0  0  0  0  0  0  0  0
  193.3000  173.4170  145.9350 F   0  0  0  0  0  0  0  0  0  0  0  0
  193.8960  175.4610  144.8240 C   0  0  0  0  0  0  0  0  0  0  0  0
  184.6970  178.6660  140.5130 C   0  0  0  0  0  2  0  0  0  0  0  0
  183.5240  178.2840  141.4030 C   0  0  0  0  0  2  0  0  0  0  0  0
  182.3680  177.9550  140.5860 N   0  0  0  0  0  1  0  0  0  0  0  0
  1  7  1  0  0  0  0
  2 20  2  0  0  0  0
  2  9  1  0  0  0  0
  4  3  1  0  0  0  0
  5 19  2  0  0  0  0
  5 14  1  0  0  0  0
  6  9  1  0  0  0  0
  7 14  1  0  0  0  0
  8  3  2  0  0  0  0
  9 10  2  0  0  0  0
 10 18  1  0  0  0  0
 10  8  1  0  0  0  0
 11 18  1  0  0  0  0
 12 13  2  0  0  0  0
 13 15  1  0  0  0  0
 13 16  1  0  0  0  0
 14  6  2  0  0  0  0
 15  5  1  0  0  0  0
 16  1  1  0  0  0  0
 17  4  2  0  0  0  0
 18 17  1  6  0  0  0
 19  2  1  0  0  0  0
 20 11  1  0  0  0  0
 21 26  2  0  0  0  0
 21 22  1  0  0  0  0
 22 25  2  0  0  0  0
 23 28  1  0  0  0  0
 25 23  1  0  0  0  0
 25 24  1  0  0  0  0
 26 29  1  0  0  0  0
 27 21  1  0  0  0  0
 29 11  1  0  0  0  0
 29 23  2  0  0  0  0
 30 16  1  0  0  0  0
 30 31  1  0  0  0  0
 32 31  1  0  0  0  0
M  END
>  <MODEL>
4

>  <REMARK>
 VINA RESULT:      -7.9      5.040      7.972
  Name = 
  3 active torsions:
  status: ('A' for Active; 'I' for Inactive)
    1  A    between atoms: C_1  and  C_10
    2  A    between atoms: C_10  and  N_24
    3  A    between atoms: N_16  and  C_32
                            x       y       z     vdW  Elec       q    Type
                         _______ _______ _______ _____ _____    ______ ____

>  <TORSDO>
F 3

$$$$
=
 OpenBabel11052421363D

 32 36  0  0  0  0  0  0  0  0999 V2000
  185.9880  176.5260  144.8080 C   0  0  0  0  0  2  0  0  0  0  0  0
  190.7840  175.0900  145.0410 C   0  0  0  0  0  0  0  0  0  0  0  0
  191.2080  173.2170  140.5030 C   0  0  0  0  0  3  0  0  0  0  0  0
  192.2950  172.5760  140.9350 C   0  0  0  0  0  3  0  0  0  0  0  0
  188.8530  176.4320  145.6840 C   0  0  0  0  0  0  0  0  0  0  0  0
  189.0940  175.6520  143.3950 C   0  0  0  0  0  3  0  0  0  0  0  0
  187.1110  177.0120  143.9260 C   0  0  0  0  0  2  0  0  0  0  0  0
  190.4840  174.2410  141.3360 C   0  0  0  0  0  2  0  0  0  0  0  0
  190.2980  175.0040  143.7110 C   0  0  0  0  0  0  0  0  0  0  0  0
  190.9700  174.3080  142.7690 C   0  0  0  0  0  0  0  0  0  0  0  0
  192.7120  173.8160  144.4890 N   0  0  0  0  0  0  0  0  0  0  0  0
  186.6670  178.8410  148.0420 S   0  0  0  0  0  0  0  0  0  0  0  0
  186.9050  177.7800  146.8140 C   0  0  0  0  0  0  0  0  0  0  0  0
  188.3740  176.3620  144.3580 C   0  0  0  0  0  0  0  0  0  0  0  0
  188.2010  177.1630  146.7350 N   0  0  0  0  0  2  0  0  0  0  0  0
  185.8180  177.4400  145.9220 N   0  0  0  0  0  0  0  0  0  0  0  0
  192.8370  172.8060  142.2830 C   0  0  0  0  0  3  0  0  0  0  0  0
  192.2300  173.6300  143.1450 C   0  0  0  0  0  0  0  0  0  0  0  0
  190.0580  175.7990  146.0000 C   0  0  0  0  0  3  0  0  0  0  0  0
  191.9070  174.5330  145.3940 N   0  0  0  0  0  0  0  0  0  0  0  0
  195.1790  171.3610  145.8410 C   0  0  0  0  0  0  0  0  0  0  0  0
  196.3310  172.1440  145.9370 C   0  0  0  0  0  3  0  0  0  0  0  0
  195.1090  174.0530  145.0780 C   0  0  0  0  0  0  0  0  0  0  0  0
  197.4150  174.2470  145.6710 F   0  0  0  0  0  0  0  0  0  0  0  0
  196.2970  173.4890  145.5580 C   0  0  0  0  0  0  0  0  0  0  0  0
  193.9920  171.9190  145.3600 C   0  0  0  0  0  3  0  0  0  0  0  0
  195.2120  170.0590  146.2170 F   0  0  0  0  0  0  0  0  0  0  0  0
  195.0770  175.3730  144.7660 F   0  0  0  0  0  0  0  0  0  0  0  0
  193.9500  173.2610  144.9610 C   0  0  0  0  0  0  0  0  0  0  0  0
  184.5030  178.0610  146.0450 C   0  0  0  0  0  2  0  0  0  0  0  0
  184.1420  178.8230  144.7790 C   0  0  0  0  0  2  0  0  0  0  0  0
  185.0630  179.9300  144.5870 N   0  0  0  0  0  1  0  0  0  0  0  0
  1 16  1  0  0  0  0
  2 20  2  0  0  0  0
  2 19  1  0  0  0  0
  3  4  2  0  0  0  0
  3  8  1  0  0  0  0
  4 17  1  0  0  0  0
  5 19  2  0  0  0  0
  5 15  1  0  0  0  0
  6  9  1  0  0  0  0
  6 14  2  0  0  0  0
  7 14  1  0  0  0  0
  7  1  1  0  0  0  0
  8 10  1  0  0  0  0
  9  2  1  0  0  0  0
 10 18  1  0  0  0  0
 10  9  2  0  0  0  0
 11 29  1  0  0  0  0
 11 20  1  0  0  0  0
 13 12  2  0  0  0  0
 14  5  1  0  0  0  0
 15 13  1  0  0  0  0
 16 30  1  0  0  0  0
 16 13  1  0  0  0  0
 17 18  2  0  0  0  0
 18 11  1  0  0  0  0
 21 22  1  0  0  0  0
 21 27  1  0  0  0  0
 23 25  1  0  0  0  0
 25 24  1  0  0  0  0
 25 22  2  0  0  0  0
 26 21  2  0  0  0  0
 28 23  1  0  0  0  0
 29 23  2  0  0  0  0
 29 26  1  0  0  0  0
 31 30  1  0  0  0  0
 32 31  1  0  0  0  0
M  END
>  <MODEL>
5

>  <REMARK>
 VINA RESULT:      -7.6      5.038      9.243
  Name = 
  3 active torsions:
  status: ('A' for Active; 'I' for Inactive)
    1  A    between atoms: C_1  and  C_10
    2  A    between atoms: C_10  and  N_24
    3  A    between atoms: N_16  and  C_32
                            x       y       z     vdW  Elec       q    Type
                         _______ _______ _______ _____ _____    ______ ____

>  <TORSDO>
F 3

$$$$
=
 OpenBabel11052421363D

 32 36  0  0  0  0  0  0  0  0999 V2000
  193.6510  173.1150  142.1970 C   0  0  0  0  0  2  0  0  0  0  0  0
  189.6900  175.0140  144.6120 C   0  0  0  0  0  0  0  0  0  0  0  0
  187.1810  176.6730  140.7090 C   0  0  0  0  0  3  0  0  0  0  0  0
  186.4890  177.4370  141.5550 C   0  0  0  0  0  3  0  0  0  0  0  0
  191.6070  173.5300  144.3500 C   0  0  0  0  0  0  0  0  0  0  0  0
  190.3080  174.2050  142.4100 C   0  0  0  0  0  3  0  0  0  0  0  0
  192.2130  172.6920  142.0280 C   0  0  0  0  0  2  0  0  0  0  0  0
  188.1630  175.6300  141.1730 C   0  0  0  0  0  2  0  0  0  0  0  0
  189.4580  174.9810  143.2120 C   0  0  0  0  0  0  0  0  0  0  0  0
  188.4480  175.6870  142.6590 C   0  0  0  0  0  0  0  0  0  0  0  0
  187.8180  176.4350  144.9570 N   0  0  0  0  0  0  0  0  0  0  0  0
  194.5330  171.0520  145.5520 S   0  0  0  0  0  0  0  0  0  0  0  0
  193.7780  172.0640  144.5030 C   0  0  0  0  0  0  0  0  0  0  0  0
  191.3690  173.4820  142.9590 C   0  0  0  0  0  0  0  0  0  0  0  0
  192.6510  172.7970  145.0110 N   0  0  0  0  0  2  0  0  0  0  0  0
  194.2980  172.2500  143.1660 N   0  0  0  0  0  0  0  0  0  0  0  0
  186.6750  177.3320  143.0100 C   0  0  0  0  0  3  0  0  0  0  0  0
  187.5810  176.5020  143.5380 C   0  0  0  0  0  0  0  0  0  0  0  0
  190.7550  174.2910  145.1540 C   0  0  0  0  0  3  0  0  0  0  0  0
  188.9240  175.6940  145.4150 N   0  0  0  0  0  0  0  0  0  0  0  0
  184.8120  177.8240  146.6820 C   0  0  0  0  0  0  0  0  0  0  0  0
  185.3930  178.5190  147.7440 C   0  0  0  0  0  3  0  0  0  0  0  0
  187.5950  177.8500  146.9800 C   0  0  0  0  0  0  0  0  0  0  0  0
  187.3400  179.2250  148.9180 F   0  0  0  0  0  0  0  0  0  0  0  0
  186.7830  178.5340  147.8930 C   0  0  0  0  0  0  0  0  0  0  0  0
  185.6180  177.1380  145.7700 C   0  0  0  0  0  3  0  0  0  0  0  0
  183.4650  177.8180  146.5340 F   0  0  0  0  0  0  0  0  0  0  0  0
  188.9440  177.9190  147.1070 F   0  0  0  0  0  0  0  0  0  0  0  0
  187.0100  177.1310  145.9190 C   0  0  0  0  0  0  0  0  0  0  0  0
  195.4640  171.5140  142.6870 C   0  0  0  0  0  2  0  0  0  0  0  0
  196.5830  172.4670  142.2920 C   0  0  0  0  0  2  0  0  0  0  0  0
  197.1760  173.0550  143.4800 N   0  0  0  0  0  1  0  0  0  0  0  0
  1 16  1  0  0  0  0
  2 19  1  0  0  0  0
  2 20  2  0  0  0  0
  3  8  1  0  0  0  0
  3  4  2  0  0  0  0
  4 17  1  0  0  0  0
  5 15  1  0  0  0  0
  5 19  2  0  0  0  0
  6 14  2  0  0  0  0
  6  9  1  0  0  0  0
  7  1  1  0  0  0  0
  7 14  1  0  0  0  0
  8 10  1  0  0  0  0
  9  2  1  0  0  0  0
 10  9  2  0  0  0  0
 10 18  1  0  0  0  0
 11 20  1  0  0  0  0
 11 29  1  0  0  0  0
 13 15  1  0  0  0  0
 13 12  2  0  0  0  0
 14  5  1  0  0  0  0
 16 13  1  0  0  0  0
 17 18  2  0  0  0  0
 18 11  1  0  0  0  0
 21 22  1  0  0  0  0
 22 25  2  0  0  0  0
 23 28  1  0  0  0  0
 23 25  1  0  0  0  0
 25 24  1  0  0  0  0
 26 29  1  0  0  0  0
 26 21  2  0  0  0  0
 27 21  1  0  0  0  0
 29 23  2  0  0  0  0
 30 16  1  0  0  0  0
 31 30  1  0  0  0  0
 31 32  1  0  0  0  0
M  END
>  <MODEL>
6

>  <REMARK>
 VINA RESULT:      -7.5      3.726      5.027
  Name = 
  3 active torsions:
  status: ('A' for Active; 'I' for Inactive)
    1  A    between atoms: C_1  and  C_10
    2  A    between atoms: C_10  and  N_24
    3  A    between atoms: N_16  and  C_32
                            x       y       z     vdW  Elec       q    Type
                         _______ _______ _______ _____ _____    ______ ____

>  <TORSDO>
F 3

$$$$
=
 OpenBabel11052421363D

 32 36  0  0  0  0  0  0  0  0999 V2000
  186.1360  176.4250  144.6670 C   0  0  0  0  0  2  0  0  0  0  0  0
  190.9070  174.9420  145.0600 C   0  0  0  0  0  0  0  0  0  0  0  0
  191.5210  173.2320  140.4800 C   0  0  0  0  0  3  0  0  0  0  0  0
  192.5830  172.5670  140.9350 C   0  0  0  0  0  3  0  0  0  0  0  0
  188.9580  176.2750  145.6650 C   0  0  0  0  0  0  0  0  0  0  0  0
  189.2960  175.5770  143.3620 C   0  0  0  0  0  3  0  0  0  0  0  0
  187.3000  176.9340  143.8540 C   0  0  0  0  0  2  0  0  0  0  0  0
  190.7670  174.2310  141.3160 C   0  0  0  0  0  2  0  0  0  0  0  0
  190.4790  174.9090  143.7070 C   0  0  0  0  0  0  0  0  0  0  0  0
  191.1890  174.2420  142.7710 C   0  0  0  0  0  0  0  0  0  0  0  0
  192.8490  173.6730  144.5480 N   0  0  0  0  0  0  0  0  0  0  0  0
  186.6850  178.6150  148.0110 S   0  0  0  0  0  0  0  0  0  0  0  0
  186.9700  177.5980  146.7560 C   0  0  0  0  0  0  0  0  0  0  0  0
  188.5380  176.2580  144.3180 C   0  0  0  0  0  0  0  0  0  0  0  0
  188.2640  176.9730  146.7120 N   0  0  0  0  0  2  0  0  0  0  0  0
  185.9220  177.2990  145.8050 N   0  0  0  0  0  0  0  0  0  0  0  0
  193.0650  172.7440  142.3140 C   0  0  0  0  0  3  0  0  0  0  0  0
  192.4260  173.5400  143.1780 C   0  0  0  0  0  0  0  0  0  0  0  0
  190.1430  175.6220  146.0110 C   0  0  0  0  0  3  0  0  0  0  0  0
  192.0090  174.3630  145.4420 N   0  0  0  0  0  0  0  0  0  0  0  0
  196.3730  173.3630  145.7410 C   0  0  0  0  0  0  0  0  0  0  0  0
  196.4660  171.9920  145.9910 C   0  0  0  0  0  3  0  0  0  0  0  0
  194.1630  171.7060  145.2870 C   0  0  0  0  0  0  0  0  0  0  0  0
  195.4670  169.8310  145.9910 F   0  0  0  0  0  0  0  0  0  0  0  0
  195.3630  171.1630  145.7630 C   0  0  0  0  0  0  0  0  0  0  0  0
  195.1770  173.9080  145.2690 C   0  0  0  0  0  3  0  0  0  0  0  0
  197.4460  174.1630  145.9560 F   0  0  0  0  0  0  0  0  0  0  0  0
  193.1200  170.8810  145.0180 F   0  0  0  0  0  0  0  0  0  0  0  0
  194.0610  173.0910  145.0530 C   0  0  0  0  0  0  0  0  0  0  0  0
  184.6060  177.9260  145.8920 C   0  0  0  0  0  2  0  0  0  0  0  0
  184.2990  178.7210  144.6320 C   0  0  0  0  0  2  0  0  0  0  0  0
  185.2100  179.8470  144.5220 N   0  0  0  0  0  1  0  0  0  0  0  0
  1 16  1  0  0  0  0
  2 20  2  0  0  0  0
  2 19  1  0  0  0  0
  3  4  2  0  0  0  0
  3  8  1  0  0  0  0
  4 17  1  0  0  0  0
  5 19  2  0  0  0  0
  5 15  1  0  0  0  0
  6  9  1  0  0  0  0
  6 14  2  0  0  0  0
  7 14  1  0  0  0  0
  7  1  1  0  0  0  0
  8 10  1  0  0  0  0
  9  2  1  0  0  0  0
 10 18  1  0  0  0  0
 10  9  2  0  0  0  0
 11 29  1  0  0  0  0
 11 20  1  0  0  0  0
 13 12  2  0  0  0  0
 14  5  1  0  0  0  0
 15 13  1  0  0  0  0
 16 30  1  0  0  0  0
 16 13  1  0  0  0  0
 17 18  2  0  0  0  0
 18 11  1  0  0  0  0
 21 27  1  0  0  0  0
 21 22  1  0  0  0  0
 23 25  1  0  0  0  0
 25 22  2  0  0  0  0
 25 24  1  0  0  0  0
 26 21  2  0  0  0  0
 28 23  1  0  0  0  0
 29 26  1  0  0  0  0
 29 23  2  0  0  0  0
 31 30  1  0  0  0  0
 32 31  1  0  0  0  0
M  END
>  <MODEL>
7

>  <REMARK>
 VINA RESULT:      -7.5      5.190      9.403
  Name = 
  3 active torsions:
  status: ('A' for Active; 'I' for Inactive)
    1  A    between atoms: C_1  and  C_10
    2  A    between atoms: C_10  and  N_24
    3  A    between atoms: N_16  and  C_32
                            x       y       z     vdW  Elec       q    Type
                         _______ _______ _______ _____ _____    ______ ____

>  <TORSDO>
F 3

$$$$
=
 OpenBabel11052421363D

 32 36  0  0  1  0  0  0  0  0999 V2000
  186.4360  178.7150  142.2610 C   0  0  0  0  0  2  0  0  0  0  0  0
  190.4470  176.0380  143.6240 C   0  0  0  0  0  0  0  0  0  0  0  0
  190.6090  177.3290  148.3760 C   0  0  0  0  0  3  0  0  0  0  0  0
  191.8700  176.8980  148.3880 C   0  0  0  0  0  3  0  0  0  0  0  0
  188.5120  176.5530  142.2340 C   0  0  0  0  0  0  0  0  0  0  0  0
  188.4890  177.0760  144.6070 C   0  0  0  0  0  3  0  0  0  0  0  0
  186.4730  177.6280  143.3060 C   0  0  0  0  0  2  0  0  0  0  0  0
  189.6930  177.1320  147.1980 C   0  0  0  0  0  3  0  0  0  0  0  0
  189.7880  176.5710  144.7620 C   0  0  0  0  0  0  0  0  0  0  0  0
  190.3980  176.6020  145.9660 C   0  0  0  0  0  0  0  0  0  0  0  0
  192.3610  175.4720  144.9140 N   0  0  0  0  0  0  0  0  0  0  0  0
  186.1960  176.4150  138.9530 S   0  0  0  0  0  0  0  0  0  0  0  0
  186.7190  177.0360  140.3800 C   0  0  0  0  0  0  0  0  0  0  0  0
  187.8470  177.0700  143.3670 C   0  0  0  0  0  0  0  0  0  0  0  0
  187.9240  176.4750  140.9260 N   0  0  0  0  0  2  0  0  0  0  0  0
  186.0250  178.1500  140.9890 N   0  0  0  0  0  0  0  0  0  0  0  0
  192.4620  176.2270  147.2210 C   0  0  0  0  0  3  0  0  0  0  0  0
  191.7730  176.0690  146.0850 C   0  0  1  0  0  3  0  0  0  0  0  0
  189.8010  176.0370  142.3860 C   0  0  0  0  0  3  0  0  0  0  0  0
  191.6440  175.5300  143.7040 N   0  0  0  0  0  0  0  0  0  0  0  0
  195.0680  172.9450  145.3880 C   0  0  0  0  0  0  0  0  0  0  0  0
  196.1950  173.6600  144.9780 C   0  0  0  0  0  3  0  0  0  0  0  0
  194.8050  175.5930  144.5200 C   0  0  0  0  0  0  0  0  0  0  0  0
  197.1670  175.6760  144.1670 F   0  0  0  0  0  0  0  0  0  0  0  0
  196.0650  174.9830  144.5460 C   0  0  0  0  0  0  0  0  0  0  0  0
  193.8090  173.5480  145.3610 C   0  0  0  0  0  3  0  0  0  0  0  0
  195.1970  171.6650  145.8140 F   0  0  0  0  0  0  0  0  0  0  0  0
  194.7030  176.8950  144.1500 F   0  0  0  0  0  0  0  0  0  0  0  0
  193.6640  174.8680  144.9130 C   0  0  0  0  0  0  0  0  0  0  0  0
  184.8190  178.7200  140.3950 C   0  0  0  0  0  2  0  0  0  0  0  0
  183.5800  178.2910  141.1660 C   0  0  0  0  0  2  0  0  0  0  0  0
  182.5250  177.9160  140.2410 N   0  0  0  0  0  1  0  0  0  0  0  0
  1  7  1  0  0  0  0
  2 20  2  0  0  0  0
  2  9  1  0  0  0  0
  3  4  1  0  0  0  0
  5 19  2  0  0  0  0
  5 14  1  0  0  0  0
  6  9  1  0  0  0  0
  7 14  1  0  0  0  0
  8  3  2  0  0  0  0
  9 10  2  0  0  0  0
 10 18  1  0  0  0  0
 10  8  1  0  0  0  0
 11 18  1  0  0  0  0
 12 13  2  0  0  0  0
 13 15  1  0  0  0  0
 13 16  1  0  0  0  0
 14  6  2  0  0  0  0
 15  5  1  0  0  0  0
 16  1  1  0  0  0  0
 17  4  2  0  0  0  0
 18 17  1  6  0  0  0
 19  2  1  0  0  0  0
 20 11  1  0  0  0  0
 21 27  1  0  0  0  0
 22 21  2  0  0  0  0
 23 25  2  0  0  0  0
 23 29  1  0  0  0  0
 24 25  1  0  0  0  0
 25 22  1  0  0  0  0
 26 21  1  0  0  0  0
 28 23  1  0  0  0  0
 29 11  1  0  0  0  0
 29 26  2  0  0  0  0
 30 16  1  0  0  0  0
 30 31  1  0  0  0  0
 32 31  1  0  0  0  0
M  END
>  <MODEL>
8

>  <REMARK>
 VINA RESULT:      -7.4      4.881      7.751
  Name = 
  3 active torsions:
  status: ('A' for Active; 'I' for Inactive)
    1  A    between atoms: C_1  and  C_10
    2  A    between atoms: C_10  and  N_24
    3  A    between atoms: N_16  and  C_32
                            x       y       z     vdW  Elec       q    Type
                         _______ _______ _______ _____ _____    ______ ____

>  <TORSDO>
F 3

$$$$
=
 OpenBabel11052421363D

 32 36  0  0  1  0  0  0  0  0999 V2000
  187.6230  178.0220  144.6350 C   0  0  0  0  0  2  0  0  0  0  0  0
  188.8970  174.3960  141.4180 C   0  0  0  0  0  0  0  0  0  0  0  0
  192.6850  172.4910  143.9280 C   0  0  0  0  0  3  0  0  0  0  0  0
  193.0760  171.9210  142.7870 C   0  0  0  0  0  3  0  0  0  0  0  0
  187.3650  175.9870  142.4490 C   0  0  0  0  0  0  0  0  0  0  0  0
  189.1300  174.9600  143.7650 C   0  0  0  0  0  3  0  0  0  0  0  0
  187.6320  176.5400  144.9160 C   0  0  0  0  0  2  0  0  0  0  0  0
  191.3740  173.2170  144.0670 C   0  0  0  0  0  3  0  0  0  0  0  0
  189.5840  174.2400  142.6500 C   0  0  0  0  0  0  0  0  0  0  0  0
  190.6560  173.4250  142.7490 C   0  0  0  0  0  0  0  0  0  0  0  0
  190.3270  172.8310  140.3460 N   0  0  0  0  0  0  0  0  0  0  0  0
  184.0800  178.2860  142.7200 S   0  0  0  0  0  0  0  0  0  0  0  0
  185.5980  177.8080  143.1200 C   0  0  0  0  0  0  0  0  0  0  0  0
  188.0350  175.8220  143.6800 C   0  0  0  0  0  0  0  0  0  0  0  0
  186.2110  176.8250  142.2700 N   0  0  0  0  0  2  0  0  0  0  0  0
  186.2890  178.4280  144.2300 N   0  0  0  0  0  0  0  0  0  0  0  0
  192.2550  172.0010  141.5700 C   0  0  0  0  0  3  0  0  0  0  0  0
  191.1090  172.6910  141.5470 C   0  0  1  0  0  3  0  0  0  0  0  0
  187.8050  175.2620  141.3390 C   0  0  0  0  0  3  0  0  0  0  0  0
  189.2510  173.7390  140.3520 N   0  0  0  0  0  0  0  0  0  0  0  0
  190.3570  170.1510  137.7460 C   0  0  0  0  0  0  0  0  0  0  0  0
  191.2230  170.6920  136.7940 C   0  0  0  0  0  3  0  0  0  0  0  0
  191.5170  172.6620  138.1770 C   0  0  0  0  0  0  0  0  0  0  0  0
  192.6580  172.4560  136.0880 F   0  0  0  0  0  0  0  0  0  0  0  0
  191.8040  171.9450  137.0100 C   0  0  0  0  0  0  0  0  0  0  0  0
  190.0650  170.8640  138.9120 C   0  0  0  0  0  3  0  0  0  0  0  0
  189.8000  168.9330  137.5400 F   0  0  0  0  0  0  0  0  0  0  0  0
  192.1310  173.8510  138.3970 F   0  0  0  0  0  0  0  0  0  0  0  0
  190.6270  172.1280  139.1300 C   0  0  0  0  0  0  0  0  0  0  0  0
  185.6520  179.4480  145.0570 C   0  0  0  0  0  2  0  0  0  0  0  0
  185.4130  178.9290  146.4680 C   0  0  0  0  0  2  0  0  0  0  0  0
  184.2650  178.0390  146.4820 N   0  0  0  0  0  1  0  0  0  0  0  0
  1  7  1  0  0  0  0
  2  9  1  0  0  0  0
  3  8  2  0  0  0  0
  4  3  1  0  0  0  0
  5 14  1  0  0  0  0
  9 10  2  0  0  0  0
  9  6  1  0  0  0  0
 10  8  1  0  0  0  0
 11 20  1  0  0  0  0
 11 18  1  0  0  0  0
 12 13  2  0  0  0  0
 13 16  1  0  0  0  0
 14  6  2  0  0  0  0
 14  7  1  0  0  0  0
 15  5  1  0  0  0  0
 15 13  1  0  0  0  0
 16  1  1  0  0  0  0
 16 30  1  0  0  0  0
 17  4  2  0  0  0  0
 18 17  1  6  0  0  0
 18 10  1  0  0  0  0
 19  2  1  0  0  0  0
 19  5  2  0  0  0  0
 20  2  2  0  0  0  0
 21 26  1  0  0  0  0
 22 25  1  0  0  0  0
 22 21  2  0  0  0  0
 23 28  1  0  0  0  0
 23 29  1  0  0  0  0
 24 25  1  0  0  0  0
 25 23  2  0  0  0  0
 26 29  2  0  0  0  0
 27 21  1  0  0  0  0
 29 11  1  0  0  0  0
 30 31  1  0  0  0  0
 31 32  1  0  0  0  0
M  END
>  <MODEL>
9

>  <REMARK>
 VINA RESULT:      -7.3      4.120      8.759
  Name = 
  3 active torsions:
  status: ('A' for Active; 'I' for Inactive)
    1  A    between atoms: C_1  and  C_10
    2  A    between atoms: C_10  and  N_24
    3  A    between atoms: N_16  and  C_32
                            x       y       z     vdW  Elec       q    Type
                         _______ _______ _______ _____ _____    ______ ____

>  <TORSDO>
F 3

$$$$
