=
 OpenBabel11052420133D

 37 39  0  0  1  0  0  0  0  0999 V2000
  190.1810  177.5620  145.4350 C   0  0  0  0  0  2  0  0  0  0  0  0
  186.5450  177.8050  146.2080 C   0  0  0  0  0  2  0  0  0  0  0  0
  191.6470  175.5810  146.2540 C   0  0  2  0  0  0  0  0  0  0  0  0
  188.9830  176.7100  145.0490 C   0  0  2  0  0  3  0  0  0  0  0  0
  191.4320  176.7270  145.2060 C   0  0  1  0  0  3  0  0  0  0  0  0
  187.6250  177.1870  147.0840 C   0  0  0  0  0  2  0  0  0  0  0  0
  191.4480  174.3240  145.6680 O   0  0  0  0  0  1  0  0  0  0  0  0
  191.7320  176.4390  143.7040 C   0  0  2  0  0  3  0  0  0  0  0  0
  188.8280  174.1000  147.5870 C   0  0  0  0  0  2  0  0  0  0  0  0
  190.6740  175.7040  147.4590 C   0  0  0  0  0  2  0  0  0  0  0  0
  191.2300  177.5400  142.7440 C   0  0  0  0  0  2  0  0  0  0  0  0
  189.2570  175.2740  147.1310 C   0  0  0  0  0  0  0  0  0  0  0  0
  188.0110  177.4840  144.1360 C   0  0  1  0  0  3  0  0  0  0  0  0
  187.1080  178.4700  144.9370 C   0  0  1  0  0  3  0  0  0  0  0  0
  188.8060  178.2240  143.0370 C   0  0  0  0  0  2  0  0  0  0  0  0
  189.7830  177.3270  142.2760 C   0  0  0  0  0  2  0  0  0  0  0  0
  188.3190  176.1020  146.2810 C   0  0  2  0  0  3  0  0  0  0  0  0
  193.6800  177.0620  146.6750 C   0  0  0  0  0  1  0  0  0  0  0  0
  193.1060  175.6530  146.7480 C   0  0  0  0  0  3  0  0  0  0  0  0
  194.0320  174.6910  146.0120 C   0  0  0  0  0  1  0  0  0  0  0  0
  185.8990  179.0240  144.1370 C   0  0  2  0  0  3  0  0  0  0  0  0
  184.7830  179.5980  144.9950 C   0  0  0  0  0  2  0  0  0  0  0  0
  183.6730  178.7550  144.9470 O   0  0  0  0  0  1  0  0  0  0  0  0
  185.2800  177.9320  143.2690 C   0  0  0  0  0  2  0  0  0  0  0  0
  183.7120  178.1470  141.5460 C   0  0  0  0  0  1  0  0  0  0  0  0
  185.9110  177.5500  141.0600 C   0  0  0  0  0  1  0  0  0  0  0  0
  185.0960  178.4050  141.9060 N   0  0  0  0  0  0  0  0  0  0  0  0
  191.2790  175.1770  143.2920 O   0  0  0  0  0  0  0  0  0  0  0  0
  193.3230  174.0940  142.6160 C   0  0  0  0  0  1  0  0  0  0  0  0
  192.0580  174.8270  142.1820 C   0  0  1  0  0  3  0  0  0  0  0  0
  191.2270  174.0120  141.1830 C   0  0  1  0  0  3  0  0  0  0  0  0
  192.0680  173.2770  140.3430 O   0  0  0  0  0  1  0  0  0  0  0  0
  190.1920  173.0910  141.8400 C   0  0  2  0  0  0  0  0  0  0  0  0
  188.3850  173.6580  141.8580 P   0  0  0  0  0  2  0  0  0  0  0  0
  190.5770  172.3860  142.9830 O   0  0  0  0  0  1  0  0  0  0  0  0
  189.3840  172.3130  140.9440 C   0  0  0  0  0  1  0  0  0  0  0  0
  188.4530  174.7070  140.4740 O   0  0  0  0  0  1  0  0  0  0  0  0
  2  6  1  0  0  0  0
  3  7  1  6  0  0  0
  3 19  1  0  0  0  0
  3 10  1  0  0  0  0
  4  1  1  1  0  0  0
  4 17  1  0  0  0  0
  5  1  1  6  0  0  0
  5  3  1  0  0  0  0
  8 28  1  6  0  0  0
  8  5  1  0  0  0  0
 11  8  1  0  0  0  0
 12 10  1  0  0  0  0
 12  9  2  0  0  0  0
 13 15  1  6  0  0  0
 13 14  1  0  0  0  0
 13  4  1  0  0  0  0
 14 21  1  6  0  0  0
 14  2  1  0  0  0  0
 16 11  1  0  0  0  0
 16 15  1  0  0  0  0
 17  6  1  1  0  0  0
 17 12  1  0  0  0  0
 18 19  1  0  0  0  0
 20 19  1  0  0  0  0
 21 24  1  1  0  0  0
 21 22  1  0  0  0  0
 23 22  1  0  0  0  0
 25 27  1  0  0  0  0
 26 27  1  0  0  0  0
 27 24  1  0  0  0  0
 30 29  1  1  0  0  0
 30 28  1  0  0  0  0
 31 32  1  1  0  0  0
 31 33  1  0  0  0  0
 31 30  1  0  0  0  0
 33 36  1  6  0  0  0
 33 34  1  0  0  0  0
 33 35  1  0  0  0  0
 37 34  1  0  0  0  0
M  END
>  <MODEL>
1

>  <REMARK>
 VINA RESULT:      -7.4      0.000      0.000
  Name = 
  9 active torsions:
  status: ('A' for Active; 'I' for Inactive)
    1  A    between atoms: C_1  and  C_5
    2  A    between atoms: C_1  and  C_23
    3  A    between atoms: C_2  and  C_6
    4  A    between atoms: C_6  and  C_8
    5  A    between atoms: C_6  and  C_31
    6  A    between atoms: C_8  and  N_19
    7  A    between atoms: C_9  and  C_30
    8  A    between atoms: C_20  and  O_25
    9  A    between atoms: C_23  and  O_25
                            x       y       z     vdW  Elec       q    Type
                         _______ _______ _______ _____ _____    ______ ____

>  <TORSDO>
F 9

$$$$
=
 OpenBabel11052420133D

 37 39  0  0  1  0  0  0  0  0999 V2000
  191.6230  176.7840  144.4050 C   0  0  0  0  0  2  0  0  0  0  0  0
  188.3290  177.6660  145.9060 C   0  0  0  0  0  2  0  0  0  0  0  0
  193.4410  175.4740  145.7170 C   0  0  2  0  0  0  0  0  0  0  0  0
  190.4540  175.9470  144.8970 C   0  0  2  0  0  3  0  0  0  0  0  0
  192.8390  175.8740  144.3260 C   0  0  1  0  0  3  0  0  0  0  0  0
  189.6600  177.5520  146.6320 C   0  0  0  0  0  2  0  0  0  0  0  0
  193.2140  174.1190  145.9910 O   0  0  0  0  0  1  0  0  0  0  0  0
  192.7450  174.7920  143.2080 C   0  0  2  0  0  3  0  0  0  0  0  0
  191.2500  175.1650  148.3670 C   0  0  0  0  0  2  0  0  0  0  0  0
  192.8260  176.3040  146.8780 C   0  0  0  0  0  2  0  0  0  0  0  0
  191.8960  175.2220  141.9920 C   0  0  0  0  0  2  0  0  0  0  0  0
  191.4220  175.8660  147.2490 C   0  0  0  0  0  0  0  0  0  0  0  0
  189.1990  176.1630  144.0270 C   0  0  1  0  0  3  0  0  0  0  0  0
  188.4560  177.4860  144.3800 C   0  0  1  0  0  3  0  0  0  0  0  0
  189.5890  176.1240  142.5330 C   0  0  0  0  0  2  0  0  0  0  0  0
  190.4040  174.8910  142.1420 C   0  0  0  0  0  2  0  0  0  0  0  0
  190.2120  176.1590  146.3900 C   0  0  2  0  0  3  0  0  0  0  0  0
  195.3980  176.4570  144.4100 C   0  0  0  0  0  1  0  0  0  0  0  0
  194.9660  175.7010  145.6600 C   0  0  0  0  0  3  0  0  0  0  0  0
  195.7650  174.4090  145.7720 C   0  0  0  0  0  1  0  0  0  0  0  0
  187.0280  177.5980  143.7860 C   0  0  2  0  0  3  0  0  0  0  0  0
  186.9740  178.1390  142.3660 C   0  0  0  0  0  2  0  0  0  0  0  0
  186.1440  177.3340  141.5870 O   0  0  0  0  0  1  0  0  0  0  0  0
  186.1550  178.5090  144.6450 C   0  0  0  0  0  2  0  0  0  0  0  0
  183.9040  178.9570  144.1890 C   0  0  0  0  0  1  0  0  0  0  0  0
  184.5080  177.8990  146.1760 C   0  0  0  0  0  1  0  0  0  0  0  0
  184.8080  177.9700  144.7560 N   0  0  0  0  0  0  0  0  0  0  0  0
  192.3220  173.5450  143.6930 O   0  0  0  0  0  0  0  0  0  0  0  0
  194.3620  172.5510  142.8830 C   0  0  0  0  0  1  0  0  0  0  0  0
  192.8390  172.5890  142.8100 C   0  0  1  0  0  3  0  0  0  0  0  0
  192.2090  171.2170  143.0820 C   0  0  1  0  0  3  0  0  0  0  0  0
  191.9090  171.0840  144.4400 O   0  0  0  0  0  1  0  0  0  0  0  0
  190.9670  170.9230  142.2300 C   0  0  2  0  0  0  0  0  0  0  0  0
  191.1800  170.8470  140.3500 P   0  0  0  0  0  2  0  0  0  0  0  0
  189.7490  171.4660  142.6430 O   0  0  0  0  0  1  0  0  0  0  0  0
  190.8480  169.5790  141.7380 C   0  0  0  0  0  1  0  0  0  0  0  0
  192.8670  170.4320  140.3190 O   0  0  0  0  0  1  0  0  0  0  0  0
  2  6  1  0  0  0  0
  3  7  1  1  0  0  0
  3 10  1  0  0  0  0
  4  1  1  6  0  0  0
  4 17  1  0  0  0  0
  5  1  1  1  0  0  0
  5  3  1  0  0  0  0
  8 28  1  1  0  0  0
  8  5  1  0  0  0  0
 10 12  1  0  0  0  0
 11 16  1  0  0  0  0
 11  8  1  0  0  0  0
 12  9  2  0  0  0  0
 13 15  1  6  0  0  0
 13 14  1  0  0  0  0
 13  4  1  0  0  0  0
 14 21  1  6  0  0  0
 14  2  1  0  0  0  0
 16 15  1  0  0  0  0
 17  6  1  6  0  0  0
 17 12  1  0  0  0  0
 18 19  1  0  0  0  0
 19  3  1  0  0  0  0
 19 20  1  0  0  0  0
 21 22  1  6  0  0  0
 21 24  1  0  0  0  0
 23 22  1  0  0  0  0
 24 27  1  0  0  0  0
 25 27  1  0  0  0  0
 27 26  1  0  0  0  0
 30 29  1  1  0  0  0
 30 31  1  0  0  0  0
 30 28  1  0  0  0  0
 31 32  1  1  0  0  0
 33 36  1  1  0  0  0
 33 35  1  0  0  0  0
 33 31  1  0  0  0  0
 34 33  1  0  0  0  0
 37 34  1  0  0  0  0
M  END
>  <MODEL>
2

>  <REMARK>
 VINA RESULT:      -7.0      1.957      2.825
  Name = 
  9 active torsions:
  status: ('A' for Active; 'I' for Inactive)
    1  A    between atoms: C_1  and  C_5
    2  A    between atoms: C_1  and  C_23
    3  A    between atoms: C_2  and  C_6
    4  A    between atoms: C_6  and  C_8
    5  A    between atoms: C_6  and  C_31
    6  A    between atoms: C_8  and  N_19
    7  A    between atoms: C_9  and  C_30
    8  A    between atoms: C_20  and  O_25
    9  A    between atoms: C_23  and  O_25
                            x       y       z     vdW  Elec       q    Type
                         _______ _______ _______ _____ _____    ______ ____

>  <TORSDO>
F 9

$$$$
=
 OpenBabel11052420133D

 37 39  0  0  1  0  0  0  0  0999 V2000
  192.2050  174.5830  145.4030 C   0  0  0  0  0  2  0  0  0  0  0  0
  195.2670  176.5840  144.6990 C   0  0  0  0  0  2  0  0  0  0  0  0
  189.8140  175.5500  145.1050 C   0  0  2  0  0  0  0  0  0  0  0  0
  192.7710  175.1930  144.1320 C   0  0  2  0  0  3  0  0  0  0  0  0
  190.7350  174.2830  145.1540 C   0  0  1  0  0  3  0  0  0  0  0  0
  193.9390  177.1050  145.2260 C   0  0  0  0  0  2  0  0  0  0  0  0
  189.3510  175.7830  143.8030 O   0  0  0  0  0  1  0  0  0  0  0  0
  190.4900  173.1350  144.1280 C   0  0  2  0  0  3  0  0  0  0  0  0
  191.1900  178.4670  143.8760 C   0  0  0  0  0  2  0  0  0  0  0  0
  190.5570  176.8290  145.5810 C   0  0  0  0  0  2  0  0  0  0  0  0
  191.6160  172.0770  144.0930 C   0  0  0  0  0  2  0  0  0  0  0  0
  191.5300  177.3740  144.5540 C   0  0  0  0  0  0  0  0  0  0  0  0
  194.1010  174.5250  143.7280 C   0  0  1  0  0  3  0  0  0  0  0  0
  195.3040  175.0490  144.5680 C   0  0  1  0  0  3  0  0  0  0  0  0
  193.9680  172.9900  143.8430 C   0  0  0  0  0  2  0  0  0  0  0  0
  192.7480  172.4230  143.1160 C   0  0  0  0  0  2  0  0  0  0  0  0
  192.8540  176.7140  144.2390 C   0  0  2  0  0  3  0  0  0  0  0  0
  187.8300  176.5610  146.3480 C   0  0  0  0  0  1  0  0  0  0  0  0
  188.5910  175.2870  146.0070 C   0  0  0  0  0  3  0  0  0  0  0  0
  188.9470  174.5510  147.2940 C   0  0  0  0  0  1  0  0  0  0  0  0
  196.6960  174.6720  143.9960 C   0  0  2  0  0  3  0  0  0  0  0  0
  197.6860  174.1580  145.0290 C   0  0  0  0  0  2  0  0  0  0  0  0
  196.9960  173.5930  146.1020 O   0  0  0  0  0  1  0  0  0  0  0  0
  197.3450  175.8760  143.3170 C   0  0  0  0  0  2  0  0  0  0  0  0
  196.4210  176.4110  141.2360 C   0  0  0  0  0  1  0  0  0  0  0  0
  197.1660  174.2450  141.6630 C   0  0  0  0  0  1  0  0  0  0  0  0
  197.4730  175.6470  141.8860 N   0  0  0  0  0  0  0  0  0  0  0  0
  190.2170  173.6110  142.8370 O   0  0  0  0  0  0  0  0  0  0  0  0
  188.0080  172.7580  142.3860 C   0  0  0  0  0  1  0  0  0  0  0  0
  189.5120  172.5890  142.1880 C   0  0  1  0  0  3  0  0  0  0  0  0
  189.8990  172.5320  140.7050 C   0  0  1  0  0  3  0  0  0  0  0  0
  190.7610  173.5860  140.3910 O   0  0  0  0  0  1  0  0  0  0  0  0
  190.5130  171.1950  140.2730 C   0  0  2  0  0  0  0  0  0  0  0  0
  190.0580  170.5230  138.5620 P   0  0  0  0  0  2  0  0  0  0  0  0
  190.6760  170.2070  141.2460 O   0  0  0  0  0  1  0  0  0  0  0  0
  191.6190  171.2770  139.3610 C   0  0  0  0  0  1  0  0  0  0  0  0
  189.6620  172.0390  137.8100 O   0  0  0  0  0  1  0  0  0  0  0  0
  2  6  1  0  0  0  0
  3  7  1  6  0  0  0
  3  5  1  0  0  0  0
  3 10  1  0  0  0  0
  3 19  1  0  0  0  0
  4 17  1  0  0  0  0
  4  1  1  1  0  0  0
  5  1  1  6  0  0  0
  8 28  1  6  0  0  0
  8  5  1  0  0  0  0
  9 12  2  0  0  0  0
 11  8  1  0  0  0  0
 12 10  1  0  0  0  0
 13 15  1  1  0  0  0
 13  4  1  0  0  0  0
 13 14  1  0  0  0  0
 14 21  1  6  0  0  0
 14  2  1  0  0  0  0
 16 15  1  0  0  0  0
 16 11  1  0  0  0  0
 17 12  1  0  0  0  0
 17  6  1  1  0  0  0
 19 18  1  0  0  0  0
 19 20  1  0  0  0  0
 21 24  1  1  0  0  0
 21 22  1  0  0  0  0
 22 23  1  0  0  0  0
 25 27  1  0  0  0  0
 26 27  1  0  0  0  0
 27 24  1  0  0  0  0
 30 29  1  6  0  0  0
 30 28  1  0  0  0  0
 31 32  1  1  0  0  0
 31 30  1  0  0  0  0
 33 36  1  6  0  0  0
 33 31  1  0  0  0  0
 33 35  1  0  0  0  0
 34 33  1  0  0  0  0
 37 34  1  0  0  0  0
M  END
>  <MODEL>
3

>  <REMARK>
 VINA RESULT:      -6.6      3.449      7.097
  Name = 
  9 active torsions:
  status: ('A' for Active; 'I' for Inactive)
    1  A    between atoms: C_1  and  C_5
    2  A    between atoms: C_1  and  C_23
    3  A    between atoms: C_2  and  C_6
    4  A    between atoms: C_6  and  C_8
    5  A    between atoms: C_6  and  C_31
    6  A    between atoms: C_8  and  N_19
    7  A    between atoms: C_9  and  C_30
    8  A    between atoms: C_20  and  O_25
    9  A    between atoms: C_23  and  O_25
                            x       y       z     vdW  Elec       q    Type
                         _______ _______ _______ _____ _____    ______ ____

>  <TORSDO>
F 9

$$$$
=
 OpenBabel11052420133D

 37 39  0  0  1  0  0  0  0  0999 V2000
  192.4400  173.1840  143.3250 C   0  0  0  0  0  2  0  0  0  0  0  0
  192.6200  172.7010  139.6360 C   0  0  0  0  0  2  0  0  0  0  0  0
  193.6000  175.1740  144.5240 C   0  0  2  0  0  0  0  0  0  0  0  0
  191.9260  173.9980  142.1500 C   0  0  2  0  0  3  0  0  0  0  0  0
  192.4630  174.0950  144.5430 C   0  0  1  0  0  3  0  0  0  0  0  0
  193.6900  173.3100  140.5290 C   0  0  0  0  0  2  0  0  0  0  0  0
  193.0700  176.4580  144.3400 O   0  0  0  0  0  1  0  0  0  0  0  0
  191.0470  174.5050  145.0500 C   0  0  2  0  0  3  0  0  0  0  0  0
  194.5660  176.4110  141.4500 C   0  0  0  0  0  2  0  0  0  0  0  0
  194.6280  174.9160  143.3890 C   0  0  0  0  0  2  0  0  0  0  0  0
  189.9530  173.4500  144.7690 C   0  0  0  0  0  2  0  0  0  0  0  0
  194.1100  175.2950  142.0150 C   0  0  0  0  0  0  0  0  0  0  0  0
  190.8260  173.2420  141.3780 C   0  0  1  0  0  3  0  0  0  0  0  0
  191.4130  172.1570  140.4260 C   0  0  1  0  0  3  0  0  0  0  0  0
  189.8210  172.6230  142.3750 C   0  0  0  0  0  2  0  0  0  0  0  0
  189.2790  173.6210  143.4000 C   0  0  0  0  0  2  0  0  0  0  0  0
  193.0750  174.4830  141.2690 C   0  0  2  0  0  3  0  0  0  0  0  0
  194.2970  176.4960  146.5910 C   0  0  0  0  0  1  0  0  0  0  0  0
  194.3100  175.1420  145.8930 C   0  0  0  0  0  3  0  0  0  0  0  0
  195.7430  174.6300  145.8090 C   0  0  0  0  0  1  0  0  0  0  0  0
  190.4020  171.6000  139.3890 C   0  0  2  0  0  3  0  0  0  0  0  0
  190.6070  170.1380  139.0280 C   0  0  0  0  0  2  0  0  0  0  0  0
  189.6570  169.7490  138.0830 O   0  0  0  0  0  1  0  0  0  0  0  0
  190.4680  172.3960  138.0880 C   0  0  0  0  0  2  0  0  0  0  0  0
  188.2780  173.0200  138.6220 C   0  0  0  0  0  1  0  0  0  0  0  0
  189.3320  173.9290  136.7530 C   0  0  0  0  0  1  0  0  0  0  0  0
  189.5500  173.5230  138.1310 N   0  0  0  0  0  0  0  0  0  0  0  0
  190.6480  175.7680  144.5880 O   0  0  0  0  0  0  0  0  0  0  0  0
  190.5570  176.6220  146.8400 C   0  0  0  0  0  1  0  0  0  0  0  0
  189.7890  176.2860  145.5650 C   0  0  1  0  0  3  0  0  0  0  0  0
  189.0200  177.4930  145.0140 C   0  0  1  0  0  3  0  0  0  0  0  0
  189.6570  177.9900  143.8740 O   0  0  0  0  0  1  0  0  0  0  0  0
  187.5420  177.2080  144.7180 C   0  0  2  0  0  0  0  0  0  0  0  0
  186.3650  177.0200  146.1890 P   0  0  0  0  0  2  0  0  0  0  0  0
  187.2420  176.3740  143.6390 O   0  0  0  0  0  1  0  0  0  0  0  0
  186.6520  178.3290  144.8300 C   0  0  0  0  0  1  0  0  0  0  0  0
  187.2700  177.9560  147.3380 O   0  0  0  0  0  1  0  0  0  0  0  0
  2 14  1  0  0  0  0
  2  6  1  0  0  0  0
  3  7  1  6  0  0  0
  3  5  1  0  0  0  0
  3 19  1  0  0  0  0
  4  1  1  1  0  0  0
  5  1  1  6  0  0  0
  5  8  1  0  0  0  0
  8 28  1  6  0  0  0
  9 12  2  0  0  0  0
 10  3  1  0  0  0  0
 11  8  1  0  0  0  0
 12 10  1  0  0  0  0
 13  4  1  0  0  0  0
 13 15  1  1  0  0  0
 14 21  1  6  0  0  0
 14 13  1  0  0  0  0
 15 16  1  0  0  0  0
 16 11  1  0  0  0  0
 17  6  1  1  0  0  0
 17 12  1  0  0  0  0
 17  4  1  0  0  0  0
 19 18  1  0  0  0  0
 20 19  1  0  0  0  0
 21 24  1  6  0  0  0
 22 21  1  0  0  0  0
 23 22  1  0  0  0  0
 24 27  1  0  0  0  0
 26 27  1  0  0  0  0
 27 25  1  0  0  0  0
 28 30  1  0  0  0  0
 30 29  1  1  0  0  0
 31 32  1  6  0  0  0
 31 30  1  0  0  0  0
 33 36  1  6  0  0  0
 33 31  1  0  0  0  0
 33 34  1  0  0  0  0
 34 37  1  0  0  0  0
 35 33  1  0  0  0  0
M  END
>  <MODEL>
4

>  <REMARK>
 VINA RESULT:      -6.6      2.785      6.741
  Name = 
  9 active torsions:
  status: ('A' for Active; 'I' for Inactive)
    1  A    between atoms: C_1  and  C_5
    2  A    between atoms: C_1  and  C_23
    3  A    between atoms: C_2  and  C_6
    4  A    between atoms: C_6  and  C_8
    5  A    between atoms: C_6  and  C_31
    6  A    between atoms: C_8  and  N_19
    7  A    between atoms: C_9  and  C_30
    8  A    between atoms: C_20  and  O_25
    9  A    between atoms: C_23  and  O_25
                            x       y       z     vdW  Elec       q    Type
                         _______ _______ _______ _____ _____    ______ ____

>  <TORSDO>
F 9

$$$$
=
 OpenBabel11052420133D

 37 39  0  0  1  0  0  0  0  0999 V2000
  188.2200  177.9090  144.5330 C   0  0  0  0  0  2  0  0  0  0  0  0
  184.5370  178.2150  144.0620 C   0  0  0  0  0  2  0  0  0  0  0  0
  189.2670  176.8980  146.6840 C   0  0  2  0  0  0  0  0  0  0  0  0
  187.1040  176.8840  144.4160 C   0  0  2  0  0  3  0  0  0  0  0  0
  189.4200  177.2140  145.1560 C   0  0  1  0  0  3  0  0  0  0  0  0
  185.3000  178.3110  145.3750 C   0  0  0  0  0  2  0  0  0  0  0  0
  189.1340  175.5200  146.9000 O   0  0  0  0  0  1  0  0  0  0  0  0
  190.0810  176.1460  144.2310 C   0  0  2  0  0  3  0  0  0  0  0  0
  186.0940  176.1950  147.8490 C   0  0  0  0  0  2  0  0  0  0  0  0
  188.0240  177.5980  147.3000 C   0  0  0  0  0  2  0  0  0  0  0  0
  189.9320  176.4480  142.7230 C   0  0  0  0  0  2  0  0  0  0  0  0
  186.7150  176.9300  146.9300 C   0  0  0  0  0  0  0  0  0  0  0  0
  186.4660  176.9030  143.0120 C   0  0  1  0  0  3  0  0  0  0  0  0
  185.4610  178.0810  142.8360 C   0  0  1  0  0  3  0  0  0  0  0  0
  187.5740  176.9510  141.9370 C   0  0  0  0  0  2  0  0  0  0  0  0
  188.6460  175.8740  142.1110 C   0  0  0  0  0  2  0  0  0  0  0  0
  186.0960  177.0320  145.5530 C   0  0  2  0  0  3  0  0  0  0  0  0
  191.3490  176.2220  147.9910 C   0  0  0  0  0  1  0  0  0  0  0  0
  190.5470  177.3740  147.4010 C   0  0  0  0  0  3  0  0  0  0  0  0
  190.2730  178.4090  148.4850 C   0  0  0  0  0  1  0  0  0  0  0  0
  184.5490  177.9640  141.5870 C   0  0  2  0  0  3  0  0  0  0  0  0
  185.1830  178.4500  140.2930 C   0  0  0  0  0  2  0  0  0  0  0  0
  185.4770  177.3590  139.4750 O   0  0  0  0  0  1  0  0  0  0  0  0
  183.2620  178.7620  141.7810 C   0  0  0  0  0  2  0  0  0  0  0  0
  181.9430  177.7740  140.1210 C   0  0  0  0  0  1  0  0  0  0  0  0
  180.9480  178.6700  142.0270 C   0  0  0  0  0  1  0  0  0  0  0  0
  182.0990  177.9180  141.5580 N   0  0  0  0  0  0  0  0  0  0  0  0
  189.6580  174.8410  144.5200 O   0  0  0  0  0  0  0  0  0  0  0  0
  191.8430  174.1060  145.2210 C   0  0  0  0  0  1  0  0  0  0  0  0
  190.7280  174.0020  144.1850 C   0  0  1  0  0  3  0  0  0  0  0  0
  190.2390  172.5600  143.9990 C   0  0  1  0  0  3  0  0  0  0  0  0
  189.3180  172.2310  144.9980 O   0  0  0  0  0  1  0  0  0  0  0  0
  189.6460  172.2780  142.6130 C   0  0  2  0  0  0  0  0  0  0  0  0
  190.7100  172.6720  141.0970 P   0  0  0  0  0  2  0  0  0  0  0  0
  188.2820  172.5130  142.4270 O   0  0  0  0  0  1  0  0  0  0  0  0
  190.1060  171.0820  141.9650 C   0  0  0  0  0  1  0  0  0  0  0  0
  192.2650  172.5470  141.8610 O   0  0  0  0  0  1  0  0  0  0  0  0
  2  6  1  0  0  0  0
  3  7  1  1  0  0  0
  3 10  1  0  0  0  0
  3 19  1  0  0  0  0
  4  1  1  6  0  0  0
  4 17  1  0  0  0  0
  5  1  1  6  0  0  0
  5  3  1  0  0  0  0
  8 28  1  6  0  0  0
  8  5  1  0  0  0  0
 11  8  1  0  0  0  0
 12 10  1  0  0  0  0
 12  9  2  0  0  0  0
 13 15  1  6  0  0  0
 13  4  1  0  0  0  0
 14 21  1  6  0  0  0
 14 13  1  0  0  0  0
 14  2  1  0  0  0  0
 15 16  1  0  0  0  0
 16 11  1  0  0  0  0
 17  6  1  1  0  0  0
 17 12  1  0  0  0  0
 19 18  1  0  0  0  0
 19 20  1  0  0  0  0
 21 22  1  6  0  0  0
 21 24  1  0  0  0  0
 23 22  1  0  0  0  0
 25 27  1  0  0  0  0
 27 24  1  0  0  0  0
 27 26  1  0  0  0  0
 30 28  1  0  0  0  0
 30 29  1  1  0  0  0
 31 30  1  0  0  0  0
 31 32  1  1  0  0  0
 33 36  1  6  0  0  0
 33 31  1  0  0  0  0
 34 37  1  0  0  0  0
 34 33  1  0  0  0  0
 35 33  1  0  0  0  0
M  END
>  <MODEL>
5

>  <REMARK>
 VINA RESULT:      -6.5      2.110      3.198
  Name = 
  9 active torsions:
  status: ('A' for Active; 'I' for Inactive)
    1  A    between atoms: C_1  and  C_5
    2  A    between atoms: C_1  and  C_23
    3  A    between atoms: C_2  and  C_6
    4  A    between atoms: C_6  and  C_8
    5  A    between atoms: C_6  and  C_31
    6  A    between atoms: C_8  and  N_19
    7  A    between atoms: C_9  and  C_30
    8  A    between atoms: C_20  and  O_25
    9  A    between atoms: C_23  and  O_25
                            x       y       z     vdW  Elec       q    Type
                         _______ _______ _______ _____ _____    ______ ____

>  <TORSDO>
F 9

$$$$
=
 OpenBabel11052420133D

 37 39  0  0  1  0  0  0  0  0999 V2000
  190.7120  176.8400  144.3460 C   0  0  0  0  0  2  0  0  0  0  0  0
  187.9220  177.6320  146.6850 C   0  0  0  0  0  2  0  0  0  0  0  0
  192.8290  175.5390  145.0990 C   0  0  2  0  0  0  0  0  0  0  0  0
  189.7250  175.9720  145.1100 C   0  0  2  0  0  3  0  0  0  0  0  0
  191.8750  175.9550  143.9270 C   0  0  1  0  0  3  0  0  0  0  0  0
  189.4000  177.5280  147.0300 C   0  0  0  0  0  2  0  0  0  0  0  0
  192.6990  174.1740  145.3900 O   0  0  0  0  0  1  0  0  0  0  0  0
  191.5020  174.8930  142.8480 C   0  0  2  0  0  3  0  0  0  0  0  0
  191.4220  175.1380  148.2250 C   0  0  0  0  0  2  0  0  0  0  0  0
  192.5330  176.3340  146.4000 C   0  0  0  0  0  2  0  0  0  0  0  0
  190.3550  175.3310  141.9100 C   0  0  0  0  0  2  0  0  0  0  0  0
  191.2830  175.8630  147.1180 C   0  0  0  0  0  0  0  0  0  0  0  0
  188.2820  176.1830  144.6080 C   0  0  1  0  0  3  0  0  0  0  0  0
  187.6430  177.4850  145.1760 C   0  0  1  0  0  3  0  0  0  0  0  0
  188.2630  176.1810  143.0630 C   0  0  0  0  0  2  0  0  0  0  0  0
  188.9610  174.9700  142.4410 C   0  0  0  0  0  2  0  0  0  0  0  0
  189.8850  176.1510  146.6170 C   0  0  2  0  0  3  0  0  0  0  0  0
  194.9280  176.9580  145.3860 C   0  0  0  0  0  1  0  0  0  0  0  0
  194.2810  175.7940  144.6460 C   0  0  0  0  0  3  0  0  0  0  0  0
  194.4060  176.0180  143.1440 C   0  0  0  0  0  1  0  0  0  0  0  0
  186.1070  177.5820  144.9830 C   0  0  2  0  0  3  0  0  0  0  0  0
  185.2920  176.7600  145.9690 C   0  0  0  0  0  2  0  0  0  0  0  0
  184.2870  177.5520  146.5230 O   0  0  0  0  0  1  0  0  0  0  0  0
  185.7090  177.1230  143.5830 C   0  0  0  0  0  2  0  0  0  0  0  0
  183.8560  178.4210  142.9870 C   0  0  0  0  0  1  0  0  0  0  0  0
  185.4550  177.8590  141.3870 C   0  0  0  0  0  1  0  0  0  0  0  0
  185.2840  178.2560  142.7750 N   0  0  0  0  0  0  0  0  0  0  0  0
  191.2380  173.6300  143.3980 O   0  0  0  0  0  0  0  0  0  0  0  0
  193.2380  172.6220  142.5090 C   0  0  0  0  0  1  0  0  0  0  0  0
  191.7150  172.6940  142.4710 C   0  0  1  0  0  3  0  0  0  0  0  0
  191.0610  171.3280  142.7070 C   0  0  1  0  0  3  0  0  0  0  0  0
  189.6880  171.4790  142.9170 O   0  0  0  0  0  1  0  0  0  0  0  0
  191.3200  170.3110  141.5880 C   0  0  2  0  0  0  0  0  0  0  0  0
  192.6460  168.9920  141.8780 P   0  0  0  0  0  2  0  0  0  0  0  0
  191.2450  170.7610  140.2680 O   0  0  0  0  0  1  0  0  0  0  0  0
  190.7400  169.0110  141.7740 C   0  0  0  0  0  1  0  0  0  0  0  0
  192.5910  168.9790  143.6150 O   0  0  0  0  0  1  0  0  0  0  0  0
  2  6  1  0  0  0  0
  3  7  1  1  0  0  0
  3 10  1  0  0  0  0
  4  1  1  6  0  0  0
  4 17  1  0  0  0  0
  5  1  1  1  0  0  0
  5  3  1  0  0  0  0
  8 28  1  1  0  0  0
  8  5  1  0  0  0  0
 10 12  1  0  0  0  0
 11 16  1  0  0  0  0
 11  8  1  0  0  0  0
 12  9  2  0  0  0  0
 13 15  1  6  0  0  0
 13  4  1  0  0  0  0
 13 14  1  0  0  0  0
 14 21  1  1  0  0  0
 14  2  1  0  0  0  0
 16 15  1  0  0  0  0
 17  6  1  6  0  0  0
 17 12  1  0  0  0  0
 19  3  1  0  0  0  0
 19 18  1  0  0  0  0
 20 19  1  0  0  0  0
 21 24  1  6  0  0  0
 21 22  1  0  0  0  0
 22 23  1  0  0  0  0
 26 27  1  0  0  0  0
 27 25  1  0  0  0  0
 27 24  1  0  0  0  0
 30 29  1  1  0  0  0
 30 31  1  0  0  0  0
 30 28  1  0  0  0  0
 31 32  1  6  0  0  0
 33 36  1  1  0  0  0
 33 34  1  0  0  0  0
 33 31  1  0  0  0  0
 34 37  1  0  0  0  0
 35 33  1  0  0  0  0
M  END
>  <MODEL>
6

>  <REMARK>
 VINA RESULT:      -6.3      2.027      2.682
  Name = 
  9 active torsions:
  status: ('A' for Active; 'I' for Inactive)
    1  A    between atoms: C_1  and  C_5
    2  A    between atoms: C_1  and  C_23
    3  A    between atoms: C_2  and  C_6
    4  A    between atoms: C_6  and  C_8
    5  A    between atoms: C_6  and  C_31
    6  A    between atoms: C_8  and  N_19
    7  A    between atoms: C_9  and  C_30
    8  A    between atoms: C_20  and  O_25
    9  A    between atoms: C_23  and  O_25
                            x       y       z     vdW  Elec       q    Type
                         _______ _______ _______ _____ _____    ______ ____

>  <TORSDO>
F 9

$$$$
=
 OpenBabel11052420133D

 37 39  0  0  1  0  0  0  0  0999 V2000
  191.1640  174.5340  145.5490 C   0  0  0  0  0  2  0  0  0  0  0  0
  194.7620  175.4930  145.6870 C   0  0  0  0  0  2  0  0  0  0  0  0
  189.3560  176.0730  144.4970 C   0  0  2  0  0  0  0  0  0  0  0  0
  192.2100  174.7800  144.4740 C   0  0  2  0  0  3  0  0  0  0  0  0
  189.7970  174.6200  144.8890 C   0  0  1  0  0  3  0  0  0  0  0  0
  193.5650  176.4290  145.7630 C   0  0  0  0  0  2  0  0  0  0  0  0
  189.3550  176.2390  143.1060 O   0  0  0  0  0  1  0  0  0  0  0  0
  189.5000  173.4520  143.8990 C   0  0  2  0  0  3  0  0  0  0  0  0
  191.8340  178.2930  143.5820 C   0  0  0  0  0  2  0  0  0  0  0  0
  190.2960  177.1500  145.1050 C   0  0  0  0  0  2  0  0  0  0  0  0
  190.2150  172.1310  144.2600 C   0  0  0  0  0  2  0  0  0  0  0  0
  191.6280  177.2550  144.3880 C   0  0  0  0  0  0  0  0  0  0  0  0
  193.3300  173.7210  144.5240 C   0  0  1  0  0  3  0  0  0  0  0  0
  194.3620  174.0050  145.6560 C   0  0  1  0  0  3  0  0  0  0  0  0
  192.7090  172.3140  144.6760 C   0  0  0  0  0  2  0  0  0  0  0  0
  191.6180  172.0100  143.6490 C   0  0  0  0  0  2  0  0  0  0  0  0
  192.7210  176.2180  144.5200 C   0  0  2  0  0  3  0  0  0  0  0  0
  187.2420  177.4930  144.3640 C   0  0  0  0  0  1  0  0  0  0  0  0
  187.9150  176.2860  145.0050 C   0  0  0  0  0  3  0  0  0  0  0  0
  187.8300  176.4060  146.5220 C   0  0  0  0  0  1  0  0  0  0  0  0
  195.6730  173.1820  145.5480 C   0  0  2  0  0  3  0  0  0  0  0  0
  196.8650  173.7940  146.2660 C   0  0  0  0  0  2  0  0  0  0  0  0
  197.8440  174.1460  145.3360 O   0  0  0  0  0  1  0  0  0  0  0  0
  196.0770  172.9980  144.0880 C   0  0  0  0  0  2  0  0  0  0  0  0
  197.4280  171.1050  143.8350 C   0  0  0  0  0  1  0  0  0  0  0  0
  195.7100  171.5280  142.3180 C   0  0  0  0  0  1  0  0  0  0  0  0
  196.0620  171.5890  143.7270 N   0  0  0  0  0  0  0  0  0  0  0  0
  189.7440  173.7990  142.5620 O   0  0  0  0  0  0  0  0  0  0  0  0
  187.5890  173.0690  141.7680 C   0  0  0  0  0  1  0  0  0  0  0  0
  189.0950  172.8300  141.7850 C   0  0  1  0  0  3  0  0  0  0  0  0
  189.6940  172.7900  140.3740 C   0  0  1  0  0  3  0  0  0  0  0  0
  190.6300  173.8150  140.2170 O   0  0  0  0  0  1  0  0  0  0  0  0
  190.3160  171.4380  140.0000 C   0  0  2  0  0  0  0  0  0  0  0  0
  189.9180  170.7220  138.2930 P   0  0  0  0  0  2  0  0  0  0  0  0
  190.4400  170.4760  141.0050 O   0  0  0  0  0  1  0  0  0  0  0  0
  191.4530  171.4910  139.1250 C   0  0  0  0  0  1  0  0  0  0  0  0
  189.5560  172.2180  137.4870 O   0  0  0  0  0  1  0  0  0  0  0  0
  2  6  1  0  0  0  0
  3  7  1  6  0  0  0
  3  5  1  0  0  0  0
  3 19  1  0  0  0  0
  3 10  1  0  0  0  0
  4 17  1  0  0  0  0
  4 13  1  0  0  0  0
  4  1  1  1  0  0  0
  5  1  1  6  0  0  0
  8 28  1  6  0  0  0
  8 11  1  0  0  0  0
  8  5  1  0  0  0  0
  9 12  2  0  0  0  0
 12 17  1  0  0  0  0
 12 10  1  0  0  0  0
 13 15  1  1  0  0  0
 13 14  1  0  0  0  0
 14 21  1  6  0  0  0
 14  2  1  0  0  0  0
 16 11  1  0  0  0  0
 16 15  1  0  0  0  0
 17  6  1  1  0  0  0
 18 19  1  0  0  0  0
 19 20  1  0  0  0  0
 21 24  1  6  0  0  0
 21 22  1  0  0  0  0
 23 22  1  0  0  0  0
 26 27  1  0  0  0  0
 27 25  1  0  0  0  0
 27 24  1  0  0  0  0
 30 29  1  6  0  0  0
 30 28  1  0  0  0  0
 31 32  1  1  0  0  0
 31 30  1  0  0  0  0
 33 36  1  6  0  0  0
 33 31  1  0  0  0  0
 33 35  1  0  0  0  0
 34 33  1  0  0  0  0
 37 34  1  0  0  0  0
M  END
>  <MODEL>
7

>  <REMARK>
 VINA RESULT:      -6.3      3.290      7.294
  Name = 
  9 active torsions:
  status: ('A' for Active; 'I' for Inactive)
    1  A    between atoms: C_1  and  C_5
    2  A    between atoms: C_1  and  C_23
    3  A    between atoms: C_2  and  C_6
    4  A    between atoms: C_6  and  C_8
    5  A    between atoms: C_6  and  C_31
    6  A    between atoms: C_8  and  N_19
    7  A    between atoms: C_9  and  C_30
    8  A    between atoms: C_20  and  O_25
    9  A    between atoms: C_23  and  O_25
                            x       y       z     vdW  Elec       q    Type
                         _______ _______ _______ _____ _____    ______ ____

>  <TORSDO>
F 9

$$$$
=
 OpenBabel11052420133D

 37 39  0  0  1  0  0  0  0  0999 V2000
  191.2950  176.1140  142.7120 C   0  0  0  0  0  2  0  0  0  0  0  0
  188.8250  177.6450  145.0430 C   0  0  0  0  0  2  0  0  0  0  0  0
  193.5940  175.2150  143.5190 C   0  0  2  0  0  0  0  0  0  0  0  0
  190.5010  175.5630  143.8850 C   0  0  2  0  0  3  0  0  0  0  0  0
  192.4490  175.1600  142.4490 C   0  0  1  0  0  3  0  0  0  0  0  0
  190.3410  177.7020  145.1540 C   0  0  0  0  0  2  0  0  0  0  0  0
  193.6140  174.0470  144.2920 O   0  0  0  0  0  1  0  0  0  0  0  0
  192.0060  173.7710  141.8940 C   0  0  2  0  0  3  0  0  0  0  0  0
  192.6950  175.9480  146.7700 C   0  0  0  0  0  2  0  0  0  0  0  0
  193.4310  176.4220  144.4830 C   0  0  0  0  0  2  0  0  0  0  0  0
  190.7040  173.8170  141.0640 C   0  0  0  0  0  2  0  0  0  0  0  0
  192.3400  176.2190  145.5170 C   0  0  0  0  0  0  0  0  0  0  0  0
  188.9890  175.5490  143.5860 C   0  0  1  0  0  3  0  0  0  0  0  0
  188.3410  176.9560  143.7520 C   0  0  1  0  0  3  0  0  0  0  0  0
  188.7440  174.9860  142.1680 C   0  0  0  0  0  2  0  0  0  0  0  0
  189.4350  173.6470  141.9110 C   0  0  0  0  0  2  0  0  0  0  0  0
  190.8660  176.2790  145.1830 C   0  0  2  0  0  3  0  0  0  0  0  0
  196.1050  175.6220  143.7060 C   0  0  0  0  0  1  0  0  0  0  0  0
  194.9400  175.3180  142.7730 C   0  0  0  0  0  3  0  0  0  0  0  0
  194.9180  176.3390  141.6420 C   0  0  0  0  0  1  0  0  0  0  0  0
  186.7900  176.9460  143.7930 C   0  0  2  0  0  3  0  0  0  0  0  0
  186.1200  177.2820  142.4700 C   0  0  0  0  0  2  0  0  0  0  0  0
  186.4750  178.5720  142.0770 O   0  0  0  0  0  1  0  0  0  0  0  0
  186.2700  177.9460  144.8230 C   0  0  0  0  0  2  0  0  0  0  0  0
  184.2030  178.8940  145.3680 C   0  0  0  0  0  1  0  0  0  0  0  0
  184.9620  177.0080  146.5070 C   0  0  0  0  0  1  0  0  0  0  0  0
  184.9000  177.6310  145.1950 N   0  0  0  0  0  0  0  0  0  0  0  0
  191.9240  172.7890  142.8920 O   0  0  0  0  0  0  0  0  0  0  0  0
  193.6630  171.9710  141.4370 C   0  0  0  0  0  1  0  0  0  0  0  0
  192.4820  171.6280  142.3410 C   0  0  1  0  0  3  0  0  0  0  0  0
  192.8670  170.6420  143.4510 C   0  0  1  0  0  3  0  0  0  0  0  0
  192.1390  170.9160  144.6120 O   0  0  0  0  0  1  0  0  0  0  0  0
  192.7090  169.1680  143.0570 C   0  0  2  0  0  0  0  0  0  0  0  0
  194.2810  168.1660  142.7270 P   0  0  0  0  0  2  0  0  0  0  0  0
  191.6330  168.8240  142.2370 O   0  0  0  0  0  1  0  0  0  0  0  0
  192.9540  168.2100  144.0980 C   0  0  0  0  0  1  0  0  0  0  0  0
  195.3710  169.1110  143.6960 O   0  0  0  0  0  1  0  0  0  0  0  0
  2  6  1  0  0  0  0
  3  7  1  1  0  0  0
  3 10  1  0  0  0  0
  4  1  1  6  0  0  0
  4 17  1  0  0  0  0
  5  1  1  1  0  0  0
  5  3  1  0  0  0  0
  8  5  1  0  0  0  0
  8 28  1  1  0  0  0
 10 12  1  0  0  0  0
 11  8  1  0  0  0  0
 11 16  1  0  0  0  0
 12  9  2  0  0  0  0
 13 15  1  6  0  0  0
 13 14  1  0  0  0  0
 13  4  1  0  0  0  0
 14 21  1  1  0  0  0
 14  2  1  0  0  0  0
 16 15  1  0  0  0  0
 17  6  1  6  0  0  0
 17 12  1  0  0  0  0
 19  3  1  0  0  0  0
 19 18  1  0  0  0  0
 20 19  1  0  0  0  0
 21 22  1  6  0  0  0
 21 24  1  0  0  0  0
 23 22  1  0  0  0  0
 24 27  1  0  0  0  0
 27 25  1  0  0  0  0
 27 26  1  0  0  0  0
 30 29  1  1  0  0  0
 30 28  1  0  0  0  0
 30 31  1  0  0  0  0
 31 32  1  1  0  0  0
 33 31  1  0  0  0  0
 33 36  1  1  0  0  0
 34 33  1  0  0  0  0
 34 37  1  0  0  0  0
 35 33  1  0  0  0  0
M  END
>  <MODEL>
8

>  <REMARK>
 VINA RESULT:      -6.3      2.847      4.143
  Name = 
  9 active torsions:
  status: ('A' for Active; 'I' for Inactive)
    1  A    between atoms: C_1  and  C_5
    2  A    between atoms: C_1  and  C_23
    3  A    between atoms: C_2  and  C_6
    4  A    between atoms: C_6  and  C_8
    5  A    between atoms: C_6  and  C_31
    6  A    between atoms: C_8  and  N_19
    7  A    between atoms: C_9  and  C_30
    8  A    between atoms: C_20  and  O_25
    9  A    between atoms: C_23  and  O_25
                            x       y       z     vdW  Elec       q    Type
                         _______ _______ _______ _____ _____    ______ ____

>  <TORSDO>
F 9

$$$$
=
 OpenBabel11052420133D

 37 39  0  0  1  0  0  0  0  0999 V2000
  191.2060  175.0360  142.3840 C   0  0  0  0  0  2  0  0  0  0  0  0
  193.8520  173.6250  144.5950 C   0  0  0  0  0  2  0  0  0  0  0  0
  188.8550  173.9540  142.1670 C   0  0  2  0  0  0  0  0  0  0  0  0
  191.3100  174.8620  143.8900 C   0  0  2  0  0  3  0  0  0  0  0  0
  189.7380  175.2440  142.0450 C   0  0  1  0  0  3  0  0  0  0  0  0
  192.7800  172.8490  143.8460 C   0  0  0  0  0  2  0  0  0  0  0  0
  187.9800  174.0470  143.2570 O   0  0  0  0  0  1  0  0  0  0  0  0
  189.1610  176.6010  142.5510 C   0  0  2  0  0  3  0  0  0  0  0  0
  189.7380  171.6460  144.5770 C   0  0  0  0  0  2  0  0  0  0  0  0
  189.7160  172.6750  142.3550 C   0  0  0  0  0  2  0  0  0  0  0  0
  190.2080  177.7340  142.6330 C   0  0  0  0  0  2  0  0  0  0  0  0
  190.2860  172.5370  143.7540 C   0  0  0  0  0  0  0  0  0  0  0  0
  192.4250  175.7460  144.4850 C   0  0  1  0  0  3  0  0  0  0  0  0
  193.8420  175.1320  144.2720 C   0  0  1  0  0  3  0  0  0  0  0  0
  192.3380  177.1670  143.8850 C   0  0  0  0  0  2  0  0  0  0  0  0
  190.9440  177.7880  143.9790 C   0  0  0  0  0  2  0  0  0  0  0  0
  191.4260  173.3870  144.2690 C   0  0  2  0  0  3  0  0  0  0  0  0
  188.3130  172.5640  140.0990 C   0  0  0  0  0  1  0  0  0  0  0  0
  188.0080  173.8330  140.8830 C   0  0  0  0  0  3  0  0  0  0  0  0
  188.1440  175.0410  139.9640 C   0  0  0  0  0  1  0  0  0  0  0  0
  194.9590  175.7900  145.1230 C   0  0  2  0  0  3  0  0  0  0  0  0
  194.4590  176.7360  146.2030 C   0  0  0  0  0  2  0  0  0  0  0  0
  194.9460  178.0210  145.9650 O   0  0  0  0  0  1  0  0  0  0  0  0
  195.9140  176.5880  144.2380 C   0  0  0  0  0  2  0  0  0  0  0  0
  197.6920  175.4140  143.2730 C   0  0  0  0  0  1  0  0  0  0  0  0
  196.2910  176.7170  141.9430 C   0  0  0  0  0  1  0  0  0  0  0  0
  196.3070  175.8070  143.0750 N   0  0  0  0  0  0  0  0  0  0  0  0
  188.4680  176.4780  143.7650 O   0  0  0  0  0  0  0  0  0  0  0  0
  186.3880  176.9520  142.6440 C   0  0  0  0  0  1  0  0  0  0  0  0
  187.4020  177.3840  143.6980 C   0  0  1  0  0  3  0  0  0  0  0  0
  186.7640  177.5610  145.0810 C   0  0  1  0  0  3  0  0  0  0  0  0
  187.7490  177.5440  146.0730 O   0  0  0  0  0  1  0  0  0  0  0  0
  185.8980  178.8190  145.2120 C   0  0  2  0  0  0  0  0  0  0  0  0
  184.1230  178.6120  145.8400 P   0  0  0  0  0  2  0  0  0  0  0  0
  186.0450  179.8160  144.2450 O   0  0  0  0  0  1  0  0  0  0  0  0
  185.7430  179.3410  146.5400 C   0  0  0  0  0  1  0  0  0  0  0  0
  184.3570  177.1360  146.7260 O   0  0  0  0  0  1  0  0  0  0  0  0
  3 10  1  0  0  0  0
  3  7  1  1  0  0  0
  4  1  1  6  0  0  0
  4 17  1  0  0  0  0
  4 13  1  0  0  0  0
  5  3  1  0  0  0  0
  5  1  1  1  0  0  0
  5  8  1  0  0  0  0
  6  2  1  0  0  0  0
  8 11  1  0  0  0  0
  8 28  1  1  0  0  0
 10 12  1  0  0  0  0
 11 16  1  0  0  0  0
 12 17  1  0  0  0  0
 12  9  2  0  0  0  0
 13 15  1  6  0  0  0
 14 13  1  0  0  0  0
 14  2  1  0  0  0  0
 14 21  1  1  0  0  0
 15 16  1  0  0  0  0
 17  6  1  6  0  0  0
 18 19  1  0  0  0  0
 19  3  1  0  0  0  0
 20 19  1  0  0  0  0
 21 24  1  6  0  0  0
 21 22  1  0  0  0  0
 23 22  1  0  0  0  0
 26 27  1  0  0  0  0
 27 25  1  0  0  0  0
 27 24  1  0  0  0  0
 30 29  1  6  0  0  0
 30 28  1  0  0  0  0
 30 31  1  0  0  0  0
 31 33  1  0  0  0  0
 31 32  1  1  0  0  0
 33 34  1  0  0  0  0
 33 36  1  1  0  0  0
 34 37  1  0  0  0  0
 35 33  1  0  0  0  0
M  END
>  <MODEL>
9

>  <REMARK>
 VINA RESULT:      -6.1      3.258      7.538
  Name = 
  9 active torsions:
  status: ('A' for Active; 'I' for Inactive)
    1  A    between atoms: C_1  and  C_5
    2  A    between atoms: C_1  and  C_23
    3  A    between atoms: C_2  and  C_6
    4  A    between atoms: C_6  and  C_8
    5  A    between atoms: C_6  and  C_31
    6  A    between atoms: C_8  and  N_19
    7  A    between atoms: C_9  and  C_30
    8  A    between atoms: C_20  and  O_25
    9  A    between atoms: C_23  and  O_25
                            x       y       z     vdW  Elec       q    Type
                         _______ _______ _______ _____ _____    ______ ____

>  <TORSDO>
F 9

$$$$
