=
 OpenBabel11052421283D

 32 37  0  0  1  0  0  0  0  0999 V2000
  194.4620  176.0090  143.0900 C   0  0  2  0  0  3  0  0  0  0  0  0
  189.8890  174.5900  143.1200 C   0  0  0  0  0  2  0  0  0  0  0  0
  191.3300  176.6590  148.4960 C   0  0  0  0  0  3  0  0  0  0  0  0
  190.6510  177.7220  148.0080 C   0  0  0  0  0  3  0  0  0  0  0  0
  192.2050  174.2100  142.2970 C   0  0  2  0  0  3  0  0  0  0  0  0
  191.8990  173.7390  144.8420 C   0  0  0  0  0  2  0  0  0  0  0  0
  193.3700  175.7850  144.1240 C   0  0  0  0  0  2  0  0  0  0  0  0
  191.3300  175.3080  147.8040 C   0  0  0  0  0  2  0  0  0  0  0  0
  190.6380  174.2380  145.5640 C   0  0  1  0  0  3  0  0  0  0  0  0
  190.9290  175.4880  146.3470 C   0  0  1  0  0  3  0  0  0  0  0  0
  189.1160  176.0550  144.9500 N   0  0  0  0  0  0  0  0  0  0  0  0
  193.8550  176.1240  141.6960 C   0  0  0  0  0  2  0  0  0  0  0  0
  192.3560  174.7000  143.7380 C   0  0  1  0  0  0  0  0  0  0  0  0
  193.1840  174.8170  141.2790 C   0  0  0  0  0  2  0  0  0  0  0  0
  189.9020  177.6780  146.6870 C   0  0  0  0  0  2  0  0  0  0  0  0
  189.6280  176.2280  146.3000 C   0  0  2  0  0  3  0  0  0  0  0  0
  191.2370  175.2510  142.8450 C   0  0  2  0  0  3  0  0  0  0  0  0
  189.5120  174.6840  144.6020 C   0  0  1  0  0  3  0  0  0  0  0  0
  195.7360  174.7030  143.1730 S   0  0  0  0  0  0  0  0  0  0  0  0
  196.0090  174.9560  144.9540 C   0  0  0  0  0  2  0  0  0  0  0  0
  196.1910  173.6460  145.6510 C   0  0  0  0  0  0  0  0  0  0  0  0
  195.2720  172.5070  145.3480 C   0  0  0  0  0  1  0  0  0  0  0  0
  197.0590  173.5210  146.5040 O   0  0  0  0  0  0  0  0  0  0  0  0
  187.6600  176.0420  145.0280 C   0  0  0  0  0  2  0  0  0  0  0  0
  186.2170  176.2360  142.6400 O   0  0  0  0  0  1  0  0  0  0  0  0
  185.6820  178.6150  142.8120 C   0  0  2  0  0  3  0  0  0  0  0  0
  187.0830  177.3950  144.6170 C   0  0  2  0  0  3  0  0  0  0  0  0
  185.5030  179.2390  145.2860 C   0  0  0  0  0  2  0  0  0  0  0  0
  185.7640  179.7370  143.8530 C   0  0  0  0  0  2  0  0  0  0  0  0
  184.2400  178.1400  142.6710 C   0  0  0  0  0  1  0  0  0  0  0  0
  185.9250  177.7840  145.5280 C   0  0  0  0  0  2  0  0  0  0  0  0
  186.6760  177.4710  143.1280 C   0  0  1  0  0  3  0  0  0  0  0  0
  1 19  1  6  0  0  0
  1  7  1  0  0  0  0
  4  3  2  0  0  0  0
  5 14  1  6  0  0  0
  5 17  1  0  0  0  0
  5 13  1  0  0  0  0
  8  3  1  0  0  0  0
  9  6  1  6  0  0  0
  9 10  1  0  0  0  0
 10  8  1  1  0  0  0
 11 24  1  0  0  0  0
 11 16  1  0  0  0  0
 12  1  1  0  0  0  0
 13  7  1  1  0  0  0
 13  6  1  0  0  0  0
 14 12  1  0  0  0  0
 15  4  1  0  0  0  0
 16 10  1  0  0  0  0
 16 15  1  6  0  0  0
 17  2  1  1  0  0  0
 17 13  1  0  0  0  0
 18  2  1  6  0  0  0
 18 11  1  0  0  0  0
 18  9  1  0  0  0  0
 19 20  1  0  0  0  0
 20 21  1  0  0  0  0
 21 23  2  0  0  0  0
 22 21  1  0  0  0  0
 26 30  1  1  0  0  0
 26 32  1  0  0  0  0
 26 29  1  0  0  0  0
 27 24  1  1  0  0  0
 27 31  1  0  0  0  0
 28 31  1  0  0  0  0
 29 28  1  0  0  0  0
 32 25  1  1  0  0  0
 32 27  1  0  0  0  0
M  END
>  <MODEL>
1

>  <REMARK>
 VINA RESULT:      -7.5      0.000      0.000
  Name = 
  5 active torsions:
  status: ('A' for Active; 'I' for Inactive)
    1  A    between atoms: C_1  and  C_10
    2  A    between atoms: C_2  and  S_24
    3  A    between atoms: C_10  and  S_24
    4  A    between atoms: C_11  and  C_27
    5  A    between atoms: N_16  and  C_27
                            x       y       z     vdW  Elec       q    Type
                         _______ _______ _______ _____ _____    ______ ____

>  <TORSDO>
F 5

$$$$
=
 OpenBabel11052421283D

 32 37  0  0  1  0  0  0  0  0999 V2000
  190.8840  172.8460  139.6100 C   0  0  2  0  0  3  0  0  0  0  0  0
  187.9940  175.2890  142.5420 C   0  0  0  0  0  2  0  0  0  0  0  0
  193.4050  174.9500  144.9650 C   0  0  0  0  0  3  0  0  0  0  0  0
  193.4400  176.2140  144.4850 C   0  0  0  0  0  3  0  0  0  0  0  0
  188.2560  173.4220  140.9210 C   0  0  2  0  0  3  0  0  0  0  0  0
  189.4840  173.0330  143.1870 C   0  0  0  0  0  2  0  0  0  0  0  0
  190.9330  173.3830  141.0310 C   0  0  0  0  0  2  0  0  0  0  0  0
  192.1230  174.1390  145.0240 C   0  0  0  0  0  2  0  0  0  0  0  0
  189.7000  174.2100  144.1500 C   0  0  1  0  0  3  0  0  0  0  0  0
  191.1090  174.7280  144.0550 C   0  0  1  0  0  3  0  0  0  0  0  0
  189.7420  176.6120  143.6780 N   0  0  0  0  0  0  0  0  0  0  0  0
  189.7790  173.5380  138.8200 C   0  0  0  0  0  2  0  0  0  0  0  0
  189.5630  173.4620  141.7170 C   0  0  1  0  0  0  0  0  0  0  0  0
  188.4040  173.2200  139.4040 C   0  0  0  0  0  2  0  0  0  0  0  0
  192.2200  176.8970  143.8900 C   0  0  0  0  0  2  0  0  0  0  0  0
  190.9540  176.1860  144.3590 C   0  0  2  0  0  3  0  0  0  0  0  0
  188.8220  174.7620  141.3740 C   0  0  2  0  0  3  0  0  0  0  0  0
  188.8480  175.4540  143.8040 C   0  0  1  0  0  3  0  0  0  0  0  0
  190.7020  171.0290  139.5890 S   0  0  0  0  0  0  0  0  0  0  0  0
  192.0580  170.7890  140.7790 C   0  0  0  0  0  2  0  0  0  0  0  0
  191.5720  170.0660  141.9940 C   0  0  0  0  0  0  0  0  0  0  0  0
  192.1240  170.4160  143.3380 C   0  0  0  0  0  1  0  0  0  0  0  0
  190.7620  169.1560  141.8830 O   0  0  0  0  0  0  0  0  0  0  0  0
  189.1360  177.6730  144.4750 C   0  0  0  0  0  2  0  0  0  0  0  0
  188.7030  177.7980  147.2350 O   0  0  0  0  0  1  0  0  0  0  0  0
  186.4010  176.9760  147.2080 C   0  0  2  0  0  3  0  0  0  0  0  0
  187.7870  177.2280  145.0350 C   0  0  2  0  0  3  0  0  0  0  0  0
  185.3070  177.6690  145.0030 C   0  0  0  0  0  2  0  0  0  0  0  0
  185.2990  176.6820  146.1840 C   0  0  0  0  0  2  0  0  0  0  0  0
  186.0950  178.2760  147.9440 C   0  0  0  0  0  1  0  0  0  0  0  0
  186.6960  178.2250  144.6630 C   0  0  0  0  0  2  0  0  0  0  0  0
  187.8050  176.9570  146.5560 C   0  0  1  0  0  3  0  0  0  0  0  0
  1 19  1  1  0  0  0
  1  7  1  0  0  0  0
  3  8  1  0  0  0  0
  4  3  2  0  0  0  0
  5 14  1  6  0  0  0
  5 17  1  0  0  0  0
  5 13  1  0  0  0  0
  9  6  1  6  0  0  0
 10  9  1  0  0  0  0
 10 16  1  0  0  0  0
 10  8  1  1  0  0  0
 11 18  1  0  0  0  0
 11 16  1  0  0  0  0
 11 24  1  0  0  0  0
 12 14  1  0  0  0  0
 12  1  1  0  0  0  0
 13  7  1  6  0  0  0
 13  6  1  0  0  0  0
 15  4  1  0  0  0  0
 16 15  1  6  0  0  0
 17 13  1  0  0  0  0
 17  2  1  1  0  0  0
 18  2  1  6  0  0  0
 18  9  1  0  0  0  0
 19 20  1  0  0  0  0
 20 21  1  0  0  0  0
 21 22  1  0  0  0  0
 23 21  2  0  0  0  0
 26 30  1  6  0  0  0
 27 24  1  1  0  0  0
 27 32  1  0  0  0  0
 28 29  1  0  0  0  0
 29 26  1  0  0  0  0
 31 28  1  0  0  0  0
 31 27  1  0  0  0  0
 32 26  1  0  0  0  0
 32 25  1  1  0  0  0
M  END
>  <MODEL>
2

>  <REMARK>
 VINA RESULT:      -7.3      3.101      4.415
  Name = 
  5 active torsions:
  status: ('A' for Active; 'I' for Inactive)
    1  A    between atoms: C_1  and  C_10
    2  A    between atoms: C_2  and  S_24
    3  A    between atoms: C_10  and  S_24
    4  A    between atoms: C_11  and  C_27
    5  A    between atoms: N_16  and  C_27
                            x       y       z     vdW  Elec       q    Type
                         _______ _______ _______ _____ _____    ______ ____

>  <TORSDO>
F 5

$$$$
=
 OpenBabel11052421283D

 32 37  0  0  1  0  0  0  0  0999 V2000
  191.0860  172.7280  139.8840 C   0  0  2  0  0  3  0  0  0  0  0  0
  188.0530  175.2940  142.5570 C   0  0  0  0  0  2  0  0  0  0  0  0
  193.2910  174.9440  145.3320 C   0  0  0  0  0  3  0  0  0  0  0  0
  193.3780  176.1930  144.8220 C   0  0  0  0  0  3  0  0  0  0  0  0
  188.3880  173.3780  141.0070 C   0  0  2  0  0  3  0  0  0  0  0  0
  189.4620  173.0350  143.3570 C   0  0  0  0  0  2  0  0  0  0  0  0
  191.0510  173.3040  141.2910 C   0  0  0  0  0  2  0  0  0  0  0  0
  191.9950  174.1530  145.3300 C   0  0  0  0  0  2  0  0  0  0  0  0
  189.6350  174.2350  144.3000 C   0  0  1  0  0  3  0  0  0  0  0  0
  191.0550  174.7300  144.2830 C   0  0  1  0  0  3  0  0  0  0  0  0
  189.7460  176.6220  143.7670 N   0  0  0  0  0  0  0  0  0  0  0  0
  190.0450  173.4130  139.0060 C   0  0  0  0  0  2  0  0  0  0  0  0
  189.6410  173.4220  141.8840 C   0  0  1  0  0  0  0  0  0  0  0  0
  188.6300  173.1320  139.5090 C   0  0  0  0  0  2  0  0  0  0  0  0
  192.2100  176.8770  144.1310 C   0  0  0  0  0  2  0  0  0  0  0  0
  190.9050  176.1980  144.5360 C   0  0  2  0  0  3  0  0  0  0  0  0
  188.9460  174.7220  141.4590 C   0  0  2  0  0  3  0  0  0  0  0  0
  188.8270  175.4810  143.8670 C   0  0  1  0  0  3  0  0  0  0  0  0
  190.8750  170.9140  139.9010 S   0  0  0  0  0  0  0  0  0  0  0  0
  191.4320  170.7420  138.1770 C   0  0  0  0  0  2  0  0  0  0  0  0
  190.3640  170.1190  137.3370 C   0  0  0  0  0  0  0  0  0  0  0  0
  189.7240  170.9070  136.2400 C   0  0  0  0  0  1  0  0  0  0  0  0
  189.9780  168.9840  137.5790 O   0  0  0  0  0  0  0  0  0  0  0  0
  189.1080  177.7130  144.4940 C   0  0  0  0  0  2  0  0  0  0  0  0
  188.6920  177.7910  147.2590 O   0  0  0  0  0  1  0  0  0  0  0  0
  186.3800  177.0000  147.2310 C   0  0  2  0  0  3  0  0  0  0  0  0
  187.7560  177.2760  145.0540 C   0  0  2  0  0  3  0  0  0  0  0  0
  185.2830  177.7490  145.0460 C   0  0  0  0  0  2  0  0  0  0  0  0
  185.2680  176.7400  146.2080 C   0  0  0  0  0  2  0  0  0  0  0  0
  186.0950  178.2890  147.9930 C   0  0  0  0  0  1  0  0  0  0  0  0
  186.6760  178.2940  144.7080 C   0  0  0  0  0  2  0  0  0  0  0  0
  187.7800  176.9750  146.5700 C   0  0  1  0  0  3  0  0  0  0  0  0
  1 19  1  1  0  0  0
  1  7  1  0  0  0  0
  4  3  2  0  0  0  0
  5 14  1  6  0  0  0
  5 17  1  0  0  0  0
  5 13  1  0  0  0  0
  8  3  1  0  0  0  0
  9  6  1  6  0  0  0
 10  9  1  0  0  0  0
 10 16  1  0  0  0  0
 10  8  1  1  0  0  0
 11 18  1  0  0  0  0
 11 24  1  0  0  0  0
 11 16  1  0  0  0  0
 12 14  1  0  0  0  0
 12  1  1  0  0  0  0
 13  7  1  6  0  0  0
 13  6  1  0  0  0  0
 15  4  1  0  0  0  0
 16 15  1  6  0  0  0
 17 13  1  0  0  0  0
 17  2  1  1  0  0  0
 18  2  1  6  0  0  0
 18  9  1  0  0  0  0
 20 19  1  0  0  0  0
 21 23  2  0  0  0  0
 21 20  1  0  0  0  0
 22 21  1  0  0  0  0
 26 30  1  6  0  0  0
 27 24  1  1  0  0  0
 27 32  1  0  0  0  0
 28 29  1  0  0  0  0
 29 26  1  0  0  0  0
 31 28  1  0  0  0  0
 31 27  1  0  0  0  0
 32 26  1  0  0  0  0
 32 25  1  1  0  0  0
M  END
>  <MODEL>
3

>  <REMARK>
 VINA RESULT:      -7.3      3.544      5.208
  Name = 
  5 active torsions:
  status: ('A' for Active; 'I' for Inactive)
    1  A    between atoms: C_1  and  C_10
    2  A    between atoms: C_2  and  S_24
    3  A    between atoms: C_10  and  S_24
    4  A    between atoms: C_11  and  C_27
    5  A    between atoms: N_16  and  C_27
                            x       y       z     vdW  Elec       q    Type
                         _______ _______ _______ _____ _____    ______ ____

>  <TORSDO>
F 5

$$$$
=
 OpenBabel11052421283D

 32 37  0  0  1  0  0  0  0  0999 V2000
  194.6460  174.4960  145.6480 C   0  0  2  0  0  3  0  0  0  0  0  0
  191.3070  177.5930  144.1730 C   0  0  0  0  0  2  0  0  0  0  0  0
  190.1490  172.2350  141.8910 C   0  0  0  0  0  3  0  0  0  0  0  0
  189.2510  172.2590  142.9030 C   0  0  0  0  0  3  0  0  0  0  0  0
  193.6920  177.1850  144.7430 C   0  0  2  0  0  3  0  0  0  0  0  0
  192.9100  175.9940  142.5610 C   0  0  0  0  0  2  0  0  0  0  0  0
  193.5100  174.5140  144.6380 C   0  0  0  0  0  2  0  0  0  0  0  0
  190.9180  173.4700  141.4570 C   0  0  0  0  0  2  0  0  0  0  0  0
  191.4100  175.8700  142.2550 C   0  0  1  0  0  3  0  0  0  0  0  0
  190.9080  174.4910  142.5850 C   0  0  1  0  0  3  0  0  0  0  0  0
  189.5030  175.9530  143.7880 N   0  0  0  0  0  0  0  0  0  0  0  0
  194.4690  175.6180  146.6640 C   0  0  0  0  0  2  0  0  0  0  0  0
  193.2070  175.9030  144.0620 C   0  0  1  0  0  0  0  0  0  0  0  0
  194.5650  176.9870  145.9930 C   0  0  0  0  0  2  0  0  0  0  0  0
  188.9990  173.5000  143.7420 C   0  0  0  0  0  2  0  0  0  0  0  0
  189.4890  174.7360  142.9920 C   0  0  2  0  0  3  0  0  0  0  0  0
  192.2630  176.7070  144.9660 C   0  0  2  0  0  3  0  0  0  0  0  0
  190.5230  176.7820  143.1350 C   0  0  1  0  0  3  0  0  0  0  0  0
  196.2730  174.5740  144.8220 S   0  0  0  0  0  0  0  0  0  0  0  0
  197.0350  173.4270  146.0120 C   0  0  0  0  0  2  0  0  0  0  0  0
  197.1880  172.0670  145.4100 C   0  0  0  0  0  0  0  0  0  0  0  0
  196.6770  170.8670  146.1410 C   0  0  0  0  0  1  0  0  0  0  0  0
  197.7750  171.9310  144.3460 O   0  0  0  0  0  0  0  0  0  0  0  0
  188.2340  176.6370  143.5720 C   0  0  0  0  0  2  0  0  0  0  0  0
  185.7710  177.9630  143.5740 O   0  0  0  0  0  1  0  0  0  0  0  0
  185.8060  178.6440  145.9210 C   0  0  2  0  0  3  0  0  0  0  0  0
  187.7510  177.3040  144.8580 C   0  0  2  0  0  3  0  0  0  0  0  0
  187.1140  176.9030  147.2620 C   0  0  0  0  0  2  0  0  0  0  0  0
  186.6230  178.3600  147.1870 C   0  0  0  0  0  2  0  0  0  0  0  0
  184.4690  177.9150  145.9900 C   0  0  0  0  0  1  0  0  0  0  0  0
  187.3620  176.2560  145.8940 C   0  0  0  0  0  2  0  0  0  0  0  0
  186.6120  178.3260  144.6390 C   0  0  1  0  0  3  0  0  0  0  0  0
  1 19  1  6  0  0  0
  1 12  1  0  0  0  0
  3  4  2  0  0  0  0
  4 15  1  0  0  0  0
  5 17  1  0  0  0  0
  5 14  1  1  0  0  0
  7  1  1  0  0  0  0
  8  3  1  0  0  0  0
  9  6  1  1  0  0  0
  9 10  1  0  0  0  0
  9 18  1  0  0  0  0
 10  8  1  6  0  0  0
 10 16  1  0  0  0  0
 13  6  1  6  0  0  0
 13  7  1  0  0  0  0
 13  5  1  0  0  0  0
 13 17  1  0  0  0  0
 14 12  1  0  0  0  0
 16 15  1  1  0  0  0
 16 11  1  0  0  0  0
 17  2  1  6  0  0  0
 18 11  1  0  0  0  0
 18  2  1  1  0  0  0
 19 20  1  0  0  0  0
 21 20  1  0  0  0  0
 21 22  1  0  0  0  0
 23 21  2  0  0  0  0
 24 11  1  0  0  0  0
 26 30  1  1  0  0  0
 26 29  1  0  0  0  0
 27 24  1  6  0  0  0
 27 31  1  0  0  0  0
 29 28  1  0  0  0  0
 31 28  1  0  0  0  0
 32 25  1  6  0  0  0
 32 27  1  0  0  0  0
 32 26  1  0  0  0  0
M  END
>  <MODEL>
4

>  <REMARK>
 VINA RESULT:      -7.2      1.993      3.732
  Name = 
  5 active torsions:
  status: ('A' for Active; 'I' for Inactive)
    1  A    between atoms: C_1  and  C_10
    2  A    between atoms: C_2  and  S_24
    3  A    between atoms: C_10  and  S_24
    4  A    between atoms: C_11  and  C_27
    5  A    between atoms: N_16  and  C_27
                            x       y       z     vdW  Elec       q    Type
                         _______ _______ _______ _____ _____    ______ ____

>  <TORSDO>
F 5

$$$$
=
 OpenBabel11052421283D

 32 37  0  0  1  0  0  0  0  0999 V2000
  185.6620  176.9430  143.2200 C   0  0  2  0  0  3  0  0  0  0  0  0
  190.3230  177.9340  142.7630 C   0  0  0  0  0  2  0  0  0  0  0  0
  189.6910  172.8490  145.7620 C   0  0  0  0  0  3  0  0  0  0  0  0
  190.0130  172.3640  144.5420 C   0  0  0  0  0  3  0  0  0  0  0  0
  188.0140  178.7910  143.1020 C   0  0  2  0  0  3  0  0  0  0  0  0
  188.9560  177.4610  145.1360 C   0  0  0  0  0  2  0  0  0  0  0  0
  186.9740  176.4160  143.7770 C   0  0  0  0  0  2  0  0  0  0  0  0
  189.8190  174.3210  146.1120 C   0  0  0  0  0  2  0  0  0  0  0  0
  190.2120  176.5950  144.9650 C   0  0  1  0  0  3  0  0  0  0  0  0
  189.8470  175.1420  144.8320 C   0  0  1  0  0  3  0  0  0  0  0  0
  191.1560  175.6170  142.9290 N   0  0  0  0  0  0  0  0  0  0  0  0
  185.9140  177.7690  141.9640 C   0  0  0  0  0  2  0  0  0  0  0  0
  188.0820  177.4730  143.8770 C   0  0  1  0  0  0  0  0  0  0  0  0
  186.7330  179.0190  142.2830 C   0  0  0  0  0  2  0  0  0  0  0  0
  190.4490  173.2600  143.3950 C   0  0  0  0  0  2  0  0  0  0  0  0
  190.9260  174.6020  143.9450 C   0  0  2  0  0  3  0  0  0  0  0  0
  188.8410  177.6350  142.5540 C   0  0  2  0  0  3  0  0  0  0  0  0
  190.9860  176.8810  143.6570 C   0  0  1  0  0  3  0  0  0  0  0  0
  184.7330  177.8840  144.4800 S   0  0  0  0  0  0  0  0  0  0  0  0
  185.2510  176.7720  145.8240 C   0  0  0  0  0  2  0  0  0  0  0  0
  185.7330  177.5560  147.0020 C   0  0  0  0  0  0  0  0  0  0  0  0
  185.5660  179.0410  147.0260 C   0  0  0  0  0  1  0  0  0  0  0  0
  186.3070  176.9900  147.9210 O   0  0  0  0  0  0  0  0  0  0  0  0
  192.5650  175.5580  142.5570 C   0  0  0  0  0  2  0  0  0  0  0  0
  195.0130  174.2610  142.1680 O   0  0  0  0  0  1  0  0  0  0  0  0
  195.6860  174.1940  144.5160 C   0  0  2  0  0  3  0  0  0  0  0  0
  193.4350  175.2340  143.7700 C   0  0  2  0  0  3  0  0  0  0  0  0
  194.6930  176.2240  145.7130 C   0  0  0  0  0  2  0  0  0  0  0  0
  195.2410  174.7930  145.8560 C   0  0  0  0  0  2  0  0  0  0  0  0
  196.9360  174.9090  144.0160 C   0  0  0  0  0  1  0  0  0  0  0  0
  194.0280  176.5070  144.3610 C   0  0  0  0  0  2  0  0  0  0  0  0
  194.5310  174.1830  143.4850 C   0  0  1  0  0  3  0  0  0  0  0  0
  1  7  1  0  0  0  0
  1 19  1  1  0  0  0
  3  8  1  0  0  0  0
  4  3  2  0  0  0  0
  5 14  1  6  0  0  0
  5 13  1  0  0  0  0
  9  6  1  6  0  0  0
 10  9  1  0  0  0  0
 10  8  1  1  0  0  0
 11 18  1  0  0  0  0
 11 16  1  0  0  0  0
 12 14  1  0  0  0  0
 12  1  1  0  0  0  0
 13  7  1  6  0  0  0
 13  6  1  0  0  0  0
 15  4  1  0  0  0  0
 16 15  1  6  0  0  0
 16 10  1  0  0  0  0
 17  2  1  1  0  0  0
 17  5  1  0  0  0  0
 17 13  1  0  0  0  0
 18  2  1  6  0  0  0
 18  9  1  0  0  0  0
 19 20  1  0  0  0  0
 20 21  1  0  0  0  0
 21 22  1  0  0  0  0
 21 23  2  0  0  0  0
 24 11  1  0  0  0  0
 26 30  1  6  0  0  0
 26 29  1  0  0  0  0
 27 24  1  6  0  0  0
 27 31  1  0  0  0  0
 28 29  1  0  0  0  0
 31 28  1  0  0  0  0
 32 25  1  6  0  0  0
 32 27  1  0  0  0  0
 32 26  1  0  0  0  0
M  END
>  <MODEL>
5

>  <REMARK>
 VINA RESULT:      -7.1      2.934      7.807
  Name = 
  5 active torsions:
  status: ('A' for Active; 'I' for Inactive)
    1  A    between atoms: C_1  and  C_10
    2  A    between atoms: C_2  and  S_24
    3  A    between atoms: C_10  and  S_24
    4  A    between atoms: C_11  and  C_27
    5  A    between atoms: N_16  and  C_27
                            x       y       z     vdW  Elec       q    Type
                         _______ _______ _______ _____ _____    ______ ____

>  <TORSDO>
F 5

$$$$
=
 OpenBabel11052421283D

 32 37  0  0  1  0  0  0  0  0999 V2000
  184.9570  177.4350  144.0250 C   0  0  2  0  0  3  0  0  0  0  0  0
  189.2940  177.4770  141.9970 C   0  0  0  0  0  2  0  0  0  0  0  0
  189.5860  174.5920  147.1790 C   0  0  0  0  0  3  0  0  0  0  0  0
  189.5610  173.5430  146.3260 C   0  0  0  0  0  3  0  0  0  0  0  0
  187.1600  178.6790  142.4250 C   0  0  2  0  0  3  0  0  0  0  0  0
  188.6480  178.3850  144.5440 C   0  0  0  0  0  2  0  0  0  0  0  0
  186.3790  177.0780  144.4260 C   0  0  0  0  0  2  0  0  0  0  0  0
  189.7870  176.0200  146.7050 C   0  0  0  0  0  2  0  0  0  0  0  0
  189.8180  177.3900  144.5230 C   0  0  1  0  0  3  0  0  0  0  0  0
  189.4480  176.1120  145.2250 C   0  0  1  0  0  3  0  0  0  0  0  0
  190.1690  175.4410  143.0830 N   0  0  0  0  0  0  0  0  0  0  0  0
  184.8390  177.5150  142.5070 C   0  0  0  0  0  2  0  0  0  0  0  0
  187.4570  177.9010  143.7080 C   0  0  1  0  0  0  0  0  0  0  0  0
  185.6990  178.6470  141.9470 C   0  0  0  0  0  2  0  0  0  0  0  0
  189.6500  173.7120  144.8190 C   0  0  0  0  0  2  0  0  0  0  0  0
  190.2430  175.0790  144.4900 C   0  0  2  0  0  3  0  0  0  0  0  0
  187.8160  177.3080  142.3390 C   0  0  2  0  0  3  0  0  0  0  0  0
  190.1930  176.9090  143.1010 C   0  0  1  0  0  3  0  0  0  0  0  0
  184.4050  178.9770  144.8330 S   0  0  0  0  0  0  0  0  0  0  0  0
  184.2340  178.1720  146.4560 C   0  0  0  0  0  2  0  0  0  0  0  0
  185.4490  178.4110  147.2940 C   0  0  0  0  0  0  0  0  0  0  0  0
  186.2080  177.2500  147.8520 C   0  0  0  0  0  1  0  0  0  0  0  0
  185.7930  179.5530  147.5640 O   0  0  0  0  0  0  0  0  0  0  0  0
  191.4200  175.0290  142.4540 C   0  0  0  0  0  2  0  0  0  0  0  0
  192.2230  172.3540  142.5880 O   0  0  0  0  0  1  0  0  0  0  0  0
  191.4020  171.6900  140.3840 C   0  0  2  0  0  3  0  0  0  0  0  0
  191.1520  174.1140  141.2620 C   0  0  2  0  0  3  0  0  0  0  0  0
  189.3560  173.1130  139.8080 C   0  0  0  0  0  2  0  0  0  0  0  0
  190.5190  172.2610  139.2680 C   0  0  0  0  0  2  0  0  0  0  0  0
  190.6330  170.6290  141.1630 C   0  0  0  0  0  1  0  0  0  0  0  0
  189.6620  173.8200  141.1330 C   0  0  0  0  0  2  0  0  0  0  0  0
  191.9820  172.8100  141.2810 C   0  0  1  0  0  3  0  0  0  0  0  0
  1  7  1  0  0  0  0
  1 19  1  1  0  0  0
  4  3  2  0  0  0  0
  5 14  1  6  0  0  0
  5 13  1  0  0  0  0
  8  3  1  0  0  0  0
  9  6  1  6  0  0  0
  9 10  1  0  0  0  0
 10  8  1  1  0  0  0
 11 18  1  0  0  0  0
 11 16  1  0  0  0  0
 12  1  1  0  0  0  0
 13  7  1  1  0  0  0
 13  6  1  0  0  0  0
 14 12  1  0  0  0  0
 15  4  1  0  0  0  0
 16 15  1  6  0  0  0
 16 10  1  0  0  0  0
 17  2  1  1  0  0  0
 17  5  1  0  0  0  0
 17 13  1  0  0  0  0
 18  2  1  6  0  0  0
 18  9  1  0  0  0  0
 19 20  1  0  0  0  0
 20 21  1  0  0  0  0
 21 23  2  0  0  0  0
 21 22  1  0  0  0  0
 24 11  1  0  0  0  0
 26 30  1  1  0  0  0
 26 32  1  0  0  0  0
 27 32  1  0  0  0  0
 27 24  1  1  0  0  0
 28 31  1  0  0  0  0
 29 28  1  0  0  0  0
 29 26  1  0  0  0  0
 31 27  1  0  0  0  0
 32 25  1  1  0  0  0
M  END
>  <MODEL>
6

>  <REMARK>
 VINA RESULT:      -7.1      3.537      7.547
  Name = 
  5 active torsions:
  status: ('A' for Active; 'I' for Inactive)
    1  A    between atoms: C_1  and  C_10
    2  A    between atoms: C_2  and  S_24
    3  A    between atoms: C_10  and  S_24
    4  A    between atoms: C_11  and  C_27
    5  A    between atoms: N_16  and  C_27
                            x       y       z     vdW  Elec       q    Type
                         _______ _______ _______ _____ _____    ______ ____

>  <TORSDO>
F 5

$$$$
=
 OpenBabel11052421283D

 32 37  0  0  1  0  0  0  0  0999 V2000
  186.3080  177.3780  144.3190 C   0  0  2  0  0  3  0  0  0  0  0  0
  190.1780  175.5060  142.2120 C   0  0  0  0  0  2  0  0  0  0  0  0
  191.4010  176.6150  147.9150 C   0  0  0  0  0  3  0  0  0  0  0  0
  191.1950  175.2790  147.9740 C   0  0  0  0  0  3  0  0  0  0  0  0
  188.1870  176.9830  142.0230 C   0  0  2  0  0  3  0  0  0  0  0  0
  190.0470  177.9140  143.5930 C   0  0  0  0  0  2  0  0  0  0  0  0
  187.7740  177.1680  144.6630 C   0  0  0  0  0  2  0  0  0  0  0  0
  191.5350  177.3600  146.5990 C   0  0  0  0  0  2  0  0  0  0  0  0
  191.1730  176.9880  144.0760 C   0  0  1  0  0  3  0  0  0  0  0  0
  190.9210  176.5260  145.4850 C   0  0  1  0  0  3  0  0  0  0  0  0
  191.2070  174.5450  144.2390 N   0  0  0  0  0  0  0  0  0  0  0  0
  185.9040  176.4800  143.1560 C   0  0  0  0  0  2  0  0  0  0  0  0
  188.7100  177.1780  143.4480 C   0  0  1  0  0  0  0  0  0  0  0  0
  186.6610  176.8550  141.8820 C   0  0  0  0  0  2  0  0  0  0  0  0
  190.9970  174.4280  146.7320 C   0  0  0  0  0  2  0  0  0  0  0  0
  191.5420  175.1650  145.5110 C   0  0  2  0  0  3  0  0  0  0  0  0
  188.7900  175.8020  142.7730 C   0  0  2  0  0  3  0  0  0  0  0  0
  191.2600  175.6600  143.2860 C   0  0  1  0  0  3  0  0  0  0  0  0
  185.9480  179.1360  143.9810 S   0  0  0  0  0  0  0  0  0  0  0  0
  184.4160  179.1060  144.9620 C   0  0  0  0  0  2  0  0  0  0  0  0
  184.6950  178.6610  146.3620 C   0  0  0  0  0  0  0  0  0  0  0  0
  185.7650  179.3360  147.1580 C   0  0  0  0  0  1  0  0  0  0  0  0
  184.0840  177.7150  146.8380 O   0  0  0  0  0  0  0  0  0  0  0  0
  192.3070  173.6580  143.8770 C   0  0  0  0  0  2  0  0  0  0  0  0
  194.0140  171.6370  144.7830 O   0  0  0  0  0  1  0  0  0  0  0  0
  195.7090  173.1020  145.7610 C   0  0  2  0  0  3  0  0  0  0  0  0
  193.5830  174.0430  144.6200 C   0  0  2  0  0  3  0  0  0  0  0  0
  195.7640  175.2900  144.4390 C   0  0  0  0  0  2  0  0  0  0  0  0
  196.0680  174.5920  145.7770 C   0  0  0  0  0  2  0  0  0  0  0  0
  196.6650  172.3470  144.8440 C   0  0  0  0  0  1  0  0  0  0  0  0
  194.5890  174.6780  143.6670 C   0  0  0  0  0  2  0  0  0  0  0  0
  194.2180  172.8770  145.4110 C   0  0  1  0  0  3  0  0  0  0  0  0
  1 19  1  6  0  0  0
  1  7  1  0  0  0  0
  3  4  2  0  0  0  0
  5 14  1  1  0  0  0
  5 17  1  0  0  0  0
  5 13  1  0  0  0  0
  8  3  1  0  0  0  0
  9  6  1  6  0  0  0
  9 10  1  0  0  0  0
 10 16  1  0  0  0  0
 10  8  1  1  0  0  0
 11 16  1  0  0  0  0
 12  1  1  0  0  0  0
 13  6  1  1  0  0  0
 13  7  1  0  0  0  0
 14 12  1  0  0  0  0
 15  4  1  0  0  0  0
 16 15  1  1  0  0  0
 17  2  1  6  0  0  0
 17 13  1  0  0  0  0
 18  2  1  6  0  0  0
 18  9  1  0  0  0  0
 18 11  1  0  0  0  0
 19 20  1  0  0  0  0
 20 21  1  0  0  0  0
 21 23  2  0  0  0  0
 21 22  1  0  0  0  0
 24 11  1  0  0  0  0
 26 30  1  6  0  0  0
 26 29  1  0  0  0  0
 27 24  1  6  0  0  0
 27 32  1  0  0  0  0
 28 29  1  0  0  0  0
 31 28  1  0  0  0  0
 31 27  1  0  0  0  0
 32 25  1  6  0  0  0
 32 26  1  0  0  0  0
M  END
>  <MODEL>
7

>  <REMARK>
 VINA RESULT:      -7.0      2.661      7.957
  Name = 
  5 active torsions:
  status: ('A' for Active; 'I' for Inactive)
    1  A    between atoms: C_1  and  C_10
    2  A    between atoms: C_2  and  S_24
    3  A    between atoms: C_10  and  S_24
    4  A    between atoms: C_11  and  C_27
    5  A    between atoms: N_16  and  C_27
                            x       y       z     vdW  Elec       q    Type
                         _______ _______ _______ _____ _____    ______ ____

>  <TORSDO>
F 5

$$$$
=
 OpenBabel11052421283D

 32 37  0  0  1  0  0  0  0  0999 V2000
  188.1420  177.0690  145.6560 C   0  0  2  0  0  3  0  0  0  0  0  0
  192.2800  174.6620  145.7100 C   0  0  0  0  0  2  0  0  0  0  0  0
  188.9400  172.7060  141.2080 C   0  0  0  0  0  3  0  0  0  0  0  0
  189.7970  173.5080  140.5350 C   0  0  0  0  0  3  0  0  0  0  0  0
  190.4560  175.7410  147.0110 C   0  0  2  0  0  3  0  0  0  0  0  0
  189.7260  173.5670  145.7730 C   0  0  0  0  0  2  0  0  0  0  0  0
  188.7340  175.8520  144.9620 C   0  0  0  0  0  2  0  0  0  0  0  0
  189.1570  172.3240  142.6610 C   0  0  0  0  0  2  0  0  0  0  0  0
  190.6240  172.9760  144.6760 C   0  0  1  0  0  3  0  0  0  0  0  0
  190.1000  173.3250  143.3100 C   0  0  1  0  0  3  0  0  0  0  0  0
  192.3350  174.0750  143.3140 N   0  0  0  0  0  0  0  0  0  0  0  0
  189.2480  177.9180  146.2710 C   0  0  0  0  0  2  0  0  0  0  0  0
  189.7740  175.0990  145.8020 C   0  0  1  0  0  0  0  0  0  0  0  0
  189.9760  177.1550  147.3770 C   0  0  0  0  0  2  0  0  0  0  0  0
  190.9990  174.1580  141.1970 C   0  0  0  0  0  2  0  0  0  0  0  0
  191.3450  173.4110  142.4820 C   0  0  2  0  0  3  0  0  0  0  0  0
  191.1740  175.7130  145.6680 C   0  0  2  0  0  3  0  0  0  0  0  0
  192.0530  173.5680  144.6620 C   0  0  1  0  0  3  0  0  0  0  0  0
  186.8860  176.5870  146.8900 S   0  0  0  0  0  0  0  0  0  0  0  0
  185.5110  177.1960  145.8640 C   0  0  0  0  0  2  0  0  0  0  0  0
  185.4970  178.6900  145.8350 C   0  0  0  0  0  0  0  0  0  0  0  0
  185.4420  179.4090  144.5250 C   0  0  0  0  0  1  0  0  0  0  0  0
  185.5800  179.3250  146.8770 O   0  0  0  0  0  0  0  0  0  0  0  0
  193.6450  173.5430  142.9530 C   0  0  0  0  0  2  0  0  0  0  0  0
  195.5900  174.7920  144.5270 O   0  0  0  0  0  1  0  0  0  0  0  0
  196.4690  176.2690  142.7890 C   0  0  2  0  0  3  0  0  0  0  0  0
  194.5190  174.6280  142.3290 C   0  0  2  0  0  3  0  0  0  0  0  0
  196.2020  175.1180  140.5210 C   0  0  0  0  0  2  0  0  0  0  0  0
  196.3520  176.4530  141.2720 C   0  0  0  0  0  2  0  0  0  0  0  0
  197.8050  175.6190  143.1320 C   0  0  0  0  0  1  0  0  0  0  0  0
  195.4960  174.0230  141.3290 C   0  0  0  0  0  2  0  0  0  0  0  0
  195.2510  175.5090  143.3670 C   0  0  1  0  0  3  0  0  0  0  0  0
  1 12  1  0  0  0  0
  1 19  1  1  0  0  0
  3  8  1  0  0  0  0
  4 15  1  0  0  0  0
  4  3  2  0  0  0  0
  5 14  1  6  0  0  0
  6 13  1  0  0  0  0
  7  1  1  0  0  0  0
  9  6  1  1  0  0  0
 10  8  1  6  0  0  0
 10  9  1  0  0  0  0
 11 18  1  0  0  0  0
 12 14  1  0  0  0  0
 13  7  1  6  0  0  0
 13  5  1  0  0  0  0
 16 15  1  6  0  0  0
 16 10  1  0  0  0  0
 16 11  1  0  0  0  0
 17  2  1  1  0  0  0
 17 13  1  0  0  0  0
 17  5  1  0  0  0  0
 18  9  1  0  0  0  0
 18  2  1  1  0  0  0
 20 19  1  0  0  0  0
 21 20  1  0  0  0  0
 21 23  2  0  0  0  0
 22 21  1  0  0  0  0
 24 11  1  0  0  0  0
 26 30  1  6  0  0  0
 26 32  1  0  0  0  0
 27 24  1  1  0  0  0
 27 32  1  0  0  0  0
 28 29  1  0  0  0  0
 28 31  1  0  0  0  0
 29 26  1  0  0  0  0
 31 27  1  0  0  0  0
 32 25  1  1  0  0  0
M  END
>  <MODEL>
8

>  <REMARK>
 VINA RESULT:      -7.0      2.670      8.291
  Name = 
  5 active torsions:
  status: ('A' for Active; 'I' for Inactive)
    1  A    between atoms: C_1  and  C_10
    2  A    between atoms: C_2  and  S_24
    3  A    between atoms: C_10  and  S_24
    4  A    between atoms: C_11  and  C_27
    5  A    between atoms: N_16  and  C_27
                            x       y       z     vdW  Elec       q    Type
                         _______ _______ _______ _____ _____    ______ ____

>  <TORSDO>
F 5

$$$$
=
 OpenBabel11052421283D

 32 37  0  0  1  0  0  0  0  0999 V2000
  193.1100  173.3800  140.4630 C   0  0  2  0  0  3  0  0  0  0  0  0
  188.3690  173.7490  141.0190 C   0  0  0  0  0  2  0  0  0  0  0  0
  191.0770  177.4030  144.8370 C   0  0  0  0  0  3  0  0  0  0  0  0
  190.7010  178.2900  143.8870 C   0  0  0  0  0  3  0  0  0  0  0  0
  190.3240  172.2890  140.5390 C   0  0  2  0  0  3  0  0  0  0  0  0
  190.2270  173.1480  142.9980 C   0  0  0  0  0  2  0  0  0  0  0  0
  192.1500  174.0260  141.4480 C   0  0  0  0  0  2  0  0  0  0  0  0
  190.5680  175.9730  144.8590 C   0  0  0  0  0  2  0  0  0  0  0  0
  189.2900  174.3090  143.3640 C   0  0  1  0  0  3  0  0  0  0  0  0
  190.0540  175.6000  143.4770 C   0  0  1  0  0  3  0  0  0  0  0  0
  188.3360  176.0450  141.9250 N   0  0  0  0  0  0  0  0  0  0  0  0
  192.3900  173.0500  139.1600 C   0  0  0  0  0  2  0  0  0  0  0  0
  190.8090  173.2940  141.5870 C   0  0  1  0  0  0  0  0  0  0  0  0
  191.2990  172.0040  139.3850 C   0  0  0  0  0  2  0  0  0  0  0  0
  189.8080  177.9080  142.7200 C   0  0  0  0  0  2  0  0  0  0  0  0
  189.0500  176.6250  143.0500 C   0  0  2  0  0  3  0  0  0  0  0  0
  189.8070  173.7210  140.5060 C   0  0  2  0  0  3  0  0  0  0  0  0
  188.2390  174.6220  142.2720 C   0  0  1  0  0  3  0  0  0  0  0  0
  193.9180  171.9100  141.1860 S   0  0  0  0  0  0  0  0  0  0  0  0
  194.4010  172.8060  142.6950 C   0  0  0  0  0  2  0  0  0  0  0  0
  193.8290  172.1430  143.9070 C   0  0  0  0  0  0  0  0  0  0  0  0
  193.3460  172.9750  145.0520 C   0  0  0  0  0  1  0  0  0  0  0  0
  193.8040  170.9230  143.9840 O   0  0  0  0  0  0  0  0  0  0  0  0
  186.9710  176.5570  141.9560 C   0  0  0  0  0  2  0  0  0  0  0  0
  185.1340  178.6660  141.9290 O   0  0  0  0  0  1  0  0  0  0  0  0
  185.3270  179.2530  144.2940 C   0  0  2  0  0  3  0  0  0  0  0  0
  186.7100  177.3300  143.2460 C   0  0  2  0  0  3  0  0  0  0  0  0
  185.8910  177.1400  145.6200 C   0  0  0  0  0  2  0  0  0  0  0  0
  185.9470  178.6780  145.5730 C   0  0  0  0  0  2  0  0  0  0  0  0
  183.8170  179.0410  144.3080 C   0  0  0  0  0  1  0  0  0  0  0  0
  185.9410  176.4700  144.2420 C   0  0  0  0  0  2  0  0  0  0  0  0
  186.0130  178.6920  143.0250 C   0  0  1  0  0  3  0  0  0  0  0  0
  1 19  1  1  0  0  0
  1  7  1  0  0  0  0
  3  8  1  0  0  0  0
  4  3  2  0  0  0  0
  5 14  1  6  0  0  0
  5 13  1  0  0  0  0
  9  6  1  6  0  0  0
  9 10  1  0  0  0  0
 10  8  1  1  0  0  0
 11 24  1  0  0  0  0
 11 18  1  0  0  0  0
 11 16  1  0  0  0  0
 12 14  1  0  0  0  0
 12  1  1  0  0  0  0
 13  7  1  6  0  0  0
 13  6  1  0  0  0  0
 15  4  1  0  0  0  0
 16 15  1  6  0  0  0
 16 10  1  0  0  0  0
 17  5  1  0  0  0  0
 17  2  1  1  0  0  0
 17 13  1  0  0  0  0
 18  2  1  6  0  0  0
 18  9  1  0  0  0  0
 19 20  1  0  0  0  0
 20 21  1  0  0  0  0
 21 23  2  0  0  0  0
 21 22  1  0  0  0  0
 26 30  1  6  0  0  0
 26 29  1  0  0  0  0
 27 24  1  6  0  0  0
 27 31  1  0  0  0  0
 29 28  1  0  0  0  0
 31 28  1  0  0  0  0
 32 25  1  6  0  0  0
 32 27  1  0  0  0  0
 32 26  1  0  0  0  0
M  END
>  <MODEL>
9

>  <REMARK>
 VINA RESULT:      -7.0      2.375      3.113
  Name = 
  5 active torsions:
  status: ('A' for Active; 'I' for Inactive)
    1  A    between atoms: C_1  and  C_10
    2  A    between atoms: C_2  and  S_24
    3  A    between atoms: C_10  and  S_24
    4  A    between atoms: C_11  and  C_27
    5  A    between atoms: N_16  and  C_27
                            x       y       z     vdW  Elec       q    Type
                         _______ _______ _______ _____ _____    ______ ____

>  <TORSDO>
F 5

$$$$
