=
 OpenBabel11052421243D

 32 38  0  0  0  0  0  0  0  0999 V2000
  194.8100  173.3220  144.9580 N   0  0  0  0  0  0  0  0  0  0  0  0
  190.4070  175.5110  143.5720 C   0  0  0  0  0  0  0  0  0  0  0  0
  188.7590  173.9860  139.3920 C   0  0  0  0  0  0  0  0  0  0  0  0
  188.2710  173.5250  138.1390 N   0  0  0  0  0  1  0  0  0  0  0  0
  188.6660  177.0760  144.5110 C   0  0  0  0  0  0  0  0  0  0  0  0
  187.4310  177.6920  144.3230 C   0  0  0  0  0  0  0  0  0  0  0  0
  192.4970  174.9840  144.7080 C   0  0  0  0  0  0  0  0  0  0  0  0
  192.0090  173.9900  142.5930 N   0  0  0  0  0  0  0  0  0  0  0  0
  185.4930  178.2750  143.4210 C   0  0  0  0  0  0  0  0  0  0  0  0
  194.1740  173.4200  143.6370 C   0  0  0  0  0  2  0  0  0  0  0  0
  190.2370  173.5200  140.0610 S   0  0  0  0  0  0  0  0  0  0  0  0
  190.8180  174.6450  142.5240 C   0  0  0  0  0  0  0  0  0  0  0  0
  189.9870  174.4770  141.4230 C   0  0  0  0  0  0  0  0  0  0  0  0
  188.3240  175.9840  142.3240 C   0  0  0  0  0  0  0  0  0  0  0  0
  185.6240  178.8900  144.7030 N   0  0  0  0  0  0  0  0  0  0  0  0
  194.7850  174.6170  145.6530 C   0  0  0  0  0  2  0  0  0  0  0  0
  192.8440  174.1240  143.6560 C   0  0  0  0  0  0  0  0  0  0  0  0
  186.7460  178.5660  145.2190 N   0  0  0  0  0  0  0  0  0  0  0  0
  193.3590  175.1110  145.9230 C   0  0  0  0  0  2  0  0  0  0  0  0
  188.0750  174.8510  140.1740 N   0  0  0  0  0  0  0  0  0  0  0  0
  188.7680  175.1240  141.3130 C   0  0  0  0  0  0  0  0  0  0  0  0
  187.0800  176.6290  142.1890 C   0  0  0  0  0  3  0  0  0  0  0  0
  191.2760  175.6560  144.6620 C   0  0  0  0  0  3  0  0  0  0  0  0
  189.3890  177.3420  145.7110 N   0  0  0  0  0  1  0  0  0  0  0  0
  184.0820  178.1510  142.6050 S   0  0  0  0  0  0  0  0  0  0  0  0
  189.1490  176.1950  143.4900 C   0  0  0  0  0  0  0  0  0  0  0  0
  186.6790  177.4760  143.2080 C   0  0  0  0  0  0  0  0  0  0  0  0
  194.1430  172.2900  145.7480 C   0  0  0  0  0  2  0  0  0  0  0  0
  194.9270  170.9940  145.6730 C   0  0  0  0  0  2  0  0  0  0  0  0
  196.2840  171.2230  146.1350 N   0  0  0  0  0  0  0  0  0  0  0  0
  196.8350  169.9040  146.4820 C   0  0  0  0  0  2  0  0  0  0  0  0
  197.1690  170.5130  145.2010 C   0  0  0  0  0  2  0  0  0  0  0  0
  1 16  1  0  0  0  0
  1 28  1  0  0  0  0
  2 23  1  0  0  0  0
  3 11  1  0  0  0  0
  3 20  2  0  0  0  0
  4  3  1  0  0  0  0
  5 24  1  0  0  0  0
  6  5  1  0  0  0  0
  6 18  1  0  0  0  0
  7 19  1  0  0  0  0
  8 17  2  0  0  0  0
  9 15  1  0  0  0  0
 10 17  1  0  0  0  0
 10  1  1  0  0  0  0
 11 13  1  0  0  0  0
 12  8  1  0  0  0  0
 12  2  2  0  0  0  0
 13 12  1  0  0  0  0
 14 26  1  0  0  0  0
 15 18  2  0  0  0  0
 16 19  1  0  0  0  0
 17  7  1  0  0  0  0
 20 21  1  0  0  0  0
 21 13  2  0  0  0  0
 21 14  1  0  0  0  0
 22 14  2  0  0  0  0
 22 27  1  0  0  0  0
 23  7  2  0  0  0  0
 25  9  2  0  0  0  0
 26  2  1  0  0  0  0
 26  5  2  0  0  0  0
 27  9  1  0  0  0  0
 27  6  2  0  0  0  0
 29 28  1  0  0  0  0
 29 30  1  0  0  0  0
 30 31  1  0  0  0  0
 32 30  1  0  0  0  0
 32 31  1  0  0  0  0
M  END
>  <MODEL>
1

>  <REMARK>
 VINA RESULT:      -7.3      0.000      0.000
  Name = 
  3 active torsions:
  status: ('A' for Active; 'I' for Inactive)
    1  A    between atoms: N_1  and  C_10
    2  A    between atoms: N_2  and  C_24
    3  A    between atoms: C_10  and  C_24
                            x       y       z     vdW  Elec       q    Type
                         _______ _______ _______ _____ _____    ______ ____

>  <TORSDO>
F 3

$$$$
=
 OpenBabel11052421243D

 32 38  0  0  0  0  0  0  0  0999 V2000
  193.9820  172.5660  141.4480 N   0  0  0  0  0  0  0  0  0  0  0  0
  190.1330  175.1390  143.6050 C   0  0  0  0  0  0  0  0  0  0  0  0
  191.2040  176.9490  147.8580 C   0  0  0  0  0  0  0  0  0  0  0  0
  191.5310  177.4880  149.1330 N   0  0  0  0  0  1  0  0  0  0  0  0
  187.8080  175.9400  143.0410 C   0  0  0  0  0  0  0  0  0  0  0  0
  186.7000  176.6780  143.4480 C   0  0  0  0  0  0  0  0  0  0  0  0
  191.4540  173.7040  142.1460 C   0  0  0  0  0  0  0  0  0  0  0  0
  192.3560  174.4330  144.2320 N   0  0  0  0  0  0  0  0  0  0  0  0
  185.3730  177.9760  144.6580 C   0  0  0  0  0  0  0  0  0  0  0  0
  193.7640  172.9460  142.8500 C   0  0  0  0  0  2  0  0  0  0  0  0
  192.2370  175.9690  146.9530 S   0  0  0  0  0  0  0  0  0  0  0  0
  191.2210  175.1250  144.5180 C   0  0  0  0  0  0  0  0  0  0  0  0
  191.1070  175.8270  145.7120 C   0  0  0  0  0  0  0  0  0  0  0  0
  188.8760  176.5860  145.1710 C   0  0  0  0  0  0  0  0  0  0  0  0
  184.7350  177.6690  143.4180 N   0  0  0  0  0  0  0  0  0  0  0  0
  192.7600  172.0010  140.8580 C   0  0  0  0  0  2  0  0  0  0  0  0
  192.5060  173.7420  143.0730 C   0  0  0  0  0  0  0  0  0  0  0  0
  185.4920  176.9110  142.7250 N   0  0  0  0  0  0  0  0  0  0  0  0
  191.6030  173.0060  140.8320 C   0  0  0  0  0  2  0  0  0  0  0  0
  190.0190  177.1750  147.2470 N   0  0  0  0  0  0  0  0  0  0  0  0
  189.9690  176.5440  146.0420 C   0  0  0  0  0  0  0  0  0  0  0  0
  187.7310  177.3230  145.5280 C   0  0  0  0  0  3  0  0  0  0  0  0
  190.2860  174.4160  142.4150 C   0  0  0  0  0  3  0  0  0  0  0  0
  187.7710  175.2910  141.7710 N   0  0  0  0  0  1  0  0  0  0  0  0
  184.9010  179.1800  145.6580 S   0  0  0  0  0  0  0  0  0  0  0  0
  188.9400  175.8730  143.9160 C   0  0  0  0  0  0  0  0  0  0  0  0
  186.6680  177.3350  144.6410 C   0  0  0  0  0  0  0  0  0  0  0  0
  194.4420  173.7270  140.6900 C   0  0  0  0  0  2  0  0  0  0  0  0
  195.5430  174.4380  141.4520 C   0  0  0  0  0  2  0  0  0  0  0  0
  195.1660  175.8230  141.6660 N   0  0  0  0  0  0  0  0  0  0  0  0
  195.8890  176.2730  142.8660 C   0  0  0  0  0  2  0  0  0  0  0  0
  196.3980  176.6160  141.5450 C   0  0  0  0  0  2  0  0  0  0  0  0
  1 10  1  0  0  0  0
  2 26  2  0  0  0  0
  2 12  1  0  0  0  0
  3  4  1  0  0  0  0
  5  6  2  0  0  0  0
  5 26  1  0  0  0  0
  6 27  1  0  0  0  0
  7 23  2  0  0  0  0
  7 17  1  0  0  0  0
  8 12  1  0  0  0  0
  9 25  2  0  0  0  0
 10 17  1  0  0  0  0
 11  3  1  0  0  0  0
 12 13  2  0  0  0  0
 13 21  1  0  0  0  0
 13 11  1  0  0  0  0
 14 22  1  0  0  0  0
 14 21  2  0  0  0  0
 15  9  1  0  0  0  0
 16  1  1  0  0  0  0
 17  8  2  0  0  0  0
 18 15  2  0  0  0  0
 18  6  1  0  0  0  0
 19 16  1  0  0  0  0
 19  7  1  0  0  0  0
 20  3  2  0  0  0  0
 21 20  1  0  0  0  0
 23  2  1  0  0  0  0
 24  5  1  0  0  0  0
 26 14  1  0  0  0  0
 27  9  1  0  0  0  0
 27 22  2  0  0  0  0
 28  1  1  0  0  0  0
 28 29  1  0  0  0  0
 29 30  1  0  0  0  0
 30 31  1  0  0  0  0
 32 30  1  0  0  0  0
 32 31  1  0  0  0  0
M  END
>  <MODEL>
2

>  <REMARK>
 VINA RESULT:      -7.2      2.873      4.968
  Name = 
  3 active torsions:
  status: ('A' for Active; 'I' for Inactive)
    1  A    between atoms: N_1  and  C_10
    2  A    between atoms: N_2  and  C_24
    3  A    between atoms: C_10  and  C_24
                            x       y       z     vdW  Elec       q    Type
                         _______ _______ _______ _____ _____    ______ ____

>  <TORSDO>
F 3

$$$$
=
 OpenBabel11052421243D

 32 38  0  0  0  0  0  0  0  0999 V2000
  196.0990  173.3440  144.6790 N   0  0  0  0  0  0  0  0  0  0  0  0
  191.4130  175.3750  144.5730 C   0  0  0  0  0  0  0  0  0  0  0  0
  188.9690  174.3130  140.6480 C   0  0  0  0  0  0  0  0  0  0  0  0
  188.2420  173.9910  139.4690 N   0  0  0  0  0  1  0  0  0  0  0  0
  189.8510  176.6690  146.0720 C   0  0  0  0  0  0  0  0  0  0  0  0
  188.5800  177.2140  146.2370 C   0  0  0  0  0  0  0  0  0  0  0  0
  193.7190  174.8530  145.1610 C   0  0  0  0  0  0  0  0  0  0  0  0
  192.8290  174.1200  143.0710 N   0  0  0  0  0  0  0  0  0  0  0  0
  186.4700  177.7720  145.8520 C   0  0  0  0  0  0  0  0  0  0  0  0
  195.1900  173.5720  143.5470 C   0  0  0  0  0  2  0  0  0  0  0  0
  190.5740  173.8690  140.9190 S   0  0  0  0  0  0  0  0  0  0  0  0
  191.6250  174.6900  143.3470 C   0  0  0  0  0  0  0  0  0  0  0  0
  190.5840  174.6130  142.4300 C   0  0  0  0  0  0  0  0  0  0  0  0
  189.0920  175.8600  143.8670 C   0  0  0  0  0  0  0  0  0  0  0  0
  186.8490  178.2160  147.1560 N   0  0  0  0  0  0  0  0  0  0  0  0
  196.1710  174.5280  145.5470 C   0  0  0  0  0  2  0  0  0  0  0  0
  193.8670  174.1700  143.9450 C   0  0  0  0  0  0  0  0  0  0  0  0
  188.0680  177.9080  147.3740 N   0  0  0  0  0  0  0  0  0  0  0  0
  194.8170  174.8770  146.1760 C   0  0  0  0  0  2  0  0  0  0  0  0
  188.4340  175.0130  141.6730 N   0  0  0  0  0  0  0  0  0  0  0  0
  189.3430  175.1790  142.6710 C   0  0  0  0  0  0  0  0  0  0  0  0
  187.8220  176.4260  144.0900 C   0  0  0  0  0  3  0  0  0  0  0  0
  192.4900  175.4340  145.4680 C   0  0  0  0  0  3  0  0  0  0  0  0
  190.8040  176.8230  147.1220 N   0  0  0  0  0  1  0  0  0  0  0  0
  184.9240  177.6570  145.3370 S   0  0  0  0  0  0  0  0  0  0  0  0
  190.1400  175.9710  144.8550 C   0  0  0  0  0  0  0  0  0  0  0  0
  187.6150  177.0970  145.2830 C   0  0  0  0  0  0  0  0  0  0  0  0
  195.6620  172.1690  145.4290 C   0  0  0  0  0  2  0  0  0  0  0  0
  196.8630  171.3260  145.8160 C   0  0  0  0  0  2  0  0  0  0  0  0
  196.5500  169.9230  145.6210 N   0  0  0  0  0  0  0  0  0  0  0  0
  197.6270  169.1610  146.2730 C   0  0  0  0  0  2  0  0  0  0  0  0
  196.3570  169.3490  146.9610 C   0  0  0  0  0  2  0  0  0  0  0  0
  1 28  1  0  0  0  0
  1 16  1  0  0  0  0
  2 26  1  0  0  0  0
  2 23  1  0  0  0  0
  3 11  1  0  0  0  0
  3 20  2  0  0  0  0
  4  3  1  0  0  0  0
  5  6  1  0  0  0  0
  5 24  1  0  0  0  0
  6 18  1  0  0  0  0
  7 23  2  0  0  0  0
  7 19  1  0  0  0  0
  8 12  1  0  0  0  0
  8 17  2  0  0  0  0
  9 15  1  0  0  0  0
 10 17  1  0  0  0  0
 10  1  1  0  0  0  0
 11 13  1  0  0  0  0
 12  2  2  0  0  0  0
 13 21  2  0  0  0  0
 13 12  1  0  0  0  0
 14 22  2  0  0  0  0
 14 26  1  0  0  0  0
 15 18  2  0  0  0  0
 16 19  1  0  0  0  0
 17  7  1  0  0  0  0
 20 21  1  0  0  0  0
 21 14  1  0  0  0  0
 22 27  1  0  0  0  0
 25  9  2  0  0  0  0
 26  5  2  0  0  0  0
 27  9  1  0  0  0  0
 27  6  2  0  0  0  0
 28 29  1  0  0  0  0
 30 29  1  0  0  0  0
 30 31  1  0  0  0  0
 30 32  1  0  0  0  0
 31 32  1  0  0  0  0
M  END
>  <MODEL>
3

>  <REMARK>
 VINA RESULT:      -7.2      1.469      1.775
  Name = 
  3 active torsions:
  status: ('A' for Active; 'I' for Inactive)
    1  A    between atoms: N_1  and  C_10
    2  A    between atoms: N_2  and  C_24
    3  A    between atoms: C_10  and  C_24
                            x       y       z     vdW  Elec       q    Type
                         _______ _______ _______ _____ _____    ______ ____

>  <TORSDO>
F 3

$$$$
=
 OpenBabel11052421243D

 32 38  0  0  0  0  0  0  0  0999 V2000
  186.8420  178.2310  143.4930 N   0  0  0  0  0  0  0  0  0  0  0  0
  189.3810  174.1650  141.7270 C   0  0  0  0  0  0  0  0  0  0  0  0
  192.8320  172.6740  144.6210 C   0  0  0  0  0  0  0  0  0  0  0  0
  193.8650  172.2340  145.4930 N   0  0  0  0  0  1  0  0  0  0  0  0
  189.2740  172.5190  139.8180 C   0  0  0  0  0  0  0  0  0  0  0  0
  189.8020  171.3650  139.2440 C   0  0  0  0  0  0  0  0  0  0  0  0
  187.9260  176.1100  141.9100 C   0  0  0  0  0  0  0  0  0  0  0  0
  189.5540  175.6780  143.6020 N   0  0  0  0  0  0  0  0  0  0  0  0
  191.0470  169.5590  138.9290 C   0  0  0  0  0  0  0  0  0  0  0  0
  188.1610  177.7010  143.8650 C   0  0  0  0  0  2  0  0  0  0  0  0
  191.8930  174.0500  144.8890 S   0  0  0  0  0  0  0  0  0  0  0  0
  189.9820  174.5630  142.9500 C   0  0  0  0  0  0  0  0  0  0  0  0
  191.0190  173.7990  143.4720 C   0  0  0  0  0  0  0  0  0  0  0  0
  190.9180  172.2280  141.6360 C   0  0  0  0  0  0  0  0  0  0  0  0
  190.0810  169.6590  137.8820 N   0  0  0  0  0  0  0  0  0  0  0  0
  186.6870  178.2810  142.0320 C   0  0  0  0  0  2  0  0  0  0  0  0
  188.5400  176.4460  143.1260 C   0  0  0  0  0  0  0  0  0  0  0  0
  189.3720  170.7060  138.0540 N   0  0  0  0  0  0  0  0  0  0  0  0
  186.7660  176.8940  141.3850 C   0  0  0  0  0  2  0  0  0  0  0  0
  192.5030  172.0230  143.4830 N   0  0  0  0  0  0  0  0  0  0  0  0
  191.4840  172.6570  142.8410 C   0  0  0  0  0  0  0  0  0  0  0  0
  191.4080  171.0640  141.0150 C   0  0  0  0  0  3  0  0  0  0  0  0
  188.3420  174.9650  141.2330 C   0  0  0  0  0  3  0  0  0  0  0  0
  188.1940  173.1790  139.1610 N   0  0  0  0  0  1  0  0  0  0  0  0
  191.8950  168.2040  139.2660 S   0  0  0  0  0  0  0  0  0  0  0  0
  189.8380  172.9860  141.0490 C   0  0  0  0  0  0  0  0  0  0  0  0
  190.8260  170.6760  139.8200 C   0  0  0  0  0  0  0  0  0  0  0  0
  185.7950  177.4150  144.1030 C   0  0  0  0  0  2  0  0  0  0  0  0
  186.0190  177.3230  145.6000 C   0  0  0  0  0  2  0  0  0  0  0  0
  184.7380  177.3470  146.2830 N   0  0  0  0  0  0  0  0  0  0  0  0
  184.8170  178.4260  147.2800 C   0  0  0  0  0  2  0  0  0  0  0  0
  184.1440  178.6640  146.0100 C   0  0  0  0  0  2  0  0  0  0  0  0
  1 10  1  0  0  0  0
  1 28  1  0  0  0  0
  2 12  1  0  0  0  0
  3 11  1  0  0  0  0
  3  4  1  0  0  0  0
  5 26  1  0  0  0  0
  6  5  2  0  0  0  0
  6 27  1  0  0  0  0
  7 17  1  0  0  0  0
  9 25  2  0  0  0  0
  9 27  1  0  0  0  0
 12 13  2  0  0  0  0
 12  8  1  0  0  0  0
 13 11  1  0  0  0  0
 14 21  2  0  0  0  0
 15 18  2  0  0  0  0
 15  9  1  0  0  0  0
 16  1  1  0  0  0  0
 17  8  2  0  0  0  0
 17 10  1  0  0  0  0
 18  6  1  0  0  0  0
 19  7  1  0  0  0  0
 19 16  1  0  0  0  0
 20  3  2  0  0  0  0
 21 13  1  0  0  0  0
 21 20  1  0  0  0  0
 22 14  1  0  0  0  0
 23  2  1  0  0  0  0
 23  7  2  0  0  0  0
 24  5  1  0  0  0  0
 26 14  1  0  0  0  0
 26  2  2  0  0  0  0
 27 22  2  0  0  0  0
 28 29  1  0  0  0  0
 29 30  1  0  0  0  0
 30 31  1  0  0  0  0
 32 30  1  0  0  0  0
 32 31  1  0  0  0  0
M  END
>  <MODEL>
4

>  <REMARK>
 VINA RESULT:      -7.2      2.796      8.603
  Name = 
  3 active torsions:
  status: ('A' for Active; 'I' for Inactive)
    1  A    between atoms: N_1  and  C_10
    2  A    between atoms: N_2  and  C_24
    3  A    between atoms: C_10  and  C_24
                            x       y       z     vdW  Elec       q    Type
                         _______ _______ _______ _____ _____    ______ ____

>  <TORSDO>
F 3

$$$$
=
 OpenBabel11052421243D

 32 38  0  0  0  0  0  0  0  0999 V2000
  196.0980  173.3390  144.6280 N   0  0  0  0  0  0  0  0  0  0  0  0
  191.4110  175.3670  144.5510 C   0  0  0  0  0  0  0  0  0  0  0  0
  188.9450  174.3090  140.6380 C   0  0  0  0  0  0  0  0  0  0  0  0
  188.2120  173.9890  139.4620 N   0  0  0  0  0  1  0  0  0  0  0  0
  189.8560  176.6580  146.0610 C   0  0  0  0  0  0  0  0  0  0  0  0
  188.5850  177.2030  146.2330 C   0  0  0  0  0  0  0  0  0  0  0  0
  193.7200  174.8460  145.1250 C   0  0  0  0  0  0  0  0  0  0  0  0
  192.8190  174.1160  143.0390 N   0  0  0  0  0  0  0  0  0  0  0  0
  186.4730  177.7590  145.8610 C   0  0  0  0  0  0  0  0  0  0  0  0
  195.1830  173.5690  143.5020 C   0  0  0  0  0  2  0  0  0  0  0  0
  190.5520  173.8660  140.9000 S   0  0  0  0  0  0  0  0  0  0  0  0
  191.6160  174.6840  143.3230 C   0  0  0  0  0  0  0  0  0  0  0  0
  190.5690  174.6080  142.4110 C   0  0  0  0  0  0  0  0  0  0  0  0
  189.0850  175.8520  143.8590 C   0  0  0  0  0  0  0  0  0  0  0  0
  186.8590  178.2020  147.1630 N   0  0  0  0  0  0  0  0  0  0  0  0
  196.1740  174.5220  145.4970 C   0  0  0  0  0  2  0  0  0  0  0  0
  193.8610  174.1640  143.9080 C   0  0  0  0  0  0  0  0  0  0  0  0
  188.0800  177.8940  147.3740 N   0  0  0  0  0  0  0  0  0  0  0  0
  194.8230  174.8690  146.1340 C   0  0  0  0  0  2  0  0  0  0  0  0
  188.4150  175.0080  141.6670 N   0  0  0  0  0  0  0  0  0  0  0  0
  189.3300  175.1730  142.6610 C   0  0  0  0  0  0  0  0  0  0  0  0
  187.8160  176.4170  144.0890 C   0  0  0  0  0  3  0  0  0  0  0  0
  192.4920  175.4260  145.4400 C   0  0  0  0  0  3  0  0  0  0  0  0
  190.8150  176.8110  147.1060 N   0  0  0  0  0  1  0  0  0  0  0  0
  184.9240  177.6450  145.3540 S   0  0  0  0  0  0  0  0  0  0  0  0
  190.1380  175.9630  144.8410 C   0  0  0  0  0  0  0  0  0  0  0  0
  187.6150  177.0860  145.2850 C   0  0  0  0  0  0  0  0  0  0  0  0
  195.6660  172.1630  145.3790 C   0  0  0  0  0  2  0  0  0  0  0  0
  195.0870  171.1290  144.4320 C   0  0  0  0  0  2  0  0  0  0  0  0
  193.8380  170.6240  144.9720 N   0  0  0  0  0  0  0  0  0  0  0  0
  192.9080  170.5110  143.8380 C   0  0  0  0  0  2  0  0  0  0  0  0
  193.5980  169.3250  144.3270 C   0  0  0  0  0  2  0  0  0  0  0  0
  1 28  1  0  0  0  0
  1 16  1  0  0  0  0
  2 26  1  0  0  0  0
  2 23  1  0  0  0  0
  3 11  1  0  0  0  0
  3 20  2  0  0  0  0
  4  3  1  0  0  0  0
  5  6  1  0  0  0  0
  5 24  1  0  0  0  0
  6 18  1  0  0  0  0
  7 23  2  0  0  0  0
  7 19  1  0  0  0  0
  8 12  1  0  0  0  0
  8 17  2  0  0  0  0
  9 15  1  0  0  0  0
 10 17  1  0  0  0  0
 10  1  1  0  0  0  0
 11 13  1  0  0  0  0
 12  2  2  0  0  0  0
 13 21  2  0  0  0  0
 13 12  1  0  0  0  0
 14 22  2  0  0  0  0
 14 26  1  0  0  0  0
 15 18  2  0  0  0  0
 16 19  1  0  0  0  0
 17  7  1  0  0  0  0
 20 21  1  0  0  0  0
 21 14  1  0  0  0  0
 22 27  1  0  0  0  0
 25  9  2  0  0  0  0
 26  5  2  0  0  0  0
 27  9  1  0  0  0  0
 27  6  2  0  0  0  0
 29 30  1  0  0  0  0
 29 28  1  0  0  0  0
 31 32  1  0  0  0  0
 31 30  1  0  0  0  0
 32 30  1  0  0  0  0
M  END
>  <MODEL>
5

>  <REMARK>
 VINA RESULT:      -6.9      1.623      2.057
  Name = 
  3 active torsions:
  status: ('A' for Active; 'I' for Inactive)
    1  A    between atoms: N_1  and  C_10
    2  A    between atoms: N_2  and  C_24
    3  A    between atoms: C_10  and  C_24
                            x       y       z     vdW  Elec       q    Type
                         _______ _______ _______ _____ _____    ______ ____

>  <TORSDO>
F 3

$$$$
=
 OpenBabel11052421243D

 32 38  0  0  0  0  0  0  0  0999 V2000
  185.8860  177.1490  144.8550 N   0  0  0  0  0  0  0  0  0  0  0  0
  190.5670  175.7470  143.3670 C   0  0  0  0  0  0  0  0  0  0  0  0
  190.5810  172.8580  139.6040 C   0  0  0  0  0  0  0  0  0  0  0  0
  190.5770  171.9910  138.4770 N   0  0  0  0  0  1  0  0  0  0  0  0
  192.9800  176.2550  143.9010 C   0  0  0  0  0  0  0  0  0  0  0  0
  194.3160  176.0410  143.5690 C   0  0  0  0  0  0  0  0  0  0  0  0
  188.6910  176.6390  144.6390 C   0  0  0  0  0  0  0  0  0  0  0  0
  188.2890  175.2090  142.7710 N   0  0  0  0  0  0  0  0  0  0  0  0
  196.1270  175.3130  142.5210 C   0  0  0  0  0  0  0  0  0  0  0  0
  186.3160  176.0230  144.0150 C   0  0  0  0  0  2  0  0  0  0  0  0
  189.1850  173.4040  140.3800 S   0  0  0  0  0  0  0  0  0  0  0  0
  189.6240  175.0810  142.5410 C   0  0  0  0  0  0  0  0  0  0  0  0
  190.0840  174.2910  141.4940 C   0  0  0  0  0  0  0  0  0  0  0  0
  192.3960  174.7740  142.0140 C   0  0  0  0  0  0  0  0  0  0  0  0
  196.5110  176.2020  143.5700 N   0  0  0  0  0  0  0  0  0  0  0  0
  186.7250  177.2630  146.0570 C   0  0  0  0  0  2  0  0  0  0  0  0
  187.8030  175.9770  143.7790 C   0  0  0  0  0  0  0  0  0  0  0  0
  195.4700  176.6120  144.1840 N   0  0  0  0  0  0  0  0  0  0  0  0
  188.1940  177.5430  145.7220 C   0  0  0  0  0  2  0  0  0  0  0  0
  191.7160  173.3290  140.1660 N   0  0  0  0  0  0  0  0  0  0  0  0
  191.4330  174.1340  141.2260 C   0  0  0  0  0  0  0  0  0  0  0  0
  193.7610  174.6000  141.7200 C   0  0  0  0  0  3  0  0  0  0  0  0
  190.0620  176.5300  144.4150 C   0  0  0  0  0  3  0  0  0  0  0  0
  192.6750  177.1120  144.9990 N   0  0  0  0  0  1  0  0  0  0  0  0
  197.1120  174.8580  141.2990 S   0  0  0  0  0  0  0  0  0  0  0  0
  191.9720  175.6070  143.1160 C   0  0  0  0  0  0  0  0  0  0  0  0
  194.6830  175.2460  142.5270 C   0  0  0  0  0  0  0  0  0  0  0  0
  185.9180  178.3840  144.0740 C   0  0  0  0  0  2  0  0  0  0  0  0
  185.0710  178.2280  142.8260 C   0  0  0  0  0  2  0  0  0  0  0  0
  185.8200  178.6910  141.6730 N   0  0  0  0  0  0  0  0  0  0  0  0
  185.9410  177.5410  140.7640 C   0  0  0  0  0  2  0  0  0  0  0  0
  184.9270  178.5560  140.5130 C   0  0  0  0  0  2  0  0  0  0  0  0
  1 16  1  0  0  0  0
  2 23  1  0  0  0  0
  3 20  2  0  0  0  0
  3 11  1  0  0  0  0
  4  3  1  0  0  0  0
  5 24  1  0  0  0  0
  6  5  1  0  0  0  0
  6 18  1  0  0  0  0
  7 19  1  0  0  0  0
  8 17  2  0  0  0  0
  9 27  1  0  0  0  0
  9 15  1  0  0  0  0
 10  1  1  0  0  0  0
 11 13  1  0  0  0  0
 12  8  1  0  0  0  0
 12  2  2  0  0  0  0
 13 12  1  0  0  0  0
 14 26  1  0  0  0  0
 15 18  2  0  0  0  0
 17 10  1  0  0  0  0
 17  7  1  0  0  0  0
 19 16  1  0  0  0  0
 20 21  1  0  0  0  0
 21 13  2  0  0  0  0
 21 14  1  0  0  0  0
 22 14  2  0  0  0  0
 22 27  1  0  0  0  0
 23  7  2  0  0  0  0
 25  9  2  0  0  0  0
 26  2  1  0  0  0  0
 26  5  2  0  0  0  0
 27  6  2  0  0  0  0
 28  1  1  0  0  0  0
 29 28  1  0  0  0  0
 30 29  1  0  0  0  0
 31 30  1  0  0  0  0
 32 31  1  0  0  0  0
 32 30  1  0  0  0  0
M  END
>  <MODEL>
6

>  <REMARK>
 VINA RESULT:      -6.9      3.096      7.919
  Name = 
  3 active torsions:
  status: ('A' for Active; 'I' for Inactive)
    1  A    between atoms: N_1  and  C_10
    2  A    between atoms: N_2  and  C_24
    3  A    between atoms: C_10  and  C_24
                            x       y       z     vdW  Elec       q    Type
                         _______ _______ _______ _____ _____    ______ ____

>  <TORSDO>
F 3

$$$$
=
 OpenBabel11052421243D

 32 38  0  0  0  0  0  0  0  0999 V2000
  185.4080  179.0400  142.7640 N   0  0  0  0  0  0  0  0  0  0  0  0
  188.9700  175.4120  142.2780 C   0  0  0  0  0  0  0  0  0  0  0  0
  192.4130  175.6780  145.5320 C   0  0  0  0  0  0  0  0  0  0  0  0
  193.4420  175.7640  146.5090 N   0  0  0  0  0  1  0  0  0  0  0  0
  189.4170  173.3340  140.9180 C   0  0  0  0  0  0  0  0  0  0  0  0
  190.2480  172.2360  140.7080 C   0  0  0  0  0  0  0  0  0  0  0  0
  187.0900  176.9070  141.8730 C   0  0  0  0  0  0  0  0  0  0  0  0
  188.6230  177.3740  143.6430 N   0  0  0  0  0  0  0  0  0  0  0  0
  191.9030  170.7820  140.9430 C   0  0  0  0  0  0  0  0  0  0  0  0
  186.7770  178.9790  143.2930 C   0  0  0  0  0  2  0  0  0  0  0  0
  191.1580  176.7960  145.3790 S   0  0  0  0  0  0  0  0  0  0  0  0
  189.3540  176.2660  143.3450 C   0  0  0  0  0  0  0  0  0  0  0  0
  190.4930  175.9570  144.0800 C   0  0  0  0  0  0  0  0  0  0  0  0
  190.9210  173.9700  142.7700 C   0  0  0  0  0  0  0  0  0  0  0  0
  191.0330  170.3470  139.8960 N   0  0  0  0  0  0  0  0  0  0  0  0
  185.3720  178.6490  141.3470 C   0  0  0  0  0  2  0  0  0  0  0  0
  187.5020  177.7040  142.9510 C   0  0  0  0  0  0  0  0  0  0  0  0
  190.0870  171.1910  139.7500 N   0  0  0  0  0  0  0  0  0  0  0  0
  185.8290  177.2020  141.1270 C   0  0  0  0  0  2  0  0  0  0  0  0
  192.3440  174.6800  144.6230 N   0  0  0  0  0  0  0  0  0  0  0  0
  191.2650  174.8400  143.8100 C   0  0  0  0  0  0  0  0  0  0  0  0
  191.7210  172.8410  142.5160 C   0  0  0  0  0  3  0  0  0  0  0  0
  187.8190  175.7610  141.5580 C   0  0  0  0  0  3  0  0  0  0  0  0
  188.2730  173.4980  140.0830 N   0  0  0  0  0  1  0  0  0  0  0  0
  193.0120  169.8260  141.6680 S   0  0  0  0  0  0  0  0  0  0  0  0
  189.7480  174.2450  141.9730 C   0  0  0  0  0  0  0  0  0  0  0  0
  191.3500  172.0080  141.4740 C   0  0  0  0  0  0  0  0  0  0  0  0
  184.5330  178.1890  143.5660 C   0  0  0  0  0  2  0  0  0  0  0  0
  184.4200  178.7440  144.9730 C   0  0  0  0  0  2  0  0  0  0  0  0
  184.7710  177.7110  145.9300 N   0  0  0  0  0  0  0  0  0  0  0  0
  185.9080  178.2300  146.7050 C   0  0  0  0  0  2  0  0  0  0  0  0
  184.5650  178.2920  147.2650 C   0  0  0  0  0  2  0  0  0  0  0  0
  1 10  1  0  0  0  0
  1 28  1  0  0  0  0
  2 12  1  0  0  0  0
  3  4  1  0  0  0  0
  5 26  1  0  0  0  0
  6  5  2  0  0  0  0
  6 27  1  0  0  0  0
  7 17  1  0  0  0  0
  9 27  1  0  0  0  0
  9 25  2  0  0  0  0
 11  3  1  0  0  0  0
 12  8  1  0  0  0  0
 12 13  2  0  0  0  0
 13 11  1  0  0  0  0
 14 21  2  0  0  0  0
 15  9  1  0  0  0  0
 16  1  1  0  0  0  0
 17 10  1  0  0  0  0
 17  8  2  0  0  0  0
 18 15  2  0  0  0  0
 18  6  1  0  0  0  0
 19 16  1  0  0  0  0
 19  7  1  0  0  0  0
 20  3  2  0  0  0  0
 21 13  1  0  0  0  0
 21 20  1  0  0  0  0
 22 14  1  0  0  0  0
 23  7  2  0  0  0  0
 23  2  1  0  0  0  0
 24  5  1  0  0  0  0
 26  2  2  0  0  0  0
 26 14  1  0  0  0  0
 27 22  2  0  0  0  0
 28 29  1  0  0  0  0
 29 30  1  0  0  0  0
 30 31  1  0  0  0  0
 30 32  1  0  0  0  0
 31 32  1  0  0  0  0
M  END
>  <MODEL>
7

>  <REMARK>
 VINA RESULT:      -6.9      3.108      8.679
  Name = 
  3 active torsions:
  status: ('A' for Active; 'I' for Inactive)
    1  A    between atoms: N_1  and  C_10
    2  A    between atoms: N_2  and  C_24
    3  A    between atoms: C_10  and  C_24
                            x       y       z     vdW  Elec       q    Type
                         _______ _______ _______ _____ _____    ______ ____

>  <TORSDO>
F 3

$$$$
=
 OpenBabel11052421243D

 32 38  0  0  0  0  0  0  0  0999 V2000
  189.5190  175.8110  147.2630 N   0  0  0  0  0  0  0  0  0  0  0  0
  192.3750  175.0000  143.1060 C   0  0  0  0  0  0  0  0  0  0  0  0
  190.0340  172.8560  139.5800 C   0  0  0  0  0  0  0  0  0  0  0  0
  189.3270  172.2120  138.5270 N   0  0  0  0  0  1  0  0  0  0  0  0
  194.6720  175.5510  142.2220 C   0  0  0  0  0  0  0  0  0  0  0  0
  195.5520  175.4850  141.1440 C   0  0  0  0  0  0  0  0  0  0  0  0
  191.6420  175.5250  145.3690 C   0  0  0  0  0  0  0  0  0  0  0  0
  190.1480  174.4400  143.8560 N   0  0  0  0  0  0  0  0  0  0  0  0
  196.3710  175.0760  139.1260 C   0  0  0  0  0  0  0  0  0  0  0  0
  189.3160  174.8870  146.1390 C   0  0  0  0  0  2  0  0  0  0  0  0
  189.3840  173.1620  141.1060 S   0  0  0  0  0  0  0  0  0  0  0  0
  191.0910  174.4390  142.8750 C   0  0  0  0  0  0  0  0  0  0  0  0
  190.8110  173.8850  141.6320 C   0  0  0  0  0  0  0  0  0  0  0  0
  193.0170  174.4080  140.7910 C   0  0  0  0  0  0  0  0  0  0  0  0
  197.3440  175.7800  139.9000 N   0  0  0  0  0  0  0  0  0  0  0  0
  190.9050  175.7540  147.7500 C   0  0  0  0  0  2  0  0  0  0  0  0
  190.3830  174.9780  145.0800 C   0  0  0  0  0  0  0  0  0  0  0  0
  196.8790  176.0050  141.0670 N   0  0  0  0  0  0  0  0  0  0  0  0
  191.9190  176.1820  146.6830 C   0  0  0  0  0  2  0  0  0  0  0  0
  191.3090  173.2860  139.4530 N   0  0  0  0  0  0  0  0  0  0  0  0
  191.7420  173.8640  140.6060 C   0  0  0  0  0  0  0  0  0  0  0  0
  193.9450  174.3760  139.7330 C   0  0  0  0  0  3  0  0  0  0  0  0
  192.6180  175.5450  144.3740 C   0  0  0  0  0  3  0  0  0  0  0  0
  195.1120  176.1710  143.4280 N   0  0  0  0  0  1  0  0  0  0  0  0
  196.4350  174.9150  137.5010 S   0  0  0  0  0  0  0  0  0  0  0  0
  193.3610  174.9960  142.0640 C   0  0  0  0  0  0  0  0  0  0  0  0
  195.1990  174.9190  139.9570 C   0  0  0  0  0  0  0  0  0  0  0  0
  189.1620  177.1670  146.8530 C   0  0  0  0  0  2  0  0  0  0  0  0
  187.6550  177.3380  146.8880 C   0  0  0  0  0  2  0  0  0  0  0  0
  187.1780  177.6890  145.5630 N   0  0  0  0  0  0  0  0  0  0  0  0
  185.8640  177.0460  145.4080 C   0  0  0  0  0  2  0  0  0  0  0  0
  185.9410  178.4590  145.7550 C   0  0  0  0  0  2  0  0  0  0  0  0
  1 16  1  0  0  0  0
  2 23  1  0  0  0  0
  3 11  1  0  0  0  0
  4  3  1  0  0  0  0
  5 24  1  0  0  0  0
  6  5  2  0  0  0  0
  7 19  1  0  0  0  0
  8 17  2  0  0  0  0
  9 15  1  0  0  0  0
  9 27  1  0  0  0  0
 10  1  1  0  0  0  0
 11 13  1  0  0  0  0
 12  2  1  0  0  0  0
 12  8  1  0  0  0  0
 13 12  2  0  0  0  0
 14 26  1  0  0  0  0
 15 18  2  0  0  0  0
 17  7  1  0  0  0  0
 17 10  1  0  0  0  0
 18  6  1  0  0  0  0
 19 16  1  0  0  0  0
 20  3  2  0  0  0  0
 20 21  1  0  0  0  0
 21 14  2  0  0  0  0
 21 13  1  0  0  0  0
 22 27  2  0  0  0  0
 22 14  1  0  0  0  0
 23  7  2  0  0  0  0
 25  9  2  0  0  0  0
 26  5  1  0  0  0  0
 26  2  2  0  0  0  0
 27  6  1  0  0  0  0
 28 29  1  0  0  0  0
 28  1  1  0  0  0  0
 30 32  1  0  0  0  0
 30 29  1  0  0  0  0
 31 30  1  0  0  0  0
 31 32  1  0  0  0  0
M  END
>  <MODEL>
8

>  <REMARK>
 VINA RESULT:      -6.7      3.295      7.449
  Name = 
  3 active torsions:
  status: ('A' for Active; 'I' for Inactive)
    1  A    between atoms: N_1  and  C_10
    2  A    between atoms: N_2  and  C_24
    3  A    between atoms: C_10  and  C_24
                            x       y       z     vdW  Elec       q    Type
                         _______ _______ _______ _____ _____    ______ ____

>  <TORSDO>
F 3

$$$$
=
 OpenBabel11052421243D

 32 38  0  0  0  0  0  0  0  0999 V2000
  186.7160  178.5760  142.1440 N   0  0  0  0  0  0  0  0  0  0  0  0
  189.9450  174.6560  142.6990 C   0  0  0  0  0  0  0  0  0  0  0  0
  193.5320  175.5550  145.6710 C   0  0  0  0  0  0  0  0  0  0  0  0
  194.6050  175.8310  146.5620 N   0  0  0  0  0  1  0  0  0  0  0  0
  190.1610  172.2390  142.0100 C   0  0  0  0  0  0  0  0  0  0  0  0
  190.8900  171.0570  142.1210 C   0  0  0  0  0  0  0  0  0  0  0  0
  188.1780  176.1310  141.8990 C   0  0  0  0  0  0  0  0  0  0  0  0
  189.8170  176.9570  143.4250 N   0  0  0  0  0  0  0  0  0  0  0  0
  192.4280  169.5920  142.7510 C   0  0  0  0  0  0  0  0  0  0  0  0
  188.0960  178.5480  142.6460 C   0  0  0  0  0  2  0  0  0  0  0  0
  192.3680  176.6870  145.2130 S   0  0  0  0  0  0  0  0  0  0  0  0
  190.4420  175.7490  143.4580 C   0  0  0  0  0  0  0  0  0  0  0  0
  191.5810  175.5670  144.2330 C   0  0  0  0  0  0  0  0  0  0  0  0
  191.7890  173.2530  143.5640 C   0  0  0  0  0  0  0  0  0  0  0  0
  191.4830  168.9500  141.8940 N   0  0  0  0  0  0  0  0  0  0  0  0
  186.5870  177.7900  140.9080 C   0  0  0  0  0  2  0  0  0  0  0  0
  188.6990  177.1690  142.6850 C   0  0  0  0  0  0  0  0  0  0  0  0
  190.6030  169.7950  141.5200 N   0  0  0  0  0  0  0  0  0  0  0  0
  186.9140  176.3070  141.1190 C   0  0  0  0  0  2  0  0  0  0  0  0
  193.3440  174.3440  145.1000 N   0  0  0  0  0  0  0  0  0  0  0  0
  192.2470  174.3550  144.2940 C   0  0  0  0  0  0  0  0  0  0  0  0
  192.4830  172.0300  143.6440 C   0  0  0  0  0  3  0  0  0  0  0  0
  188.7970  174.8820  141.9270 C   0  0  0  0  0  3  0  0  0  0  0  0
  189.0000  172.2530  141.1820 N   0  0  0  0  0  1  0  0  0  0  0  0
  193.4860  168.7960  143.7080 S   0  0  0  0  0  0  0  0  0  0  0  0
  190.6100  173.3860  142.7410 C   0  0  0  0  0  0  0  0  0  0  0  0
  192.0010  170.9650  142.9020 C   0  0  0  0  0  0  0  0  0  0  0  0
  185.8090  178.0810  143.1770 C   0  0  0  0  0  2  0  0  0  0  0  0
  185.9670  178.9030  144.4410 C   0  0  0  0  0  2  0  0  0  0  0  0
  185.6350  178.0860  145.5940 N   0  0  0  0  0  0  0  0  0  0  0  0
  185.5010  179.0070  146.7330 C   0  0  0  0  0  2  0  0  0  0  0  0
  184.3080  178.5260  146.0490 C   0  0  0  0  0  2  0  0  0  0  0  0
  1 10  1  0  0  0  0
  1 28  1  0  0  0  0
  2 26  2  0  0  0  0
  2 12  1  0  0  0  0
  3  4  1  0  0  0  0
  5  6  2  0  0  0  0
  5 26  1  0  0  0  0
  6 27  1  0  0  0  0
  7 23  2  0  0  0  0
  7 17  1  0  0  0  0
  8 12  1  0  0  0  0
  9 27  1  0  0  0  0
  9 25  2  0  0  0  0
 10 17  1  0  0  0  0
 11  3  1  0  0  0  0
 12 13  2  0  0  0  0
 13 21  1  0  0  0  0
 13 11  1  0  0  0  0
 14 22  1  0  0  0  0
 14 21  2  0  0  0  0
 15  9  1  0  0  0  0
 16 19  1  0  0  0  0
 16  1  1  0  0  0  0
 17  8  2  0  0  0  0
 18 15  2  0  0  0  0
 18  6  1  0  0  0  0
 19  7  1  0  0  0  0
 20  3  2  0  0  0  0
 21 20  1  0  0  0  0
 23  2  1  0  0  0  0
 24  5  1  0  0  0  0
 26 14  1  0  0  0  0
 27 22  2  0  0  0  0
 28 29  1  0  0  0  0
 29 30  1  0  0  0  0
 30 32  1  0  0  0  0
 30 31  1  0  0  0  0
 32 31  1  0  0  0  0
M  END
>  <MODEL>
9

>  <REMARK>
 VINA RESULT:      -6.7      2.989      8.705
  Name = 
  3 active torsions:
  status: ('A' for Active; 'I' for Inactive)
    1  A    between atoms: N_1  and  C_10
    2  A    between atoms: N_2  and  C_24
    3  A    between atoms: C_10  and  C_24
                            x       y       z     vdW  Elec       q    Type
                         _______ _______ _______ _____ _____    ______ ____

>  <TORSDO>
F 3

$$$$
