=
 OpenBabel11052419593D

 37 42  0  0  1  0  0  0  0  0999 V2000
  196.2250  172.5370  145.9110 C   0  0  0  0  0  2  0  0  0  0  0  0
  192.2470  174.7430  145.8680 C   0  0  0  0  0  0  0  0  0  0  0  0
  189.0220  174.8440  144.1640 N   0  0  0  0  0  2  0  0  0  0  0  0
  194.7520  174.4860  145.4860 C   0  0  0  0  0  0  0  0  0  0  0  0
  191.0340  174.4110  145.4510 C   0  0  0  0  0  3  0  0  0  0  0  0
  193.3800  173.8270  145.4100 C   0  0  0  0  0  0  0  0  0  0  0  0
  189.7890  175.1740  145.3340 C   0  0  0  0  0  0  0  0  0  0  0  0
  194.9270  175.6520  146.1100 C   0  0  0  0  0  3  0  0  0  0  0  0
  193.0690  173.1710  144.0250 C   0  0  2  0  0  3  0  0  0  0  0  0
  194.2640  170.8410  144.9360 S   0  0  0  0  0  0  0  0  0  0  0  0
  191.5530  176.7220  147.3860 C   0  0  0  0  0  3  0  0  0  0  0  0
  193.8100  176.3960  146.7080 C   0  0  0  0  0  3  0  0  0  0  0  0
  194.0220  172.0560  143.6030 C   0  0  0  0  0  2  0  0  0  0  0  0
  189.1570  174.4270  141.8700 C   0  0  1  0  0  3  0  0  0  0  0  0
  189.5550  173.9630  143.2050 N   0  0  1  0  0  0  0  0  0  0  0  0
  192.5450  175.9960  146.5900 C   0  0  1  0  0  3  0  0  0  0  0  0
  192.9120  174.1950  142.9020 C   0  0  0  0  0  2  0  0  0  0  0  0
  195.9790  173.7600  145.0390 C   0  0  0  0  0  2  0  0  0  0  0  0
  189.4020  176.1890  146.1350 C   0  0  0  0  0  0  0  0  0  0  0  0
  196.0300  171.2570  145.1100 C   0  0  0  0  0  2  0  0  0  0  0  0
  190.5020  174.7580  142.3950 C   0  0  1  0  0  3  0  0  0  0  0  0
  191.7090  173.8800  142.0060 C   0  0  1  0  0  3  0  0  0  0  0  0
  190.2350  176.7770  147.2060 C   0  0  0  0  0  3  0  0  0  0  0  0
  187.0770  176.4480  146.8220 C   0  0  0  0  0  3  0  0  0  0  0  0
  188.0570  176.7980  145.9730 C   0  0  0  0  0  0  0  0  0  0  0  0
  187.8310  177.8600  144.9170 C   0  0  0  0  0  2  0  0  0  0  0  0
  186.2470  179.3400  143.9430 F   0  0  0  0  0  0  0  0  0  0  0  0
  185.6250  178.3100  145.9900 C   0  0  0  0  0  2  0  0  0  0  0  0
  186.3560  178.1670  144.6640 C   0  0  2  0  0  3  0  0  0  0  0  0
  185.6720  176.9710  146.7160 C   0  0  0  0  0  2  0  0  0  0  0  0
  189.1020  173.2350  140.9250 C   0  0  0  0  0  2  0  0  0  0  0  0
  188.5640  173.6780  139.5810 C   0  0  0  0  0  1  0  0  0  0  0  0
  192.0780  173.9990  140.5150 C   0  0  0  0  0  2  0  0  0  0  0  0
  192.7080  172.7650  139.8460 C   0  0  1  0  0  3  0  0  0  0  0  0
  194.1020  172.8170  139.8780 O   0  0  0  0  0  1  0  0  0  0  0  0
  191.4830  170.6390  139.6860 C   0  0  0  0  0  2  0  0  0  0  0  0
  192.2230  171.4700  140.4160 C   0  0  0  0  0  3  0  0  0  0  0  0
  2 16  1  0  0  0  0
  3  7  1  0  0  0  0
  4  8  1  0  0  0  0
  5  2  2  0  0  0  0
  6  4  2  0  0  0  0
  6  2  1  0  0  0  0
  7  5  1  0  0  0  0
  7 19  2  0  0  0  0
  8 12  2  0  0  0  0
  9 17  1  6  0  0  0
  9  6  1  0  0  0  0
 10 20  1  0  0  0  0
 13  9  1  0  0  0  0
 13 10  1  0  0  0  0
 14 31  1  6  0  0  0
 14 21  1  0  0  0  0
 14 15  1  0  0  0  0
 15  3  1  1  0  0  0
 16 12  1  1  0  0  0
 16 11  1  0  0  0  0
 18  4  1  0  0  0  0
 18  1  1  0  0  0  0
 19 23  1  0  0  0  0
 20  1  1  0  0  0  0
 21 15  1  0  0  0  0
 22 21  1  0  0  0  0
 22 17  1  0  0  0  0
 23 11  2  0  0  0  0
 25 19  1  0  0  0  0
 25 24  2  0  0  0  0
 26 25  1  0  0  0  0
 27 29  1  0  0  0  0
 28 30  1  0  0  0  0
 29 26  1  0  0  0  0
 29 28  1  0  0  0  0
 30 24  1  0  0  0  0
 32 31  1  0  0  0  0
 33 22  1  0  0  0  0
 34 35  1  0  0  0  0
 34 37  1  0  0  0  0
 34 33  1  0  0  0  0
 36 37  2  0  0  0  0
M  END
>  <MODEL>
1

>  <REMARK>
 VINA RESULT:      -8.5      0.000      0.000
  Name = 
  5 active torsions:
  status: ('A' for Active; 'I' for Inactive)
    1  A    between atoms: C_1  and  C_5
    2  A    between atoms: C_1  and  C_36
    3  A    between atoms: C_5  and  C_23
    4  A    between atoms: C_6  and  C_31
    5  A    between atoms: C_11  and  C_26
                            x       y       z     vdW  Elec       q    Type
                         _______ _______ _______ _____ _____    ______ ____

>  <TORSDO>
F 5

$$$$
=
 OpenBabel11052419593D

 37 42  0  0  1  0  0  0  0  0999 V2000
  186.2720  178.2740  144.3160 C   0  0  0  0  0  2  0  0  0  0  0  0
  190.2120  176.1010  144.9780 C   0  0  0  0  0  0  0  0  0  0  0  0
  192.8510  174.3060  143.2080 N   0  0  0  0  0  2  0  0  0  0  0  0
  187.6880  176.4040  145.1190 C   0  0  0  0  0  0  0  0  0  0  0  0
  191.2440  175.8390  144.1890 C   0  0  0  0  0  3  0  0  0  0  0  0
  188.9450  176.5820  144.2760 C   0  0  0  0  0  0  0  0  0  0  0  0
  192.4530  175.0350  144.3810 C   0  0  0  0  0  0  0  0  0  0  0  0
  187.7600  176.0770  146.4100 C   0  0  0  0  0  3  0  0  0  0  0  0
  188.8260  175.9970  142.8310 C   0  0  2  0  0  3  0  0  0  0  0  0
  187.7860  178.4290  142.0020 S   0  0  0  0  0  0  0  0  0  0  0  0
  191.4120  175.7160  147.2390 C   0  0  0  0  0  3  0  0  0  0  0  0
  189.0400  175.8160  147.0820 C   0  0  0  0  0  3  0  0  0  0  0  0
  187.7290  176.6100  141.9670 C   0  0  0  0  0  2  0  0  0  0  0  0
  192.0700  172.9810  141.4500 C   0  0  1  0  0  3  0  0  0  0  0  0
  192.0240  174.3110  142.0690 N   0  0  1  0  0  0  0  0  0  0  0  0
  190.1990  175.8050  146.4240 C   0  0  1  0  0  3  0  0  0  0  0  0
  188.7320  174.4710  142.8120 C   0  0  0  0  0  2  0  0  0  0  0  0
  186.3430  176.7780  144.5840 C   0  0  0  0  0  2  0  0  0  0  0  0
  193.1050  174.8480  145.5480 C   0  0  0  0  0  0  0  0  0  0  0  0
  186.1630  178.5490  142.8230 C   0  0  0  0  0  2  0  0  0  0  0  0
  190.9410  173.3420  142.3390 C   0  0  1  0  0  3  0  0  0  0  0  0
  189.6240  173.8570  141.7270 C   0  0  1  0  0  3  0  0  0  0  0  0
  192.6320  175.3410  146.8610 C   0  0  0  0  0  3  0  0  0  0  0  0
  195.5420  174.7910  145.5610 C   0  0  0  0  0  3  0  0  0  0  0  0
  194.3890  174.1030  145.5770 C   0  0  0  0  0  0  0  0  0  0  0  0
  194.3820  172.5940  145.7110 C   0  0  0  0  0  2  0  0  0  0  0  0
  195.7290  170.6410  145.8660 F   0  0  0  0  0  0  0  0  0  0  0  0
  196.8380  172.7250  146.1270 C   0  0  0  0  0  2  0  0  0  0  0  0
  195.7370  171.9490  145.4210 C   0  0  2  0  0  3  0  0  0  0  0  0
  196.8920  174.1300  145.5420 C   0  0  0  0  0  2  0  0  0  0  0  0
  191.7930  173.1160  139.9600 C   0  0  0  0  0  2  0  0  0  0  0  0
  192.2810  171.8760  139.2400 C   0  0  0  0  0  1  0  0  0  0  0  0
  188.8700  172.7740  140.9320 C   0  0  0  0  0  2  0  0  0  0  0  0
  188.2250  173.1990  139.6010 C   0  0  1  0  0  3  0  0  0  0  0  0
  188.4840  174.5370  139.3070 O   0  0  0  0  0  1  0  0  0  0  0  0
  189.1180  172.8550  137.3360 C   0  0  0  0  0  2  0  0  0  0  0  0
  188.6170  172.3280  138.4500 C   0  0  0  0  0  3  0  0  0  0  0  0
  1 18  1  0  0  0  0
  2 16  1  0  0  0  0
  3  7  1  0  0  0  0
  4  8  1  0  0  0  0
  5  7  1  0  0  0  0
  5  2  2  0  0  0  0
  6  2  1  0  0  0  0
  6  4  2  0  0  0  0
  7 19  2  0  0  0  0
  8 12  2  0  0  0  0
  9 13  1  1  0  0  0
  9  6  1  0  0  0  0
 10 20  1  0  0  0  0
 13 10  1  0  0  0  0
 14 31  1  6  0  0  0
 14 15  1  0  0  0  0
 14 21  1  0  0  0  0
 15 21  1  0  0  0  0
 15  3  1  1  0  0  0
 16 12  1  1  0  0  0
 16 11  1  0  0  0  0
 17  9  1  0  0  0  0
 18  4  1  0  0  0  0
 19 25  1  0  0  0  0
 19 23  1  0  0  0  0
 20  1  1  0  0  0  0
 22 21  1  0  0  0  0
 22 17  1  0  0  0  0
 23 11  2  0  0  0  0
 24 25  2  0  0  0  0
 25 26  1  0  0  0  0
 29 26  1  0  0  0  0
 29 27  1  0  0  0  0
 29 28  1  0  0  0  0
 30 24  1  0  0  0  0
 30 28  1  0  0  0  0
 32 31  1  0  0  0  0
 33 22  1  0  0  0  0
 34 33  1  0  0  0  0
 35 34  1  0  0  0  0
 36 37  2  0  0  0  0
 37 34  1  0  0  0  0
M  END
>  <MODEL>
2

>  <REMARK>
 VINA RESULT:      -8.2      3.227      6.907
  Name = 
  5 active torsions:
  status: ('A' for Active; 'I' for Inactive)
    1  A    between atoms: C_1  and  C_5
    2  A    between atoms: C_1  and  C_36
    3  A    between atoms: C_5  and  C_23
    4  A    between atoms: C_6  and  C_31
    5  A    between atoms: C_11  and  C_26
                            x       y       z     vdW  Elec       q    Type
                         _______ _______ _______ _____ _____    ______ ____

>  <TORSDO>
F 5

$$$$
=
 OpenBabel11052419593D

 37 42  0  0  1  0  0  0  0  0999 V2000
  186.2250  178.0430  144.8550 C   0  0  0  0  0  2  0  0  0  0  0  0
  190.5200  176.5480  144.9390 C   0  0  0  0  0  0  0  0  0  0  0  0
  193.1140  175.1040  142.8180 N   0  0  0  0  0  2  0  0  0  0  0  0
  188.0300  176.4590  145.4680 C   0  0  0  0  0  0  0  0  0  0  0  0
  191.4480  176.4120  144.0030 C   0  0  0  0  0  3  0  0  0  0  0  0
  189.0990  176.7900  144.4340 C   0  0  0  0  0  0  0  0  0  0  0  0
  192.7870  175.8180  144.0220 C   0  0  0  0  0  0  0  0  0  0  0  0
  188.3500  176.2100  146.7390 C   0  0  0  0  0  3  0  0  0  0  0  0
  188.8590  176.1240  143.0400 C   0  0  2  0  0  3  0  0  0  0  0  0
  187.3250  178.3210  142.3280 S   0  0  0  0  0  0  0  0  0  0  0  0
  192.0950  176.4650  146.9910 C   0  0  0  0  0  3  0  0  0  0  0  0
  189.7420  176.1860  147.2070 C   0  0  0  0  0  3  0  0  0  0  0  0
  187.5580  176.5160  142.3450 C   0  0  0  0  0  2  0  0  0  0  0  0
  192.3010  173.5890  141.2370 C   0  0  1  0  0  3  0  0  0  0  0  0
  192.1350  174.9250  141.8240 N   0  0  1  0  0  0  0  0  0  0  0  0
  190.7730  176.3230  146.3760 C   0  0  1  0  0  3  0  0  0  0  0  0
  189.0120  174.6040  143.0710 C   0  0  0  0  0  2  0  0  0  0  0  0
  186.5780  176.5920  145.1430 C   0  0  0  0  0  2  0  0  0  0  0  0
  193.6290  175.7920  145.0760 C   0  0  0  0  0  0  0  0  0  0  0  0
  185.8470  178.2250  143.3920 C   0  0  0  0  0  2  0  0  0  0  0  0
  191.2770  173.8120  142.2840 C   0  0  1  0  0  3  0  0  0  0  0  0
  189.8160  174.0850  141.8750 C   0  0  1  0  0  3  0  0  0  0  0  0
  193.2880  176.2670  146.4340 C   0  0  0  0  0  3  0  0  0  0  0  0
  195.4570  174.3500  145.8000 C   0  0  0  0  0  3  0  0  0  0  0  0
  195.0060  175.2590  144.9200 C   0  0  0  0  0  0  0  0  0  0  0  0
  195.8480  175.6780  143.7320 C   0  0  0  0  0  2  0  0  0  0  0  0
  197.9410  175.4260  142.6350 F   0  0  0  0  0  0  0  0  0  0  0  0
  197.4450  173.8670  144.3570 C   0  0  0  0  0  2  0  0  0  0  0  0
  197.3220  175.3000  143.8640 C   0  0  2  0  0  3  0  0  0  0  0  0
  196.8490  173.7840  145.7560 C   0  0  0  0  0  2  0  0  0  0  0  0
  191.7830  173.6070  139.8060 C   0  0  0  0  0  2  0  0  0  0  0  0
  192.8200  174.2400  138.9000 C   0  0  0  0  0  1  0  0  0  0  0  0
  189.1360  172.8600  141.2340 C   0  0  0  0  0  2  0  0  0  0  0  0
  188.2340  173.1140  140.0140 C   0  0  1  0  0  3  0  0  0  0  0  0
  188.2090  174.4640  139.6630 O   0  0  0  0  0  1  0  0  0  0  0  0
  188.9430  172.8380  137.6750 C   0  0  0  0  0  2  0  0  0  0  0  0
  188.5910  172.2750  138.8290 C   0  0  0  0  0  3  0  0  0  0  0  0
  1 18  1  0  0  0  0
  2 16  1  0  0  0  0
  3  7  1  0  0  0  0
  4  8  1  0  0  0  0
  5  7  1  0  0  0  0
  5  2  2  0  0  0  0
  6  2  1  0  0  0  0
  6  4  2  0  0  0  0
  7 19  2  0  0  0  0
  8 12  2  0  0  0  0
  9 13  1  1  0  0  0
  9 17  1  0  0  0  0
  9  6  1  0  0  0  0
 10 13  1  0  0  0  0
 10 20  1  0  0  0  0
 14 31  1  6  0  0  0
 14 15  1  0  0  0  0
 14 21  1  0  0  0  0
 15 21  1  0  0  0  0
 15  3  1  1  0  0  0
 16 11  1  1  0  0  0
 16 12  1  0  0  0  0
 18  4  1  0  0  0  0
 19 23  1  0  0  0  0
 20  1  1  0  0  0  0
 22 21  1  0  0  0  0
 22 17  1  0  0  0  0
 23 11  2  0  0  0  0
 25 19  1  0  0  0  0
 25 24  2  0  0  0  0
 26 29  1  0  0  0  0
 26 25  1  0  0  0  0
 27 29  1  0  0  0  0
 28 30  1  0  0  0  0
 29 28  1  0  0  0  0
 30 24  1  0  0  0  0
 32 31  1  0  0  0  0
 33 22  1  0  0  0  0
 34 33  1  0  0  0  0
 35 34  1  0  0  0  0
 36 37  2  0  0  0  0
 37 34  1  0  0  0  0
M  END
>  <MODEL>
3

>  <REMARK>
 VINA RESULT:      -7.8      3.318      6.870
  Name = 
  5 active torsions:
  status: ('A' for Active; 'I' for Inactive)
    1  A    between atoms: C_1  and  C_5
    2  A    between atoms: C_1  and  C_36
    3  A    between atoms: C_5  and  C_23
    4  A    between atoms: C_6  and  C_31
    5  A    between atoms: C_11  and  C_26
                            x       y       z     vdW  Elec       q    Type
                         _______ _______ _______ _____ _____    ______ ____

>  <TORSDO>
F 5

$$$$
=
 OpenBabel11052419593D

 37 42  0  0  1  0  0  0  0  0999 V2000
  192.7800  172.7540  138.8390 C   0  0  0  0  0  2  0  0  0  0  0  0
  190.0410  174.7800  141.8530 C   0  0  0  0  0  0  0  0  0  0  0  0
  190.0790  176.6470  144.9880 N   0  0  0  0  0  2  0  0  0  0  0  0
  191.0820  172.7950  140.6450 C   0  0  0  0  0  0  0  0  0  0  0  0
  190.2300  175.7480  142.7380 C   0  0  0  0  0  3  0  0  0  0  0  0
  191.3070  174.1740  141.2530 C   0  0  2  0  0  3  0  0  0  0  0  0
  189.3710  176.3090  143.7840 C   0  0  0  0  0  0  0  0  0  0  0  0
  189.8520  172.3080  140.4690 C   0  0  0  0  0  3  0  0  0  0  0  0
  192.5080  174.2360  142.2520 C   0  0  2  0  0  3  0  0  0  0  0  0
  194.1780  174.7820  140.1070 S   0  0  0  0  0  0  0  0  0  0  0  0
  187.4570  174.9040  141.7640 C   0  0  0  0  0  3  0  0  0  0  0  0
  188.6520  173.0390  140.8960 C   0  0  0  0  0  3  0  0  0  0  0  0
  193.8690  173.8820  141.6590 C   0  0  0  0  0  2  0  0  0  0  0  0
  191.6950  175.9070  146.5030 C   0  0  1  0  0  3  0  0  0  0  0  0
  191.4400  176.3120  145.1150 N   0  0  1  0  0  0  0  0  0  0  0  0
  188.7200  174.1900  141.5620 C   0  0  0  0  0  0  0  0  0  0  0  0
  192.2600  173.4410  143.5340 C   0  0  0  0  0  2  0  0  0  0  0  0
  192.2130  172.0230  140.0470 C   0  0  0  0  0  2  0  0  0  0  0  0
  188.0250  176.4040  143.7400 C   0  0  0  0  0  0  0  0  0  0  0  0
  194.1920  173.2480  139.1220 C   0  0  0  0  0  2  0  0  0  0  0  0
  191.4810  174.8750  145.4620 C   0  0  1  0  0  3  0  0  0  0  0  0
  192.6980  174.2170  144.7810 C   0  0  1  0  0  3  0  0  0  0  0  0
  187.1800  175.8490  142.6600 C   0  0  0  0  0  3  0  0  0  0  0  0
  186.7720  178.3190  144.5810 C   0  0  0  0  0  3  0  0  0  0  0  0
  187.2890  177.1030  144.8230 C   0  0  0  0  0  0  0  0  0  0  0  0
  187.0570  176.4080  146.1480 C   0  0  0  0  0  2  0  0  0  0  0  0
  186.0840  176.5960  148.3090 F   0  0  0  0  0  0  0  0  0  0  0  0
  185.4640  178.2410  146.7140 C   0  0  0  0  0  2  0  0  0  0  0  0
  186.5660  177.3430  147.2520 C   0  0  2  0  0  3  0  0  0  0  0  0
  186.0500  179.1280  145.6220 C   0  0  0  0  0  2  0  0  0  0  0  0
  193.1500  176.1940  146.8460 C   0  0  0  0  0  2  0  0  0  0  0  0
  193.6720  177.2970  145.9490 C   0  0  0  0  0  1  0  0  0  0  0  0
  193.5060  173.3210  145.7390 C   0  0  0  0  0  2  0  0  0  0  0  0
  195.0040  173.1410  145.4370 C   0  0  1  0  0  3  0  0  0  0  0  0
  195.2330  172.0540  144.5920 O   0  0  0  0  0  1  0  0  0  0  0  0
  196.9610  174.4140  144.6640 C   0  0  0  0  0  2  0  0  0  0  0  0
  195.6490  174.3720  144.8870 C   0  0  0  0  0  3  0  0  0  0  0  0
  1 20  1  0  0  0  0
  1 18  1  0  0  0  0
  2  5  2  0  0  0  0
  5  7  1  0  0  0  0
  6  4  1  1  0  0  0
  6  2  1  0  0  0  0
  6  9  1  0  0  0  0
  7  3  1  0  0  0  0
  8  4  2  0  0  0  0
  8 12  1  0  0  0  0
  9 13  1  6  0  0  0
  9 17  1  0  0  0  0
 10 13  1  0  0  0  0
 11 23  2  0  0  0  0
 12 16  2  0  0  0  0
 14 31  1  6  0  0  0
 15  3  1  1  0  0  0
 15 21  1  0  0  0  0
 15 14  1  0  0  0  0
 16 11  1  0  0  0  0
 16  2  1  0  0  0  0
 17 22  1  0  0  0  0
 18  4  1  0  0  0  0
 19  7  2  0  0  0  0
 19 25  1  0  0  0  0
 20 10  1  0  0  0  0
 21 14  1  0  0  0  0
 22 21  1  0  0  0  0
 22 33  1  0  0  0  0
 23 19  1  0  0  0  0
 24 25  2  0  0  0  0
 24 30  1  0  0  0  0
 25 26  1  0  0  0  0
 26 29  1  0  0  0  0
 28 29  1  0  0  0  0
 29 27  1  0  0  0  0
 30 28  1  0  0  0  0
 32 31  1  0  0  0  0
 34 33  1  0  0  0  0
 35 34  1  0  0  0  0
 36 37  2  0  0  0  0
 37 34  1  0  0  0  0
M  END
>  <MODEL>
4

>  <REMARK>
 VINA RESULT:      -7.3      2.036      5.279
  Name = 
  5 active torsions:
  status: ('A' for Active; 'I' for Inactive)
    1  A    between atoms: C_1  and  C_5
    2  A    between atoms: C_1  and  C_36
    3  A    between atoms: C_5  and  C_23
    4  A    between atoms: C_6  and  C_31
    5  A    between atoms: C_11  and  C_26
                            x       y       z     vdW  Elec       q    Type
                         _______ _______ _______ _____ _____    ______ ____

>  <TORSDO>
F 5

$$$$
=
 OpenBabel11052419593D

 37 42  0  0  1  0  0  0  0  0999 V2000
  184.6810  178.7610  144.7050 C   0  0  0  0  0  2  0  0  0  0  0  0
  187.1630  176.1220  141.9550 C   0  0  0  0  0  0  0  0  0  0  0  0
  189.8440  173.6450  141.9780 N   0  0  0  0  0  2  0  0  0  0  0  0
  186.4110  178.3270  142.9830 C   0  0  0  0  0  0  0  0  0  0  0  0
  187.8310  174.9940  142.1460 C   0  0  0  0  0  3  0  0  0  0  0  0
  186.7230  176.8540  143.2200 C   0  0  2  0  0  3  0  0  0  0  0  0
  188.7240  174.2180  141.2810 C   0  0  0  0  0  0  0  0  0  0  0  0
  186.3190  178.8250  141.7490 C   0  0  0  0  0  3  0  0  0  0  0  0
  187.7070  176.6000  144.4080 C   0  0  2  0  0  3  0  0  0  0  0  0
  185.5240  176.5300  146.1150 S   0  0  0  0  0  0  0  0  0  0  0  0
  187.0080  175.9890  139.3740 C   0  0  0  0  0  3  0  0  0  0  0  0
  186.5650  178.0080  140.5530 C   0  0  0  0  0  3  0  0  0  0  0  0
  187.2230  177.0840  145.7710 C   0  0  0  0  0  2  0  0  0  0  0  0
  191.5060  174.0740  143.5610 C   0  0  1  0  0  3  0  0  0  0  0  0
  190.0600  173.9630  143.3320 N   0  0  1  0  0  0  0  0  0  0  0  0
  186.9790  176.7440  140.6290 C   0  0  0  0  0  0  0  0  0  0  0  0
  189.1210  177.1080  144.1300 C   0  0  0  0  0  2  0  0  0  0  0  0
  186.0050  179.2190  144.1110 C   0  0  0  0  0  2  0  0  0  0  0  0
  188.6390  174.1180  139.9380 C   0  0  0  0  0  0  0  0  0  0  0  0
  184.8790  178.2360  146.1200 C   0  0  0  0  0  2  0  0  0  0  0  0
  190.6970  175.2960  143.3470 C   0  0  1  0  0  3  0  0  0  0  0  0
  190.1880  176.0960  144.5620 C   0  0  1  0  0  3  0  0  0  0  0  0
  187.6840  174.8760  139.0990 C   0  0  0  0  0  3  0  0  0  0  0  0
  190.7560  173.6400  138.8260 C   0  0  0  0  0  3  0  0  0  0  0  0
  189.5410  173.2010  139.1970 C   0  0  0  0  0  0  0  0  0  0  0  0
  189.1200  171.7680  138.9450 C   0  0  0  0  0  2  0  0  0  0  0  0
  189.7520  169.6860  137.9890 F   0  0  0  0  0  0  0  0  0  0  0  0
  191.4620  171.3170  138.2170 C   0  0  0  0  0  2  0  0  0  0  0  0
  189.9960  171.0440  137.9240 C   0  0  2  0  0  3  0  0  0  0  0  0
  191.7240  172.8070  138.0350 C   0  0  0  0  0  2  0  0  0  0  0  0
  191.8050  173.7380  145.0160 C   0  0  0  0  0  2  0  0  0  0  0  0
  193.2270  173.2310  145.1350 C   0  0  0  0  0  1  0  0  0  0  0  0
  191.3240  176.7820  145.3440 C   0  0  0  0  0  2  0  0  0  0  0  0
  191.2500  176.7340  146.8800 C   0  0  1  0  0  3  0  0  0  0  0  0
  190.2700  175.8450  147.3220 O   0  0  0  0  0  1  0  0  0  0  0  0
  193.7030  176.5610  146.8540 C   0  0  0  0  0  2  0  0  0  0  0  0
  192.5620  176.4250  147.5270 C   0  0  0  0  0  3  0  0  0  0  0  0
  1 20  1  0  0  0  0
  2  5  2  0  0  0  0
  4  6  1  0  0  0  0
  4 18  1  0  0  0  0
  6  2  1  6  0  0  0
  6  9  1  0  0  0  0
  7  3  1  0  0  0  0
  7  5  1  0  0  0  0
  8  4  2  0  0  0  0
  9 17  1  6  0  0  0
  9 13  1  0  0  0  0
 10 20  1  0  0  0  0
 11 16  1  0  0  0  0
 12 16  2  0  0  0  0
 12  8  1  0  0  0  0
 13 10  1  0  0  0  0
 14 31  1  1  0  0  0
 15  3  1  6  0  0  0
 15 21  1  0  0  0  0
 15 14  1  0  0  0  0
 16  2  1  0  0  0  0
 17 22  1  0  0  0  0
 18  1  1  0  0  0  0
 19  7  2  0  0  0  0
 21 14  1  0  0  0  0
 21 22  1  0  0  0  0
 22 33  1  0  0  0  0
 23 11  2  0  0  0  0
 23 19  1  0  0  0  0
 24 25  2  0  0  0  0
 25 19  1  0  0  0  0
 26 25  1  0  0  0  0
 29 27  1  0  0  0  0
 29 28  1  0  0  0  0
 29 26  1  0  0  0  0
 30 28  1  0  0  0  0
 30 24  1  0  0  0  0
 31 32  1  0  0  0  0
 33 34  1  0  0  0  0
 34 35  1  0  0  0  0
 34 37  1  0  0  0  0
 36 37  2  0  0  0  0
M  END
>  <MODEL>
5

>  <REMARK>
 VINA RESULT:      -7.3      3.457      8.423
  Name = 
  5 active torsions:
  status: ('A' for Active; 'I' for Inactive)
    1  A    between atoms: C_1  and  C_5
    2  A    between atoms: C_1  and  C_36
    3  A    between atoms: C_5  and  C_23
    4  A    between atoms: C_6  and  C_31
    5  A    between atoms: C_11  and  C_26
                            x       y       z     vdW  Elec       q    Type
                         _______ _______ _______ _____ _____    ______ ____

>  <TORSDO>
F 5

$$$$
=
 OpenBabel11052419593D

 37 42  0  0  1  0  0  0  0  0999 V2000
  188.7640  177.3680  146.2010 C   0  0  0  0  0  2  0  0  0  0  0  0
  189.4930  174.9240  142.4340 C   0  0  0  0  0  0  0  0  0  0  0  0
  191.8750  172.6210  140.9040 N   0  0  0  0  0  2  0  0  0  0  0  0
  189.3120  177.0650  143.8010 C   0  0  0  0  0  0  0  0  0  0  0  0
  190.2100  173.8380  142.1860 C   0  0  0  0  0  3  0  0  0  0  0  0
  189.7700  175.6120  143.7690 C   0  0  2  0  0  3  0  0  0  0  0  0
  190.5310  173.1310  140.9440 C   0  0  0  0  0  0  0  0  0  0  0  0
  188.5470  177.5720  142.8330 C   0  0  0  0  0  3  0  0  0  0  0  0
  191.2500  175.4060  144.2300 C   0  0  2  0  0  3  0  0  0  0  0  0
  190.3370  175.1780  146.8370 S   0  0  0  0  0  0  0  0  0  0  0  0
  187.9780  174.8140  140.3380 C   0  0  0  0  0  3  0  0  0  0  0  0
  188.1470  176.7860  141.6580 C   0  0  0  0  0  3  0  0  0  0  0  0
  191.5550  175.8420  145.6590 C   0  0  0  0  0  2  0  0  0  0  0  0
  194.1060  173.1340  141.3640 C   0  0  1  0  0  3  0  0  0  0  0  0
  192.7720  172.9350  141.9420 N   0  0  1  0  0  0  0  0  0  0  0  0
  188.5950  175.5500  141.4440 C   0  0  0  0  0  0  0  0  0  0  0  0
  192.2670  176.0050  143.2580 C   0  0  0  0  0  2  0  0  0  0  0  0
  189.5370  177.9160  145.0100 C   0  0  0  0  0  2  0  0  0  0  0  0
  189.7400  173.0420  139.8540 C   0  0  0  0  0  0  0  0  0  0  0  0
  189.7180  176.8390  147.2630 C   0  0  0  0  0  2  0  0  0  0  0  0
  193.2540  174.3060  141.6720 C   0  0  1  0  0  3  0  0  0  0  0  0
  193.4430  175.0570  143.0050 C   0  0  1  0  0  3  0  0  0  0  0  0
  188.4500  173.7480  139.6940 C   0  0  0  0  0  3  0  0  0  0  0  0
  189.6920  170.9300  138.6380 C   0  0  0  0  0  3  0  0  0  0  0  0
  190.1430  172.1930  138.7040 C   0  0  0  0  0  0  0  0  0  0  0  0
  190.9800  172.7820  137.5880 C   0  0  0  0  0  2  0  0  0  0  0  0
  192.0350  172.3500  135.5020 F   0  0  0  0  0  0  0  0  0  0  0  0
  190.4980  170.7150  136.2770 C   0  0  0  0  0  2  0  0  0  0  0  0
  191.5670  171.7320  136.6450 C   0  0  2  0  0  3  0  0  0  0  0  0
  190.0770  169.9760  137.5420 C   0  0  0  0  0  2  0  0  0  0  0  0
  195.1570  172.8010  142.4140 C   0  0  0  0  0  2  0  0  0  0  0  0
  194.9330  171.3920  142.9240 C   0  0  0  0  0  1  0  0  0  0  0  0
  194.7890  175.8040  143.0830 C   0  0  0  0  0  2  0  0  0  0  0  0
  195.3920  176.0220  144.4820 C   0  0  1  0  0  3  0  0  0  0  0  0
  194.9210  177.1970  145.0690 O   0  0  0  0  0  1  0  0  0  0  0  0
  196.2060  174.0870  145.7630 C   0  0  0  0  0  2  0  0  0  0  0  0
  195.1850  174.8610  145.4020 C   0  0  0  0  0  3  0  0  0  0  0  0
  1 20  1  0  0  0  0
  3  7  1  0  0  0  0
  4 18  1  0  0  0  0
  5  2  2  0  0  0  0
  6  2  1  6  0  0  0
  6  4  1  0  0  0  0
  6  9  1  0  0  0  0
  7  5  1  0  0  0  0
  8  4  2  0  0  0  0
  9 17  1  6  0  0  0
  9 13  1  0  0  0  0
 10 20  1  0  0  0  0
 11 16  1  0  0  0  0
 12  8  1  0  0  0  0
 13 10  1  0  0  0  0
 14 21  1  0  0  0  0
 14 15  1  0  0  0  0
 14 31  1  1  0  0  0
 15  3  1  6  0  0  0
 16 12  2  0  0  0  0
 16  2  1  0  0  0  0
 18  1  1  0  0  0  0
 19  7  2  0  0  0  0
 21 15  1  0  0  0  0
 21 22  1  0  0  0  0
 22 33  1  0  0  0  0
 22 17  1  0  0  0  0
 23 19  1  0  0  0  0
 23 11  2  0  0  0  0
 24 25  2  0  0  0  0
 25 19  1  0  0  0  0
 26 25  1  0  0  0  0
 27 29  1  0  0  0  0
 28 29  1  0  0  0  0
 28 30  1  0  0  0  0
 29 26  1  0  0  0  0
 30 24  1  0  0  0  0
 31 32  1  0  0  0  0
 33 34  1  0  0  0  0
 34 35  1  0  0  0  0
 34 37  1  0  0  0  0
 37 36  2  0  0  0  0
M  END
>  <MODEL>
6

>  <REMARK>
 VINA RESULT:      -6.7      3.187      7.389
  Name = 
  5 active torsions:
  status: ('A' for Active; 'I' for Inactive)
    1  A    between atoms: C_1  and  C_5
    2  A    between atoms: C_1  and  C_36
    3  A    between atoms: C_5  and  C_23
    4  A    between atoms: C_6  and  C_31
    5  A    between atoms: C_11  and  C_26
                            x       y       z     vdW  Elec       q    Type
                         _______ _______ _______ _____ _____    ______ ____

>  <TORSDO>
F 5

$$$$
=
 OpenBabel11052419593D

 37 42  0  0  1  0  0  0  0  0999 V2000
  187.4850  177.2620  145.6450 C   0  0  0  0  0  2  0  0  0  0  0  0
  189.4140  174.0830  143.0250 C   0  0  0  0  0  0  0  0  0  0  0  0
  192.0450  171.5540  143.0200 N   0  0  0  0  0  2  0  0  0  0  0  0
  188.8690  176.4620  143.7500 C   0  0  0  0  0  0  0  0  0  0  0  0
  190.1020  172.9830  143.2960 C   0  0  0  0  0  3  0  0  0  0  0  0
  189.2150  175.0460  144.1930 C   0  0  2  0  0  3  0  0  0  0  0  0
  190.8190  172.0330  142.4420 C   0  0  0  0  0  0  0  0  0  0  0  0
  188.5550  176.7340  142.4820 C   0  0  0  0  0  3  0  0  0  0  0  0
  190.3990  174.9730  145.2110 C   0  0  2  0  0  3  0  0  0  0  0  0
  188.5650  175.2910  147.2660 S   0  0  0  0  0  0  0  0  0  0  0  0
  188.7880  173.4950  140.5830 C   0  0  0  0  0  3  0  0  0  0  0  0
  188.5750  175.7070  141.4320 C   0  0  0  0  0  3  0  0  0  0  0  0
  190.1750  175.7120  146.5270 C   0  0  0  0  0  2  0  0  0  0  0  0
  193.9700  172.1990  144.1730 C   0  0  1  0  0  3  0  0  0  0  0  0
  192.5070  172.1010  144.2310 N   0  0  1  0  0  0  0  0  0  0  0  0
  188.9920  174.4630  141.6620 C   0  0  0  0  0  0  0  0  0  0  0  0
  191.7410  175.3710  144.5960 C   0  0  0  0  0  2  0  0  0  0  0  0
  188.6800  177.5570  144.7500 C   0  0  0  0  0  2  0  0  0  0  0  0
  190.4890  171.6970  141.1770 C   0  0  0  0  0  0  0  0  0  0  0  0
  187.9370  176.9920  147.0740 C   0  0  0  0  0  2  0  0  0  0  0  0
  193.1400  173.3910  143.8870 C   0  0  1  0  0  3  0  0  0  0  0  0
  192.8650  174.4150  145.0070 C   0  0  1  0  0  3  0  0  0  0  0  0
  189.3990  172.3260  140.3990 C   0  0  0  0  0  3  0  0  0  0  0  0
  190.8550  169.3510  140.6230 C   0  0  0  0  0  3  0  0  0  0  0  0
  191.2370  170.6290  140.4670 C   0  0  0  0  0  0  0  0  0  0  0  0
  192.3580  170.9980  139.5170 C   0  0  0  0  0  2  0  0  0  0  0  0
  194.0010  170.1610  138.0170 F   0  0  0  0  0  0  0  0  0  0  0  0
  192.3390  168.6280  138.7410 C   0  0  0  0  0  2  0  0  0  0  0  0
  193.2250  169.8090  139.1040 C   0  0  2  0  0  3  0  0  0  0  0  0
  191.5740  168.1950  139.9850 C   0  0  0  0  0  2  0  0  0  0  0  0
  194.5300  172.1190  145.5870 C   0  0  0  0  0  2  0  0  0  0  0  0
  196.0280  171.9040  145.5270 C   0  0  0  0  0  1  0  0  0  0  0  0
  194.1270  175.1880  145.4330 C   0  0  0  0  0  2  0  0  0  0  0  0
  194.5180  176.4150  144.5910 C   0  0  1  0  0  3  0  0  0  0  0  0
  194.8730  177.4990  145.3940 O   0  0  0  0  0  1  0  0  0  0  0  0
  196.5940  175.3010  143.8890 C   0  0  0  0  0  2  0  0  0  0  0  0
  195.5960  176.1300  143.5950 C   0  0  0  0  0  3  0  0  0  0  0  0
  1 20  1  0  0  0  0
  2  5  2  0  0  0  0
  4  6  1  0  0  0  0
  4 18  1  0  0  0  0
  6  2  1  6  0  0  0
  6  9  1  0  0  0  0
  7  3  1  0  0  0  0
  7  5  1  0  0  0  0
  8  4  2  0  0  0  0
  9 17  1  6  0  0  0
  9 13  1  0  0  0  0
 11 16  1  0  0  0  0
 12 16  2  0  0  0  0
 12  8  1  0  0  0  0
 13 10  1  0  0  0  0
 14 15  1  0  0  0  0
 14 31  1  1  0  0  0
 15  3  1  6  0  0  0
 16  2  1  0  0  0  0
 17 22  1  0  0  0  0
 18  1  1  0  0  0  0
 19  7  2  0  0  0  0
 20 10  1  0  0  0  0
 21 14  1  0  0  0  0
 21 15  1  0  0  0  0
 21 22  1  0  0  0  0
 22 33  1  0  0  0  0
 23 11  2  0  0  0  0
 23 19  1  0  0  0  0
 25 24  2  0  0  0  0
 25 19  1  0  0  0  0
 26 25  1  0  0  0  0
 27 29  1  0  0  0  0
 28 29  1  0  0  0  0
 28 30  1  0  0  0  0
 29 26  1  0  0  0  0
 30 24  1  0  0  0  0
 32 31  1  0  0  0  0
 34 35  1  0  0  0  0
 34 33  1  0  0  0  0
 37 36  2  0  0  0  0
 37 34  1  0  0  0  0
M  END
>  <MODEL>
7

>  <REMARK>
 VINA RESULT:      -6.7      3.252      7.770
  Name = 
  5 active torsions:
  status: ('A' for Active; 'I' for Inactive)
    1  A    between atoms: C_1  and  C_5
    2  A    between atoms: C_1  and  C_36
    3  A    between atoms: C_5  and  C_23
    4  A    between atoms: C_6  and  C_31
    5  A    between atoms: C_11  and  C_26
                            x       y       z     vdW  Elec       q    Type
                         _______ _______ _______ _____ _____    ______ ____

>  <TORSDO>
F 5

$$$$
=
 OpenBabel11052419593D

 37 42  0  0  1  0  0  0  0  0999 V2000
  193.5580  172.2420  136.9270 C   0  0  0  0  0  2  0  0  0  0  0  0
  191.4640  173.6420  140.7140 C   0  0  0  0  0  0  0  0  0  0  0  0
  192.0890  175.2440  143.9330 N   0  0  0  0  0  2  0  0  0  0  0  0
  192.3760  171.9140  139.0810 C   0  0  0  0  0  0  0  0  0  0  0  0
  191.7640  174.5530  141.6280 C   0  0  0  0  0  3  0  0  0  0  0  0
  192.5960  173.2590  139.7640 C   0  0  2  0  0  3  0  0  0  0  0  0
  191.1410  174.9100  142.9050 C   0  0  0  0  0  0  0  0  0  0  0  0
  191.2030  171.2840  139.1540 C   0  0  0  0  0  3  0  0  0  0  0  0
  193.9960  173.4000  140.4460 C   0  0  2  0  0  3  0  0  0  0  0  0
  195.0020  174.3310  138.0360 S   0  0  0  0  0  0  0  0  0  0  0  0
  188.9440  173.4290  141.2640 C   0  0  0  0  0  3  0  0  0  0  0  0
  190.0770  171.8130  139.9340 C   0  0  0  0  0  3  0  0  0  0  0  0
  195.1940  173.2780  139.5080 C   0  0  0  0  0  2  0  0  0  0  0  0
  194.1050  174.6060  144.9250 C   0  0  1  0  0  3  0  0  0  0  0  0
  193.4660  175.0820  143.6920 N   0  0  1  0  0  0  0  0  0  0  0  0
  190.1850  172.9070  140.6870 C   0  0  0  0  0  0  0  0  0  0  0  0
  194.1670  172.4810  141.6550 C   0  0  0  0  0  2  0  0  0  0  0  0
  193.3980  171.3490  138.1480 C   0  0  0  0  0  2  0  0  0  0  0  0
  189.8250  174.8300  143.1970 C   0  0  0  0  0  0  0  0  0  0  0  0
  194.9340  172.8950  136.9140 C   0  0  0  0  0  2  0  0  0  0  0  0
  193.7490  173.6420  143.8590 C   0  0  1  0  0  3  0  0  0  0  0  0
  194.8180  173.2060  142.8370 C   0  0  1  0  0  3  0  0  0  0  0  0
  188.8000  174.2550  142.2980 C   0  0  0  0  0  3  0  0  0  0  0  0
  188.7880  176.5720  144.5520 C   0  0  0  0  0  3  0  0  0  0  0  0
  189.3140  175.3370  144.4950 C   0  0  0  0  0  0  0  0  0  0  0  0
  189.3140  174.4330  145.7110 C   0  0  0  0  0  2  0  0  0  0  0  0
  188.7570  174.2590  148.0150 F   0  0  0  0  0  0  0  0  0  0  0  0
  187.8900  176.1370  146.8470 C   0  0  0  0  0  2  0  0  0  0  0  0
  189.0530  175.1730  147.0220 C   0  0  2  0  0  3  0  0  0  0  0  0
  188.2860  177.1940  145.8240 C   0  0  0  0  0  2  0  0  0  0  0  0
  195.5590  175.0560  144.9360 C   0  0  0  0  0  2  0  0  0  0  0  0
  195.6660  176.4380  144.3260 C   0  0  0  0  0  1  0  0  0  0  0  0
  195.9350  172.3520  143.4690 C   0  0  0  0  0  2  0  0  0  0  0  0
  195.5070  171.0820  144.2240 C   0  0  1  0  0  3  0  0  0  0  0  0
  196.0200  169.9300  143.6270 O   0  0  0  0  0  1  0  0  0  0  0  0
  196.8170  171.9120  146.1330 C   0  0  0  0  0  2  0  0  0  0  0  0
  195.8540  171.1130  145.6780 C   0  0  0  0  0  3  0  0  0  0  0  0
  1 18  1  0  0  0  0
  2  5  2  0  0  0  0
  4  8  2  0  0  0  0
  5  7  1  0  0  0  0
  6  4  1  1  0  0  0
  6  9  1  0  0  0  0
  6  2  1  0  0  0  0
  7 19  2  0  0  0  0
  7  3  1  0  0  0  0
  8 12  1  0  0  0  0
  9 13  1  6  0  0  0
  9 17  1  0  0  0  0
 10 13  1  0  0  0  0
 11 23  2  0  0  0  0
 12 16  2  0  0  0  0
 14 31  1  6  0  0  0
 15 21  1  0  0  0  0
 15  3  1  1  0  0  0
 15 14  1  0  0  0  0
 16  2  1  0  0  0  0
 16 11  1  0  0  0  0
 17 22  1  0  0  0  0
 18  4  1  0  0  0  0
 19 25  1  0  0  0  0
 20  1  1  0  0  0  0
 20 10  1  0  0  0  0
 21 14  1  0  0  0  0
 22 33  1  0  0  0  0
 22 21  1  0  0  0  0
 23 19  1  0  0  0  0
 24 30  1  0  0  0  0
 25 24  2  0  0  0  0
 25 26  1  0  0  0  0
 26 29  1  0  0  0  0
 28 29  1  0  0  0  0
 29 27  1  0  0  0  0
 30 28  1  0  0  0  0
 32 31  1  0  0  0  0
 33 34  1  0  0  0  0
 34 37  1  0  0  0  0
 35 34  1  0  0  0  0
 37 36  2  0  0  0  0
M  END
>  <MODEL>
8

>  <REMARK>
 VINA RESULT:      -6.4      2.523      5.940
  Name = 
  5 active torsions:
  status: ('A' for Active; 'I' for Inactive)
    1  A    between atoms: C_1  and  C_5
    2  A    between atoms: C_1  and  C_36
    3  A    between atoms: C_5  and  C_23
    4  A    between atoms: C_6  and  C_31
    5  A    between atoms: C_11  and  C_26
                            x       y       z     vdW  Elec       q    Type
                         _______ _______ _______ _____ _____    ______ ____

>  <TORSDO>
F 5

$$$$
=
 OpenBabel11052419593D

 37 42  0  0  1  0  0  0  0  0999 V2000
  197.5920  172.5860  143.1740 C   0  0  0  0  0  2  0  0  0  0  0  0
  193.6300  174.5820  144.1790 C   0  0  0  0  0  0  0  0  0  0  0  0
  190.0440  174.3600  143.5420 N   0  0  0  0  0  2  0  0  0  0  0  0
  195.9160  174.4100  143.0700 C   0  0  0  0  0  0  0  0  0  0  0  0
  192.3770  174.1520  144.1810 C   0  0  0  0  0  3  0  0  0  0  0  0
  194.6390  173.6810  143.4700 C   0  0  0  0  0  0  0  0  0  0  0  0
  191.1000  174.8390  144.3920 C   0  0  0  0  0  0  0  0  0  0  0  0
  196.1810  175.6390  143.5170 C   0  0  0  0  0  3  0  0  0  0  0  0
  193.9770  172.8790  142.3020 C   0  0  2  0  0  3  0  0  0  0  0  0
  195.5630  170.7100  142.9820 S   0  0  0  0  0  0  0  0  0  0  0  0
  193.2760  176.6630  145.6770 C   0  0  0  0  0  3  0  0  0  0  0  0
  195.2430  176.3820  144.3690 C   0  0  0  0  0  3  0  0  0  0  0  0
  194.8400  171.7770  141.6970 C   0  0  0  0  0  2  0  0  0  0  0  0
  189.5150  173.7290  141.3570 C   0  0  1  0  0  3  0  0  0  0  0  0
  190.3290  173.4170  142.5370 N   0  0  1  0  0  0  0  0  0  0  0  0
  194.0360  175.9120  144.6750 C   0  0  1  0  0  3  0  0  0  0  0  0
  193.4120  173.7800  141.2040 C   0  0  0  0  0  2  0  0  0  0  0  0
  197.0040  173.7050  142.3270 C   0  0  0  0  0  2  0  0  0  0  0  0
  190.8950  175.9070  145.1910 C   0  0  0  0  0  0  0  0  0  0  0  0
  197.2630  171.2260  142.5740 C   0  0  0  0  0  2  0  0  0  0  0  0
  190.9260  174.1740  141.4170 C   0  0  1  0  0  3  0  0  0  0  0  0
  192.0230  173.3220  140.7470 C   0  0  1  0  0  3  0  0  0  0  0  0
  191.9650  176.6370  145.9060 C   0  0  0  0  0  3  0  0  0  0  0  0
  189.0150  177.3070  144.5180 C   0  0  0  0  0  3  0  0  0  0  0  0
  189.5220  176.4320  145.4020 C   0  0  0  0  0  0  0  0  0  0  0  0
  188.6850  175.9130  146.5530 C   0  0  0  0  0  2  0  0  0  0  0  0
  186.5830  176.0460  147.6550 F   0  0  0  0  0  0  0  0  0  0  0  0
  186.7320  177.0660  145.5160 C   0  0  0  0  0  2  0  0  0  0  0  0
  187.4360  176.7490  146.8260 C   0  0  2  0  0  3  0  0  0  0  0  0
  187.6560  177.9300  144.6660 C   0  0  0  0  0  2  0  0  0  0  0  0
  189.2690  172.4490  140.5700 C   0  0  0  0  0  2  0  0  0  0  0  0
  188.2430  172.7090  139.4870 C   0  0  0  0  0  1  0  0  0  0  0  0
  191.9160  173.3130  139.2100 C   0  0  0  0  0  2  0  0  0  0  0  0
  192.5440  172.1190  138.4690 C   0  0  1  0  0  3  0  0  0  0  0  0
  191.8470  170.9360  138.7120 O   0  0  0  0  0  1  0  0  0  0  0  0
  192.6730  173.5770  136.4920 C   0  0  0  0  0  2  0  0  0  0  0  0
  192.6870  172.3460  136.9980 C   0  0  0  0  0  3  0  0  0  0  0  0
  2  5  2  0  0  0  0
  2 16  1  0  0  0  0
  3  7  1  0  0  0  0
  4  6  2  0  0  0  0
  4  8  1  0  0  0  0
  5  7  1  0  0  0  0
  6  2  1  0  0  0  0
  7 19  2  0  0  0  0
  8 12  2  0  0  0  0
  9 17  1  6  0  0  0
  9  6  1  0  0  0  0
 11 23  2  0  0  0  0
 13  9  1  0  0  0  0
 13 10  1  0  0  0  0
 14 31  1  6  0  0  0
 14 21  1  0  0  0  0
 14 15  1  0  0  0  0
 15  3  1  1  0  0  0
 16 12  1  1  0  0  0
 16 11  1  0  0  0  0
 18  4  1  0  0  0  0
 18  1  1  0  0  0  0
 19 25  1  0  0  0  0
 19 23  1  0  0  0  0
 20 10  1  0  0  0  0
 20  1  1  0  0  0  0
 21 15  1  0  0  0  0
 22 17  1  0  0  0  0
 22 21  1  0  0  0  0
 24 30  1  0  0  0  0
 24 25  2  0  0  0  0
 25 26  1  0  0  0  0
 26 29  1  0  0  0  0
 28 29  1  0  0  0  0
 29 27  1  0  0  0  0
 30 28  1  0  0  0  0
 32 31  1  0  0  0  0
 33 22  1  0  0  0  0
 34 35  1  0  0  0  0
 34 33  1  0  0  0  0
 36 37  2  0  0  0  0
 37 34  1  0  0  0  0
M  END
>  <MODEL>
9

>  <REMARK>
 VINA RESULT:      -6.2      1.928      2.454
  Name = 
  5 active torsions:
  status: ('A' for Active; 'I' for Inactive)
    1  A    between atoms: C_1  and  C_5
    2  A    between atoms: C_1  and  C_36
    3  A    between atoms: C_5  and  C_23
    4  A    between atoms: C_6  and  C_31
    5  A    between atoms: C_11  and  C_26
                            x       y       z     vdW  Elec       q    Type
                         _______ _______ _______ _____ _____    ______ ____

>  <TORSDO>
F 5

$$$$
