=
 OpenBabel11052417193D

 30 35  0  0  1  0  0  0  0  0999 V2000
  187.9370  177.0420  142.4220 C   0  0  1  0  0  3  0  0  0  0  0  0
  185.6920  178.4230  141.9700 C   0  0  2  0  0  3  0  0  0  0  0  0
  186.7820  178.0680  145.7340 N   0  0  0  0  0  2  0  0  0  0  0  0
  188.7640  176.4770  143.5950 C   0  0  1  0  0  3  0  0  0  0  0  0
  187.6640  176.0150  141.4130 N   0  0  0  0  0  0  0  0  0  0  0  0
  190.6900  173.4780  141.4100 S   0  0  0  0  0  0  0  0  0  0  0  0
  191.1840  175.7910  145.3590 C   0  0  1  0  0  3  0  0  0  0  0  0
  189.7070  174.8680  141.9910 C   0  0  1  0  0  3  0  0  0  0  0  0
  188.3180  174.0970  140.1720 N   0  0  0  0  0  2  0  0  0  0  0  0
  190.0460  176.1090  146.3270 C   0  0  1  0  0  3  0  0  0  0  0  0
  187.7370  177.1430  146.2590 C   0  0  0  0  0  0  0  0  0  0  0  0
  188.5350  175.0920  141.1550 C   0  0  0  0  0  0  0  0  0  0  0  0
  189.8200  175.4520  143.1970 C   0  0  2  0  0  3  0  0  0  0  0  0
  184.2200  178.0800  142.2270 C   0  0  0  0  0  2  0  0  0  0  0  0
  190.7180  176.3500  147.6580 C   0  0  0  0  0  2  0  0  0  0  0  0
  192.3110  175.2140  146.1970 C   0  0  0  0  0  2  0  0  0  0  0  0
  189.2880  171.9900  139.5910 C   0  0  0  0  0  2  0  0  0  0  0  0
  186.0140  178.2180  140.4990 C   0  0  0  0  0  1  0  0  0  0  0  0
  185.5950  177.6260  145.0050 C   0  0  1  0  0  3  0  0  0  0  0  0
  183.6700  178.5710  143.5790 C   0  0  0  0  0  2  0  0  0  0  0  0
  189.3830  173.1530  140.2140 C   0  0  0  0  0  0  0  0  0  0  0  0
  186.6410  177.6860  142.9530 C   0  0  1  0  0  3  0  0  0  0  0  0
  189.3290  177.6310  144.4170 C   0  0  0  0  0  2  0  0  0  0  0  0
  187.3440  176.1520  146.9330 O   0  0  0  0  0  0  0  0  0  0  0  0
  189.1970  177.3250  145.9130 C   0  0  2  0  0  3  0  0  0  0  0  0
  191.9500  175.4670  147.6530 C   0  0  0  0  0  2  0  0  0  0  0  0
  190.1630  173.5400  144.7770 C   0  0  0  0  0  1  0  0  0  0  0  0
  184.7230  178.8450  144.6600 C   0  0  0  0  0  2  0  0  0  0  0  0
  185.9570  176.8550  143.8690 O   0  0  0  0  0  0  0  0  0  0  0  0
  190.7510  174.8390  144.2310 C   0  0  2  0  0  3  0  0  0  0  0  0
  1  5  1  6  0  0  0
  1 22  1  0  0  0  0
  1  4  1  0  0  0  0
  2 18  1  6  0  0  0
  2 14  1  0  0  0  0
  2 22  1  0  0  0  0
  3 11  1  0  0  0  0
  4 23  1  6  0  0  0
  6  8  1  0  0  0  0
  7 16  1  1  0  0  0
  7 10  1  0  0  0  0
  8 12  1  1  0  0  0
  8 13  1  0  0  0  0
  9 21  1  0  0  0  0
  9 12  1  0  0  0  0
 10 15  1  1  0  0  0
 11 24  2  0  0  0  0
 12  5  2  0  0  0  0
 13  4  1  0  0  0  0
 13 30  1  0  0  0  0
 14 20  1  0  0  0  0
 16 26  1  0  0  0  0
 17 21  2  0  0  0  0
 19  3  1  0  0  0  0
 20 28  1  0  0  0  0
 21  6  1  0  0  0  0
 22 29  1  0  0  0  0
 23 25  1  0  0  0  0
 25 11  1  0  0  0  0
 25 10  1  0  0  0  0
 26 15  1  0  0  0  0
 28 19  1  0  0  0  0
 29 19  1  0  0  0  0
 30 27  1  0  0  0  0
 30  7  1  0  0  0  0
M  END
>  <MODEL>
1

>  <REMARK>
 VINA RESULT:      -9.8      0.000      0.000
  Name = 
  0 active torsions:
  status: ('A' for Active; 'I' for Inactive)
                            x       y       z     vdW  Elec       q    Type
                         _______ _______ _______ _____ _____    ______ ____

>  <TORSDO>
F 0

$$$$
=
 OpenBabel11052417193D

 30 35  0  0  1  0  0  0  0  0999 V2000
  188.6570  176.9460  143.4800 C   0  0  1  0  0  3  0  0  0  0  0  0
  186.3570  178.0700  144.2530 C   0  0  2  0  0  3  0  0  0  0  0  0
  189.0600  177.5410  147.0630 N   0  0  0  0  0  2  0  0  0  0  0  0
  189.9660  176.3930  144.0800 C   0  0  1  0  0  3  0  0  0  0  0  0
  188.0330  175.9810  142.5720 N   0  0  0  0  0  0  0  0  0  0  0  0
  190.9050  173.8480  140.8980 S   0  0  0  0  0  0  0  0  0  0  0  0
  192.9660  175.8690  144.4840 C   0  0  1  0  0  3  0  0  0  0  0  0
  190.1940  175.0520  142.0310 C   0  0  1  0  0  3  0  0  0  0  0  0
  188.1910  174.2680  140.9320 N   0  0  0  0  0  2  0  0  0  0  0  0
  192.3720  175.9610  145.8890 C   0  0  1  0  0  3  0  0  0  0  0  0
  190.2140  176.7020  146.9860 C   0  0  0  0  0  0  0  0  0  0  0  0
  188.7570  175.1980  141.8360 C   0  0  0  0  0  0  0  0  0  0  0  0
  190.7980  175.5430  143.1270 C   0  0  2  0  0  3  0  0  0  0  0  0
  185.1920  177.5260  145.0880 C   0  0  0  0  0  2  0  0  0  0  0  0
  193.5550  176.1720  146.8030 C   0  0  0  0  0  2  0  0  0  0  0  0
  194.3900  175.3680  144.6540 C   0  0  0  0  0  2  0  0  0  0  0  0
  188.9430  172.3540  139.7120 C   0  0  0  0  0  2  0  0  0  0  0  0
  185.9900  178.0290  142.7790 C   0  0  0  0  0  1  0  0  0  0  0  0
  187.7080  177.0160  146.8850 C   0  0  1  0  0  3  0  0  0  0  0  0
  185.2820  177.8300  146.5950 C   0  0  0  0  0  2  0  0  0  0  0  0
  189.2250  173.4640  140.3740 C   0  0  0  0  0  0  0  0  0  0  0  0
  187.7010  177.3770  144.6090 C   0  0  1  0  0  3  0  0  0  0  0  0
  190.7560  177.5360  144.7100 C   0  0  0  0  0  2  0  0  0  0  0  0
  190.2450  175.6160  147.6280 O   0  0  0  0  0  0  0  0  0  0  0  0
  191.3400  177.0910  146.0560 C   0  0  2  0  0  3  0  0  0  0  0  0
  194.7120  175.4530  146.1380 C   0  0  0  0  0  2  0  0  0  0  0  0
  191.9610  173.5640  144.1270 C   0  0  0  0  0  1  0  0  0  0  0  0
  186.6870  178.1420  147.1230 C   0  0  0  0  0  2  0  0  0  0  0  0
  187.5700  176.3930  145.6160 O   0  0  0  0  0  0  0  0  0  0  0  0
  192.1400  174.9670  143.5510 C   0  0  2  0  0  3  0  0  0  0  0  0
  1  5  1  1  0  0  0
  1  4  1  0  0  0  0
  1 22  1  0  0  0  0
  2 18  1  6  0  0  0
  2 22  1  0  0  0  0
  2 14  1  0  0  0  0
  4 23  1  6  0  0  0
  7 16  1  1  0  0  0
  7 10  1  0  0  0  0
  8  6  1  1  0  0  0
  8 13  1  0  0  0  0
  9 12  1  0  0  0  0
 10 25  1  0  0  0  0
 10 15  1  1  0  0  0
 11  3  1  0  0  0  0
 11 24  2  0  0  0  0
 12  8  1  0  0  0  0
 12  5  2  0  0  0  0
 13 30  1  0  0  0  0
 13  4  1  0  0  0  0
 14 20  1  0  0  0  0
 16 26  1  0  0  0  0
 17 21  2  0  0  0  0
 19  3  1  0  0  0  0
 19 28  1  0  0  0  0
 20 28  1  0  0  0  0
 21  6  1  0  0  0  0
 21  9  1  0  0  0  0
 22 29  1  0  0  0  0
 23 25  1  0  0  0  0
 25 11  1  0  0  0  0
 26 15  1  0  0  0  0
 29 19  1  0  0  0  0
 30 27  1  0  0  0  0
 30  7  1  0  0  0  0
M  END
>  <MODEL>
2

>  <REMARK>
 VINA RESULT:      -9.1      1.485      2.165
  Name = 
  0 active torsions:
  status: ('A' for Active; 'I' for Inactive)
                            x       y       z     vdW  Elec       q    Type
                         _______ _______ _______ _____ _____    ______ ____

>  <TORSDO>
F 0

$$$$
=
 OpenBabel11052417193D

 30 35  0  0  1  0  0  0  0  0999 V2000
  190.8890  173.7570  144.1660 C   0  0  1  0  0  3  0  0  0  0  0  0
  193.2030  173.4850  145.4790 C   0  0  2  0  0  3  0  0  0  0  0  0
  191.2650  176.8590  146.0620 N   0  0  0  0  0  2  0  0  0  0  0  0
  189.8020  174.8160  143.8890 C   0  0  1  0  0  3  0  0  0  0  0  0
  191.3680  173.1420  142.9260 N   0  0  0  0  0  0  0  0  0  0  0  0
  188.3790  173.1120  140.3460 S   0  0  0  0  0  0  0  0  0  0  0  0
  187.0280  176.0980  143.5790 C   0  0  1  0  0  3  0  0  0  0  0  0
  189.2260  173.5180  141.8810 C   0  0  1  0  0  3  0  0  0  0  0  0
  190.9840  172.3310  140.7260 N   0  0  0  0  0  2  0  0  0  0  0  0
  187.9170  177.1830  144.1850 C   0  0  1  0  0  3  0  0  0  0  0  0
  190.1980  177.3750  145.2650 C   0  0  0  0  0  0  0  0  0  0  0  0
  190.5640  172.9420  141.9310 C   0  0  0  0  0  0  0  0  0  0  0  0
  188.8480  174.4710  142.7510 C   0  0  2  0  0  3  0  0  0  0  0  0
  194.5690  174.1510  145.2770 C   0  0  0  0  0  2  0  0  0  0  0  0
  186.9600  178.2140  144.7330 C   0  0  0  0  0  2  0  0  0  0  0  0
  185.7270  176.7780  143.1900 C   0  0  0  0  0  2  0  0  0  0  0  0
  190.1360  172.1160  138.5000 C   0  0  0  0  0  2  0  0  0  0  0  0
  193.2270  172.0860  144.8860 C   0  0  0  0  0  1  0  0  0  0  0  0
  192.5800  176.5620  145.4980 C   0  0  1  0  0  3  0  0  0  0  0  0
  194.8000  175.4160  146.1240 C   0  0  0  0  0  2  0  0  0  0  0  0
  189.9210  172.3740  139.7800 C   0  0  0  0  0  0  0  0  0  0  0  0
  192.0390  174.3820  144.9810 C   0  0  1  0  0  3  0  0  0  0  0  0
  189.0840  175.1570  145.1910 C   0  0  0  0  0  2  0  0  0  0  0  0
  190.4050  178.3560  144.4990 O   0  0  0  0  0  0  0  0  0  0  0  0
  188.8610  176.6700  145.2870 C   0  0  2  0  0  3  0  0  0  0  0  0
  185.7460  178.1590  143.8260 C   0  0  0  0  0  2  0  0  0  0  0  0
  188.1140  176.3740  141.3000 C   0  0  0  0  0  1  0  0  0  0  0  0
  193.5310  176.1180  146.6230 C   0  0  0  0  0  2  0  0  0  0  0  0
  192.4770  175.6150  144.4440 O   0  0  0  0  0  0  0  0  0  0  0  0
  187.6920  175.3880  142.3870 C   0  0  2  0  0  3  0  0  0  0  0  0
  1  5  1  6  0  0  0
  1 22  1  0  0  0  0
  2 18  1  6  0  0  0
  4  1  1  0  0  0  0
  4 23  1  1  0  0  0
  7 16  1  6  0  0  0
  7 10  1  0  0  0  0
  8  6  1  6  0  0  0
  8 12  1  0  0  0  0
  8 13  1  0  0  0  0
  9 12  1  0  0  0  0
 10 15  1  1  0  0  0
 10 25  1  0  0  0  0
 11 25  1  0  0  0  0
 11  3  1  0  0  0  0
 12  5  2  0  0  0  0
 13  4  1  0  0  0  0
 14  2  1  0  0  0  0
 14 20  1  0  0  0  0
 16 26  1  0  0  0  0
 17 21  2  0  0  0  0
 19  3  1  0  0  0  0
 19 28  1  0  0  0  0
 20 28  1  0  0  0  0
 21  6  1  0  0  0  0
 21  9  1  0  0  0  0
 22  2  1  0  0  0  0
 23 25  1  0  0  0  0
 24 11  2  0  0  0  0
 26 15  1  0  0  0  0
 27 30  1  0  0  0  0
 29 22  1  0  0  0  0
 29 19  1  0  0  0  0
 30 13  1  0  0  0  0
 30  7  1  0  0  0  0
M  END
>  <MODEL>
3

>  <REMARK>
 VINA RESULT:      -9.0      2.435      5.923
  Name = 
  0 active torsions:
  status: ('A' for Active; 'I' for Inactive)
                            x       y       z     vdW  Elec       q    Type
                         _______ _______ _______ _____ _____    ______ ____

>  <TORSDO>
F 0

$$$$
=
 OpenBabel11052417193D

 30 35  0  0  1  0  0  0  0  0999 V2000
  187.7800  176.2560  145.1810 C   0  0  1  0  0  3  0  0  0  0  0  0
  185.8070  177.8590  146.0100 C   0  0  2  0  0  3  0  0  0  0  0  0
  185.9670  177.1650  142.1410 N   0  0  0  0  0  2  0  0  0  0  0  0
  188.4160  175.7390  143.8740 C   0  0  1  0  0  3  0  0  0  0  0  0
  188.7890  176.8100  146.0870 N   0  0  0  0  0  0  0  0  0  0  0  0
  192.1650  174.8490  145.4970 S   0  0  0  0  0  0  0  0  0  0  0  0
  189.6130  173.8040  141.8100 C   0  0  1  0  0  3  0  0  0  0  0  0
  190.4590  175.3220  145.1800 C   0  0  1  0  0  3  0  0  0  0  0  0
  190.9710  176.7910  147.0280 N   0  0  0  0  0  0  0  0  0  0  0  0
  188.7990  174.8130  141.0030 C   0  0  1  0  0  3  0  0  0  0  0  0
  187.0730  176.6170  141.4200 C   0  0  0  0  0  0  0  0  0  0  0  0
  189.9770  176.2970  146.1490 C   0  0  0  0  0  0  0  0  0  0  0  0
  189.7810  175.0810  144.0440 C   0  0  2  0  0  3  0  0  0  0  0  0
  185.5980  179.3710  145.8640 C   0  0  0  0  0  2  0  0  0  0  0  0
  188.6100  174.1730  139.6490 C   0  0  0  0  0  2  0  0  0  0  0  0
  190.4090  172.9920  140.8030 C   0  0  0  0  0  2  0  0  0  0  0  0
  193.3410  176.5760  147.2630 C   0  0  0  0  0  1  0  0  0  0  0  0
  186.3150  177.5480  147.4080 C   0  0  0  0  0  1  0  0  0  0  0  0
  186.0860  178.3900  142.9290 C   0  0  1  0  0  3  0  0  0  0  0  0
  184.7650  179.7910  144.6390 C   0  0  0  0  0  2  0  0  0  0  0  0
  192.2010  176.1200  146.7710 C   0  0  0  0  0  0  0  0  0  0  0  0
  186.6710  177.2770  144.8600 C   0  0  1  0  0  3  0  0  0  0  0  0
  187.4130  174.8560  143.1380 C   0  0  0  0  0  2  0  0  0  0  0  0
  187.7700  177.3640  140.6790 O   0  0  0  0  0  0  0  0  0  0  0  0
  187.4420  175.1680  141.6370 C   0  0  2  0  0  3  0  0  0  0  0  0
  189.8460  173.3220  139.4290 C   0  0  0  0  0  2  0  0  0  0  0  0
  191.4520  175.5050  142.2280 C   0  0  0  0  0  1  0  0  0  0  0  0
  184.7080  178.7680  143.4970 C   0  0  0  0  0  2  0  0  0  0  0  0
  187.0870  178.2550  143.9270 O   0  0  0  0  0  0  0  0  0  0  0  0
  190.5160  174.4760  142.8590 C   0  0  2  0  0  3  0  0  0  0  0  0
  1  5  1  1  0  0  0
  2 18  1  1  0  0  0
  3 19  1  0  0  0  0
  4 23  1  1  0  0  0
  4 13  1  0  0  0  0
  4  1  1  0  0  0  0
  5 12  2  0  0  0  0
  6 21  1  0  0  0  0
  7 16  1  6  0  0  0
  7 30  1  0  0  0  0
  8  6  1  6  0  0  0
  8 12  1  0  0  0  0
 10 15  1  6  0  0  0
 10 25  1  0  0  0  0
 10  7  1  0  0  0  0
 11 25  1  0  0  0  0
 11  3  1  0  0  0  0
 12  9  1  0  0  0  0
 13  8  1  0  0  0  0
 14  2  1  0  0  0  0
 19 28  1  0  0  0  0
 19 29  1  0  0  0  0
 20 14  1  0  0  0  0
 21  9  2  0  0  0  0
 21 17  1  0  0  0  0
 22  1  1  0  0  0  0
 22  2  1  0  0  0  0
 24 11  2  0  0  0  0
 25 23  1  0  0  0  0
 26 15  1  0  0  0  0
 26 16  1  0  0  0  0
 27 30  1  0  0  0  0
 28 20  1  0  0  0  0
 29 22  1  0  0  0  0
 30 13  1  0  0  0  0
M  END
>  <MODEL>
4

>  <REMARK>
 VINA RESULT:      -8.5      1.896      5.102
  Name = 
  0 active torsions:
  status: ('A' for Active; 'I' for Inactive)
                            x       y       z     vdW  Elec       q    Type
                         _______ _______ _______ _____ _____    ______ ____

>  <TORSDO>
F 0

$$$$
=
 OpenBabel11052417193D

 30 35  0  0  1  0  0  0  0  0999 V2000
  190.1130  174.1820  144.5830 C   0  0  1  0  0  3  0  0  0  0  0  0
  188.7600  175.6610  146.3540 C   0  0  2  0  0  3  0  0  0  0  0  0
  187.1620  175.3510  142.7710 N   0  0  0  0  0  2  0  0  0  0  0  0
  190.0860  173.8070  143.0870 C   0  0  1  0  0  3  0  0  0  0  0  0
  191.4340  174.6630  144.9930 N   0  0  0  0  0  0  0  0  0  0  0  0
  194.1390  172.8300  142.7750 S   0  0  0  0  0  0  0  0  0  0  0  0
  190.1860  172.1050  140.5320 C   0  0  1  0  0  3  0  0  0  0  0  0
  192.4840  173.3020  143.2990 C   0  0  1  0  0  3  0  0  0  0  0  0
  193.8060  174.5920  144.8560 N   0  0  0  0  0  2  0  0  0  0  0  0
  189.1260  173.1740  140.2730 C   0  0  1  0  0  3  0  0  0  0  0  0
  187.8160  174.8970  141.5850 C   0  0  0  0  0  0  0  0  0  0  0  0
  192.5110  174.1690  144.4700 C   0  0  0  0  0  0  0  0  0  0  0  0
  191.3650  173.1610  142.5670 C   0  0  2  0  0  3  0  0  0  0  0  0
  188.5490  177.1750  146.4610 C   0  0  0  0  0  2  0  0  0  0  0  0
  188.3360  172.6660  139.0900 C   0  0  0  0  0  2  0  0  0  0  0  0
  190.4270  171.4100  139.2030 C   0  0  0  0  0  2  0  0  0  0  0  0
  196.0260  174.3980  143.9880 C   0  0  0  0  0  2  0  0  0  0  0  0
  189.8290  175.2240  147.3420 C   0  0  0  0  0  1  0  0  0  0  0  0
  187.6530  176.4960  143.5370 C   0  0  1  0  0  3  0  0  0  0  0  0
  187.2700  177.6980  145.7820 C   0  0  0  0  0  2  0  0  0  0  0  0
  194.7740  173.9720  144.0150 C   0  0  0  0  0  0  0  0  0  0  0  0
  189.0050  175.2090  144.8890 C   0  0  1  0  0  3  0  0  0  0  0  0
  188.8360  172.9830  142.7940 C   0  0  0  0  0  2  0  0  0  0  0  0
  188.1300  175.7240  140.6860 O   0  0  0  0  0  0  0  0  0  0  0  0
  188.2030  173.4400  141.4750 C   0  0  2  0  0  3  0  0  0  0  0  0
  189.3210  171.8630  138.2630 C   0  0  0  0  0  2  0  0  0  0  0  0
  192.0650  173.7900  140.2470 C   0  0  0  0  0  1  0  0  0  0  0  0
  186.6820  176.7910  144.6930 C   0  0  0  0  0  2  0  0  0  0  0  0
  188.9890  176.2810  143.9660 O   0  0  0  0  0  0  0  0  0  0  0  0
  191.4790  172.6870  141.1270 C   0  0  2  0  0  3  0  0  0  0  0  0
  1 22  1  0  0  0  0
  1  5  1  6  0  0  0
  2 14  1  0  0  0  0
  2 18  1  1  0  0  0
  3 19  1  0  0  0  0
  4 23  1  1  0  0  0
  4  1  1  0  0  0  0
  6 21  1  0  0  0  0
  7 16  1  6  0  0  0
  7 30  1  0  0  0  0
  8  6  1  6  0  0  0
  8 12  1  0  0  0  0
 10 15  1  6  0  0  0
 10  7  1  0  0  0  0
 10 25  1  0  0  0  0
 11  3  1  0  0  0  0
 12  9  1  0  0  0  0
 12  5  2  0  0  0  0
 13  4  1  0  0  0  0
 13  8  1  0  0  0  0
 17 21  2  0  0  0  0
 19 29  1  0  0  0  0
 19 28  1  0  0  0  0
 20 14  1  0  0  0  0
 21  9  1  0  0  0  0
 22  2  1  0  0  0  0
 24 11  2  0  0  0  0
 25 11  1  0  0  0  0
 25 23  1  0  0  0  0
 26 15  1  0  0  0  0
 26 16  1  0  0  0  0
 27 30  1  0  0  0  0
 28 20  1  0  0  0  0
 29 22  1  0  0  0  0
 30 13  1  0  0  0  0
M  END
>  <MODEL>
5

>  <REMARK>
 VINA RESULT:      -7.7      2.669      5.836
  Name = 
  0 active torsions:
  status: ('A' for Active; 'I' for Inactive)
                            x       y       z     vdW  Elec       q    Type
                         _______ _______ _______ _____ _____    ______ ____

>  <TORSDO>
F 0

$$$$
=
 OpenBabel11052417193D

 30 35  0  0  1  0  0  0  0  0999 V2000
  189.0500  173.9190  141.9810 C   0  0  1  0  0  3  0  0  0  0  0  0
  189.7610  172.5980  139.7670 C   0  0  2  0  0  3  0  0  0  0  0  0
  192.6020  173.1790  142.4270 N   0  0  0  0  0  2  0  0  0  0  0  0
  189.6810  174.5340  143.2480 C   0  0  1  0  0  3  0  0  0  0  0  0
  188.1890  174.8810  141.2890 N   0  0  0  0  0  0  0  0  0  0  0  0
  186.6310  177.2920  144.0010 S   0  0  0  0  0  0  0  0  0  0  0  0
  190.1200  175.2500  146.2020 C   0  0  1  0  0  3  0  0  0  0  0  0
  187.7010  175.9860  143.3780 C   0  0  1  0  0  3  0  0  0  0  0  0
  186.6350  176.6790  141.3240 N   0  0  0  0  0  0  0  0  0  0  0  0
  191.5160  175.0470  145.6170 C   0  0  1  0  0  3  0  0  0  0  0  0
  192.5690  174.1010  143.5190 C   0  0  0  0  0  0  0  0  0  0  0  0
  187.4950  175.7490  141.9550 C   0  0  0  0  0  0  0  0  0  0  0  0
  188.7730  175.4860  144.0170 C   0  0  2  0  0  3  0  0  0  0  0  0
  190.6180  173.0160  138.5660 C   0  0  0  0  0  2  0  0  0  0  0  0
  192.4230  174.8760  146.8130 C   0  0  0  0  0  2  0  0  0  0  0  0
  190.3180  175.8410  147.5870 C   0  0  0  0  0  2  0  0  0  0  0  0
  185.5130  178.6990  141.9380 C   0  0  0  0  0  1  0  0  0  0  0  0
  188.2900  172.6850  139.3980 C   0  0  0  0  0  1  0  0  0  0  0  0
  192.4450  173.6140  141.0400 C   0  0  1  0  0  3  0  0  0  0  0  0
  192.1090  172.6450  138.6780 C   0  0  0  0  0  2  0  0  0  0  0  0
  186.1210  177.5810  142.2980 C   0  0  0  0  0  0  0  0  0  0  0  0
  190.1540  173.3660  141.0580 C   0  0  1  0  0  3  0  0  0  0  0  0
  190.2570  173.4210  144.1170 C   0  0  0  0  0  2  0  0  0  0  0  0
  193.2640  175.1530  143.4720 O   0  0  0  0  0  0  0  0  0  0  0  0
  191.6250  173.8390  144.6690 C   0  0  2  0  0  3  0  0  0  0  0  0
  191.7970  175.7080  147.9150 C   0  0  0  0  0  2  0  0  0  0  0  0
  189.8730  177.4920  145.0360 C   0  0  0  0  0  1  0  0  0  0  0  0
  192.6250  172.4080  140.1030 C   0  0  0  0  0  2  0  0  0  0  0  0
  191.2080  174.2870  140.8580 O   0  0  0  0  0  0  0  0  0  0  0  0
  189.2300  176.1350  145.3140 C   0  0  2  0  0  3  0  0  0  0  0  0
  1  5  1  6  0  0  0
  1  4  1  0  0  0  0
  2 18  1  6  0  0  0
  2 22  1  0  0  0  0
  3 11  1  0  0  0  0
  4 13  1  0  0  0  0
  4 23  1  1  0  0  0
  5 12  2  0  0  0  0
  7 16  1  1  0  0  0
  8 12  1  6  0  0  0
  8  6  1  0  0  0  0
  8 13  1  0  0  0  0
  9 12  1  0  0  0  0
  9 21  2  0  0  0  0
 10  7  1  0  0  0  0
 10 15  1  1  0  0  0
 11 25  1  0  0  0  0
 13 30  1  0  0  0  0
 14 20  1  0  0  0  0
 14  2  1  0  0  0  0
 15 26  1  0  0  0  0
 16 26  1  0  0  0  0
 17 21  1  0  0  0  0
 19  3  1  0  0  0  0
 20 28  1  0  0  0  0
 21  6  1  0  0  0  0
 22  1  1  0  0  0  0
 23 25  1  0  0  0  0
 24 11  2  0  0  0  0
 25 10  1  0  0  0  0
 27 30  1  0  0  0  0
 28 19  1  0  0  0  0
 29 19  1  0  0  0  0
 29 22  1  0  0  0  0
 30  7  1  0  0  0  0
M  END
>  <MODEL>
6

>  <REMARK>
 VINA RESULT:      -7.7      2.667      5.758
  Name = 
  0 active torsions:
  status: ('A' for Active; 'I' for Inactive)
                            x       y       z     vdW  Elec       q    Type
                         _______ _______ _______ _____ _____    ______ ____

>  <TORSDO>
F 0

$$$$
=
 OpenBabel11052417193D

 30 35  0  0  1  0  0  0  0  0999 V2000
  190.8970  176.3610  143.3900 C   0  0  1  0  0  3  0  0  0  0  0  0
  192.4180  174.8500  141.7920 C   0  0  2  0  0  3  0  0  0  0  0  0
  188.5690  174.9090  140.9750 N   0  0  0  0  0  2  0  0  0  0  0  0
  189.4110  176.6790  143.6570 C   0  0  1  0  0  3  0  0  0  0  0  0
  191.5980  175.9960  144.6230 N   0  0  0  0  0  0  0  0  0  0  0  0
  189.9070  177.9460  147.6110 S   0  0  0  0  0  0  0  0  0  0  0  0
  186.8500  178.2910  144.1860 C   0  0  1  0  0  3  0  0  0  0  0  0
  190.0950  177.3710  145.9160 C   0  0  1  0  0  3  0  0  0  0  0  0
  191.9580  176.2400  146.9590 N   0  0  0  0  0  0  0  0  0  0  0  0
  186.4300  177.1370  143.2780 C   0  0  1  0  0  3  0  0  0  0  0  0
  187.5250  175.3690  141.8350 C   0  0  0  0  0  0  0  0  0  0  0  0
  191.2880  176.5510  145.7510 C   0  0  0  0  0  0  0  0  0  0  0  0
  189.1390  177.4010  144.9720 C   0  0  2  0  0  3  0  0  0  0  0  0
  192.5560  173.3280  141.6630 C   0  0  0  0  0  2  0  0  0  0  0  0
  185.0840  177.5410  142.7260 C   0  0  0  0  0  2  0  0  0  0  0  0
  185.5680  178.9540  144.6580 C   0  0  0  0  0  2  0  0  0  0  0  0
  191.5660  176.5690  149.2950 C   0  0  0  0  0  1  0  0  0  0  0  0
  193.5840  175.4010  142.5950 C   0  0  0  0  0  1  0  0  0  0  0  0
  189.4780  173.8330  141.3660 C   0  0  1  0  0  3  0  0  0  0  0  0
  191.6510  172.6870  140.5950 C   0  0  0  0  0  2  0  0  0  0  0  0
  191.3090  176.9010  148.0410 C   0  0  0  0  0  0  0  0  0  0  0  0
  191.0160  175.2650  142.3130 C   0  0  1  0  0  3  0  0  0  0  0  0
  188.8220  177.3960  142.4470 C   0  0  0  0  0  2  0  0  0  0  0  0
  186.7550  174.5350  142.3870 O   0  0  0  0  0  0  0  0  0  0  0  0
  187.4240  176.8450  142.1390 C   0  0  2  0  0  3  0  0  0  0  0  0
  184.4410  178.3860  143.8090 C   0  0  0  0  0  2  0  0  0  0  0  0
  187.0520  176.7430  146.1890 C   0  0  0  0  0  1  0  0  0  0  0  0
  190.4190  173.5070  140.1940 C   0  0  0  0  0  2  0  0  0  0  0  0
  190.1670  174.1630  142.5640 O   0  0  0  0  0  0  0  0  0  0  0  0
  187.7320  177.8290  145.3580 C   0  0  2  0  0  3  0  0  0  0  0  0
  1  4  1  0  0  0  0
  1  5  1  1  0  0  0
  2 22  1  0  0  0  0
  2 18  1  1  0  0  0
  3 19  1  0  0  0  0
  3 11  1  0  0  0  0
  4 23  1  6  0  0  0
  4 13  1  0  0  0  0
  5 12  2  0  0  0  0
  6 21  1  0  0  0  0
  7 16  1  1  0  0  0
  7 30  1  0  0  0  0
  8 12  1  1  0  0  0
  8  6  1  0  0  0  0
  9 21  2  0  0  0  0
 10 15  1  6  0  0  0
 10  7  1  0  0  0  0
 11 25  1  0  0  0  0
 11 24  2  0  0  0  0
 12  9  1  0  0  0  0
 13 30  1  0  0  0  0
 13  8  1  0  0  0  0
 14  2  1  0  0  0  0
 15 26  1  0  0  0  0
 19 29  1  0  0  0  0
 20 14  1  0  0  0  0
 21 17  1  0  0  0  0
 22 29  1  0  0  0  0
 22  1  1  0  0  0  0
 25 23  1  0  0  0  0
 25 10  1  0  0  0  0
 26 16  1  0  0  0  0
 28 20  1  0  0  0  0
 28 19  1  0  0  0  0
 30 27  1  0  0  0  0
M  END
>  <MODEL>
7

>  <REMARK>
 VINA RESULT:      -7.7      2.648      6.623
  Name = 
  0 active torsions:
  status: ('A' for Active; 'I' for Inactive)
                            x       y       z     vdW  Elec       q    Type
                         _______ _______ _______ _____ _____    ______ ____

>  <TORSDO>
F 0

$$$$
=
 OpenBabel11052417193D

 30 35  0  0  1  0  0  0  0  0999 V2000
  189.9450  175.1200  144.6040 C   0  0  1  0  0  3  0  0  0  0  0  0
  187.9550  176.5570  145.6640 C   0  0  2  0  0  3  0  0  0  0  0  0
  187.2050  174.8490  142.2000 N   0  0  0  0  0  2  0  0  0  0  0  0
  190.3010  174.3670  143.3050 C   0  0  1  0  0  3  0  0  0  0  0  0
  191.0030  176.0560  144.9890 N   0  0  0  0  0  0  0  0  0  0  0  0
  194.4510  174.5680  143.7680 S   0  0  0  0  0  0  0  0  0  0  0  0
  191.3070  172.1490  141.4320 C   0  0  1  0  0  3  0  0  0  0  0  0
  192.6610  174.6580  143.9310 C   0  0  1  0  0  3  0  0  0  0  0  0
  193.3000  176.6440  145.1470 N   0  0  0  0  0  2  0  0  0  0  0  0
  190.0870  172.7520  140.7370 C   0  0  1  0  0  3  0  0  0  0  0  0
  188.1670  174.3040  141.2940 C   0  0  0  0  0  0  0  0  0  0  0  0
  192.2490  175.7760  144.7700 C   0  0  0  0  0  0  0  0  0  0  0  0
  191.7750  174.0070  143.1580 C   0  0  2  0  0  3  0  0  0  0  0  0
  187.3630  177.9160  145.2710 C   0  0  0  0  0  2  0  0  0  0  0  0
  189.6900  171.7390  139.6900 C   0  0  0  0  0  2  0  0  0  0  0  0
  191.9630  171.2260  140.4210 C   0  0  0  0  0  2  0  0  0  0  0  0
  195.6240  176.8820  144.6370 C   0  0  0  0  0  2  0  0  0  0  0  0
  188.8860  176.7320  146.8520 C   0  0  0  0  0  1  0  0  0  0  0  0
  187.2430  176.2480  142.6220 C   0  0  1  0  0  3  0  0  0  0  0  0
  186.1500  177.8410  144.3240 C   0  0  0  0  0  2  0  0  0  0  0  0
  194.5340  176.1320  144.6550 C   0  0  0  0  0  0  0  0  0  0  0  0
  188.5820  175.8220  144.4490 C   0  0  1  0  0  3  0  0  0  0  0  0
  189.3720  173.1670  143.1440 C   0  0  0  0  0  2  0  0  0  0  0  0
  188.4370  174.9160  140.2240 O   0  0  0  0  0  0  0  0  0  0  0  0
  188.9130  173.0500  141.6860 C   0  0  2  0  0  3  0  0  0  0  0  0
  190.9830  171.0670  139.2690 C   0  0  0  0  0  2  0  0  0  0  0  0
  192.7340  174.1680  140.8510 C   0  0  0  0  0  1  0  0  0  0  0  0
  186.0250  176.5460  143.5130 C   0  0  0  0  0  2  0  0  0  0  0  0
  188.4820  176.5550  143.2440 O   0  0  0  0  0  0  0  0  0  0  0  0
  192.2770  173.2200  141.9580 C   0  0  2  0  0  3  0  0  0  0  0  0
  1  5  1  6  0  0  0
  2 18  1  1  0  0  0
  3 19  1  0  0  0  0
  4 23  1  1  0  0  0
  4  1  1  0  0  0  0
  6 21  1  0  0  0  0
  7 16  1  6  0  0  0
  7 30  1  0  0  0  0
  8  6  1  6  0  0  0
  8 12  1  0  0  0  0
 10 15  1  6  0  0  0
 10  7  1  0  0  0  0
 10 25  1  0  0  0  0
 11 25  1  0  0  0  0
 11  3  1  0  0  0  0
 12  5  2  0  0  0  0
 12  9  1  0  0  0  0
 13  4  1  0  0  0  0
 13  8  1  0  0  0  0
 14  2  1  0  0  0  0
 17 21  2  0  0  0  0
 19 29  1  0  0  0  0
 19 28  1  0  0  0  0
 20 14  1  0  0  0  0
 21  9  1  0  0  0  0
 22  1  1  0  0  0  0
 22  2  1  0  0  0  0
 24 11  2  0  0  0  0
 25 23  1  0  0  0  0
 26 15  1  0  0  0  0
 26 16  1  0  0  0  0
 27 30  1  0  0  0  0
 28 20  1  0  0  0  0
 29 22  1  0  0  0  0
 30 13  1  0  0  0  0
M  END
>  <MODEL>
8

>  <REMARK>
 VINA RESULT:      -7.6      2.649      5.586
  Name = 
  0 active torsions:
  status: ('A' for Active; 'I' for Inactive)
                            x       y       z     vdW  Elec       q    Type
                         _______ _______ _______ _____ _____    ______ ____

>  <TORSDO>
F 0

$$$$
=
 OpenBabel11052417193D

 30 35  0  0  1  0  0  0  0  0999 V2000
  189.0400  175.0620  143.8600 C   0  0  1  0  0  3  0  0  0  0  0  0
  191.4500  173.9040  143.8860 C   0  0  2  0  0  3  0  0  0  0  0  0
  190.5950  176.1980  146.9660 N   0  0  0  0  0  2  0  0  0  0  0  0
  188.2150  176.1000  144.6500 C   0  0  1  0  0  3  0  0  0  0  0  0
  189.0560  175.3670  142.4270 N   0  0  0  0  0  0  0  0  0  0  0  0
  185.6450  177.1390  141.5200 S   0  0  0  0  0  0  0  0  0  0  0  0
  185.8500  177.4050  146.1110 C   0  0  1  0  0  3  0  0  0  0  0  0
  186.8940  176.4240  142.6010 C   0  0  1  0  0  3  0  0  0  0  0  0
  187.9910  176.1790  140.4640 N   0  0  0  0  0  2  0  0  0  0  0  0
  187.0940  177.8050  146.9030 C   0  0  1  0  0  3  0  0  0  0  0  0
  189.5350  177.1540  147.0460 C   0  0  0  0  0  0  0  0  0  0  0  0
  188.0220  175.8910  141.8490 C   0  0  0  0  0  0  0  0  0  0  0  0
  186.9720  176.6100  143.9300 C   0  0  2  0  0  3  0  0  0  0  0  0
  192.8560  174.4810  143.6790 C   0  0  0  0  0  2  0  0  0  0  0  0
  186.5730  178.2850  148.2370 C   0  0  0  0  0  2  0  0  0  0  0  0
  184.7050  178.2350  146.6650 C   0  0  0  0  0  2  0  0  0  0  0  0
  186.6320  177.4840  138.9910 C   0  0  0  0  0  2  0  0  0  0  0  0
  190.9900  173.2140  142.6120 C   0  0  0  0  0  1  0  0  0  0  0  0
  191.6310  176.2730  145.9380 C   0  0  1  0  0  3  0  0  0  0  0  0
  193.5800  174.8940  144.9740 C   0  0  0  0  0  2  0  0  0  0  0  0
  186.7850  176.8690  140.1520 C   0  0  0  0  0  0  0  0  0  0  0  0
  190.4630  174.9640  144.4440 C   0  0  1  0  0  3  0  0  0  0  0  0
  187.9200  175.5560  146.0440 C   0  0  0  0  0  2  0  0  0  0  0  0
  189.7990  178.3860  147.0010 O   0  0  0  0  0  0  0  0  0  0  0  0
  188.1070  176.6610  147.0900 C   0  0  2  0  0  3  0  0  0  0  0  0
  185.2100  178.8810  147.9460 C   0  0  0  0  0  2  0  0  0  0  0  0
  186.4210  179.0320  144.2460 C   0  0  0  0  0  1  0  0  0  0  0  0
  192.6720  175.1670  146.1800 C   0  0  0  0  0  2  0  0  0  0  0  0
  191.0580  176.2310  144.6390 O   0  0  0  0  0  0  0  0  0  0  0  0
  186.0280  177.5980  144.5960 C   0  0  2  0  0  3  0  0  0  0  0  0
  1  5  1  6  0  0  0
  1 22  1  0  0  0  0
  1  4  1  0  0  0  0
  2 18  1  6  0  0  0
  2 22  1  0  0  0  0
  3 11  1  0  0  0  0
  4 23  1  1  0  0  0
  7 16  1  1  0  0  0
  7 10  1  0  0  0  0
  8  6  1  6  0  0  0
  8 13  1  0  0  0  0
  9 12  1  0  0  0  0
 10 25  1  0  0  0  0
 10 15  1  1  0  0  0
 11 25  1  0  0  0  0
 12  5  2  0  0  0  0
 12  8  1  0  0  0  0
 13 30  1  0  0  0  0
 13  4  1  0  0  0  0
 14  2  1  0  0  0  0
 14 20  1  0  0  0  0
 16 26  1  0  0  0  0
 17 21  2  0  0  0  0
 19 28  1  0  0  0  0
 19  3  1  0  0  0  0
 20 28  1  0  0  0  0
 21  9  1  0  0  0  0
 21  6  1  0  0  0  0
 22 29  1  0  0  0  0
 23 25  1  0  0  0  0
 24 11  2  0  0  0  0
 26 15  1  0  0  0  0
 27 30  1  0  0  0  0
 29 19  1  0  0  0  0
 30  7  1  0  0  0  0
M  END
>  <MODEL>
9

>  <REMARK>
 VINA RESULT:      -7.4      2.450      5.568
  Name = 
  0 active torsions:
  status: ('A' for Active; 'I' for Inactive)
                            x       y       z     vdW  Elec       q    Type
                         _______ _______ _______ _____ _____    ______ ____

>  <TORSDO>
F 0

$$$$
