=
 OpenBabel11052420213D

 34 40  0  0  1  0  0  0  0  0999 V2000
  192.4350  174.2940  143.3660 O   0  0  0  0  0  0  0  0  0  0  0  0
  194.9820  176.7860  145.9210 O   0  0  0  0  0  0  0  0  0  0  0  0
  192.8610  176.3090  146.9850 C   0  0  0  0  0  2  0  0  0  0  0  0
  192.5380  174.7890  144.5190 C   0  0  0  0  0  0  0  0  0  0  0  0
  189.5330  176.2240  146.3390 C   0  0  2  0  0  3  0  0  0  0  0  0
  189.3220  175.1190  147.1890 O   0  0  0  0  0  0  0  0  0  0  0  0
  190.2010  175.7910  145.0290 C   0  0  2  0  0  3  0  0  0  0  0  0
  191.7110  175.2820  146.8910 C   0  0  2  0  0  3  0  0  0  0  0  0
  191.3570  174.8790  145.4480 C   0  0  2  0  0  3  0  0  0  0  0  0
  190.4510  175.9170  147.4650 C   0  0  1  0  0  3  0  0  0  0  0  0
  194.1310  175.7650  146.3220 C   0  0  1  0  0  0  0  0  0  0  0  0
  194.6940  176.3690  144.6280 C   0  0  1  0  0  0  0  0  0  0  0  0
  193.7780  175.2850  144.9900 N   0  0  0  0  0  0  0  0  0  0  0  0
  190.6550  177.0620  144.2930 C   0  0  2  0  0  3  0  0  0  0  0  0
  189.6890  177.5830  143.2080 C   0  0  1  0  0  3  0  0  0  0  0  0
  190.9100  176.7620  142.8320 C   0  0  0  0  0  2  0  0  0  0  0  0
  188.5770  175.4790  142.7310 O   0  0  0  0  0  1  0  0  0  0  0  0
  188.4640  176.7850  143.0760 N   0  0  0  0  0  0  0  0  0  0  0  0
  186.8780  178.4270  141.3170 F   0  0  0  0  0  0  0  0  0  0  0  0
  185.3890  177.4890  145.0830 C   0  0  0  0  0  0  0  0  0  0  0  0
  186.6470  177.0130  144.7010 C   0  0  0  0  0  3  0  0  0  0  0  0
  187.1620  177.2920  143.4270 C   0  0  0  0  0  0  0  0  0  0  0  0
  185.1460  178.5630  142.9290 C   0  0  0  0  0  3  0  0  0  0  0  0
  186.4010  178.0810  142.5390 C   0  0  0  0  0  0  0  0  0  0  0  0
  184.6400  178.2670  144.1980 C   0  0  0  0  0  3  0  0  0  0  0  0
  184.8610  177.1950  146.4450 C   0  0  0  0  0  2  0  0  0  0  0  0
  185.8010  179.0440  147.5200 C   0  0  0  0  0  1  0  0  0  0  0  0
  184.5400  178.4330  147.1340 N   0  0  0  0  0  2  0  0  0  0  0  0
  196.6790  176.7360  143.1000 S   0  0  0  0  0  0  0  0  0  0  0  0
  195.9180  175.8430  143.9230 C   0  0  0  0  0  0  0  0  0  0  0  0
  196.3020  174.3920  143.9800 C   0  0  0  0  0  2  0  0  0  0  0  0
  197.4080  174.1370  144.9950 C   0  0  0  0  0  2  0  0  0  0  0  0
  196.9140  173.2750  146.1100 C   0  0  0  0  0  3  0  0  0  0  0  0
  196.8660  171.9550  145.9570 C   0  0  0  0  0  2  0  0  0  0  0  0
  1  4  2  0  0  0  0
  2 11  1  0  0  0  0
  4 13  1  0  0  0  0
  5  6  1  1  0  0  0
  5 10  1  0  0  0  0
  7 14  1  1  0  0  0
  7  9  1  0  0  0  0
  7  5  1  0  0  0  0
  8  3  1  6  0  0  0
  8 10  1  0  0  0  0
  9  4  1  6  0  0  0
  9  8  1  0  0  0  0
 10  6  1  1  0  0  0
 11  3  1  6  0  0  0
 12 30  1  1  0  0  0
 12 13  1  0  0  0  0
 12  2  1  0  0  0  0
 12 11  1  0  0  0  0
 13 11  1  0  0  0  0
 14 16  1  6  0  0  0
 15 18  1  1  0  0  0
 15 14  1  0  0  0  0
 16 15  1  0  0  0  0
 17 18  1  0  0  0  0
 18 22  1  0  0  0  0
 19 24  1  0  0  0  0
 20 26  1  0  0  0  0
 21 20  1  0  0  0  0
 22 21  2  0  0  0  0
 23 25  1  0  0  0  0
 24 23  2  0  0  0  0
 24 22  1  0  0  0  0
 25 20  2  0  0  0  0
 26 28  1  0  0  0  0
 28 27  1  0  0  0  0
 29 30  2  0  0  0  0
 30 31  1  0  0  0  0
 31 32  1  0  0  0  0
 32 33  1  0  0  0  0
 34 33  2  0  0  0  0
M  END
>  <MODEL>
1

>  <REMARK>
 VINA RESULT:      -7.8      0.000      0.000
  Name = 
  9 active torsions:
  status: ('A' for Active; 'I' for Inactive)
    1  A    between atoms: C_3  and  C_24
    2  A    between atoms: C_7  and  C_15
    3  A    between atoms: C_8  and  C_17
    4  A    between atoms: C_15  and  N_21
    5  A    between atoms: C_16  and  N_31
    6  A    between atoms: C_18  and  N_31
    7  A    between atoms: C_24  and  C_25
    8  A    between atoms: C_25  and  C_27
    9  A    between atoms: C_27  and  C_33
                            x       y       z     vdW  Elec       q    Type
                         _______ _______ _______ _____ _____    ______ ____

>  <TORSDO>
F 9

$$$$
=
 OpenBabel11052420213D

 34 40  0  0  1  0  0  0  0  0999 V2000
  190.4310  178.2550  143.5340 O   0  0  0  0  0  0  0  0  0  0  0  0
  186.6270  176.4050  144.6890 O   0  0  0  0  0  0  0  0  0  0  0  0
  188.3480  175.9910  146.3400 C   0  0  0  0  0  2  0  0  0  0  0  0
  189.8370  177.6600  144.4710 C   0  0  0  0  0  0  0  0  0  0  0  0
  191.5980  175.0610  146.6020 C   0  0  2  0  0  3  0  0  0  0  0  0
  191.8240  175.8980  147.7150 O   0  0  0  0  0  0  0  0  0  0  0  0
  191.5240  175.8770  145.3070 C   0  0  2  0  0  3  0  0  0  0  0  0
  189.7030  176.5810  146.7880 C   0  0  2  0  0  3  0  0  0  0  0  0
  190.5920  177.0490  145.6210 C   0  0  2  0  0  3  0  0  0  0  0  0
  190.4920  175.4870  147.4970 C   0  0  1  0  0  3  0  0  0  0  0  0
  187.5530  177.0160  145.5240 C   0  0  1  0  0  0  0  0  0  0  0  0
  187.4110  176.8870  143.6490 C   0  0  1  0  0  0  0  0  0  0  0  0
  188.4260  177.5400  144.4790 N   0  0  0  0  0  0  0  0  0  0  0  0
  190.9970  174.9500  144.1990 C   0  0  2  0  0  3  0  0  0  0  0  0
  192.0390  173.9980  143.5770 C   0  0  1  0  0  3  0  0  0  0  0  0
  191.6480  175.2870  142.8760 C   0  0  0  0  0  2  0  0  0  0  0  0
  193.6970  173.2970  145.2050 O   0  0  0  0  0  1  0  0  0  0  0  0
  193.3760  174.1140  144.1730 N   0  0  0  0  0  0  0  0  0  0  0  0
  194.7410  176.1430  145.6980 F   0  0  0  0  0  0  0  0  0  0  0  0
  195.7240  175.6340  141.6920 C   0  0  0  0  0  0  0  0  0  0  0  0
  194.7350  174.8290  142.2670 C   0  0  0  0  0  3  0  0  0  0  0  0
  194.4030  174.9620  143.6230 C   0  0  0  0  0  0  0  0  0  0  0  0
  196.0480  176.7450  143.8150 C   0  0  0  0  0  3  0  0  0  0  0  0
  195.0660  175.9360  144.3980 C   0  0  0  0  0  0  0  0  0  0  0  0
  196.3770  176.5940  142.4660 C   0  0  0  0  0  3  0  0  0  0  0  0
  196.0570  175.4900  140.2460 C   0  0  0  0  0  2  0  0  0  0  0  0
  197.7500  175.3460  138.6430 C   0  0  0  0  0  1  0  0  0  0  0  0
  197.4940  175.5780  140.0550 N   0  0  0  0  0  2  0  0  0  0  0  0
  186.4340  177.5820  141.4200 S   0  0  0  0  0  0  0  0  0  0  0  0
  186.6670  177.8860  142.8010 C   0  0  0  0  0  0  0  0  0  0  0  0
  186.2530  179.2260  143.3370 C   0  0  0  0  0  2  0  0  0  0  0  0
  184.8130  179.2180  143.8330 C   0  0  0  0  0  2  0  0  0  0  0  0
  184.7650  179.3650  145.3190 C   0  0  0  0  0  3  0  0  0  0  0  0
  184.1150  178.4670  146.0530 C   0  0  0  0  0  2  0  0  0  0  0  0
  1  4  2  0  0  0  0
  2 11  1  0  0  0  0
  4 13  1  0  0  0  0
  5 10  1  0  0  0  0
  5  6  1  1  0  0  0
  7 14  1  6  0  0  0
  7  9  1  0  0  0  0
  7  5  1  0  0  0  0
  8  3  1  6  0  0  0
  8 10  1  0  0  0  0
  9  4  1  6  0  0  0
  9  8  1  0  0  0  0
 10  6  1  1  0  0  0
 11  3  1  1  0  0  0
 12 30  1  6  0  0  0
 12 13  1  0  0  0  0
 12  2  1  0  0  0  0
 12 11  1  0  0  0  0
 13 11  1  0  0  0  0
 14 16  1  6  0  0  0
 15 18  1  1  0  0  0
 15 14  1  0  0  0  0
 16 15  1  0  0  0  0
 18 17  1  0  0  0  0
 20 21  2  0  0  0  0
 20 25  1  0  0  0  0
 21 22  1  0  0  0  0
 22 18  1  0  0  0  0
 22 24  2  0  0  0  0
 23 24  1  0  0  0  0
 24 19  1  0  0  0  0
 25 23  2  0  0  0  0
 26 20  1  0  0  0  0
 27 28  1  0  0  0  0
 28 26  1  0  0  0  0
 29 30  2  0  0  0  0
 30 31  1  0  0  0  0
 31 32  1  0  0  0  0
 32 33  1  0  0  0  0
 33 34  2  0  0  0  0
M  END
>  <MODEL>
2

>  <REMARK>
 VINA RESULT:      -7.4      3.234      8.749
  Name = 
  9 active torsions:
  status: ('A' for Active; 'I' for Inactive)
    1  A    between atoms: C_3  and  C_24
    2  A    between atoms: C_7  and  C_15
    3  A    between atoms: C_8  and  C_17
    4  A    between atoms: C_15  and  N_21
    5  A    between atoms: C_16  and  N_31
    6  A    between atoms: C_18  and  N_31
    7  A    between atoms: C_24  and  C_25
    8  A    between atoms: C_25  and  C_27
    9  A    between atoms: C_27  and  C_33
                            x       y       z     vdW  Elec       q    Type
                         _______ _______ _______ _____ _____    ______ ____

>  <TORSDO>
F 9

$$$$
=
 OpenBabel11052420213D

 34 40  0  0  1  0  0  0  0  0999 V2000
  192.5500  174.0850  143.5120 O   0  0  0  0  0  0  0  0  0  0  0  0
  195.7580  176.9210  144.4570 O   0  0  0  0  0  0  0  0  0  0  0  0
  194.1710  176.7440  146.2760 C   0  0  0  0  0  2  0  0  0  0  0  0
  193.0410  174.7890  144.4330 C   0  0  0  0  0  0  0  0  0  0  0  0
  190.8360  176.6670  146.8840 C   0  0  2  0  0  3  0  0  0  0  0  0
  190.9770  175.7570  147.9520 O   0  0  0  0  0  0  0  0  0  0  0  0
  191.0070  175.9630  145.5340 C   0  0  2  0  0  3  0  0  0  0  0  0
  193.0970  175.7650  146.7980 C   0  0  2  0  0  3  0  0  0  0  0  0
  192.2660  175.1040  145.6840 C   0  0  2  0  0  3  0  0  0  0  0  0
  192.1040  176.5490  147.6480 C   0  0  1  0  0  3  0  0  0  0  0  0
  195.1390  176.0310  145.3250 C   0  0  1  0  0  0  0  0  0  0  0  0
  195.0420  176.2730  143.4580 C   0  0  1  0  0  0  0  0  0  0  0  0
  194.3510  175.3170  144.3260 N   0  0  0  0  0  0  0  0  0  0  0  0
  191.1280  177.0480  144.4510 C   0  0  2  0  0  3  0  0  0  0  0  0
  189.8520  177.3050  143.6240 C   0  0  1  0  0  3  0  0  0  0  0  0
  190.9720  176.4390  143.0750 C   0  0  0  0  0  2  0  0  0  0  0  0
  188.7580  175.1460  143.8030 O   0  0  0  0  0  1  0  0  0  0  0  0
  188.7070  176.4810  144.0300 N   0  0  0  0  0  0  0  0  0  0  0  0
  187.9500  175.5090  146.6360 F   0  0  0  0  0  0  0  0  0  0  0  0
  185.7180  178.5530  144.8960 C   0  0  0  0  0  0  0  0  0  0  0  0
  186.8090  178.0170  144.2050 C   0  0  0  0  0  3  0  0  0  0  0  0
  187.5950  177.0070  144.7790 C   0  0  0  0  0  0  0  0  0  0  0  0
  186.1600  177.0570  146.7440 C   0  0  0  0  0  3  0  0  0  0  0  0
  187.2570  176.5230  146.0600 C   0  0  0  0  0  0  0  0  0  0  0  0
  185.3920  178.0700  146.1650 C   0  0  0  0  0  3  0  0  0  0  0  0
  184.8850  179.6160  144.2670 C   0  0  0  0  0  2  0  0  0  0  0  0
  183.7420  178.3620  142.6610 C   0  0  0  0  0  1  0  0  0  0  0  0
  183.5810  179.0830  143.9120 N   0  0  0  0  0  2  0  0  0  0  0  0
  196.3220  176.2490  141.2740 S   0  0  0  0  0  0  0  0  0  0  0  0
  195.9510  175.5720  142.4820 C   0  0  0  0  0  0  0  0  0  0  0  0
  196.3960  174.1530  142.6920 C   0  0  0  0  0  2  0  0  0  0  0  0
  197.8460  174.0750  143.1500 C   0  0  0  0  0  2  0  0  0  0  0  0
  197.9400  173.4510  144.5040 C   0  0  0  0  0  3  0  0  0  0  0  0
  196.8840  172.8370  145.0260 C   0  0  0  0  0  2  0  0  0  0  0  0
  1  4  2  0  0  0  0
  2 11  1  0  0  0  0
  5 10  1  0  0  0  0
  5  6  1  1  0  0  0
  7 14  1  6  0  0  0
  7  9  1  0  0  0  0
  7  5  1  0  0  0  0
  8  3  1  6  0  0  0
  8 10  1  0  0  0  0
  9  4  1  6  0  0  0
  9  8  1  0  0  0  0
 10  6  1  1  0  0  0
 11  3  1  1  0  0  0
 12 30  1  6  0  0  0
 12 13  1  0  0  0  0
 12  2  1  0  0  0  0
 12 11  1  0  0  0  0
 13  4  1  0  0  0  0
 13 11  1  0  0  0  0
 14 16  1  6  0  0  0
 15 18  1  1  0  0  0
 15 14  1  0  0  0  0
 16 15  1  0  0  0  0
 17 18  1  0  0  0  0
 18 22  1  0  0  0  0
 20 25  1  0  0  0  0
 21 22  1  0  0  0  0
 21 20  2  0  0  0  0
 22 24  2  0  0  0  0
 24 19  1  0  0  0  0
 24 23  1  0  0  0  0
 25 23  2  0  0  0  0
 26 20  1  0  0  0  0
 27 28  1  0  0  0  0
 28 26  1  0  0  0  0
 29 30  2  0  0  0  0
 30 31  1  0  0  0  0
 31 32  1  0  0  0  0
 32 33  1  0  0  0  0
 33 34  2  0  0  0  0
M  END
>  <MODEL>
3

>  <REMARK>
 VINA RESULT:      -7.3      1.665      2.260
  Name = 
  9 active torsions:
  status: ('A' for Active; 'I' for Inactive)
    1  A    between atoms: C_3  and  C_24
    2  A    between atoms: C_7  and  C_15
    3  A    between atoms: C_8  and  C_17
    4  A    between atoms: C_15  and  N_21
    5  A    between atoms: C_16  and  N_31
    6  A    between atoms: C_18  and  N_31
    7  A    between atoms: C_24  and  C_25
    8  A    between atoms: C_25  and  C_27
    9  A    between atoms: C_27  and  C_33
                            x       y       z     vdW  Elec       q    Type
                         _______ _______ _______ _____ _____    ______ ____

>  <TORSDO>
F 9

$$$$
=
 OpenBabel11052420213D

 34 40  0  0  1  0  0  0  0  0999 V2000
  190.3960  178.1910  143.2650 O   0  0  0  0  0  0  0  0  0  0  0  0
  186.8130  176.4150  145.0620 O   0  0  0  0  0  0  0  0  0  0  0  0
  188.6930  176.3460  146.5850 C   0  0  0  0  0  2  0  0  0  0  0  0
  189.9200  177.7380  144.3380 C   0  0  0  0  0  0  0  0  0  0  0  0
  191.9980  175.5960  146.6820 C   0  0  2  0  0  3  0  0  0  0  0  0
  192.2760  176.6130  147.6190 O   0  0  0  0  0  0  0  0  0  0  0  0
  191.7670  176.1830  145.2850 C   0  0  2  0  0  3  0  0  0  0  0  0
  190.0480  177.0520  146.8010 C   0  0  2  0  0  3  0  0  0  0  0  0
  190.8040  177.3550  145.4940 C   0  0  2  0  0  3  0  0  0  0  0  0
  190.9540  176.1220  147.5980 C   0  0  1  0  0  3  0  0  0  0  0  0
  187.7750  177.1910  145.6950 C   0  0  1  0  0  0  0  0  0  0  0  0
  187.4760  176.7470  143.8870 C   0  0  1  0  0  0  0  0  0  0  0  0
  188.5230  177.5670  144.5000 N   0  0  0  0  0  0  0  0  0  0  0  0
  191.1940  175.0660  144.3970 C   0  0  2  0  0  3  0  0  0  0  0  0
  192.2150  174.3490  143.4890 C   0  0  1  0  0  3  0  0  0  0  0  0
  191.3150  175.4410  142.9360 C   0  0  0  0  0  2  0  0  0  0  0  0
  193.9160  176.0370  143.1030 O   0  0  0  0  0  1  0  0  0  0  0  0
  193.5900  174.8380  143.6460 N   0  0  0  0  0  0  0  0  0  0  0  0
  195.3170  176.2090  145.5010 F   0  0  0  0  0  0  0  0  0  0  0  0
  195.6630  172.0870  145.0990 C   0  0  0  0  0  0  0  0  0  0  0  0
  194.7240  172.7780  144.3280 C   0  0  0  0  0  3  0  0  0  0  0  0
  194.5670  174.1660  144.4630 C   0  0  0  0  0  0  0  0  0  0  0  0
  196.3330  174.1660  146.1380 C   0  0  0  0  0  3  0  0  0  0  0  0
  195.3890  174.8610  145.3750 C   0  0  0  0  0  0  0  0  0  0  0  0
  196.4700  172.7820  146.0020 C   0  0  0  0  0  3  0  0  0  0  0  0
  195.8260  170.6150  144.9350 C   0  0  0  0  0  2  0  0  0  0  0  0
  195.7400  169.2440  146.8250 C   0  0  0  0  0  1  0  0  0  0  0  0
  194.9210  169.9100  145.8260 N   0  0  0  0  0  2  0  0  0  0  0  0
  187.1120  177.9120  141.6690 S   0  0  0  0  0  0  0  0  0  0  0  0
  186.6070  177.5630  142.9650 C   0  0  0  0  0  0  0  0  0  0  0  0
  185.2750  178.1020  143.4020 C   0  0  0  0  0  2  0  0  0  0  0  0
  185.3990  179.4890  144.0190 C   0  0  0  0  0  2  0  0  0  0  0  0
  185.0470  179.4550  145.4700 C   0  0  0  0  0  3  0  0  0  0  0  0
  184.0670  178.6650  145.8960 C   0  0  0  0  0  2  0  0  0  0  0  0
  1  4  2  0  0  0  0
  2 11  1  0  0  0  0
  4 13  1  0  0  0  0
  5 10  1  0  0  0  0
  5  6  1  1  0  0  0
  7 14  1  6  0  0  0
  7  9  1  0  0  0  0
  7  5  1  0  0  0  0
  8  3  1  6  0  0  0
  8 10  1  0  0  0  0
  9  4  1  6  0  0  0
  9  8  1  0  0  0  0
 10  6  1  1  0  0  0
 11  3  1  1  0  0  0
 12 30  1  6  0  0  0
 12 13  1  0  0  0  0
 12  2  1  0  0  0  0
 12 11  1  0  0  0  0
 13 11  1  0  0  0  0
 14 16  1  6  0  0  0
 15 18  1  1  0  0  0
 15 14  1  0  0  0  0
 16 15  1  0  0  0  0
 17 18  1  0  0  0  0
 18 22  1  0  0  0  0
 20 25  1  0  0  0  0
 21 22  1  0  0  0  0
 21 20  2  0  0  0  0
 22 24  2  0  0  0  0
 24 19  1  0  0  0  0
 24 23  1  0  0  0  0
 25 23  2  0  0  0  0
 26 20  1  0  0  0  0
 26 28  1  0  0  0  0
 28 27  1  0  0  0  0
 29 30  2  0  0  0  0
 30 31  1  0  0  0  0
 31 32  1  0  0  0  0
 32 33  1  0  0  0  0
 33 34  2  0  0  0  0
M  END
>  <MODEL>
4

>  <REMARK>
 VINA RESULT:      -7.3      3.031      8.737
  Name = 
  9 active torsions:
  status: ('A' for Active; 'I' for Inactive)
    1  A    between atoms: C_3  and  C_24
    2  A    between atoms: C_7  and  C_15
    3  A    between atoms: C_8  and  C_17
    4  A    between atoms: C_15  and  N_21
    5  A    between atoms: C_16  and  N_31
    6  A    between atoms: C_18  and  N_31
    7  A    between atoms: C_24  and  C_25
    8  A    between atoms: C_25  and  C_27
    9  A    between atoms: C_27  and  C_33
                            x       y       z     vdW  Elec       q    Type
                         _______ _______ _______ _____ _____    ______ ____

>  <TORSDO>
F 9

$$$$
=
 OpenBabel11052420213D

 34 40  0  0  1  0  0  0  0  0999 V2000
  192.6160  175.4540  144.6990 O   0  0  0  0  0  0  0  0  0  0  0  0
  191.7470  171.4050  143.2600 O   0  0  0  0  0  0  0  0  0  0  0  0
  190.1950  173.0210  142.3430 C   0  0  0  0  0  2  0  0  0  0  0  0
  191.9150  174.7970  143.8870 C   0  0  0  0  0  0  0  0  0  0  0  0
  188.2750  175.6630  143.2550 C   0  0  2  0  0  3  0  0  0  0  0  0
  188.4820  176.3300  142.0300 O   0  0  0  0  0  0  0  0  0  0  0  0
  189.5170  175.7510  144.1470 C   0  0  2  0  0  3  0  0  0  0  0  0
  190.1020  174.5430  142.0970 C   0  0  2  0  0  3  0  0  0  0  0  0
  190.6950  175.3920  143.2370 C   0  0  2  0  0  3  0  0  0  0  0  0
  188.6300  174.9280  142.0140 C   0  0  1  0  0  3  0  0  0  0  0  0
  191.6530  172.5910  142.5440 C   0  0  1  0  0  0  0  0  0  0  0  0
  192.3320  172.1800  144.2530 C   0  0  1  0  0  0  0  0  0  0  0  0
  192.2490  173.4620  143.5510 N   0  0  0  0  0  0  0  0  0  0  0  0
  189.3240  174.7730  145.3180 C   0  0  2  0  0  3  0  0  0  0  0  0
  188.8050  175.4010  146.6290 C   0  0  1  0  0  3  0  0  0  0  0  0
  190.2830  175.1010  146.4410 C   0  0  0  0  0  2  0  0  0  0  0  0
  189.6100  177.6900  146.5540 O   0  0  0  0  0  1  0  0  0  0  0  0
  188.5510  176.8440  146.5330 N   0  0  0  0  0  0  0  0  0  0  0  0
  186.2920  176.3930  148.2640 F   0  0  0  0  0  0  0  0  0  0  0  0
  185.7760  178.6900  144.8390 C   0  0  0  0  0  0  0  0  0  0  0  0
  187.0330  178.1460  145.1210 C   0  0  0  0  0  3  0  0  0  0  0  0
  187.2420  177.3890  146.2830 C   0  0  0  0  0  0  0  0  0  0  0  0
  184.8990  177.7040  146.8660 C   0  0  0  0  0  3  0  0  0  0  0  0
  186.1570  177.1650  147.1570 C   0  0  0  0  0  0  0  0  0  0  0  0
  184.7090  178.4660  145.7100 C   0  0  0  0  0  3  0  0  0  0  0  0
  185.5680  179.4810  143.5930 C   0  0  0  0  0  2  0  0  0  0  0  0
  184.6990  177.9160  142.0910 C   0  0  0  0  0  1  0  0  0  0  0  0
  185.8920  178.6730  142.4300 N   0  0  0  0  0  2  0  0  0  0  0  0
  194.0320  170.5040  145.0940 S   0  0  0  0  0  0  0  0  0  0  0  0
  193.7630  171.7820  144.5040 C   0  0  0  0  0  0  0  0  0  0  0  0
  194.9040  172.7250  144.2470 C   0  0  0  0  0  2  0  0  0  0  0  0
  195.8860  172.7580  145.4100 C   0  0  0  0  0  2  0  0  0  0  0  0
  196.2400  174.1650  145.7640 C   0  0  0  0  0  3  0  0  0  0  0  0
  196.0670  175.1360  144.8730 C   0  0  0  0  0  2  0  0  0  0  0  0
  2 12  1  0  0  0  0
  4  1  2  0  0  0  0
  5  6  1  6  0  0  0
  5  7  1  0  0  0  0
  7 14  1  1  0  0  0
  8  3  1  1  0  0  0
  8  9  1  0  0  0  0
  9  4  1  1  0  0  0
  9  7  1  0  0  0  0
 10  6  1  6  0  0  0
 10  8  1  0  0  0  0
 10  5  1  0  0  0  0
 11  3  1  1  0  0  0
 11  2  1  0  0  0  0
 11 13  1  0  0  0  0
 11 12  1  0  0  0  0
 12 30  1  6  0  0  0
 13  4  1  0  0  0  0
 13 12  1  0  0  0  0
 14 16  1  1  0  0  0
 14 15  1  0  0  0  0
 15 18  1  6  0  0  0
 16 15  1  0  0  0  0
 18 17  1  0  0  0  0
 20 21  2  0  0  0  0
 20 25  1  0  0  0  0
 21 22  1  0  0  0  0
 22 18  1  0  0  0  0
 22 24  2  0  0  0  0
 23 24  1  0  0  0  0
 24 19  1  0  0  0  0
 25 23  2  0  0  0  0
 26 20  1  0  0  0  0
 27 28  1  0  0  0  0
 28 26  1  0  0  0  0
 30 29  2  0  0  0  0
 31 30  1  0  0  0  0
 31 32  1  0  0  0  0
 32 33  1  0  0  0  0
 34 33  2  0  0  0  0
M  END
>  <MODEL>
5

>  <REMARK>
 VINA RESULT:      -7.1      2.683      4.205
  Name = 
  9 active torsions:
  status: ('A' for Active; 'I' for Inactive)
    1  A    between atoms: C_3  and  C_24
    2  A    between atoms: C_7  and  C_15
    3  A    between atoms: C_8  and  C_17
    4  A    between atoms: C_15  and  N_21
    5  A    between atoms: C_16  and  N_31
    6  A    between atoms: C_18  and  N_31
    7  A    between atoms: C_24  and  C_25
    8  A    between atoms: C_25  and  C_27
    9  A    between atoms: C_27  and  C_33
                            x       y       z     vdW  Elec       q    Type
                         _______ _______ _______ _____ _____    ______ ____

>  <TORSDO>
F 9

$$$$
=
 OpenBabel11052420213D

 34 40  0  0  1  0  0  0  0  0999 V2000
  190.7440  172.7180  143.8480 O   0  0  0  0  0  0  0  0  0  0  0  0
  194.0060  175.1920  145.4180 O   0  0  0  0  0  0  0  0  0  0  0  0
  191.9030  175.7110  146.5000 C   0  0  0  0  0  2  0  0  0  0  0  0
  191.0440  173.5490  144.7450 C   0  0  0  0  0  0  0  0  0  0  0  0
  188.6350  176.2840  145.8000 C   0  0  2  0  0  3  0  0  0  0  0  0
  188.1960  175.6580  146.9850 O   0  0  0  0  0  0  0  0  0  0  0  0
  189.0850  175.2480  144.7650 C   0  0  2  0  0  3  0  0  0  0  0  0
  190.5230  175.0640  146.7410 C   0  0  2  0  0  3  0  0  0  0  0  0
  189.9870  174.2770  145.5310 C   0  0  2  0  0  3  0  0  0  0  0  0
  189.5090  176.1730  146.9960 C   0  0  1  0  0  3  0  0  0  0  0  0
  192.9440  174.6490  146.1300 C   0  0  1  0  0  0  0  0  0  0  0  0
  193.5400  174.4290  144.3550 C   0  0  1  0  0  0  0  0  0  0  0  0
  192.3970  173.8330  145.0510 N   0  0  0  0  0  0  0  0  0  0  0  0
  189.8080  175.9990  143.6350 C   0  0  2  0  0  3  0  0  0  0  0  0
  188.9420  176.3420  142.4050 C   0  0  1  0  0  3  0  0  0  0  0  0
  189.8730  175.1410  142.3900 C   0  0  0  0  0  2  0  0  0  0  0  0
  187.2660  174.5890  142.4890 O   0  0  0  0  0  1  0  0  0  0  0  0
  187.5430  175.9150  142.5290 N   0  0  0  0  0  0  0  0  0  0  0  0
  186.3390  177.6360  140.5560 F   0  0  0  0  0  0  0  0  0  0  0  0
  184.9780  177.8100  144.4800 C   0  0  0  0  0  0  0  0  0  0  0  0
  186.0120  176.9300  144.1470 C   0  0  0  0  0  3  0  0  0  0  0  0
  186.4730  176.8320  142.8260 C   0  0  0  0  0  0  0  0  0  0  0  0
  184.8620  178.5360  142.1750 C   0  0  0  0  0  3  0  0  0  0  0  0
  185.8910  177.6510  141.8360 C   0  0  0  0  0  0  0  0  0  0  0  0
  184.4050  178.6160  143.4940 C   0  0  0  0  0  3  0  0  0  0  0  0
  184.5080  177.9130  145.8900 C   0  0  0  0  0  2  0  0  0  0  0  0
  186.0470  178.4500  147.5640 C   0  0  0  0  0  1  0  0  0  0  0  0
  185.1700  179.0210  146.5560 N   0  0  0  0  0  2  0  0  0  0  0  0
  195.1870  173.5100  142.6670 S   0  0  0  0  0  0  0  0  0  0  0  0
  194.5380  173.3800  143.9380 C   0  0  0  0  0  0  0  0  0  0  0  0
  194.7950  172.1560  144.7700 C   0  0  0  0  0  2  0  0  0  0  0  0
  195.9610  172.3560  145.7280 C   0  0  0  0  0  2  0  0  0  0  0  0
  197.1110  171.4790  145.3510 C   0  0  0  0  0  3  0  0  0  0  0  0
  197.1860  170.2420  145.8300 C   0  0  0  0  0  2  0  0  0  0  0  0
  1  4  2  0  0  0  0
  2 11  1  0  0  0  0
  4 13  1  0  0  0  0
  5  6  1  1  0  0  0
  5 10  1  0  0  0  0
  7 14  1  6  0  0  0
  7  9  1  0  0  0  0
  7  5  1  0  0  0  0
  8  3  1  6  0  0  0
  8 10  1  0  0  0  0
  9  4  1  6  0  0  0
  9  8  1  0  0  0  0
 10  6  1  1  0  0  0
 11  3  1  6  0  0  0
 12 30  1  1  0  0  0
 12 13  1  0  0  0  0
 12  2  1  0  0  0  0
 12 11  1  0  0  0  0
 13 11  1  0  0  0  0
 14 16  1  6  0  0  0
 15 18  1  1  0  0  0
 15 14  1  0  0  0  0
 16 15  1  0  0  0  0
 17 18  1  0  0  0  0
 18 22  1  0  0  0  0
 19 24  1  0  0  0  0
 20 26  1  0  0  0  0
 21 20  1  0  0  0  0
 22 21  2  0  0  0  0
 23 25  1  0  0  0  0
 24 23  2  0  0  0  0
 24 22  1  0  0  0  0
 25 20  2  0  0  0  0
 26 28  1  0  0  0  0
 28 27  1  0  0  0  0
 29 30  2  0  0  0  0
 30 31  1  0  0  0  0
 31 32  1  0  0  0  0
 33 32  1  0  0  0  0
 33 34  2  0  0  0  0
M  END
>  <MODEL>
6

>  <REMARK>
 VINA RESULT:      -7.1      1.577      1.707
  Name = 
  9 active torsions:
  status: ('A' for Active; 'I' for Inactive)
    1  A    between atoms: C_3  and  C_24
    2  A    between atoms: C_7  and  C_15
    3  A    between atoms: C_8  and  C_17
    4  A    between atoms: C_15  and  N_21
    5  A    between atoms: C_16  and  N_31
    6  A    between atoms: C_18  and  N_31
    7  A    between atoms: C_24  and  C_25
    8  A    between atoms: C_25  and  C_27
    9  A    between atoms: C_27  and  C_33
                            x       y       z     vdW  Elec       q    Type
                         _______ _______ _______ _____ _____    ______ ____

>  <TORSDO>
F 9

$$$$
=
 OpenBabel11052420213D

 34 40  0  0  1  0  0  0  0  0999 V2000
  188.0540  176.7890  145.3200 O   0  0  0  0  0  0  0  0  0  0  0  0
  186.8630  177.2210  141.1220 O   0  0  0  0  0  0  0  0  0  0  0  0
  188.3460  175.3330  141.4310 C   0  0  0  0  0  2  0  0  0  0  0  0
  188.1010  176.2340  144.1920 C   0  0  0  0  0  0  0  0  0  0  0  0
  191.2290  174.4560  142.9860 C   0  0  2  0  0  3  0  0  0  0  0  0
  190.7760  173.1460  143.2470 O   0  0  0  0  0  0  0  0  0  0  0  0
  190.5640  175.4660  143.9270 C   0  0  2  0  0  3  0  0  0  0  0  0
  188.8310  174.4000  142.5620 C   0  0  2  0  0  3  0  0  0  0  0  0
  189.0730  175.1220  143.9000 C   0  0  2  0  0  3  0  0  0  0  0  0
  190.1770  173.8130  142.1570 C   0  0  1  0  0  3  0  0  0  0  0  0
  187.0450  176.0390  141.8280 C   0  0  1  0  0  0  0  0  0  0  0  0
  187.0270  177.8500  142.3500 C   0  0  1  0  0  0  0  0  0  0  0  0
  187.2370  176.6380  143.1450 N   0  0  0  0  0  0  0  0  0  0  0  0
  190.8810  176.8750  143.4000 C   0  0  2  0  0  3  0  0  0  0  0  0
  192.0510  177.5980  144.0990 C   0  0  1  0  0  3  0  0  0  0  0  0
  190.6120  177.9100  144.4700 C   0  0  0  0  0  2  0  0  0  0  0  0
  192.0860  176.6950  146.3510 O   0  0  0  0  0  1  0  0  0  0  0  0
  192.6980  176.7990  145.1470 N   0  0  0  0  0  0  0  0  0  0  0  0
  193.0790  174.1460  146.2040 F   0  0  0  0  0  0  0  0  0  0  0  0
  196.0950  175.8490  143.9060 C   0  0  0  0  0  0  0  0  0  0  0  0
  194.9270  176.5750  144.1580 C   0  0  0  0  0  3  0  0  0  0  0  0
  193.8820  176.0150  144.9080 C   0  0  0  0  0  0  0  0  0  0  0  0
  195.2100  173.9920  145.1780 C   0  0  0  0  0  3  0  0  0  0  0  0
  194.0350  174.7110  145.4250 C   0  0  0  0  0  0  0  0  0  0  0  0
  196.2370  174.5580  144.4200 C   0  0  0  0  0  3  0  0  0  0  0  0
  197.2010  176.4630  143.1190 C   0  0  0  0  0  2  0  0  0  0  0  0
  196.6920  176.0130  140.8840 C   0  0  0  0  0  1  0  0  0  0  0  0
  197.5430  175.6130  141.9920 N   0  0  0  0  0  2  0  0  0  0  0  0
  184.5460  178.2900  142.1060 S   0  0  0  0  0  0  0  0  0  0  0  0
  185.7790  178.5780  142.7780 C   0  0  0  0  0  0  0  0  0  0  0  0
  185.8120  179.6630  143.8160 C   0  0  0  0  0  2  0  0  0  0  0  0
  184.7470  179.4570  144.8850 C   0  0  0  0  0  2  0  0  0  0  0  0
  185.2700  178.6030  145.9940 C   0  0  0  0  0  3  0  0  0  0  0  0
  184.4630  177.7420  146.6040 C   0  0  0  0  0  2  0  0  0  0  0  0
  2 11  1  0  0  0  0
  2 12  1  0  0  0  0
  4  1  2  0  0  0  0
  5  6  1  1  0  0  0
  5  7  1  0  0  0  0
  7 14  1  6  0  0  0
  8  3  1  6  0  0  0
  8  9  1  0  0  0  0
  9  7  1  0  0  0  0
  9  4  1  6  0  0  0
 10  8  1  0  0  0  0
 10  5  1  0  0  0  0
 10  6  1  1  0  0  0
 11  3  1  6  0  0  0
 11 12  1  0  0  0  0
 11 13  1  0  0  0  0
 12 30  1  1  0  0  0
 12 13  1  0  0  0  0
 13  4  1  0  0  0  0
 14 15  1  0  0  0  0
 14 16  1  1  0  0  0
 15 16  1  0  0  0  0
 15 18  1  1  0  0  0
 18 17  1  0  0  0  0
 20 21  2  0  0  0  0
 20 25  1  0  0  0  0
 21 22  1  0  0  0  0
 22 18  1  0  0  0  0
 22 24  2  0  0  0  0
 23 24  1  0  0  0  0
 24 19  1  0  0  0  0
 25 23  2  0  0  0  0
 26 20  1  0  0  0  0
 27 28  1  0  0  0  0
 28 26  1  0  0  0  0
 29 30  2  0  0  0  0
 30 31  1  0  0  0  0
 31 32  1  0  0  0  0
 32 33  1  0  0  0  0
 33 34  2  0  0  0  0
M  END
>  <MODEL>
7

>  <REMARK>
 VINA RESULT:      -7.0      3.273      8.906
  Name = 
  9 active torsions:
  status: ('A' for Active; 'I' for Inactive)
    1  A    between atoms: C_3  and  C_24
    2  A    between atoms: C_7  and  C_15
    3  A    between atoms: C_8  and  C_17
    4  A    between atoms: C_15  and  N_21
    5  A    between atoms: C_16  and  N_31
    6  A    between atoms: C_18  and  N_31
    7  A    between atoms: C_24  and  C_25
    8  A    between atoms: C_25  and  C_27
    9  A    between atoms: C_27  and  C_33
                            x       y       z     vdW  Elec       q    Type
                         _______ _______ _______ _____ _____    ______ ____

>  <TORSDO>
F 9

$$$$
=
 OpenBabel11052420213D

 34 40  0  0  1  0  0  0  0  0999 V2000
  188.1960  175.8030  146.1090 O   0  0  0  0  0  0  0  0  0  0  0  0
  186.9490  177.7320  142.3740 O   0  0  0  0  0  0  0  0  0  0  0  0
  188.4050  175.8450  141.9510 C   0  0  0  0  0  2  0  0  0  0  0  0
  188.2170  175.6910  144.8550 C   0  0  0  0  0  0  0  0  0  0  0  0
  191.2950  174.4350  143.0260 C   0  0  2  0  0  3  0  0  0  0  0  0
  190.8230  173.1240  142.8060 O   0  0  0  0  0  0  0  0  0  0  0  0
  190.6620  175.0440  144.2810 C   0  0  2  0  0  3  0  0  0  0  0  0
  188.8900  174.5620  142.6590 C   0  0  2  0  0  3  0  0  0  0  0  0
  189.1640  174.7490  144.1620 C   0  0  2  0  0  3  0  0  0  0  0  0
  190.2200  174.1450  142.0430 C   0  0  1  0  0  3  0  0  0  0  0  0
  187.1220  176.3740  142.6020 C   0  0  1  0  0  0  0  0  0  0  0  0
  187.1430  177.8740  143.7420 C   0  0  1  0  0  0  0  0  0  0  0  0
  187.3440  176.4550  144.0420 N   0  0  0  0  0  0  0  0  0  0  0  0
  190.9950  176.5450  144.2920 C   0  0  2  0  0  3  0  0  0  0  0  0
  192.0270  176.9890  145.3490 C   0  0  1  0  0  3  0  0  0  0  0  0
  190.5390  177.1760  145.5890 C   0  0  0  0  0  2  0  0  0  0  0  0
  191.8420  175.4870  147.2470 O   0  0  0  0  0  1  0  0  0  0  0  0
  192.5520  175.8860  146.1630 N   0  0  0  0  0  0  0  0  0  0  0  0
  195.0490  177.0880  145.3750 F   0  0  0  0  0  0  0  0  0  0  0  0
  194.7270  172.9440  145.3920 C   0  0  0  0  0  0  0  0  0  0  0  0
  193.6240  173.7230  145.7560 C   0  0  0  0  0  3  0  0  0  0  0  0
  193.7130  175.1220  145.7850 C   0  0  0  0  0  0  0  0  0  0  0  0
  196.0260  174.9550  145.0460 C   0  0  0  0  0  3  0  0  0  0  0  0
  194.9280  175.7380  145.4190 C   0  0  0  0  0  0  0  0  0  0  0  0
  195.9270  173.5610  145.0330 C   0  0  0  0  0  3  0  0  0  0  0  0
  194.6120  171.4590  145.3540 C   0  0  0  0  0  2  0  0  0  0  0  0
  193.7960  170.8550  143.2490 C   0  0  0  0  0  1  0  0  0  0  0  0
  193.4120  171.0690  144.6340 N   0  0  0  0  0  2  0  0  0  0  0  0
  185.5670  179.7910  144.2450 S   0  0  0  0  0  0  0  0  0  0  0  0
  185.9140  178.4120  144.4290 C   0  0  0  0  0  0  0  0  0  0  0  0
  185.1040  177.5730  145.3760 C   0  0  0  0  0  2  0  0  0  0  0  0
  184.8860  178.2730  146.7100 C   0  0  0  0  0  2  0  0  0  0  0  0
  186.0280  178.0130  147.6370 C   0  0  0  0  0  3  0  0  0  0  0  0
  186.6920  179.0310  148.1750 C   0  0  0  0  0  2  0  0  0  0  0  0
  2 11  1  0  0  0  0
  2 12  1  0  0  0  0
  4  1  2  0  0  0  0
  5  6  1  1  0  0  0
  5  7  1  0  0  0  0
  7 14  1  6  0  0  0
  8  3  1  6  0  0  0
  8  9  1  0  0  0  0
  9  7  1  0  0  0  0
  9  4  1  6  0  0  0
 10  8  1  0  0  0  0
 10  6  1  1  0  0  0
 10  5  1  0  0  0  0
 11  3  1  6  0  0  0
 11 12  1  0  0  0  0
 11 13  1  0  0  0  0
 12 13  1  0  0  0  0
 12 30  1  1  0  0  0
 13  4  1  0  0  0  0
 14 15  1  0  0  0  0
 14 16  1  1  0  0  0
 15 16  1  0  0  0  0
 15 18  1  1  0  0  0
 18 17  1  0  0  0  0
 19 24  1  0  0  0  0
 20 21  1  0  0  0  0
 21 22  2  0  0  0  0
 22 18  1  0  0  0  0
 23 24  2  0  0  0  0
 24 22  1  0  0  0  0
 25 23  1  0  0  0  0
 25 20  2  0  0  0  0
 26 20  1  0  0  0  0
 27 28  1  0  0  0  0
 28 26  1  0  0  0  0
 29 30  2  0  0  0  0
 30 31  1  0  0  0  0
 31 32  1  0  0  0  0
 32 33  1  0  0  0  0
 33 34  2  0  0  0  0
M  END
>  <MODEL>
8

>  <REMARK>
 VINA RESULT:      -6.8      3.207      8.537
  Name = 
  9 active torsions:
  status: ('A' for Active; 'I' for Inactive)
    1  A    between atoms: C_3  and  C_24
    2  A    between atoms: C_7  and  C_15
    3  A    between atoms: C_8  and  C_17
    4  A    between atoms: C_15  and  N_21
    5  A    between atoms: C_16  and  N_31
    6  A    between atoms: C_18  and  N_31
    7  A    between atoms: C_24  and  C_25
    8  A    between atoms: C_25  and  C_27
    9  A    between atoms: C_27  and  C_33
                            x       y       z     vdW  Elec       q    Type
                         _______ _______ _______ _____ _____    ______ ____

>  <TORSDO>
F 9

$$$$
=
 OpenBabel11052420213D

 34 40  0  0  1  0  0  0  0  0999 V2000
  191.9440  173.6210  144.0630 O   0  0  0  0  0  0  0  0  0  0  0  0
  194.9290  176.4020  145.6720 O   0  0  0  0  0  0  0  0  0  0  0  0
  192.8130  176.6070  146.8310 C   0  0  0  0  0  2  0  0  0  0  0  0
  192.1690  174.4400  144.9930 C   0  0  0  0  0  0  0  0  0  0  0  0
  189.4800  176.8060  146.2450 C   0  0  2  0  0  3  0  0  0  0  0  0
  189.1570  176.0760  147.4080 O   0  0  0  0  0  0  0  0  0  0  0  0
  190.0190  175.8830  145.1480 C   0  0  2  0  0  3  0  0  0  0  0  0
  191.5300  175.7850  147.0750 C   0  0  2  0  0  3  0  0  0  0  0  0
  191.0560  174.9950  145.8410 C   0  0  2  0  0  3  0  0  0  0  0  0
  190.3980  176.7480  147.4110 C   0  0  1  0  0  3  0  0  0  0  0  0
  193.9640  175.6990  146.3820 C   0  0  1  0  0  0  0  0  0  0  0  0
  194.5250  175.6380  144.5850 C   0  0  1  0  0  0  0  0  0  0  0  0
  193.4860  174.8740  145.2780 N   0  0  0  0  0  0  0  0  0  0  0  0
  190.6100  176.7690  144.0390 C   0  0  2  0  0  3  0  0  0  0  0  0
  189.6760  177.0480  142.8430 C   0  0  1  0  0  3  0  0  0  0  0  0
  190.7530  175.9800  142.7550 C   0  0  0  0  0  2  0  0  0  0  0  0
  188.2320  175.0970  142.8080 O   0  0  0  0  0  1  0  0  0  0  0  0
  188.3470  176.4370  142.9760 N   0  0  0  0  0  0  0  0  0  0  0  0
  187.2460  178.6550  141.5010 F   0  0  0  0  0  0  0  0  0  0  0  0
  185.4590  177.5310  145.0830 C   0  0  0  0  0  0  0  0  0  0  0  0
  186.5830  176.8360  144.6250 C   0  0  0  0  0  3  0  0  0  0  0  0
  187.1900  177.1770  143.4070 C   0  0  0  0  0  0  0  0  0  0  0  0
  185.5430  178.9470  143.1230 C   0  0  0  0  0  3  0  0  0  0  0  0
  186.6620  178.2480  142.6570 C   0  0  0  0  0  0  0  0  0  0  0  0
  184.9420  178.5890  144.3330 C   0  0  0  0  0  3  0  0  0  0  0  0
  184.8340  177.1660  146.3850 C   0  0  0  0  0  2  0  0  0  0  0  0
  186.1320  178.3050  147.9590 C   0  0  0  0  0  1  0  0  0  0  0  0
  184.8460  178.3090  147.2820 N   0  0  0  0  0  2  0  0  0  0  0  0
  195.3680  173.3390  143.9410 S   0  0  0  0  0  0  0  0  0  0  0  0
  195.6300  174.7400  144.0900 C   0  0  0  0  0  0  0  0  0  0  0  0
  197.0200  175.2550  143.8450 C   0  0  0  0  0  2  0  0  0  0  0  0
  197.0460  176.3200  142.7570 C   0  0  0  0  0  2  0  0  0  0  0  0
  197.4010  175.7190  141.4370 C   0  0  0  0  0  3  0  0  0  0  0  0
  196.4670  175.5730  140.5020 C   0  0  0  0  0  2  0  0  0  0  0  0
  1  4  2  0  0  0  0
  2 11  1  0  0  0  0
  4 13  1  0  0  0  0
  5  6  1  1  0  0  0
  5 10  1  0  0  0  0
  7 14  1  6  0  0  0
  7  9  1  0  0  0  0
  7  5  1  0  0  0  0
  8  3  1  6  0  0  0
  8 10  1  0  0  0  0
  9  4  1  6  0  0  0
  9  8  1  0  0  0  0
 10  6  1  1  0  0  0
 11  3  1  6  0  0  0
 12 30  1  1  0  0  0
 12 13  1  0  0  0  0
 12  2  1  0  0  0  0
 12 11  1  0  0  0  0
 13 11  1  0  0  0  0
 14 16  1  6  0  0  0
 15 18  1  1  0  0  0
 15 14  1  0  0  0  0
 16 15  1  0  0  0  0
 17 18  1  0  0  0  0
 18 22  1  0  0  0  0
 19 24  1  0  0  0  0
 20 26  1  0  0  0  0
 21 20  1  0  0  0  0
 22 21  2  0  0  0  0
 23 25  1  0  0  0  0
 24 23  2  0  0  0  0
 24 22  1  0  0  0  0
 25 20  2  0  0  0  0
 26 28  1  0  0  0  0
 28 27  1  0  0  0  0
 29 30  2  0  0  0  0
 31 30  1  0  0  0  0
 32 31  1  0  0  0  0
 33 32  1  0  0  0  0
 34 33  2  0  0  0  0
M  END
>  <MODEL>
9

>  <REMARK>
 VINA RESULT:      -6.7      1.193      1.771
  Name = 
  9 active torsions:
  status: ('A' for Active; 'I' for Inactive)
    1  A    between atoms: C_3  and  C_24
    2  A    between atoms: C_7  and  C_15
    3  A    between atoms: C_8  and  C_17
    4  A    between atoms: C_15  and  N_21
    5  A    between atoms: C_16  and  N_31
    6  A    between atoms: C_18  and  N_31
    7  A    between atoms: C_24  and  C_25
    8  A    between atoms: C_25  and  C_27
    9  A    between atoms: C_27  and  C_33
                            x       y       z     vdW  Elec       q    Type
                         _______ _______ _______ _____ _____    ______ ____

>  <TORSDO>
F 9

$$$$
