=
 OpenBabel11052419003D

 34 38  0  0  1  0  0  0  0  0999 V2000
  186.1710  177.5850  144.1020 C   0  0  2  0  0  3  0  0  0  0  0  0
  187.1940  177.6730  146.5410 C   0  0  0  0  0  2  0  0  0  0  0  0
  188.3960  176.3000  144.6030 C   0  0  0  0  0  0  0  0  0  0  0  0
  190.7260  175.5900  144.5680 C   0  0  0  0  0  0  0  0  0  0  0  0
  190.1100  177.4780  146.0900 C   0  0  0  0  0  2  0  0  0  0  0  0
  187.2340  177.1240  145.1210 C   0  0  0  0  0  0  0  0  0  0  0  0
  191.2410  176.9900  146.9990 C   0  0  0  0  0  2  0  0  0  0  0  0
  192.1010  175.6870  145.0870 C   0  0  0  0  0  3  0  0  0  0  0  0
  188.1240  175.4070  143.5440 C   0  0  0  0  0  0  0  0  0  0  0  0
  186.1720  176.7490  142.8080 C   0  0  0  0  0  2  0  0  0  0  0  0
  186.5380  176.3500  146.2290 C   0  0  0  0  0  2  0  0  0  0  0  0
  190.4400  174.6930  143.5430 C   0  0  0  0  0  3  0  0  0  0  0  0
  189.1490  174.5930  143.0100 C   0  0  0  0  0  0  0  0  0  0  0  0
  192.3610  176.3820  146.1980 C   0  0  0  0  0  0  0  0  0  0  0  0
  189.7150  176.4140  145.0970 C   0  0  0  0  0  0  0  0  0  0  0  0
  186.7140  175.3340  143.0230 C   0  0  0  0  0  2  0  0  0  0  0  0
  190.3700  171.8750  141.3730 N   0  0  0  0  0  0  0  0  0  0  0  0
  190.1670  172.1680  139.9550 C   0  0  0  0  0  2  0  0  0  0  0  0
  188.9020  173.6730  141.9310 N   0  0  0  0  0  0  0  0  0  0  0  0
  189.9770  173.6710  139.7450 C   0  0  0  0  0  2  0  0  0  0  0  0
  189.1570  172.2440  142.1020 C   0  0  0  0  0  2  0  0  0  0  0  0
  188.7750  174.1440  140.5550 C   0  0  0  0  0  2  0  0  0  0  0  0
  190.5050  170.4350  141.4890 C   0  0  0  0  0  1  0  0  0  0  0  0
  186.2610  179.0750  143.7590 C   0  0  1  0  0  3  0  0  0  0  0  0
  186.3200  179.2570  142.3780 O   0  0  0  0  0  1  0  0  0  0  0  0
  185.1060  179.8780  144.3390 C   0  0  0  0  0  1  0  0  0  0  0  0
  193.7690  176.5300  146.6670 C   0  0  0  0  0  2  0  0  0  0  0  0
  195.5770  175.5020  145.4370 N   0  0  0  0  0  0  0  0  0  0  0  0
  194.5910  175.3540  146.2500 C   0  0  0  0  0  3  0  0  0  0  0  0
  195.5870  173.4550  144.1190 C   0  0  0  0  0  1  0  0  0  0  0  0
  196.3990  174.3920  144.9960 C   0  0  1  0  0  0  0  0  0  0  0  0
  197.4620  174.8880  144.2390 O   0  0  0  0  0  1  0  0  0  0  0  0
  196.8780  172.1010  145.9570 C   0  0  0  0  0  1  0  0  0  0  0  0
  196.9490  173.6030  146.1870 C   0  0  0  0  0  2  0  0  0  0  0  0
  1 24  1  6  0  0  0
  1  6  1  0  0  0  0
  3 15  1  0  0  0  0
  3  6  1  0  0  0  0
  4  8  1  0  0  0  0
  4 15  2  0  0  0  0
  5  7  1  0  0  0  0
  6 11  1  0  0  0  0
  6  2  1  0  0  0  0
  8 14  2  0  0  0  0
  9  3  2  0  0  0  0
 10 16  1  0  0  0  0
 10  1  1  0  0  0  0
 11  2  1  0  0  0  0
 12  4  1  0  0  0  0
 13 12  2  0  0  0  0
 13  9  1  0  0  0  0
 14 27  1  0  0  0  0
 14  7  1  0  0  0  0
 15  5  1  0  0  0  0
 16  9  1  0  0  0  0
 17 23  1  0  0  0  0
 17 21  1  0  0  0  0
 18 17  1  0  0  0  0
 19 21  1  0  0  0  0
 19 13  1  0  0  0  0
 20 18  1  0  0  0  0
 20 22  1  0  0  0  0
 22 19  1  0  0  0  0
 24 26  1  6  0  0  0
 25 24  1  0  0  0  0
 28 29  2  0  0  0  0
 29 27  1  0  0  0  0
 31 30  1  6  0  0  0
 31 28  1  0  0  0  0
 31 34  1  0  0  0  0
 32 31  1  0  0  0  0
 33 34  1  0  0  0  0
M  END
>  <MODEL>
1

>  <REMARK>
 VINA RESULT:      -7.9      0.000      0.000
  Name = 
  6 active torsions:
  status: ('A' for Active; 'I' for Inactive)
    1  A    between atoms: C_1  and  C_6
    2  A    between atoms: C_3  and  C_29
    3  A    between atoms: C_3  and  C_33
    4  A    between atoms: N_12  and  C_28
    5  A    between atoms: N_13  and  C_20
    6  A    between atoms: C_20  and  C_22
                            x       y       z     vdW  Elec       q    Type
                         _______ _______ _______ _____ _____    ______ ____

>  <TORSDO>
F 6

$$$$
=
 OpenBabel11052419003D

 34 38  0  0  1  0  0  0  0  0999 V2000
  190.3340  172.4280  140.5920 C   0  0  2  0  0  3  0  0  0  0  0  0
  187.9950  172.6390  141.8120 C   0  0  0  0  0  2  0  0  0  0  0  0
  189.8390  174.5440  142.0510 C   0  0  0  0  0  0  0  0  0  0  0  0
  189.4550  176.8460  142.7470 C   0  0  0  0  0  0  0  0  0  0  0  0
  187.4960  175.5530  141.8800 C   0  0  0  0  0  2  0  0  0  0  0  0
  189.3950  173.1810  141.5580 C   0  0  0  0  0  0  0  0  0  0  0  0
  186.6380  176.4080  142.8160 C   0  0  0  0  0  2  0  0  0  0  0  0
  188.5390  177.9730  142.9930 C   0  0  0  0  0  3  0  0  0  0  0  0
  191.2230  174.7270  142.2630 C   0  0  0  0  0  0  0  0  0  0  0  0
  191.7870  172.9320  140.6460 C   0  0  0  0  0  2  0  0  0  0  0  0
  189.1180  172.2890  142.7580 C   0  0  0  0  0  2  0  0  0  0  0  0
  190.8180  177.0060  142.9780 C   0  0  0  0  0  3  0  0  0  0  0  0
  191.7200  175.9640  142.7340 C   0  0  0  0  0  0  0  0  0  0  0  0
  187.2150  177.7890  142.9770 C   0  0  0  0  0  0  0  0  0  0  0  0
  188.9530  175.6230  142.2660 C   0  0  0  0  0  0  0  0  0  0  0  0
  192.1410  173.5640  141.9940 C   0  0  0  0  0  2  0  0  0  0  0  0
  194.8380  175.2060  141.6120 N   0  0  0  0  0  0  0  0  0  0  0  0
  195.6190  174.9430  142.8210 C   0  0  0  0  0  2  0  0  0  0  0  0
  193.1240  176.1800  142.9590 N   0  0  0  0  0  0  0  0  0  0  0  0
  194.6900  174.6270  143.9940 C   0  0  0  0  0  2  0  0  0  0  0  0
  194.0300  176.4050  141.8330 C   0  0  0  0  0  2  0  0  0  0  0  0
  193.7500  175.8060  144.2240 C   0  0  0  0  0  2  0  0  0  0  0  0
  195.7870  175.5310  140.5630 C   0  0  0  0  0  1  0  0  0  0  0  0
  189.8380  172.4200  139.1430 C   0  0  1  0  0  3  0  0  0  0  0  0
  189.4490  173.7010  138.7520 O   0  0  0  0  0  1  0  0  0  0  0  0
  190.8780  171.8760  138.1740 C   0  0  0  0  0  1  0  0  0  0  0  0
  186.3020  178.9550  143.1540 C   0  0  0  0  0  2  0  0  0  0  0  0
  186.2740  178.4720  145.5220 N   0  0  0  0  0  0  0  0  0  0  0  0
  185.6370  178.9060  144.4910 C   0  0  0  0  0  3  0  0  0  0  0  0
  186.0810  179.6020  147.6690 C   0  0  0  0  0  1  0  0  0  0  0  0
  185.6720  178.3980  146.8390 C   0  0  1  0  0  0  0  0  0  0  0  0
  184.2830  178.4110  146.7040 O   0  0  0  0  0  1  0  0  0  0  0  0
  187.2470  176.4170  146.8670 C   0  0  0  0  0  1  0  0  0  0  0  0
  186.0990  177.1240  147.5720 C   0  0  0  0  0  2  0  0  0  0  0  0
  1 24  1  6  0  0  0
  1 10  1  0  0  0  0
  1  6  1  0  0  0  0
  2 11  1  0  0  0  0
  3  9  2  0  0  0  0
  3 15  1  0  0  0  0
  4 12  1  0  0  0  0
  4  8  1  0  0  0  0
  5 15  1  0  0  0  0
  5  7  1  0  0  0  0
  6  2  1  0  0  0  0
  6  3  1  0  0  0  0
  6 11  1  0  0  0  0
  7 14  1  0  0  0  0
  9 13  1  0  0  0  0
 10 16  1  0  0  0  0
 13 19  1  0  0  0  0
 13 12  2  0  0  0  0
 14  8  2  0  0  0  0
 14 27  1  0  0  0  0
 15  4  2  0  0  0  0
 16  9  1  0  0  0  0
 17 21  1  0  0  0  0
 17 18  1  0  0  0  0
 18 20  1  0  0  0  0
 19 22  1  0  0  0  0
 20 22  1  0  0  0  0
 21 19  1  0  0  0  0
 23 17  1  0  0  0  0
 24 26  1  6  0  0  0
 25 24  1  0  0  0  0
 27 29  1  0  0  0  0
 28 31  1  0  0  0  0
 29 28  2  0  0  0  0
 31 34  1  0  0  0  0
 31 30  1  1  0  0  0
 32 31  1  0  0  0  0
 33 34  1  0  0  0  0
M  END
>  <MODEL>
2

>  <REMARK>
 VINA RESULT:      -7.3      3.005      7.599
  Name = 
  6 active torsions:
  status: ('A' for Active; 'I' for Inactive)
    1  A    between atoms: C_1  and  C_6
    2  A    between atoms: C_3  and  C_29
    3  A    between atoms: C_3  and  C_33
    4  A    between atoms: N_12  and  C_28
    5  A    between atoms: N_13  and  C_20
    6  A    between atoms: C_20  and  C_22
                            x       y       z     vdW  Elec       q    Type
                         _______ _______ _______ _____ _____    ______ ____

>  <TORSDO>
F 6

$$$$
=
 OpenBabel11052419003D

 34 38  0  0  1  0  0  0  0  0999 V2000
  195.5060  173.8460  144.5180 C   0  0  2  0  0  3  0  0  0  0  0  0
  194.6380  175.9230  145.9070 C   0  0  0  0  0  2  0  0  0  0  0  0
  192.9960  174.5610  144.3160 C   0  0  0  0  0  0  0  0  0  0  0  0
  190.5630  174.5500  144.4200 C   0  0  0  0  0  0  0  0  0  0  0  0
  191.8100  175.2650  146.4680 C   0  0  0  0  0  2  0  0  0  0  0  0
  194.3800  174.8390  144.8700 C   0  0  0  0  0  0  0  0  0  0  0  0
  190.6070  176.1610  146.7730 C   0  0  0  0  0  2  0  0  0  0  0  0
  189.3120  174.8330  145.1440 C   0  0  0  0  0  3  0  0  0  0  0  0
  192.9290  173.9770  143.0320 C   0  0  0  0  0  0  0  0  0  0  0  0
  195.1930  172.9940  143.2740 C   0  0  0  0  0  2  0  0  0  0  0  0
  194.8110  176.2320  144.4410 C   0  0  0  0  0  2  0  0  0  0  0  0
  190.5080  173.9990  143.1430 C   0  0  0  0  0  3  0  0  0  0  0  0
  191.6780  173.6960  142.4360 C   0  0  0  0  0  0  0  0  0  0  0  0
  189.3270  175.5440  146.2760 C   0  0  0  0  0  0  0  0  0  0  0  0
  191.8040  174.8210  145.0270 C   0  0  0  0  0  0  0  0  0  0  0  0
  194.2210  173.6860  142.3170 C   0  0  0  0  0  2  0  0  0  0  0  0
  189.5530  173.0370  139.8660 N   0  0  0  0  0  0  0  0  0  0  0  0
  189.8640  171.6650  139.4630 C   0  0  0  0  0  2  0  0  0  0  0  0
  191.5770  173.1000  141.1300 N   0  0  0  0  0  0  0  0  0  0  0  0
  190.5990  170.9350  140.5890 C   0  0  0  0  0  2  0  0  0  0  0  0
  190.8090  173.7560  140.0730 C   0  0  0  0  0  2  0  0  0  0  0  0
  191.8830  171.6880  140.9210 C   0  0  0  0  0  2  0  0  0  0  0  0
  188.8930  173.6660  138.7370 C   0  0  0  0  0  1  0  0  0  0  0  0
  195.9040  172.9370  145.6850 C   0  0  1  0  0  3  0  0  0  0  0  0
  196.0650  171.6220  145.2490 O   0  0  0  0  0  1  0  0  0  0  0  0
  197.1690  173.4090  146.3870 C   0  0  0  0  0  1  0  0  0  0  0  0
  188.0610  175.7590  147.0340 C   0  0  0  0  0  2  0  0  0  0  0  0
  186.1990  177.2810  146.7900 N   0  0  0  0  0  0  0  0  0  0  0  0
  187.4700  177.0910  146.7080 C   0  0  0  0  0  3  0  0  0  0  0  0
  184.0670  178.3910  146.4050 C   0  0  0  0  0  1  0  0  0  0  0  0
  185.5760  178.5520  146.4770 C   0  0  1  0  0  0  0  0  0  0  0  0
  185.8700  179.4620  147.4940 O   0  0  0  0  0  1  0  0  0  0  0  0
  184.9360  179.5130  144.2260 C   0  0  0  0  0  1  0  0  0  0  0  0
  186.0800  179.1020  145.1410 C   0  0  0  0  0  2  0  0  0  0  0  0
  1  6  1  0  0  0  0
  1 24  1  1  0  0  0
  3  6  1  0  0  0  0
  3 15  1  0  0  0  0
  4 15  2  0  0  0  0
  4  8  1  0  0  0  0
  5  7  1  0  0  0  0
  6  2  1  0  0  0  0
  8 14  2  0  0  0  0
  9  3  2  0  0  0  0
 10  1  1  0  0  0  0
 11  6  1  0  0  0  0
 11  2  1  0  0  0  0
 12  4  1  0  0  0  0
 13  9  1  0  0  0  0
 13 12  2  0  0  0  0
 14  7  1  0  0  0  0
 14 27  1  0  0  0  0
 15  5  1  0  0  0  0
 16  9  1  0  0  0  0
 16 10  1  0  0  0  0
 17 21  1  0  0  0  0
 18 17  1  0  0  0  0
 18 20  1  0  0  0  0
 19 13  1  0  0  0  0
 20 22  1  0  0  0  0
 21 19  1  0  0  0  0
 22 19  1  0  0  0  0
 23 17  1  0  0  0  0
 24 26  1  6  0  0  0
 25 24  1  0  0  0  0
 29 28  2  0  0  0  0
 29 27  1  0  0  0  0
 31 30  1  6  0  0  0
 31 28  1  0  0  0  0
 31 32  1  0  0  0  0
 33 34  1  0  0  0  0
 34 31  1  0  0  0  0
M  END
>  <MODEL>
3

>  <REMARK>
 VINA RESULT:      -7.3      2.161      7.834
  Name = 
  6 active torsions:
  status: ('A' for Active; 'I' for Inactive)
    1  A    between atoms: C_1  and  C_6
    2  A    between atoms: C_3  and  C_29
    3  A    between atoms: C_3  and  C_33
    4  A    between atoms: N_12  and  C_28
    5  A    between atoms: N_13  and  C_20
    6  A    between atoms: C_20  and  C_22
                            x       y       z     vdW  Elec       q    Type
                         _______ _______ _______ _____ _____    ______ ____

>  <TORSDO>
F 6

$$$$
=
 OpenBabel11052419003D

 34 38  0  0  1  0  0  0  0  0999 V2000
  191.0270  175.8770  145.8380 C   0  0  2  0  0  3  0  0  0  0  0  0
  190.8410  173.4910  144.7100 C   0  0  0  0  0  2  0  0  0  0  0  0
  189.2960  175.5050  143.9100 C   0  0  0  0  0  0  0  0  0  0  0  0
  188.1180  175.6660  141.7840 C   0  0  0  0  0  0  0  0  0  0  0  0
  190.0550  174.0880  141.9220 C   0  0  0  0  0  2  0  0  0  0  0  0
  190.3300  174.9190  144.8500 C   0  0  0  0  0  0  0  0  0  0  0  0
  189.3200  173.2430  140.8790 C   0  0  0  0  0  2  0  0  0  0  0  0
  187.9140  175.2140  140.3970 C   0  0  0  0  0  3  0  0  0  0  0  0
  188.5050  176.5620  144.4110 C   0  0  0  0  0  0  0  0  0  0  0  0
  190.2410  177.1810  146.0700 C   0  0  0  0  0  2  0  0  0  0  0  0
  189.6910  173.7880  145.6420 C   0  0  0  0  0  2  0  0  0  0  0  0
  187.3250  176.6880  142.2980 C   0  0  0  0  0  3  0  0  0  0  0  0
  187.5090  177.1580  143.6040 C   0  0  0  0  0  0  0  0  0  0  0  0
  188.5130  174.1080  139.9470 C   0  0  0  0  0  0  0  0  0  0  0  0
  189.1210  175.0760  142.5760 C   0  0  0  0  0  0  0  0  0  0  0  0
  188.7400  177.0140  145.8270 C   0  0  0  0  0  2  0  0  0  0  0  0
  184.8350  177.9220  145.5590 N   0  0  0  0  0  0  0  0  0  0  0  0
  184.0720  178.9020  144.7860 C   0  0  0  0  0  2  0  0  0  0  0  0
  186.6870  178.2360  144.0860 N   0  0  0  0  0  0  0  0  0  0  0  0
  184.4550  178.8260  143.3080 C   0  0  0  0  0  2  0  0  0  0  0  0
  186.2520  178.2710  145.4810 C   0  0  0  0  0  2  0  0  0  0  0  0
  185.9490  179.0920  143.1610 C   0  0  0  0  0  2  0  0  0  0  0  0
  184.4410  178.0840  146.9470 C   0  0  0  0  0  1  0  0  0  0  0  0
  192.4740  176.2020  145.4540 C   0  0  1  0  0  3  0  0  0  0  0  0
  192.5210  177.3250  144.6280 O   0  0  0  0  0  1  0  0  0  0  0  0
  193.3660  176.4150  146.6680 C   0  0  0  0  0  1  0  0  0  0  0  0
  188.3530  173.7060  138.5200 C   0  0  0  0  0  2  0  0  0  0  0  0
  189.8190  172.2400  137.2780 N   0  0  0  0  0  0  0  0  0  0  0  0
  189.0080  172.3870  138.2660 C   0  0  0  0  0  3  0  0  0  0  0  0
  190.5990  170.7920  135.4830 C   0  0  0  0  0  1  0  0  0  0  0  0
  190.4740  170.9800  136.9860 C   0  0  1  0  0  0  0  0  0  0  0  0
  191.7580  170.9990  137.5310 O   0  0  0  0  0  1  0  0  0  0  0  0
  190.5920  168.8380  138.3280 C   0  0  0  0  0  1  0  0  0  0  0  0
  189.6920  169.8000  137.5680 C   0  0  0  0  0  2  0  0  0  0  0  0
  1 24  1  6  0  0  0
  1 10  1  0  0  0  0
  2  6  1  0  0  0  0
  2 11  1  0  0  0  0
  3  9  1  0  0  0  0
  3  6  1  0  0  0  0
  4 12  2  0  0  0  0
  4 15  1  0  0  0  0
  5 15  1  0  0  0  0
  6 11  1  0  0  0  0
  6  1  1  0  0  0  0
  7  5  1  0  0  0  0
  8  4  1  0  0  0  0
  9 16  1  0  0  0  0
 12 13  1  0  0  0  0
 13 19  1  0  0  0  0
 13  9  2  0  0  0  0
 14  8  2  0  0  0  0
 14  7  1  0  0  0  0
 15  3  2  0  0  0  0
 16 10  1  0  0  0  0
 17 23  1  0  0  0  0
 18 17  1  0  0  0  0
 19 21  1  0  0  0  0
 20 18  1  0  0  0  0
 21 17  1  0  0  0  0
 22 20  1  0  0  0  0
 22 19  1  0  0  0  0
 24 26  1  1  0  0  0
 25 24  1  0  0  0  0
 27 14  1  0  0  0  0
 28 29  2  0  0  0  0
 29 27  1  0  0  0  0
 31 30  1  6  0  0  0
 31 28  1  0  0  0  0
 31 32  1  0  0  0  0
 31 34  1  0  0  0  0
 34 33  1  0  0  0  0
M  END
>  <MODEL>
4

>  <REMARK>
 VINA RESULT:      -7.2      3.178      7.561
  Name = 
  6 active torsions:
  status: ('A' for Active; 'I' for Inactive)
    1  A    between atoms: C_1  and  C_6
    2  A    between atoms: C_3  and  C_29
    3  A    between atoms: C_3  and  C_33
    4  A    between atoms: N_12  and  C_28
    5  A    between atoms: N_13  and  C_20
    6  A    between atoms: C_20  and  C_22
                            x       y       z     vdW  Elec       q    Type
                         _______ _______ _______ _____ _____    ______ ____

>  <TORSDO>
F 6

$$$$
=
 OpenBabel11052419003D

 34 38  0  0  1  0  0  0  0  0999 V2000
  190.2480  172.6090  140.4480 C   0  0  2  0  0  3  0  0  0  0  0  0
  188.8220  172.3320  142.6600 C   0  0  0  0  0  2  0  0  0  0  0  0
  191.0000  173.8610  142.6200 C   0  0  0  0  0  0  0  0  0  0  0  0
  191.5590  175.6190  144.2110 C   0  0  0  0  0  0  0  0  0  0  0  0
  189.1620  174.9210  144.0470 C   0  0  0  0  0  2  0  0  0  0  0  0
  190.0540  172.8810  141.9540 C   0  0  0  0  0  0  0  0  0  0  0  0
  189.0500  175.2950  145.5270 C   0  0  0  0  0  2  0  0  0  0  0  0
  191.1640  176.5470  145.2840 C   0  0  0  0  0  3  0  0  0  0  0  0
  192.3320  173.8810  142.1530 C   0  0  0  0  0  0  0  0  0  0  0  0
  191.6530  172.9840  139.9420 C   0  0  0  0  0  2  0  0  0  0  0  0
  190.1160  171.5560  142.6980 C   0  0  0  0  0  2  0  0  0  0  0  0
  192.8760  175.6100  143.7610 C   0  0  0  0  0  3  0  0  0  0  0  0
  193.2810  174.7570  142.7270 C   0  0  0  0  0  0  0  0  0  0  0  0
  189.9690  176.4360  145.8730 C   0  0  0  0  0  0  0  0  0  0  0  0
  190.6040  174.7590  143.6360 C   0  0  0  0  0  0  0  0  0  0  0  0
  192.7100  172.9320  141.0480 C   0  0  0  0  0  2  0  0  0  0  0  0
  196.5080  175.1310  143.7290 N   0  0  0  0  0  0  0  0  0  0  0  0
  197.1100  176.0200  142.7350 C   0  0  0  0  0  2  0  0  0  0  0  0
  194.6460  174.8010  142.2720 N   0  0  0  0  0  0  0  0  0  0  0  0
  196.0220  176.7900  141.9850 C   0  0  0  0  0  2  0  0  0  0  0  0
  195.7020  174.1310  143.0300 C   0  0  0  0  0  2  0  0  0  0  0  0
  195.0840  175.8000  141.3030 C   0  0  0  0  0  2  0  0  0  0  0  0
  197.5990  174.4160  144.3660 C   0  0  0  0  0  1  0  0  0  0  0  0
  189.1840  173.2700  139.5670 C   0  0  1  0  0  3  0  0  0  0  0  0
  188.1840  172.3550  139.2370 O   0  0  0  0  0  1  0  0  0  0  0  0
  188.5670  174.4980  140.2200 C   0  0  0  0  0  1  0  0  0  0  0  0
  189.5560  177.4290  146.9060 C   0  0  0  0  0  2  0  0  0  0  0  0
  187.3980  177.9250  145.9370 N   0  0  0  0  0  0  0  0  0  0  0  0
  188.0680  177.5400  146.9670 C   0  0  0  0  0  3  0  0  0  0  0  0
  185.3190  176.7900  146.4980 C   0  0  0  0  0  1  0  0  0  0  0  0
  185.9550  178.0560  145.9470 C   0  0  1  0  0  0  0  0  0  0  0  0
  185.6010  179.1200  146.7780 O   0  0  0  0  0  1  0  0  0  0  0  0
  185.2030  179.7900  144.2650 C   0  0  0  0  0  1  0  0  0  0  0  0
  185.4120  178.3080  144.5390 C   0  0  0  0  0  2  0  0  0  0  0  0
  1 24  1  6  0  0  0
  1  6  1  0  0  0  0
  2 11  1  0  0  0  0
  3 15  1  0  0  0  0
  4  8  1  0  0  0  0
  5  7  1  0  0  0  0
  6  3  1  0  0  0  0
  6  2  1  0  0  0  0
  6 11  1  0  0  0  0
  7 14  1  0  0  0  0
  8 14  2  0  0  0  0
  9  3  2  0  0  0  0
  9 13  1  0  0  0  0
 10  1  1  0  0  0  0
 10 16  1  0  0  0  0
 12  4  1  0  0  0  0
 13 12  2  0  0  0  0
 14 27  1  0  0  0  0
 15  5  1  0  0  0  0
 15  4  2  0  0  0  0
 16  9  1  0  0  0  0
 17 23  1  0  0  0  0
 18 17  1  0  0  0  0
 19 13  1  0  0  0  0
 19 21  1  0  0  0  0
 20 18  1  0  0  0  0
 21 17  1  0  0  0  0
 22 20  1  0  0  0  0
 22 19  1  0  0  0  0
 24 26  1  1  0  0  0
 25 24  1  0  0  0  0
 27 29  1  0  0  0  0
 28 31  1  0  0  0  0
 28 29  2  0  0  0  0
 31 30  1  1  0  0  0
 31 32  1  0  0  0  0
 33 34  1  0  0  0  0
 34 31  1  0  0  0  0
M  END
>  <MODEL>
5

>  <REMARK>
 VINA RESULT:      -7.1      2.863      7.359
  Name = 
  6 active torsions:
  status: ('A' for Active; 'I' for Inactive)
    1  A    between atoms: C_1  and  C_6
    2  A    between atoms: C_3  and  C_29
    3  A    between atoms: C_3  and  C_33
    4  A    between atoms: N_12  and  C_28
    5  A    between atoms: N_13  and  C_20
    6  A    between atoms: C_20  and  C_22
                            x       y       z     vdW  Elec       q    Type
                         _______ _______ _______ _____ _____    ______ ____

>  <TORSDO>
F 6

$$$$
=
 OpenBabel11052419003D

 34 38  0  0  1  0  0  0  0  0999 V2000
  191.1010  175.9240  145.8210 C   0  0  2  0  0  3  0  0  0  0  0  0
  190.8480  173.3920  145.0950 C   0  0  0  0  0  2  0  0  0  0  0  0
  189.3130  175.2820  144.0200 C   0  0  0  0  0  0  0  0  0  0  0  0
  188.0820  175.1230  141.9250 C   0  0  0  0  0  0  0  0  0  0  0  0
  189.9970  173.5500  142.2680 C   0  0  0  0  0  2  0  0  0  0  0  0
  190.3640  174.8330  145.0170 C   0  0  0  0  0  0  0  0  0  0  0  0
  189.2210  172.5640  141.3910 C   0  0  0  0  0  2  0  0  0  0  0  0
  187.8330  174.4590  140.6330 C   0  0  0  0  0  3  0  0  0  0  0  0
  188.5520  176.4210  144.3630 C   0  0  0  0  0  0  0  0  0  0  0  0
  190.3420  177.2630  145.8590 C   0  0  0  0  0  2  0  0  0  0  0  0
  189.7290  173.8570  145.9940 C   0  0  0  0  0  2  0  0  0  0  0  0
  187.3190  176.2300  142.2860 C   0  0  0  0  0  3  0  0  0  0  0  0
  187.5440  176.8990  143.4950 C   0  0  0  0  0  0  0  0  0  0  0  0
  188.4020  173.2830  140.3530 C   0  0  0  0  0  0  0  0  0  0  0  0
  189.0960  174.6480  142.7760 C   0  0  0  0  0  0  0  0  0  0  0  0
  188.8320  177.0890  145.6830 C   0  0  0  0  0  2  0  0  0  0  0  0
  184.8030  177.9760  145.1940 N   0  0  0  0  0  0  0  0  0  0  0  0
  184.1390  178.9080  144.2830 C   0  0  0  0  0  2  0  0  0  0  0  0
  186.7520  178.0560  143.8180 N   0  0  0  0  0  0  0  0  0  0  0  0
  184.6030  178.6670  142.8460 C   0  0  0  0  0  2  0  0  0  0  0  0
  186.2390  178.2500  145.1730 C   0  0  0  0  0  2  0  0  0  0  0  0
  186.1160  178.8480  142.7690 C   0  0  0  0  0  2  0  0  0  0  0  0
  184.3380  178.2930  146.5310 C   0  0  0  0  0  1  0  0  0  0  0  0
  192.5420  176.1550  145.3550 C   0  0  1  0  0  3  0  0  0  0  0  0
  192.6000  177.2130  144.4470 O   0  0  0  0  0  1  0  0  0  0  0  0
  193.4950  176.4130  146.5120 C   0  0  0  0  0  1  0  0  0  0  0  0
  188.1980  172.6610  139.0130 C   0  0  0  0  0  2  0  0  0  0  0  0
  189.6680  173.1480  137.1580 N   0  0  0  0  0  0  0  0  0  0  0  0
  188.7230  173.5500  137.9330 C   0  0  0  0  0  3  0  0  0  0  0  0
  189.1790  174.9790  135.6300 C   0  0  0  0  0  1  0  0  0  0  0  0
  190.2170  173.9740  136.1000 C   0  0  1  0  0  0  0  0  0  0  0  0
  191.3130  174.6800  136.5990 O   0  0  0  0  0  1  0  0  0  0  0  0
  189.6810  171.9970  134.6140 C   0  0  0  0  0  1  0  0  0  0  0  0
  190.6600  173.1240  134.9070 C   0  0  0  0  0  2  0  0  0  0  0  0
  1 24  1  6  0  0  0
  1 10  1  0  0  0  0
  2 11  1  0  0  0  0
  3  9  1  0  0  0  0
  3  6  1  0  0  0  0
  4 12  2  0  0  0  0
  4 15  1  0  0  0  0
  5 15  1  0  0  0  0
  6  2  1  0  0  0  0
  6  1  1  0  0  0  0
  6 11  1  0  0  0  0
  7  5  1  0  0  0  0
  8  4  1  0  0  0  0
  9 16  1  0  0  0  0
 12 13  1  0  0  0  0
 13 19  1  0  0  0  0
 13  9  2  0  0  0  0
 14  8  2  0  0  0  0
 14  7  1  0  0  0  0
 15  3  2  0  0  0  0
 16 10  1  0  0  0  0
 17 23  1  0  0  0  0
 18 17  1  0  0  0  0
 19 21  1  0  0  0  0
 20 18  1  0  0  0  0
 21 17  1  0  0  0  0
 22 20  1  0  0  0  0
 22 19  1  0  0  0  0
 24 26  1  1  0  0  0
 25 24  1  0  0  0  0
 27 14  1  0  0  0  0
 28 29  2  0  0  0  0
 29 27  1  0  0  0  0
 31 30  1  6  0  0  0
 31 32  1  0  0  0  0
 31 28  1  0  0  0  0
 33 34  1  0  0  0  0
 34 31  1  0  0  0  0
M  END
>  <MODEL>
6

>  <REMARK>
 VINA RESULT:      -7.1      3.169      7.746
  Name = 
  6 active torsions:
  status: ('A' for Active; 'I' for Inactive)
    1  A    between atoms: C_1  and  C_6
    2  A    between atoms: C_3  and  C_29
    3  A    between atoms: C_3  and  C_33
    4  A    between atoms: N_12  and  C_28
    5  A    between atoms: N_13  and  C_20
    6  A    between atoms: C_20  and  C_22
                            x       y       z     vdW  Elec       q    Type
                         _______ _______ _______ _____ _____    ______ ____

>  <TORSDO>
F 6

$$$$
=
 OpenBabel11052419003D

 34 38  0  0  1  0  0  0  0  0999 V2000
  187.6840  177.6530  144.3220 C   0  0  2  0  0  3  0  0  0  0  0  0
  187.2150  177.3850  141.7310 C   0  0  0  0  0  2  0  0  0  0  0  0
  189.2810  176.1620  142.8790 C   0  0  0  0  0  0  0  0  0  0  0  0
  190.5010  174.2500  141.9920 C   0  0  0  0  0  0  0  0  0  0  0  0
  188.1960  174.6650  141.1130 C   0  0  0  0  0  2  0  0  0  0  0  0
  188.1030  177.1150  142.9370 C   0  0  0  0  0  0  0  0  0  0  0  0
  188.6850  174.0430  139.8030 C   0  0  0  0  0  2  0  0  0  0  0  0
  190.6000  173.1170  141.0570 C   0  0  0  0  0  3  0  0  0  0  0  0
  190.3270  176.3830  143.8020 C   0  0  0  0  0  0  0  0  0  0  0  0
  188.8000  177.5400  145.3760 C   0  0  0  0  0  2  0  0  0  0  0  0
  188.3810  178.2970  142.0230 C   0  0  0  0  0  2  0  0  0  0  0  0
  191.5390  174.4940  142.8880 C   0  0  0  0  0  3  0  0  0  0  0  0
  191.4680  175.5480  143.8070 C   0  0  0  0  0  0  0  0  0  0  0  0
  189.7230  172.9820  140.0570 C   0  0  0  0  0  0  0  0  0  0  0  0
  189.3560  175.0680  141.9890 C   0  0  0  0  0  0  0  0  0  0  0  0
  190.1990  177.5400  144.7560 C   0  0  0  0  0  2  0  0  0  0  0  0
  194.8520  175.5930  144.1230 N   0  0  0  0  0  0  0  0  0  0  0  0
  195.1220  174.8850  145.3750 C   0  0  0  0  0  2  0  0  0  0  0  0
  192.5490  175.7470  144.7340 N   0  0  0  0  0  0  0  0  0  0  0  0
  193.9230  174.0180  145.7630 C   0  0  0  0  0  2  0  0  0  0  0  0
  193.7330  176.5090  144.3410 C   0  0  0  0  0  2  0  0  0  0  0  0
  192.6920  174.9040  145.9170 C   0  0  0  0  0  2  0  0  0  0  0  0
  196.0160  176.4150  143.8470 C   0  0  0  0  0  1  0  0  0  0  0  0
  186.3960  177.0200  144.8570 C   0  0  1  0  0  3  0  0  0  0  0  0
  186.5880  176.5380  146.1510 O   0  0  0  0  0  1  0  0  0  0  0  0
  185.2190  177.9830  144.8320 C   0  0  0  0  0  1  0  0  0  0  0  0
  189.7940  171.7900  139.1640 C   0  0  0  0  0  2  0  0  0  0  0  0
  190.5150  172.5940  137.0020 N   0  0  0  0  0  0  0  0  0  0  0  0
  189.5480  172.1790  137.7430 C   0  0  0  0  0  3  0  0  0  0  0  0
  189.3310  174.1340  135.5360 C   0  0  0  0  0  1  0  0  0  0  0  0
  190.3270  172.9900  135.6210 C   0  0  1  0  0  0  0  0  0  0  0  0
  191.5460  173.4340  135.1060 O   0  0  0  0  0  1  0  0  0  0  0  0
  190.8350  170.7020  134.6670 C   0  0  0  0  0  1  0  0  0  0  0  0
  189.8130  171.8230  134.7740 C   0  0  0  0  0  2  0  0  0  0  0  0
  1 24  1  1  0  0  0
  1 10  1  0  0  0  0
  2 11  1  0  0  0  0
  2  6  1  0  0  0  0
  3  6  1  0  0  0  0
  3  9  1  0  0  0  0
  4 12  2  0  0  0  0
  5 15  1  0  0  0  0
  6  1  1  0  0  0  0
  7 14  1  0  0  0  0
  7  5  1  0  0  0  0
  8  4  1  0  0  0  0
  9 13  2  0  0  0  0
  9 16  1  0  0  0  0
 11  6  1  0  0  0  0
 12 13  1  0  0  0  0
 13 19  1  0  0  0  0
 14  8  2  0  0  0  0
 15  4  1  0  0  0  0
 15  3  2  0  0  0  0
 16 10  1  0  0  0  0
 17 21  1  0  0  0  0
 17 18  1  0  0  0  0
 18 20  1  0  0  0  0
 19 22  1  0  0  0  0
 20 22  1  0  0  0  0
 21 19  1  0  0  0  0
 23 17  1  0  0  0  0
 24 26  1  1  0  0  0
 24 25  1  0  0  0  0
 27 14  1  0  0  0  0
 28 29  2  0  0  0  0
 29 27  1  0  0  0  0
 31 30  1  6  0  0  0
 31 28  1  0  0  0  0
 32 31  1  0  0  0  0
 33 34  1  0  0  0  0
 34 31  1  0  0  0  0
M  END
>  <MODEL>
7

>  <REMARK>
 VINA RESULT:      -7.1      3.059      7.078
  Name = 
  6 active torsions:
  status: ('A' for Active; 'I' for Inactive)
    1  A    between atoms: C_1  and  C_6
    2  A    between atoms: C_3  and  C_29
    3  A    between atoms: C_3  and  C_33
    4  A    between atoms: N_12  and  C_28
    5  A    between atoms: N_13  and  C_20
    6  A    between atoms: C_20  and  C_22
                            x       y       z     vdW  Elec       q    Type
                         _______ _______ _______ _____ _____    ______ ____

>  <TORSDO>
F 6

$$$$
=
 OpenBabel11052419003D

 34 38  0  0  1  0  0  0  0  0999 V2000
  193.2520  174.6940  144.4920 C   0  0  2  0  0  3  0  0  0  0  0  0
  192.3550  177.1070  143.8810 C   0  0  0  0  0  2  0  0  0  0  0  0
  191.0940  174.9240  143.0280 C   0  0  0  0  0  0  0  0  0  0  0  0
  188.7880  174.7970  142.2560 C   0  0  0  0  0  0  0  0  0  0  0  0
  189.4260  176.7450  143.6910 C   0  0  0  0  0  2  0  0  0  0  0  0
  192.2580  175.5960  143.7310 C   0  0  0  0  0  0  0  0  0  0  0  0
  188.3590  177.5350  142.9300 C   0  0  0  0  0  2  0  0  0  0  0  0
  187.4390  175.3800  142.1520 C   0  0  0  0  0  3  0  0  0  0  0  0
  191.3380  173.6530  142.4630 C   0  0  0  0  0  0  0  0  0  0  0  0
  193.2080  173.2250  144.0340 C   0  0  0  0  0  2  0  0  0  0  0  0
  193.0330  176.4240  142.7190 C   0  0  0  0  0  2  0  0  0  0  0  0
  189.0470  173.5570  141.6790 C   0  0  0  0  0  3  0  0  0  0  0  0
  190.3110  172.9630  141.7790 C   0  0  0  0  0  0  0  0  0  0  0  0
  187.2170  176.6470  142.5130 C   0  0  0  0  0  0  0  0  0  0  0  0
  189.8010  175.4850  142.9500 C   0  0  0  0  0  0  0  0  0  0  0  0
  192.7200  173.0730  142.5920 C   0  0  0  0  0  2  0  0  0  0  0  0
  192.1560  170.1160  141.9950 N   0  0  0  0  0  0  0  0  0  0  0  0
  192.5040  169.7880  140.6130 C   0  0  0  0  0  2  0  0  0  0  0  0
  190.5280  171.6670  141.1930 N   0  0  0  0  0  0  0  0  0  0  0  0
  192.3600  171.0230  139.7220 C   0  0  0  0  0  2  0  0  0  0  0  0
  190.7450  170.4960  142.0410 C   0  0  0  0  0  2  0  0  0  0  0  0
  190.9240  171.5300  139.7940 C   0  0  0  0  0  2  0  0  0  0  0  0
  192.2830  168.8900  142.7620 C   0  0  0  0  0  1  0  0  0  0  0  0
  193.1010  174.7700  146.0150 C   0  0  1  0  0  3  0  0  0  0  0  0
  193.9040  175.7840  146.5370 O   0  0  0  0  0  1  0  0  0  0  0  0
  191.6570  174.9780  146.4480 C   0  0  0  0  0  1  0  0  0  0  0  0
  185.8310  177.1980  142.4700 C   0  0  0  0  0  2  0  0  0  0  0  0
  185.4980  177.0300  144.8580 N   0  0  0  0  0  0  0  0  0  0  0  0
  185.4460  177.7610  143.7990 C   0  0  0  0  0  3  0  0  0  0  0  0
  184.1320  178.6660  146.0350 C   0  0  0  0  0  1  0  0  0  0  0  0
  185.1280  177.5260  146.1690 C   0  0  1  0  0  0  0  0  0  0  0  0
  184.5190  176.4960  146.8880 O   0  0  0  0  0  1  0  0  0  0  0  0
  187.5330  177.0760  146.8150 C   0  0  0  0  0  1  0  0  0  0  0  0
  186.3520  178.0280  146.9370 C   0  0  0  0  0  2  0  0  0  0  0  0
  1 24  1  1  0  0  0
  3  6  1  0  0  0  0
  4 15  2  0  0  0  0
  6  2  1  0  0  0  0
  6  1  1  0  0  0  0
  7  5  1  0  0  0  0
  8  4  1  0  0  0  0
  8 14  2  0  0  0  0
  9 16  1  0  0  0  0
  9  3  2  0  0  0  0
 10  1  1  0  0  0  0
 11  6  1  0  0  0  0
 11  2  1  0  0  0  0
 12 13  2  0  0  0  0
 12  4  1  0  0  0  0
 13  9  1  0  0  0  0
 14  7  1  0  0  0  0
 15  3  1  0  0  0  0
 15  5  1  0  0  0  0
 16 10  1  0  0  0  0
 17 21  1  0  0  0  0
 17 23  1  0  0  0  0
 18 17  1  0  0  0  0
 19 13  1  0  0  0  0
 19 21  1  0  0  0  0
 20 22  1  0  0  0  0
 20 18  1  0  0  0  0
 22 19  1  0  0  0  0
 24 26  1  6  0  0  0
 24 25  1  0  0  0  0
 27 14  1  0  0  0  0
 27 29  1  0  0  0  0
 28 31  1  0  0  0  0
 29 28  2  0  0  0  0
 31 30  1  6  0  0  0
 31 32  1  0  0  0  0
 31 34  1  0  0  0  0
 33 34  1  0  0  0  0
M  END
>  <MODEL>
8

>  <REMARK>
 VINA RESULT:      -6.8      2.534      7.139
  Name = 
  6 active torsions:
  status: ('A' for Active; 'I' for Inactive)
    1  A    between atoms: C_1  and  C_6
    2  A    between atoms: C_3  and  C_29
    3  A    between atoms: C_3  and  C_33
    4  A    between atoms: N_12  and  C_28
    5  A    between atoms: N_13  and  C_20
    6  A    between atoms: C_20  and  C_22
                            x       y       z     vdW  Elec       q    Type
                         _______ _______ _______ _____ _____    ______ ____

>  <TORSDO>
F 6

$$$$
=
 OpenBabel11052419003D

 34 38  0  0  1  0  0  0  0  0999 V2000
  191.6000  175.8210  144.5690 C   0  0  2  0  0  3  0  0  0  0  0  0
  190.6670  178.2970  144.5870 C   0  0  0  0  0  2  0  0  0  0  0  0
  189.3370  176.3450  143.3610 C   0  0  0  0  0  0  0  0  0  0  0  0
  186.9780  176.3630  142.7570 C   0  0  0  0  0  0  0  0  0  0  0  0
  187.7310  177.9450  144.5420 C   0  0  0  0  0  2  0  0  0  0  0  0
  190.5540  176.8570  144.1080 C   0  0  0  0  0  0  0  0  0  0  0  0
  186.6120  178.8720  144.0620 C   0  0  0  0  0  2  0  0  0  0  0  0
  185.6270  176.9350  142.8890 C   0  0  0  0  0  3  0  0  0  0  0  0
  189.5320  175.2370  142.5070 C   0  0  0  0  0  0  0  0  0  0  0  0
  191.5160  174.4920  143.7960 C   0  0  0  0  0  2  0  0  0  0  0  0
  191.2510  177.9030  143.2530 C   0  0  0  0  0  2  0  0  0  0  0  0
  187.1880  175.2880  141.8970 C   0  0  0  0  0  3  0  0  0  0  0  0
  188.4530  174.7050  141.7650 C   0  0  0  0  0  0  0  0  0  0  0  0
  185.4380  178.0850  143.5430 C   0  0  0  0  0  0  0  0  0  0  0  0
  188.0430  176.8910  143.5100 C   0  0  0  0  0  0  0  0  0  0  0  0
  190.9190  174.6620  142.3970 C   0  0  0  0  0  2  0  0  0  0  0  0
  190.3380  171.9410  141.1580 N   0  0  0  0  0  0  0  0  0  0  0  0
  190.5430  171.9370  139.7090 C   0  0  0  0  0  2  0  0  0  0  0  0
  188.6210  173.5770  140.8870 N   0  0  0  0  0  0  0  0  0  0  0  0
  190.2950  173.3320  139.1340 C   0  0  0  0  0  2  0  0  0  0  0  0
  188.9360  172.2560  141.4280 C   0  0  0  0  0  2  0  0  0  0  0  0
  188.8690  173.7650  139.4610 C   0  0  0  0  0  2  0  0  0  0  0  0
  190.5570  170.5820  141.6160 C   0  0  0  0  0  1  0  0  0  0  0  0
  191.5660  175.5500  146.0760 C   0  0  1  0  0  3  0  0  0  0  0  0
  190.3590  174.9530  146.4390 O   0  0  0  0  0  1  0  0  0  0  0  0
  192.7310  174.6880  146.5400 C   0  0  0  0  0  1  0  0  0  0  0  0
  184.0550  178.6120  143.7300 C   0  0  0  0  0  2  0  0  0  0  0  0
  182.0650  178.8700  142.3830 N   0  0  0  0  0  0  0  0  0  0  0  0
  183.2030  178.2910  142.5460 C   0  0  0  0  0  3  0  0  0  0  0  0
  181.9870  177.9150  140.1460 C   0  0  0  0  0  1  0  0  0  0  0  0
  181.1990  178.5880  141.2560 C   0  0  1  0  0  0  0  0  0  0  0  0
  180.1900  177.7150  141.6660 O   0  0  0  0  0  1  0  0  0  0  0  0
  179.1060  179.6760  140.3390 C   0  0  0  0  0  1  0  0  0  0  0  0
  180.5690  179.8710  140.7070 C   0  0  0  0  0  2  0  0  0  0  0  0
  1 24  1  1  0  0  0
  3 15  1  0  0  0  0
  3  6  1  0  0  0  0
  4  8  1  0  0  0  0
  4 15  2  0  0  0  0
  6  1  1  0  0  0  0
  6  2  1  0  0  0  0
  7  5  1  0  0  0  0
  8 14  2  0  0  0  0
  9  3  2  0  0  0  0
 10  1  1  0  0  0  0
 11  6  1  0  0  0  0
 11  2  1  0  0  0  0
 12  4  1  0  0  0  0
 13 12  2  0  0  0  0
 13  9  1  0  0  0  0
 14 27  1  0  0  0  0
 14  7  1  0  0  0  0
 15  5  1  0  0  0  0
 16  9  1  0  0  0  0
 16 10  1  0  0  0  0
 17 21  1  0  0  0  0
 17 23  1  0  0  0  0
 18 17  1  0  0  0  0
 19 21  1  0  0  0  0
 19 13  1  0  0  0  0
 20 22  1  0  0  0  0
 20 18  1  0  0  0  0
 22 19  1  0  0  0  0
 24 25  1  0  0  0  0
 24 26  1  6  0  0  0
 28 29  2  0  0  0  0
 29 27  1  0  0  0  0
 31 30  1  6  0  0  0
 31 32  1  0  0  0  0
 31 28  1  0  0  0  0
 33 34  1  0  0  0  0
 34 31  1  0  0  0  0
M  END
>  <MODEL>
9

>  <REMARK>
 VINA RESULT:      -6.8      3.220      8.631
  Name = 
  6 active torsions:
  status: ('A' for Active; 'I' for Inactive)
    1  A    between atoms: C_1  and  C_6
    2  A    between atoms: C_3  and  C_29
    3  A    between atoms: C_3  and  C_33
    4  A    between atoms: N_12  and  C_28
    5  A    between atoms: N_13  and  C_20
    6  A    between atoms: C_20  and  C_22
                            x       y       z     vdW  Elec       q    Type
                         _______ _______ _______ _____ _____    ______ ____

>  <TORSDO>
F 6

$$$$
