=
 OpenBabel11052419113D

 32 38  0  0  1  0  0  0  0  0999 V2000
  189.8760  176.5720  145.0450 C   0  0  1  0  0  3  0  0  0  0  0  0
  190.9590  174.2990  145.3640 C   0  0  2  0  0  3  0  0  0  0  0  0
  189.4540  176.6570  146.4490 N   0  0  0  0  0  0  0  0  0  0  0  0
  191.1400  175.7870  144.9490 C   0  0  2  0  0  3  0  0  0  0  0  0
  192.1470  173.4990  144.8610 C   0  0  1  0  0  3  0  0  0  0  0  0
  190.7570  173.4000  144.1490 C   0  0  2  0  0  3  0  0  0  0  0  0
  192.2410  176.4090  145.7520 C   0  0  2  0  0  3  0  0  0  0  0  0
  193.4960  175.5080  145.6110 C   0  0  0  0  0  2  0  0  0  0  0  0
  191.7620  176.5480  147.1330 N   0  0  0  0  0  2  0  0  0  0  0  0
  188.8000  174.6970  143.6920 O   0  0  0  0  0  0  0  0  0  0  0  0
  188.8390  176.0890  143.9880 C   0  0  1  0  0  3  0  0  0  0  0  0
  190.0290  174.2840  143.1100 C   0  0  2  0  0  3  0  0  0  0  0  0
  193.3170  174.4460  144.4760 C   0  0  1  0  0  3  0  0  0  0  0  0
  190.3440  176.6890  147.4130 C   0  0  0  0  0  3  0  0  0  0  0  0
  185.8860  178.5750  143.8290 C   0  0  2  0  0  3  0  0  0  0  0  0
  183.9260  178.4290  146.4090 N   0  0  0  0  0  2  0  0  0  0  0  0
  185.4620  179.9950  144.0960 C   0  0  0  0  0  2  0  0  0  0  0  0
  185.5790  176.6880  146.0200 C   0  0  0  0  0  2  0  0  0  0  0  0
  187.4450  176.6930  144.1840 C   0  0  1  0  0  3  0  0  0  0  0  0
  185.9230  179.1240  145.2460 C   0  0  1  0  0  3  0  0  0  0  0  0
  187.0850  176.5590  145.6840 C   0  0  0  0  0  2  0  0  0  0  0  0
  187.3200  178.1480  143.6380 C   0  0  1  0  0  3  0  0  0  0  0  0
  187.6500  178.2240  142.1570 C   0  0  0  0  0  1  0  0  0  0  0  0
  185.0700  178.1110  145.9250 C   0  0  0  0  0  0  0  0  0  0  0  0
  188.8520  174.0090  140.9260 C   0  0  0  0  0  3  0  0  0  0  0  0
  189.3090  172.1350  139.4630 C   0  0  0  0  0  3  0  0  0  0  0  0
  190.4800  172.3370  141.5720 C   0  0  0  0  0  3  0  0  0  0  0  0
  190.2430  171.6440  140.3810 C   0  0  0  0  0  3  0  0  0  0  0  0
  188.6140  173.3170  139.7350 C   0  0  0  0  0  3  0  0  0  0  0  0
  189.7820  173.5210  141.8500 C   0  0  0  0  0  0  0  0  0  0  0  0
  194.4900  173.7050  144.3370 O   0  0  0  0  0  0  0  0  0  0  0  0
  194.4680  172.8030  145.4010 C   0  0  0  0  0  1  0  0  0  0  0  0
  1  3  1  1  0  0  0
  3 14  2  0  0  0  0
  4  1  1  0  0  0  0
  4  2  1  0  0  0  0
  4  7  1  0  0  0  0
  5  2  1  0  0  0  0
  6  5  1  0  0  0  0
  6  2  1  0  0  0  0
  7  9  1  0  0  0  0
  8  7  1  0  0  0  0
  9 14  1  0  0  0  0
 10 11  1  0  0  0  0
 11 19  1  0  0  0  0
 11  1  1  0  0  0  0
 12 10  1  0  0  0  0
 12  6  1  0  0  0  0
 13  5  1  0  0  0  0
 13  8  1  0  0  0  0
 15 17  1  0  0  0  0
 15 20  1  0  0  0  0
 17 20  1  0  0  0  0
 19 21  1  0  0  0  0
 20 24  1  0  0  0  0
 21 18  1  0  0  0  0
 22 15  1  0  0  0  0
 22 19  1  0  0  0  0
 23 22  1  0  0  0  0
 24 18  1  0  0  0  0
 24 16  2  0  0  0  0
 25 30  1  0  0  0  0
 26 29  1  0  0  0  0
 26 28  2  0  0  0  0
 27 30  2  0  0  0  0
 28 27  1  0  0  0  0
 29 25  2  0  0  0  0
 30 12  1  0  0  0  0
 31 13  1  0  0  0  0
 31 32  1  0  0  0  0
M  END
>  <MODEL>
1

>  <REMARK>
 VINA RESULT:      -8.8      0.000      0.000
  Name = 
  3 active torsions:
  status: ('A' for Active; 'I' for Inactive)
    1  A    between atoms: O_13  and  C_29
    2  A    between atoms: C_16  and  C_27
    3  A    between atoms: C_28  and  C_32
                            x       y       z     vdW  Elec       q    Type
                         _______ _______ _______ _____ _____    ______ ____

>  <TORSDO>
F 3

$$$$
=
 OpenBabel11052419113D

 32 38  0  0  1  0  0  0  0  0999 V2000
  189.2830  175.8590  145.1070 C   0  0  1  0  0  3  0  0  0  0  0  0
  188.0500  177.9160  144.2770 C   0  0  2  0  0  3  0  0  0  0  0  0
  190.1870  176.6440  145.9570 N   0  0  0  0  0  0  0  0  0  0  0  0
  187.9630  176.5470  145.0100 C   0  0  2  0  0  3  0  0  0  0  0  0
  186.6530  178.3450  143.8670 C   0  0  1  0  0  3  0  0  0  0  0  0
  187.6630  177.7910  142.8080 C   0  0  2  0  0  3  0  0  0  0  0  0
  187.3330  176.7280  146.3550 C   0  0  2  0  0  3  0  0  0  0  0  0
  185.9880  177.4740  146.1510 C   0  0  0  0  0  2  0  0  0  0  0  0
  188.2900  177.4510  147.2030 N   0  0  0  0  0  2  0  0  0  0  0  0
  189.5020  176.2740  142.6000 O   0  0  0  0  0  0  0  0  0  0  0  0
  189.7850  175.4160  143.7010 C   0  0  1  0  0  3  0  0  0  0  0  0
  188.0980  176.3650  142.3970 C   0  0  2  0  0  3  0  0  0  0  0  0
  185.5840  177.5260  144.6400 C   0  0  1  0  0  3  0  0  0  0  0  0
  189.7170  177.3500  146.9590 C   0  0  0  0  0  3  0  0  0  0  0  0
  192.9380  173.3850  144.6240 C   0  0  2  0  0  3  0  0  0  0  0  0
  195.6990  175.0600  144.3150 N   0  0  0  0  0  2  0  0  0  0  0  0
  193.8170  172.9310  145.7610 C   0  0  0  0  0  2  0  0  0  0  0  0
  193.6270  175.9180  143.3740 C   0  0  0  0  0  2  0  0  0  0  0  0
  191.2320  174.9130  143.7030 C   0  0  1  0  0  3  0  0  0  0  0  0
  193.6800  174.4110  145.4670 C   0  0  1  0  0  3  0  0  0  0  0  0
  192.1570  176.1510  143.8010 C   0  0  0  0  0  2  0  0  0  0  0  0
  191.5090  173.8360  144.7960 C   0  0  1  0  0  3  0  0  0  0  0  0
  190.6030  172.6280  144.6380 C   0  0  0  0  0  1  0  0  0  0  0  0
  194.4210  175.1240  144.3890 C   0  0  0  0  0  0  0  0  0  0  0  0
  187.0100  177.0460  140.2560 C   0  0  0  0  0  3  0  0  0  0  0  0
  187.1220  175.6570  138.2770 C   0  0  0  0  0  3  0  0  0  0  0  0
  188.1920  174.9330  140.3230 C   0  0  0  0  0  3  0  0  0  0  0  0
  187.8730  174.7110  138.9810 C   0  0  0  0  0  3  0  0  0  0  0  0
  186.6910  176.8240  138.9140 C   0  0  0  0  0  3  0  0  0  0  0  0
  187.7580  176.1010  140.9670 C   0  0  0  0  0  0  0  0  0  0  0  0
  184.3390  178.1420  144.5080 O   0  0  0  0  0  0  0  0  0  0  0  0
  184.0670  178.6650  145.7730 C   0  0  0  0  0  1  0  0  0  0  0  0
  1  3  1  6  0  0  0
  2  4  1  0  0  0  0
  3 14  2  0  0  0  0
  4  1  1  0  0  0  0
  4  7  1  0  0  0  0
  5  2  1  0  0  0  0
  5 13  1  0  0  0  0
  6  5  1  0  0  0  0
  6  2  1  0  0  0  0
  7  9  1  0  0  0  0
  8  7  1  0  0  0  0
 10 11  1  0  0  0  0
 11 19  1  0  0  0  0
 11  1  1  0  0  0  0
 12 10  1  0  0  0  0
 12  6  1  0  0  0  0
 13  8  1  0  0  0  0
 14  9  1  0  0  0  0
 15 22  1  0  0  0  0
 15 20  1  0  0  0  0
 15 17  1  0  0  0  0
 16 24  2  0  0  0  0
 18 21  1  0  0  0  0
 18 24  1  0  0  0  0
 19 21  1  0  0  0  0
 19 22  1  0  0  0  0
 20 17  1  0  0  0  0
 23 22  1  0  0  0  0
 24 20  1  0  0  0  0
 25 30  1  0  0  0  0
 26 29  1  0  0  0  0
 26 28  2  0  0  0  0
 27 30  2  0  0  0  0
 28 27  1  0  0  0  0
 29 25  2  0  0  0  0
 30 12  1  0  0  0  0
 31 13  1  0  0  0  0
 31 32  1  0  0  0  0
M  END
>  <MODEL>
2

>  <REMARK>
 VINA RESULT:      -8.5      2.077      6.608
  Name = 
  3 active torsions:
  status: ('A' for Active; 'I' for Inactive)
    1  A    between atoms: O_13  and  C_29
    2  A    between atoms: C_16  and  C_27
    3  A    between atoms: C_28  and  C_32
                            x       y       z     vdW  Elec       q    Type
                         _______ _______ _______ _____ _____    ______ ____

>  <TORSDO>
F 3

$$$$
=
 OpenBabel11052419113D

 32 38  0  0  1  0  0  0  0  0999 V2000
  190.8590  176.8400  145.4570 C   0  0  1  0  0  3  0  0  0  0  0  0
  191.6980  174.4480  145.5800 C   0  0  2  0  0  3  0  0  0  0  0  0
  190.6660  176.9320  146.9090 N   0  0  0  0  0  0  0  0  0  0  0  0
  191.9920  175.9160  145.1600 C   0  0  2  0  0  3  0  0  0  0  0  0
  192.6930  173.5300  144.8930 C   0  0  1  0  0  3  0  0  0  0  0  0
  191.2100  173.6150  144.4000 C   0  0  2  0  0  3  0  0  0  0  0  0
  193.2670  176.3810  145.7930 C   0  0  2  0  0  3  0  0  0  0  0  0
  194.3690  175.3450  145.4520 C   0  0  0  0  0  2  0  0  0  0  0  0
  193.0200  176.5340  147.2320 N   0  0  0  0  0  2  0  0  0  0  0  0
  189.3750  175.1450  144.2610 O   0  0  0  0  0  0  0  0  0  0  0  0
  189.6250  176.5130  144.5640 C   0  0  1  0  0  3  0  0  0  0  0  0
  190.4450  174.6090  143.4940 C   0  0  2  0  0  3  0  0  0  0  0  0
  193.8960  174.3450  144.3450 C   0  0  1  0  0  3  0  0  0  0  0  0
  191.6880  176.8310  147.7270 C   0  0  0  0  0  3  0  0  0  0  0  0
  186.2300  177.3060  146.2260 C   0  0  2  0  0  3  0  0  0  0  0  0
  184.3620  179.3000  144.4770 N   0  0  0  0  0  2  0  0  0  0  0  0
  184.8180  176.8200  146.4280 C   0  0  0  0  0  2  0  0  0  0  0  0
  186.7070  178.9980  143.9100 C   0  0  0  0  0  2  0  0  0  0  0  0
  188.3590  177.2700  144.9770 C   0  0  1  0  0  3  0  0  0  0  0  0
  185.3030  177.1480  145.0310 C   0  0  1  0  0  3  0  0  0  0  0  0
  187.7190  177.8470  143.6910 C   0  0  0  0  0  2  0  0  0  0  0  0
  187.3780  176.4120  145.8330 C   0  0  1  0  0  3  0  0  0  0  0  0
  188.0400  175.8970  147.1000 C   0  0  0  0  0  1  0  0  0  0  0  0
  185.3840  178.5260  144.4730 C   0  0  0  0  0  0  0  0  0  0  0  0
  189.0250  174.5910  141.4410 C   0  0  0  0  0  3  0  0  0  0  0  0
  188.9390  172.6670  139.9730 C   0  0  0  0  0  3  0  0  0  0  0  0
  190.3310  172.6160  141.9530 C   0  0  0  0  0  3  0  0  0  0  0  0
  189.8390  171.9910  140.8030 C   0  0  0  0  0  3  0  0  0  0  0  0
  188.5330  173.9660  140.2910 C   0  0  0  0  0  3  0  0  0  0  0  0
  189.9220  173.9180  142.2780 C   0  0  0  0  0  0  0  0  0  0  0  0
  194.9380  173.4770  144.0190 O   0  0  0  0  0  0  0  0  0  0  0  0
  195.2990  172.8870  145.2310 C   0  0  0  0  0  1  0  0  0  0  0  0
  1  3  1  1  0  0  0
  3 14  2  0  0  0  0
  4  1  1  0  0  0  0
  4  2  1  0  0  0  0
  4  7  1  0  0  0  0
  5  2  1  0  0  0  0
  6  5  1  0  0  0  0
  6  2  1  0  0  0  0
  7  9  1  0  0  0  0
  8  7  1  0  0  0  0
  9 14  1  0  0  0  0
 10 11  1  0  0  0  0
 11 19  1  0  0  0  0
 11  1  1  0  0  0  0
 12 10  1  0  0  0  0
 12  6  1  0  0  0  0
 13  5  1  0  0  0  0
 13  8  1  0  0  0  0
 15 17  1  0  0  0  0
 18 24  1  0  0  0  0
 19 22  1  0  0  0  0
 20 15  1  0  0  0  0
 20 17  1  0  0  0  0
 21 18  1  0  0  0  0
 21 19  1  0  0  0  0
 22 15  1  0  0  0  0
 22 23  1  0  0  0  0
 24 16  2  0  0  0  0
 24 20  1  0  0  0  0
 25 30  1  0  0  0  0
 26 29  1  0  0  0  0
 26 28  2  0  0  0  0
 27 30  2  0  0  0  0
 28 27  1  0  0  0  0
 29 25  2  0  0  0  0
 30 12  1  0  0  0  0
 31 13  1  0  0  0  0
 31 32  1  0  0  0  0
M  END
>  <MODEL>
3

>  <REMARK>
 VINA RESULT:      -8.4      0.993      1.845
  Name = 
  3 active torsions:
  status: ('A' for Active; 'I' for Inactive)
    1  A    between atoms: O_13  and  C_29
    2  A    between atoms: C_16  and  C_27
    3  A    between atoms: C_28  and  C_32
                            x       y       z     vdW  Elec       q    Type
                         _______ _______ _______ _____ _____    ______ ____

>  <TORSDO>
F 3

$$$$
=
 OpenBabel11052419113D

 32 38  0  0  1  0  0  0  0  0999 V2000
  190.0370  175.5790  145.7450 C   0  0  1  0  0  3  0  0  0  0  0  0
  188.9320  177.1640  144.0990 C   0  0  2  0  0  3  0  0  0  0  0  0
  190.6230  176.6730  146.5280 N   0  0  0  0  0  0  0  0  0  0  0  0
  188.7470  176.0280  145.1450 C   0  0  2  0  0  3  0  0  0  0  0  0
  187.6700  177.2740  143.2630 C   0  0  1  0  0  3  0  0  0  0  0  0
  188.9620  176.6150  142.6770 C   0  0  2  0  0  3  0  0  0  0  0  0
  187.7680  176.4560  146.1940 C   0  0  2  0  0  3  0  0  0  0  0  0
  186.4790  176.9300  145.4730 C   0  0  0  0  0  2  0  0  0  0  0  0
  188.4110  177.4970  147.0060 N   0  0  0  0  0  2  0  0  0  0  0  0
  190.8890  175.3680  143.3500 O   0  0  0  0  0  0  0  0  0  0  0  0
  190.9270  174.8670  144.6830 C   0  0  1  0  0  3  0  0  0  0  0  0
  189.5890  175.2070  142.8010 C   0  0  2  0  0  3  0  0  0  0  0  0
  186.4910  176.5380  143.9580 C   0  0  1  0  0  3  0  0  0  0  0  0
  189.8550  177.5380  147.1480 C   0  0  0  0  0  3  0  0  0  0  0  0
  194.7450  175.1900  145.1660 C   0  0  2  0  0  3  0  0  0  0  0  0
  196.2400  172.3500  145.6350 N   0  0  0  0  0  2  0  0  0  0  0  0
  196.0680  175.3060  144.4530 C   0  0  0  0  0  2  0  0  0  0  0  0
  193.8160  172.5010  145.7630 C   0  0  0  0  0  2  0  0  0  0  0  0
  192.3510  174.5880  145.1720 C   0  0  1  0  0  3  0  0  0  0  0  0
  195.2250  174.0610  144.2680 C   0  0  1  0  0  3  0  0  0  0  0  0
  192.6360  173.0830  144.9480 C   0  0  0  0  0  2  0  0  0  0  0  0
  193.4180  175.5290  144.5350 C   0  0  1  0  0  3  0  0  0  0  0  0
  193.1160  176.9920  144.8100 C   0  0  0  0  0  1  0  0  0  0  0  0
  195.1690  172.9340  145.2400 C   0  0  0  0  0  0  0  0  0  0  0  0
  188.5590  174.6060  140.6080 C   0  0  0  0  0  3  0  0  0  0  0  0
  189.7710  173.3330  138.9420 C   0  0  0  0  0  3  0  0  0  0  0  0
  190.8250  173.8750  141.0530 C   0  0  0  0  0  3  0  0  0  0  0  0
  190.8780  173.2700  139.7940 C   0  0  0  0  0  3  0  0  0  0  0  0
  188.6130  174.0020  139.3490 C   0  0  0  0  0  3  0  0  0  0  0  0
  189.6630  174.5430  141.4660 C   0  0  0  0  0  0  0  0  0  0  0  0
  185.2880  176.9190  143.3640 O   0  0  0  0  0  0  0  0  0  0  0  0
  184.8250  177.9760  144.1490 C   0  0  0  0  0  1  0  0  0  0  0  0
  1  3  1  6  0  0  0
  2  4  1  0  0  0  0
  3 14  2  0  0  0  0
  4  1  1  0  0  0  0
  4  7  1  0  0  0  0
  5 13  1  0  0  0  0
  5  2  1  0  0  0  0
  6 12  1  0  0  0  0
  6  5  1  0  0  0  0
  6  2  1  0  0  0  0
  7  9  1  0  0  0  0
  8  7  1  0  0  0  0
  9 14  1  0  0  0  0
 10 11  1  0  0  0  0
 11 19  1  0  0  0  0
 11  1  1  0  0  0  0
 12 10  1  0  0  0  0
 13  8  1  0  0  0  0
 17 15  1  0  0  0  0
 20 17  1  0  0  0  0
 20 15  1  0  0  0  0
 20 24  1  0  0  0  0
 21 19  1  0  0  0  0
 21 18  1  0  0  0  0
 22 23  1  0  0  0  0
 22 15  1  0  0  0  0
 22 19  1  0  0  0  0
 24 16  2  0  0  0  0
 24 18  1  0  0  0  0
 25 30  1  0  0  0  0
 26 29  1  0  0  0  0
 26 28  2  0  0  0  0
 27 30  2  0  0  0  0
 28 27  1  0  0  0  0
 29 25  2  0  0  0  0
 30 12  1  0  0  0  0
 31 13  1  0  0  0  0
 31 32  1  0  0  0  0
M  END
>  <MODEL>
4

>  <REMARK>
 VINA RESULT:      -8.4      1.841      6.497
  Name = 
  3 active torsions:
  status: ('A' for Active; 'I' for Inactive)
    1  A    between atoms: O_13  and  C_29
    2  A    between atoms: C_16  and  C_27
    3  A    between atoms: C_28  and  C_32
                            x       y       z     vdW  Elec       q    Type
                         _______ _______ _______ _____ _____    ______ ____

>  <TORSDO>
F 3

$$$$
=
 OpenBabel11052419113D

 32 38  0  0  1  0  0  0  0  0999 V2000
  188.4530  174.7590  142.7130 C   0  0  1  0  0  3  0  0  0  0  0  0
  190.8510  175.2450  142.0400 C   0  0  2  0  0  3  0  0  0  0  0  0
  187.9120  175.2390  141.4350 N   0  0  0  0  0  0  0  0  0  0  0  0
  189.8110  174.1830  142.4970 C   0  0  2  0  0  3  0  0  0  0  0  0
  192.2480  174.6840  142.2360 C   0  0  1  0  0  3  0  0  0  0  0  0
  191.6750  175.7630  143.2130 C   0  0  2  0  0  3  0  0  0  0  0  0
  189.7820  173.0460  141.5220 C   0  0  2  0  0  3  0  0  0  0  0  0
  191.2370  172.5380  141.3450 C   0  0  0  0  0  2  0  0  0  0  0  0
  189.1700  173.5380  140.2820 N   0  0  0  0  0  2  0  0  0  0  0  0
  189.6080  176.5260  144.1440 O   0  0  0  0  0  0  0  0  0  0  0  0
  188.4470  175.7300  143.9310 C   0  0  1  0  0  3  0  0  0  0  0  0
  190.7260  175.6980  144.4330 C   0  0  2  0  0  3  0  0  0  0  0  0
  192.1930  173.1430  142.4260 C   0  0  1  0  0  3  0  0  0  0  0  0
  188.2190  174.6350  140.3110 C   0  0  0  0  0  3  0  0  0  0  0  0
  185.9030  178.6260  143.6790 C   0  0  2  0  0  3  0  0  0  0  0  0
  183.7890  178.7150  146.1380 N   0  0  0  0  0  2  0  0  0  0  0  0
  185.6740  180.0870  143.9640 C   0  0  0  0  0  2  0  0  0  0  0  0
  185.1910  176.7580  145.7910 C   0  0  0  0  0  2  0  0  0  0  0  0
  187.1460  176.5280  144.0660 C   0  0  1  0  0  3  0  0  0  0  0  0
  185.9330  179.1330  145.1120 C   0  0  1  0  0  3  0  0  0  0  0  0
  186.6800  176.4160  145.5380 C   0  0  0  0  0  2  0  0  0  0  0  0
  187.2690  177.9970  143.5570 C   0  0  1  0  0  3  0  0  0  0  0  0
  187.6950  178.0550  142.1010 C   0  0  0  0  0  1  0  0  0  0  0  0
  184.9010  178.2420  145.7100 C   0  0  0  0  0  0  0  0  0  0  0  0
  190.6740  176.3970  146.8280 C   0  0  0  0  0  3  0  0  0  0  0  0
  192.6910  177.0220  148.0130 C   0  0  0  0  0  3  0  0  0  0  0  0
  192.8100  176.3610  145.6870 C   0  0  0  0  0  3  0  0  0  0  0  0
  193.4430  176.7900  146.8570 C   0  0  0  0  0  3  0  0  0  0  0  0
  191.3070  176.8250  147.9980 C   0  0  0  0  0  3  0  0  0  0  0  0
  191.4210  176.1670  145.6680 C   0  0  0  0  0  0  0  0  0  0  0  0
  193.4720  172.6080  142.2740 O   0  0  0  0  0  0  0  0  0  0  0  0
  194.1590  173.0000  143.4250 C   0  0  0  0  0  1  0  0  0  0  0  0
  1  3  1  6  0  0  0
  1 11  1  0  0  0  0
  2  5  1  0  0  0  0
  2  4  1  0  0  0  0
  2  6  1  0  0  0  0
  4  1  1  0  0  0  0
  5 13  1  0  0  0  0
  5  6  1  0  0  0  0
  6 12  1  0  0  0  0
  7  4  1  0  0  0  0
  8  7  1  0  0  0  0
  8 13  1  0  0  0  0
  9 14  1  0  0  0  0
  9  7  1  0  0  0  0
 10 12  1  0  0  0  0
 11 19  1  0  0  0  0
 11 10  1  0  0  0  0
 12 30  1  0  0  0  0
 14  3  2  0  0  0  0
 15 17  1  0  0  0  0
 15 20  1  0  0  0  0
 17 20  1  0  0  0  0
 19 21  1  0  0  0  0
 20 24  1  0  0  0  0
 21 18  1  0  0  0  0
 22 15  1  0  0  0  0
 22 19  1  0  0  0  0
 23 22  1  0  0  0  0
 24 18  1  0  0  0  0
 24 16  2  0  0  0  0
 25 29  1  0  0  0  0
 27 28  2  0  0  0  0
 28 26  1  0  0  0  0
 29 26  2  0  0  0  0
 30 27  1  0  0  0  0
 30 25  2  0  0  0  0
 31 13  1  0  0  0  0
 31 32  1  0  0  0  0
M  END
>  <MODEL>
5

>  <REMARK>
 VINA RESULT:      -8.4      2.007      4.598
  Name = 
  3 active torsions:
  status: ('A' for Active; 'I' for Inactive)
    1  A    between atoms: O_13  and  C_29
    2  A    between atoms: C_16  and  C_27
    3  A    between atoms: C_28  and  C_32
                            x       y       z     vdW  Elec       q    Type
                         _______ _______ _______ _____ _____    ______ ____

>  <TORSDO>
F 3

$$$$
=
 OpenBabel11052419113D

 32 38  0  0  1  0  0  0  0  0999 V2000
  187.5320  176.5440  145.5970 C   0  0  1  0  0  3  0  0  0  0  0  0
  186.6830  178.6200  144.4090 C   0  0  2  0  0  3  0  0  0  0  0  0
  188.2550  177.3220  146.6100 N   0  0  0  0  0  0  0  0  0  0  0  0
  186.3260  177.3010  145.1520 C   0  0  2  0  0  3  0  0  0  0  0  0
  185.4600  179.1060  143.6520 C   0  0  1  0  0  3  0  0  0  0  0  0
  186.6550  178.4360  142.8960 C   0  0  2  0  0  3  0  0  0  0  0  0
  185.4030  177.5930  146.2940 C   0  0  2  0  0  3  0  0  0  0  0  0
  184.2030  178.4030  145.7360 C   0  0  0  0  0  2  0  0  0  0  0  0
  186.1740  178.3060  147.3200 N   0  0  0  0  0  2  0  0  0  0  0  0
  188.3790  176.8060  143.2060 O   0  0  0  0  0  0  0  0  0  0  0  0
  188.3280  175.9960  144.3750 C   0  0  1  0  0  3  0  0  0  0  0  0
  187.0760  176.9660  142.6610 C   0  0  2  0  0  3  0  0  0  0  0  0
  184.1810  178.3940  144.1720 C   0  0  1  0  0  3  0  0  0  0  0  0
  187.6080  178.1080  147.4380 C   0  0  0  0  0  3  0  0  0  0  0  0
  192.1540  175.5760  144.6910 C   0  0  2  0  0  3  0  0  0  0  0  0
  193.1220  172.4800  144.7400 N   0  0  0  0  0  2  0  0  0  0  0  0
  193.4530  175.5450  143.9280 C   0  0  0  0  0  2  0  0  0  0  0  0
  190.7710  173.0390  145.0130 C   0  0  0  0  0  2  0  0  0  0  0  0
  189.6920  175.4100  144.7520 C   0  0  1  0  0  3  0  0  0  0  0  0
  192.3930  174.5020  143.6410 C   0  0  1  0  0  3  0  0  0  0  0  0
  189.6910  173.9190  144.3360 C   0  0  0  0  0  2  0  0  0  0  0  0
  190.8920  176.2210  144.1750 C   0  0  1  0  0  3  0  0  0  0  0  0
  190.8690  177.6670  144.6380 C   0  0  0  0  0  1  0  0  0  0  0  0
  192.1630  173.2900  144.4750 C   0  0  0  0  0  0  0  0  0  0  0  0
  186.3350  177.4440  140.3260 C   0  0  0  0  0  3  0  0  0  0  0  0
  187.0670  176.0880  138.4590 C   0  0  0  0  0  3  0  0  0  0  0  0
  187.8170  175.5650  140.7000 C   0  0  0  0  0  3  0  0  0  0  0  0
  187.8110  175.2870  139.3300 C   0  0  0  0  0  3  0  0  0  0  0  0
  186.3290  177.1660  138.9560 C   0  0  0  0  0  3  0  0  0  0  0  0
  187.0740  176.6440  141.2030 C   0  0  0  0  0  0  0  0  0  0  0  0
  183.0510  179.0730  143.7140 O   0  0  0  0  0  0  0  0  0  0  0  0
  182.9060  178.6650  142.3870 C   0  0  0  0  0  1  0  0  0  0  0  0
  1  3  1  6  0  0  0
  2  4  1  0  0  0  0
  3 14  2  0  0  0  0
  4  1  1  0  0  0  0
  4  7  1  0  0  0  0
  5 13  1  0  0  0  0
  5  2  1  0  0  0  0
  6  5  1  0  0  0  0
  6  2  1  0  0  0  0
  7  9  1  0  0  0  0
  8  7  1  0  0  0  0
  9 14  1  0  0  0  0
 10 11  1  0  0  0  0
 11 19  1  0  0  0  0
 11  1  1  0  0  0  0
 12  6  1  0  0  0  0
 12 10  1  0  0  0  0
 13  8  1  0  0  0  0
 17 15  1  0  0  0  0
 20 17  1  0  0  0  0
 20 24  1  0  0  0  0
 20 15  1  0  0  0  0
 21 19  1  0  0  0  0
 21 18  1  0  0  0  0
 22 23  1  0  0  0  0
 22 15  1  0  0  0  0
 22 19  1  0  0  0  0
 24 16  2  0  0  0  0
 24 18  1  0  0  0  0
 25 30  1  0  0  0  0
 26 29  1  0  0  0  0
 26 28  2  0  0  0  0
 27 30  2  0  0  0  0
 28 27  1  0  0  0  0
 29 25  2  0  0  0  0
 30 12  1  0  0  0  0
 31 13  1  0  0  0  0
 32 31  1  0  0  0  0
M  END
>  <MODEL>
6

>  <REMARK>
 VINA RESULT:      -8.3      2.310      6.728
  Name = 
  3 active torsions:
  status: ('A' for Active; 'I' for Inactive)
    1  A    between atoms: O_13  and  C_29
    2  A    between atoms: C_16  and  C_27
    3  A    between atoms: C_28  and  C_32
                            x       y       z     vdW  Elec       q    Type
                         _______ _______ _______ _____ _____    ______ ____

>  <TORSDO>
F 3

$$$$
=
 OpenBabel11052419113D

 32 38  0  0  1  0  0  0  0  0999 V2000
  189.1240  176.7940  142.5110 C   0  0  1  0  0  3  0  0  0  0  0  0
  187.3200  176.5170  144.2750 C   0  0  2  0  0  3  0  0  0  0  0  0
  188.5590  175.7440  141.6530 N   0  0  0  0  0  0  0  0  0  0  0  0
  188.0290  177.4670  143.2670 C   0  0  2  0  0  3  0  0  0  0  0  0
  186.5260  177.3520  145.2630 C   0  0  1  0  0  3  0  0  0  0  0  0
  187.8760  176.6830  145.6850 C   0  0  2  0  0  3  0  0  0  0  0  0
  187.0170  178.0790  142.3480 C   0  0  2  0  0  3  0  0  0  0  0  0
  185.9120  178.7250  143.2240 C   0  0  0  0  0  2  0  0  0  0  0  0
  186.5260  177.0220  141.4560 N   0  0  0  0  0  2  0  0  0  0  0  0
  189.9850  176.0070  144.7790 O   0  0  0  0  0  0  0  0  0  0  0  0
  190.3060  176.4230  143.4560 C   0  0  1  0  0  3  0  0  0  0  0  0
  189.3610  177.0680  145.4900 C   0  0  2  0  0  3  0  0  0  0  0  0
  186.3400  178.7980  144.7270 C   0  0  1  0  0  3  0  0  0  0  0  0
  187.3630  175.8800  141.1310 C   0  0  0  0  0  3  0  0  0  0  0  0
  192.4800  173.3340  142.6440 C   0  0  2  0  0  3  0  0  0  0  0  0
  195.4670  174.0810  141.6250 N   0  0  0  0  0  2  0  0  0  0  0  0
  193.3830  172.2810  143.2300 C   0  0  0  0  0  2  0  0  0  0  0  0
  193.7500  175.7970  141.7640 C   0  0  0  0  0  2  0  0  0  0  0  0
  191.3570  175.5280  142.7910 C   0  0  1  0  0  3  0  0  0  0  0  0
  193.7810  173.7390  143.3180 C   0  0  1  0  0  3  0  0  0  0  0  0
  192.6910  176.3140  142.7680 C   0  0  0  0  0  2  0  0  0  0  0  0
  191.4720  174.1190  143.4470 C   0  0  1  0  0  3  0  0  0  0  0  0
  190.1490  173.3730  143.4160 C   0  0  0  0  0  1  0  0  0  0  0  0
  194.4060  174.5060  142.2050 C   0  0  0  0  0  0  0  0  0  0  0  0
  191.0520  176.4100  147.2050 C   0  0  0  0  0  3  0  0  0  0  0  0
  191.3240  177.6560  149.2630 C   0  0  0  0  0  3  0  0  0  0  0  0
  189.6590  178.3430  147.6450 C   0  0  0  0  0  3  0  0  0  0  0  0
  190.3050  178.5300  148.8700 C   0  0  0  0  0  3  0  0  0  0  0  0
  191.6970  176.5970  148.4300 C   0  0  0  0  0  3  0  0  0  0  0  0
  190.0290  177.2790  146.8090 C   0  0  0  0  0  0  0  0  0  0  0  0
  185.3500  179.4450  145.4660 O   0  0  0  0  0  0  0  0  0  0  0  0
  184.3760  178.4700  145.6850 C   0  0  0  0  0  1  0  0  0  0  0  0
  1  3  1  1  0  0  0
  1  4  1  0  0  0  0
  1 11  1  0  0  0  0
  2  5  1  0  0  0  0
  2  6  1  0  0  0  0
  4  2  1  0  0  0  0
  5  6  1  0  0  0  0
  7  8  1  0  0  0  0
  7  4  1  0  0  0  0
  8 13  1  0  0  0  0
  9  7  1  0  0  0  0
 10 12  1  0  0  0  0
 11 10  1  0  0  0  0
 12  6  1  0  0  0  0
 12 30  1  0  0  0  0
 13  5  1  0  0  0  0
 13 31  1  0  0  0  0
 14  9  1  0  0  0  0
 14  3  2  0  0  0  0
 15 17  1  0  0  0  0
 15 20  1  0  0  0  0
 15 22  1  0  0  0  0
 16 24  2  0  0  0  0
 17 20  1  0  0  0  0
 18 24  1  0  0  0  0
 18 21  1  0  0  0  0
 19 22  1  0  0  0  0
 19 11  1  0  0  0  0
 21 19  1  0  0  0  0
 23 22  1  0  0  0  0
 24 20  1  0  0  0  0
 25 29  1  0  0  0  0
 27 28  2  0  0  0  0
 28 26  1  0  0  0  0
 29 26  2  0  0  0  0
 30 25  2  0  0  0  0
 30 27  1  0  0  0  0
 31 32  1  0  0  0  0
M  END
>  <MODEL>
7

>  <REMARK>
 VINA RESULT:      -8.2      2.659      7.896
  Name = 
  3 active torsions:
  status: ('A' for Active; 'I' for Inactive)
    1  A    between atoms: O_13  and  C_29
    2  A    between atoms: C_16  and  C_27
    3  A    between atoms: C_28  and  C_32
                            x       y       z     vdW  Elec       q    Type
                         _______ _______ _______ _____ _____    ______ ____

>  <TORSDO>
F 3

$$$$
=
 OpenBabel11052419113D

 32 38  0  0  1  0  0  0  0  0999 V2000
  190.3570  176.4650  145.5600 C   0  0  1  0  0  3  0  0  0  0  0  0
  191.7200  174.3320  145.3740 C   0  0  2  0  0  3  0  0  0  0  0  0
  190.1640  176.3110  147.0080 N   0  0  0  0  0  0  0  0  0  0  0  0
  191.6660  175.8730  145.1640 C   0  0  2  0  0  3  0  0  0  0  0  0
  192.8900  173.7680  144.5890 C   0  0  1  0  0  3  0  0  0  0  0  0
  191.4210  173.5810  144.0810 C   0  0  2  0  0  3  0  0  0  0  0  0
  192.8090  176.5240  145.8800 C   0  0  2  0  0  3  0  0  0  0  0  0
  194.1150  175.8220  145.4240 C   0  0  0  0  0  2  0  0  0  0  0  0
  192.5500  176.4180  147.3220 N   0  0  0  0  0  2  0  0  0  0  0  0
  189.2850  174.6570  144.1150 O   0  0  0  0  0  0  0  0  0  0  0  0
  189.2200  175.9920  144.6060 C   0  0  1  0  0  3  0  0  0  0  0  0
  190.4400  174.4890  143.3040 C   0  0  2  0  0  3  0  0  0  0  0  0
  193.8690  174.9020  144.1820 C   0  0  1  0  0  3  0  0  0  0  0  0
  191.1910  176.3330  147.8250 C   0  0  0  0  0  3  0  0  0  0  0  0
  185.5850  177.3000  144.5900 C   0  0  2  0  0  3  0  0  0  0  0  0
  184.6840  178.6660  147.3910 N   0  0  0  0  0  2  0  0  0  0  0  0
  184.6990  178.4570  144.2100 C   0  0  0  0  0  2  0  0  0  0  0  0
  186.7300  177.3580  147.2620 C   0  0  0  0  0  2  0  0  0  0  0  0
  187.8190  176.3770  145.0930 C   0  0  1  0  0  3  0  0  0  0  0  0
  185.7870  178.6580  145.2450 C   0  0  1  0  0  3  0  0  0  0  0  0
  187.9880  177.2390  146.3680 C   0  0  0  0  0  2  0  0  0  0  0  0
  186.9470  177.0530  143.9910 C   0  0  1  0  0  3  0  0  0  0  0  0
  186.7810  176.1570  142.7760 C   0  0  0  0  0  1  0  0  0  0  0  0
  185.6670  178.2610  146.6750 C   0  0  0  0  0  0  0  0  0  0  0  0
  188.7800  173.3760  141.8090 C   0  0  0  0  0  3  0  0  0  0  0  0
  189.3430  172.7300  139.5450 C   0  0  0  0  0  3  0  0  0  0  0  0
  191.0030  173.7980  140.9450 C   0  0  0  0  0  3  0  0  0  0  0  0
  190.6370  173.2270  139.7230 C   0  0  0  0  0  3  0  0  0  0  0  0
  188.4140  172.8050  140.5870 C   0  0  0  0  0  3  0  0  0  0  0  0
  190.0750  173.8710  141.9950 C   0  0  0  0  0  0  0  0  0  0  0  0
  195.0780  174.3470  143.7630 O   0  0  0  0  0  0  0  0  0  0  0  0
  196.0340  174.8870  144.6250 C   0  0  0  0  0  1  0  0  0  0  0  0
  1  3  1  1  0  0  0
  3 14  2  0  0  0  0
  4  2  1  0  0  0  0
  4  1  1  0  0  0  0
  4  7  1  0  0  0  0
  5  2  1  0  0  0  0
  6  5  1  0  0  0  0
  6  2  1  0  0  0  0
  7  9  1  0  0  0  0
  8  7  1  0  0  0  0
  9 14  1  0  0  0  0
 10 11  1  0  0  0  0
 11 19  1  0  0  0  0
 11  1  1  0  0  0  0
 12  6  1  0  0  0  0
 12 10  1  0  0  0  0
 13  5  1  0  0  0  0
 13  8  1  0  0  0  0
 15 20  1  0  0  0  0
 17 15  1  0  0  0  0
 17 20  1  0  0  0  0
 19 21  1  0  0  0  0
 20 24  1  0  0  0  0
 21 18  1  0  0  0  0
 22 15  1  0  0  0  0
 22 19  1  0  0  0  0
 23 22  1  0  0  0  0
 24 18  1  0  0  0  0
 24 16  2  0  0  0  0
 25 30  1  0  0  0  0
 26 28  2  0  0  0  0
 26 29  1  0  0  0  0
 27 30  2  0  0  0  0
 28 27  1  0  0  0  0
 29 25  2  0  0  0  0
 30 12  1  0  0  0  0
 31 13  1  0  0  0  0
 31 32  1  0  0  0  0
M  END
>  <MODEL>
8

>  <REMARK>
 VINA RESULT:      -8.2      1.119      1.200
  Name = 
  3 active torsions:
  status: ('A' for Active; 'I' for Inactive)
    1  A    between atoms: O_13  and  C_29
    2  A    between atoms: C_16  and  C_27
    3  A    between atoms: C_28  and  C_32
                            x       y       z     vdW  Elec       q    Type
                         _______ _______ _______ _____ _____    ______ ____

>  <TORSDO>
F 3

$$$$
=
 OpenBabel11052419113D

 32 38  0  0  1  0  0  0  0  0999 V2000
  188.8080  174.4080  142.2430 C   0  0  1  0  0  3  0  0  0  0  0  0
  191.1390  174.1850  141.2640 C   0  0  2  0  0  3  0  0  0  0  0  0
  188.2150  174.7860  140.9540 N   0  0  0  0  0  0  0  0  0  0  0  0
  189.9640  173.4940  142.0140 C   0  0  2  0  0  3  0  0  0  0  0  0
  192.3910  173.3440  141.4310 C   0  0  1  0  0  3  0  0  0  0  0  0
  192.2090  174.6760  142.2320 C   0  0  2  0  0  3  0  0  0  0  0  0
  189.5530  172.2530  141.2840 C   0  0  2  0  0  3  0  0  0  0  0  0
  190.8220  171.3880  141.0710 C   0  0  0  0  0  2  0  0  0  0  0  0
  188.8980  172.6660  140.0360 N   0  0  0  0  0  2  0  0  0  0  0  0
  190.5070  176.0570  143.1910 O   0  0  0  0  0  0  0  0  0  0  0  0
  189.1820  175.5390  143.2470 C   0  0  1  0  0  3  0  0  0  0  0  0
  191.4450  175.0430  143.5250 C   0  0  2  0  0  3  0  0  0  0  0  0
  192.0270  171.9150  141.9190 C   0  0  1  0  0  3  0  0  0  0  0  0
  188.2250  173.9480  139.9430 C   0  0  0  0  0  3  0  0  0  0  0  0
  186.9100  178.2910  144.7260 C   0  0  2  0  0  3  0  0  0  0  0  0
  183.9980  178.4720  143.3090 N   0  0  0  0  0  2  0  0  0  0  0  0
  185.9410  178.6190  145.8320 C   0  0  0  0  0  2  0  0  0  0  0  0
  185.7820  177.1660  142.2940 C   0  0  0  0  0  2  0  0  0  0  0  0
  188.1190  176.6380  143.3480 C   0  0  1  0  0  3  0  0  0  0  0  0
  185.6020  177.5240  144.8420 C   0  0  1  0  0  3  0  0  0  0  0  0
  186.8220  176.0940  142.7000 C   0  0  0  0  0  2  0  0  0  0  0  0
  187.9190  177.1720  144.7990 C   0  0  1  0  0  3  0  0  0  0  0  0
  189.2090  177.7260  145.3780 C   0  0  0  0  0  1  0  0  0  0  0  0
  185.0550  177.7650  143.4790 C   0  0  0  0  0  0  0  0  0  0  0  0
  193.6070  176.1010  144.1890 C   0  0  0  0  0  3  0  0  0  0  0  0
  194.1760  176.4770  146.5120 C   0  0  0  0  0  3  0  0  0  0  0  0
  192.0660  175.4390  145.9370 C   0  0  0  0  0  3  0  0  0  0  0  0
  192.9590  175.9100  146.9040 C   0  0  0  0  0  3  0  0  0  0  0  0
  194.4990  176.5730  145.1560 C   0  0  0  0  0  3  0  0  0  0  0  0
  192.3890  175.5290  144.5750 C   0  0  0  0  0  0  0  0  0  0  0  0
  193.1240  171.0710  141.7520 O   0  0  0  0  0  0  0  0  0  0  0  0
  193.4900  171.2260  140.4140 C   0  0  0  0  0  1  0  0  0  0  0  0
  1  3  1  6  0  0  0
  1 11  1  0  0  0  0
  2  5  1  0  0  0  0
  2  4  1  0  0  0  0
  2  6  1  0  0  0  0
  4  1  1  0  0  0  0
  5 13  1  0  0  0  0
  5  6  1  0  0  0  0
  6 12  1  0  0  0  0
  7  4  1  0  0  0  0
  8  7  1  0  0  0  0
  8 13  1  0  0  0  0
  9  7  1  0  0  0  0
 10 11  1  0  0  0  0
 10 12  1  0  0  0  0
 11 19  1  0  0  0  0
 12 30  1  0  0  0  0
 14  9  1  0  0  0  0
 14  3  2  0  0  0  0
 15 22  1  0  0  0  0
 15 20  1  0  0  0  0
 15 17  1  0  0  0  0
 16 24  2  0  0  0  0
 18 21  1  0  0  0  0
 18 24  1  0  0  0  0
 19 22  1  0  0  0  0
 20 17  1  0  0  0  0
 21 19  1  0  0  0  0
 22 23  1  0  0  0  0
 24 20  1  0  0  0  0
 25 30  2  0  0  0  0
 25 29  1  0  0  0  0
 26 28  1  0  0  0  0
 27 28  2  0  0  0  0
 29 26  2  0  0  0  0
 30 27  1  0  0  0  0
 31 13  1  0  0  0  0
 32 31  1  0  0  0  0
M  END
>  <MODEL>
9

>  <REMARK>
 VINA RESULT:      -8.1      2.412      4.956
  Name = 
  3 active torsions:
  status: ('A' for Active; 'I' for Inactive)
    1  A    between atoms: O_13  and  C_29
    2  A    between atoms: C_16  and  C_27
    3  A    between atoms: C_28  and  C_32
                            x       y       z     vdW  Elec       q    Type
                         _______ _______ _______ _____ _____    ______ ____

>  <TORSDO>
F 3

$$$$
