=
 OpenBabel11052419143D

 32 36  0  0  1  0  0  0  0  0999 V2000
  189.6310  176.2750  145.4580 N   0  0  0  0  0  0  0  0  0  0  0  0
  187.8070  177.5100  144.9160 C   0  0  0  0  0  0  0  0  0  0  0  0
  187.5970  176.2590  146.9710 C   0  0  0  0  0  3  0  0  0  0  0  0
  184.7050  179.4380  144.2790 C   0  0  0  0  0  3  0  0  0  0  0  0
  188.3170  176.6510  145.8410 C   0  0  0  0  0  0  0  0  0  0  0  0
  184.4680  178.1760  146.3390 C   0  0  0  0  0  3  0  0  0  0  0  0
  185.7580  177.6630  146.1770 C   0  0  0  0  0  0  0  0  0  0  0  0
  186.2980  176.7760  147.1310 C   0  0  0  0  0  3  0  0  0  0  0  0
  188.7390  177.7390  143.9170 O   0  0  0  0  0  0  0  0  0  0  0  0
  189.9270  176.9850  144.2090 C   0  0  2  0  0  3  0  0  0  0  0  0
  186.5260  178.0440  145.0450 C   0  0  0  0  0  0  0  0  0  0  0  0
  183.9440  179.0610  145.3910 C   0  0  0  0  0  3  0  0  0  0  0  0
  185.9960  178.9300  144.1030 C   0  0  0  0  0  3  0  0  0  0  0  0
  191.7770  174.9410  141.5710 C   0  0  0  0  0  0  0  0  0  0  0  0
  193.0180  174.8200  141.0360 F   0  0  0  0  0  0  0  0  0  0  0  0
  190.2210  176.0050  143.1080 C   0  0  0  0  0  0  0  0  0  0  0  0
  190.7540  174.1030  141.1200 C   0  0  0  0  0  3  0  0  0  0  0  0
  189.2070  175.1510  142.6510 C   0  0  0  0  0  3  0  0  0  0  0  0
  191.5180  175.8930  142.5690 C   0  0  0  0  0  0  0  0  0  0  0  0
  192.6270  176.7740  143.0470 C   0  0  0  0  0  1  0  0  0  0  0  0
  189.4620  174.2030  141.6580 C   0  0  0  0  0  0  0  0  0  0  0  0
  188.3420  172.8600  139.9070 C   0  0  0  0  0  1  0  0  0  0  0  0
  188.4220  173.3740  141.2310 O   0  0  0  0  0  0  0  0  0  0  0  0
  191.5220  176.4530  147.0020 C   0  0  0  0  0  2  0  0  0  0  0  0
  190.6040  175.5180  146.2400 C   0  0  2  0  0  3  0  0  0  0  0  0
  191.4190  174.6830  145.3690 N   0  0  0  0  0  0  0  0  0  0  0  0
  192.7220  174.6240  146.0110 C   0  0  0  0  0  2  0  0  0  0  0  0
  192.9140  175.9160  146.7740 C   0  0  0  0  0  2  0  0  0  0  0  0
  190.8590  173.3440  145.4180 C   0  0  0  0  0  2  0  0  0  0  0  0
  191.5740  172.4580  144.4200 C   0  0  0  0  0  2  0  0  0  0  0  0
  190.5760  171.5250  143.7690 C   0  0  0  0  0  2  0  0  0  0  0  0
  189.2860  171.8740  144.1690 O   0  0  0  0  0  1  0  0  0  0  0  0
  1  5  1  0  0  0  0
  2 11  2  0  0  0  0
  2  5  1  0  0  0  0
  3  8  1  0  0  0  0
  4 12  1  0  0  0  0
  5  3  2  0  0  0  0
  7  6  1  0  0  0  0
  7  8  2  0  0  0  0
  9 10  1  0  0  0  0
  9  2  1  0  0  0  0
 10 16  1  6  0  0  0
 10  1  1  0  0  0  0
 11  7  1  0  0  0  0
 12  6  2  0  0  0  0
 13  4  2  0  0  0  0
 13 11  1  0  0  0  0
 14 19  1  0  0  0  0
 15 14  1  0  0  0  0
 17 14  2  0  0  0  0
 17 21  1  0  0  0  0
 18 16  1  0  0  0  0
 19 20  1  0  0  0  0
 19 16  2  0  0  0  0
 21 18  2  0  0  0  0
 22 23  1  0  0  0  0
 23 21  1  0  0  0  0
 25  1  1  6  0  0  0
 25 24  1  0  0  0  0
 26 29  1  0  0  0  0
 26 27  1  0  0  0  0
 26 25  1  0  0  0  0
 27 28  1  0  0  0  0
 28 24  1  0  0  0  0
 30 29  1  0  0  0  0
 31 32  1  0  0  0  0
 31 30  1  0  0  0  0
M  END
>  <MODEL>
1

>  <REMARK>
 VINA RESULT:      -7.5      0.000      0.000
  Name = 
  6 active torsions:
  status: ('A' for Active; 'I' for Inactive)
    1  A    between atoms: N_1  and  C_5
    2  A    between atoms: C_13  and  C_18
    3  A    between atoms: N_14  and  C_29
    4  A    between atoms: O_15  and  C_26
    5  A    between atoms: C_16  and  C_27
    6  A    between atoms: C_18  and  C_29
                            x       y       z     vdW  Elec       q    Type
                         _______ _______ _______ _____ _____    ______ ____

>  <TORSDO>
F 6

$$$$
=
 OpenBabel11052419143D

 32 36  0  0  1  0  0  0  0  0999 V2000
  190.0750  176.3320  144.7970 N   0  0  0  0  0  0  0  0  0  0  0  0
  188.2240  177.4970  144.1920 C   0  0  0  0  0  0  0  0  0  0  0  0
  188.1770  176.6420  146.4490 C   0  0  0  0  0  3  0  0  0  0  0  0
  185.1010  179.3590  143.4730 C   0  0  0  0  0  3  0  0  0  0  0  0
  188.8030  176.8050  145.2120 C   0  0  0  0  0  0  0  0  0  0  0  0
  185.0270  178.4940  145.7400 C   0  0  0  0  0  3  0  0  0  0  0  0
  186.2920  177.9270  145.5680 C   0  0  0  0  0  0  0  0  0  0  0  0
  186.9030  177.2120  146.6200 C   0  0  0  0  0  3  0  0  0  0  0  0
  189.0700  177.5170  143.0940 O   0  0  0  0  0  0  0  0  0  0  0  0
  190.2700  176.7970  143.4200 C   0  0  2  0  0  3  0  0  0  0  0  0
  186.9650  178.0780  144.3270 C   0  0  0  0  0  0  0  0  0  0  0  0
  184.4330  179.2080  144.6930 C   0  0  0  0  0  3  0  0  0  0  0  0
  186.3660  178.7940  143.2860 C   0  0  0  0  0  3  0  0  0  0  0  0
  191.8990  174.1260  141.2360 C   0  0  0  0  0  0  0  0  0  0  0  0
  193.1290  173.7450  140.8100 F   0  0  0  0  0  0  0  0  0  0  0  0
  190.4590  175.6280  142.4940 C   0  0  0  0  0  0  0  0  0  0  0  0
  190.7810  173.3870  140.8430 C   0  0  0  0  0  3  0  0  0  0  0  0
  189.3460  174.8720  142.0980 C   0  0  0  0  0  3  0  0  0  0  0  0
  191.7460  175.2470  142.0660 C   0  0  0  0  0  0  0  0  0  0  0  0
  192.9550  176.0190  142.4860 C   0  0  0  0  0  1  0  0  0  0  0  0
  189.4970  173.7560  141.2720 C   0  0  0  0  0  0  0  0  0  0  0  0
  188.1150  172.6230  139.5610 C   0  0  0  0  0  1  0  0  0  0  0  0
  188.3610  173.0320  140.9000 O   0  0  0  0  0  0  0  0  0  0  0  0
  190.4790  174.7660  146.6340 C   0  0  0  0  0  2  0  0  0  0  0  0
  191.1030  175.7040  145.6210 C   0  0  2  0  0  3  0  0  0  0  0  0
  191.8680  176.7130  146.3390 N   0  0  0  0  0  0  0  0  0  0  0  0
  192.2420  176.0830  147.5950 C   0  0  0  0  0  2  0  0  0  0  0  0
  191.1630  175.0820  147.9410 C   0  0  0  0  0  2  0  0  0  0  0  0
  193.0940  176.9310  145.5910 C   0  0  0  0  0  2  0  0  0  0  0  0
  194.2760  176.4390  146.3970 C   0  0  0  0  0  2  0  0  0  0  0  0
  195.1160  175.5120  145.5450 C   0  0  0  0  0  2  0  0  0  0  0  0
  194.5290  174.2470  145.5180 O   0  0  0  0  0  1  0  0  0  0  0  0
  1  5  1  0  0  0  0
  2 11  2  0  0  0  0
  2  5  1  0  0  0  0
  3  8  1  0  0  0  0
  4 12  1  0  0  0  0
  5  3  2  0  0  0  0
  7  6  1  0  0  0  0
  7  8  2  0  0  0  0
  9 10  1  0  0  0  0
  9  2  1  0  0  0  0
 10 16  1  6  0  0  0
 10  1  1  0  0  0  0
 11  7  1  0  0  0  0
 12  6  2  0  0  0  0
 13  4  2  0  0  0  0
 13 11  1  0  0  0  0
 14 19  1  0  0  0  0
 15 14  1  0  0  0  0
 17 14  2  0  0  0  0
 17 21  1  0  0  0  0
 18 16  1  0  0  0  0
 19 20  1  0  0  0  0
 19 16  2  0  0  0  0
 21 18  2  0  0  0  0
 22 23  1  0  0  0  0
 23 21  1  0  0  0  0
 24 28  1  0  0  0  0
 25  1  1  1  0  0  0
 25 26  1  0  0  0  0
 25 24  1  0  0  0  0
 26 27  1  0  0  0  0
 27 28  1  0  0  0  0
 29 26  1  0  0  0  0
 29 30  1  0  0  0  0
 31 30  1  0  0  0  0
 32 31  1  0  0  0  0
M  END
>  <MODEL>
2

>  <REMARK>
 VINA RESULT:      -7.2      1.490      2.204
  Name = 
  6 active torsions:
  status: ('A' for Active; 'I' for Inactive)
    1  A    between atoms: N_1  and  C_5
    2  A    between atoms: C_13  and  C_18
    3  A    between atoms: N_14  and  C_29
    4  A    between atoms: O_15  and  C_26
    5  A    between atoms: C_16  and  C_27
    6  A    between atoms: C_18  and  C_29
                            x       y       z     vdW  Elec       q    Type
                         _______ _______ _______ _____ _____    ______ ____

>  <TORSDO>
F 6

$$$$
=
 OpenBabel11052419143D

 32 36  0  0  1  0  0  0  0  0999 V2000
  189.9200  175.2960  143.4760 N   0  0  0  0  0  0  0  0  0  0  0  0
  188.5060  175.9910  145.1090 C   0  0  0  0  0  0  0  0  0  0  0  0
  188.4520  177.3290  143.1000 C   0  0  0  0  0  3  0  0  0  0  0  0
  186.1040  177.3320  147.5930 C   0  0  0  0  0  3  0  0  0  0  0  0
  188.9460  176.2580  143.8490 C   0  0  0  0  0  0  0  0  0  0  0  0
  186.0470  178.6990  145.5880 C   0  0  0  0  0  3  0  0  0  0  0  0
  187.0180  177.8840  145.0010 C   0  0  0  0  0  0  0  0  0  0  0  0
  187.4770  178.1490  143.6940 C   0  0  0  0  0  3  0  0  0  0  0  0
  189.1470  174.8670  145.6060 O   0  0  0  0  0  0  0  0  0  0  0  0
  190.0570  174.3730  144.6080 C   0  0  2  0  0  3  0  0  0  0  0  0
  187.5390  176.7800  145.7270 C   0  0  0  0  0  0  0  0  0  0  0  0
  185.5930  178.4230  146.8820 C   0  0  0  0  0  3  0  0  0  0  0  0
  187.0780  176.5100  147.0190 C   0  0  0  0  0  3  0  0  0  0  0  0
  193.6150  173.2870  145.4570 C   0  0  0  0  0  0  0  0  0  0  0  0
  194.4170  172.1980  145.3580 F   0  0  0  0  0  0  0  0  0  0  0  0
  191.4690  174.3820  145.1230 C   0  0  0  0  0  0  0  0  0  0  0  0
  194.1260  174.4640  146.0100 C   0  0  0  0  0  3  0  0  0  0  0  0
  191.9980  175.5590  145.6730 C   0  0  0  0  0  3  0  0  0  0  0  0
  192.2870  173.2400  145.0070 C   0  0  0  0  0  0  0  0  0  0  0  0
  191.7600  171.9760  144.4070 C   0  0  0  0  0  1  0  0  0  0  0  0
  193.3200  175.6070  146.1220 C   0  0  0  0  0  0  0  0  0  0  0  0
  194.7200  177.6430  145.9760 C   0  0  0  0  0  1  0  0  0  0  0  0
  193.8060  176.7990  146.6650 O   0  0  0  0  0  0  0  0  0  0  0  0
  189.8240  173.9750  141.4180 C   0  0  0  0  0  2  0  0  0  0  0  0
  190.5190  175.0990  142.1600 C   0  0  2  0  0  3  0  0  0  0  0  0
  191.9300  174.7600  142.2880 N   0  0  0  0  0  0  0  0  0  0  0  0
  192.2100  173.8740  141.1700 C   0  0  0  0  0  2  0  0  0  0  0  0
  190.9350  173.1280  140.8490 C   0  0  0  0  0  2  0  0  0  0  0  0
  192.6830  175.9820  142.0620 C   0  0  0  0  0  2  0  0  0  0  0  0
  194.1380  175.7520  142.4090 C   0  0  0  0  0  2  0  0  0  0  0  0
  195.0150  176.4020  141.3610 C   0  0  0  0  0  2  0  0  0  0  0  0
  196.2060  176.8240  141.9500 O   0  0  0  0  0  1  0  0  0  0  0  0
  1  5  1  0  0  0  0
  1 10  1  0  0  0  0
  2  9  1  0  0  0  0
  2 11  1  0  0  0  0
  3  8  2  0  0  0  0
  3  5  1  0  0  0  0
  5  2  2  0  0  0  0
  6 12  1  0  0  0  0
  7  6  2  0  0  0  0
  7 11  1  0  0  0  0
  8  7  1  0  0  0  0
 10 16  1  1  0  0  0
 10  9  1  0  0  0  0
 11 13  2  0  0  0  0
 12  4  2  0  0  0  0
 13  4  1  0  0  0  0
 14 17  1  0  0  0  0
 15 14  1  0  0  0  0
 16 18  2  0  0  0  0
 17 21  2  0  0  0  0
 18 21  1  0  0  0  0
 19 16  1  0  0  0  0
 19 14  2  0  0  0  0
 20 19  1  0  0  0  0
 21 23  1  0  0  0  0
 22 23  1  0  0  0  0
 25 24  1  1  0  0  0
 25 26  1  0  0  0  0
 25  1  1  0  0  0  0
 27 26  1  0  0  0  0
 28 27  1  0  0  0  0
 28 24  1  0  0  0  0
 29 26  1  0  0  0  0
 29 30  1  0  0  0  0
 31 32  1  0  0  0  0
 31 30  1  0  0  0  0
M  END
>  <MODEL>
3

>  <REMARK>
 VINA RESULT:      -7.1      2.488      4.917
  Name = 
  6 active torsions:
  status: ('A' for Active; 'I' for Inactive)
    1  A    between atoms: N_1  and  C_5
    2  A    between atoms: C_13  and  C_18
    3  A    between atoms: N_14  and  C_29
    4  A    between atoms: O_15  and  C_26
    5  A    between atoms: C_16  and  C_27
    6  A    between atoms: C_18  and  C_29
                            x       y       z     vdW  Elec       q    Type
                         _______ _______ _______ _____ _____    ______ ____

>  <TORSDO>
F 6

$$$$
=
 OpenBabel11052419143D

 32 36  0  0  1  0  0  0  0  0999 V2000
  189.2170  174.8290  144.1140 N   0  0  0  0  0  0  0  0  0  0  0  0
  187.9320  176.6330  144.6060 C   0  0  0  0  0  0  0  0  0  0  0  0
  187.3110  175.4820  142.5760 C   0  0  0  0  0  3  0  0  0  0  0  0
  185.6740  179.5170  145.1740 C   0  0  0  0  0  3  0  0  0  0  0  0
  188.1220  175.6320  143.7030 C   0  0  0  0  0  0  0  0  0  0  0  0
  185.0440  178.3840  143.1210 C   0  0  0  0  0  3  0  0  0  0  0  0
  186.0740  177.4590  143.3120 C   0  0  0  0  0  0  0  0  0  0  0  0
  186.2760  176.4160  142.3850 C   0  0  0  0  0  3  0  0  0  0  0  0
  188.8620  176.5310  145.6280 O   0  0  0  0  0  0  0  0  0  0  0  0
  189.7060  175.3950  145.3760 C   0  0  2  0  0  3  0  0  0  0  0  0
  186.9150  177.5720  144.4500 C   0  0  0  0  0  0  0  0  0  0  0  0
  184.8460  179.4110  144.0510 C   0  0  0  0  0  3  0  0  0  0  0  0
  186.7110  178.6000  145.3760 C   0  0  0  0  0  3  0  0  0  0  0  0
  193.3430  176.2060  146.1970 C   0  0  0  0  0  0  0  0  0  0  0  0
  194.1810  176.2460  147.2630 F   0  0  0  0  0  0  0  0  0  0  0  0
  191.1420  175.8180  145.2380 C   0  0  0  0  0  0  0  0  0  0  0  0
  193.8370  176.5220  144.9280 C   0  0  0  0  0  3  0  0  0  0  0  0
  191.6530  176.1300  143.9700 C   0  0  0  0  0  3  0  0  0  0  0  0
  191.9960  175.8490  146.3590 C   0  0  0  0  0  0  0  0  0  0  0  0
  191.4880  175.5030  147.7210 C   0  0  0  0  0  1  0  0  0  0  0  0
  192.9940  176.4850  143.8070 C   0  0  0  0  0  0  0  0  0  0  0  0
  193.9720  175.8050  141.6380 C   0  0  0  0  0  1  0  0  0  0  0  0
  193.4620  176.7910  142.5260 O   0  0  0  0  0  0  0  0  0  0  0  0
  190.0700  172.5950  144.6380 C   0  0  0  0  0  2  0  0  0  0  0  0
  189.6530  173.5570  143.5440 C   0  0  2  0  0  3  0  0  0  0  0  0
  190.7880  173.7600  142.6540 N   0  0  0  0  0  0  0  0  0  0  0  0
  191.5870  172.5520  142.7760 C   0  0  0  0  0  2  0  0  0  0  0  0
  191.3800  172.0080  144.1720 C   0  0  0  0  0  2  0  0  0  0  0  0
  190.2660  173.7900  141.2990 C   0  0  0  0  0  2  0  0  0  0  0  0
  189.3010  172.6420  141.1000 C   0  0  0  0  0  2  0  0  0  0  0  0
  188.4660  172.8930  139.8640 C   0  0  0  0  0  2  0  0  0  0  0  0
  188.5660  174.2370  139.5020 O   0  0  0  0  0  1  0  0  0  0  0  0
  1 10  1  0  0  0  0
  2  9  1  0  0  0  0
  3  5  1  0  0  0  0
  4 13  1  0  0  0  0
  5  1  1  0  0  0  0
  5  2  2  0  0  0  0
  6  7  2  0  0  0  0
  6 12  1  0  0  0  0
  7 11  1  0  0  0  0
  8  3  2  0  0  0  0
  8  7  1  0  0  0  0
 10 16  1  6  0  0  0
 10  9  1  0  0  0  0
 11  2  1  0  0  0  0
 11 13  2  0  0  0  0
 12  4  2  0  0  0  0
 14 19  1  0  0  0  0
 14 15  1  0  0  0  0
 16 19  2  0  0  0  0
 17 14  2  0  0  0  0
 18 16  1  0  0  0  0
 19 20  1  0  0  0  0
 21 18  2  0  0  0  0
 21 17  1  0  0  0  0
 22 23  1  0  0  0  0
 23 21  1  0  0  0  0
 25  1  1  1  0  0  0
 25 24  1  0  0  0  0
 26 27  1  0  0  0  0
 26 25  1  0  0  0  0
 27 28  1  0  0  0  0
 28 24  1  0  0  0  0
 29 26  1  0  0  0  0
 30 29  1  0  0  0  0
 31 30  1  0  0  0  0
 32 31  1  0  0  0  0
M  END
>  <MODEL>
4

>  <REMARK>
 VINA RESULT:      -7.1      2.104      3.993
  Name = 
  6 active torsions:
  status: ('A' for Active; 'I' for Inactive)
    1  A    between atoms: N_1  and  C_5
    2  A    between atoms: C_13  and  C_18
    3  A    between atoms: N_14  and  C_29
    4  A    between atoms: O_15  and  C_26
    5  A    between atoms: C_16  and  C_27
    6  A    between atoms: C_18  and  C_29
                            x       y       z     vdW  Elec       q    Type
                         _______ _______ _______ _____ _____    ______ ____

>  <TORSDO>
F 6

$$$$
=
 OpenBabel11052419143D

 32 36  0  0  1  0  0  0  0  0999 V2000
  188.9510  175.1280  143.7890 N   0  0  0  0  0  0  0  0  0  0  0  0
  187.6480  176.4180  145.1260 C   0  0  0  0  0  0  0  0  0  0  0  0
  186.8460  176.1910  142.8590 C   0  0  0  0  0  3  0  0  0  0  0  0
  185.3370  178.5550  147.0840 C   0  0  0  0  0  3  0  0  0  0  0  0
  187.7770  175.9210  143.8640 C   0  0  0  0  0  0  0  0  0  0  0  0
  184.5230  178.3530  144.8060 C   0  0  0  0  0  3  0  0  0  0  0  0
  185.6110  177.5370  144.4860 C   0  0  0  0  0  0  0  0  0  0  0  0
  185.7520  177.0140  143.1830 C   0  0  0  0  0  3  0  0  0  0  0  0
  188.6970  175.9780  145.9170 O   0  0  0  0  0  0  0  0  0  0  0  0
  189.5590  175.1440  145.1240 C   0  0  2  0  0  3  0  0  0  0  0  0
  186.5760  177.2320  145.4820 C   0  0  0  0  0  0  0  0  0  0  0  0
  184.3870  178.8600  146.1020 C   0  0  0  0  0  3  0  0  0  0  0  0
  186.4330  177.7420  146.7760 C   0  0  0  0  0  3  0  0  0  0  0  0
  193.0090  176.4120  146.1450 C   0  0  0  0  0  0  0  0  0  0  0  0
  193.7520  176.6100  147.2630 F   0  0  0  0  0  0  0  0  0  0  0  0
  190.9460  175.7200  145.0610 C   0  0  0  0  0  0  0  0  0  0  0  0
  193.5630  176.7080  144.8960 C   0  0  0  0  0  3  0  0  0  0  0  0
  191.5170  176.0130  143.8140 C   0  0  0  0  0  3  0  0  0  0  0  0
  191.7010  175.9140  146.2350 C   0  0  0  0  0  0  0  0  0  0  0  0
  191.1290  175.5920  147.5780 C   0  0  0  0  0  1  0  0  0  0  0  0
  192.8190  176.5090  143.7230 C   0  0  0  0  0  0  0  0  0  0  0  0
  194.0980  175.8420  141.7120 C   0  0  0  0  0  1  0  0  0  0  0  0
  193.3490  176.7900  142.4610 O   0  0  0  0  0  0  0  0  0  0  0  0
  189.2330  174.9890  141.3620 C   0  0  0  0  0  2  0  0  0  0  0  0
  189.3770  174.2690  142.6880 C   0  0  2  0  0  3  0  0  0  0  0  0
  188.5680  173.0590  142.6440 N   0  0  0  0  0  0  0  0  0  0  0  0
  188.4840  172.7100  141.2350 C   0  0  0  0  0  2  0  0  0  0  0  0
  188.5670  173.9960  140.4420 C   0  0  0  0  0  2  0  0  0  0  0  0
  189.3340  172.0110  143.2960 C   0  0  0  0  0  2  0  0  0  0  0  0
  190.8070  172.2080  143.0150 C   0  0  0  0  0  2  0  0  0  0  0  0
  191.6050  171.8980  144.2630 C   0  0  0  0  0  2  0  0  0  0  0  0
  192.7250  172.7270  144.3150 O   0  0  0  0  0  1  0  0  0  0  0  0
  1  5  1  0  0  0  0
  1 10  1  0  0  0  0
  2 11  1  0  0  0  0
  2  9  1  0  0  0  0
  3  8  2  0  0  0  0
  3  5  1  0  0  0  0
  5  2  2  0  0  0  0
  6 12  1  0  0  0  0
  7  6  2  0  0  0  0
  7 11  1  0  0  0  0
  8  7  1  0  0  0  0
 10 16  1  6  0  0  0
 10  9  1  0  0  0  0
 11 13  2  0  0  0  0
 12  4  2  0  0  0  0
 13  4  1  0  0  0  0
 14 19  1  0  0  0  0
 14 15  1  0  0  0  0
 16 19  2  0  0  0  0
 17 14  2  0  0  0  0
 18 16  1  0  0  0  0
 19 20  1  0  0  0  0
 21 18  2  0  0  0  0
 21 17  1  0  0  0  0
 22 23  1  0  0  0  0
 23 21  1  0  0  0  0
 25 24  1  6  0  0  0
 25  1  1  0  0  0  0
 26 25  1  0  0  0  0
 26 29  1  0  0  0  0
 27 26  1  0  0  0  0
 28 27  1  0  0  0  0
 28 24  1  0  0  0  0
 30 29  1  0  0  0  0
 30 31  1  0  0  0  0
 31 32  1  0  0  0  0
M  END
>  <MODEL>
5

>  <REMARK>
 VINA RESULT:      -7.0      2.221      4.088
  Name = 
  6 active torsions:
  status: ('A' for Active; 'I' for Inactive)
    1  A    between atoms: N_1  and  C_5
    2  A    between atoms: C_13  and  C_18
    3  A    between atoms: N_14  and  C_29
    4  A    between atoms: O_15  and  C_26
    5  A    between atoms: C_16  and  C_27
    6  A    between atoms: C_18  and  C_29
                            x       y       z     vdW  Elec       q    Type
                         _______ _______ _______ _____ _____    ______ ____

>  <TORSDO>
F 6

$$$$
=
 OpenBabel11052419143D

 32 36  0  0  1  0  0  0  0  0999 V2000
  189.2600  176.0930  144.9420 N   0  0  0  0  0  0  0  0  0  0  0  0
  187.3060  177.1820  144.5620 C   0  0  0  0  0  0  0  0  0  0  0  0
  187.7610  176.7180  146.8880 C   0  0  0  0  0  3  0  0  0  0  0  0
  184.0760  178.9690  144.2320 C   0  0  0  0  0  3  0  0  0  0  0  0
  188.1010  176.6570  145.5350 C   0  0  0  0  0  0  0  0  0  0  0  0
  184.5070  178.4980  146.5730 C   0  0  0  0  0  3  0  0  0  0  0  0
  185.7120  177.8810  146.2310 C   0  0  0  0  0  0  0  0  0  0  0  0
  186.5460  177.3380  147.2310 C   0  0  0  0  0  3  0  0  0  0  0  0
  187.8940  176.9990  143.3210 O   0  0  0  0  0  0  0  0  0  0  0  0
  189.1460  176.3160  143.4960 C   0  0  2  0  0  3  0  0  0  0  0  0
  186.0980  177.8060  144.8660 C   0  0  0  0  0  0  0  0  0  0  0  0
  183.6910  179.0400  145.5750 C   0  0  0  0  0  3  0  0  0  0  0  0
  185.2780  178.3520  143.8740 C   0  0  0  0  0  3  0  0  0  0  0  0
  188.5770  173.6590  140.8180 C   0  0  0  0  0  0  0  0  0  0  0  0
  187.9830  173.5190  139.6070 F   0  0  0  0  0  0  0  0  0  0  0  0
  189.1460  175.0050  142.7620 C   0  0  0  0  0  0  0  0  0  0  0  0
  189.2460  172.5680  141.3810 C   0  0  0  0  0  3  0  0  0  0  0  0
  189.8210  173.9040  143.3110 C   0  0  0  0  0  3  0  0  0  0  0  0
  188.5260  174.8830  141.5030 C   0  0  0  0  0  0  0  0  0  0  0  0
  187.8160  176.0420  140.8810 C   0  0  0  0  0  1  0  0  0  0  0  0
  189.8720  172.6850  142.6310 C   0  0  0  0  0  0  0  0  0  0  0  0
  191.5380  171.7870  144.2250 C   0  0  0  0  0  1  0  0  0  0  0  0
  190.5530  171.6140  143.2140 O   0  0  0  0  0  0  0  0  0  0  0  0
  190.0710  174.8090  146.8610 C   0  0  0  0  0  2  0  0  0  0  0  0
  190.4510  175.5870  145.6180 C   0  0  2  0  0  3  0  0  0  0  0  0
  191.3190  176.6880  146.0120 N   0  0  0  0  0  0  0  0  0  0  0  0
  191.9580  176.2460  147.2410 C   0  0  0  0  0  2  0  0  0  0  0  0
  190.9990  175.3090  147.9410 C   0  0  0  0  0  2  0  0  0  0  0  0
  192.3610  176.7910  145.0040 C   0  0  0  0  0  2  0  0  0  0  0  0
  192.9650  175.4260  144.7580 C   0  0  0  0  0  2  0  0  0  0  0  0
  193.3440  175.2990  143.2980 C   0  0  0  0  0  2  0  0  0  0  0  0
  192.5570  176.1640  142.5380 O   0  0  0  0  0  1  0  0  0  0  0  0
  1  5  1  0  0  0  0
  2 11  2  0  0  0  0
  2  5  1  0  0  0  0
  3  8  1  0  0  0  0
  4 12  1  0  0  0  0
  5  3  2  0  0  0  0
  7  6  1  0  0  0  0
  7  8  2  0  0  0  0
  9 10  1  0  0  0  0
  9  2  1  0  0  0  0
 10 16  1  6  0  0  0
 10  1  1  0  0  0  0
 11  7  1  0  0  0  0
 12  6  2  0  0  0  0
 13  4  2  0  0  0  0
 13 11  1  0  0  0  0
 14 17  2  0  0  0  0
 14 19  1  0  0  0  0
 15 14  1  0  0  0  0
 16 18  1  0  0  0  0
 17 21  1  0  0  0  0
 19 16  2  0  0  0  0
 20 19  1  0  0  0  0
 21 23  1  0  0  0  0
 21 18  2  0  0  0  0
 23 22  1  0  0  0  0
 24 28  1  0  0  0  0
 25  1  1  1  0  0  0
 25 26  1  0  0  0  0
 25 24  1  0  0  0  0
 26 27  1  0  0  0  0
 27 28  1  0  0  0  0
 29 26  1  0  0  0  0
 30 29  1  0  0  0  0
 31 30  1  0  0  0  0
 32 31  1  0  0  0  0
M  END
>  <MODEL>
6

>  <REMARK>
 VINA RESULT:      -7.0      1.692      2.745
  Name = 
  6 active torsions:
  status: ('A' for Active; 'I' for Inactive)
    1  A    between atoms: N_1  and  C_5
    2  A    between atoms: C_13  and  C_18
    3  A    between atoms: N_14  and  C_29
    4  A    between atoms: O_15  and  C_26
    5  A    between atoms: C_16  and  C_27
    6  A    between atoms: C_18  and  C_29
                            x       y       z     vdW  Elec       q    Type
                         _______ _______ _______ _____ _____    ______ ____

>  <TORSDO>
F 6

$$$$
=
 OpenBabel11052419143D

 32 36  0  0  1  0  0  0  0  0999 V2000
  189.8430  175.4810  142.5330 N   0  0  0  0  0  0  0  0  0  0  0  0
  191.6320  176.0290  143.8150 C   0  0  0  0  0  0  0  0  0  0  0  0
  191.3410  173.6580  143.4610 C   0  0  0  0  0  3  0  0  0  0  0  0
  194.6200  176.6420  145.9220 C   0  0  0  0  0  3  0  0  0  0  0  0
  190.9460  174.9850  143.2750 C   0  0  0  0  0  0  0  0  0  0  0  0
  194.3350  174.2540  145.5920 C   0  0  0  0  0  3  0  0  0  0  0  0
  193.1990  174.4940  144.8140 C   0  0  0  0  0  0  0  0  0  0  0  0
  192.4840  173.4190  144.2460 C   0  0  0  0  0  3  0  0  0  0  0  0
  191.0340  177.2260  143.4550 O   0  0  0  0  0  0  0  0  0  0  0  0
  189.8910  176.9430  142.6310 C   0  0  2  0  0  3  0  0  0  0  0  0
  192.7700  175.8290  144.5940 C   0  0  0  0  0  0  0  0  0  0  0  0
  195.0430  175.3270  146.1450 C   0  0  0  0  0  3  0  0  0  0  0  0
  193.4830  176.8970  145.1480 C   0  0  0  0  0  3  0  0  0  0  0  0
  186.3980  178.4100  143.0890 C   0  0  0  0  0  0  0  0  0  0  0  0
  185.3740  178.8980  142.3450 F   0  0  0  0  0  0  0  0  0  0  0  0
  188.6330  177.4670  143.2650 C   0  0  0  0  0  0  0  0  0  0  0  0
  186.2650  178.3480  144.4780 C   0  0  0  0  0  3  0  0  0  0  0  0
  188.4820  177.4030  144.6580 C   0  0  0  0  0  3  0  0  0  0  0  0
  187.5790  177.9670  142.4740 C   0  0  0  0  0  0  0  0  0  0  0  0
  187.7000  178.0300  140.9860 C   0  0  0  0  0  1  0  0  0  0  0  0
  187.3070  177.8440  145.2710 C   0  0  0  0  0  0  0  0  0  0  0  0
  186.2040  176.9860  147.3140 C   0  0  0  0  0  1  0  0  0  0  0  0
  187.1990  177.7650  146.6620 O   0  0  0  0  0  0  0  0  0  0  0  0
  187.7580  174.2040  142.4180 C   0  0  0  0  0  2  0  0  0  0  0  0
  188.9540  174.7310  141.6500 C   0  0  2  0  0  3  0  0  0  0  0  0
  189.6560  173.6000  141.0610 N   0  0  0  0  0  0  0  0  0  0  0  0
  188.6450  172.5670  140.9000 C   0  0  0  0  0  2  0  0  0  0  0  0
  187.6160  172.7630  141.9920 C   0  0  0  0  0  2  0  0  0  0  0  0
  190.0690  174.0020  139.7280 C   0  0  0  0  0  2  0  0  0  0  0  0
  189.4780  173.0550  138.7060 C   0  0  0  0  0  2  0  0  0  0  0  0
  188.8060  173.8530  137.6100 C   0  0  0  0  0  2  0  0  0  0  0  0
  187.8390  174.6880  138.1700 O   0  0  0  0  0  1  0  0  0  0  0  0
  1 10  1  0  0  0  0
  1  5  1  0  0  0  0
  2 11  1  0  0  0  0
  3  8  2  0  0  0  0
  4 12  1  0  0  0  0
  5  3  1  0  0  0  0
  5  2  2  0  0  0  0
  6 12  2  0  0  0  0
  7  6  1  0  0  0  0
  8  7  1  0  0  0  0
  9  2  1  0  0  0  0
 10 16  1  1  0  0  0
 10  9  1  0  0  0  0
 11  7  2  0  0  0  0
 11 13  1  0  0  0  0
 13  4  2  0  0  0  0
 14 17  1  0  0  0  0
 15 14  1  0  0  0  0
 16 18  2  0  0  0  0
 17 21  2  0  0  0  0
 18 21  1  0  0  0  0
 19 14  2  0  0  0  0
 19 16  1  0  0  0  0
 20 19  1  0  0  0  0
 21 23  1  0  0  0  0
 23 22  1  0  0  0  0
 25 24  1  1  0  0  0
 25  1  1  0  0  0  0
 26 25  1  0  0  0  0
 27 26  1  0  0  0  0
 27 28  1  0  0  0  0
 28 24  1  0  0  0  0
 29 26  1  0  0  0  0
 30 29  1  0  0  0  0
 31 32  1  0  0  0  0
 31 30  1  0  0  0  0
M  END
>  <MODEL>
7

>  <REMARK>
 VINA RESULT:      -6.9      2.611      6.674
  Name = 
  6 active torsions:
  status: ('A' for Active; 'I' for Inactive)
    1  A    between atoms: N_1  and  C_5
    2  A    between atoms: C_13  and  C_18
    3  A    between atoms: N_14  and  C_29
    4  A    between atoms: O_15  and  C_26
    5  A    between atoms: C_16  and  C_27
    6  A    between atoms: C_18  and  C_29
                            x       y       z     vdW  Elec       q    Type
                         _______ _______ _______ _____ _____    ______ ____

>  <TORSDO>
F 6

$$$$
=
 OpenBabel11052419143D

 32 36  0  0  1  0  0  0  0  0999 V2000
  191.0830  174.8400  143.8970 N   0  0  0  0  0  0  0  0  0  0  0  0
  190.2950  173.8510  142.0130 C   0  0  0  0  0  0  0  0  0  0  0  0
  192.5720  174.6390  141.8540 C   0  0  0  0  0  3  0  0  0  0  0  0
  189.2700  172.2760  138.8180 C   0  0  0  0  0  3  0  0  0  0  0  0
  191.3810  174.4620  142.5620 C   0  0  0  0  0  0  0  0  0  0  0  0
  191.5550  173.0760  138.6330 C   0  0  0  0  0  3  0  0  0  0  0  0
  191.5010  173.5420  139.9490 C   0  0  0  0  0  0  0  0  0  0  0  0
  192.6220  174.1720  140.5290 C   0  0  0  0  0  3  0  0  0  0  0  0
  189.2660  173.7930  142.9390 O   0  0  0  0  0  0  0  0  0  0  0  0
  189.7090  174.4020  144.1640 C   0  0  2  0  0  3  0  0  0  0  0  0
  190.3110  173.3720  140.7050 C   0  0  0  0  0  0  0  0  0  0  0  0
  190.4400  172.4450  138.0690 C   0  0  0  0  0  3  0  0  0  0  0  0
  189.2020  172.7400  140.1350 C   0  0  0  0  0  3  0  0  0  0  0  0
  187.7440  176.9850  146.1700 C   0  0  0  0  0  0  0  0  0  0  0  0
  187.4180  177.2680  147.4550 F   0  0  0  0  0  0  0  0  0  0  0  0
  188.8440  175.5780  144.5190 C   0  0  0  0  0  0  0  0  0  0  0  0
  187.3050  177.8330  145.1500 C   0  0  0  0  0  3  0  0  0  0  0  0
  188.4020  176.4430  143.5060 C   0  0  0  0  0  3  0  0  0  0  0  0
  188.5190  175.8560  145.8610 C   0  0  0  0  0  0  0  0  0  0  0  0
  188.9900  174.9660  146.9650 C   0  0  0  0  0  1  0  0  0  0  0  0
  187.6310  177.5670  143.8120 C   0  0  0  0  0  0  0  0  0  0  0  0
  185.8380  178.6380  142.4850 C   0  0  0  0  0  1  0  0  0  0  0  0
  187.2100  178.4010  142.7730 O   0  0  0  0  0  0  0  0  0  0  0  0
  192.1940  176.8520  144.7390 C   0  0  0  0  0  2  0  0  0  0  0  0
  192.0060  175.3570  144.9030 C   0  0  2  0  0  3  0  0  0  0  0  0
  193.3060  174.7140  144.7800 N   0  0  0  0  0  0  0  0  0  0  0  0
  194.2700  175.7270  145.1800 C   0  0  0  0  0  2  0  0  0  0  0  0
  193.6830  177.0760  144.8300 C   0  0  0  0  0  2  0  0  0  0  0  0
  193.3570  173.6600  145.7780 C   0  0  0  0  0  2  0  0  0  0  0  0
  193.9020  172.3940  145.1530 C   0  0  0  0  0  2  0  0  0  0  0  0
  192.7780  171.6460  144.4690 C   0  0  0  0  0  2  0  0  0  0  0  0
  193.1190  171.4160  143.1360 O   0  0  0  0  0  1  0  0  0  0  0  0
  1 10  1  0  0  0  0
  2  5  1  0  0  0  0
  2  9  1  0  0  0  0
  3  5  2  0  0  0  0
  4 13  2  0  0  0  0
  5  1  1  0  0  0  0
  6  7  1  0  0  0  0
  7  8  2  0  0  0  0
  7 11  1  0  0  0  0
  8  3  1  0  0  0  0
  9 10  1  0  0  0  0
 10 16  1  6  0  0  0
 11  2  2  0  0  0  0
 12  6  2  0  0  0  0
 12  4  1  0  0  0  0
 13 11  1  0  0  0  0
 14 15  1  0  0  0  0
 16 19  2  0  0  0  0
 17 14  2  0  0  0  0
 18 21  2  0  0  0  0
 18 16  1  0  0  0  0
 19 14  1  0  0  0  0
 19 20  1  0  0  0  0
 21 17  1  0  0  0  0
 22 23  1  0  0  0  0
 23 21  1  0  0  0  0
 24 28  1  0  0  0  0
 24 25  1  0  0  0  0
 25  1  1  6  0  0  0
 26 25  1  0  0  0  0
 26 27  1  0  0  0  0
 26 29  1  0  0  0  0
 28 27  1  0  0  0  0
 30 29  1  0  0  0  0
 31 30  1  0  0  0  0
 32 31  1  0  0  0  0
M  END
>  <MODEL>
8

>  <REMARK>
 VINA RESULT:      -6.5      2.401      6.086
  Name = 
  6 active torsions:
  status: ('A' for Active; 'I' for Inactive)
    1  A    between atoms: N_1  and  C_5
    2  A    between atoms: C_13  and  C_18
    3  A    between atoms: N_14  and  C_29
    4  A    between atoms: O_15  and  C_26
    5  A    between atoms: C_16  and  C_27
    6  A    between atoms: C_18  and  C_29
                            x       y       z     vdW  Elec       q    Type
                         _______ _______ _______ _____ _____    ______ ____

>  <TORSDO>
F 6

$$$$
=
 OpenBabel11052419143D

 32 36  0  0  1  0  0  0  0  0999 V2000
  190.7180  176.8300  144.4110 N   0  0  0  0  0  0  0  0  0  0  0  0
  188.8790  177.3590  143.1920 C   0  0  0  0  0  0  0  0  0  0  0  0
  188.5860  177.5430  145.5810 C   0  0  0  0  0  3  0  0  0  0  0  0
  185.7410  178.2880  141.4510 C   0  0  0  0  0  3  0  0  0  0  0  0
  189.3640  177.2520  144.4590 C   0  0  0  0  0  0  0  0  0  0  0  0
  185.4210  178.4630  143.8510 C   0  0  0  0  0  3  0  0  0  0  0  0
  186.7420  178.0580  144.0600 C   0  0  0  0  0  0  0  0  0  0  0  0
  187.2550  177.9490  145.3690 C   0  0  0  0  0  3  0  0  0  0  0  0
  189.8670  177.0310  142.2770 O   0  0  0  0  0  0  0  0  0  0  0  0
  191.0670  176.6910  142.9930 C   0  0  2  0  0  3  0  0  0  0  0  0
  187.5680  177.7620  142.9440 C   0  0  0  0  0  0  0  0  0  0  0  0
  184.9220  178.5770  142.5480 C   0  0  0  0  0  3  0  0  0  0  0  0
  187.0640  177.8790  141.6460 C   0  0  0  0  0  3  0  0  0  0  0  0
  193.1370  173.6720  141.9160 C   0  0  0  0  0  0  0  0  0  0  0  0
  194.3530  173.3850  141.3880 F   0  0  0  0  0  0  0  0  0  0  0  0
  191.4850  175.2790  142.6930 C   0  0  0  0  0  0  0  0  0  0  0  0
  192.2650  172.6270  142.2330 C   0  0  0  0  0  3  0  0  0  0  0  0
  190.6230  174.2190  143.0130 C   0  0  0  0  0  3  0  0  0  0  0  0
  192.7540  175.0020  142.1470 C   0  0  0  0  0  0  0  0  0  0  0  0
  193.7040  176.1070  141.8130 C   0  0  0  0  0  1  0  0  0  0  0  0
  191.0020  172.8950  142.7840 C   0  0  0  0  0  0  0  0  0  0  0  0
  189.3200  171.8910  144.2950 C   0  0  0  0  0  1  0  0  0  0  0  0
  190.1130  171.8690  143.1150 O   0  0  0  0  0  0  0  0  0  0  0  0
  193.0590  177.1480  145.0520 C   0  0  0  0  0  2  0  0  0  0  0  0
  191.6690  176.7590  145.5160 C   0  0  2  0  0  3  0  0  0  0  0  0
  191.7260  175.4070  146.0530 N   0  0  0  0  0  0  0  0  0  0  0  0
  193.0970  175.2340  146.5040 C   0  0  0  0  0  2  0  0  0  0  0  0
  193.9770  176.0970  145.6260 C   0  0  0  0  0  2  0  0  0  0  0  0
  190.8820  175.3820  147.2360 C   0  0  0  0  0  2  0  0  0  0  0  0
  191.5670  176.1250  148.3620 C   0  0  0  0  0  2  0  0  0  0  0  0
  190.8870  177.4610  148.5720 C   0  0  0  0  0  2  0  0  0  0  0  0
  191.5670  178.1790  149.5550 O   0  0  0  0  0  1  0  0  0  0  0  0
  1  5  1  0  0  0  0
  2  5  1  0  0  0  0
  4 13  2  0  0  0  0
  4 12  1  0  0  0  0
  5  3  2  0  0  0  0
  6  7  1  0  0  0  0
  7  8  2  0  0  0  0
  8  3  1  0  0  0  0
  9 10  1  0  0  0  0
  9  2  1  0  0  0  0
 10 16  1  1  0  0  0
 10  1  1  0  0  0  0
 11  2  2  0  0  0  0
 11  7  1  0  0  0  0
 12  6  2  0  0  0  0
 13 11  1  0  0  0  0
 14 19  2  0  0  0  0
 14 17  1  0  0  0  0
 15 14  1  0  0  0  0
 16 18  2  0  0  0  0
 17 21  2  0  0  0  0
 19 16  1  0  0  0  0
 20 19  1  0  0  0  0
 21 18  1  0  0  0  0
 21 23  1  0  0  0  0
 23 22  1  0  0  0  0
 24 25  1  0  0  0  0
 24 28  1  0  0  0  0
 25  1  1  6  0  0  0
 25 26  1  0  0  0  0
 26 27  1  0  0  0  0
 26 29  1  0  0  0  0
 28 27  1  0  0  0  0
 29 30  1  0  0  0  0
 30 31  1  0  0  0  0
 31 32  1  0  0  0  0
M  END
>  <MODEL>
9

>  <REMARK>
 VINA RESULT:      -6.5      1.958      3.142
  Name = 
  6 active torsions:
  status: ('A' for Active; 'I' for Inactive)
    1  A    between atoms: N_1  and  C_5
    2  A    between atoms: C_13  and  C_18
    3  A    between atoms: N_14  and  C_29
    4  A    between atoms: O_15  and  C_26
    5  A    between atoms: C_16  and  C_27
    6  A    between atoms: C_18  and  C_29
                            x       y       z     vdW  Elec       q    Type
                         _______ _______ _______ _____ _____    ______ ____

>  <TORSDO>
F 6

$$$$
