=
 OpenBabel11052419023D

 34 37  0  0  1  0  0  0  0  0999 V2000
  189.2210  177.9400  145.2780 C   0  0  0  0  0  2  0  0  0  0  0  0
  189.8590  174.4320  146.8140 C   0  0  0  0  0  1  0  0  0  0  0  0
  190.4700  170.9700  140.2320 N   0  0  0  0  0  2  0  0  0  0  0  0
  188.6820  175.0930  144.6860 C   0  0  1  0  0  3  0  0  0  0  0  0
  190.1090  175.0290  142.5270 C   0  0  1  0  0  3  0  0  0  0  0  0
  189.4950  172.9230  143.7620 C   0  0  0  0  0  3  0  0  0  0  0  0
  192.4280  172.2180  139.9070 N   0  0  0  0  0  2  0  0  0  0  0  0
  189.0950  175.5440  146.1040 C   0  0  2  0  0  0  0  0  0  0  0  0
  189.9710  172.1980  142.7510 C   0  0  0  0  0  3  0  0  0  0  0  0
  191.1470  174.2050  141.7690 C   0  0  0  0  0  2  0  0  0  0  0  0
  187.9880  176.2280  143.9010 C   0  0  2  0  0  3  0  0  0  0  0  0
  189.9600  176.8230  146.0160 C   0  0  2  0  0  3  0  0  0  0  0  0
  187.9360  175.8080  146.8410 O   0  0  0  0  0  1  0  0  0  0  0  0
  188.8520  175.2470  141.6740 C   0  0  0  0  0  2  0  0  0  0  0  0
  187.6420  175.7310  142.4900 C   0  0  2  0  0  3  0  0  0  0  0  0
  190.7750  172.7860  141.7130 N   0  0  0  0  0  0  0  0  0  0  0  0
  189.8090  174.3860  143.8940 C   0  0  2  0  0  3  0  0  0  0  0  0
  188.8540  177.4960  143.8690 C   0  0  0  0  0  2  0  0  0  0  0  0
  191.2040  171.9650  140.6110 C   0  0  0  0  0  0  0  0  0  0  0  0
  185.7390  177.4190  142.2140 C   0  0  0  0  0  0  0  0  0  0  0  0
  185.2850  178.1740  141.2470 O   0  0  0  0  0  0  0  0  0  0  0  0
  186.7990  176.7000  141.7230 C   0  0  0  0  0  0  0  0  0  0  0  0
  186.0350  177.9550  140.1870 C   0  0  0  0  0  3  0  0  0  0  0  0
  187.0010  177.0410  140.4360 N   0  0  0  0  0  0  0  0  0  0  0  0
  185.1630  177.3550  143.5870 C   0  0  0  0  0  2  0  0  0  0  0  0
  185.2610  178.7140  144.2490 C   0  0  0  0  0  1  0  0  0  0  0  0
  190.4230  177.3160  147.3540 C   0  0  0  0  0  0  0  0  0  0  0  0
  191.5930  176.8280  147.9230 O   0  0  0  0  0  0  0  0  0  0  0  0
  189.7490  178.1870  147.9620 O   0  0  0  0  0  1  0  0  0  0  0  0
  193.4980  173.0830  140.3890 C   0  0  0  0  0  3  0  0  0  0  0  0
  194.5050  172.2900  141.2270 C   0  0  0  0  0  2  0  0  0  0  0  0
  194.4010  172.6130  142.7100 C   0  0  0  0  0  1  0  0  0  0  0  0
  194.1650  173.7800  139.2120 C   0  0  0  0  0  2  0  0  0  0  0  0
  194.4920  175.2190  139.5670 C   0  0  0  0  0  1  0  0  0  0  0  0
  1 12  1  0  0  0  0
  3 19  2  0  0  0  0
  4  8  1  0  0  0  0
  5 17  1  0  0  0  0
  6 17  1  0  0  0  0
  7 30  1  0  0  0  0
  7 19  1  0  0  0  0
  8  2  1  0  0  0  0
  8 13  1  0  0  0  0
  9  6  2  0  0  0  0
 10  5  1  0  0  0  0
 11  4  1  0  0  0  0
 12  8  1  0  0  0  0
 12 27  1  0  0  0  0
 14 15  1  0  0  0  0
 14  5  1  0  0  0  0
 15 11  1  0  0  0  0
 16 10  1  0  0  0  0
 16  9  1  0  0  0  0
 17  4  1  0  0  0  0
 18 11  1  0  0  0  0
 18  1  1  0  0  0  0
 19 16  1  0  0  0  0
 20 25  1  0  0  0  0
 21 20  1  0  0  0  0
 22 20  2  0  0  0  0
 22 15  1  0  0  0  0
 23 24  2  0  0  0  0
 23 21  1  0  0  0  0
 24 22  1  0  0  0  0
 25 26  1  0  0  0  0
 27 28  2  0  0  0  0
 27 29  1  0  0  0  0
 30 31  1  0  0  0  0
 31 32  1  0  0  0  0
 33 34  1  0  0  0  0
 33 30  1  0  0  0  0
M  END
>  <MODEL>
1

>  <REMARK>
 VINA RESULT:      -6.7      0.000      0.000
  Name = 
  6 active torsions:
  status: ('A' for Active; 'I' for Inactive)
    1  A    between atoms: C_6  and  C_24
    2  A    between atoms: C_7  and  C_23
    3  A    between atoms: C_11  and  C_20
    4  A    between atoms: C_12  and  C_28
    5  A    between atoms: N_13  and  C_20
    6  A    between atoms: C_14  and  C_20
                            x       y       z     vdW  Elec       q    Type
                         _______ _______ _______ _____ _____    ______ ____

>  <TORSDO>
F 6

$$$$
=
 OpenBabel11052419023D

 34 37  0  0  1  0  0  0  0  0999 V2000
  189.6820  177.5550  144.9710 C   0  0  0  0  0  2  0  0  0  0  0  0
  190.3520  173.8820  146.0390 C   0  0  0  0  0  1  0  0  0  0  0  0
  189.5140  171.0720  139.1770 N   0  0  0  0  0  2  0  0  0  0  0  0
  188.8530  174.8110  144.2390 C   0  0  1  0  0  3  0  0  0  0  0  0
  189.8540  174.8940  141.8530 C   0  0  1  0  0  3  0  0  0  0  0  0
  189.3350  172.7080  142.9880 C   0  0  0  0  0  3  0  0  0  0  0  0
  191.4590  172.2480  138.6030 N   0  0  0  0  0  2  0  0  0  0  0  0
  189.5480  175.0970  145.5880 C   0  0  2  0  0  0  0  0  0  0  0  0
  189.5680  172.0640  141.8450 C   0  0  0  0  0  3  0  0  0  0  0  0
  190.6770  174.0990  140.8430 C   0  0  0  0  0  2  0  0  0  0  0  0
  188.1060  176.0530  143.7030 C   0  0  2  0  0  3  0  0  0  0  0  0
  190.4670  176.3340  145.4530 C   0  0  2  0  0  3  0  0  0  0  0  0
  188.5630  175.3430  146.5510 O   0  0  0  0  0  1  0  0  0  0  0  0
  188.4790  175.2580  141.2750 C   0  0  0  0  0  2  0  0  0  0  0  0
  187.4750  175.7180  142.3440 C   0  0  2  0  0  3  0  0  0  0  0  0
  190.2070  172.7120  140.7300 N   0  0  0  0  0  0  0  0  0  0  0  0
  189.7660  174.1320  143.1890 C   0  0  2  0  0  3  0  0  0  0  0  0
  189.0340  177.2720  143.6210 C   0  0  0  0  0  2  0  0  0  0  0  0
  190.3710  171.9860  139.4990 C   0  0  0  0  0  0  0  0  0  0  0  0
  185.6550  177.5010  142.5770 C   0  0  0  0  0  0  0  0  0  0  0  0
  185.0900  178.3770  141.7880 O   0  0  0  0  0  0  0  0  0  0  0  0
  186.5740  176.7990  141.8380 C   0  0  0  0  0  0  0  0  0  0  0  0
  185.6370  178.2480  140.5960 C   0  0  0  0  0  3  0  0  0  0  0  0
  186.5770  177.2740  140.5790 N   0  0  0  0  0  0  0  0  0  0  0  0
  185.3140  177.3060  144.0160 C   0  0  0  0  0  2  0  0  0  0  0  0
  185.6180  178.5710  144.7910 C   0  0  0  0  0  1  0  0  0  0  0  0
  191.1980  176.6660  146.7180 C   0  0  0  0  0  0  0  0  0  0  0  0
  190.5280  177.2340  147.7950 O   0  0  0  0  0  1  0  0  0  0  0  0
  192.4290  176.4200  146.8080 O   0  0  0  0  0  0  0  0  0  0  0  0
  192.6560  173.0060  138.9490 C   0  0  0  0  0  3  0  0  0  0  0  0
  193.7770  172.0720  139.4160 C   0  0  0  0  0  2  0  0  0  0  0  0
  193.8930  172.0240  140.9310 C   0  0  0  0  0  1  0  0  0  0  0  0
  193.0850  173.8590  137.7650 C   0  0  0  0  0  2  0  0  0  0  0  0
  191.8690  174.3720  137.0160 C   0  0  0  0  0  1  0  0  0  0  0  0
  1 12  1  0  0  0  0
  3 19  2  0  0  0  0
  4  8  1  0  0  0  0
  5 17  1  0  0  0  0
  6 17  1  0  0  0  0
  7 30  1  0  0  0  0
  7 19  1  0  0  0  0
  8  2  1  0  0  0  0
  8 13  1  0  0  0  0
  9  6  2  0  0  0  0
 10  5  1  0  0  0  0
 11  4  1  0  0  0  0
 12  8  1  0  0  0  0
 12 27  1  0  0  0  0
 14  5  1  0  0  0  0
 14 15  1  0  0  0  0
 15 11  1  0  0  0  0
 16 10  1  0  0  0  0
 16  9  1  0  0  0  0
 17  4  1  0  0  0  0
 18 11  1  0  0  0  0
 18  1  1  0  0  0  0
 19 16  1  0  0  0  0
 20 25  1  0  0  0  0
 21 20  1  0  0  0  0
 22 15  1  0  0  0  0
 22 20  2  0  0  0  0
 23 21  1  0  0  0  0
 24 23  2  0  0  0  0
 24 22  1  0  0  0  0
 25 26  1  0  0  0  0
 27 29  2  0  0  0  0
 27 28  1  0  0  0  0
 30 31  1  0  0  0  0
 31 32  1  0  0  0  0
 33 30  1  0  0  0  0
 34 33  1  0  0  0  0
M  END
>  <MODEL>
2

>  <REMARK>
 VINA RESULT:      -6.5      1.115      1.334
  Name = 
  6 active torsions:
  status: ('A' for Active; 'I' for Inactive)
    1  A    between atoms: C_6  and  C_24
    2  A    between atoms: C_7  and  C_23
    3  A    between atoms: C_11  and  C_20
    4  A    between atoms: C_12  and  C_28
    5  A    between atoms: N_13  and  C_20
    6  A    between atoms: C_14  and  C_20
                            x       y       z     vdW  Elec       q    Type
                         _______ _______ _______ _____ _____    ______ ____

>  <TORSDO>
F 6

$$$$
=
 OpenBabel11052419023D

 34 37  0  0  1  0  0  0  0  0999 V2000
  192.8680  173.2340  139.9570 C   0  0  0  0  0  2  0  0  0  0  0  0
  190.5210  170.6470  141.6520 C   0  0  0  0  0  1  0  0  0  0  0  0
  189.0230  174.9430  147.5660 N   0  0  0  0  0  2  0  0  0  0  0  0
  192.0740  172.3520  142.6660 C   0  0  1  0  0  3  0  0  0  0  0  0
  191.0040  174.6100  143.3420 C   0  0  1  0  0  3  0  0  0  0  0  0
  190.4410  172.4730  144.5470 C   0  0  0  0  0  3  0  0  0  0  0  0
  187.9150  176.3750  146.0780 N   0  0  0  0  0  2  0  0  0  0  0  0
  191.7810  171.4760  141.4280 C   0  0  2  0  0  0  0  0  0  0  0  0
  189.7840  173.1720  145.4710 C   0  0  0  0  0  3  0  0  0  0  0  0
  189.7820  175.2330  144.0130 C   0  0  0  0  0  2  0  0  0  0  0  0
  193.2910  173.2760  142.4400 C   0  0  2  0  0  3  0  0  0  0  0  0
  191.6250  172.3710  140.1780 C   0  0  2  0  0  3  0  0  0  0  0  0
  192.8500  170.5930  141.2460 O   0  0  0  0  0  1  0  0  0  0  0  0
  192.2950  175.0210  144.0630 C   0  0  0  0  0  2  0  0  0  0  0  0
  193.5030  174.1490  143.6860 C   0  0  2  0  0  3  0  0  0  0  0  0
  189.4530  174.5590  145.2750 N   0  0  0  0  0  0  0  0  0  0  0  0
  190.8320  173.0830  143.2320 C   0  0  2  0  0  3  0  0  0  0  0  0
  193.1240  174.1200  141.1690 C   0  0  0  0  0  2  0  0  0  0  0  0
  188.8030  175.2800  146.3370 C   0  0  0  0  0  0  0  0  0  0  0  0
  196.0120  174.5130  144.0340 C   0  0  0  0  0  0  0  0  0  0  0  0
  196.8640  175.4770  143.8000 O   0  0  0  0  0  0  0  0  0  0  0  0
  194.7720  174.9400  143.6320 C   0  0  0  0  0  0  0  0  0  0  0  0
  196.1950  176.4740  143.2570 C   0  0  0  0  0  3  0  0  0  0  0  0
  194.8800  176.1840  143.1270 N   0  0  0  0  0  0  0  0  0  0  0  0
  196.3580  173.2030  144.6570 C   0  0  0  0  0  2  0  0  0  0  0  0
  196.9000  173.4260  146.0540 C   0  0  0  0  0  1  0  0  0  0  0  0
  191.3150  171.5970  138.9320 C   0  0  0  0  0  0  0  0  0  0  0  0
  190.0050  171.4570  138.4920 O   0  0  0  0  0  1  0  0  0  0  0  0
  192.2530  171.0760  138.2740 O   0  0  0  0  0  0  0  0  0  0  0  0
  187.3290  176.6790  144.7780 C   0  0  0  0  0  3  0  0  0  0  0  0
  185.8040  176.7910  144.8790 C   0  0  0  0  0  2  0  0  0  0  0  0
  185.3280  176.8780  146.3210 C   0  0  0  0  0  1  0  0  0  0  0  0
  187.9530  177.9470  144.2150 C   0  0  0  0  0  2  0  0  0  0  0  0
  187.5400  178.1420  142.7680 C   0  0  0  0  0  1  0  0  0  0  0  0
  1 12  1  0  0  0  0
  1 18  1  0  0  0  0
  4 17  1  0  0  0  0
  5 10  1  0  0  0  0
  5 14  1  0  0  0  0
  6  9  2  0  0  0  0
  7 19  1  0  0  0  0
  8  2  1  0  0  0  0
  8  4  1  0  0  0  0
 10 16  1  0  0  0  0
 11  4  1  0  0  0  0
 11 15  1  0  0  0  0
 12  8  1  0  0  0  0
 13  8  1  0  0  0  0
 15 14  1  0  0  0  0
 16  9  1  0  0  0  0
 16 19  1  0  0  0  0
 17  5  1  0  0  0  0
 17  6  1  0  0  0  0
 18 11  1  0  0  0  0
 19  3  2  0  0  0  0
 20 25  1  0  0  0  0
 21 20  1  0  0  0  0
 22 15  1  0  0  0  0
 22 20  2  0  0  0  0
 23 21  1  0  0  0  0
 24 23  2  0  0  0  0
 24 22  1  0  0  0  0
 25 26  1  0  0  0  0
 27 12  1  0  0  0  0
 28 27  1  0  0  0  0
 29 27  2  0  0  0  0
 30 31  1  0  0  0  0
 30  7  1  0  0  0  0
 31 32  1  0  0  0  0
 33 30  1  0  0  0  0
 34 33  1  0  0  0  0
M  END
>  <MODEL>
3

>  <REMARK>
 VINA RESULT:      -6.2      4.008      8.278
  Name = 
  6 active torsions:
  status: ('A' for Active; 'I' for Inactive)
    1  A    between atoms: C_6  and  C_24
    2  A    between atoms: C_7  and  C_23
    3  A    between atoms: C_11  and  C_20
    4  A    between atoms: C_12  and  C_28
    5  A    between atoms: N_13  and  C_20
    6  A    between atoms: C_14  and  C_20
                            x       y       z     vdW  Elec       q    Type
                         _______ _______ _______ _____ _____    ______ ____

>  <TORSDO>
F 6

$$$$
=
 OpenBabel11052419023D

 34 37  0  0  1  0  0  0  0  0999 V2000
  193.3880  172.9620  143.9610 C   0  0  0  0  0  2  0  0  0  0  0  0
  193.9210  176.7910  144.3170 C   0  0  0  0  0  1  0  0  0  0  0  0
  186.9860  178.5860  142.2270 N   0  0  0  0  0  2  0  0  0  0  0  0
  192.4810  175.4860  142.7140 C   0  0  1  0  0  3  0  0  0  0  0  0
  189.9980  175.1990  143.3860 C   0  0  1  0  0  3  0  0  0  0  0  0
  190.9420  177.4480  142.7630 C   0  0  0  0  0  3  0  0  0  0  0  0
  186.2660  177.5550  144.2050 N   0  0  0  0  0  2  0  0  0  0  0  0
  193.7360  175.4510  143.6140 C   0  0  2  0  0  0  0  0  0  0  0  0
  189.7110  177.9590  142.7600 C   0  0  0  0  0  3  0  0  0  0  0  0
  188.7930  175.9380  143.9630 C   0  0  0  0  0  2  0  0  0  0  0  0
  192.2070  174.1150  142.0570 C   0  0  2  0  0  3  0  0  0  0  0  0
  193.6060  174.3100  144.6490 C   0  0  2  0  0  3  0  0  0  0  0  0
  194.8560  175.2310  142.8050 O   0  0  0  0  0  1  0  0  0  0  0  0
  189.6750  174.6230  142.0010 C   0  0  0  0  0  2  0  0  0  0  0  0
  190.9270  174.2030  141.2130 C   0  0  2  0  0  3  0  0  0  0  0  0
  188.5950  177.2420  143.3170 N   0  0  0  0  0  0  0  0  0  0  0  0
  191.2370  176.1150  143.3870 C   0  0  2  0  0  3  0  0  0  0  0  0
  192.1270  172.9980  143.1080 C   0  0  0  0  0  2  0  0  0  0  0  0
  187.2790  177.8150  143.2230 C   0  0  0  0  0  0  0  0  0  0  0  0
  191.1930  172.7290  139.1390 C   0  0  0  0  0  0  0  0  0  0  0  0
  190.7830  171.5430  138.7690 O   0  0  0  0  0  0  0  0  0  0  0  0
  190.6870  172.9770  140.3900 C   0  0  0  0  0  0  0  0  0  0  0  0
  190.0570  171.0500  139.7510 C   0  0  0  0  0  3  0  0  0  0  0  0
  189.9710  171.9100  140.7920 N   0  0  0  0  0  0  0  0  0  0  0  0
  192.0350  173.6360  138.3080 C   0  0  0  0  0  2  0  0  0  0  0  0
  191.2320  174.1490  137.1310 C   0  0  0  0  0  1  0  0  0  0  0  0
  194.7790  174.2220  145.5800 C   0  0  0  0  0  0  0  0  0  0  0  0
  195.0190  175.2230  146.5130 O   0  0  0  0  0  1  0  0  0  0  0  0
  195.5460  173.2270  145.5200 O   0  0  0  0  0  0  0  0  0  0  0  0
  186.5140  176.9770  145.5200 C   0  0  0  0  0  3  0  0  0  0  0  0
  187.3680  177.9160  146.3770 C   0  0  0  0  0  2  0  0  0  0  0  0
  188.5810  177.2140  146.9690 C   0  0  0  0  0  1  0  0  0  0  0  0
  185.1910  176.6420  146.1930 C   0  0  0  0  0  2  0  0  0  0  0  0
  184.4260  177.9130  146.5130 C   0  0  0  0  0  1  0  0  0  0  0  0
  1 12  1  0  0  0  0
  3 19  2  0  0  0  0
  4 17  1  0  0  0  0
  4  8  1  0  0  0  0
  5 17  1  0  0  0  0
  5 10  1  0  0  0  0
  6 17  1  0  0  0  0
  7 30  1  0  0  0  0
  8  2  1  0  0  0  0
  8 12  1  0  0  0  0
  9  6  2  0  0  0  0
  9 16  1  0  0  0  0
 11  4  1  0  0  0  0
 11 18  1  0  0  0  0
 12 27  1  0  0  0  0
 13  8  1  0  0  0  0
 14  5  1  0  0  0  0
 15 14  1  0  0  0  0
 15 11  1  0  0  0  0
 16 10  1  0  0  0  0
 18  1  1  0  0  0  0
 19 16  1  0  0  0  0
 19  7  1  0  0  0  0
 20 22  2  0  0  0  0
 21 20  1  0  0  0  0
 21 23  1  0  0  0  0
 22 24  1  0  0  0  0
 22 15  1  0  0  0  0
 23 24  2  0  0  0  0
 25 20  1  0  0  0  0
 26 25  1  0  0  0  0
 27 28  1  0  0  0  0
 29 27  2  0  0  0  0
 30 33  1  0  0  0  0
 30 31  1  0  0  0  0
 31 32  1  0  0  0  0
 33 34  1  0  0  0  0
M  END
>  <MODEL>
4

>  <REMARK>
 VINA RESULT:      -6.1      3.118      7.160
  Name = 
  6 active torsions:
  status: ('A' for Active; 'I' for Inactive)
    1  A    between atoms: C_6  and  C_24
    2  A    between atoms: C_7  and  C_23
    3  A    between atoms: C_11  and  C_20
    4  A    between atoms: C_12  and  C_28
    5  A    between atoms: N_13  and  C_20
    6  A    between atoms: C_14  and  C_20
                            x       y       z     vdW  Elec       q    Type
                         _______ _______ _______ _____ _____    ______ ____

>  <TORSDO>
F 6

$$$$
=
 OpenBabel11052419023D

 34 37  0  0  1  0  0  0  0  0999 V2000
  192.4060  177.1520  145.0320 C   0  0  0  0  0  2  0  0  0  0  0  0
  193.3390  173.4110  145.4860 C   0  0  0  0  0  1  0  0  0  0  0  0
  189.6300  171.1020  139.4370 N   0  0  0  0  0  2  0  0  0  0  0  0
  191.2580  174.4710  144.5390 C   0  0  1  0  0  3  0  0  0  0  0  0
  191.1770  174.7210  141.9640 C   0  0  1  0  0  3  0  0  0  0  0  0
  191.1060  172.4610  143.0710 C   0  0  0  0  0  3  0  0  0  0  0  0
  191.1960  172.3090  138.1800 N   0  0  0  0  0  2  0  0  0  0  0  0
  192.4610  174.6580  145.4910 C   0  0  2  0  0  0  0  0  0  0  0  0
  190.8210  171.9000  141.8960 C   0  0  0  0  0  3  0  0  0  0  0  0
  191.4790  173.9980  140.6540 C   0  0  0  0  0  2  0  0  0  0  0  0
  190.3960  175.7500  144.4460 C   0  0  2  0  0  3  0  0  0  0  0  0
  193.2790  175.8970  145.0640 C   0  0  2  0  0  3  0  0  0  0  0  0
  191.9750  174.8370  146.7900 O   0  0  0  0  0  1  0  0  0  0  0  0
  189.6990  175.1300  142.0370 C   0  0  0  0  0  2  0  0  0  0  0  0
  189.2470  175.5150  143.4550 C   0  0  2  0  0  3  0  0  0  0  0  0
  190.9590  172.6240  140.6610 N   0  0  0  0  0  0  0  0  0  0  0  0
  191.6290  173.8660  143.1630 C   0  0  2  0  0  3  0  0  0  0  0  0
  191.2460  176.9690  144.0610 C   0  0  0  0  0  2  0  0  0  0  0  0
  190.5710  171.9880  139.4300 C   0  0  0  0  0  0  0  0  0  0  0  0
  187.4910  177.0530  144.5030 C   0  0  0  0  0  0  0  0  0  0  0  0
  186.7720  178.0700  144.1030 O   0  0  0  0  0  0  0  0  0  0  0  0
  188.2520  176.6330  143.4420 C   0  0  0  0  0  0  0  0  0  0  0  0
  187.0750  178.2970  142.8410 C   0  0  0  0  0  3  0  0  0  0  0  0
  188.0020  177.4250  142.3830 N   0  0  0  0  0  0  0  0  0  0  0  0
  187.4420  176.4610  145.8710 C   0  0  0  0  0  2  0  0  0  0  0  0
  188.0910  177.4050  146.8620 C   0  0  0  0  0  1  0  0  0  0  0  0
  194.4820  176.1370  145.9260 C   0  0  0  0  0  0  0  0  0  0  0  0
  195.6680  175.4510  145.6950 O   0  0  0  0  0  0  0  0  0  0  0  0
  194.4180  176.9740  146.8630 O   0  0  0  0  0  1  0  0  0  0  0  0
  192.4520  173.0370  138.0420 C   0  0  0  0  0  3  0  0  0  0  0  0
  193.6280  172.0690  137.8750 C   0  0  0  0  0  2  0  0  0  0  0  0
  194.6350  172.1840  139.0090 C   0  0  0  0  0  1  0  0  0  0  0  0
  192.3560  174.0160  136.8820 C   0  0  0  0  0  2  0  0  0  0  0  0
  193.1860  175.2540  137.1650 C   0  0  0  0  0  1  0  0  0  0  0  0
  1 12  1  0  0  0  0
  2  8  1  0  0  0  0
  4  8  1  0  0  0  0
  5 14  1  0  0  0  0
  5 17  1  0  0  0  0
  6 17  1  0  0  0  0
  7 19  1  0  0  0  0
  8 13  1  0  0  0  0
  9  6  2  0  0  0  0
 10 16  1  0  0  0  0
 10  5  1  0  0  0  0
 11  4  1  0  0  0  0
 12  8  1  0  0  0  0
 12 27  1  0  0  0  0
 14 15  1  0  0  0  0
 15 11  1  0  0  0  0
 16  9  1  0  0  0  0
 17  4  1  0  0  0  0
 18 11  1  0  0  0  0
 18  1  1  0  0  0  0
 19  3  2  0  0  0  0
 19 16  1  0  0  0  0
 20 25  1  0  0  0  0
 21 20  1  0  0  0  0
 22 15  1  0  0  0  0
 22 20  2  0  0  0  0
 23 21  1  0  0  0  0
 24 23  2  0  0  0  0
 24 22  1  0  0  0  0
 25 26  1  0  0  0  0
 27 29  1  0  0  0  0
 28 27  2  0  0  0  0
 30  7  1  0  0  0  0
 31 30  1  0  0  0  0
 31 32  1  0  0  0  0
 33 34  1  0  0  0  0
 33 30  1  0  0  0  0
M  END
>  <MODEL>
5

>  <REMARK>
 VINA RESULT:      -6.0      2.306      2.942
  Name = 
  6 active torsions:
  status: ('A' for Active; 'I' for Inactive)
    1  A    between atoms: C_6  and  C_24
    2  A    between atoms: C_7  and  C_23
    3  A    between atoms: C_11  and  C_20
    4  A    between atoms: C_12  and  C_28
    5  A    between atoms: N_13  and  C_20
    6  A    between atoms: C_14  and  C_20
                            x       y       z     vdW  Elec       q    Type
                         _______ _______ _______ _____ _____    ______ ____

>  <TORSDO>
F 6

$$$$
=
 OpenBabel11052419023D

 34 37  0  0  1  0  0  0  0  0999 V2000
  194.9870  171.4690  144.1800 C   0  0  0  0  0  2  0  0  0  0  0  0
  196.1210  175.1800  144.3170 C   0  0  0  0  0  1  0  0  0  0  0  0
  189.3690  177.9540  142.7670 N   0  0  0  0  0  2  0  0  0  0  0  0
  194.3570  174.0640  142.9060 C   0  0  1  0  0  3  0  0  0  0  0  0
  191.9330  174.1830  143.8060 C   0  0  1  0  0  3  0  0  0  0  0  0
  193.1420  176.2390  143.0030 C   0  0  0  0  0  3  0  0  0  0  0  0
  188.6910  177.1070  144.8450 N   0  0  0  0  0  2  0  0  0  0  0  0
  195.6710  173.8640  143.6930 C   0  0  2  0  0  0  0  0  0  0  0  0
  192.0070  176.9330  143.0860 C   0  0  0  0  0  3  0  0  0  0  0  0
  190.9120  175.1150  144.4530 C   0  0  0  0  0  2  0  0  0  0  0  0
  193.8200  172.7310  142.3370 C   0  0  2  0  0  3  0  0  0  0  0  0
  195.4690  172.7880  144.7850 C   0  0  2  0  0  3  0  0  0  0  0  0
  196.6650  173.4500  142.7990 O   0  0  0  0  0  1  0  0  0  0  0  0
  191.3990  173.6200  142.4820 C   0  0  0  0  0  2  0  0  0  0  0  0
  192.4950  172.9890  141.6060 C   0  0  2  0  0  3  0  0  0  0  0  0
  190.8530  176.4130  143.7700 N   0  0  0  0  0  0  0  0  0  0  0  0
  193.2900  174.8960  143.6580 C   0  0  2  0  0  3  0  0  0  0  0  0
  193.6720  171.6720  143.4400 C   0  0  0  0  0  2  0  0  0  0  0  0
  189.6350  177.1790  143.7670 C   0  0  0  0  0  0  0  0  0  0  0  0
  192.5210  171.2820  139.7010 C   0  0  0  0  0  0  0  0  0  0  0  0
  191.8330  170.2160  139.3840 O   0  0  0  0  0  0  0  0  0  0  0  0
  191.9970  171.7900  140.8620 C   0  0  0  0  0  0  0  0  0  0  0  0
  190.9160  170.0450  140.3140 C   0  0  0  0  0  3  0  0  0  0  0  0
  190.9810  171.0040  141.2660 N   0  0  0  0  0  0  0  0  0  0  0  0
  193.6510  171.8350  138.9010 C   0  0  0  0  0  2  0  0  0  0  0  0
  194.8990  171.0090  139.1350 C   0  0  0  0  0  1  0  0  0  0  0  0
  196.6970  172.5500  145.6120 C   0  0  0  0  0  0  0  0  0  0  0  0
  197.0370  173.4180  146.6420 O   0  0  0  0  0  1  0  0  0  0  0  0
  197.4200  171.5480  145.3760 O   0  0  0  0  0  0  0  0  0  0  0  0
  188.9710  176.5380  146.1580 C   0  0  0  0  0  3  0  0  0  0  0  0
  189.7850  177.5140  147.0130 C   0  0  0  0  0  2  0  0  0  0  0  0
  190.9540  176.8340  147.7090 C   0  0  0  0  0  1  0  0  0  0  0  0
  187.6690  176.1410  146.8360 C   0  0  0  0  0  2  0  0  0  0  0  0
  186.6000  177.1880  146.5790 C   0  0  0  0  0  1  0  0  0  0  0  0
  1 12  1  0  0  0  0
  3 19  2  0  0  0  0
  4 17  1  0  0  0  0
  4  8  1  0  0  0  0
  5 10  1  0  0  0  0
  6  9  2  0  0  0  0
  6 17  1  0  0  0  0
  7 30  1  0  0  0  0
  8  2  1  0  0  0  0
  8 12  1  0  0  0  0
  9 16  1  0  0  0  0
 11  4  1  0  0  0  0
 11 18  1  0  0  0  0
 12 27  1  0  0  0  0
 13  8  1  0  0  0  0
 14  5  1  0  0  0  0
 15 11  1  0  0  0  0
 15 14  1  0  0  0  0
 16 10  1  0  0  0  0
 17  5  1  0  0  0  0
 18  1  1  0  0  0  0
 19 16  1  0  0  0  0
 19  7  1  0  0  0  0
 20 22  2  0  0  0  0
 21 20  1  0  0  0  0
 21 23  1  0  0  0  0
 22 24  1  0  0  0  0
 22 15  1  0  0  0  0
 23 24  2  0  0  0  0
 25 26  1  0  0  0  0
 25 20  1  0  0  0  0
 27 28  1  0  0  0  0
 29 27  2  0  0  0  0
 30 33  1  0  0  0  0
 30 31  1  0  0  0  0
 31 32  1  0  0  0  0
 34 33  1  0  0  0  0
M  END
>  <MODEL>
6

>  <REMARK>
 VINA RESULT:      -5.8      3.807      7.848
  Name = 
  6 active torsions:
  status: ('A' for Active; 'I' for Inactive)
    1  A    between atoms: C_6  and  C_24
    2  A    between atoms: C_7  and  C_23
    3  A    between atoms: C_11  and  C_20
    4  A    between atoms: C_12  and  C_28
    5  A    between atoms: N_13  and  C_20
    6  A    between atoms: C_14  and  C_20
                            x       y       z     vdW  Elec       q    Type
                         _______ _______ _______ _____ _____    ______ ____

>  <TORSDO>
F 6

$$$$
=
 OpenBabel11052419023D

 34 37  0  0  1  0  0  0  0  0999 V2000
  194.1810  171.8480  141.0360 C   0  0  0  0  0  2  0  0  0  0  0  0
  190.5680  170.4710  141.3990 C   0  0  0  0  0  1  0  0  0  0  0  0
  188.9420  174.5640  147.4220 N   0  0  0  0  0  2  0  0  0  0  0  0
  192.2110  171.2280  143.1540 C   0  0  1  0  0  3  0  0  0  0  0  0
  191.9640  173.6740  143.9660 C   0  0  1  0  0  3  0  0  0  0  0  0
  190.2160  171.9350  144.4740 C   0  0  0  0  0  3  0  0  0  0  0  0
  189.0910  176.4390  146.0240 N   0  0  0  0  0  2  0  0  0  0  0  0
  192.0450  170.6630  141.7260 C   0  0  2  0  0  0  0  0  0  0  0  0
  189.6150  172.7890  145.3020 C   0  0  0  0  0  3  0  0  0  0  0  0
  190.9410  174.7290  144.3800 C   0  0  0  0  0  2  0  0  0  0  0  0
  193.6900  171.5250  143.4860 C   0  0  2  0  0  3  0  0  0  0  0  0
  192.7050  171.6180  140.7050 C   0  0  2  0  0  3  0  0  0  0  0  0
  192.6650  169.4100  141.6700 O   0  0  0  0  0  1  0  0  0  0  0  0
  192.9720  173.4150  145.0940 C   0  0  0  0  0  2  0  0  0  0  0  0
  193.7820  172.1230  144.8970 C   0  0  2  0  0  3  0  0  0  0  0  0
  189.9540  174.1870  145.3210 N   0  0  0  0  0  0  0  0  0  0  0  0
  191.2500  172.3960  143.4870 C   0  0  2  0  0  3  0  0  0  0  0  0
  194.3270  172.4410  142.4310 C   0  0  0  0  0  2  0  0  0  0  0  0
  189.3180  175.0470  146.2840 C   0  0  0  0  0  0  0  0  0  0  0  0
  196.0210  171.2490  145.7770 C   0  0  0  0  0  0  0  0  0  0  0  0
  197.1760  171.7730  146.0920 O   0  0  0  0  0  0  0  0  0  0  0  0
  195.1920  172.2670  145.3770 C   0  0  0  0  0  0  0  0  0  0  0  0
  197.0920  173.0720  145.8880 C   0  0  0  0  0  3  0  0  0  0  0  0
  195.8680  173.4300  145.4350 N   0  0  0  0  0  0  0  0  0  0  0  0
  195.6880  169.7990  145.8760 C   0  0  0  0  0  2  0  0  0  0  0  0
  196.0560  169.2800  147.2500 C   0  0  0  0  0  1  0  0  0  0  0  0
  192.5690  171.1510  139.2870 C   0  0  0  0  0  0  0  0  0  0  0  0
  191.6500  171.7450  138.4310 O   0  0  0  0  0  0  0  0  0  0  0  0
  193.3020  170.2190  138.8660 O   0  0  0  0  0  1  0  0  0  0  0  0
  189.1670  177.0610  144.7080 C   0  0  0  0  0  3  0  0  0  0  0  0
  187.7740  177.4550  144.2080 C   0  0  0  0  0  2  0  0  0  0  0  0
  187.1690  176.3990  143.2960 C   0  0  0  0  0  1  0  0  0  0  0  0
  190.1100  178.2550  144.7570 C   0  0  0  0  0  2  0  0  0  0  0  0
  190.9760  178.2940  143.5110 C   0  0  0  0  0  1  0  0  0  0  0  0
  1 18  1  0  0  0  0
  2  8  1  0  0  0  0
  4 11  1  0  0  0  0
  4 17  1  0  0  0  0
  5 10  1  0  0  0  0
  5 14  1  0  0  0  0
  6  9  2  0  0  0  0
  7 19  1  0  0  0  0
  8  4  1  0  0  0  0
  9 16  1  0  0  0  0
 10 16  1  0  0  0  0
 11 15  1  0  0  0  0
 12  1  1  0  0  0  0
 12  8  1  0  0  0  0
 13  8  1  0  0  0  0
 15 14  1  0  0  0  0
 15 22  1  0  0  0  0
 16 19  1  0  0  0  0
 17  5  1  0  0  0  0
 17  6  1  0  0  0  0
 18 11  1  0  0  0  0
 19  3  2  0  0  0  0
 20 25  1  0  0  0  0
 20 21  1  0  0  0  0
 22 24  1  0  0  0  0
 22 20  2  0  0  0  0
 23 21  1  0  0  0  0
 24 23  2  0  0  0  0
 25 26  1  0  0  0  0
 27 12  1  0  0  0  0
 28 27  2  0  0  0  0
 29 27  1  0  0  0  0
 30 33  1  0  0  0  0
 30  7  1  0  0  0  0
 31 30  1  0  0  0  0
 32 31  1  0  0  0  0
 34 33  1  0  0  0  0
M  END
>  <MODEL>
7

>  <REMARK>
 VINA RESULT:      -5.8      4.360      8.780
  Name = 
  6 active torsions:
  status: ('A' for Active; 'I' for Inactive)
    1  A    between atoms: C_6  and  C_24
    2  A    between atoms: C_7  and  C_23
    3  A    between atoms: C_11  and  C_20
    4  A    between atoms: C_12  and  C_28
    5  A    between atoms: N_13  and  C_20
    6  A    between atoms: C_14  and  C_20
                            x       y       z     vdW  Elec       q    Type
                         _______ _______ _______ _____ _____    ______ ____

>  <TORSDO>
F 6

$$$$
=
 OpenBabel11052419023D

 34 37  0  0  1  0  0  0  0  0999 V2000
  192.6530  169.9630  143.3540 C   0  0  0  0  0  2  0  0  0  0  0  0
  195.3420  172.4140  144.7110 C   0  0  0  0  0  1  0  0  0  0  0  0
  191.1910  178.5290  143.6840 N   0  0  0  0  0  2  0  0  0  0  0  0
  193.6030  172.7300  142.9150 C   0  0  1  0  0  3  0  0  0  0  0  0
  191.3930  173.8560  143.6540 C   0  0  1  0  0  3  0  0  0  0  0  0
  193.5660  175.1250  143.6090 C   0  0  0  0  0  3  0  0  0  0  0  0
  189.7730  177.6830  145.3470 N   0  0  0  0  0  2  0  0  0  0  0  0
  194.4690  171.7050  143.6810 C   0  0  2  0  0  0  0  0  0  0  0  0
  192.9030  176.2590  143.8320 C   0  0  0  0  0  3  0  0  0  0  0  0
  190.8200  174.9950  144.4940 C   0  0  0  0  0  2  0  0  0  0  0  0
  192.6360  172.0400  141.9270 C   0  0  2  0  0  3  0  0  0  0  0  0
  193.5590  170.6620  144.3690 C   0  0  2  0  0  3  0  0  0  0  0  0
  195.3140  171.0670  142.7670 O   0  0  0  0  0  1  0  0  0  0  0  0
  190.9500  173.9790  142.1890 C   0  0  0  0  0  2  0  0  0  0  0  0
  191.7770  173.1060  141.2310 C   0  0  2  0  0  3  0  0  0  0  0  0
  191.5250  176.2590  144.2470 N   0  0  0  0  0  0  0  0  0  0  0  0
  192.9230  173.7850  143.8210 C   0  0  2  0  0  3  0  0  0  0  0  0
  191.7780  170.9810  142.6330 C   0  0  0  0  0  2  0  0  0  0  0  0
  190.8420  177.5150  144.4070 C   0  0  0  0  0  0  0  0  0  0  0  0
  191.3920  172.1690  138.8820 C   0  0  0  0  0  0  0  0  0  0  0  0
  190.3700  171.7040  138.2100 O   0  0  0  0  0  0  0  0  0  0  0  0
  190.9430  172.5470  140.1220 C   0  0  0  0  0  0  0  0  0  0  0  0
  189.3160  171.7710  138.9960 C   0  0  0  0  0  3  0  0  0  0  0  0
  189.6250  172.2880  140.2080 N   0  0  0  0  0  0  0  0  0  0  0  0
  192.7800  172.2810  138.3500 C   0  0  0  0  0  2  0  0  0  0  0  0
  193.5240  170.9810  138.5770 C   0  0  0  0  0  1  0  0  0  0  0  0
  194.3240  169.6400  145.1550 C   0  0  0  0  0  0  0  0  0  0  0  0
  194.5670  169.8250  146.5110 O   0  0  0  0  0  1  0  0  0  0  0  0
  194.7410  168.6000  144.5830 O   0  0  0  0  0  0  0  0  0  0  0  0
  189.4680  176.7580  146.4320 C   0  0  0  0  0  3  0  0  0  0  0  0
  190.3830  177.0080  147.6350 C   0  0  0  0  0  2  0  0  0  0  0  0
  191.1910  175.7750  148.0100 C   0  0  0  0  0  1  0  0  0  0  0  0
  187.9980  176.8700  146.8060 C   0  0  0  0  0  2  0  0  0  0  0  0
  187.1330  176.8480  145.5600 C   0  0  0  0  0  1  0  0  0  0  0  0
  1 12  1  0  0  0  0
  3 19  2  0  0  0  0
  4  8  1  0  0  0  0
  4 17  1  0  0  0  0
  5 17  1  0  0  0  0
  5 10  1  0  0  0  0
  6 17  1  0  0  0  0
  6  9  2  0  0  0  0
  7 30  1  0  0  0  0
  8 12  1  0  0  0  0
  8  2  1  0  0  0  0
  9 16  1  0  0  0  0
 11 18  1  0  0  0  0
 11  4  1  0  0  0  0
 12 27  1  0  0  0  0
 13  8  1  0  0  0  0
 14  5  1  0  0  0  0
 15 11  1  0  0  0  0
 15 14  1  0  0  0  0
 16 19  1  0  0  0  0
 16 10  1  0  0  0  0
 18  1  1  0  0  0  0
 19  7  1  0  0  0  0
 20 22  2  0  0  0  0
 21 20  1  0  0  0  0
 21 23  1  0  0  0  0
 22 24  1  0  0  0  0
 22 15  1  0  0  0  0
 23 24  2  0  0  0  0
 25 26  1  0  0  0  0
 25 20  1  0  0  0  0
 27 28  1  0  0  0  0
 29 27  2  0  0  0  0
 30 33  1  0  0  0  0
 30 31  1  0  0  0  0
 31 32  1  0  0  0  0
 34 33  1  0  0  0  0
M  END
>  <MODEL>
8

>  <REMARK>
 VINA RESULT:      -5.7      3.880      7.556
  Name = 
  6 active torsions:
  status: ('A' for Active; 'I' for Inactive)
    1  A    between atoms: C_6  and  C_24
    2  A    between atoms: C_7  and  C_23
    3  A    between atoms: C_11  and  C_20
    4  A    between atoms: C_12  and  C_28
    5  A    between atoms: N_13  and  C_20
    6  A    between atoms: C_14  and  C_20
                            x       y       z     vdW  Elec       q    Type
                         _______ _______ _______ _____ _____    ______ ____

>  <TORSDO>
F 6

$$$$
=
 OpenBabel11052419023D

 34 37  0  0  1  0  0  0  0  0999 V2000
  190.0000  173.4060  145.2680 C   0  0  0  0  0  2  0  0  0  0  0  0
  191.0730  176.5400  143.2420 C   0  0  0  0  0  1  0  0  0  0  0  0
  193.9850  172.6550  137.5760 N   0  0  0  0  0  2  0  0  0  0  0  0
  192.1370  174.2620  143.4100 C   0  0  1  0  0  3  0  0  0  0  0  0
  191.5170  172.5740  141.5480 C   0  0  1  0  0  3  0  0  0  0  0  0
  192.8900  174.6260  141.0600 C   0  0  0  0  0  3  0  0  0  0  0  0
  191.7990  171.9460  137.1130 N   0  0  0  0  0  2  0  0  0  0  0  0
  191.2340  175.2990  144.1140 C   0  0  2  0  0  0  0  0  0  0  0  0
  193.1370  174.1640  139.8350 C   0  0  0  0  0  3  0  0  0  0  0  0
  191.3100  172.4340  140.0410 C   0  0  0  0  0  2  0  0  0  0  0  0
  192.2470  172.9510  144.2210 C   0  0  2  0  0  3  0  0  0  0  0  0
  189.8550  174.6710  144.4200 C   0  0  2  0  0  3  0  0  0  0  0  0
  191.8530  175.6880  145.3060 O   0  0  0  0  0  1  0  0  0  0  0  0
  192.6000  171.6070  142.0450 C   0  0  0  0  0  2  0  0  0  0  0  0
  193.1190  171.9500  143.4510 C   0  0  2  0  0  3  0  0  0  0  0  0
  192.4030  173.0560  139.2840 N   0  0  0  0  0  0  0  0  0  0  0  0
  191.8020  174.0430  141.9140 C   0  0  2  0  0  3  0  0  0  0  0  0
  190.8610  172.3770  144.5460 C   0  0  0  0  0  2  0  0  0  0  0  0
  192.7620  172.5580  137.9820 C   0  0  0  0  0  0  0  0  0  0  0  0
  194.3500  170.6300  145.2650 C   0  0  0  0  0  0  0  0  0  0  0  0
  194.3130  169.4070  145.7260 O   0  0  0  0  0  0  0  0  0  0  0  0
  193.4360  170.7220  144.2460 C   0  0  0  0  0  0  0  0  0  0  0  0
  193.4020  168.7500  145.0380 C   0  0  0  0  0  3  0  0  0  0  0  0
  192.8210  169.5340  144.1010 N   0  0  0  0  0  0  0  0  0  0  0  0
  195.2590  171.7020  145.7630 C   0  0  0  0  0  2  0  0  0  0  0  0
  196.6890  171.2020  145.7650 C   0  0  0  0  0  1  0  0  0  0  0  0
  188.9080  175.6230  145.0870 C   0  0  0  0  0  0  0  0  0  0  0  0
  188.9730  175.8440  146.4570 O   0  0  0  0  0  1  0  0  0  0  0  0
  188.0530  176.2350  144.3960 O   0  0  0  0  0  0  0  0  0  0  0  0
  190.3540  172.0350  137.2810 C   0  0  0  0  0  3  0  0  0  0  0  0
  189.8080  173.3160  136.6430 C   0  0  0  0  0  2  0  0  0  0  0  0
  188.8750  174.0730  137.5760 C   0  0  0  0  0  1  0  0  0  0  0  0
  189.6910  170.7910  136.7090 C   0  0  0  0  0  2  0  0  0  0  0  0
  189.6920  169.6730  137.7350 C   0  0  0  0  0  1  0  0  0  0  0  0
  2  8  1  0  0  0  0
  3 19  2  0  0  0  0
  4  8  1  0  0  0  0
  4 11  1  0  0  0  0
  5 17  1  0  0  0  0
  5 14  1  0  0  0  0
  6 17  1  0  0  0  0
  7 30  1  0  0  0  0
  7 19  1  0  0  0  0
  8 12  1  0  0  0  0
  8 13  1  0  0  0  0
  9  6  2  0  0  0  0
 10  5  1  0  0  0  0
 11 18  1  0  0  0  0
 12 27  1  0  0  0  0
 12  1  1  0  0  0  0
 14 15  1  0  0  0  0
 15 11  1  0  0  0  0
 15 22  1  0  0  0  0
 16  9  1  0  0  0  0
 16 10  1  0  0  0  0
 17  4  1  0  0  0  0
 18  1  1  0  0  0  0
 19 16  1  0  0  0  0
 20 21  1  0  0  0  0
 20 25  1  0  0  0  0
 22 20  2  0  0  0  0
 23 21  1  0  0  0  0
 24 22  1  0  0  0  0
 24 23  2  0  0  0  0
 25 26  1  0  0  0  0
 27 28  1  0  0  0  0
 29 27  2  0  0  0  0
 31 30  1  0  0  0  0
 31 32  1  0  0  0  0
 33 30  1  0  0  0  0
 33 34  1  0  0  0  0
M  END
>  <MODEL>
9

>  <REMARK>
 VINA RESULT:      -5.4      3.038      6.817
  Name = 
  6 active torsions:
  status: ('A' for Active; 'I' for Inactive)
    1  A    between atoms: C_6  and  C_24
    2  A    between atoms: C_7  and  C_23
    3  A    between atoms: C_11  and  C_20
    4  A    between atoms: C_12  and  C_28
    5  A    between atoms: N_13  and  C_20
    6  A    between atoms: C_14  and  C_20
                            x       y       z     vdW  Elec       q    Type
                         _______ _______ _______ _____ _____    ______ ____

>  <TORSDO>
F 6

$$$$
