=
 OpenBabel11052419173D

 32 36  0  0  1  0  0  0  0  0999 V2000
  191.3770  175.1640  145.8310 C   0  0  0  0  0  0  0  0  0  0  0  0
  192.1670  173.2830  144.3890 C   0  0  2  0  0  3  0  0  0  0  0  0
  191.6210  176.3790  146.6370 C   0  0  0  0  0  3  0  0  0  0  0  0
  192.4090  174.5580  145.1820 C   0  0  0  0  0  0  0  0  0  0  0  0
  192.9670  173.2100  143.2370 O   0  0  0  0  0  0  0  0  0  0  0  0
  189.2550  172.5740  141.1540 C   0  0  0  0  0  3  0  0  0  0  0  0
  190.7220  173.1640  143.9240 C   0  0  2  0  0  3  0  0  0  0  0  0
  191.7160  172.3420  140.8330 C   0  0  0  0  0  2  0  0  0  0  0  0
  191.7750  171.6420  142.2110 C   0  0  1  0  0  3  0  0  0  0  0  0
  193.8110  175.1510  145.2970 C   0  0  1  0  0  3  0  0  0  0  0  0
  192.9850  171.9240  142.8950 O   0  0  0  0  0  0  0  0  0  0  0  0
  194.0180  175.8580  146.6420 C   0  0  0  0  0  2  0  0  0  0  0  0
  189.8030  173.2710  145.1250 C   0  0  0  0  0  2  0  0  0  0  0  0
  189.9420  174.6770  145.7200 C   0  0  2  0  0  3  0  0  0  0  0  0
  190.5440  171.8660  143.1360 C   0  0  2  0  0  3  0  0  0  0  0  0
  192.8550  176.7380  146.9820 C   0  0  0  0  0  3  0  0  0  0  0  0
  190.4990  173.2610  140.6700 C   0  0  0  0  0  2  0  0  0  0  0  0
  189.2770  171.9170  142.3200 C   0  0  0  0  0  3  0  0  0  0  0  0
  186.7010  176.8040  145.0280 C   0  0  1  0  0  3  0  0  0  0  0  0
  187.2860  178.6420  142.0770 F   0  0  0  0  0  0  0  0  0  0  0  0
  185.4500  177.0230  145.8710 C   0  0  0  0  0  1  0  0  0  0  0  0
  188.7120  176.9960  142.8450 C   0  0  0  0  0  3  0  0  0  0  0  0
  189.0390  175.6730  145.0290 C   0  0  0  0  0  0  0  0  0  0  0  0
  187.1740  178.1170  144.4550 C   0  0  0  0  0  2  0  0  0  0  0  0
  189.3580  176.0370  143.7710 C   0  0  0  0  0  3  0  0  0  0  0  0
  187.8470  176.1660  145.7680 C   0  0  0  0  0  0  0  0  0  0  0  0
  187.8520  176.1310  147.1020 C   0  0  0  0  0  2  0  0  0  0  0  0
  187.7550  177.8910  143.1020 C   0  0  0  0  0  0  0  0  0  0  0  0
  194.9090  174.1050  145.1270 C   0  0  0  0  0  2  0  0  0  0  0  0
  197.2750  174.3050  145.3220 O   0  0  0  0  0  1  0  0  0  0  0  0
  196.2630  175.8370  143.9470 O   0  0  0  0  0  0  0  0  0  0  0  0
  196.2130  174.7550  144.8170 C   0  0  0  0  0  0  0  0  0  0  0  0
  1  3  1  0  0  0  0
  2  5  1  6  0  0  0
  2  4  1  0  0  0  0
  3 16  2  0  0  0  0
  4 10  1  0  0  0  0
  4  1  2  0  0  0  0
  6 18  2  0  0  0  0
  7  2  1  0  0  0  0
  7 13  1  1  0  0  0
  9  8  1  6  0  0  0
  9 11  1  0  0  0  0
  9 15  1  0  0  0  0
 10 29  1  1  0  0  0
 10 12  1  0  0  0  0
 11  5  1  0  0  0  0
 12 16  1  0  0  0  0
 13 14  1  0  0  0  0
 14 23  1  6  0  0  0
 14  1  1  0  0  0  0
 15 18  1  6  0  0  0
 15  7  1  0  0  0  0
 17  8  1  0  0  0  0
 17  6  1  0  0  0  0
 19 26  1  0  0  0  0
 19 21  1  1  0  0  0
 20 28  1  0  0  0  0
 22 28  2  0  0  0  0
 22 25  1  0  0  0  0
 23 26  1  0  0  0  0
 24 19  1  0  0  0  0
 25 23  2  0  0  0  0
 26 27  2  0  0  0  0
 28 24  1  0  0  0  0
 31 32  2  0  0  0  0
 32 29  1  0  0  0  0
 32 30  1  0  0  0  0
M  END
>  <MODEL>
1

>  <REMARK>
 VINA RESULT:      -8.3      0.000      0.000
  Name = 
  3 active torsions:
  status: ('A' for Active; 'I' for Inactive)
    1  A    between atoms: C_14  and  C_18
    2  A    between atoms: C_16  and  C_27
    3  A    between atoms: C_18  and  C_29
                            x       y       z     vdW  Elec       q    Type
                         _______ _______ _______ _____ _____    ______ ____

>  <TORSDO>
F 3

$$$$
=
 OpenBabel11052419173D

 32 36  0  0  1  0  0  0  0  0999 V2000
  189.3140  175.0020  142.1560 C   0  0  0  0  0  0  0  0  0  0  0  0
  191.6830  174.5160  142.7840 C   0  0  2  0  0  3  0  0  0  0  0  0
  188.0090  174.6040  141.5870 C   0  0  0  0  0  3  0  0  0  0  0  0
  190.3260  174.0960  142.2390 C   0  0  0  0  0  0  0  0  0  0  0  0
  192.3040  173.4930  143.5180 O   0  0  0  0  0  0  0  0  0  0  0  0
  192.6170  176.4390  146.6410 C   0  0  0  0  0  3  0  0  0  0  0  0
  191.5790  175.7180  143.7120 C   0  0  2  0  0  3  0  0  0  0  0  0
  193.5370  174.2190  145.9790 C   0  0  0  0  0  2  0  0  0  0  0  0
  193.7670  174.7970  144.5630 C   0  0  1  0  0  3  0  0  0  0  0  0
  190.0920  172.6710  141.7420 C   0  0  1  0  0  3  0  0  0  0  0  0
  193.5950  173.8130  143.5560 O   0  0  0  0  0  0  0  0  0  0  0  0
  189.0770  172.6320  140.5930 C   0  0  0  0  0  2  0  0  0  0  0  0
  190.8820  176.8500  142.9830 C   0  0  0  0  0  2  0  0  0  0  0  0
  189.4420  176.4220  142.6830 C   0  0  2  0  0  3  0  0  0  0  0  0
  192.9710  176.0900  144.2230 C   0  0  2  0  0  3  0  0  0  0  0  0
  187.8770  173.4750  140.8940 C   0  0  0  0  0  3  0  0  0  0  0  0
  192.4430  174.9530  146.7640 C   0  0  0  0  0  2  0  0  0  0  0  0
  192.8640  176.9750  145.4390 C   0  0  0  0  0  3  0  0  0  0  0  0
  186.7390  178.3100  144.8360 C   0  0  1  0  0  3  0  0  0  0  0  0
  186.4060  176.5330  147.8630 F   0  0  0  0  0  0  0  0  0  0  0  0
  185.8180  179.4740  144.4880 C   0  0  0  0  0  1  0  0  0  0  0  0
  188.0450  176.0760  146.3010 C   0  0  0  0  0  3  0  0  0  0  0  0
  188.5170  176.6970  143.8480 C   0  0  0  0  0  0  0  0  0  0  0  0
  185.9670  177.2430  145.5720 C   0  0  0  0  0  2  0  0  0  0  0  0
  188.7640  176.0530  145.0060 C   0  0  0  0  0  3  0  0  0  0  0  0
  187.4170  177.6760  143.6510 C   0  0  0  0  0  0  0  0  0  0  0  0
  186.9670  177.9050  142.4160 C   0  0  0  0  0  2  0  0  0  0  0  0
  186.8490  176.5970  146.5850 C   0  0  0  0  0  0  0  0  0  0  0  0
  191.3760  171.9900  141.2760 C   0  0  0  0  0  2  0  0  0  0  0  0
  190.6830  169.7850  141.8520 O   0  0  0  0  0  1  0  0  0  0  0  0
  191.3630  170.0730  139.6800 O   0  0  0  0  0  0  0  0  0  0  0  0
  191.1290  170.5560  140.9620 C   0  0  0  0  0  0  0  0  0  0  0  0
  1  4  2  0  0  0  0
  1 14  1  0  0  0  0
  2  4  1  1  0  0  0
  2  5  1  0  0  0  0
  2  7  1  0  0  0  0
  3  1  1  0  0  0  0
  5 11  1  0  0  0  0
  6 17  1  0  0  0  0
  7 13  1  6  0  0  0
  7 15  1  0  0  0  0
  8 17  1  0  0  0  0
  9  8  1  1  0  0  0
 10 29  1  6  0  0  0
 10  4  1  0  0  0  0
 11  9  1  0  0  0  0
 12 16  1  0  0  0  0
 12 10  1  0  0  0  0
 14 13  1  0  0  0  0
 14 23  1  1  0  0  0
 15  9  1  0  0  0  0
 15 18  1  1  0  0  0
 16  3  2  0  0  0  0
 18  6  2  0  0  0  0
 19 21  1  6  0  0  0
 19 24  1  0  0  0  0
 22 28  2  0  0  0  0
 23 25  2  0  0  0  0
 24 28  1  0  0  0  0
 25 22  1  0  0  0  0
 26 23  1  0  0  0  0
 26 19  1  0  0  0  0
 27 26  2  0  0  0  0
 28 20  1  0  0  0  0
 31 32  2  0  0  0  0
 32 29  1  0  0  0  0
 32 30  1  0  0  0  0
M  END
>  <MODEL>
2

>  <REMARK>
 VINA RESULT:      -8.2      1.950      5.251
  Name = 
  3 active torsions:
  status: ('A' for Active; 'I' for Inactive)
    1  A    between atoms: C_14  and  C_18
    2  A    between atoms: C_16  and  C_27
    3  A    between atoms: C_18  and  C_29
                            x       y       z     vdW  Elec       q    Type
                         _______ _______ _______ _____ _____    ______ ____

>  <TORSDO>
F 3

$$$$
=
 OpenBabel11052419173D

 32 36  0  0  1  0  0  0  0  0999 V2000
  190.1630  173.5680  142.7390 C   0  0  0  0  0  0  0  0  0  0  0  0
  188.7540  175.0010  144.2230 C   0  0  2  0  0  3  0  0  0  0  0  0
  190.6590  173.1650  141.4070 C   0  0  0  0  0  3  0  0  0  0  0  0
  189.3000  174.6140  142.8580 C   0  0  0  0  0  0  0  0  0  0  0  0
  188.5800  176.3890  144.3550 O   0  0  0  0  0  0  0  0  0  0  0  0
  190.9910  175.9780  147.8960 C   0  0  0  0  0  3  0  0  0  0  0  0
  189.6790  174.5690  145.3530 C   0  0  2  0  0  3  0  0  0  0  0  0
  189.4430  177.5860  146.7890 C   0  0  0  0  0  2  0  0  0  0  0  0
  188.4620  176.4100  146.5730 C   0  0  1  0  0  3  0  0  0  0  0  0
  188.8580  175.3600  141.6010 C   0  0  1  0  0  3  0  0  0  0  0  0
  187.7300  176.5480  145.3660 O   0  0  0  0  0  0  0  0  0  0  0  0
  188.8350  174.4390  140.3750 C   0  0  0  0  0  2  0  0  0  0  0  0
  189.9350  173.0790  145.2430 C   0  0  0  0  0  2  0  0  0  0  0  0
  190.7000  172.8110  143.9430 C   0  0  2  0  0  3  0  0  0  0  0  0
  189.0770  174.9860  146.6950 C   0  0  2  0  0  3  0  0  0  0  0  0
  190.0740  173.6030  140.2940 C   0  0  0  0  0  3  0  0  0  0  0  0
  190.9010  177.1390  146.9500 C   0  0  0  0  0  2  0  0  0  0  0  0
  190.1300  174.9600  147.7730 C   0  0  0  0  0  3  0  0  0  0  0  0
  194.3720  171.9250  145.0560 C   0  0  1  0  0  3  0  0  0  0  0  0
  196.3980  174.6860  144.2170 F   0  0  0  0  0  0  0  0  0  0  0  0
  194.9710  170.6270  145.5860 C   0  0  0  0  0  1  0  0  0  0  0  0
  194.0930  174.7170  144.0680 C   0  0  0  0  0  3  0  0  0  0  0  0
  192.1920  172.9820  144.1210 C   0  0  0  0  0  0  0  0  0  0  0  0
  195.2840  172.5270  144.0150 C   0  0  0  0  0  2  0  0  0  0  0  0
  192.6990  174.2230  143.9860 C   0  0  0  0  0  3  0  0  0  0  0  0
  192.9980  171.7790  144.4590 C   0  0  0  0  0  0  0  0  0  0  0  0
  192.5320  170.5730  144.1280 C   0  0  0  0  0  2  0  0  0  0  0  0
  195.2280  174.0140  144.1020 C   0  0  0  0  0  0  0  0  0  0  0  0
  187.4830  176.0030  141.7490 C   0  0  0  0  0  2  0  0  0  0  0  0
  186.5260  177.8170  140.5370 O   0  0  0  0  0  0  0  0  0  0  0  0
  188.5520  178.2450  141.5210 O   0  0  0  0  0  1  0  0  0  0  0  0
  187.4920  177.3970  141.2250 C   0  0  0  0  0  0  0  0  0  0  0  0
  1  4  2  0  0  0  0
  1 14  1  0  0  0  0
  2  4  1  6  0  0  0
  2  5  1  0  0  0  0
  2  7  1  0  0  0  0
  3  1  1  0  0  0  0
  5 11  1  0  0  0  0
  7 13  1  1  0  0  0
  7 15  1  0  0  0  0
  8 17  1  0  0  0  0
  9 15  1  0  0  0  0
  9  8  1  6  0  0  0
 10 29  1  1  0  0  0
 10  4  1  0  0  0  0
 11  9  1  0  0  0  0
 12 10  1  0  0  0  0
 14 23  1  1  0  0  0
 14 13  1  0  0  0  0
 15 18  1  1  0  0  0
 16 12  1  0  0  0  0
 16  3  2  0  0  0  0
 17  6  1  0  0  0  0
 18  6  2  0  0  0  0
 19 21  1  6  0  0  0
 22 28  2  0  0  0  0
 23 26  1  0  0  0  0
 24 28  1  0  0  0  0
 24 19  1  0  0  0  0
 25 22  1  0  0  0  0
 25 23  2  0  0  0  0
 26 19  1  0  0  0  0
 27 26  2  0  0  0  0
 28 20  1  0  0  0  0
 30 32  2  0  0  0  0
 32 31  1  0  0  0  0
 32 29  1  0  0  0  0
M  END
>  <MODEL>
3

>  <REMARK>
 VINA RESULT:      -7.4      3.494      7.290
  Name = 
  3 active torsions:
  status: ('A' for Active; 'I' for Inactive)
    1  A    between atoms: C_14  and  C_18
    2  A    between atoms: C_16  and  C_27
    3  A    between atoms: C_18  and  C_29
                            x       y       z     vdW  Elec       q    Type
                         _______ _______ _______ _____ _____    ______ ____

>  <TORSDO>
F 3

$$$$
=
 OpenBabel11052419173D

 32 36  0  0  1  0  0  0  0  0999 V2000
  190.4420  175.8580  143.5680 C   0  0  0  0  0  0  0  0  0  0  0  0
  191.2860  174.0970  142.0090 C   0  0  2  0  0  3  0  0  0  0  0  0
  190.6340  177.0730  144.3870 C   0  0  0  0  0  3  0  0  0  0  0  0
  191.4690  175.3720  142.8180 C   0  0  0  0  0  0  0  0  0  0  0  0
  191.9880  174.1290  140.7930 O   0  0  0  0  0  0  0  0  0  0  0  0
  188.1910  173.1700  139.0070 C   0  0  0  0  0  3  0  0  0  0  0  0
  189.8250  173.8440  141.6630 C   0  0  2  0  0  3  0  0  0  0  0  0
  190.6260  173.1920  138.4760 C   0  0  0  0  0  2  0  0  0  0  0  0
  190.8710  172.4730  139.8240 C   0  0  1  0  0  3  0  0  0  0  0  0
  192.8120  176.0990  142.8330 C   0  0  1  0  0  3  0  0  0  0  0  0
  192.1020  172.8590  140.4120 O   0  0  0  0  0  0  0  0  0  0  0  0
  193.0620  176.7950  144.1770 C   0  0  0  0  0  2  0  0  0  0  0  0
  189.0060  173.8320  142.9390 C   0  0  0  0  0  2  0  0  0  0  0  0
  189.0580  175.2310  143.5620 C   0  0  2  0  0  3  0  0  0  0  0  0
  189.7080  172.5520  140.8540 C   0  0  2  0  0  3  0  0  0  0  0  0
  191.8530  177.5460  144.6390 C   0  0  0  0  0  3  0  0  0  0  0  0
  189.3160  173.9880  138.4430 C   0  0  0  0  0  2  0  0  0  0  0  0
  188.3780  172.4940  140.1480 C   0  0  0  0  0  3  0  0  0  0  0  0
  185.7750  177.4020  143.4200 C   0  0  1  0  0  3  0  0  0  0  0  0
  185.5160  178.6650  140.1380 F   0  0  0  0  0  0  0  0  0  0  0  0
  184.8160  177.8390  144.5210 C   0  0  0  0  0  1  0  0  0  0  0  0
  187.0850  177.0910  140.7680 C   0  0  0  0  0  3  0  0  0  0  0  0
  188.0050  176.1470  142.9790 C   0  0  0  0  0  0  0  0  0  0  0  0
  186.0790  178.5650  142.5090 C   0  0  0  0  0  2  0  0  0  0  0  0
  187.9580  176.2690  141.6370 C   0  0  0  0  0  3  0  0  0  0  0  0
  187.0770  176.8320  143.9160 C   0  0  0  0  0  0  0  0  0  0  0  0
  187.4600  177.0280  145.1790 C   0  0  0  0  0  2  0  0  0  0  0  0
  186.2490  178.0740  141.1120 C   0  0  0  0  0  0  0  0  0  0  0  0
  193.9880  175.1730  142.5410 C   0  0  0  0  0  2  0  0  0  0  0  0
  194.9920  176.0380  140.5620 O   0  0  0  0  0  0  0  0  0  0  0  0
  196.1300  176.4510  142.5090 O   0  0  0  0  0  1  0  0  0  0  0  0
  195.0640  175.9000  141.8110 C   0  0  0  0  0  0  0  0  0  0  0  0
  1  3  1  0  0  0  0
  2  5  1  6  0  0  0
  2  4  1  0  0  0  0
  3 16  2  0  0  0  0
  4 10  1  0  0  0  0
  4  1  2  0  0  0  0
  6 18  2  0  0  0  0
  7  2  1  0  0  0  0
  7 13  1  1  0  0  0
  9  8  1  6  0  0  0
  9 11  1  0  0  0  0
  9 15  1  0  0  0  0
 10 29  1  1  0  0  0
 10 12  1  0  0  0  0
 11  5  1  0  0  0  0
 12 16  1  0  0  0  0
 13 14  1  0  0  0  0
 14 23  1  6  0  0  0
 14  1  1  0  0  0  0
 15 18  1  6  0  0  0
 15  7  1  0  0  0  0
 17  8  1  0  0  0  0
 17  6  1  0  0  0  0
 19 26  1  0  0  0  0
 19 21  1  1  0  0  0
 20 28  1  0  0  0  0
 22 28  2  0  0  0  0
 22 25  1  0  0  0  0
 23 26  1  0  0  0  0
 24 19  1  0  0  0  0
 25 23  2  0  0  0  0
 26 27  2  0  0  0  0
 28 24  1  0  0  0  0
 30 32  2  0  0  0  0
 32 31  1  0  0  0  0
 32 29  1  0  0  0  0
M  END
>  <MODEL>
4

>  <REMARK>
 VINA RESULT:      -7.2      2.199      2.683
  Name = 
  3 active torsions:
  status: ('A' for Active; 'I' for Inactive)
    1  A    between atoms: C_14  and  C_18
    2  A    between atoms: C_16  and  C_27
    3  A    between atoms: C_18  and  C_29
                            x       y       z     vdW  Elec       q    Type
                         _______ _______ _______ _____ _____    ______ ____

>  <TORSDO>
F 3

$$$$
=
 OpenBabel11052419173D

 32 36  0  0  1  0  0  0  0  0999 V2000
  192.0340  175.9630  145.5720 C   0  0  0  0  0  0  0  0  0  0  0  0
  190.2640  175.1030  144.0330 C   0  0  2  0  0  3  0  0  0  0  0  0
  192.4950  176.4220  146.8990 C   0  0  0  0  0  3  0  0  0  0  0  0
  190.7520  175.5350  145.4070 C   0  0  0  0  0  0  0  0  0  0  0  0
  189.3480  174.0410  144.1000 O   0  0  0  0  0  0  0  0  0  0  0  0
  191.9930  172.0790  141.3290 C   0  0  0  0  0  3  0  0  0  0  0  0
  191.4050  174.6390  143.1390 C   0  0  2  0  0  3  0  0  0  0  0  0
  189.6780  171.9150  142.2360 C   0  0  0  0  0  2  0  0  0  0  0  0
  189.5250  173.4320  141.9720 C   0  0  1  0  0  3  0  0  0  0  0  0
  189.8070  175.5340  146.6060 C   0  0  1  0  0  3  0  0  0  0  0  0
  188.6970  174.0550  142.9400 O   0  0  0  0  0  0  0  0  0  0  0  0
  190.1560  176.6470  147.6020 C   0  0  0  0  0  2  0  0  0  0  0  0
  192.4480  175.7360  143.0550 C   0  0  0  0  0  2  0  0  0  0  0  0
  193.0560  175.9380  144.4480 C   0  0  2  0  0  3  0  0  0  0  0  0
  190.8510  174.2210  141.7770 C   0  0  2  0  0  3  0  0  0  0  0  0
  191.6280  176.7010  147.8700 C   0  0  0  0  0  3  0  0  0  0  0  0
  191.1360  171.4720  142.4010 C   0  0  0  0  0  2  0  0  0  0  0  0
  191.8590  173.3790  141.0370 C   0  0  0  0  0  3  0  0  0  0  0  0
  196.6600  174.3770  144.1740 C   0  0  1  0  0  3  0  0  0  0  0  0
  196.6580  171.4330  146.1140 F   0  0  0  0  0  0  0  0  0  0  0  0
  197.9390  174.9170  143.5450 C   0  0  0  0  0  1  0  0  0  0  0  0
  194.7470  172.6450  145.6530 C   0  0  0  0  0  3  0  0  0  0  0  0
  194.1920  174.9760  144.7120 C   0  0  0  0  0  0  0  0  0  0  0  0
  196.9640  173.7790  145.5260 C   0  0  0  0  0  2  0  0  0  0  0  0
  193.8840  173.7790  145.2510 C   0  0  0  0  0  3  0  0  0  0  0  0
  195.5670  175.3980  144.3390 C   0  0  0  0  0  0  0  0  0  0  0  0
  195.8440  176.7010  144.2560 C   0  0  0  0  0  2  0  0  0  0  0  0
  196.0770  172.6050  145.7630 C   0  0  0  0  0  0  0  0  0  0  0  0
  188.3430  175.6860  146.2050 C   0  0  0  0  0  2  0  0  0  0  0  0
  188.2850  177.7890  145.0870 O   0  0  0  0  0  0  0  0  0  0  0  0
  187.2440  177.7260  147.1290 O   0  0  0  0  0  1  0  0  0  0  0  0
  187.9690  177.1250  146.1080 C   0  0  0  0  0  0  0  0  0  0  0  0
  1  3  1  0  0  0  0
  2  5  1  1  0  0  0
  2  4  1  0  0  0  0
  3 16  2  0  0  0  0
  4  1  2  0  0  0  0
  4 10  1  0  0  0  0
  6 17  1  0  0  0  0
  7 13  1  6  0  0  0
  7  2  1  0  0  0  0
  8 17  1  0  0  0  0
  9  8  1  1  0  0  0
  9 11  1  0  0  0  0
 10 29  1  6  0  0  0
 10 12  1  0  0  0  0
 11  5  1  0  0  0  0
 12 16  1  0  0  0  0
 13 14  1  0  0  0  0
 14 23  1  1  0  0  0
 14  1  1  0  0  0  0
 15 18  1  1  0  0  0
 15  9  1  0  0  0  0
 15  7  1  0  0  0  0
 18  6  2  0  0  0  0
 19 21  1  1  0  0  0
 19 26  1  0  0  0  0
 19 24  1  0  0  0  0
 22 28  2  0  0  0  0
 23 25  2  0  0  0  0
 24 28  1  0  0  0  0
 25 22  1  0  0  0  0
 26 23  1  0  0  0  0
 27 26  2  0  0  0  0
 28 20  1  0  0  0  0
 30 32  2  0  0  0  0
 32 29  1  0  0  0  0
 32 31  1  0  0  0  0
M  END
>  <MODEL>
5

>  <REMARK>
 VINA RESULT:      -7.2      3.399      6.562
  Name = 
  3 active torsions:
  status: ('A' for Active; 'I' for Inactive)
    1  A    between atoms: C_14  and  C_18
    2  A    between atoms: C_16  and  C_27
    3  A    between atoms: C_18  and  C_29
                            x       y       z     vdW  Elec       q    Type
                         _______ _______ _______ _____ _____    ______ ____

>  <TORSDO>
F 3

$$$$
=
 OpenBabel11052419173D

 32 36  0  0  1  0  0  0  0  0999 V2000
  191.1560  176.3310  145.2650 C   0  0  0  0  0  0  0  0  0  0  0  0
  189.3010  175.8930  143.6500 C   0  0  2  0  0  3  0  0  0  0  0  0
  191.6550  176.6880  146.6090 C   0  0  0  0  0  3  0  0  0  0  0  0
  189.8170  176.2180  145.0430 C   0  0  0  0  0  0  0  0  0  0  0  0
  188.1560  175.0800  143.6800 O   0  0  0  0  0  0  0  0  0  0  0  0
  190.3750  172.5020  141.0430 C   0  0  0  0  0  3  0  0  0  0  0  0
  190.3360  175.1560  142.8120 C   0  0  2  0  0  3  0  0  0  0  0  0
  188.0500  172.9080  141.8440 C   0  0  0  0  0  2  0  0  0  0  0  0
  188.2750  174.4130  141.5650 C   0  0  1  0  0  3  0  0  0  0  0  0
  188.8480  176.4600  146.1970 C   0  0  1  0  0  3  0  0  0  0  0  0
  187.5780  175.2310  142.4910 O   0  0  0  0  0  0  0  0  0  0  0  0
  189.4090  177.4740  147.2030 C   0  0  0  0  0  2  0  0  0  0  0  0
  191.6140  175.9720  142.7700 C   0  0  0  0  0  2  0  0  0  0  0  0
  192.1900  176.0460  144.1890 C   0  0  2  0  0  3  0  0  0  0  0  0
  189.7580  174.8610  141.4280 C   0  0  2  0  0  3  0  0  0  0  0  0
  190.8380  177.1800  147.5380 C   0  0  0  0  0  3  0  0  0  0  0  0
  189.3520  172.1330  142.0770 C   0  0  0  0  0  2  0  0  0  0  0  0
  190.5680  173.7920  140.7390 C   0  0  0  0  0  3  0  0  0  0  0  0
  195.4710  173.9080  144.5990 C   0  0  1  0  0  3  0  0  0  0  0  0
  194.4750  170.6670  145.5660 F   0  0  0  0  0  0  0  0  0  0  0  0
  196.9400  174.3120  144.5570 C   0  0  0  0  0  1  0  0  0  0  0  0
  192.9860  172.3010  144.9000 C   0  0  0  0  0  3  0  0  0  0  0  0
  193.0520  174.8450  144.5100 C   0  0  0  0  0  0  0  0  0  0  0  0
  195.2250  172.9780  145.7620 C   0  0  0  0  0  2  0  0  0  0  0  0
  192.4460  173.6440  144.5820 C   0  0  0  0  0  3  0  0  0  0  0  0
  194.5100  175.0620  144.6990 C   0  0  0  0  0  0  0  0  0  0  0  0
  194.9440  176.2700  145.0630 C   0  0  0  0  0  2  0  0  0  0  0  0
  194.1850  171.9780  145.3900 C   0  0  0  0  0  0  0  0  0  0  0  0
  187.4820  176.9500  145.7280 C   0  0  0  0  0  2  0  0  0  0  0  0
  186.3140  176.4170  147.7340 O   0  0  0  0  0  1  0  0  0  0  0  0
  186.1710  178.6040  147.0580 O   0  0  0  0  0  0  0  0  0  0  0  0
  186.6180  177.2990  146.8890 C   0  0  0  0  0  0  0  0  0  0  0  0
  1  3  1  0  0  0  0
  2  5  1  1  0  0  0
  2  4  1  0  0  0  0
  3 16  2  0  0  0  0
  4  1  2  0  0  0  0
  4 10  1  0  0  0  0
  6 17  1  0  0  0  0
  7 13  1  6  0  0  0
  7  2  1  0  0  0  0
  8 17  1  0  0  0  0
  9  8  1  1  0  0  0
  9 11  1  0  0  0  0
 10 29  1  6  0  0  0
 10 12  1  0  0  0  0
 11  5  1  0  0  0  0
 12 16  1  0  0  0  0
 13 14  1  0  0  0  0
 14 23  1  1  0  0  0
 14  1  1  0  0  0  0
 15 18  1  1  0  0  0
 15  9  1  0  0  0  0
 15  7  1  0  0  0  0
 18  6  2  0  0  0  0
 19 21  1  1  0  0  0
 19 26  1  0  0  0  0
 19 24  1  0  0  0  0
 22 28  2  0  0  0  0
 23 25  2  0  0  0  0
 23 26  1  0  0  0  0
 25 22  1  0  0  0  0
 26 27  2  0  0  0  0
 28 20  1  0  0  0  0
 28 24  1  0  0  0  0
 29 32  1  0  0  0  0
 32 31  2  0  0  0  0
 32 30  1  0  0  0  0
M  END
>  <MODEL>
6

>  <REMARK>
 VINA RESULT:      -7.1      3.555      6.532
  Name = 
  3 active torsions:
  status: ('A' for Active; 'I' for Inactive)
    1  A    between atoms: C_14  and  C_18
    2  A    between atoms: C_16  and  C_27
    3  A    between atoms: C_18  and  C_29
                            x       y       z     vdW  Elec       q    Type
                         _______ _______ _______ _____ _____    ______ ____

>  <TORSDO>
F 3

$$$$
=
 OpenBabel11052419173D

 32 36  0  0  1  0  0  0  0  0999 V2000
  190.5380  175.2650  142.1200 C   0  0  0  0  0  0  0  0  0  0  0  0
  193.0250  175.0300  142.1170 C   0  0  2  0  0  3  0  0  0  0  0  0
  189.1900  174.8460  141.6830 C   0  0  0  0  0  3  0  0  0  0  0  0
  191.6350  174.5730  141.7040 C   0  0  0  0  0  0  0  0  0  0  0  0
  193.9010  173.9520  142.3280 O   0  0  0  0  0  0  0  0  0  0  0  0
  194.5850  175.7510  146.1780 C   0  0  0  0  0  3  0  0  0  0  0  0
  193.0040  175.8340  143.4100 C   0  0  2  0  0  3  0  0  0  0  0  0
  195.5670  174.0590  144.6340 C   0  0  0  0  0  2  0  0  0  0  0  0
  195.4120  175.0910  143.4920 C   0  0  1  0  0  3  0  0  0  0  0  0
  191.4500  173.3650  140.7890 C   0  0  1  0  0  3  0  0  0  0  0  0
  195.1260  174.4670  142.2510 O   0  0  0  0  0  0  0  0  0  0  0  0
  190.2140  173.5170  139.8940 C   0  0  0  0  0  2  0  0  0  0  0  0
  192.0440  176.9980  143.2550 C   0  0  0  0  0  2  0  0  0  0  0  0
  190.6270  176.4400  143.0790 C   0  0  2  0  0  3  0  0  0  0  0  0
  194.4270  176.2630  143.7690 C   0  0  2  0  0  3  0  0  0  0  0  0
  189.0280  173.9930  140.6740 C   0  0  0  0  0  3  0  0  0  0  0  0
  194.6040  174.2980  145.8030 C   0  0  0  0  0  2  0  0  0  0  0  0
  194.4990  176.6780  145.2160 C   0  0  0  0  0  3  0  0  0  0  0  0
  188.4430  177.1130  146.2860 C   0  0  1  0  0  3  0  0  0  0  0  0
  188.7080  174.2550  148.3320 F   0  0  0  0  0  0  0  0  0  0  0  0
  187.4860  178.2510  146.6230 C   0  0  0  0  0  1  0  0  0  0  0  0
  189.9900  174.5780  146.4390 C   0  0  0  0  0  3  0  0  0  0  0  0
  189.9630  176.1600  144.4080 C   0  0  0  0  0  0  0  0  0  0  0  0
  187.8220  175.7890  146.6580 C   0  0  0  0  0  2  0  0  0  0  0  0
  190.4300  175.1260  145.1350 C   0  0  0  0  0  3  0  0  0  0  0  0
  188.8580  177.0560  144.8400 C   0  0  0  0  0  0  0  0  0  0  0  0
  188.1700  177.7280  143.9140 C   0  0  0  0  0  2  0  0  0  0  0  0
  188.8830  174.8570  147.1320 C   0  0  0  0  0  0  0  0  0  0  0  0
  192.6620  173.1070  139.9000 C   0  0  0  0  0  2  0  0  0  0  0  0
  192.7230  170.8880  140.7640 O   0  0  0  0  0  1  0  0  0  0  0  0
  193.3790  171.1170  138.5780 O   0  0  0  0  0  0  0  0  0  0  0  0
  192.9300  171.6470  139.7810 C   0  0  0  0  0  0  0  0  0  0  0  0
  1 14  1  0  0  0  0
  2  4  1  1  0  0  0
  2  5  1  0  0  0  0
  2  7  1  0  0  0  0
  3  1  1  0  0  0  0
  4  1  2  0  0  0  0
  7 13  1  6  0  0  0
  7 15  1  0  0  0  0
  8 17  1  0  0  0  0
  9 15  1  0  0  0  0
  9  8  1  1  0  0  0
 10 29  1  6  0  0  0
 10  4  1  0  0  0  0
 11  5  1  0  0  0  0
 11  9  1  0  0  0  0
 12 16  1  0  0  0  0
 12 10  1  0  0  0  0
 14 13  1  0  0  0  0
 14 23  1  1  0  0  0
 15 18  1  1  0  0  0
 16  3  2  0  0  0  0
 17  6  1  0  0  0  0
 18  6  2  0  0  0  0
 19 21  1  6  0  0  0
 19 24  1  0  0  0  0
 22 28  2  0  0  0  0
 23 26  1  0  0  0  0
 23 25  2  0  0  0  0
 24 28  1  0  0  0  0
 25 22  1  0  0  0  0
 26 19  1  0  0  0  0
 27 26  2  0  0  0  0
 28 20  1  0  0  0  0
 31 32  2  0  0  0  0
 32 29  1  0  0  0  0
 32 30  1  0  0  0  0
M  END
>  <MODEL>
7

>  <REMARK>
 VINA RESULT:      -7.1      2.284      5.264
  Name = 
  3 active torsions:
  status: ('A' for Active; 'I' for Inactive)
    1  A    between atoms: C_14  and  C_18
    2  A    between atoms: C_16  and  C_27
    3  A    between atoms: C_18  and  C_29
                            x       y       z     vdW  Elec       q    Type
                         _______ _______ _______ _____ _____    ______ ____

>  <TORSDO>
F 3

$$$$
=
 OpenBabel11052419173D

 32 36  0  0  1  0  0  0  0  0999 V2000
  189.5190  174.7770  143.4640 C   0  0  0  0  0  0  0  0  0  0  0  0
  190.7130  175.5900  145.5030 C   0  0  2  0  0  3  0  0  0  0  0  0
  188.4800  174.9130  142.4220 C   0  0  0  0  0  3  0  0  0  0  0  0
  189.6730  175.7500  144.4040 C   0  0  0  0  0  0  0  0  0  0  0  0
  191.3040  176.8130  145.8610 O   0  0  0  0  0  0  0  0  0  0  0  0
  195.0330  174.8010  145.1030 C   0  0  0  0  0  3  0  0  0  0  0  0
  191.8460  174.6630  145.0880 C   0  0  2  0  0  3  0  0  0  0  0  0
  194.1290  176.8410  146.2130 C   0  0  0  0  0  2  0  0  0  0  0  0
  193.0680  175.9380  146.8870 C   0  0  1  0  0  3  0  0  0  0  0  0
  188.7650  176.9770  144.3610 C   0  0  1  0  0  3  0  0  0  0  0  0
  191.8350  176.6140  147.0650 O   0  0  0  0  0  0  0  0  0  0  0  0
  187.3870  176.6400  143.7780 C   0  0  0  0  0  2  0  0  0  0  0  0
  191.2650  173.3300  144.6560 C   0  0  0  0  0  2  0  0  0  0  0  0
  190.4190  173.5550  143.3970 C   0  0  2  0  0  3  0  0  0  0  0  0
  192.8530  174.5430  146.2320 C   0  0  2  0  0  3  0  0  0  0  0  0
  187.5050  175.8120  142.5360 C   0  0  0  0  0  3  0  0  0  0  0  0
  194.6920  176.2500  144.9150 C   0  0  0  0  0  2  0  0  0  0  0  0
  194.1620  173.9950  145.7240 C   0  0  0  0  0  3  0  0  0  0  0  0
  192.0600  172.0630  140.1430 C   0  0  1  0  0  3  0  0  0  0  0  0
  194.1650  174.5600  138.8130 F   0  0  0  0  0  0  0  0  0  0  0  0
  191.7960  170.7610  139.3960 C   0  0  0  0  0  1  0  0  0  0  0  0
  193.1410  174.7360  140.8760 C   0  0  0  0  0  3  0  0  0  0  0  0
  191.2590  173.5170  142.1400 C   0  0  0  0  0  0  0  0  0  0  0  0
  192.1680  173.2060  139.1640 C   0  0  0  0  0  2  0  0  0  0  0  0
  192.1930  174.4760  141.9830 C   0  0  0  0  0  3  0  0  0  0  0  0
  191.0200  172.4140  141.1730 C   0  0  0  0  0  0  0  0  0  0  0  0
  189.8300  171.8090  141.1610 C   0  0  0  0  0  2  0  0  0  0  0  0
  193.1710  174.1920  139.6560 C   0  0  0  0  0  0  0  0  0  0  0  0
  188.5670  177.6130  145.7330 C   0  0  0  0  0  2  0  0  0  0  0  0
  187.6570  175.8690  147.0770 O   0  0  0  0  0  1  0  0  0  0  0  0
  186.1950  177.5410  146.5030 O   0  0  0  0  0  0  0  0  0  0  0  0
  187.4530  176.9510  146.4670 C   0  0  0  0  0  0  0  0  0  0  0  0
  1  4  2  0  0  0  0
  2  4  1  6  0  0  0
  2  5  1  0  0  0  0
  3 16  2  0  0  0  0
  3  1  1  0  0  0  0
  5 11  1  0  0  0  0
  6 18  2  0  0  0  0
  7 13  1  1  0  0  0
  7  2  1  0  0  0  0
  7 15  1  0  0  0  0
  9  8  1  6  0  0  0
  9 11  1  0  0  0  0
 10  4  1  0  0  0  0
 10 29  1  1  0  0  0
 12 10  1  0  0  0  0
 14 23  1  6  0  0  0
 14  1  1  0  0  0  0
 14 13  1  0  0  0  0
 15 18  1  6  0  0  0
 15  9  1  0  0  0  0
 16 12  1  0  0  0  0
 17  6  1  0  0  0  0
 17  8  1  0  0  0  0
 19 21  1  6  0  0  0
 19 26  1  0  0  0  0
 20 28  1  0  0  0  0
 22 25  1  0  0  0  0
 24 28  1  0  0  0  0
 24 19  1  0  0  0  0
 25 23  2  0  0  0  0
 26 23  1  0  0  0  0
 27 26  2  0  0  0  0
 28 22  2  0  0  0  0
 29 32  1  0  0  0  0
 32 31  2  0  0  0  0
 32 30  1  0  0  0  0
M  END
>  <MODEL>
8

>  <REMARK>
 VINA RESULT:      -7.0      3.112      6.699
  Name = 
  3 active torsions:
  status: ('A' for Active; 'I' for Inactive)
    1  A    between atoms: C_14  and  C_18
    2  A    between atoms: C_16  and  C_27
    3  A    between atoms: C_18  and  C_29
                            x       y       z     vdW  Elec       q    Type
                         _______ _______ _______ _____ _____    ______ ____

>  <TORSDO>
F 3

$$$$
=
 OpenBabel11052419173D

 32 36  0  0  1  0  0  0  0  0999 V2000
  188.5110  175.3730  143.0790 C   0  0  0  0  0  0  0  0  0  0  0  0
  189.0490  176.1050  145.4060 C   0  0  2  0  0  3  0  0  0  0  0  0
  187.8670  175.5790  141.7650 C   0  0  0  0  0  3  0  0  0  0  0  0
  188.4240  176.3340  144.0390 C   0  0  0  0  0  0  0  0  0  0  0  0
  189.5760  177.2850  145.9580 O   0  0  0  0  0  0  0  0  0  0  0  0
  193.2130  175.0220  146.3740 C   0  0  0  0  0  3  0  0  0  0  0  0
  190.1930  175.1020  145.3520 C   0  0  2  0  0  3  0  0  0  0  0  0
  192.1390  177.1200  147.1840 C   0  0  0  0  0  2  0  0  0  0  0  0
  190.8640  176.2930  147.4700 C   0  0  1  0  0  3  0  0  0  0  0  0
  187.6580  177.6200  143.7370 C   0  0  1  0  0  3  0  0  0  0  0  0
  189.6840  177.0520  147.2630 O   0  0  0  0  0  0  0  0  0  0  0  0
  186.5170  177.3780  142.7420 C   0  0  0  0  0  2  0  0  0  0  0  0
  189.6930  173.8120  144.7300 C   0  0  0  0  0  2  0  0  0  0  0  0
  189.3050  174.0920  143.2740 C   0  0  2  0  0  3  0  0  0  0  0  0
  190.7760  174.9150  146.7530 C   0  0  2  0  0  3  0  0  0  0  0  0
  186.9670  176.5430  141.5840 C   0  0  0  0  0  3  0  0  0  0  0  0
  193.0440  176.4910  146.1180 C   0  0  0  0  0  2  0  0  0  0  0  0
  192.1400  174.2780  146.6720 C   0  0  0  0  0  3  0  0  0  0  0  0
  191.8080  172.4780  140.6980 C   0  0  1  0  0  3  0  0  0  0  0  0
  194.3520  174.8470  140.1100 F   0  0  0  0  0  0  0  0  0  0  0  0
  191.7250  171.1820  139.9000 C   0  0  0  0  0  1  0  0  0  0  0  0
  192.7410  175.1010  141.7450 C   0  0  0  0  0  3  0  0  0  0  0  0
  190.4950  173.9960  142.3460 C   0  0  0  0  0  0  0  0  0  0  0  0
  192.2780  173.6020  139.8070 C   0  0  0  0  0  2  0  0  0  0  0  0
  191.4800  174.9030  142.4960 C   0  0  0  0  0  3  0  0  0  0  0  0
  190.5160  172.8940  141.3480 C   0  0  0  0  0  0  0  0  0  0  0  0
  189.3600  172.3510  140.9590 C   0  0  0  0  0  2  0  0  0  0  0  0
  193.1250  174.5410  140.5950 C   0  0  0  0  0  0  0  0  0  0  0  0
  187.0780  178.2700  144.9890 C   0  0  0  0  0  2  0  0  0  0  0  0
  185.5590  176.6430  145.8390 O   0  0  0  0  0  1  0  0  0  0  0  0
  184.5960  178.5110  144.9200 O   0  0  0  0  0  0  0  0  0  0  0  0
  185.7090  177.7540  145.2660 C   0  0  0  0  0  0  0  0  0  0  0  0
  1 14  1  0  0  0  0
  1  4  2  0  0  0  0
  2  4  1  6  0  0  0
  2  5  1  0  0  0  0
  3  1  1  0  0  0  0
  5 11  1  0  0  0  0
  6 18  2  0  0  0  0
  7 13  1  1  0  0  0
  7  2  1  0  0  0  0
  7 15  1  0  0  0  0
  9  8  1  6  0  0  0
 10  4  1  0  0  0  0
 10 29  1  1  0  0  0
 11  9  1  0  0  0  0
 12 10  1  0  0  0  0
 14 23  1  6  0  0  0
 14 13  1  0  0  0  0
 15 18  1  6  0  0  0
 15  9  1  0  0  0  0
 16  3  2  0  0  0  0
 16 12  1  0  0  0  0
 17  6  1  0  0  0  0
 17  8  1  0  0  0  0
 19 21  1  6  0  0  0
 19 26  1  0  0  0  0
 20 28  1  0  0  0  0
 22 25  1  0  0  0  0
 23 25  2  0  0  0  0
 24 28  1  0  0  0  0
 24 19  1  0  0  0  0
 26 23  1  0  0  0  0
 27 26  2  0  0  0  0
 28 22  2  0  0  0  0
 29 32  1  0  0  0  0
 31 32  2  0  0  0  0
 32 30  1  0  0  0  0
M  END
>  <MODEL>
9

>  <REMARK>
 VINA RESULT:      -6.9      3.438      7.114
  Name = 
  3 active torsions:
  status: ('A' for Active; 'I' for Inactive)
    1  A    between atoms: C_14  and  C_18
    2  A    between atoms: C_16  and  C_27
    3  A    between atoms: C_18  and  C_29
                            x       y       z     vdW  Elec       q    Type
                         _______ _______ _______ _____ _____    ______ ____

>  <TORSDO>
F 3

$$$$
