=
 OpenBabel11052417443D

 31 34  0  0  1  0  0  0  0  0999 V2000
  188.7790  173.5150  141.6440 C   0  0  0  0  0  2  0  0  0  0  0  0
  191.2280  173.5140  143.6950 C   0  0  1  0  0  3  0  0  0  0  0  0
  189.9460  174.2460  143.6690 N   0  0  2  0  0  0  0  0  0  0  0  0
  192.3560  171.3790  142.7700 C   0  0  0  0  0  1  0  0  0  0  0  0
  189.5640  172.2260  141.4330 C   0  0  0  0  0  2  0  0  0  0  0  0
  189.6370  174.5990  142.2820 C   0  0  0  0  0  2  0  0  0  0  0  0
  189.8350  171.5270  142.7620 C   0  0  0  0  0  2  0  0  0  0  0  0
  191.1310  171.9940  143.4280 C   0  0  2  0  0  3  0  0  0  0  0  0
  187.7230  176.4820  145.0170 C   0  0  2  0  0  3  0  0  0  0  0  0
  187.0580  176.3610  147.2860 C   0  0  0  0  0  1  0  0  0  0  0  0
  187.9990  176.9930  146.3720 N   0  0  0  0  0  0  0  0  0  0  0  0
  188.9560  176.4940  144.0890 C   0  0  1  0  0  3  0  0  0  0  0  0
  189.5970  177.8680  143.9620 C   0  0  0  0  0  1  0  0  0  0  0  0
  190.0170  175.4560  144.5070 C   0  0  1  0  0  3  0  0  0  0  0  0
  189.3470  176.6580  146.8480 C   0  0  0  0  0  2  0  0  0  0  0  0
  189.9020  175.0030  146.2940 S   0  0  0  0  0  0  0  0  0  0  0  0
  185.5730  179.4310  143.5860 C   0  0  1  0  0  3  0  0  0  0  0  0
  185.3990  177.3900  142.2070 C   0  0  0  0  0  3  0  0  0  0  0  0
  184.8600  180.4330  144.2160 F   0  0  0  0  0  0  0  0  0  0  0  0
  186.4250  178.6690  144.6200 C   0  0  0  0  0  2  0  0  0  0  0  0
  186.2880  176.7380  142.9620 C   0  0  0  0  0  3  0  0  0  0  0  0
  186.4810  177.1420  144.4000 C   0  0  1  0  0  3  0  0  0  0  0  0
  184.6210  178.5240  142.8040 C   0  0  0  0  0  2  0  0  0  0  0  0
  192.4860  174.2890  143.3380 C   0  0  0  0  0  0  0  0  0  0  0  0
  193.6770  175.4630  141.6490 C   0  0  0  0  0  3  0  0  0  0  0  0
  192.5870  174.7720  142.0700 N   0  0  0  0  0  0  0  0  0  0  0  0
  193.5280  174.0640  145.6520 C   0  0  0  0  0  1  0  0  0  0  0  0
  194.7260  175.6890  142.5350 C   0  0  0  0  0  0  0  0  0  0  0  0
  195.9290  176.4430  142.0980 C   0  0  0  0  0  1  0  0  0  0  0  0
  193.5530  174.5250  144.2360 C   0  0  0  0  0  0  0  0  0  0  0  0
  194.6390  175.2190  143.8050 N   0  0  0  0  0  0  0  0  0  0  0  0
  1  6  1  0  0  0  0
  2 24  1  6  0  0  0
  3  6  1  6  0  0  0
  3  2  1  0  0  0  0
  3 14  1  0  0  0  0
  5  1  1  0  0  0  0
  5  7  1  0  0  0  0
  7  8  1  0  0  0  0
  8  4  1  6  0  0  0
  8  2  1  0  0  0  0
  9 11  1  1  0  0  0
 11 15  1  0  0  0  0
 11 10  1  0  0  0  0
 12 13  1  1  0  0  0
 12 14  1  0  0  0  0
 12  9  1  0  0  0  0
 14 16  1  1  0  0  0
 16 15  1  0  0  0  0
 17 19  1  1  0  0  0
 17 20  1  0  0  0  0
 18 23  1  0  0  0  0
 18 21  2  0  0  0  0
 22 21  1  6  0  0  0
 22 20  1  0  0  0  0
 22  9  1  0  0  0  0
 23 17  1  0  0  0  0
 24 30  1  0  0  0  0
 25 26  1  0  0  0  0
 25 28  2  0  0  0  0
 26 24  2  0  0  0  0
 28 31  1  0  0  0  0
 29 28  1  0  0  0  0
 30 27  1  0  0  0  0
 31 30  2  0  0  0  0
M  END
>  <MODEL>
1

>  <REMARK>
 VINA RESULT:      -7.8      0.000      0.000
  Name = 
  3 active torsions:
  status: ('A' for Active; 'I' for Inactive)
    1  A    between atoms: C_3  and  C_22
    2  A    between atoms: C_4  and  C_5
    3  A    between atoms: N_12  and  C_21
                            x       y       z     vdW  Elec       q    Type
                         _______ _______ _______ _____ _____    ______ ____

>  <TORSDO>
F 3

$$$$
=
 OpenBabel11052417443D

 31 34  0  0  1  0  0  0  0  0999 V2000
  190.1840  173.0990  142.3580 C   0  0  0  0  0  2  0  0  0  0  0  0
  192.3880  173.7980  144.5630 C   0  0  1  0  0  3  0  0  0  0  0  0
  191.0390  174.3320  144.2940 N   0  0  2  0  0  0  0  0  0  0  0  0
  193.8520  171.7040  144.1570 C   0  0  0  0  0  1  0  0  0  0  0  0
  191.1350  171.9120  142.4620 C   0  0  0  0  0  2  0  0  0  0  0  0
  190.8370  174.3860  142.8450 C   0  0  0  0  0  2  0  0  0  0  0  0
  191.3450  171.5050  143.9160 C   0  0  0  0  0  2  0  0  0  0  0  0
  192.5000  172.2560  144.5840 C   0  0  2  0  0  3  0  0  0  0  0  0
  188.4460  176.4820  144.9360 C   0  0  2  0  0  3  0  0  0  0  0  0
  187.5030  176.6850  147.1000 C   0  0  0  0  0  1  0  0  0  0  0  0
  188.4890  177.2550  146.1910 N   0  0  0  0  0  0  0  0  0  0  0  0
  189.7830  176.4810  144.1650 C   0  0  1  0  0  3  0  0  0  0  0  0
  190.2940  177.8780  143.8510 C   0  0  0  0  0  1  0  0  0  0  0  0
  190.8770  175.6710  144.8890 C   0  0  1  0  0  3  0  0  0  0  0  0
  189.7900  177.1770  146.8690 C   0  0  0  0  0  2  0  0  0  0  0  0
  190.5750  175.5310  146.7050 S   0  0  0  0  0  0  0  0  0  0  0  0
  186.0570  178.9110  142.9960 C   0  0  1  0  0  3  0  0  0  0  0  0
  186.5610  176.8640  141.7080 C   0  0  0  0  0  3  0  0  0  0  0  0
  185.0520  179.7500  143.4350 F   0  0  0  0  0  0  0  0  0  0  0  0
  186.8340  178.3500  144.2030 C   0  0  0  0  0  2  0  0  0  0  0  0
  187.4040  176.4170  142.6430 C   0  0  0  0  0  3  0  0  0  0  0  0
  187.2360  176.8650  144.0720 C   0  0  1  0  0  3  0  0  0  0  0  0
  185.4720  177.8190  142.0970 C   0  0  0  0  0  2  0  0  0  0  0  0
  193.5760  174.6590  144.1670 C   0  0  0  0  0  0  0  0  0  0  0  0
  194.9100  175.4980  142.3870 C   0  0  0  0  0  3  0  0  0  0  0  0
  193.8620  174.7650  142.8420 N   0  0  0  0  0  0  0  0  0  0  0  0
  194.1580  175.3150  146.5600 C   0  0  0  0  0  1  0  0  0  0  0  0
  195.7210  176.1650  143.3000 C   0  0  0  0  0  0  0  0  0  0  0  0
  196.8750  176.9740  142.8280 C   0  0  0  0  0  1  0  0  0  0  0  0
  194.4010  175.3430  145.0910 C   0  0  0  0  0  0  0  0  0  0  0  0
  195.4480  176.0750  144.6260 N   0  0  0  0  0  0  0  0  0  0  0  0
  1  5  1  0  0  0  0
  1  6  1  0  0  0  0
  2 24  1  6  0  0  0
  2  8  1  0  0  0  0
  3  6  1  6  0  0  0
  3  2  1  0  0  0  0
  3 14  1  0  0  0  0
  5  7  1  0  0  0  0
  7  8  1  0  0  0  0
  8  4  1  6  0  0  0
  9 11  1  1  0  0  0
 11 15  1  0  0  0  0
 11 10  1  0  0  0  0
 12 13  1  1  0  0  0
 12 14  1  0  0  0  0
 12  9  1  0  0  0  0
 14 16  1  1  0  0  0
 16 15  1  0  0  0  0
 17 19  1  1  0  0  0
 17 20  1  0  0  0  0
 18 23  1  0  0  0  0
 18 21  2  0  0  0  0
 22 21  1  6  0  0  0
 22 20  1  0  0  0  0
 22  9  1  0  0  0  0
 23 17  1  0  0  0  0
 24 30  1  0  0  0  0
 25 26  1  0  0  0  0
 25 28  2  0  0  0  0
 26 24  2  0  0  0  0
 28 31  1  0  0  0  0
 29 28  1  0  0  0  0
 30 27  1  0  0  0  0
 31 30  2  0  0  0  0
M  END
>  <MODEL>
2

>  <REMARK>
 VINA RESULT:      -7.4      1.125      1.304
  Name = 
  3 active torsions:
  status: ('A' for Active; 'I' for Inactive)
    1  A    between atoms: C_3  and  C_22
    2  A    between atoms: C_4  and  C_5
    3  A    between atoms: N_12  and  C_21
                            x       y       z     vdW  Elec       q    Type
                         _______ _______ _______ _____ _____    ______ ____

>  <TORSDO>
F 3

$$$$
=
 OpenBabel11052417443D

 31 34  0  0  1  0  0  0  0  0999 V2000
  193.1910  176.6750  146.7840 C   0  0  0  0  0  2  0  0  0  0  0  0
  193.8250  175.0160  144.1290 C   0  0  1  0  0  3  0  0  0  0  0  0
  192.5830  175.6040  144.6680 N   0  0  2  0  0  0  0  0  0  0  0  0
  196.3970  175.2380  144.2780 C   0  0  0  0  0  1  0  0  0  0  0  0
  194.6880  176.7760  146.5170 C   0  0  0  0  0  2  0  0  0  0  0  0
  192.5820  175.4460  146.1230 C   0  0  0  0  0  2  0  0  0  0  0  0
  194.9590  177.1590  145.0660 C   0  0  0  0  0  2  0  0  0  0  0  0
  195.0590  175.9470  144.1370 C   0  0  2  0  0  3  0  0  0  0  0  0
  189.3030  176.4340  144.1110 C   0  0  2  0  0  3  0  0  0  0  0  0
  188.5400  177.1340  141.9800 C   0  0  0  0  0  1  0  0  0  0  0  0
  188.6820  175.9770  142.8540 N   0  0  0  0  0  0  0  0  0  0  0  0
  190.1110  175.3370  144.8360 C   0  0  1  0  0  3  0  0  0  0  0  0
  189.2940  174.0880  145.1310 C   0  0  0  0  0  1  0  0  0  0  0  0
  191.3980  174.9570  144.0770 C   0  0  1  0  0  3  0  0  0  0  0  0
  189.5030  174.9950  142.1320 C   0  0  0  0  0  2  0  0  0  0  0  0
  191.2970  175.3350  142.2720 S   0  0  0  0  0  0  0  0  0  0  0  0
  186.0260  176.8160  146.2280 C   0  0  1  0  0  3  0  0  0  0  0  0
  188.0020  177.7410  147.3850 C   0  0  0  0  0  3  0  0  0  0  0  0
  184.7180  177.0610  145.8550 F   0  0  0  0  0  0  0  0  0  0  0  0
  186.8810  176.5340  144.9780 C   0  0  0  0  0  2  0  0  0  0  0  0
  188.8270  177.3420  146.4120 C   0  0  0  0  0  3  0  0  0  0  0  0
  188.2930  177.1560  145.0150 C   0  0  1  0  0  3  0  0  0  0  0  0
  186.5550  177.9790  147.0700 C   0  0  0  0  0  2  0  0  0  0  0  0
  193.9870  173.5070  144.2270 C   0  0  0  0  0  0  0  0  0  0  0  0
  194.1580  171.6220  145.6640 C   0  0  0  0  0  3  0  0  0  0  0  0
  194.0030  172.9570  145.4710 N   0  0  0  0  0  0  0  0  0  0  0  0
  194.0990  173.1510  141.7060 C   0  0  0  0  0  1  0  0  0  0  0  0
  194.3040  170.7860  144.5620 C   0  0  0  0  0  0  0  0  0  0  0  0
  194.4750  169.3210  144.7480 C   0  0  0  0  0  1  0  0  0  0  0  0
  194.1310  172.6520  143.1090 C   0  0  0  0  0  0  0  0  0  0  0  0
  194.2850  171.3180  143.3140 N   0  0  0  0  0  0  0  0  0  0  0  0
  2  8  1  0  0  0  0
  2 24  1  1  0  0  0
  2  3  1  0  0  0  0
  3  6  1  1  0  0  0
  5  1  1  0  0  0  0
  6  1  1  0  0  0  0
  7  5  1  0  0  0  0
  8  4  1  1  0  0  0
  8  7  1  0  0  0  0
  9 11  1  6  0  0  0
  9 12  1  0  0  0  0
  9 22  1  0  0  0  0
 10 11  1  0  0  0  0
 12 13  1  6  0  0  0
 14 16  1  6  0  0  0
 14  3  1  0  0  0  0
 14 12  1  0  0  0  0
 15 16  1  0  0  0  0
 15 11  1  0  0  0  0
 17 19  1  6  0  0  0
 17 23  1  0  0  0  0
 20 17  1  0  0  0  0
 21 18  2  0  0  0  0
 22 20  1  1  0  0  0
 22 21  1  0  0  0  0
 23 18  1  0  0  0  0
 24 26  1  0  0  0  0
 26 25  2  0  0  0  0
 27 30  1  0  0  0  0
 28 29  1  0  0  0  0
 28 25  1  0  0  0  0
 30 31  1  0  0  0  0
 30 24  2  0  0  0  0
 31 28  2  0  0  0  0
M  END
>  <MODEL>
3

>  <REMARK>
 VINA RESULT:      -6.9      2.377      4.757
  Name = 
  3 active torsions:
  status: ('A' for Active; 'I' for Inactive)
    1  A    between atoms: C_3  and  C_22
    2  A    between atoms: C_4  and  C_5
    3  A    between atoms: N_12  and  C_21
                            x       y       z     vdW  Elec       q    Type
                         _______ _______ _______ _____ _____    ______ ____

>  <TORSDO>
F 3

$$$$
=
 OpenBabel11052417443D

 31 34  0  0  1  0  0  0  0  0999 V2000
  189.8860  172.2250  144.1960 C   0  0  0  0  0  2  0  0  0  0  0  0
  189.4320  175.2920  143.4270 C   0  0  1  0  0  3  0  0  0  0  0  0
  190.5780  174.5670  144.0090 N   0  0  2  0  0  0  0  0  0  0  0  0
  187.3010  174.9060  142.0130 C   0  0  0  0  0  1  0  0  0  0  0  0
  188.7400  172.2910  143.1920 C   0  0  0  0  0  2  0  0  0  0  0  0
  190.0690  173.5470  144.9280 C   0  0  0  0  0  2  0  0  0  0  0  0
  189.1160  173.1490  141.9890 C   0  0  0  0  0  2  0  0  0  0  0  0
  188.7870  174.6310  142.1880 C   0  0  2  0  0  3  0  0  0  0  0  0
  193.9250  174.7210  144.7350 C   0  0  2  0  0  3  0  0  0  0  0  0
  195.4110  176.0730  143.4800 C   0  0  0  0  0  1  0  0  0  0  0  0
  194.5820  176.0400  144.6770 N   0  0  0  0  0  0  0  0  0  0  0  0
  192.5780  174.7330  145.4870 C   0  0  1  0  0  3  0  0  0  0  0  0
  192.6870  175.2770  146.9030 C   0  0  0  0  0  1  0  0  0  0  0  0
  191.4810  175.4940  144.7140 C   0  0  1  0  0  3  0  0  0  0  0  0
  193.6270  177.1510  144.5650 C   0  0  0  0  0  2  0  0  0  0  0  0
  192.1730  176.7330  143.5340 S   0  0  0  0  0  0  0  0  0  0  0  0
  196.5510  171.8360  144.3390 C   0  0  1  0  0  3  0  0  0  0  0  0
  197.1580  173.4160  146.1380 C   0  0  0  0  0  3  0  0  0  0  0  0
  196.4030  170.5030  144.0100 F   0  0  0  0  0  0  0  0  0  0  0  0
  195.2160  172.5760  144.1300 C   0  0  0  0  0  2  0  0  0  0  0  0
  196.1150  174.2070  145.8700 C   0  0  0  0  0  3  0  0  0  0  0  0
  194.8900  173.6260  145.2150 C   0  0  1  0  0  3  0  0  0  0  0  0
  197.0950  171.9650  145.7640 C   0  0  0  0  0  2  0  0  0  0  0  0
  188.6100  176.1690  144.3580 C   0  0  0  0  0  0  0  0  0  0  0  0
  187.4690  176.3270  146.4370 C   0  0  0  0  0  3  0  0  0  0  0  0
  188.2180  175.6310  145.5440 N   0  0  0  0  0  0  0  0  0  0  0  0
  188.6260  178.1880  142.8030 C   0  0  0  0  0  1  0  0  0  0  0  0
  187.0880  177.6310  146.1380 C   0  0  0  0  0  0  0  0  0  0  0  0
  186.2690  178.4140  147.0990 C   0  0  0  0  0  1  0  0  0  0  0  0
  188.2240  177.4970  144.0600 C   0  0  0  0  0  0  0  0  0  0  0  0
  187.4760  178.1860  144.9610 N   0  0  0  0  0  0  0  0  0  0  0  0
  1  6  1  0  0  0  0
  2  3  1  0  0  0  0
  2 24  1  1  0  0  0
  3 14  1  0  0  0  0
  3  6  1  1  0  0  0
  5  1  1  0  0  0  0
  7  8  1  0  0  0  0
  7  5  1  0  0  0  0
  8  4  1  1  0  0  0
  8  2  1  0  0  0  0
  9 11  1  1  0  0  0
  9 22  1  0  0  0  0
  9 12  1  0  0  0  0
 10 11  1  0  0  0  0
 12 13  1  1  0  0  0
 14 16  1  6  0  0  0
 14 12  1  0  0  0  0
 15 11  1  0  0  0  0
 16 15  1  0  0  0  0
 17 19  1  1  0  0  0
 17 23  1  0  0  0  0
 20 17  1  0  0  0  0
 21 18  2  0  0  0  0
 22 20  1  6  0  0  0
 22 21  1  0  0  0  0
 23 18  1  0  0  0  0
 24 26  1  0  0  0  0
 26 25  2  0  0  0  0
 27 30  1  0  0  0  0
 28 25  1  0  0  0  0
 28 29  1  0  0  0  0
 30 24  2  0  0  0  0
 30 31  1  0  0  0  0
 31 28  2  0  0  0  0
M  END
>  <MODEL>
4

>  <REMARK>
 VINA RESULT:      -6.8      3.415      7.827
  Name = 
  3 active torsions:
  status: ('A' for Active; 'I' for Inactive)
    1  A    between atoms: C_3  and  C_22
    2  A    between atoms: C_4  and  C_5
    3  A    between atoms: N_12  and  C_21
                            x       y       z     vdW  Elec       q    Type
                         _______ _______ _______ _____ _____    ______ ____

>  <TORSDO>
F 3

$$$$
=
 OpenBabel11052417443D

 31 34  0  0  1  0  0  0  0  0999 V2000
  192.4820  176.1960  146.5520 C   0  0  0  0  0  2  0  0  0  0  0  0
  189.9770  174.8400  145.1060 C   0  0  1  0  0  3  0  0  0  0  0  0
  191.4330  174.6140  145.0050 N   0  0  2  0  0  0  0  0  0  0  0  0
  188.1860  175.8030  146.7030 C   0  0  0  0  0  1  0  0  0  0  0  0
  191.2470  176.4700  147.4020 C   0  0  0  0  0  2  0  0  0  0  0  0
  192.1150  175.9060  145.1030 C   0  0  0  0  0  2  0  0  0  0  0  0
  190.4510  175.1900  147.6380 C   0  0  0  0  0  2  0  0  0  0  0  0
  189.4150  174.9220  146.5430 C   0  0  2  0  0  3  0  0  0  0  0  0
  194.2960  173.7340  143.3370 C   0  0  2  0  0  3  0  0  0  0  0  0
  195.1330  171.5190  143.3820 C   0  0  0  0  0  1  0  0  0  0  0  0
  194.3060  172.4450  142.6210 N   0  0  0  0  0  0  0  0  0  0  0  0
  193.0230  174.5700  143.0870 C   0  0  1  0  0  3  0  0  0  0  0  0
  192.7620  174.8380  141.6120 C   0  0  0  0  0  1  0  0  0  0  0  0
  191.7720  173.9440  143.7370 C   0  0  1  0  0  3  0  0  0  0  0  0
  192.9720  171.8380  142.5140 C   0  0  0  0  0  2  0  0  0  0  0  0
  191.9430  172.1250  144.0010 S   0  0  0  0  0  0  0  0  0  0  0  0
  196.9530  175.7710  141.2960 C   0  0  1  0  0  3  0  0  0  0  0  0
  196.5090  176.7660  143.5130 C   0  0  0  0  0  3  0  0  0  0  0  0
  197.9390  175.3660  140.4170 F   0  0  0  0  0  0  0  0  0  0  0  0
  196.0400  174.5780  141.6410 C   0  0  0  0  0  2  0  0  0  0  0  0
  195.5600  175.8660  143.7880 C   0  0  0  0  0  3  0  0  0  0  0  0
  195.6000  174.5160  143.1200 C   0  0  1  0  0  3  0  0  0  0  0  0
  197.5860  176.4200  142.5290 C   0  0  0  0  0  2  0  0  0  0  0  0
  189.3010  175.5770  143.9620 C   0  0  0  0  0  0  0  0  0  0  0  0
  188.7510  177.6880  143.0150 C   0  0  0  0  0  3  0  0  0  0  0  0
  189.3380  176.9370  143.9820 N   0  0  0  0  0  0  0  0  0  0  0  0
  188.5570  173.4560  142.7620 C   0  0  0  0  0  1  0  0  0  0  0  0
  188.0900  177.0540  141.9680 C   0  0  0  0  0  0  0  0  0  0  0  0
  187.4390  177.8530  140.8970 C   0  0  0  0  0  1  0  0  0  0  0  0
  188.6310  174.9380  142.8930 C   0  0  0  0  0  0  0  0  0  0  0  0
  188.0470  175.6980  141.9290 N   0  0  0  0  0  0  0  0  0  0  0  0
  1  5  1  0  0  0  0
  2 24  1  1  0  0  0
  2  8  1  0  0  0  0
  3  6  1  6  0  0  0
  3  2  1  0  0  0  0
  5  7  1  0  0  0  0
  6  1  1  0  0  0  0
  8  4  1  6  0  0  0
  8  7  1  0  0  0  0
  9 11  1  6  0  0  0
 11 10  1  0  0  0  0
 12 13  1  6  0  0  0
 12  9  1  0  0  0  0
 12 14  1  0  0  0  0
 14 16  1  1  0  0  0
 14  3  1  0  0  0  0
 15 11  1  0  0  0  0
 15 16  1  0  0  0  0
 17 19  1  6  0  0  0
 17 20  1  0  0  0  0
 17 23  1  0  0  0  0
 18 21  2  0  0  0  0
 22 20  1  6  0  0  0
 22  9  1  0  0  0  0
 22 21  1  0  0  0  0
 23 18  1  0  0  0  0
 24 26  1  0  0  0  0
 25 26  2  0  0  0  0
 27 30  1  0  0  0  0
 28 25  1  0  0  0  0
 29 28  1  0  0  0  0
 30 24  2  0  0  0  0
 31 28  2  0  0  0  0
 31 30  1  0  0  0  0
M  END
>  <MODEL>
5

>  <REMARK>
 VINA RESULT:      -6.7      3.372      7.704
  Name = 
  3 active torsions:
  status: ('A' for Active; 'I' for Inactive)
    1  A    between atoms: C_3  and  C_22
    2  A    between atoms: C_4  and  C_5
    3  A    between atoms: N_12  and  C_21
                            x       y       z     vdW  Elec       q    Type
                         _______ _______ _______ _____ _____    ______ ____

>  <TORSDO>
F 3

$$$$
=
 OpenBabel11052417443D

 31 34  0  0  1  0  0  0  0  0999 V2000
  193.1960  176.3590  143.5320 C   0  0  0  0  0  2  0  0  0  0  0  0
  191.0200  175.2710  145.6030 C   0  0  1  0  0  3  0  0  0  0  0  0
  191.3970  174.8550  144.2380 N   0  0  2  0  0  0  0  0  0  0  0  0
  191.9490  176.5330  147.6600 C   0  0  0  0  0  1  0  0  0  0  0  0
  193.6000  176.8290  144.9240 C   0  0  0  0  0  2  0  0  0  0  0  0
  191.7070  176.0500  143.4520 C   0  0  0  0  0  2  0  0  0  0  0  0
  193.5680  175.6760  145.9210 C   0  0  0  0  0  2  0  0  0  0  0  0
  192.1980  175.4930  146.5790 C   0  0  2  0  0  3  0  0  0  0  0  0
  191.0890  172.6340  141.6430 C   0  0  2  0  0  3  0  0  0  0  0  0
  190.9480  170.2990  142.0130 C   0  0  0  0  0  1  0  0  0  0  0  0
  190.1560  171.5050  141.8120 N   0  0  0  0  0  0  0  0  0  0  0  0
  190.5000  173.9930  142.0780 C   0  0  1  0  0  3  0  0  0  0  0  0
  189.1980  174.3360  141.3700 C   0  0  0  0  0  1  0  0  0  0  0  0
  190.3080  174.0880  143.6050 C   0  0  1  0  0  3  0  0  0  0  0  0
  189.2890  171.6480  142.9890 C   0  0  0  0  0  2  0  0  0  0  0  0
  190.1450  172.4320  144.4060 S   0  0  0  0  0  0  0  0  0  0  0  0
  191.1110  172.9900  137.7390 C   0  0  1  0  0  3  0  0  0  0  0  0
  193.0070  174.1660  138.7980 C   0  0  0  0  0  3  0  0  0  0  0  0
  190.7430  172.1110  136.7380 F   0  0  0  0  0  0  0  0  0  0  0  0
  190.6860  172.4260  139.1090 C   0  0  0  0  0  2  0  0  0  0  0  0
  192.5750  173.8700  140.0270 C   0  0  0  0  0  3  0  0  0  0  0  0
  191.7130  172.6530  140.2400 C   0  0  1  0  0  3  0  0  0  0  0  0
  192.6090  173.2880  137.6490 C   0  0  0  0  0  2  0  0  0  0  0  0
  189.7170  176.0360  145.7690 C   0  0  0  0  0  0  0  0  0  0  0  0
  188.3850  177.8630  145.0350 C   0  0  0  0  0  3  0  0  0  0  0  0
  189.5090  177.1070  144.9560 N   0  0  0  0  0  0  0  0  0  0  0  0
  188.8390  174.5410  147.6360 C   0  0  0  0  0  1  0  0  0  0  0  0
  187.4110  177.5390  145.9750 C   0  0  0  0  0  0  0  0  0  0  0  0
  186.1710  178.3520  146.0810 C   0  0  0  0  0  1  0  0  0  0  0  0
  188.7220  175.7080  146.7190 C   0  0  0  0  0  0  0  0  0  0  0  0
  187.5990  176.4720  146.7910 N   0  0  0  0  0  0  0  0  0  0  0  0
  1  5  1  0  0  0  0
  2 24  1  6  0  0  0
  2  8  1  0  0  0  0
  3  6  1  6  0  0  0
  3  2  1  0  0  0  0
  5  7  1  0  0  0  0
  6  1  1  0  0  0  0
  7  8  1  0  0  0  0
  8  4  1  6  0  0  0
  9 11  1  6  0  0  0
  9 12  1  0  0  0  0
 11 10  1  0  0  0  0
 11 15  1  0  0  0  0
 12 13  1  6  0  0  0
 12 14  1  0  0  0  0
 14  3  1  0  0  0  0
 14 16  1  1  0  0  0
 15 16  1  0  0  0  0
 17 19  1  6  0  0  0
 17 20  1  0  0  0  0
 18 21  2  0  0  0  0
 21 22  1  0  0  0  0
 22 20  1  6  0  0  0
 22  9  1  0  0  0  0
 23 17  1  0  0  0  0
 23 18  1  0  0  0  0
 24 30  1  0  0  0  0
 25 28  2  0  0  0  0
 26 25  1  0  0  0  0
 26 24  2  0  0  0  0
 28 29  1  0  0  0  0
 28 31  1  0  0  0  0
 30 31  2  0  0  0  0
 30 27  1  0  0  0  0
M  END
>  <MODEL>
6

>  <REMARK>
 VINA RESULT:      -6.6      3.171      7.024
  Name = 
  3 active torsions:
  status: ('A' for Active; 'I' for Inactive)
    1  A    between atoms: C_3  and  C_22
    2  A    between atoms: C_4  and  C_5
    3  A    between atoms: N_12  and  C_21
                            x       y       z     vdW  Elec       q    Type
                         _______ _______ _______ _____ _____    ______ ____

>  <TORSDO>
F 3

$$$$
=
 OpenBabel11052417443D

 31 34  0  0  1  0  0  0  0  0999 V2000
  190.1740  175.4970  147.2970 C   0  0  0  0  0  2  0  0  0  0  0  0
  191.7970  175.2480  144.5570 C   0  0  1  0  0  3  0  0  0  0  0  0
  190.4780  175.8220  144.8890 N   0  0  2  0  0  0  0  0  0  0  0  0
  194.0630  174.6280  145.6380 C   0  0  0  0  0  1  0  0  0  0  0  0
  191.6440  175.2860  147.6420 C   0  0  0  0  0  2  0  0  0  0  0  0
  189.8430  174.9800  145.9040 C   0  0  0  0  0  2  0  0  0  0  0  0
  192.5340  176.2350  146.8460 C   0  0  0  0  0  2  0  0  0  0  0  0
  192.9570  175.6610  145.4910 C   0  0  2  0  0  3  0  0  0  0  0  0
  187.5540  177.3830  144.0130 C   0  0  2  0  0  3  0  0  0  0  0  0
  187.5420  179.3880  142.7510 C   0  0  0  0  0  1  0  0  0  0  0  0
  187.4520  177.9370  142.6500 N   0  0  0  0  0  0  0  0  0  0  0  0
  188.1330  175.9530  144.0570 C   0  0  1  0  0  3  0  0  0  0  0  0
  187.3590  174.9670  143.1950 C   0  0  0  0  0  1  0  0  0  0  0  0
  189.6290  175.9140  143.6880 C   0  0  1  0  0  3  0  0  0  0  0  0
  188.5450  177.5020  141.7700 C   0  0  0  0  0  2  0  0  0  0  0  0
  190.1440  177.3520  142.6500 S   0  0  0  0  0  0  0  0  0  0  0  0
  185.1990  178.7860  146.8160 C   0  0  1  0  0  3  0  0  0  0  0  0
  184.0970  178.7320  144.6070 C   0  0  0  0  0  3  0  0  0  0  0  0
  185.0690  178.4570  148.1520 F   0  0  0  0  0  0  0  0  0  0  0  0
  186.4370  178.0840  146.2240 C   0  0  0  0  0  2  0  0  0  0  0  0
  185.2090  178.3040  144.0010 C   0  0  0  0  0  3  0  0  0  0  0  0
  186.2400  177.5410  144.7920 C   0  0  1  0  0  3  0  0  0  0  0  0
  183.9050  178.4570  146.0680 C   0  0  0  0  0  2  0  0  0  0  0  0
  191.8180  173.9100  143.8340 C   0  0  0  0  0  0  0  0  0  0  0  0
  191.3490  171.5830  143.9600 C   0  0  0  0  0  3  0  0  0  0  0  0
  191.3580  172.8240  144.5110 N   0  0  0  0  0  0  0  0  0  0  0  0
  192.7930  174.8580  141.6790 C   0  0  0  0  0  1  0  0  0  0  0  0
  191.8230  171.4110  142.6630 C   0  0  0  0  0  0  0  0  0  0  0  0
  191.8240  170.0630  142.0370 C   0  0  0  0  0  1  0  0  0  0  0  0
  192.2950  173.7300  142.5150 C   0  0  0  0  0  0  0  0  0  0  0  0
  192.2810  172.4850  141.9710 N   0  0  0  0  0  0  0  0  0  0  0  0
  1  5  1  0  0  0  0
  2 24  1  1  0  0  0
  2  3  1  0  0  0  0
  2  8  1  0  0  0  0
  3  6  1  1  0  0  0
  6  1  1  0  0  0  0
  7  5  1  0  0  0  0
  8  4  1  1  0  0  0
  8  7  1  0  0  0  0
  9 11  1  6  0  0  0
  9 12  1  0  0  0  0
  9 22  1  0  0  0  0
 11 10  1  0  0  0  0
 12 13  1  6  0  0  0
 14 16  1  1  0  0  0
 14 12  1  0  0  0  0
 14  3  1  0  0  0  0
 15 16  1  0  0  0  0
 15 11  1  0  0  0  0
 17 19  1  1  0  0  0
 18 23  1  0  0  0  0
 20 17  1  0  0  0  0
 21 18  2  0  0  0  0
 22 21  1  6  0  0  0
 22 20  1  0  0  0  0
 23 17  1  0  0  0  0
 24 26  1  0  0  0  0
 25 26  2  0  0  0  0
 27 30  1  0  0  0  0
 28 25  1  0  0  0  0
 29 28  1  0  0  0  0
 30 24  2  0  0  0  0
 31 30  1  0  0  0  0
 31 28  2  0  0  0  0
M  END
>  <MODEL>
7

>  <REMARK>
 VINA RESULT:      -6.2      2.165      4.131
  Name = 
  3 active torsions:
  status: ('A' for Active; 'I' for Inactive)
    1  A    between atoms: C_3  and  C_22
    2  A    between atoms: C_4  and  C_5
    3  A    between atoms: N_12  and  C_21
                            x       y       z     vdW  Elec       q    Type
                         _______ _______ _______ _____ _____    ______ ____

>  <TORSDO>
F 3

$$$$
=
 OpenBabel11052417443D

 31 34  0  0  1  0  0  0  0  0999 V2000
  193.8480  176.3700  145.0550 C   0  0  0  0  0  2  0  0  0  0  0  0
  194.8520  173.9960  143.1670 C   0  0  1  0  0  3  0  0  0  0  0  0
  193.5290  174.6200  143.3720 N   0  0  2  0  0  0  0  0  0  0  0  0
  197.3780  174.4720  143.4510 C   0  0  0  0  0  1  0  0  0  0  0  0
  195.3580  176.5050  144.8970 C   0  0  0  0  0  2  0  0  0  0  0  0
  193.3800  174.9460  144.7910 C   0  0  0  0  0  2  0  0  0  0  0  0
  195.7650  176.4160  143.4300 C   0  0  0  0  0  2  0  0  0  0  0  0
  196.0270  174.9800  142.9690 C   0  0  2  0  0  3  0  0  0  0  0  0
  190.1030  174.5800  143.4940 C   0  0  2  0  0  3  0  0  0  0  0  0
  188.7830  175.1760  141.6190 C   0  0  0  0  0  1  0  0  0  0  0  0
  189.3800  174.0490  142.3240 N   0  0  0  0  0  0  0  0  0  0  0  0
  191.2860  173.6960  143.9420 C   0  0  1  0  0  3  0  0  0  0  0  0
  190.8820  172.2600  144.2390 C   0  0  0  0  0  1  0  0  0  0  0  0
  192.4510  173.7170  142.9320 C   0  0  1  0  0  3  0  0  0  0  0  0
  190.2600  173.3650  141.3670 C   0  0  0  0  0  2  0  0  0  0  0  0
  191.9030  174.1600  141.2250 S   0  0  0  0  0  0  0  0  0  0  0  0
  188.9920  175.0690  147.2220 C   0  0  1  0  0  3  0  0  0  0  0  0
  188.3120  176.9590  145.7850 C   0  0  0  0  0  3  0  0  0  0  0  0
  188.5670  174.1660  148.1760 F   0  0  0  0  0  0  0  0  0  0  0  0
  189.5240  174.3140  145.9880 C   0  0  0  0  0  2  0  0  0  0  0  0
  188.9270  176.4420  144.7180 C   0  0  0  0  0  3  0  0  0  0  0  0
  189.1450  174.9530  144.6350 C   0  0  1  0  0  3  0  0  0  0  0  0
  187.8640  176.0480  146.8890 C   0  0  0  0  0  2  0  0  0  0  0  0
  195.0800  172.6210  143.7750 C   0  0  0  0  0  0  0  0  0  0  0  0
  195.3620  171.3580  145.7690 C   0  0  0  0  0  3  0  0  0  0  0  0
  195.1460  172.5370  145.1310 N   0  0  0  0  0  0  0  0  0  0  0  0
  195.1560  171.4170  141.5300 C   0  0  0  0  0  1  0  0  0  0  0  0
  195.5220  170.1970  145.0190 C   0  0  0  0  0  0  0  0  0  0  0  0
  195.7590  168.8940  145.6940 C   0  0  0  0  0  1  0  0  0  0  0  0
  195.2390  171.4370  143.0170 C   0  0  0  0  0  0  0  0  0  0  0  0
  195.4540  170.2620  143.6650 N   0  0  0  0  0  0  0  0  0  0  0  0
  2  3  1  0  0  0  0
  2 24  1  1  0  0  0
  3  6  1  1  0  0  0
  5  1  1  0  0  0  0
  6  1  1  0  0  0  0
  7  5  1  0  0  0  0
  8  2  1  0  0  0  0
  8  7  1  0  0  0  0
  8  4  1  1  0  0  0
  9 11  1  6  0  0  0
  9 12  1  0  0  0  0
  9 22  1  0  0  0  0
 10 11  1  0  0  0  0
 12 13  1  6  0  0  0
 14 16  1  6  0  0  0
 14  3  1  0  0  0  0
 14 12  1  0  0  0  0
 15 11  1  0  0  0  0
 16 15  1  0  0  0  0
 17 19  1  1  0  0  0
 18 23  1  0  0  0  0
 20 17  1  0  0  0  0
 21 18  2  0  0  0  0
 22 21  1  1  0  0  0
 22 20  1  0  0  0  0
 23 17  1  0  0  0  0
 24 26  1  0  0  0  0
 26 25  2  0  0  0  0
 27 30  1  0  0  0  0
 28 29  1  0  0  0  0
 28 25  1  0  0  0  0
 30 31  1  0  0  0  0
 30 24  2  0  0  0  0
 31 28  2  0  0  0  0
M  END
>  <MODEL>
8

>  <REMARK>
 VINA RESULT:      -6.2      2.883      5.534
  Name = 
  3 active torsions:
  status: ('A' for Active; 'I' for Inactive)
    1  A    between atoms: C_3  and  C_22
    2  A    between atoms: C_4  and  C_5
    3  A    between atoms: N_12  and  C_21
                            x       y       z     vdW  Elec       q    Type
                         _______ _______ _______ _____ _____    ______ ____

>  <TORSDO>
F 3

$$$$
=
 OpenBabel11052417443D

 31 34  0  0  1  0  0  0  0  0999 V2000
  189.5310  172.3080  142.5080 C   0  0  0  0  0  2  0  0  0  0  0  0
  189.8350  175.4800  142.7290 C   0  0  1  0  0  3  0  0  0  0  0  0
  190.8040  174.3730  142.8430 N   0  0  2  0  0  0  0  0  0  0  0  0
  187.5190  176.0450  141.7240 C   0  0  0  0  0  1  0  0  0  0  0  0
  188.3310  172.9410  141.8150 C   0  0  0  0  0  2  0  0  0  0  0  0
  190.1560  173.2520  143.5260 C   0  0  0  0  0  2  0  0  0  0  0  0
  188.7720  174.0340  140.8480 C   0  0  0  0  0  2  0  0  0  0  0  0
  188.8840  175.4090  141.5120 C   0  0  2  0  0  3  0  0  0  0  0  0
  193.8790  173.0530  143.5900 C   0  0  2  0  0  3  0  0  0  0  0  0
  195.8230  173.6640  142.3830 C   0  0  0  0  0  1  0  0  0  0  0  0
  195.0400  173.9620  143.5740 N   0  0  0  0  0  0  0  0  0  0  0  0
  192.6550  173.6260  144.3350 C   0  0  1  0  0  3  0  0  0  0  0  0
  192.9630  174.0350  145.7670 C   0  0  0  0  0  1  0  0  0  0  0  0
  192.0060  174.8030  143.5800 C   0  0  1  0  0  3  0  0  0  0  0  0
  194.6580  175.3780  143.4910 C   0  0  0  0  0  2  0  0  0  0  0  0
  193.1840  175.6530  142.4400 S   0  0  0  0  0  0  0  0  0  0  0  0
  194.9930  170.2870  146.1350 C   0  0  1  0  0  3  0  0  0  0  0  0
  193.1940  169.5080  144.6330 C   0  0  0  0  0  3  0  0  0  0  0  0
  196.2300  169.9800  146.6700 F   0  0  0  0  0  0  0  0  0  0  0  0
  195.0760  171.6150  145.3580 C   0  0  0  0  0  2  0  0  0  0  0  0
  193.0860  170.7060  144.0510 C   0  0  0  0  0  3  0  0  0  0  0  0
  194.2700  171.6380  144.0420 C   0  0  1  0  0  3  0  0  0  0  0  0
  194.4890  169.1210  145.2810 C   0  0  0  0  0  2  0  0  0  0  0  0
  189.4050  176.1720  144.0130 C   0  0  0  0  0  0  0  0  0  0  0  0
  188.1140  176.0290  146.0040 C   0  0  0  0  0  3  0  0  0  0  0  0
  188.5670  175.4930  144.8420 N   0  0  0  0  0  0  0  0  0  0  0  0
  190.7500  178.2890  143.5640 C   0  0  0  0  0  1  0  0  0  0  0  0
  188.5160  177.3110  146.3650 C   0  0  0  0  0  0  0  0  0  0  0  0
  188.0340  177.9200  147.6320 C   0  0  0  0  0  1  0  0  0  0  0  0
  189.8140  177.4730  144.3860 C   0  0  0  0  0  0  0  0  0  0  0  0
  189.3560  178.0010  145.5520 N   0  0  0  0  0  0  0  0  0  0  0  0
  1  6  1  0  0  0  0
  2  3  1  0  0  0  0
  2 24  1  1  0  0  0
  3  6  1  1  0  0  0
  3 14  1  0  0  0  0
  5  1  1  0  0  0  0
  7  8  1  0  0  0  0
  7  5  1  0  0  0  0
  8  4  1  1  0  0  0
  8  2  1  0  0  0  0
  9 11  1  1  0  0  0
  9 22  1  0  0  0  0
  9 12  1  0  0  0  0
 10 11  1  0  0  0  0
 12 13  1  1  0  0  0
 14 16  1  6  0  0  0
 14 12  1  0  0  0  0
 15 11  1  0  0  0  0
 16 15  1  0  0  0  0
 17 19  1  6  0  0  0
 18 23  1  0  0  0  0
 20 17  1  0  0  0  0
 21 18  2  0  0  0  0
 22 21  1  1  0  0  0
 22 20  1  0  0  0  0
 23 17  1  0  0  0  0
 24 30  2  0  0  0  0
 24 26  1  0  0  0  0
 25 28  1  0  0  0  0
 26 25  2  0  0  0  0
 27 30  1  0  0  0  0
 28 29  1  0  0  0  0
 30 31  1  0  0  0  0
 31 28  2  0  0  0  0
M  END
>  <MODEL>
9

>  <REMARK>
 VINA RESULT:      -6.1      3.461      7.660
  Name = 
  3 active torsions:
  status: ('A' for Active; 'I' for Inactive)
    1  A    between atoms: C_3  and  C_22
    2  A    between atoms: C_4  and  C_5
    3  A    between atoms: N_12  and  C_21
                            x       y       z     vdW  Elec       q    Type
                         _______ _______ _______ _____ _____    ______ ____

>  <TORSDO>
F 3

$$$$
