=
 OpenBabel11052418133D

 28 31  0  0  1  0  0  0  0  0999 V2000
  186.3420  178.2030  142.8220 C   0  0  0  0  0  0  0  0  0  0  0  0
  190.2790  176.0160  145.6770 C   0  0  0  0  0  2  0  0  0  0  0  0
  188.2450  174.8560  139.7900 C   0  0  0  0  0  1  0  0  0  0  0  0
  191.5680  175.1540  143.6430 C   0  0  1  0  0  3  0  0  0  0  0  0
  189.0290  175.6310  143.5310 C   0  0  1  0  0  3  0  0  0  0  0  0
  192.8440  176.0940  145.5880 C   0  0  2  0  0  3  0  0  0  0  0  0
  190.3800  176.0170  144.1500 C   0  0  1  0  0  3  0  0  0  0  0  0
  190.2110  174.1680  141.8130 C   0  0  0  0  0  2  0  0  0  0  0  0
  192.6140  174.8600  144.7230 C   0  0  0  0  0  2  0  0  0  0  0  0
  187.3020  176.4890  141.3820 C   0  0  0  0  0  0  0  0  0  0  0  0
  188.0780  176.7860  143.6330 C   0  0  0  0  0  3  0  0  0  0  0  0
  191.1040  173.8530  143.0070 C   0  0  0  0  0  2  0  0  0  0  0  0
  185.5260  177.8660  140.5800 C   0  0  0  0  0  3  0  0  0  0  0  0
  188.2090  175.5220  141.1350 C   0  0  0  0  0  0  0  0  0  0  0  0
  186.4280  176.8650  140.4050 N   0  0  0  0  0  0  0  0  0  0  0  0
  193.9450  175.8230  146.5920 C   0  0  0  0  0  1  0  0  0  0  0  0
  191.5700  176.5300  146.3240 C   0  0  0  0  0  2  0  0  0  0  0  0
  189.1730  175.1510  142.1440 N   0  0  0  0  0  0  0  0  0  0  0  0
  185.4740  178.5560  141.7890 C   0  0  0  0  0  3  0  0  0  0  0  0
  187.2620  177.1490  142.6350 C   0  0  0  0  0  0  0  0  0  0  0  0
  186.2850  178.9800  144.1010 C   0  0  0  0  0  2  0  0  0  0  0  0
  184.9280  179.6490  144.2380 C   0  0  0  0  0  2  0  0  0  0  0  0
  184.0860  178.9200  145.2720 C   0  0  0  0  0  2  0  0  0  0  0  0
  184.9330  177.9360  146.0740 C   0  0  0  0  0  2  0  0  0  0  0  0
  185.2150  178.4320  147.4910 C   0  0  2  0  0  3  0  0  0  0  0  0
  185.7880  179.6920  147.4540 F   0  0  0  0  0  0  0  0  0  0  0  0
  186.6990  176.8220  147.1620 C   0  0  0  0  0  1  0  0  0  0  0  0
  186.0550  177.5430  148.1680 O   0  0  0  0  0  0  0  0  0  0  0  0
  1 21  1  0  0  0  0
  2 17  1  0  0  0  0
  3 14  1  0  0  0  0
  4 12  1  1  0  0  0
  4  7  1  0  0  0  0
  4  9  1  0  0  0  0
  5 11  1  6  0  0  0
  5  7  1  0  0  0  0
  6 17  1  0  0  0  0
  6 16  1  1  0  0  0
  7  2  1  1  0  0  0
  8 18  1  0  0  0  0
  8 12  1  0  0  0  0
  9  6  1  0  0  0  0
 10 20  1  0  0  0  0
 13 19  1  0  0  0  0
 14 10  2  0  0  0  0
 14 18  1  0  0  0  0
 15 13  2  0  0  0  0
 15 10  1  0  0  0  0
 18  5  1  0  0  0  0
 19  1  2  0  0  0  0
 20  1  1  0  0  0  0
 20 11  2  0  0  0  0
 21 22  1  0  0  0  0
 22 23  1  0  0  0  0
 23 24  1  0  0  0  0
 24 25  1  0  0  0  0
 25 26  1  6  0  0  0
 25 28  1  0  0  0  0
 27 28  1  0  0  0  0
M  END
>  <MODEL>
1

>  <REMARK>
 VINA RESULT:      -7.3      0.000      0.000
  Name = 
  6 active torsions:
  status: ('A' for Active; 'I' for Inactive)
    1  A    between atoms: C_1  and  C_2
    2  A    between atoms: C_2  and  C_3
    3  A    between atoms: C_3  and  C_8
    4  A    between atoms: C_6  and  C_11
    5  A    between atoms: C_6  and  O_28
    6  A    between atoms: C_8  and  C_11
                            x       y       z     vdW  Elec       q    Type
                         _______ _______ _______ _____ _____    ______ ____

>  <TORSDO>
F 6

$$$$
=
 OpenBabel11052418133D

 28 31  0  0  1  0  0  0  0  0999 V2000
  189.0500  173.5080  141.9050 C   0  0  0  0  0  0  0  0  0  0  0  0
  187.2710  177.0740  145.4490 C   0  0  0  0  0  2  0  0  0  0  0  0
  186.8470  176.8930  139.1310 C   0  0  0  0  0  1  0  0  0  0  0  0
  185.4750  178.0370  143.9040 C   0  0  1  0  0  3  0  0  0  0  0  0
  187.5560  176.8220  142.9640 C   0  0  1  0  0  3  0  0  0  0  0  0
  184.9590  177.7460  146.3420 C   0  0  2  0  0  3  0  0  0  0  0  0
  186.5410  176.9260  144.1120 C   0  0  1  0  0  3  0  0  0  0  0  0
  186.1200  178.3600  141.5280 C   0  0  0  0  0  2  0  0  0  0  0  0
  185.0730  178.7480  145.1990 C   0  0  0  0  0  2  0  0  0  0  0  0
  187.9820  175.2510  140.5800 C   0  0  0  0  0  0  0  0  0  0  0  0
  188.1790  175.4580  142.9620 C   0  0  0  0  0  3  0  0  0  0  0  0
  185.9060  179.0600  142.8650 C   0  0  0  0  0  2  0  0  0  0  0  0
  188.9020  173.3280  139.5070 C   0  0  0  0  0  3  0  0  0  0  0  0
  187.2960  176.4060  140.4770 C   0  0  0  0  0  0  0  0  0  0  0  0
  188.2580  174.5230  139.4600 N   0  0  0  0  0  0  0  0  0  0  0  0
  184.4730  178.4430  147.5940 C   0  0  0  0  0  1  0  0  0  0  0  0
  186.2930  177.0420  146.6280 C   0  0  0  0  0  2  0  0  0  0  0  0
  186.9540  177.1600  141.6610 N   0  0  0  0  0  0  0  0  0  0  0  0
  189.3020  172.7980  140.7310 C   0  0  0  0  0  3  0  0  0  0  0  0
  188.3970  174.7580  141.8420 C   0  0  0  0  0  0  0  0  0  0  0  0
  189.4650  172.9020  143.2100 C   0  0  0  0  0  2  0  0  0  0  0  0
  190.9220  173.2250  143.4890 C   0  0  0  0  0  2  0  0  0  0  0  0
  191.0460  174.0160  144.7810 C   0  0  0  0  0  2  0  0  0  0  0  0
  189.8030  173.8480  145.6490 C   0  0  0  0  0  2  0  0  0  0  0  0
  189.8610  174.6940  146.9190 C   0  0  2  0  0  3  0  0  0  0  0  0
  188.6120  174.7540  147.5150 F   0  0  0  0  0  0  0  0  0  0  0  0
  191.0750  176.3510  147.7450 C   0  0  0  0  0  1  0  0  0  0  0  0
  190.3170  175.9840  146.6320 O   0  0  0  0  0  0  0  0  0  0  0  0
  1 21  1  0  0  0  0
  2 17  1  0  0  0  0
  3 14  1  0  0  0  0
  4 12  1  6  0  0  0
  4  7  1  0  0  0  0
  4  9  1  0  0  0  0
  5 11  1  6  0  0  0
  5  7  1  0  0  0  0
  6 17  1  0  0  0  0
  6 16  1  1  0  0  0
  7  2  1  1  0  0  0
  8 18  1  0  0  0  0
  8 12  1  0  0  0  0
  9  6  1  0  0  0  0
 10 20  1  0  0  0  0
 13 19  1  0  0  0  0
 14 10  2  0  0  0  0
 14 18  1  0  0  0  0
 15 13  2  0  0  0  0
 15 10  1  0  0  0  0
 18  5  1  0  0  0  0
 19  1  2  0  0  0  0
 20  1  1  0  0  0  0
 20 11  2  0  0  0  0
 21 22  1  0  0  0  0
 22 23  1  0  0  0  0
 23 24  1  0  0  0  0
 24 25  1  0  0  0  0
 25 26  1  6  0  0  0
 28 25  1  0  0  0  0
 28 27  1  0  0  0  0
M  END
>  <MODEL>
2

>  <REMARK>
 VINA RESULT:      -7.2      2.028      5.761
  Name = 
  6 active torsions:
  status: ('A' for Active; 'I' for Inactive)
    1  A    between atoms: C_1  and  C_2
    2  A    between atoms: C_2  and  C_3
    3  A    between atoms: C_3  and  C_8
    4  A    between atoms: C_6  and  C_11
    5  A    between atoms: C_6  and  O_28
    6  A    between atoms: C_8  and  C_11
                            x       y       z     vdW  Elec       q    Type
                         _______ _______ _______ _____ _____    ______ ____

>  <TORSDO>
F 6

$$$$
=
 OpenBabel11052418133D

 28 31  0  0  1  0  0  0  0  0999 V2000
  186.3290  178.0200  142.0120 C   0  0  0  0  0  0  0  0  0  0  0  0
  188.7310  176.8320  146.6220 C   0  0  0  0  0  2  0  0  0  0  0  0
  189.3040  174.3070  140.8400 C   0  0  0  0  0  1  0  0  0  0  0  0
  190.7430  175.6900  145.5300 C   0  0  1  0  0  3  0  0  0  0  0  0
  188.4770  175.9030  144.3000 C   0  0  1  0  0  3  0  0  0  0  0  0
  191.1050  177.1220  147.5580 C   0  0  2  0  0  3  0  0  0  0  0  0
  189.4540  176.5280  145.3070 C   0  0  1  0  0  3  0  0  0  0  0  0
  190.2590  174.2300  143.5810 C   0  0  0  0  0  2  0  0  0  0  0  0
  191.2490  175.7200  146.9750 C   0  0  0  0  0  2  0  0  0  0  0  0
  187.7930  176.1400  141.5060 C   0  0  0  0  0  0  0  0  0  0  0  0
  187.5720  176.9630  143.7480 C   0  0  0  0  0  3  0  0  0  0  0  0
  190.5780  174.2490  145.0710 C   0  0  0  0  0  2  0  0  0  0  0  0
  186.5100  177.1570  139.7700 C   0  0  0  0  0  3  0  0  0  0  0  0
  188.7180  175.2290  141.8690 C   0  0  0  0  0  0  0  0  0  0  0  0
  187.4000  176.2270  140.2020 N   0  0  0  0  0  0  0  0  0  0  0  0
  191.6920  177.1640  148.9520 C   0  0  0  0  0  1  0  0  0  0  0  0
  189.6420  177.5830  147.6000 C   0  0  0  0  0  2  0  0  0  0  0  0
  189.1790  175.1620  143.2360 N   0  0  0  0  0  0  0  0  0  0  0  0
  185.9660  178.0730  140.6660 C   0  0  0  0  0  3  0  0  0  0  0  0
  187.2420  177.0380  142.4530 C   0  0  0  0  0  0  0  0  0  0  0  0
  185.7520  179.0360  142.9490 C   0  0  0  0  0  2  0  0  0  0  0  0
  184.3320  178.6460  143.3200 C   0  0  0  0  0  2  0  0  0  0  0  0
  184.0320  179.0580  144.7520 C   0  0  0  0  0  2  0  0  0  0  0  0
  185.2910  179.0050  145.6130 C   0  0  0  0  0  2  0  0  0  0  0  0
  185.2780  177.8320  146.5910 C   0  0  2  0  0  3  0  0  0  0  0  0
  184.0900  177.1290  146.4830 F   0  0  0  0  0  0  0  0  0  0  0  0
  186.1890  179.4600  147.7840 C   0  0  0  0  0  1  0  0  0  0  0  0
  185.4520  178.2810  147.9030 O   0  0  0  0  0  0  0  0  0  0  0  0
  1 20  1  0  0  0  0
  1 21  1  0  0  0  0
  2 17  1  0  0  0  0
  3 14  1  0  0  0  0
  4 12  1  1  0  0  0
  4  9  1  0  0  0  0
  5 11  1  6  0  0  0
  5  7  1  0  0  0  0
  6 17  1  0  0  0  0
  6 16  1  1  0  0  0
  7  4  1  0  0  0  0
  7  2  1  1  0  0  0
  8 12  1  0  0  0  0
  9  6  1  0  0  0  0
 10 14  2  0  0  0  0
 10 20  1  0  0  0  0
 13 15  2  0  0  0  0
 13 19  1  0  0  0  0
 14 18  1  0  0  0  0
 15 10  1  0  0  0  0
 18  8  1  0  0  0  0
 18  5  1  0  0  0  0
 19  1  2  0  0  0  0
 20 11  2  0  0  0  0
 21 22  1  0  0  0  0
 22 23  1  0  0  0  0
 23 24  1  0  0  0  0
 24 25  1  0  0  0  0
 25 26  1  1  0  0  0
 25 28  1  0  0  0  0
 27 28  1  0  0  0  0
M  END
>  <MODEL>
3

>  <REMARK>
 VINA RESULT:      -7.2      1.416      1.806
  Name = 
  6 active torsions:
  status: ('A' for Active; 'I' for Inactive)
    1  A    between atoms: C_1  and  C_2
    2  A    between atoms: C_2  and  C_3
    3  A    between atoms: C_3  and  C_8
    4  A    between atoms: C_6  and  C_11
    5  A    between atoms: C_6  and  O_28
    6  A    between atoms: C_8  and  C_11
                            x       y       z     vdW  Elec       q    Type
                         _______ _______ _______ _____ _____    ______ ____

>  <TORSDO>
F 6

$$$$
=
 OpenBabel11052418133D

 28 31  0  0  1  0  0  0  0  0999 V2000
  185.9420  177.9450  141.5320 C   0  0  0  0  0  0  0  0  0  0  0  0
  190.2250  177.3440  144.6500 C   0  0  0  0  0  2  0  0  0  0  0  0
  184.1440  178.4130  146.0660 C   0  0  0  0  0  1  0  0  0  0  0  0
  188.8900  176.6760  146.7270 C   0  0  1  0  0  3  0  0  0  0  0  0
  187.8200  178.0550  144.8170 C   0  0  1  0  0  3  0  0  0  0  0  0
  191.0630  175.5170  146.2500 C   0  0  2  0  0  3  0  0  0  0  0  0
  188.8460  176.9790  145.2040 C   0  0  1  0  0  3  0  0  0  0  0  0
  186.7970  177.9440  147.1480 C   0  0  0  0  0  2  0  0  0  0  0  0
  190.2970  176.3760  147.2500 C   0  0  0  0  0  2  0  0  0  0  0  0
  185.1200  178.2170  143.8090 C   0  0  0  0  0  0  0  0  0  0  0  0
  187.4590  177.9130  143.3690 C   0  0  0  0  0  3  0  0  0  0  0  0
  188.2580  177.7860  147.5520 C   0  0  0  0  0  2  0  0  0  0  0  0
  183.6010  178.3070  141.9710 C   0  0  0  0  0  3  0  0  0  0  0  0
  185.3130  178.2290  145.1430 C   0  0  0  0  0  0  0  0  0  0  0  0
  183.8620  178.3610  143.3030 N   0  0  0  0  0  0  0  0  0  0  0  0
  192.4180  175.1500  146.8150 C   0  0  0  0  0  1  0  0  0  0  0  0
  191.2420  176.2240  144.8990 C   0  0  0  0  0  2  0  0  0  0  0  0
  186.6330  178.0260  145.6910 N   0  0  0  0  0  0  0  0  0  0  0  0
  184.6360  178.0910  141.0650 C   0  0  0  0  0  3  0  0  0  0  0  0
  186.2040  178.0220  142.9170 C   0  0  0  0  0  0  0  0  0  0  0  0
  187.0320  177.6850  140.5380 C   0  0  0  0  0  2  0  0  0  0  0  0
  187.1370  176.1940  140.2670 C   0  0  0  0  0  2  0  0  0  0  0  0
  188.3390  175.6120  140.9930 C   0  0  0  0  0  2  0  0  0  0  0  0
  187.9120  174.5300  141.9810 C   0  0  0  0  0  2  0  0  0  0  0  0
  189.1050  173.8010  142.5960 C   0  0  2  0  0  3  0  0  0  0  0  0
  189.1050  173.9540  143.9720 F   0  0  0  0  0  0  0  0  0  0  0  0
  191.2520  173.3040  142.3820 C   0  0  0  0  0  1  0  0  0  0  0  0
  190.3050  174.2770  142.0600 O   0  0  0  0  0  0  0  0  0  0  0  0
  1 20  1  0  0  0  0
  2 17  1  0  0  0  0
  4  9  1  1  0  0  0
  4 12  1  0  0  0  0
  5 11  1  6  0  0  0
  5  7  1  0  0  0  0
  5 18  1  0  0  0  0
  6 16  1  1  0  0  0
  6  9  1  0  0  0  0
  7  2  1  1  0  0  0
  7  4  1  0  0  0  0
  8 12  1  0  0  0  0
 10 14  2  0  0  0  0
 13 15  2  0  0  0  0
 14 18  1  0  0  0  0
 14  3  1  0  0  0  0
 15 10  1  0  0  0  0
 17  6  1  0  0  0  0
 18  8  1  0  0  0  0
 19  1  2  0  0  0  0
 19 13  1  0  0  0  0
 20 11  2  0  0  0  0
 20 10  1  0  0  0  0
 21  1  1  0  0  0  0
 22 21  1  0  0  0  0
 22 23  1  0  0  0  0
 23 24  1  0  0  0  0
 24 25  1  0  0  0  0
 25 26  1  1  0  0  0
 28 27  1  0  0  0  0
 28 25  1  0  0  0  0
M  END
>  <MODEL>
4

>  <REMARK>
 VINA RESULT:      -7.2      2.734      4.997
  Name = 
  6 active torsions:
  status: ('A' for Active; 'I' for Inactive)
    1  A    between atoms: C_1  and  C_2
    2  A    between atoms: C_2  and  C_3
    3  A    between atoms: C_3  and  C_8
    4  A    between atoms: C_6  and  C_11
    5  A    between atoms: C_6  and  O_28
    6  A    between atoms: C_8  and  C_11
                            x       y       z     vdW  Elec       q    Type
                         _______ _______ _______ _____ _____    ______ ____

>  <TORSDO>
F 6

$$$$
=
 OpenBabel11052418133D

 28 31  0  0  1  0  0  0  0  0999 V2000
  190.7820  173.2380  143.3560 C   0  0  0  0  0  0  0  0  0  0  0  0
  187.6760  177.1870  145.1410 C   0  0  0  0  0  2  0  0  0  0  0  0
  188.2440  174.5930  139.3890 C   0  0  0  0  0  1  0  0  0  0  0  0
  185.9450  176.9630  143.2710 C   0  0  1  0  0  3  0  0  0  0  0  0
  188.3770  176.1350  142.9680 C   0  0  1  0  0  3  0  0  0  0  0  0
  185.1640  177.4510  145.6050 C   0  0  2  0  0  3  0  0  0  0  0  0
  187.2100  176.3590  143.9410 C   0  0  1  0  0  3  0  0  0  0  0  0
  186.8320  176.5630  140.9870 C   0  0  0  0  0  2  0  0  0  0  0  0
  185.1940  177.9530  144.1660 C   0  0  0  0  0  2  0  0  0  0  0  0
  189.5240  173.9920  141.4120 C   0  0  0  0  0  0  0  0  0  0  0  0
  189.3110  175.1040  143.5260 C   0  0  0  0  0  3  0  0  0  0  0  0
  186.2580  177.6120  141.9320 C   0  0  0  0  0  2  0  0  0  0  0  0
  191.0380  172.1570  141.2170 C   0  0  0  0  0  3  0  0  0  0  0  0
  188.5960  174.7820  140.8360 C   0  0  0  0  0  0  0  0  0  0  0  0
  190.1330  173.0150  140.6790 N   0  0  0  0  0  0  0  0  0  0  0  0
  184.3420  178.3890  146.4630 C   0  0  0  0  0  1  0  0  0  0  0  0
  186.5730  177.3120  146.1970 C   0  0  0  0  0  2  0  0  0  0  0  0
  187.9080  175.7860  141.6140 N   0  0  0  0  0  0  0  0  0  0  0  0
  191.3710  172.2500  142.5660 C   0  0  0  0  0  3  0  0  0  0  0  0
  189.8570  174.1350  142.7810 C   0  0  0  0  0  0  0  0  0  0  0  0
  191.1370  173.2970  144.8090 C   0  0  0  0  0  2  0  0  0  0  0  0
  192.4760  173.9920  144.9860 C   0  0  0  0  0  2  0  0  0  0  0  0
  192.4870  174.7870  146.2820 C   0  0  0  0  0  2  0  0  0  0  0  0
  191.7550  176.1150  146.1170 C   0  0  0  0  0  2  0  0  0  0  0  0
  190.6080  176.2750  147.1130 C   0  0  2  0  0  3  0  0  0  0  0  0
  190.8920  177.2860  148.0160 F   0  0  0  0  0  0  0  0  0  0  0  0
  189.0750  174.7120  147.4420 C   0  0  0  0  0  1  0  0  0  0  0  0
  190.3750  175.0770  147.7940 O   0  0  0  0  0  0  0  0  0  0  0  0
  1 21  1  0  0  0  0
  2 17  1  0  0  0  0
  3 14  1  0  0  0  0
  4 12  1  6  0  0  0
  4  7  1  0  0  0  0
  4  9  1  0  0  0  0
  5 11  1  1  0  0  0
  5  7  1  0  0  0  0
  6 17  1  0  0  0  0
  6 16  1  1  0  0  0
  7  2  1  1  0  0  0
  8 18  1  0  0  0  0
  8 12  1  0  0  0  0
  9  6  1  0  0  0  0
 10 20  1  0  0  0  0
 13 19  1  0  0  0  0
 14 10  2  0  0  0  0
 14 18  1  0  0  0  0
 15 13  2  0  0  0  0
 15 10  1  0  0  0  0
 18  5  1  0  0  0  0
 19  1  2  0  0  0  0
 20  1  1  0  0  0  0
 20 11  2  0  0  0  0
 21 22  1  0  0  0  0
 22 23  1  0  0  0  0
 24 23  1  0  0  0  0
 24 25  1  0  0  0  0
 25 28  1  0  0  0  0
 25 26  1  1  0  0  0
 27 28  1  0  0  0  0
M  END
>  <MODEL>
5

>  <REMARK>
 VINA RESULT:      -7.0      1.946      5.957
  Name = 
  6 active torsions:
  status: ('A' for Active; 'I' for Inactive)
    1  A    between atoms: C_1  and  C_2
    2  A    between atoms: C_2  and  C_3
    3  A    between atoms: C_3  and  C_8
    4  A    between atoms: C_6  and  C_11
    5  A    between atoms: C_6  and  O_28
    6  A    between atoms: C_8  and  C_11
                            x       y       z     vdW  Elec       q    Type
                         _______ _______ _______ _____ _____    ______ ____

>  <TORSDO>
F 6

$$$$
=
 OpenBabel11052418133D

 28 31  0  0  1  0  0  0  0  0999 V2000
  186.9400  177.8090  142.5570 C   0  0  0  0  0  0  0  0  0  0  0  0
  191.9110  176.8130  144.2090 C   0  0  0  0  0  2  0  0  0  0  0  0
  186.5110  177.5750  147.4320 C   0  0  0  0  0  1  0  0  0  0  0  0
  191.1980  175.8260  146.4590 C   0  0  1  0  0  3  0  0  0  0  0  0
  189.6730  177.4580  145.1540 C   0  0  1  0  0  3  0  0  0  0  0  0
  193.1140  174.7820  145.2210 C   0  0  2  0  0  3  0  0  0  0  0  0
  190.7350  176.3510  145.0720 C   0  0  1  0  0  3  0  0  0  0  0  0
  189.3470  176.9890  147.6370 C   0  0  0  0  0  2  0  0  0  0  0  0
  192.6870  175.4730  146.5110 C   0  0  0  0  0  2  0  0  0  0  0  0
  186.8040  177.7290  144.9870 C   0  0  0  0  0  0  0  0  0  0  0  0
  188.9130  177.5260  143.8630 C   0  0  0  0  0  3  0  0  0  0  0  0
  190.8580  176.7930  147.5820 C   0  0  0  0  0  2  0  0  0  0  0  0
  184.8300  178.0690  143.6900 C   0  0  0  0  0  3  0  0  0  0  0  0
  187.3650  177.5460  146.1990 C   0  0  0  0  0  0  0  0  0  0  0  0
  185.4580  177.9290  144.8860 N   0  0  0  0  0  0  0  0  0  0  0  0
  194.5620  174.3540  145.3190 C   0  0  0  0  0  1  0  0  0  0  0  0
  192.9240  175.6830  143.9930 C   0  0  0  0  0  2  0  0  0  0  0  0
  188.7810  177.2830  146.3150 N   0  0  0  0  0  0  0  0  0  0  0  0
  185.5600  178.0030  142.5060 C   0  0  0  0  0  3  0  0  0  0  0  0
  187.5850  177.6830  143.8070 C   0  0  0  0  0  0  0  0  0  0  0  0
  187.6970  177.7130  141.2680 C   0  0  0  0  0  2  0  0  0  0  0  0
  187.4020  176.3850  140.5940 C   0  0  0  0  0  2  0  0  0  0  0  0
  188.4370  175.3490  141.0000 C   0  0  0  0  0  2  0  0  0  0  0  0
  187.8600  174.3650  142.0140 C   0  0  0  0  0  2  0  0  0  0  0  0
  188.9400  173.7200  142.8780 C   0  0  2  0  0  3  0  0  0  0  0  0
  190.1870  174.2250  142.5480 F   0  0  0  0  0  0  0  0  0  0  0  0
  190.0790  172.0430  141.9860 C   0  0  0  0  0  1  0  0  0  0  0  0
  188.9310  172.3300  142.7260 O   0  0  0  0  0  0  0  0  0  0  0  0
  1 20  1  0  0  0  0
  4  9  1  6  0  0  0
  4 12  1  0  0  0  0
  5 11  1  6  0  0  0
  5 18  1  0  0  0  0
  6 16  1  1  0  0  0
  6  9  1  0  0  0  0
  7  2  1  1  0  0  0
  7  5  1  0  0  0  0
  7  4  1  0  0  0  0
 10 14  2  0  0  0  0
 12  8  1  0  0  0  0
 13 15  2  0  0  0  0
 14 18  1  0  0  0  0
 14  3  1  0  0  0  0
 15 10  1  0  0  0  0
 17  2  1  0  0  0  0
 17  6  1  0  0  0  0
 18  8  1  0  0  0  0
 19  1  2  0  0  0  0
 19 13  1  0  0  0  0
 20 11  2  0  0  0  0
 20 10  1  0  0  0  0
 21  1  1  0  0  0  0
 22 23  1  0  0  0  0
 22 21  1  0  0  0  0
 23 24  1  0  0  0  0
 24 25  1  0  0  0  0
 25 26  1  6  0  0  0
 27 28  1  0  0  0  0
 28 25  1  0  0  0  0
M  END
>  <MODEL>
6

>  <REMARK>
 VINA RESULT:      -6.8      2.857      4.894
  Name = 
  6 active torsions:
  status: ('A' for Active; 'I' for Inactive)
    1  A    between atoms: C_1  and  C_2
    2  A    between atoms: C_2  and  C_3
    3  A    between atoms: C_3  and  C_8
    4  A    between atoms: C_6  and  C_11
    5  A    between atoms: C_6  and  O_28
    6  A    between atoms: C_8  and  C_11
                            x       y       z     vdW  Elec       q    Type
                         _______ _______ _______ _____ _____    ______ ____

>  <TORSDO>
F 6

$$$$
=
 OpenBabel11052418133D

 28 31  0  0  1  0  0  0  0  0999 V2000
  191.8610  174.0930  144.6980 C   0  0  0  0  0  0  0  0  0  0  0  0
  187.9720  177.5830  145.7610 C   0  0  0  0  0  2  0  0  0  0  0  0
  189.1910  174.1320  140.5900 C   0  0  0  0  0  1  0  0  0  0  0  0
  186.3670  176.6630  143.9950 C   0  0  1  0  0  3  0  0  0  0  0  0
  188.9230  176.3100  143.8130 C   0  0  1  0  0  3  0  0  0  0  0  0
  185.4500  177.4080  146.2090 C   0  0  2  0  0  3  0  0  0  0  0  0
  187.7130  176.4680  144.7460 C   0  0  1  0  0  3  0  0  0  0  0  0
  187.3690  176.0340  141.8120 C   0  0  0  0  0  2  0  0  0  0  0  0
  185.4090  177.6280  144.7000 C   0  0  0  0  0  2  0  0  0  0  0  0
  190.5200  174.1960  142.6680 C   0  0  0  0  0  0  0  0  0  0  0  0
  190.0350  175.6160  144.5400 C   0  0  0  0  0  3  0  0  0  0  0  0
  186.5710  177.1000  142.5530 C   0  0  0  0  0  2  0  0  0  0  0  0
  192.3810  172.7080  142.7970 C   0  0  0  0  0  3  0  0  0  0  0  0
  189.4630  174.6570  141.9690 C   0  0  0  0  0  0  0  0  0  0  0  0
  191.3320  173.2450  142.1220 N   0  0  0  0  0  0  0  0  0  0  0  0
  184.4330  178.3000  146.8880 C   0  0  0  0  0  1  0  0  0  0  0  0
  186.8430  177.6740  146.7930 C   0  0  0  0  0  2  0  0  0  0  0  0
  188.5670  175.6250  142.5570 N   0  0  0  0  0  0  0  0  0  0  0  0
  192.6580  173.1180  144.0990 C   0  0  0  0  0  3  0  0  0  0  0  0
  190.7850  174.6580  143.9800 C   0  0  0  0  0  0  0  0  0  0  0  0
  192.1630  174.4940  146.1090 C   0  0  0  0  0  2  0  0  0  0  0  0
  193.6480  174.7780  146.2590 C   0  0  0  0  0  2  0  0  0  0  0  0
  193.8970  176.2780  146.2660 C   0  0  0  0  0  2  0  0  0  0  0  0
  194.2070  176.7890  144.8620 C   0  0  0  0  0  2  0  0  0  0  0  0
  195.4820  176.1750  144.2880 C   0  0  2  0  0  3  0  0  0  0  0  0
  196.3330  177.1700  143.8340 F   0  0  0  0  0  0  0  0  0  0  0  0
  194.4210  176.0400  142.3500 C   0  0  0  0  0  1  0  0  0  0  0  0
  195.1810  175.2910  143.2490 O   0  0  0  0  0  0  0  0  0  0  0  0
  1 21  1  0  0  0  0
  2 17  1  0  0  0  0
  3 14  1  0  0  0  0
  4 12  1  6  0  0  0
  4  9  1  0  0  0  0
  4  7  1  0  0  0  0
  5 11  1  1  0  0  0
  5  7  1  0  0  0  0
  6 17  1  0  0  0  0
  6 16  1  1  0  0  0
  7  2  1  1  0  0  0
  8 12  1  0  0  0  0
  8 18  1  0  0  0  0
  9  6  1  0  0  0  0
 10 20  1  0  0  0  0
 13 19  1  0  0  0  0
 14 18  1  0  0  0  0
 14 10  2  0  0  0  0
 15 10  1  0  0  0  0
 15 13  2  0  0  0  0
 18  5  1  0  0  0  0
 19  1  2  0  0  0  0
 20 11  2  0  0  0  0
 20  1  1  0  0  0  0
 21 22  1  0  0  0  0
 22 23  1  0  0  0  0
 24 23  1  0  0  0  0
 25 26  1  6  0  0  0
 25 24  1  0  0  0  0
 27 28  1  0  0  0  0
 28 25  1  0  0  0  0
M  END
>  <MODEL>
7

>  <REMARK>
 VINA RESULT:      -6.8      3.296      7.156
  Name = 
  6 active torsions:
  status: ('A' for Active; 'I' for Inactive)
    1  A    between atoms: C_1  and  C_2
    2  A    between atoms: C_2  and  C_3
    3  A    between atoms: C_3  and  C_8
    4  A    between atoms: C_6  and  C_11
    5  A    between atoms: C_6  and  O_28
    6  A    between atoms: C_8  and  C_11
                            x       y       z     vdW  Elec       q    Type
                         _______ _______ _______ _____ _____    ______ ____

>  <TORSDO>
F 6

$$$$
=
 OpenBabel11052418133D

 28 31  0  0  1  0  0  0  0  0999 V2000
  186.2680  177.6760  146.1480 C   0  0  0  0  0  0  0  0  0  0  0  0
  188.8320  174.5650  142.6580 C   0  0  0  0  0  2  0  0  0  0  0  0
  190.8110  177.4050  147.9630 C   0  0  0  0  0  1  0  0  0  0  0  0
  190.6680  173.8680  144.2970 C   0  0  1  0  0  3  0  0  0  0  0  0
  189.3300  176.0580  144.6170 C   0  0  1  0  0  3  0  0  0  0  0  0
  189.7500  172.1660  142.6980 C   0  0  2  0  0  3  0  0  0  0  0  0
  189.3160  174.6090  144.1090 C   0  0  1  0  0  3  0  0  0  0  0  0
  191.5630  175.6510  145.7750 C   0  0  0  0  0  2  0  0  0  0  0  0
  191.0020  172.9080  143.1510 C   0  0  0  0  0  2  0  0  0  0  0  0
  188.5560  177.5410  146.9700 C   0  0  0  0  0  0  0  0  0  0  0  0
  187.9280  176.5100  144.8970 C   0  0  0  0  0  3  0  0  0  0  0  0
  191.8250  174.8300  144.5180 C   0  0  0  0  0  2  0  0  0  0  0  0
  186.9140  178.7580  148.2010 C   0  0  0  0  0  3  0  0  0  0  0  0
  189.8190  177.0750  146.8870 C   0  0  0  0  0  0  0  0  0  0  0  0
  188.1830  178.3030  148.0390 N   0  0  0  0  0  0  0  0  0  0  0  0
  190.1070  171.1550  141.6300 C   0  0  0  0  0  1  0  0  0  0  0  0
  188.6740  173.1220  142.1640 C   0  0  0  0  0  2  0  0  0  0  0  0
  190.2110  176.2250  145.7870 N   0  0  0  0  0  0  0  0  0  0  0  0
  185.9340  178.4450  147.2620 C   0  0  0  0  0  3  0  0  0  0  0  0
  187.5950  177.2240  145.9800 C   0  0  0  0  0  0  0  0  0  0  0  0
  185.1890  177.3300  145.1690 C   0  0  0  0  0  2  0  0  0  0  0  0
  184.5020  178.5970  144.6880 C   0  0  0  0  0  2  0  0  0  0  0  0
  185.2770  179.2070  143.5320 C   0  0  0  0  0  2  0  0  0  0  0  0
  185.2340  178.3010  142.3040 C   0  0  0  0  0  2  0  0  0  0  0  0
  186.6210  177.8160  141.8900 C   0  0  2  0  0  3  0  0  0  0  0  0
  187.5960  178.6660  142.3860 F   0  0  0  0  0  0  0  0  0  0  0  0
  185.4180  177.9160  140.0350 C   0  0  0  0  0  1  0  0  0  0  0  0
  186.7210  177.7320  140.4990 O   0  0  0  0  0  0  0  0  0  0  0  0
  1 19  2  0  0  0  0
  4  9  1  6  0  0  0
  4 12  1  0  0  0  0
  5 11  1  1  0  0  0
  5 18  1  0  0  0  0
  6 16  1  6  0  0  0
  6  9  1  0  0  0  0
  7  2  1  6  0  0  0
  7  4  1  0  0  0  0
  7  5  1  0  0  0  0
  8 18  1  0  0  0  0
 10 15  1  0  0  0  0
 11 20  2  0  0  0  0
 12  8  1  0  0  0  0
 14 10  2  0  0  0  0
 14  3  1  0  0  0  0
 15 13  2  0  0  0  0
 17  2  1  0  0  0  0
 17  6  1  0  0  0  0
 18 14  1  0  0  0  0
 19 13  1  0  0  0  0
 20  1  1  0  0  0  0
 20 10  1  0  0  0  0
 21  1  1  0  0  0  0
 22 21  1  0  0  0  0
 23 22  1  0  0  0  0
 24 23  1  0  0  0  0
 25 24  1  0  0  0  0
 25 26  1  6  0  0  0
 27 28  1  0  0  0  0
 28 25  1  0  0  0  0
M  END
>  <MODEL>
8

>  <REMARK>
 VINA RESULT:      -6.6      2.689      5.117
  Name = 
  6 active torsions:
  status: ('A' for Active; 'I' for Inactive)
    1  A    between atoms: C_1  and  C_2
    2  A    between atoms: C_2  and  C_3
    3  A    between atoms: C_3  and  C_8
    4  A    between atoms: C_6  and  C_11
    5  A    between atoms: C_6  and  O_28
    6  A    between atoms: C_8  and  C_11
                            x       y       z     vdW  Elec       q    Type
                         _______ _______ _______ _____ _____    ______ ____

>  <TORSDO>
F 6

$$$$
=
 OpenBabel11052418133D

 28 31  0  0  1  0  0  0  0  0999 V2000
  193.5040  176.1230  143.8770 C   0  0  0  0  0  0  0  0  0  0  0  0
  188.3490  176.4540  142.5550 C   0  0  0  0  0  2  0  0  0  0  0  0
  191.2470  176.7530  148.1800 C   0  0  0  0  0  1  0  0  0  0  0  0
  187.6580  177.6900  144.6850 C   0  0  1  0  0  3  0  0  0  0  0  0
  189.7900  176.2270  144.6020 C   0  0  1  0  0  3  0  0  0  0  0  0
  186.6070  178.3410  142.5020 C   0  0  2  0  0  3  0  0  0  0  0  0
  188.8360  177.1500  143.8290 C   0  0  1  0  0  3  0  0  0  0  0  0
  188.6980  176.9090  146.8010 C   0  0  0  0  0  2  0  0  0  0  0  0
  186.3440  177.8140  143.9080 C   0  0  0  0  0  2  0  0  0  0  0  0
  192.3170  176.3890  145.9870 C   0  0  0  0  0  0  0  0  0  0  0  0
  191.1230  176.1880  143.9170 C   0  0  0  0  0  3  0  0  0  0  0  0
  187.4370  176.8660  145.9440 C   0  0  0  0  0  2  0  0  0  0  0  0
  194.7010  176.2690  145.9630 C   0  0  0  0  0  3  0  0  0  0  0  0
  191.1820  176.5660  146.6930 C   0  0  0  0  0  0  0  0  0  0  0  0
  193.5220  176.3920  146.6270 N   0  0  0  0  0  0  0  0  0  0  0  0
  185.2960  178.5470  141.7740 C   0  0  0  0  0  1  0  0  0  0  0  0
  187.5060  177.3970  141.6900 C   0  0  0  0  0  2  0  0  0  0  0  0
  189.9060  176.6160  146.0200 N   0  0  0  0  0  0  0  0  0  0  0  0
  194.7110  176.1400  144.5770 C   0  0  0  0  0  3  0  0  0  0  0  0
  192.2850  176.2340  144.5800 C   0  0  0  0  0  0  0  0  0  0  0  0
  193.5450  176.0130  142.3840 C   0  0  0  0  0  2  0  0  0  0  0  0
  194.1570  174.6820  141.9820 C   0  0  0  0  0  2  0  0  0  0  0  0
  193.1390  173.5660  142.1450 C   0  0  0  0  0  2  0  0  0  0  0  0
  193.6390  172.5060  143.1220 C   0  0  0  0  0  2  0  0  0  0  0  0
  192.7420  172.3770  144.3510 C   0  0  2  0  0  3  0  0  0  0  0  0
  191.5040  172.9470  144.1040 F   0  0  0  0  0  0  0  0  0  0  0  0
  194.6340  172.4740  145.4960 C   0  0  0  0  0  1  0  0  0  0  0  0
  193.3350  172.9820  145.4620 O   0  0  0  0  0  0  0  0  0  0  0  0
  1 19  2  0  0  0  0
  1 20  1  0  0  0  0
  4  9  1  6  0  0  0
  4 12  1  0  0  0  0
  5 11  1  6  0  0  0
  5 18  1  0  0  0  0
  6 16  1  6  0  0  0
  6  9  1  0  0  0  0
  7  2  1  6  0  0  0
  7  5  1  0  0  0  0
  7  4  1  0  0  0  0
 10 15  1  0  0  0  0
 10 14  2  0  0  0  0
 11 20  2  0  0  0  0
 12  8  1  0  0  0  0
 13 15  2  0  0  0  0
 14  3  1  0  0  0  0
 17  6  1  0  0  0  0
 17  2  1  0  0  0  0
 18 14  1  0  0  0  0
 18  8  1  0  0  0  0
 19 13  1  0  0  0  0
 20 10  1  0  0  0  0
 21  1  1  0  0  0  0
 22 23  1  0  0  0  0
 22 21  1  0  0  0  0
 23 24  1  0  0  0  0
 24 25  1  0  0  0  0
 25 26  1  6  0  0  0
 25 28  1  0  0  0  0
 28 27  1  0  0  0  0
M  END
>  <MODEL>
9

>  <REMARK>
 VINA RESULT:      -6.6      3.311      7.826
  Name = 
  6 active torsions:
  status: ('A' for Active; 'I' for Inactive)
    1  A    between atoms: C_1  and  C_2
    2  A    between atoms: C_2  and  C_3
    3  A    between atoms: C_3  and  C_8
    4  A    between atoms: C_6  and  C_11
    5  A    between atoms: C_6  and  O_28
    6  A    between atoms: C_8  and  C_11
                            x       y       z     vdW  Elec       q    Type
                         _______ _______ _______ _____ _____    ______ ____

>  <TORSDO>
F 6

$$$$
