=
 OpenBabel11052420263D

 34 37  0  0  0  0  0  0  0  0999 V2000
  186.5580  176.8910  143.1400 C   0  0  0  0  0  0  0  0  0  0  0  0
  188.2400  175.2400  140.2650 C   0  0  0  0  0  3  0  0  0  0  0  0
  186.4740  176.8350  140.3540 N   0  0  0  0  0  0  0  0  0  0  0  0
  186.2450  177.6650  145.4810 C   0  0  0  0  0  0  0  0  0  0  0  0
  186.5890  176.8000  144.5750 N   0  0  0  0  0  0  0  0  0  0  0  0
  185.0570  179.4020  144.1510 C   0  0  0  0  0  3  0  0  0  0  0  0
  183.3890  178.8090  142.4660 C   0  0  0  0  0  1  0  0  0  0  0  0
  185.7700  179.0250  145.2030 C   0  0  0  0  0  3  0  0  0  0  0  0
  185.6090  177.6280  141.0340 C   0  0  0  0  0  3  0  0  0  0  0  0
  185.6210  177.6810  142.4370 C   0  0  0  0  0  0  0  0  0  0  0  0
  184.6640  178.5180  143.1050 N   0  0  0  0  0  0  0  0  0  0  0  0
  189.1630  174.4240  140.9230 C   0  0  0  0  0  0  0  0  0  0  0  0
  189.2310  174.4300  142.3180 C   0  0  0  0  0  3  0  0  0  0  0  0
  187.3770  176.0580  140.9990 C   0  0  0  0  0  0  0  0  0  0  0  0
  188.3700  175.2430  143.0580 C   0  0  0  0  0  3  0  0  0  0  0  0
  187.4340  176.0640  142.4100 C   0  0  0  0  0  0  0  0  0  0  0  0
  186.4880  177.2250  147.1970 S   0  0  0  0  0  0  0  0  0  0  0  0
  189.6010  174.6940  147.0780 C   0  0  0  0  0  3  0  0  0  0  0  0
  189.0600  177.2600  146.1830 C   0  0  0  0  0  3  0  0  0  0  0  0
  190.5920  175.4000  146.3890 C   0  0  0  0  0  0  0  0  0  0  0  0
  190.3240  176.7020  145.9410 C   0  0  0  0  0  0  0  0  0  0  0  0
  188.0980  176.5190  146.8720 C   0  0  0  0  0  0  0  0  0  0  0  0
  188.3860  175.2610  147.3020 N   0  0  0  0  0  0  0  0  0  0  0  0
  191.3170  177.4220  145.2660 O   0  0  0  0  0  0  0  0  0  0  0  0
  191.1670  177.8660  143.9260 C   0  0  0  0  0  1  0  0  0  0  0  0
  191.9280  174.7730  146.1770 C   0  0  0  0  0  2  0  0  0  0  0  0
  191.9620  174.1220  144.8770 N   0  0  0  0  0  2  0  0  0  0  0  0
  192.8990  174.4970  143.8690 C   0  0  0  0  0  0  0  0  0  0  0  0
  192.8740  173.8120  142.5510 C   0  0  0  0  0  1  0  0  0  0  0  0
  193.7540  175.3950  144.0890 O   0  0  0  0  0  0  0  0  0  0  0  0
  190.0930  173.5660  140.1350 C   0  0  0  0  0  2  0  0  0  0  0  0
  189.2110  171.8620  138.8060 C   0  0  0  0  0  1  0  0  0  0  0  0
  190.8050  171.3680  140.4280 C   0  0  0  0  0  1  0  0  0  0  0  0
  189.6380  172.1870  140.1550 N   0  0  0  0  0  0  0  0  0  0  0  0
  1  5  1  0  0  0  0
  2 12  2  0  0  0  0
  2 14  1  0  0  0  0
  3 14  2  0  0  0  0
  3  9  1  0  0  0  0
  4 17  1  0  0  0  0
  5  4  2  0  0  0  0
  6  8  2  0  0  0  0
  7 11  1  0  0  0  0
  8  4  1  0  0  0  0
  9 10  2  0  0  0  0
 10 11  1  0  0  0  0
 10  1  1  0  0  0  0
 11  6  1  0  0  0  0
 12 13  1  0  0  0  0
 13 15  2  0  0  0  0
 14 16  1  0  0  0  0
 16 15  1  0  0  0  0
 16  1  2  0  0  0  0
 18 23  1  0  0  0  0
 19 22  1  0  0  0  0
 20 18  2  0  0  0  0
 21 19  2  0  0  0  0
 21 20  1  0  0  0  0
 22 17  1  0  0  0  0
 22 23  2  0  0  0  0
 24 21  1  0  0  0  0
 25 24  1  0  0  0  0
 26 20  1  0  0  0  0
 27 26  1  0  0  0  0
 28 30  2  0  0  0  0
 28 27  1  0  0  0  0
 29 28  1  0  0  0  0
 31 34  1  0  0  0  0
 31 12  1  0  0  0  0
 32 34  1  0  0  0  0
 34 33  1  0  0  0  0
M  END
>  <MODEL>
1

>  <REMARK>
 VINA RESULT:      -6.7      0.000      0.000
  Name = 
  7 active torsions:
  status: ('A' for Active; 'I' for Inactive)
    1  A    between atoms: N_7  and  C_14
    2  A    between atoms: C_8  and  S_18
    3  A    between atoms: C_14  and  C_16
    4  A    between atoms: S_18  and  C_30
    5  A    between atoms: C_23  and  N_24
    6  A    between atoms: C_23  and  C_25
    7  A    between atoms: O_26  and  C_28
                            x       y       z     vdW  Elec       q    Type
                         _______ _______ _______ _____ _____    ______ ____

>  <TORSDO>
F 7

$$$$
=
 OpenBabel11052420263D

 34 37  0  0  0  0  0  0  0  0999 V2000
  189.5590  173.9610  141.1640 C   0  0  0  0  0  0  0  0  0  0  0  0
  187.0660  176.6410  140.5140 C   0  0  0  0  0  3  0  0  0  0  0  0
  187.8770  174.8760  139.1370 N   0  0  0  0  0  0  0  0  0  0  0  0
  191.0180  172.4580  142.5010 C   0  0  0  0  0  0  0  0  0  0  0  0
  190.4720  173.6010  142.2150 N   0  0  0  0  0  0  0  0  0  0  0  0
  190.4770  171.0810  140.4980 C   0  0  0  0  0  3  0  0  0  0  0  0
  190.7820  171.9410  138.2310 C   0  0  0  0  0  1  0  0  0  0  0  0
  190.7540  171.2020  141.7900 C   0  0  0  0  0  3  0  0  0  0  0  0
  188.6720  173.8000  138.9130 C   0  0  0  0  0  3  0  0  0  0  0  0
  189.5330  173.3120  139.9090 C   0  0  0  0  0  0  0  0  0  0  0  0
  190.3720  172.1870  139.6060 N   0  0  0  0  0  0  0  0  0  0  0  0
  187.0820  177.3280  141.7310 C   0  0  0  0  0  0  0  0  0  0  0  0
  187.9130  176.8940  142.7670 C   0  0  0  0  0  3  0  0  0  0  0  0
  187.8870  175.5260  140.3260 C   0  0  0  0  0  0  0  0  0  0  0  0
  188.7370  175.7810  142.5840 C   0  0  0  0  0  3  0  0  0  0  0  0
  188.7350  175.0860  141.3650 C   0  0  0  0  0  0  0  0  0  0  0  0
  192.0670  172.3660  143.9460 S   0  0  0  0  0  0  0  0  0  0  0  0
  189.3680  174.3380  146.1680 C   0  0  0  0  0  3  0  0  0  0  0  0
  191.5930  174.9970  144.6540 C   0  0  0  0  0  3  0  0  0  0  0  0
  189.7570  175.6780  146.0730 C   0  0  0  0  0  0  0  0  0  0  0  0
  190.8790  176.0160  145.3020 C   0  0  0  0  0  0  0  0  0  0  0  0
  191.1720  173.6720  144.7780 C   0  0  0  0  0  0  0  0  0  0  0  0
  190.0760  173.3720  145.5260 N   0  0  0  0  0  0  0  0  0  0  0  0
  191.2640  177.3560  145.1880 O   0  0  0  0  0  0  0  0  0  0  0  0
  191.3330  178.0320  143.9400 C   0  0  0  0  0  1  0  0  0  0  0  0
  188.9510  176.7280  146.7610 C   0  0  0  0  0  2  0  0  0  0  0  0
  187.5470  176.5720  146.4180 N   0  0  0  0  0  2  0  0  0  0  0  0
  186.5360  177.4070  146.9770 C   0  0  0  0  0  0  0  0  0  0  0  0
  185.1140  177.1880  146.6060 C   0  0  0  0  0  1  0  0  0  0  0  0
  186.8360  178.3340  147.7740 O   0  0  0  0  0  0  0  0  0  0  0  0
  186.1930  178.5070  141.9330 C   0  0  0  0  0  2  0  0  0  0  0  0
  185.5320  179.6230  143.8720 C   0  0  0  0  0  1  0  0  0  0  0  0
  184.0470  178.2000  142.7830 C   0  0  0  0  0  1  0  0  0  0  0  0
  185.4380  178.3590  143.1650 N   0  0  0  0  0  0  0  0  0  0  0  0
  1 16  1  0  0  0  0
  1  5  1  0  0  0  0
  2 12  1  0  0  0  0
  3 14  1  0  0  0  0
  4 17  1  0  0  0  0
  5  4  2  0  0  0  0
  6  8  2  0  0  0  0
  7 11  1  0  0  0  0
  8  4  1  0  0  0  0
  9  3  2  0  0  0  0
  9 10  1  0  0  0  0
 10  1  2  0  0  0  0
 11 10  1  0  0  0  0
 11  6  1  0  0  0  0
 12 31  1  0  0  0  0
 12 13  2  0  0  0  0
 14  2  2  0  0  0  0
 14 16  1  0  0  0  0
 15 13  1  0  0  0  0
 16 15  2  0  0  0  0
 17 22  1  0  0  0  0
 19 22  2  0  0  0  0
 19 21  1  0  0  0  0
 20 18  1  0  0  0  0
 20 26  1  0  0  0  0
 21 20  2  0  0  0  0
 22 23  1  0  0  0  0
 23 18  2  0  0  0  0
 24 21  1  0  0  0  0
 25 24  1  0  0  0  0
 27 26  1  0  0  0  0
 27 28  1  0  0  0  0
 28 30  2  0  0  0  0
 29 28  1  0  0  0  0
 31 34  1  0  0  0  0
 33 34  1  0  0  0  0
 34 32  1  0  0  0  0
M  END
>  <MODEL>
2

>  <REMARK>
 VINA RESULT:      -6.5      2.127      6.204
  Name = 
  7 active torsions:
  status: ('A' for Active; 'I' for Inactive)
    1  A    between atoms: N_7  and  C_14
    2  A    between atoms: C_8  and  S_18
    3  A    between atoms: C_14  and  C_16
    4  A    between atoms: S_18  and  C_30
    5  A    between atoms: C_23  and  N_24
    6  A    between atoms: C_23  and  C_25
    7  A    between atoms: O_26  and  C_28
                            x       y       z     vdW  Elec       q    Type
                         _______ _______ _______ _____ _____    ______ ____

>  <TORSDO>
F 7

$$$$
=
 OpenBabel11052420263D

 34 37  0  0  0  0  0  0  0  0999 V2000
  190.0200  175.2100  143.3850 C   0  0  0  0  0  0  0  0  0  0  0  0
  187.0090  176.8850  141.9880 C   0  0  0  0  0  3  0  0  0  0  0  0
  188.3160  175.0650  141.1830 N   0  0  0  0  0  0  0  0  0  0  0  0
  191.6990  174.5600  145.0980 C   0  0  0  0  0  0  0  0  0  0  0  0
  190.9160  175.4020  144.4930 N   0  0  0  0  0  0  0  0  0  0  0  0
  191.6470  172.5850  143.5840 C   0  0  0  0  0  3  0  0  0  0  0  0
  191.8970  172.8190  141.1640 C   0  0  0  0  0  1  0  0  0  0  0  0
  191.7950  173.1310  144.7830 C   0  0  0  0  0  3  0  0  0  0  0  0
  189.3590  174.2040  141.2790 C   0  0  0  0  0  3  0  0  0  0  0  0
  190.2400  174.2490  142.3720 C   0  0  0  0  0  0  0  0  0  0  0  0
  191.3430  173.3310  142.4080 N   0  0  0  0  0  0  0  0  0  0  0  0
  186.7730  177.8680  142.9530 C   0  0  0  0  0  0  0  0  0  0  0  0
  187.6080  177.9660  144.0680 C   0  0  0  0  0  3  0  0  0  0  0  0
  188.0850  176.0050  142.1310 C   0  0  0  0  0  0  0  0  0  0  0  0
  188.6870  177.0910  144.2160 C   0  0  0  0  0  3  0  0  0  0  0  0
  188.9380  176.1020  143.2520 C   0  0  0  0  0  0  0  0  0  0  0  0
  192.6340  175.1460  146.5060 S   0  0  0  0  0  0  0  0  0  0  0  0
  195.4500  176.3360  143.9050 C   0  0  0  0  0  3  0  0  0  0  0  0
  195.1570  174.2980  145.7580 C   0  0  0  0  0  3  0  0  0  0  0  0
  196.4860  175.4130  144.0730 C   0  0  0  0  0  0  0  0  0  0  0  0
  196.3380  174.3750  145.0060 C   0  0  0  0  0  0  0  0  0  0  0  0
  194.1490  175.2420  145.5610 C   0  0  0  0  0  0  0  0  0  0  0  0
  194.3140  176.2340  144.6450 N   0  0  0  0  0  0  0  0  0  0  0  0
  197.3640  173.4360  145.1670 O   0  0  0  0  0  0  0  0  0  0  0  0
  197.1240  172.1000  145.5850 C   0  0  0  0  0  1  0  0  0  0  0  0
  197.7130  175.5230  143.2320 C   0  0  0  0  0  2  0  0  0  0  0  0
  197.6140  174.6180  142.0990 N   0  0  0  0  0  2  0  0  0  0  0  0
  197.1240  175.0460  140.8310 C   0  0  0  0  0  0  0  0  0  0  0  0
  197.0250  174.0710  139.7140 C   0  0  0  0  0  1  0  0  0  0  0  0
  196.7840  176.2440  140.6440 O   0  0  0  0  0  0  0  0  0  0  0  0
  185.6150  178.7940  142.8050 C   0  0  0  0  0  2  0  0  0  0  0  0
  183.8890  178.9730  144.3640 C   0  0  0  0  0  1  0  0  0  0  0  0
  183.4340  178.2470  142.2010 C   0  0  0  0  0  1  0  0  0  0  0  0
  184.4000  178.1550  143.2790 N   0  0  0  0  0  0  0  0  0  0  0  0
  1  5  1  0  0  0  0
  2 14  2  0  0  0  0
  2 12  1  0  0  0  0
  3  9  2  0  0  0  0
  3 14  1  0  0  0  0
  4 17  1  0  0  0  0
  5  4  2  0  0  0  0
  6  8  2  0  0  0  0
  7 11  1  0  0  0  0
  8  4  1  0  0  0  0
  9 10  1  0  0  0  0
 10 11  1  0  0  0  0
 10  1  2  0  0  0  0
 11  6  1  0  0  0  0
 12 13  2  0  0  0  0
 13 15  1  0  0  0  0
 14 16  1  0  0  0  0
 16  1  1  0  0  0  0
 16 15  2  0  0  0  0
 18 20  2  0  0  0  0
 18 23  1  0  0  0  0
 20 21  1  0  0  0  0
 21 24  1  0  0  0  0
 21 19  2  0  0  0  0
 22 19  1  0  0  0  0
 22 17  1  0  0  0  0
 23 22  2  0  0  0  0
 24 25  1  0  0  0  0
 26 20  1  0  0  0  0
 27 26  1  0  0  0  0
 28 27  1  0  0  0  0
 29 28  1  0  0  0  0
 30 28  2  0  0  0  0
 31 12  1  0  0  0  0
 31 34  1  0  0  0  0
 33 34  1  0  0  0  0
 34 32  1  0  0  0  0
M  END
>  <MODEL>
3

>  <REMARK>
 VINA RESULT:      -6.2      3.116      6.566
  Name = 
  7 active torsions:
  status: ('A' for Active; 'I' for Inactive)
    1  A    between atoms: N_7  and  C_14
    2  A    between atoms: C_8  and  S_18
    3  A    between atoms: C_14  and  C_16
    4  A    between atoms: S_18  and  C_30
    5  A    between atoms: C_23  and  N_24
    6  A    between atoms: C_23  and  C_25
    7  A    between atoms: O_26  and  C_28
                            x       y       z     vdW  Elec       q    Type
                         _______ _______ _______ _____ _____    ______ ____

>  <TORSDO>
F 7

$$$$
=
 OpenBabel11052420263D

 34 37  0  0  0  0  0  0  0  0999 V2000
  194.3840  175.1920  143.1100 C   0  0  0  0  0  0  0  0  0  0  0  0
  196.7810  175.8650  140.3500 C   0  0  0  0  0  3  0  0  0  0  0  0
  196.6910  176.6680  142.5890 N   0  0  0  0  0  0  0  0  0  0  0  0
  192.5900  174.0040  144.3550 C   0  0  0  0  0  0  0  0  0  0  0  0
  193.1440  174.4840  143.2830 N   0  0  0  0  0  0  0  0  0  0  0  0
  193.9670  175.0060  146.1710 C   0  0  0  0  0  3  0  0  0  0  0  0
  194.5600  177.3770  146.1710 C   0  0  0  0  0  1  0  0  0  0  0  0
  193.1850  174.0460  145.6950 C   0  0  0  0  0  3  0  0  0  0  0  0
  196.1130  176.7390  143.8140 C   0  0  0  0  0  3  0  0  0  0  0  0
  194.9490  176.0120  144.1120 C   0  0  0  0  0  0  0  0  0  0  0  0
  194.3660  176.1470  145.4170 N   0  0  0  0  0  0  0  0  0  0  0  0
  196.2380  175.0880  139.3230 C   0  0  0  0  0  0  0  0  0  0  0  0
  195.0830  174.3360  139.5520 C   0  0  0  0  0  3  0  0  0  0  0  0
  196.1670  175.9000  141.6040 C   0  0  0  0  0  0  0  0  0  0  0  0
  194.4630  174.3680  140.8040 C   0  0  0  0  0  3  0  0  0  0  0  0
  194.9950  175.1480  141.8420 C   0  0  0  0  0  0  0  0  0  0  0  0
  191.0520  173.1090  144.1780 S   0  0  0  0  0  0  0  0  0  0  0  0
  188.9120  175.2130  146.8430 C   0  0  0  0  0  3  0  0  0  0  0  0
  189.8530  175.5990  144.2660 C   0  0  0  0  0  3  0  0  0  0  0  0
  188.6350  176.4170  146.1880 C   0  0  0  0  0  0  0  0  0  0  0  0
  189.1050  176.6130  144.8810 C   0  0  0  0  0  0  0  0  0  0  0  0
  190.1090  174.4140  144.9570 C   0  0  0  0  0  0  0  0  0  0  0  0
  189.6360  174.2460  146.2210 N   0  0  0  0  0  0  0  0  0  0  0  0
  188.8170  177.8090  144.2120 O   0  0  0  0  0  0  0  0  0  0  0  0
  188.2200  177.8440  142.9240 C   0  0  0  0  0  1  0  0  0  0  0  0
  187.8150  177.4560  146.8750 C   0  0  0  0  0  2  0  0  0  0  0  0
  186.4660  177.4530  146.3330 N   0  0  0  0  0  2  0  0  0  0  0  0
  185.5140  178.4590  146.6710 C   0  0  0  0  0  0  0  0  0  0  0  0
  184.1420  178.3930  146.1040 C   0  0  0  0  0  1  0  0  0  0  0  0
  185.8260  179.4070  147.4390 O   0  0  0  0  0  0  0  0  0  0  0  0
  196.9060  175.0410  137.9920 C   0  0  0  0  0  2  0  0  0  0  0  0
  195.7470  175.7140  136.0810 C   0  0  0  0  0  1  0  0  0  0  0  0
  196.6490  173.5710  136.2040 C   0  0  0  0  0  1  0  0  0  0  0  0
  195.9680  174.5930  136.9770 N   0  0  0  0  0  0  0  0  0  0  0  0
  1  5  1  0  0  0  0
  1 10  1  0  0  0  0
  2 14  1  0  0  0  0
  3  9  1  0  0  0  0
  4  8  1  0  0  0  0
  5  4  2  0  0  0  0
  8  6  2  0  0  0  0
  9 10  2  0  0  0  0
 10 11  1  0  0  0  0
 11  7  1  0  0  0  0
 11  6  1  0  0  0  0
 12 13  1  0  0  0  0
 12  2  2  0  0  0  0
 13 15  2  0  0  0  0
 14 16  1  0  0  0  0
 14  3  2  0  0  0  0
 15 16  1  0  0  0  0
 16  1  2  0  0  0  0
 17  4  1  0  0  0  0
 17 22  1  0  0  0  0
 19 21  2  0  0  0  0
 19 22  1  0  0  0  0
 20 18  2  0  0  0  0
 20 26  1  0  0  0  0
 21 20  1  0  0  0  0
 22 23  2  0  0  0  0
 23 18  1  0  0  0  0
 24 21  1  0  0  0  0
 25 24  1  0  0  0  0
 27 28  1  0  0  0  0
 27 26  1  0  0  0  0
 28 30  2  0  0  0  0
 29 28  1  0  0  0  0
 31 12  1  0  0  0  0
 32 34  1  0  0  0  0
 33 34  1  0  0  0  0
 34 31  1  0  0  0  0
M  END
>  <MODEL>
4

>  <REMARK>
 VINA RESULT:      -6.2      3.871      7.550
  Name = 
  7 active torsions:
  status: ('A' for Active; 'I' for Inactive)
    1  A    between atoms: N_7  and  C_14
    2  A    between atoms: C_8  and  S_18
    3  A    between atoms: C_14  and  C_16
    4  A    between atoms: S_18  and  C_30
    5  A    between atoms: C_23  and  N_24
    6  A    between atoms: C_23  and  C_25
    7  A    between atoms: O_26  and  C_28
                            x       y       z     vdW  Elec       q    Type
                         _______ _______ _______ _____ _____    ______ ____

>  <TORSDO>
F 7

$$$$
=
 OpenBabel11052420263D

 34 37  0  0  0  0  0  0  0  0999 V2000
  192.7330  175.2510  143.7690 C   0  0  0  0  0  0  0  0  0  0  0  0
  191.2720  173.6140  140.7680 C   0  0  0  0  0  3  0  0  0  0  0  0
  193.4850  174.3540  141.2390 N   0  0  0  0  0  0  0  0  0  0  0  0
  192.8840  175.9860  146.1380 C   0  0  0  0  0  0  0  0  0  0  0  0
  192.2580  175.7790  145.0200 N   0  0  0  0  0  0  0  0  0  0  0  0
  195.2690  175.6840  145.4890 C   0  0  0  0  0  3  0  0  0  0  0  0
  196.1890  176.7150  143.4730 C   0  0  0  0  0  1  0  0  0  0  0  0
  194.2920  175.6510  146.3840 C   0  0  0  0  0  3  0  0  0  0  0  0
  194.4080  174.9370  142.0440 C   0  0  0  0  0  3  0  0  0  0  0  0
  194.0650  175.4030  143.3230 C   0  0  0  0  0  0  0  0  0  0  0  0
  195.0760  176.0370  144.1220 N   0  0  0  0  0  0  0  0  0  0  0  0
  189.9380  173.4690  141.1600 C   0  0  0  0  0  0  0  0  0  0  0  0
  189.5300  173.9080  142.4210 C   0  0  0  0  0  3  0  0  0  0  0  0
  192.1980  174.2040  141.6320 C   0  0  0  0  0  0  0  0  0  0  0  0
  190.4500  174.5010  143.2890 C   0  0  0  0  0  3  0  0  0  0  0  0
  191.7910  174.6560  142.9060 C   0  0  0  0  0  0  0  0  0  0  0  0
  191.9420  176.6010  147.5280 S   0  0  0  0  0  0  0  0  0  0  0  0
  188.2450  175.6660  146.2740 C   0  0  0  0  0  3  0  0  0  0  0  0
  190.2370  177.4360  145.5170 C   0  0  0  0  0  3  0  0  0  0  0  0
  188.0280  176.5110  145.1810 C   0  0  0  0  0  0  0  0  0  0  0  0
  189.0380  177.4040  144.7920 C   0  0  0  0  0  0  0  0  0  0  0  0
  190.4110  176.5770  146.6030 C   0  0  0  0  0  0  0  0  0  0  0  0
  189.4190  175.7160  146.9560 N   0  0  0  0  0  0  0  0  0  0  0  0
  188.8350  178.2410  143.6880 O   0  0  0  0  0  0  0  0  0  0  0  0
  189.3220  177.9330  142.3900 C   0  0  0  0  0  1  0  0  0  0  0  0
  186.7450  176.4230  144.4270 C   0  0  0  0  0  2  0  0  0  0  0  0
  185.6510  176.8890  145.2650 N   0  0  0  0  0  2  0  0  0  0  0  0
  185.1940  178.2390  145.2270 C   0  0  0  0  0  0  0  0  0  0  0  0
  184.0870  178.6650  146.1210 C   0  0  0  0  0  1  0  0  0  0  0  0
  185.7120  179.0710  144.4360 O   0  0  0  0  0  0  0  0  0  0  0  0
  188.9590  172.8240  140.2410 C   0  0  0  0  0  2  0  0  0  0  0  0
  189.6120  171.2660  138.6310 C   0  0  0  0  0  1  0  0  0  0  0  0
  188.5660  173.2420  137.9840 C   0  0  0  0  0  1  0  0  0  0  0  0
  189.5330  172.6880  138.9140 N   0  0  0  0  0  0  0  0  0  0  0  0
  1  5  1  0  0  0  0
  2 12  2  0  0  0  0
  2 14  1  0  0  0  0
  3 14  2  0  0  0  0
  3  9  1  0  0  0  0
  4  8  1  0  0  0  0
  4 17  1  0  0  0  0
  5  4  2  0  0  0  0
  6  8  2  0  0  0  0
  7 11  1  0  0  0  0
  9 10  2  0  0  0  0
 10  1  1  0  0  0  0
 10 11  1  0  0  0  0
 11  6  1  0  0  0  0
 12 13  1  0  0  0  0
 13 15  2  0  0  0  0
 14 16  1  0  0  0  0
 16 15  1  0  0  0  0
 16  1  2  0  0  0  0
 18 23  1  0  0  0  0
 19 22  1  0  0  0  0
 20 18  2  0  0  0  0
 21 20  1  0  0  0  0
 21 19  2  0  0  0  0
 22 23  2  0  0  0  0
 22 17  1  0  0  0  0
 24 21  1  0  0  0  0
 25 24  1  0  0  0  0
 26 20  1  0  0  0  0
 26 27  1  0  0  0  0
 28 27  1  0  0  0  0
 28 29  1  0  0  0  0
 30 28  2  0  0  0  0
 31 12  1  0  0  0  0
 32 34  1  0  0  0  0
 33 34  1  0  0  0  0
 34 31  1  0  0  0  0
M  END
>  <MODEL>
5

>  <REMARK>
 VINA RESULT:      -6.1      2.426      6.265
  Name = 
  7 active torsions:
  status: ('A' for Active; 'I' for Inactive)
    1  A    between atoms: N_7  and  C_14
    2  A    between atoms: C_8  and  S_18
    3  A    between atoms: C_14  and  C_16
    4  A    between atoms: S_18  and  C_30
    5  A    between atoms: C_23  and  N_24
    6  A    between atoms: C_23  and  C_25
    7  A    between atoms: O_26  and  C_28
                            x       y       z     vdW  Elec       q    Type
                         _______ _______ _______ _____ _____    ______ ____

>  <TORSDO>
F 7

$$$$
=
 OpenBabel11052420263D

 34 37  0  0  0  0  0  0  0  0999 V2000
  191.8590  175.2750  143.9350 C   0  0  0  0  0  0  0  0  0  0  0  0
  190.8450  173.6740  140.7370 C   0  0  0  0  0  3  0  0  0  0  0  0
  192.9890  174.2300  141.6110 N   0  0  0  0  0  0  0  0  0  0  0  0
  191.6290  176.0740  146.2780 C   0  0  0  0  0  0  0  0  0  0  0  0
  191.2090  175.8860  145.0630 N   0  0  0  0  0  0  0  0  0  0  0  0
  194.0540  175.5380  146.1010 C   0  0  0  0  0  3  0  0  0  0  0  0
  195.4320  176.4140  144.2820 C   0  0  0  0  0  1  0  0  0  0  0  0
  192.9270  175.6230  146.7940 C   0  0  0  0  0  3  0  0  0  0  0  0
  193.7930  174.7550  142.5680 C   0  0  0  0  0  3  0  0  0  0  0  0
  193.2600  175.2930  143.7500 C   0  0  0  0  0  0  0  0  0  0  0  0
  194.1570  175.8600  144.7170 N   0  0  0  0  0  0  0  0  0  0  0  0
  189.4540  173.6630  140.8690 C   0  0  0  0  0  0  0  0  0  0  0  0
  188.8570  174.1780  142.0210 C   0  0  0  0  0  3  0  0  0  0  0  0
  191.6420  174.2090  141.7530 C   0  0  0  0  0  0  0  0  0  0  0  0
  189.6480  174.7160  143.0390 C   0  0  0  0  0  3  0  0  0  0  0  0
  191.0460  174.7380  142.9180 C   0  0  0  0  0  0  0  0  0  0  0  0
  190.5030  176.8160  147.4510 S   0  0  0  0  0  0  0  0  0  0  0  0
  188.7360  178.1030  144.0840 C   0  0  0  0  0  3  0  0  0  0  0  0
  187.9630  176.7270  146.3610 C   0  0  0  0  0  3  0  0  0  0  0  0
  187.4060  177.6940  144.2150 C   0  0  0  0  0  0  0  0  0  0  0  0
  187.0090  177.0030  145.3700 C   0  0  0  0  0  0  0  0  0  0  0  0
  189.2810  177.1520  146.1880 C   0  0  0  0  0  0  0  0  0  0  0  0
  189.6380  177.8260  145.0620 N   0  0  0  0  0  0  0  0  0  0  0  0
  185.6750  176.6050  145.5170 O   0  0  0  0  0  0  0  0  0  0  0  0
  184.8190  177.1440  146.5140 C   0  0  0  0  0  1  0  0  0  0  0  0
  186.4240  178.0310  143.1450 C   0  0  0  0  0  2  0  0  0  0  0  0
  186.8930  177.5150  141.8690 N   0  0  0  0  0  2  0  0  0  0  0  0
  186.1790  177.7370  140.6560 C   0  0  0  0  0  0  0  0  0  0  0  0
  186.6940  177.1670  139.3840 C   0  0  0  0  0  1  0  0  0  0  0  0
  185.1190  178.4180  140.6490 O   0  0  0  0  0  0  0  0  0  0  0  0
  188.6090  173.0770  139.7900 C   0  0  0  0  0  2  0  0  0  0  0  0
  189.3000  172.1190  137.7770 C   0  0  0  0  0  1  0  0  0  0  0  0
  188.1920  174.1660  137.7740 C   0  0  0  0  0  1  0  0  0  0  0  0
  189.1800  173.3790  138.4890 N   0  0  0  0  0  0  0  0  0  0  0  0
  1  5  1  0  0  0  0
  2 12  2  0  0  0  0
  2 14  1  0  0  0  0
  3 14  2  0  0  0  0
  3  9  1  0  0  0  0
  4  8  1  0  0  0  0
  4 17  1  0  0  0  0
  5  4  2  0  0  0  0
  6  8  2  0  0  0  0
  7 11  1  0  0  0  0
  9 10  2  0  0  0  0
 10  1  1  0  0  0  0
 10 11  1  0  0  0  0
 11  6  1  0  0  0  0
 12 13  1  0  0  0  0
 13 15  2  0  0  0  0
 14 16  1  0  0  0  0
 16 15  1  0  0  0  0
 16  1  2  0  0  0  0
 18 20  2  0  0  0  0
 18 23  1  0  0  0  0
 20 21  1  0  0  0  0
 21 24  1  0  0  0  0
 21 19  2  0  0  0  0
 22 19  1  0  0  0  0
 22 17  1  0  0  0  0
 23 22  2  0  0  0  0
 24 25  1  0  0  0  0
 26 20  1  0  0  0  0
 27 26  1  0  0  0  0
 28 27  1  0  0  0  0
 29 28  1  0  0  0  0
 30 28  2  0  0  0  0
 31 12  1  0  0  0  0
 32 34  1  0  0  0  0
 33 34  1  0  0  0  0
 34 31  1  0  0  0  0
M  END
>  <MODEL>
6

>  <REMARK>
 VINA RESULT:      -6.1      2.581      6.092
  Name = 
  7 active torsions:
  status: ('A' for Active; 'I' for Inactive)
    1  A    between atoms: N_7  and  C_14
    2  A    between atoms: C_8  and  S_18
    3  A    between atoms: C_14  and  C_16
    4  A    between atoms: S_18  and  C_30
    5  A    between atoms: C_23  and  N_24
    6  A    between atoms: C_23  and  C_25
    7  A    between atoms: O_26  and  C_28
                            x       y       z     vdW  Elec       q    Type
                         _______ _______ _______ _____ _____    ______ ____

>  <TORSDO>
F 7

$$$$
=
 OpenBabel11052420263D

 34 37  0  0  0  0  0  0  0  0999 V2000
  189.2080  175.0430  143.4830 C   0  0  0  0  0  0  0  0  0  0  0  0
  189.2890  172.8730  140.4650 C   0  0  0  0  0  3  0  0  0  0  0  0
  188.1540  174.9190  140.9050 N   0  0  0  0  0  0  0  0  0  0  0  0
  189.9400  175.9530  145.6770 C   0  0  0  0  0  0  0  0  0  0  0  0
  189.7070  174.9960  144.8310 N   0  0  0  0  0  0  0  0  0  0  0  0
  188.8730  177.9180  144.5800 C   0  0  0  0  0  3  0  0  0  0  0  0
  186.6320  177.7860  143.6140 C   0  0  0  0  0  1  0  0  0  0  0  0
  189.7780  177.3830  145.3880 C   0  0  0  0  0  3  0  0  0  0  0  0
  187.8220  175.9550  141.7150 C   0  0  0  0  0  3  0  0  0  0  0  0
  188.3310  176.0490  143.0200 C   0  0  0  0  0  0  0  0  0  0  0  0
  187.9230  177.1530  143.8420 N   0  0  0  0  0  0  0  0  0  0  0  0
  190.1310  171.8430  140.8940 C   0  0  0  0  0  0  0  0  0  0  0  0
  190.6760  171.8760  142.1800 C   0  0  0  0  0  3  0  0  0  0  0  0
  188.9830  173.9330  141.3230 C   0  0  0  0  0  0  0  0  0  0  0  0
  190.3720  172.9320  143.0430 C   0  0  0  0  0  3  0  0  0  0  0  0
  189.5240  173.9700  142.6260 C   0  0  0  0  0  0  0  0  0  0  0  0
  190.6350  175.5200  147.2660 S   0  0  0  0  0  0  0  0  0  0  0  0
  194.3530  176.2660  145.9520 C   0  0  0  0  0  3  0  0  0  0  0  0
  192.7010  174.0530  146.1590 C   0  0  0  0  0  3  0  0  0  0  0  0
  194.8210  175.0220  145.5180 C   0  0  0  0  0  0  0  0  0  0  0  0
  193.9840  173.9000  145.6150 C   0  0  0  0  0  0  0  0  0  0  0  0
  192.2740  175.3120  146.5830 C   0  0  0  0  0  0  0  0  0  0  0  0
  193.1030  176.3850  146.4710 N   0  0  0  0  0  0  0  0  0  0  0  0
  194.4390  172.6550  145.1670 O   0  0  0  0  0  0  0  0  0  0  0  0
  194.0010  172.0700  143.9490 C   0  0  0  0  0  1  0  0  0  0  0  0
  196.1860  174.9160  144.9250 C   0  0  0  0  0  2  0  0  0  0  0  0
  196.1090  175.0910  143.4840 N   0  0  0  0  0  2  0  0  0  0  0  0
  196.5600  176.2820  142.8430 C   0  0  0  0  0  0  0  0  0  0  0  0
  196.4370  176.4160  141.3680 C   0  0  0  0  0  1  0  0  0  0  0  0
  197.0700  177.2190  143.5130 O   0  0  0  0  0  0  0  0  0  0  0  0
  190.4670  170.7230  139.9710 C   0  0  0  0  0  2  0  0  0  0  0  0
  191.6370  171.3050  138.0370 C   0  0  0  0  0  1  0  0  0  0  0  0
  189.6910  170.0370  137.8850 C   0  0  0  0  0  1  0  0  0  0  0  0
  190.3040  171.1470  138.5910 N   0  0  0  0  0  0  0  0  0  0  0  0
  1  5  1  0  0  0  0
  2 12  2  0  0  0  0
  2 14  1  0  0  0  0
  3 14  2  0  0  0  0
  3  9  1  0  0  0  0
  4 17  1  0  0  0  0
  5  4  2  0  0  0  0
  6  8  2  0  0  0  0
  7 11  1  0  0  0  0
  8  4  1  0  0  0  0
  9 10  2  0  0  0  0
 10  1  1  0  0  0  0
 10 11  1  0  0  0  0
 11  6  1  0  0  0  0
 12 13  1  0  0  0  0
 13 15  2  0  0  0  0
 14 16  1  0  0  0  0
 16 15  1  0  0  0  0
 16  1  2  0  0  0  0
 18 23  1  0  0  0  0
 19 22  1  0  0  0  0
 20 21  1  0  0  0  0
 20 18  2  0  0  0  0
 21 19  2  0  0  0  0
 22 17  1  0  0  0  0
 23 22  2  0  0  0  0
 24 21  1  0  0  0  0
 25 24  1  0  0  0  0
 26 20  1  0  0  0  0
 27 26  1  0  0  0  0
 28 27  1  0  0  0  0
 28 30  2  0  0  0  0
 29 28  1  0  0  0  0
 31 12  1  0  0  0  0
 32 34  1  0  0  0  0
 33 34  1  0  0  0  0
 34 31  1  0  0  0  0
M  END
>  <MODEL>
7

>  <REMARK>
 VINA RESULT:      -6.1      2.426      3.927
  Name = 
  7 active torsions:
  status: ('A' for Active; 'I' for Inactive)
    1  A    between atoms: N_7  and  C_14
    2  A    between atoms: C_8  and  S_18
    3  A    between atoms: C_14  and  C_16
    4  A    between atoms: S_18  and  C_30
    5  A    between atoms: C_23  and  N_24
    6  A    between atoms: C_23  and  C_25
    7  A    between atoms: O_26  and  C_28
                            x       y       z     vdW  Elec       q    Type
                         _______ _______ _______ _____ _____    ______ ____

>  <TORSDO>
F 7

$$$$
=
 OpenBabel11052420263D

 34 37  0  0  0  0  0  0  0  0999 V2000
  190.5510  176.7780  144.8890 C   0  0  0  0  0  0  0  0  0  0  0  0
  187.1580  178.2190  144.4090 C   0  0  0  0  0  3  0  0  0  0  0  0
  188.3060  177.5080  146.3700 N   0  0  0  0  0  0  0  0  0  0  0  0
  192.9010  176.1990  144.3220 C   0  0  0  0  0  0  0  0  0  0  0  0
  191.6370  176.3330  144.0560 N   0  0  0  0  0  0  0  0  0  0  0  0
  192.9660  176.4550  146.7980 C   0  0  0  0  0  3  0  0  0  0  0  0
  191.3790  175.2940  148.2490 C   0  0  0  0  0  1  0  0  0  0  0  0
  193.5300  176.5480  145.6010 C   0  0  0  0  0  3  0  0  0  0  0  0
  189.3810  176.9770  147.0030 C   0  0  0  0  0  3  0  0  0  0  0  0
  190.5290  176.5960  146.2900 C   0  0  0  0  0  0  0  0  0  0  0  0
  191.6270  176.0140  147.0080 N   0  0  0  0  0  0  0  0  0  0  0  0
  187.1290  178.3900  143.0230 C   0  0  0  0  0  0  0  0  0  0  0  0
  188.2390  178.0350  142.2520 C   0  0  0  0  0  3  0  0  0  0  0  0
  188.2920  177.6850  145.0270 C   0  0  0  0  0  0  0  0  0  0  0  0
  189.3740  177.4980  142.8640 C   0  0  0  0  0  3  0  0  0  0  0  0
  189.4150  177.3170  144.2550 C   0  0  0  0  0  0  0  0  0  0  0  0
  193.9860  175.6770  143.0000 S   0  0  0  0  0  0  0  0  0  0  0  0
  195.1780  172.0880  144.3450 C   0  0  0  0  0  3  0  0  0  0  0  0
  192.7810  173.2640  143.6080 C   0  0  0  0  0  3  0  0  0  0  0  0
  194.0000  171.3380  144.4140 C   0  0  0  0  0  0  0  0  0  0  0  0
  192.7850  171.9290  144.0360 C   0  0  0  0  0  0  0  0  0  0  0  0
  193.9790  173.9770  143.5560 C   0  0  0  0  0  0  0  0  0  0  0  0
  195.1440  173.3790  143.9220 N   0  0  0  0  0  0  0  0  0  0  0  0
  191.6040  171.1790  144.0860 O   0  0  0  0  0  0  0  0  0  0  0  0
  190.3160  171.7660  143.9740 C   0  0  0  0  0  1  0  0  0  0  0  0
  194.0600  169.9140  144.8540 C   0  0  0  0  0  2  0  0  0  0  0  0
  194.7560  169.8230  146.1270 N   0  0  0  0  0  2  0  0  0  0  0  0
  195.8930  168.9820  146.3080 C   0  0  0  0  0  0  0  0  0  0  0  0
  196.5520  168.9120  147.6380 C   0  0  0  0  0  1  0  0  0  0  0  0
  196.3490  168.3030  145.3500 O   0  0  0  0  0  0  0  0  0  0  0  0
  185.9240  178.9750  142.3700 C   0  0  0  0  0  2  0  0  0  0  0  0
  183.6970  178.2890  142.2540 C   0  0  0  0  0  1  0  0  0  0  0  0
  185.1160  177.9490  140.4420 C   0  0  0  0  0  1  0  0  0  0  0  0
  185.0520  177.9170  141.8910 N   0  0  0  0  0  0  0  0  0  0  0  0
  1 10  1  0  0  0  0
  2 14  1  0  0  0  0
  3  9  1  0  0  0  0
  4  8  1  0  0  0  0
  5  4  2  0  0  0  0
  5  1  1  0  0  0  0
  6 11  1  0  0  0  0
  8  6  2  0  0  0  0
 10  9  2  0  0  0  0
 10 11  1  0  0  0  0
 11  7  1  0  0  0  0
 12  2  2  0  0  0  0
 13 15  2  0  0  0  0
 13 12  1  0  0  0  0
 14  3  2  0  0  0  0
 15 16  1  0  0  0  0
 16  1  2  0  0  0  0
 16 14  1  0  0  0  0
 17 22  1  0  0  0  0
 17  4  1  0  0  0  0
 18 20  1  0  0  0  0
 19 21  1  0  0  0  0
 20 26  1  0  0  0  0
 21 24  1  0  0  0  0
 21 20  2  0  0  0  0
 22 19  2  0  0  0  0
 22 23  1  0  0  0  0
 23 18  2  0  0  0  0
 25 24  1  0  0  0  0
 26 27  1  0  0  0  0
 27 28  1  0  0  0  0
 28 29  1  0  0  0  0
 30 28  2  0  0  0  0
 31 12  1  0  0  0  0
 33 34  1  0  0  0  0
 34 32  1  0  0  0  0
 34 31  1  0  0  0  0
M  END
>  <MODEL>
8

>  <REMARK>
 VINA RESULT:      -6.1      3.546      6.761
  Name = 
  7 active torsions:
  status: ('A' for Active; 'I' for Inactive)
    1  A    between atoms: N_7  and  C_14
    2  A    between atoms: C_8  and  S_18
    3  A    between atoms: C_14  and  C_16
    4  A    between atoms: S_18  and  C_30
    5  A    between atoms: C_23  and  N_24
    6  A    between atoms: C_23  and  C_25
    7  A    between atoms: O_26  and  C_28
                            x       y       z     vdW  Elec       q    Type
                         _______ _______ _______ _____ _____    ______ ____

>  <TORSDO>
F 7

$$$$
=
 OpenBabel11052420263D

 34 37  0  0  0  0  0  0  0  0999 V2000
  189.7890  173.8920  142.8870 C   0  0  0  0  0  0  0  0  0  0  0  0
  187.5380  176.6910  143.8460 C   0  0  0  0  0  3  0  0  0  0  0  0
  188.0040  175.6970  141.7340 N   0  0  0  0  0  0  0  0  0  0  0  0
  191.2170  171.8830  143.2040 C   0  0  0  0  0  0  0  0  0  0  0  0
  190.7670  173.0560  143.5300 N   0  0  0  0  0  0  0  0  0  0  0  0
  190.3200  171.5790  140.9010 C   0  0  0  0  0  3  0  0  0  0  0  0
  190.4670  173.3500  139.2230 C   0  0  0  0  0  1  0  0  0  0  0  0
  190.7460  171.0940  142.0590 C   0  0  0  0  0  3  0  0  0  0  0  0
  188.6510  174.8000  140.9480 C   0  0  0  0  0  3  0  0  0  0  0  0
  189.5590  173.8780  141.4930 C   0  0  0  0  0  0  0  0  0  0  0  0
  190.2360  172.9710  140.6100 N   0  0  0  0  0  0  0  0  0  0  0  0
  187.7580  176.7560  145.2250 C   0  0  0  0  0  0  0  0  0  0  0  0
  188.6450  175.8660  145.8330 C   0  0  0  0  0  3  0  0  0  0  0  0
  188.2110  175.7430  143.0720 C   0  0  0  0  0  0  0  0  0  0  0  0
  189.3230  174.9160  145.0640 C   0  0  0  0  0  3  0  0  0  0  0  0
  189.1150  174.8440  143.6780 C   0  0  0  0  0  0  0  0  0  0  0  0
  192.4000  171.1030  144.2940 S   0  0  0  0  0  0  0  0  0  0  0  0
  195.1010  173.6510  142.7680 C   0  0  0  0  0  3  0  0  0  0  0  0
  193.8270  173.2920  145.2010 C   0  0  0  0  0  3  0  0  0  0  0  0
  195.3890  174.5210  143.8240 C   0  0  0  0  0  0  0  0  0  0  0  0
  194.7500  174.3380  145.0600 C   0  0  0  0  0  0  0  0  0  0  0  0
  193.5670  172.4480  144.1210 C   0  0  0  0  0  0  0  0  0  0  0  0
  194.2050  172.6430  142.9350 N   0  0  0  0  0  0  0  0  0  0  0  0
  195.0460  175.1940  146.1270 O   0  0  0  0  0  0  0  0  0  0  0  0
  194.1940  176.2630  146.5130 C   0  0  0  0  0  1  0  0  0  0  0  0
  196.3950  175.6040  143.6310 C   0  0  0  0  0  2  0  0  0  0  0  0
  197.1610  175.3510  142.4210 N   0  0  0  0  0  2  0  0  0  0  0  0
  196.8420  175.9790  141.1810 C   0  0  0  0  0  0  0  0  0  0  0  0
  197.6450  175.6660  139.9710 C   0  0  0  0  0  1  0  0  0  0  0  0
  195.8920  176.8020  141.1020 O   0  0  0  0  0  0  0  0  0  0  0  0
  187.0250  177.7590  146.0480 C   0  0  0  0  0  2  0  0  0  0  0  0
  184.7480  177.5450  146.5120 C   0  0  0  0  0  1  0  0  0  0  0  0
  185.5350  179.4160  145.3730 C   0  0  0  0  0  1  0  0  0  0  0  0
  185.6970  177.9800  145.5030 N   0  0  0  0  0  0  0  0  0  0  0  0
  1  5  1  0  0  0  0
  1 16  1  0  0  0  0
  2 12  1  0  0  0  0
  3 14  1  0  0  0  0
  4  5  2  0  0  0  0
  4 17  1  0  0  0  0
  6  8  2  0  0  0  0
  7 11  1  0  0  0  0
  8  4  1  0  0  0  0
  9 10  1  0  0  0  0
  9  3  2  0  0  0  0
 10  1  2  0  0  0  0
 11  6  1  0  0  0  0
 11 10  1  0  0  0  0
 12 13  2  0  0  0  0
 12 31  1  0  0  0  0
 14 16  1  0  0  0  0
 14  2  2  0  0  0  0
 15 13  1  0  0  0  0
 16 15  2  0  0  0  0
 18 23  2  0  0  0  0
 18 20  1  0  0  0  0
 20 21  2  0  0  0  0
 21 19  1  0  0  0  0
 21 24  1  0  0  0  0
 22 17  1  0  0  0  0
 22 19  2  0  0  0  0
 23 22  1  0  0  0  0
 24 25  1  0  0  0  0
 26 20  1  0  0  0  0
 27 26  1  0  0  0  0
 28 27  1  0  0  0  0
 29 28  1  0  0  0  0
 30 28  2  0  0  0  0
 33 34  1  0  0  0  0
 34 31  1  0  0  0  0
 34 32  1  0  0  0  0
M  END
>  <MODEL>
9

>  <REMARK>
 VINA RESULT:      -6.0      2.930      6.594
  Name = 
  7 active torsions:
  status: ('A' for Active; 'I' for Inactive)
    1  A    between atoms: N_7  and  C_14
    2  A    between atoms: C_8  and  S_18
    3  A    between atoms: C_14  and  C_16
    4  A    between atoms: S_18  and  C_30
    5  A    between atoms: C_23  and  N_24
    6  A    between atoms: C_23  and  C_25
    7  A    between atoms: O_26  and  C_28
                            x       y       z     vdW  Elec       q    Type
                         _______ _______ _______ _____ _____    ______ ____

>  <TORSDO>
F 7

$$$$
