=
 OpenBabel11052418473D

 34 39  0  0  1  0  0  0  0  0999 V2000
  191.3390  174.3800  141.6720 C   0  0  0  0  0  0  0  0  0  0  0  0
  189.2190  174.6510  142.9980 C   0  0  0  0  0  0  0  0  0  0  0  0
  191.3930  175.2230  144.0900 C   0  0  0  0  0  0  0  0  0  0  0  0
  191.7190  176.0320  146.4440 C   0  0  1  0  0  3  0  0  0  0  0  0
  189.0650  173.7170  140.7560 C   0  0  0  0  0  2  0  0  0  0  0  0
  188.7240  173.4770  142.2200 C   0  0  0  0  0  2  0  0  0  0  0  0
  189.7870  176.9030  145.0120 C   0  0  0  0  0  0  0  0  0  0  0  0
  190.6210  175.1590  142.7810 C   0  0  1  0  0  3  0  0  0  0  0  0
  188.6180  176.6120  144.4040 C   0  0  0  0  0  0  0  0  0  0  0  0
  190.7950  175.9900  147.6500 C   0  0  0  0  0  1  0  0  0  0  0  0
  190.5800  173.7180  140.5470 C   0  0  0  0  0  2  0  0  0  0  0  0
  192.7060  174.4550  144.1620 C   0  0  2  0  0  3  0  0  0  0  0  0
  192.6590  174.1650  141.7240 C   0  0  0  0  0  3  0  0  0  0  0  0
  188.3320  175.3530  143.6950 C   0  0  0  0  0  3  0  0  0  0  0  0
  192.7380  174.9170  146.6030 C   0  0  0  0  0  2  0  0  0  0  0  0
  193.5880  174.8350  145.3540 C   0  0  1  0  0  3  0  0  0  0  0  0
  189.9220  178.1470  145.6270 O   0  0  0  0  0  1  0  0  0  0  0  0
  190.9360  175.9570  145.1410 C   0  0  0  0  0  0  0  0  0  0  0  0
  193.4760  174.6790  142.8630 C   0  0  0  0  0  2  0  0  0  0  0  0
  195.5390  171.5800  145.7000 C   0  0  0  0  0  0  0  0  0  0  0  0
  196.8310  172.0670  145.9210 C   0  0  0  0  0  3  0  0  0  0  0  0
  194.7070  173.8560  145.5490 C   0  0  0  0  0  0  0  0  0  0  0  0
  197.0620  173.4450  145.9570 C   0  0  0  0  0  3  0  0  0  0  0  0
  194.4790  172.4710  145.5150 C   0  0  0  0  0  3  0  0  0  0  0  0
  196.0020  174.3380  145.7720 C   0  0  0  0  0  3  0  0  0  0  0  0
  195.3150  170.2450  145.6650 F   0  0  0  0  0  0  0  0  0  0  0  0
  187.4920  177.5980  144.4570 C   0  0  0  0  0  2  0  0  0  0  0  0
  185.5130  177.6240  142.1600 C   0  0  0  0  0  1  0  0  0  0  0  0
  186.1380  176.8880  144.5050 C   0  0  2  0  0  3  0  0  0  0  0  0
  185.0960  177.5880  143.6190 C   0  0  1  0  0  3  0  0  0  0  0  0
  184.8070  179.1300  145.6460 C   0  0  0  0  0  2  0  0  0  0  0  0
  184.5640  177.7930  146.3390 C   0  0  0  0  0  2  0  0  0  0  0  0
  185.6440  176.7690  145.9600 C   0  0  0  0  0  2  0  0  0  0  0  0
  184.7330  178.9940  144.1190 C   0  0  0  0  0  2  0  0  0  0  0  0
  1 13  2  0  0  0  0
  2 14  2  0  0  0  0
  3 12  1  0  0  0  0
  3 18  2  0  0  0  0
  4 15  1  0  0  0  0
  4 10  1  1  0  0  0
  5  6  1  0  0  0  0
  6  2  1  0  0  0  0
  7 18  1  0  0  0  0
  7 17  1  0  0  0  0
  8  1  1  6  0  0  0
  8  2  1  0  0  0  0
  8  3  1  0  0  0  0
  9 27  1  0  0  0  0
  9  7  2  0  0  0  0
 11  5  1  0  0  0  0
 11  1  1  0  0  0  0
 12 19  1  6  0  0  0
 12 16  1  0  0  0  0
 13 19  1  0  0  0  0
 14  9  1  0  0  0  0
 16 22  1  1  0  0  0
 16 15  1  0  0  0  0
 18  4  1  0  0  0  0
 20 21  1  0  0  0  0
 21 23  2  0  0  0  0
 22 25  2  0  0  0  0
 24 22  1  0  0  0  0
 24 20  2  0  0  0  0
 25 23  1  0  0  0  0
 26 20  1  0  0  0  0
 29 27  1  1  0  0  0
 29 33  1  0  0  0  0
 30 28  1  6  0  0  0
 30 34  1  0  0  0  0
 30 29  1  0  0  0  0
 31 32  1  0  0  0  0
 33 32  1  0  0  0  0
 34 31  1  0  0  0  0
M  END
>  <MODEL>
1

>  <REMARK>
 VINA RESULT:      -9.8      0.000      0.000
  Name = 
  3 active torsions:
  status: ('A' for Active; 'I' for Inactive)
    1  A    between atoms: C_3  and  C_13
    2  A    between atoms: C_3  and  C_17
    3  A    between atoms: C_12  and  C_28
                            x       y       z     vdW  Elec       q    Type
                         _______ _______ _______ _____ _____    ______ ____

>  <TORSDO>
F 3

$$$$
=
 OpenBabel11052418473D

 34 39  0  0  1  0  0  0  0  0999 V2000
  191.4130  174.3800  141.6310 C   0  0  0  0  0  0  0  0  0  0  0  0
  189.2590  174.5010  142.9250 C   0  0  0  0  0  0  0  0  0  0  0  0
  191.3850  175.1230  144.0820 C   0  0  0  0  0  0  0  0  0  0  0  0
  191.6330  175.8480  146.4730 C   0  0  1  0  0  3  0  0  0  0  0  0
  189.1880  173.6540  140.6450 C   0  0  0  0  0  2  0  0  0  0  0  0
  188.8330  173.3390  142.0900 C   0  0  0  0  0  2  0  0  0  0  0  0
  189.6890  176.6900  145.0400 C   0  0  0  0  0  0  0  0  0  0  0  0
  190.6400  175.0800  142.7560 C   0  0  1  0  0  3  0  0  0  0  0  0
  188.5450  176.3730  144.3980 C   0  0  0  0  0  0  0  0  0  0  0  0
  190.6900  175.7150  147.6570 C   0  0  0  0  0  1  0  0  0  0  0  0
  190.7050  173.7320  140.4660 C   0  0  0  0  0  2  0  0  0  0  0  0
  192.7310  174.4130  144.1480 C   0  0  2  0  0  3  0  0  0  0  0  0
  192.7400  174.2220  141.7000 C   0  0  0  0  0  3  0  0  0  0  0  0
  188.3290  175.1330  143.6330 C   0  0  0  0  0  3  0  0  0  0  0  0
  192.6990  174.7740  146.6070 C   0  0  0  0  0  2  0  0  0  0  0  0
  193.5730  174.7820  145.3720 C   0  0  1  0  0  3  0  0  0  0  0  0
  189.7570  177.9120  145.7080 O   0  0  0  0  0  1  0  0  0  0  0  0
  190.8770  175.7930  145.1520 C   0  0  0  0  0  0  0  0  0  0  0  0
  193.5130  174.7240  142.8750 C   0  0  0  0  0  2  0  0  0  0  0  0
  195.6580  171.6050  145.6560 C   0  0  0  0  0  0  0  0  0  0  0  0
  196.9290  172.1410  145.8880 C   0  0  0  0  0  3  0  0  0  0  0  0
  194.7320  173.8460  145.5490 C   0  0  0  0  0  0  0  0  0  0  0  0
  197.1020  173.5270  145.9510 C   0  0  0  0  0  3  0  0  0  0  0  0
  194.5620  172.4550  145.4870 C   0  0  0  0  0  3  0  0  0  0  0  0
  196.0050  174.3780  145.7820 C   0  0  0  0  0  3  0  0  0  0  0  0
  195.4900  170.2620  145.5940 F   0  0  0  0  0  0  0  0  0  0  0  0
  187.3750  177.3050  144.4690 C   0  0  0  0  0  2  0  0  0  0  0  0
  185.4120  179.6080  144.2730 C   0  0  0  0  0  1  0  0  0  0  0  0
  187.5250  178.4570  143.4720 C   0  0  2  0  0  3  0  0  0  0  0  0
  186.1640  179.0500  143.0780 C   0  0  1  0  0  3  0  0  0  0  0  0
  186.1000  177.0970  141.4190 C   0  0  0  0  0  2  0  0  0  0  0  0
  187.4370  177.7040  141.0060 C   0  0  0  0  0  2  0  0  0  0  0  0
  188.3140  177.9950  142.2320 C   0  0  0  0  0  2  0  0  0  0  0  0
  185.2880  178.0650  142.2910 C   0  0  0  0  0  2  0  0  0  0  0  0
  1 13  2  0  0  0  0
  2 14  2  0  0  0  0
  3 12  1  0  0  0  0
  3 18  2  0  0  0  0
  4 15  1  0  0  0  0
  4 10  1  1  0  0  0
  5  6  1  0  0  0  0
  6  2  1  0  0  0  0
  7 18  1  0  0  0  0
  7 17  1  0  0  0  0
  8  1  1  6  0  0  0
  8  2  1  0  0  0  0
  8  3  1  0  0  0  0
  9 27  1  0  0  0  0
  9  7  2  0  0  0  0
 11  5  1  0  0  0  0
 11  1  1  0  0  0  0
 12 19  1  6  0  0  0
 12 16  1  0  0  0  0
 13 19  1  0  0  0  0
 14  9  1  0  0  0  0
 16 22  1  1  0  0  0
 16 15  1  0  0  0  0
 18  4  1  0  0  0  0
 20 21  1  0  0  0  0
 21 23  2  0  0  0  0
 22 25  2  0  0  0  0
 24 22  1  0  0  0  0
 24 20  2  0  0  0  0
 25 23  1  0  0  0  0
 26 20  1  0  0  0  0
 29 27  1  1  0  0  0
 30 29  1  0  0  0  0
 30 28  1  1  0  0  0
 31 34  1  0  0  0  0
 32 31  1  0  0  0  0
 32 33  1  0  0  0  0
 33 29  1  0  0  0  0
 34 30  1  0  0  0  0
M  END
>  <MODEL>
2

>  <REMARK>
 VINA RESULT:      -9.1      0.803      1.763
  Name = 
  3 active torsions:
  status: ('A' for Active; 'I' for Inactive)
    1  A    between atoms: C_3  and  C_13
    2  A    between atoms: C_3  and  C_17
    3  A    between atoms: C_12  and  C_28
                            x       y       z     vdW  Elec       q    Type
                         _______ _______ _______ _____ _____    ______ ____

>  <TORSDO>
F 3

$$$$
=
 OpenBabel11052418473D

 34 39  0  0  1  0  0  0  0  0999 V2000
  190.7820  174.3630  145.3880 C   0  0  0  0  0  0  0  0  0  0  0  0
  189.9050  176.6580  144.8490 C   0  0  0  0  0  0  0  0  0  0  0  0
  189.3380  174.7720  143.3110 C   0  0  0  0  0  0  0  0  0  0  0  0
  187.9770  174.9130  141.2060 C   0  0  1  0  0  3  0  0  0  0  0  0
  191.3780  176.4070  146.7710 C   0  0  0  0  0  2  0  0  0  0  0  0
  191.1740  177.1540  145.4610 C   0  0  0  0  0  2  0  0  0  0  0  0
  187.2870  176.2010  143.3060 C   0  0  0  0  0  0  0  0  0  0  0  0
  189.6520  175.1770  144.7440 C   0  0  1  0  0  3  0  0  0  0  0  0
  187.5810  177.2070  144.1550 C   0  0  0  0  0  0  0  0  0  0  0  0
  187.5810  176.1070  140.3540 C   0  0  0  0  0  1  0  0  0  0  0  0
  191.6200  174.9200  146.5130 C   0  0  0  0  0  2  0  0  0  0  0  0
  190.2160  173.6970  142.6830 C   0  0  2  0  0  3  0  0  0  0  0  0
  191.1380  173.1690  144.8970 C   0  0  0  0  0  3  0  0  0  0  0  0
  188.9390  177.5410  144.6220 C   0  0  0  0  0  3  0  0  0  0  0  0
  189.1270  174.2070  140.5090 C   0  0  0  0  0  2  0  0  0  0  0  0
  189.6440  173.0970  141.3970 C   0  0  1  0  0  3  0  0  0  0  0  0
  185.9510  175.9900  142.9680 O   0  0  0  0  0  1  0  0  0  0  0  0
  188.2990  175.3320  142.6350 C   0  0  0  0  0  0  0  0  0  0  0  0
  190.4440  172.5900  143.7080 C   0  0  0  0  0  2  0  0  0  0  0  0
  191.4090  170.1890  139.6780 C   0  0  0  0  0  0  0  0  0  0  0  0
  192.6110  170.7950  139.2990 C   0  0  0  0  0  3  0  0  0  0  0  0
  190.6670  172.2800  140.6650 C   0  0  0  0  0  0  0  0  0  0  0  0
  192.8420  172.1400  139.6020 C   0  0  0  0  0  3  0  0  0  0  0  0
  190.4390  170.9290  140.3610 C   0  0  0  0  0  3  0  0  0  0  0  0
  191.8720  172.8810  140.2840 C   0  0  0  0  0  3  0  0  0  0  0  0
  191.1850  168.8860  139.3850 F   0  0  0  0  0  0  0  0  0  0  0  0
  186.4850  178.0940  144.6600 C   0  0  0  0  0  2  0  0  0  0  0  0
  183.6980  179.0410  145.3880 C   0  0  0  0  0  1  0  0  0  0  0  0
  185.5640  177.3400  145.6220 C   0  0  2  0  0  3  0  0  0  0  0  0
  184.6000  178.2890  146.3500 C   0  0  1  0  0  3  0  0  0  0  0  0
  186.5900  178.6660  147.9200 C   0  0  0  0  0  2  0  0  0  0  0  0
  186.5090  177.1460  148.0150 C   0  0  0  0  0  2  0  0  0  0  0  0
  186.3930  176.5110  146.6220 C   0  0  0  0  0  2  0  0  0  0  0  0
  185.3190  179.2600  147.2980 C   0  0  0  0  0  2  0  0  0  0  0  0
  1 11  1  0  0  0  0
  2  6  1  0  0  0  0
  4 10  1  6  0  0  0
  4 18  1  0  0  0  0
  6  5  1  0  0  0  0
  7  9  2  0  0  0  0
  8  3  1  6  0  0  0
  8  2  1  0  0  0  0
  8  1  1  0  0  0  0
  9 14  1  0  0  0  0
  9 27  1  0  0  0  0
 11  5  1  0  0  0  0
 12  3  1  0  0  0  0
 12 19  1  1  0  0  0
 13  1  2  0  0  0  0
 14  2  2  0  0  0  0
 15  4  1  0  0  0  0
 15 16  1  0  0  0  0
 16 22  1  6  0  0  0
 16 12  1  0  0  0  0
 17  7  1  0  0  0  0
 18  7  1  0  0  0  0
 18  3  2  0  0  0  0
 19 13  1  0  0  0  0
 20 24  1  0  0  0  0
 21 23  1  0  0  0  0
 21 20  2  0  0  0  0
 23 25  2  0  0  0  0
 24 22  2  0  0  0  0
 25 22  1  0  0  0  0
 26 20  1  0  0  0  0
 29 27  1  1  0  0  0
 29 30  1  0  0  0  0
 29 33  1  0  0  0  0
 30 28  1  6  0  0  0
 30 34  1  0  0  0  0
 31 32  1  0  0  0  0
 33 32  1  0  0  0  0
 34 31  1  0  0  0  0
M  END
>  <MODEL>
3

>  <REMARK>
 VINA RESULT:      -8.3      2.867      5.038
  Name = 
  3 active torsions:
  status: ('A' for Active; 'I' for Inactive)
    1  A    between atoms: C_3  and  C_13
    2  A    between atoms: C_3  and  C_17
    3  A    between atoms: C_12  and  C_28
                            x       y       z     vdW  Elec       q    Type
                         _______ _______ _______ _____ _____    ______ ____

>  <TORSDO>
F 3

$$$$
=
 OpenBabel11052418473D

 34 39  0  0  1  0  0  0  0  0999 V2000
  190.1650  177.0010  145.6060 C   0  0  0  0  0  0  0  0  0  0  0  0
  190.7220  174.5490  145.6640 C   0  0  0  0  0  0  0  0  0  0  0  0
  189.9310  175.5430  143.5130 C   0  0  0  0  0  0  0  0  0  0  0  0
  189.5860  174.3340  141.3400 C   0  0  1  0  0  3  0  0  0  0  0  0
  190.8510  175.8100  147.7420 C   0  0  0  0  0  2  0  0  0  0  0  0
  190.2290  174.5930  147.0730 C   0  0  0  0  0  2  0  0  0  0  0  0
  191.6190  173.8380  142.8120 C   0  0  0  0  0  0  0  0  0  0  0  0
  190.6790  175.7920  144.8140 C   0  0  1  0  0  3  0  0  0  0  0  0
  192.0660  173.3160  143.9730 C   0  0  0  0  0  0  0  0  0  0  0  0
  189.4560  172.8500  141.0350 C   0  0  0  0  0  1  0  0  0  0  0  0
  190.3370  177.1000  147.1030 C   0  0  0  0  0  2  0  0  0  0  0  0
  188.7450  176.4490  143.2070 C   0  0  2  0  0  3  0  0  0  0  0  0
  189.4470  177.9610  145.0110 C   0  0  0  0  0  3  0  0  0  0  0  0
  191.3930  173.4700  145.2750 C   0  0  0  0  0  3  0  0  0  0  0  0
  188.1910  174.9350  141.3160 C   0  0  0  0  0  2  0  0  0  0  0  0
  188.2630  176.3800  141.7560 C   0  0  1  0  0  3  0  0  0  0  0  0
  192.3740  173.6280  141.6580 O   0  0  0  0  0  1  0  0  0  0  0  0
  190.3270  174.5690  142.6500 C   0  0  0  0  0  0  0  0  0  0  0  0
  189.1230  177.8860  143.5550 C   0  0  0  0  0  2  0  0  0  0  0  0
  184.7970  177.7950  142.4700 C   0  0  0  0  0  0  0  0  0  0  0  0
  184.4480  178.2900  141.2090 C   0  0  0  0  0  3  0  0  0  0  0  0
  186.9300  177.0440  141.5840 C   0  0  0  0  0  0  0  0  0  0  0  0
  185.3370  178.1630  140.1380 C   0  0  0  0  0  3  0  0  0  0  0  0
  186.0350  177.1730  142.6570 C   0  0  0  0  0  3  0  0  0  0  0  0
  186.5740  177.5410  140.3250 C   0  0  0  0  0  3  0  0  0  0  0  0
  183.9370  177.9190  143.5090 F   0  0  0  0  0  0  0  0  0  0  0  0
  193.3140  172.4890  143.9810 C   0  0  0  0  0  2  0  0  0  0  0  0
  194.7230  174.9340  145.0910 C   0  0  0  0  0  1  0  0  0  0  0  0
  193.9900  172.5210  145.3530 C   0  0  2  0  0  3  0  0  0  0  0  0
  195.1630  173.5120  145.3890 C   0  0  1  0  0  3  0  0  0  0  0  0
  196.4760  171.5740  144.3440 C   0  0  0  0  0  2  0  0  0  0  0  0
  195.9440  170.8520  145.5780 C   0  0  0  0  0  2  0  0  0  0  0  0
  194.4420  171.1060  145.7630 C   0  0  0  0  0  2  0  0  0  0  0  0
  196.3240  173.0960  144.4740 C   0  0  0  0  0  2  0  0  0  0  0  0
  1 11  1  0  0  0  0
  2  6  1  0  0  0  0
  4 10  1  1  0  0  0
  4 18  1  0  0  0  0
  6  5  1  0  0  0  0
  7  9  2  0  0  0  0
  8  3  1  6  0  0  0
  8  1  1  0  0  0  0
  8  2  1  0  0  0  0
  9 27  1  0  0  0  0
  9 14  1  0  0  0  0
 11  5  1  0  0  0  0
 12  3  1  0  0  0  0
 12 19  1  6  0  0  0
 13  1  2  0  0  0  0
 14  2  2  0  0  0  0
 15  4  1  0  0  0  0
 15 16  1  0  0  0  0
 16 22  1  1  0  0  0
 16 12  1  0  0  0  0
 17  7  1  0  0  0  0
 18  7  1  0  0  0  0
 18  3  2  0  0  0  0
 19 13  1  0  0  0  0
 20 24  1  0  0  0  0
 20 26  1  0  0  0  0
 21 20  2  0  0  0  0
 22 24  2  0  0  0  0
 23 25  2  0  0  0  0
 23 21  1  0  0  0  0
 25 22  1  0  0  0  0
 29 27  1  6  0  0  0
 29 30  1  0  0  0  0
 29 33  1  0  0  0  0
 30 28  1  6  0  0  0
 31 34  1  0  0  0  0
 31 32  1  0  0  0  0
 32 33  1  0  0  0  0
 34 30  1  0  0  0  0
M  END
>  <MODEL>
4

>  <REMARK>
 VINA RESULT:      -8.3      3.096      8.827
  Name = 
  3 active torsions:
  status: ('A' for Active; 'I' for Inactive)
    1  A    between atoms: C_3  and  C_13
    2  A    between atoms: C_3  and  C_17
    3  A    between atoms: C_12  and  C_28
                            x       y       z     vdW  Elec       q    Type
                         _______ _______ _______ _____ _____    ______ ____

>  <TORSDO>
F 3

$$$$
=
 OpenBabel11052418473D

 34 39  0  0  1  0  0  0  0  0999 V2000
  189.5570  172.9850  141.5610 C   0  0  0  0  0  0  0  0  0  0  0  0
  191.8660  173.9790  141.6630 C   0  0  0  0  0  0  0  0  0  0  0  0
  189.9780  175.2310  142.7190 C   0  0  0  0  0  0  0  0  0  0  0  0
  190.1180  177.4530  143.8800 C   0  0  1  0  0  3  0  0  0  0  0  0
  191.5560  171.9090  140.4220 C   0  0  0  0  0  2  0  0  0  0  0  0
  192.0700  173.3380  140.3300 C   0  0  0  0  0  2  0  0  0  0  0  0
  191.9230  175.6730  144.2270 C   0  0  0  0  0  0  0  0  0  0  0  0
  190.5330  173.8620  142.3560 C   0  0  1  0  0  3  0  0  0  0  0  0
  192.9370  174.9780  143.6730 C   0  0  0  0  0  0  0  0  0  0  0  0
  191.1940  178.5250  143.8530 C   0  0  0  0  0  1  0  0  0  0  0  0
  190.0430  171.8920  140.6390 C   0  0  0  0  0  2  0  0  0  0  0  0
  188.5940  175.5840  142.1900 C   0  0  2  0  0  3  0  0  0  0  0  0
  188.2420  173.2340  141.5700 C   0  0  0  0  0  3  0  0  0  0  0  0
  192.9360  174.4430  142.3000 C   0  0  0  0  0  3  0  0  0  0  0  0
  188.9860  177.9090  142.9760 C   0  0  0  0  0  2  0  0  0  0  0  0
  187.9600  176.8030  142.8640 C   0  0  1  0  0  3  0  0  0  0  0  0
  192.0560  176.0990  145.5480 O   0  0  0  0  0  1  0  0  0  0  0  0
  190.6830  176.0890  143.5050 C   0  0  0  0  0  0  0  0  0  0  0  0
  187.6820  174.3720  142.3570 C   0  0  0  0  0  2  0  0  0  0  0  0
  184.4400  178.0160  142.0500 C   0  0  0  0  0  0  0  0  0  0  0  0
  184.5310  178.1830  140.6650 C   0  0  0  0  0  3  0  0  0  0  0  0
  186.7550  177.2850  142.1130 C   0  0  0  0  0  0  0  0  0  0  0  0
  185.7300  177.9020  140.0040 C   0  0  0  0  0  3  0  0  0  0  0  0
  185.5490  177.5680  142.7730 C   0  0  0  0  0  3  0  0  0  0  0  0
  186.8390  177.4540  140.7260 C   0  0  0  0  0  3  0  0  0  0  0  0
  183.2790  178.2890  142.6910 F   0  0  0  0  0  0  0  0  0  0  0  0
  194.1860  174.7360  144.4630 C   0  0  0  0  0  2  0  0  0  0  0  0
  194.0590  171.7080  144.5690 C   0  0  0  0  0  1  0  0  0  0  0  0
  195.1530  173.8250  143.7030 C   0  0  2  0  0  3  0  0  0  0  0  0
  195.3560  172.4830  144.4210 C   0  0  1  0  0  3  0  0  0  0  0  0
  197.0600  173.7960  145.8140 C   0  0  0  0  0  2  0  0  0  0  0  0
  197.6140  174.1020  144.4260 C   0  0  0  0  0  2  0  0  0  0  0  0
  196.4970  174.5420  143.4700 C   0  0  0  0  0  2  0  0  0  0  0  0
  196.0620  172.6300  145.7770 C   0  0  0  0  0  2  0  0  0  0  0  0
  1 13  2  0  0  0  0
  2 14  2  0  0  0  0
  2  8  1  0  0  0  0
  3 18  2  0  0  0  0
  4 10  1  6  0  0  0
  5 11  1  0  0  0  0
  6  5  1  0  0  0  0
  6  2  1  0  0  0  0
  7 17  1  0  0  0  0
  8  1  1  6  0  0  0
  8  3  1  0  0  0  0
  9  7  2  0  0  0  0
  9 27  1  0  0  0  0
 11  1  1  0  0  0  0
 12 19  1  1  0  0  0
 12  3  1  0  0  0  0
 12 16  1  0  0  0  0
 13 19  1  0  0  0  0
 14  9  1  0  0  0  0
 15  4  1  0  0  0  0
 16 22  1  6  0  0  0
 16 15  1  0  0  0  0
 18  4  1  0  0  0  0
 18  7  1  0  0  0  0
 20 26  1  0  0  0  0
 20 24  1  0  0  0  0
 21 20  2  0  0  0  0
 22 24  2  0  0  0  0
 23 21  1  0  0  0  0
 23 25  2  0  0  0  0
 25 22  1  0  0  0  0
 29 30  1  0  0  0  0
 29 27  1  1  0  0  0
 30 28  1  1  0  0  0
 30 34  1  0  0  0  0
 32 31  1  0  0  0  0
 33 29  1  0  0  0  0
 33 32  1  0  0  0  0
 34 31  1  0  0  0  0
M  END
>  <MODEL>
5

>  <REMARK>
 VINA RESULT:      -8.2      3.102      8.525
  Name = 
  3 active torsions:
  status: ('A' for Active; 'I' for Inactive)
    1  A    between atoms: C_3  and  C_13
    2  A    between atoms: C_3  and  C_17
    3  A    between atoms: C_12  and  C_28
                            x       y       z     vdW  Elec       q    Type
                         _______ _______ _______ _____ _____    ______ ____

>  <TORSDO>
F 3

$$$$
=
 OpenBabel11052418473D

 34 39  0  0  1  0  0  0  0  0999 V2000
  190.6640  173.8920  140.9820 C   0  0  0  0  0  0  0  0  0  0  0  0
  189.4500  174.4250  143.1200 C   0  0  0  0  0  0  0  0  0  0  0  0
  191.7790  175.2810  142.8230 C   0  0  0  0  0  0  0  0  0  0  0  0
  193.1020  176.6290  144.4770 C   0  0  1  0  0  3  0  0  0  0  0  0
  188.3480  172.9860  141.4960 C   0  0  0  0  0  2  0  0  0  0  0  0
  188.8030  173.0910  142.9440 C   0  0  0  0  0  2  0  0  0  0  0  0
  190.6170  177.0990  144.0870 C   0  0  0  0  0  0  0  0  0  0  0  0
  190.4820  174.8960  142.1270 C   0  0  1  0  0  3  0  0  0  0  0  0
  189.3530  176.6500  144.2270 C   0  0  0  0  0  0  0  0  0  0  0  0
  192.9010  176.8540  145.9660 C   0  0  0  0  0  1  0  0  0  0  0  0
  189.5500  172.9690  140.5510 C   0  0  0  0  0  2  0  0  0  0  0  0
  193.0500  174.5790  142.3640 C   0  0  2  0  0  3  0  0  0  0  0  0
  191.8550  173.7220  140.3970 C   0  0  0  0  0  3  0  0  0  0  0  0
  188.9310  175.2530  144.0200 C   0  0  0  0  0  3  0  0  0  0  0  0
  194.2100  175.6040  144.3080 C   0  0  0  0  0  2  0  0  0  0  0  0
  194.3410  175.2470  142.8440 C   0  0  1  0  0  3  0  0  0  0  0  0
  190.8650  178.4550  144.2950 O   0  0  0  0  0  1  0  0  0  0  0  0
  191.7990  176.2340  143.7940 C   0  0  0  0  0  0  0  0  0  0  0  0
  193.0470  174.5060  140.8390 C   0  0  0  0  0  2  0  0  0  0  0  0
  196.7030  172.2570  142.9290 C   0  0  0  0  0  0  0  0  0  0  0  0
  197.7870  172.7550  142.2000 C   0  0  0  0  0  3  0  0  0  0  0  0
  195.5340  174.3640  142.6280 C   0  0  0  0  0  0  0  0  0  0  0  0
  197.7460  174.0540  141.6860 C   0  0  0  0  0  3  0  0  0  0  0  0
  195.5780  173.0600  143.1440 C   0  0  0  0  0  3  0  0  0  0  0  0
  196.6220  174.8570  141.9000 C   0  0  0  0  0  3  0  0  0  0  0  0
  196.7410  170.9990  143.4270 F   0  0  0  0  0  0  0  0  0  0  0  0
  188.2740  177.5970  144.6520 C   0  0  0  0  0  2  0  0  0  0  0  0
  186.6420  177.9430  142.1210 C   0  0  0  0  0  1  0  0  0  0  0  0
  186.8880  176.9820  144.4540 C   0  0  2  0  0  3  0  0  0  0  0  0
  186.0220  177.8200  143.5010 C   0  0  1  0  0  3  0  0  0  0  0  0
  185.5420  179.2110  145.5990 C   0  0  0  0  0  2  0  0  0  0  0  0
  185.1270  177.8440  146.1320 C   0  0  0  0  0  2  0  0  0  0  0  0
  186.1890  176.7810  145.8120 C   0  0  0  0  0  2  0  0  0  0  0  0
  185.6750  179.2030  144.0700 C   0  0  0  0  0  2  0  0  0  0  0  0
  2 14  2  0  0  0  0
  3 18  2  0  0  0  0
  4 10  1  1  0  0  0
  5  6  1  0  0  0  0
  6  2  1  0  0  0  0
  7  9  2  0  0  0  0
  7 17  1  0  0  0  0
  8  1  1  6  0  0  0
  8  3  1  0  0  0  0
  8  2  1  0  0  0  0
  9 27  1  0  0  0  0
 11  1  1  0  0  0  0
 11  5  1  0  0  0  0
 12 19  1  6  0  0  0
 12  3  1  0  0  0  0
 12 16  1  0  0  0  0
 13 19  1  0  0  0  0
 13  1  2  0  0  0  0
 14  9  1  0  0  0  0
 15  4  1  0  0  0  0
 16 22  1  1  0  0  0
 16 15  1  0  0  0  0
 18  7  1  0  0  0  0
 18  4  1  0  0  0  0
 20 24  1  0  0  0  0
 20 26  1  0  0  0  0
 21 20  2  0  0  0  0
 22 24  2  0  0  0  0
 23 25  2  0  0  0  0
 23 21  1  0  0  0  0
 25 22  1  0  0  0  0
 29 27  1  1  0  0  0
 29 33  1  0  0  0  0
 30 28  1  6  0  0  0
 30 34  1  0  0  0  0
 30 29  1  0  0  0  0
 31 32  1  0  0  0  0
 33 32  1  0  0  0  0
 34 31  1  0  0  0  0
M  END
>  <MODEL>
6

>  <REMARK>
 VINA RESULT:      -8.1      1.740      2.060
  Name = 
  3 active torsions:
  status: ('A' for Active; 'I' for Inactive)
    1  A    between atoms: C_3  and  C_13
    2  A    between atoms: C_3  and  C_17
    3  A    between atoms: C_12  and  C_28
                            x       y       z     vdW  Elec       q    Type
                         _______ _______ _______ _____ _____    ______ ____

>  <TORSDO>
F 3

$$$$
=
 OpenBabel11052418473D

 34 39  0  0  1  0  0  0  0  0999 V2000
  191.7130  176.7640  144.6770 C   0  0  0  0  0  0  0  0  0  0  0  0
  191.8540  174.2720  144.3590 C   0  0  0  0  0  0  0  0  0  0  0  0
  189.9990  175.5170  143.2380 C   0  0  0  0  0  0  0  0  0  0  0  0
  188.1840  174.5340  141.8100 C   0  0  1  0  0  3  0  0  0  0  0  0
  193.4520  175.3360  145.8540 C   0  0  0  0  0  2  0  0  0  0  0  0
  192.3950  174.2470  145.7500 C   0  0  0  0  0  2  0  0  0  0  0  0
  190.6000  173.7190  141.6080 C   0  0  0  0  0  0  0  0  0  0  0  0
  191.4340  175.5810  143.7410 C   0  0  1  0  0  3  0  0  0  0  0  0
  191.6180  173.0610  142.2000 C   0  0  0  0  0  0  0  0  0  0  0  0
  187.6980  173.1010  141.6620 C   0  0  0  0  0  1  0  0  0  0  0  0
  192.8190  176.7200  145.7030 C   0  0  0  0  0  2  0  0  0  0  0  0
  189.0250  176.5570  143.7760 C   0  0  2  0  0  3  0  0  0  0  0  0
  190.9120  177.8360  144.6920 C   0  0  0  0  0  3  0  0  0  0  0  0
  191.9700  173.1700  143.6270 C   0  0  0  0  0  3  0  0  0  0  0  0
  187.1950  175.2680  142.6980 C   0  0  0  0  0  2  0  0  0  0  0  0
  187.7190  176.6580  142.9860 C   0  0  1  0  0  3  0  0  0  0  0  0
  190.3990  173.5340  140.2400 O   0  0  0  0  0  1  0  0  0  0  0  0
  189.6160  174.5840  142.3240 C   0  0  0  0  0  0  0  0  0  0  0  0
  189.7200  177.9160  143.7950 C   0  0  0  0  0  2  0  0  0  0  0  0
  185.1310  177.7470  145.5620 C   0  0  0  0  0  0  0  0  0  0  0  0
  184.7650  178.9990  145.0580 C   0  0  0  0  0  3  0  0  0  0  0  0
  186.6880  177.4610  143.7220 C   0  0  0  0  0  0  0  0  0  0  0  0
  185.3570  179.4810  143.8880 C   0  0  0  0  0  3  0  0  0  0  0  0
  186.0900  176.9790  144.8960 C   0  0  0  0  0  3  0  0  0  0  0  0
  186.3170  178.7140  143.2210 C   0  0  0  0  0  3  0  0  0  0  0  0
  184.5570  177.2790  146.6960 F   0  0  0  0  0  0  0  0  0  0  0  0
  192.4570  172.1180  141.3950 C   0  0  0  0  0  2  0  0  0  0  0  0
  194.8020  170.2120  141.6500 C   0  0  0  0  0  1  0  0  0  0  0  0
  192.3240  170.6830  141.9080 C   0  0  2  0  0  3  0  0  0  0  0  0
  193.3940  169.7600  141.3070 C   0  0  1  0  0  3  0  0  0  0  0  0
  191.7740  169.6240  139.3260 C   0  0  0  0  0  2  0  0  0  0  0  0
  190.8160  169.1960  140.4330 C   0  0  0  0  0  2  0  0  0  0  0  0
  190.9060  170.1450  141.6380 C   0  0  0  0  0  2  0  0  0  0  0  0
  193.2350  169.5680  139.7910 C   0  0  0  0  0  2  0  0  0  0  0  0
  1 13  2  0  0  0  0
  1 11  1  0  0  0  0
  2  6  1  0  0  0  0
  3 12  1  0  0  0  0
  4 10  1  1  0  0  0
  4 18  1  0  0  0  0
  4 15  1  0  0  0  0
  6  5  1  0  0  0  0
  7  9  2  0  0  0  0
  7 18  1  0  0  0  0
  8  3  1  1  0  0  0
  8  2  1  0  0  0  0
  8  1  1  0  0  0  0
  9 14  1  0  0  0  0
 11  5  1  0  0  0  0
 12 19  1  6  0  0  0
 14  2  2  0  0  0  0
 15 16  1  0  0  0  0
 16 22  1  1  0  0  0
 16 12  1  0  0  0  0
 17  7  1  0  0  0  0
 18  3  2  0  0  0  0
 19 13  1  0  0  0  0
 20 26  1  0  0  0  0
 21 20  1  0  0  0  0
 22 24  1  0  0  0  0
 23 21  2  0  0  0  0
 24 20  2  0  0  0  0
 25 22  2  0  0  0  0
 25 23  1  0  0  0  0
 27  9  1  0  0  0  0
 29 27  1  6  0  0  0
 30 28  1  6  0  0  0
 30 29  1  0  0  0  0
 31 34  1  0  0  0  0
 31 32  1  0  0  0  0
 32 33  1  0  0  0  0
 33 29  1  0  0  0  0
 34 30  1  0  0  0  0
M  END
>  <MODEL>
7

>  <REMARK>
 VINA RESULT:      -8.0      3.363      8.606
  Name = 
  3 active torsions:
  status: ('A' for Active; 'I' for Inactive)
    1  A    between atoms: C_3  and  C_13
    2  A    between atoms: C_3  and  C_17
    3  A    between atoms: C_12  and  C_28
                            x       y       z     vdW  Elec       q    Type
                         _______ _______ _______ _____ _____    ______ ____

>  <TORSDO>
F 3

$$$$
=
 OpenBabel11052418473D

 34 39  0  0  1  0  0  0  0  0999 V2000
  191.6660  176.7380  144.9890 C   0  0  0  0  0  0  0  0  0  0  0  0
  191.8600  174.2750  144.5130 C   0  0  0  0  0  0  0  0  0  0  0  0
  190.0220  175.5640  143.4130 C   0  0  0  0  0  0  0  0  0  0  0  0
  188.2720  174.6500  141.8630 C   0  0  1  0  0  3  0  0  0  0  0  0
  193.3890  175.2620  146.1280 C   0  0  0  0  0  2  0  0  0  0  0  0
  192.3550  174.1660  145.9170 C   0  0  0  0  0  2  0  0  0  0  0  0
  190.7080  173.8870  141.6900 C   0  0  0  0  0  0  0  0  0  0  0  0
  191.4380  175.6160  143.9680 C   0  0  1  0  0  3  0  0  0  0  0  0
  191.7170  173.2070  142.2720 C   0  0  0  0  0  0  0  0  0  0  0  0
  187.8160  173.2230  141.6040 C   0  0  0  0  0  1  0  0  0  0  0  0
  192.7380  176.6420  146.0470 C   0  0  0  0  0  2  0  0  0  0  0  0
  189.0130  176.5510  143.9860 C   0  0  2  0  0  3  0  0  0  0  0  0
  190.8460  177.7940  145.0470 C   0  0  0  0  0  3  0  0  0  0  0  0
  192.0190  173.2260  143.7140 C   0  0  0  0  0  3  0  0  0  0  0  0
  187.2420  175.3090  142.7630 C   0  0  0  0  0  2  0  0  0  0  0  0
  187.7320  176.6840  143.1600 C   0  0  1  0  0  3  0  0  0  0  0  0
  190.5550  173.7910  140.3070 O   0  0  0  0  0  1  0  0  0  0  0  0
  189.6850  174.6880  142.4270 C   0  0  0  0  0  0  0  0  0  0  0  0
  189.6830  177.9160  144.1180 C   0  0  0  0  0  2  0  0  0  0  0  0
  185.0720  177.5790  145.7380 C   0  0  0  0  0  0  0  0  0  0  0  0
  184.6700  178.8370  145.2780 C   0  0  0  0  0  3  0  0  0  0  0  0
  186.6630  177.4210  143.9110 C   0  0  0  0  0  0  0  0  0  0  0  0
  185.2610  179.3870  144.1370 C   0  0  0  0  0  3  0  0  0  0  0  0
  186.0660  176.8720  145.0560 C   0  0  0  0  0  3  0  0  0  0  0  0
  186.2560  178.6800  143.4550 C   0  0  0  0  0  3  0  0  0  0  0  0
  184.4990  177.0460  146.8430 F   0  0  0  0  0  0  0  0  0  0  0  0
  192.5980  172.3320  141.4350 C   0  0  0  0  0  2  0  0  0  0  0  0
  194.7170  171.1070  139.6450 C   0  0  0  0  0  1  0  0  0  0  0  0
  193.6890  173.1500  140.7400 C   0  0  2  0  0  3  0  0  0  0  0  0
  194.9650  172.3250  140.5170 C   0  0  1  0  0  3  0  0  0  0  0  0
  195.4760  172.9630  142.9460 C   0  0  0  0  0  2  0  0  0  0  0  0
  195.2680  174.3640  142.3800 C   0  0  0  0  0  2  0  0  0  0  0  0
  193.9870  174.4350  141.5370 C   0  0  0  0  0  2  0  0  0  0  0  0
  195.6570  171.9260  141.8290 C   0  0  0  0  0  2  0  0  0  0  0  0
  1 13  2  0  0  0  0
  1 11  1  0  0  0  0
  2  6  1  0  0  0  0
  3 12  1  0  0  0  0
  4 10  1  1  0  0  0
  4 18  1  0  0  0  0
  4 15  1  0  0  0  0
  6  5  1  0  0  0  0
  7  9  2  0  0  0  0
  7 18  1  0  0  0  0
  8  3  1  1  0  0  0
  8  2  1  0  0  0  0
  8  1  1  0  0  0  0
  9 14  1  0  0  0  0
 11  5  1  0  0  0  0
 12 19  1  6  0  0  0
 14  2  2  0  0  0  0
 15 16  1  0  0  0  0
 16 22  1  1  0  0  0
 16 12  1  0  0  0  0
 17  7  1  0  0  0  0
 18  3  2  0  0  0  0
 19 13  1  0  0  0  0
 20 26  1  0  0  0  0
 21 20  1  0  0  0  0
 22 24  1  0  0  0  0
 23 21  2  0  0  0  0
 24 20  2  0  0  0  0
 25 22  2  0  0  0  0
 25 23  1  0  0  0  0
 27  9  1  0  0  0  0
 29 27  1  1  0  0  0
 29 33  1  0  0  0  0
 30 28  1  1  0  0  0
 30 29  1  0  0  0  0
 30 34  1  0  0  0  0
 32 31  1  0  0  0  0
 33 32  1  0  0  0  0
 34 31  1  0  0  0  0
M  END
>  <MODEL>
8

>  <REMARK>
 VINA RESULT:      -7.9      2.978      8.542
  Name = 
  3 active torsions:
  status: ('A' for Active; 'I' for Inactive)
    1  A    between atoms: C_3  and  C_13
    2  A    between atoms: C_3  and  C_17
    3  A    between atoms: C_12  and  C_28
                            x       y       z     vdW  Elec       q    Type
                         _______ _______ _______ _____ _____    ______ ____

>  <TORSDO>
F 3

$$$$
=
 OpenBabel11052418473D

 34 39  0  0  1  0  0  0  0  0999 V2000
  192.6020  176.7970  144.5250 C   0  0  0  0  0  0  0  0  0  0  0  0
  193.0030  174.5240  145.5270 C   0  0  0  0  0  0  0  0  0  0  0  0
  191.5080  174.7040  143.5330 C   0  0  0  0  0  0  0  0  0  0  0  0
  190.2950  172.8230  142.3950 C   0  0  1  0  0  3  0  0  0  0  0  0
  193.9840  176.4600  146.6290 C   0  0  0  0  0  2  0  0  0  0  0  0
  193.0870  175.2470  146.8310 C   0  0  0  0  0  2  0  0  0  0  0  0
  192.7050  172.5340  143.2040 C   0  0  0  0  0  0  0  0  0  0  0  0
  192.7080  175.2890  144.2630 C   0  0  1  0  0  3  0  0  0  0  0  0
  193.5310  172.4460  144.2670 C   0  0  0  0  0  0  0  0  0  0  0  0
  189.9770  171.4130  142.8660 C   0  0  0  0  0  1  0  0  0  0  0  0
  193.3360  177.4570  145.6670 C   0  0  0  0  0  2  0  0  0  0  0  0
  190.3470  175.6440  143.2360 C   0  0  2  0  0  3  0  0  0  0  0  0
  191.7650  177.5640  143.8160 C   0  0  0  0  0  3  0  0  0  0  0  0
  193.4150  173.2620  145.4890 C   0  0  0  0  0  3  0  0  0  0  0  0
  189.0320  173.6550  142.5380 C   0  0  0  0  0  2  0  0  0  0  0  0
  189.3460  175.0990  142.2150 C   0  0  1  0  0  3  0  0  0  0  0  0
  192.9500  171.7110  142.1050 O   0  0  0  0  0  1  0  0  0  0  0  0
  191.4910  173.4010  143.1400 C   0  0  0  0  0  0  0  0  0  0  0  0
  190.9070  176.9760  142.7440 C   0  0  0  0  0  2  0  0  0  0  0  0
  186.4820  177.3100  141.0170 C   0  0  0  0  0  0  0  0  0  0  0  0
  185.7240  177.4190  142.1870 C   0  0  0  0  0  3  0  0  0  0  0  0
  188.0860  175.9110  142.1870 C   0  0  0  0  0  0  0  0  0  0  0  0
  186.1450  176.7770  143.3550 C   0  0  0  0  0  3  0  0  0  0  0  0
  187.6610  176.5580  141.0170 C   0  0  0  0  0  3  0  0  0  0  0  0
  187.3230  176.0250  143.3550 C   0  0  0  0  0  3  0  0  0  0  0  0
  186.0750  177.9310  139.8850 F   0  0  0  0  0  0  0  0  0  0  0  0
  194.6400  171.4410  144.2600 C   0  0  0  0  0  2  0  0  0  0  0  0
  196.9690  172.8200  145.6260 C   0  0  0  0  0  1  0  0  0  0  0  0
  195.0960  171.1120  145.6840 C   0  0  2  0  0  3  0  0  0  0  0  0
  196.5990  171.3690  145.8750 C   0  0  1  0  0  3  0  0  0  0  0  0
  196.8530  169.0430  144.8290 C   0  0  0  0  0  2  0  0  0  0  0  0
  195.9080  168.6790  145.9700 C   0  0  0  0  0  2  0  0  0  0  0  0
  194.7290  169.6600  146.0450 C   0  0  0  0  0  2  0  0  0  0  0  0
  197.4780  170.4300  145.0370 C   0  0  0  0  0  2  0  0  0  0  0  0
  1 11  1  0  0  0  0
  2  6  1  0  0  0  0
  4 15  1  0  0  0  0
  4 10  1  1  0  0  0
  4 18  1  0  0  0  0
  5  6  1  0  0  0  0
  7  9  2  0  0  0  0
  8  3  1  1  0  0  0
  8  1  1  0  0  0  0
  8  2  1  0  0  0  0
  9 14  1  0  0  0  0
 11  5  1  0  0  0  0
 12 19  1  6  0  0  0
 12  3  1  0  0  0  0
 13  1  2  0  0  0  0
 14  2  2  0  0  0  0
 16 22  1  1  0  0  0
 16 15  1  0  0  0  0
 16 12  1  0  0  0  0
 17  7  1  0  0  0  0
 18  7  1  0  0  0  0
 18  3  2  0  0  0  0
 19 13  1  0  0  0  0
 20 21  1  0  0  0  0
 21 23  2  0  0  0  0
 22 25  2  0  0  0  0
 24 20  2  0  0  0  0
 24 22  1  0  0  0  0
 25 23  1  0  0  0  0
 26 20  1  0  0  0  0
 27  9  1  0  0  0  0
 29 27  1  6  0  0  0
 29 30  1  0  0  0  0
 29 33  1  0  0  0  0
 30 28  1  6  0  0  0
 31 34  1  0  0  0  0
 31 32  1  0  0  0  0
 32 33  1  0  0  0  0
 34 30  1  0  0  0  0
M  END
>  <MODEL>
9

>  <REMARK>
 VINA RESULT:      -7.9      3.160      9.026
  Name = 
  3 active torsions:
  status: ('A' for Active; 'I' for Inactive)
    1  A    between atoms: C_3  and  C_13
    2  A    between atoms: C_3  and  C_17
    3  A    between atoms: C_12  and  C_28
                            x       y       z     vdW  Elec       q    Type
                         _______ _______ _______ _____ _____    ______ ____

>  <TORSDO>
F 3

$$$$
