=
 OpenBabel11052418333D

 27 30  0  0  1  0  0  0  0  0999 V2000
  188.6440  175.9960  146.1990 C   0  0  0  0  0  2  0  0  0  0  0  0
  190.4350  176.6050  143.6590 C   0  0  1  0  0  3  0  0  0  0  0  0
  188.0020  176.8570  143.5340 N   0  0  0  0  0  2  0  0  0  0  0  0
  192.7150  176.0530  142.6520 C   0  0  1  0  0  3  0  0  0  0  0  0
  191.6090  177.0900  142.8170 C   0  0  0  0  0  2  0  0  0  0  0  0
  191.1410  175.8700  147.9890 C   0  0  0  0  0  2  0  0  0  0  0  0
  190.8700  176.6230  145.1400 C   0  0  2  0  0  3  0  0  0  0  0  0
  185.1610  178.4430  145.3870 N   0  0  0  0  0  2  0  0  0  0  0  0
  191.5650  175.3170  145.5860 C   0  0  2  0  0  3  0  0  0  0  0  0
  185.4620  178.0830  146.7390 C   0  0  0  0  0  0  0  0  0  0  0  0
  189.7910  177.0100  146.1710 C   0  0  2  0  0  3  0  0  0  0  0  0
  193.3080  175.5690  143.9770 C   0  0  2  0  0  3  0  0  0  0  0  0
  187.2910  176.6270  145.8710 C   0  0  1  0  0  3  0  0  0  0  0  0
  189.2710  177.5420  143.3530 C   0  0  0  0  0  2  0  0  0  0  0  0
  185.8860  177.8970  144.2410 C   0  0  2  0  0  3  0  0  0  0  0  0
  192.2630  174.9730  141.8940 O   0  0  0  0  0  1  0  0  0  0  0  0
  184.6830  178.4290  147.6640 O   0  0  0  0  0  0  0  0  0  0  0  0
  192.2020  175.4680  146.9670 C   0  0  0  0  0  2  0  0  0  0  0  0
  186.7460  177.3860  147.0750 C   0  0  0  0  0  2  0  0  0  0  0  0
  192.4350  174.6840  144.6620 O   0  0  0  0  0  0  0  0  0  0  0  0
  187.3230  177.5310  144.6320 C   0  0  2  0  0  3  0  0  0  0  0  0
  190.4200  177.1530  147.5600 C   0  0  0  0  0  2  0  0  0  0  0  0
  195.1780  176.5470  144.6510 C   0  0  0  0  0  1  0  0  0  0  0  0
  193.7900  176.6200  144.7690 O   0  0  0  0  0  0  0  0  0  0  0  0
  185.8620  178.9170  143.1150 C   0  0  0  0  0  2  0  0  0  0  0  0
  186.0330  177.9190  140.6400 C   0  0  0  0  0  1  0  0  0  0  0  0
  184.9040  178.2900  141.7250 S   0  0  0  0  0  0  0  0  0  0  0  0
  2  5  1  6  0  0  0
  2  7  1  0  0  0  0
  3 21  1  0  0  0  0
  4 16  1  1  0  0  0
  4  5  1  0  0  0  0
  4 12  1  0  0  0  0
  7  9  1  0  0  0  0
  7 11  1  0  0  0  0
  8 10  1  0  0  0  0
  9 18  1  0  0  0  0
 10 19  1  0  0  0  0
 10 17  2  0  0  0  0
 11  1  1  0  0  0  0
 11 22  1  0  0  0  0
 12 20  1  0  0  0  0
 12 24  1  0  0  0  0
 13  1  1  0  0  0  0
 13 19  1  0  0  0  0
 14  3  1  0  0  0  0
 14  2  1  0  0  0  0
 15 21  1  0  0  0  0
 15  8  1  0  0  0  0
 18  6  1  0  0  0  0
 20  9  1  0  0  0  0
 21 13  1  0  0  0  0
 22  6  1  0  0  0  0
 23 24  1  0  0  0  0
 25 15  1  0  0  0  0
 26 27  1  0  0  0  0
 27 25  1  0  0  0  0
M  END
>  <MODEL>
1

>  <REMARK>
 VINA RESULT:      -8.0      0.000      0.000
  Name = 
  3 active torsions:
  status: ('A' for Active; 'I' for Inactive)
    1  A    between atoms: S_12  and  C_14
    2  A    between atoms: C_14  and  C_20
    3  A    between atoms: O_16  and  C_17
                            x       y       z     vdW  Elec       q    Type
                         _______ _______ _______ _____ _____    ______ ____

>  <TORSDO>
F 3

$$$$
=
 OpenBabel11052418333D

 27 30  0  0  1  0  0  0  0  0999 V2000
  188.9180  177.7150  145.4060 C   0  0  0  0  0  2  0  0  0  0  0  0
  187.8260  176.7400  142.5970 C   0  0  1  0  0  3  0  0  0  0  0  0
  190.0480  176.0450  143.3590 N   0  0  0  0  0  2  0  0  0  0  0  0
  186.1440  177.3740  140.7860 C   0  0  1  0  0  3  0  0  0  0  0  0
  186.8570  176.2500  141.5290 C   0  0  0  0  0  2  0  0  0  0  0  0
  186.1340  178.7690  146.1760 C   0  0  0  0  0  2  0  0  0  0  0  0
  187.0000  177.2120  143.8120 C   0  0  2  0  0  3  0  0  0  0  0  0
  191.7470  174.5730  146.3540 N   0  0  0  0  0  2  0  0  0  0  0  0
  186.5630  178.6910  143.7120 C   0  0  2  0  0  3  0  0  0  0  0  0
  191.1770  175.3440  147.4160 C   0  0  0  0  0  0  0  0  0  0  0  0
  187.6080  176.9480  145.2040 C   0  0  2  0  0  3  0  0  0  0  0  0
  185.3430  178.3050  141.6980 C   0  0  2  0  0  3  0  0  0  0  0  0
  190.1020  176.7930  145.6960 C   0  0  1  0  0  3  0  0  0  0  0  0
  188.7520  175.5670  142.9070 C   0  0  0  0  0  2  0  0  0  0  0  0
  191.5400  174.8930  144.9430 C   0  0  2  0  0  3  0  0  0  0  0  0
  187.0510  178.1030  140.0170 O   0  0  0  0  0  1  0  0  0  0  0  0
  191.5480  175.1410  148.6010 O   0  0  0  0  0  0  0  0  0  0  0  0
  185.5450  179.0460  144.7940 C   0  0  0  0  0  2  0  0  0  0  0  0
  190.0720  176.3190  147.1440 C   0  0  0  0  0  2  0  0  0  0  0  0
  186.1810  179.1810  142.4370 O   0  0  0  0  0  0  0  0  0  0  0  0
  190.1940  175.5980  144.7380 C   0  0  2  0  0  3  0  0  0  0  0  0
  186.5960  177.3120  146.2960 C   0  0  0  0  0  2  0  0  0  0  0  0
  183.1700  178.1410  142.1000 C   0  0  0  0  0  1  0  0  0  0  0  0
  184.4050  177.6180  142.4820 O   0  0  0  0  0  0  0  0  0  0  0  0
  191.6220  173.6110  144.1320 C   0  0  0  0  0  2  0  0  0  0  0  0
  189.8130  171.9080  143.1420 C   0  0  0  0  0  1  0  0  0  0  0  0
  190.2640  172.5100  144.5650 S   0  0  0  0  0  0  0  0  0  0  0  0
  1 13  1  0  0  0  0
  2  5  1  6  0  0  0
  2 14  1  0  0  0  0
  2  7  1  0  0  0  0
  3 21  1  0  0  0  0
  4 16  1  1  0  0  0
  4  5  1  0  0  0  0
  4 12  1  0  0  0  0
  6 22  1  0  0  0  0
  7 11  1  0  0  0  0
  8 10  1  0  0  0  0
  9  7  1  0  0  0  0
  9 18  1  0  0  0  0
 10 17  2  0  0  0  0
 11  1  1  0  0  0  0
 11 22  1  0  0  0  0
 12 20  1  0  0  0  0
 12 24  1  0  0  0  0
 13 19  1  0  0  0  0
 14  3  1  0  0  0  0
 15  8  1  0  0  0  0
 18  6  1  0  0  0  0
 19 10  1  0  0  0  0
 20  9  1  0  0  0  0
 21 15  1  0  0  0  0
 21 13  1  0  0  0  0
 23 24  1  0  0  0  0
 25 27  1  0  0  0  0
 25 15  1  0  0  0  0
 26 27  1  0  0  0  0
M  END
>  <MODEL>
2

>  <REMARK>
 VINA RESULT:      -7.2      3.207      6.446
  Name = 
  3 active torsions:
  status: ('A' for Active; 'I' for Inactive)
    1  A    between atoms: S_12  and  C_14
    2  A    between atoms: C_14  and  C_20
    3  A    between atoms: O_16  and  C_17
                            x       y       z     vdW  Elec       q    Type
                         _______ _______ _______ _____ _____    ______ ____

>  <TORSDO>
F 3

$$$$
=
 OpenBabel11052418333D

 27 30  0  0  1  0  0  0  0  0999 V2000
  188.0870  176.8730  142.0860 C   0  0  0  0  0  2  0  0  0  0  0  0
  189.8370  176.3660  144.6770 C   0  0  1  0  0  3  0  0  0  0  0  0
  188.1920  178.1810  144.6430 N   0  0  0  0  0  2  0  0  0  0  0  0
  192.0440  175.3160  145.4140 C   0  0  1  0  0  3  0  0  0  0  0  0
  190.5940  175.6240  145.7710 C   0  0  0  0  0  2  0  0  0  0  0  0
  189.0130  174.2010  140.8790 C   0  0  0  0  0  2  0  0  0  0  0  0
  189.4980  175.3550  143.5610 C   0  0  2  0  0  3  0  0  0  0  0  0
  184.6030  178.8120  143.7840 N   0  0  0  0  0  2  0  0  0  0  0  0
  190.6200  175.2090  142.5100 C   0  0  2  0  0  3  0  0  0  0  0  0
  184.4830  178.1330  142.5300 C   0  0  0  0  0  0  0  0  0  0  0  0
  188.1450  175.5450  142.8460 C   0  0  2  0  0  3  0  0  0  0  0  0
  192.2010  174.4810  144.1420 C   0  0  2  0  0  3  0  0  0  0  0  0
  186.9500  177.7770  142.5650 C   0  0  1  0  0  3  0  0  0  0  0  0
  188.6080  176.9770  145.3430 C   0  0  0  0  0  2  0  0  0  0  0  0
  185.8850  179.0190  144.4530 C   0  0  2  0  0  3  0  0  0  0  0  0
  192.7850  176.4950  145.3210 O   0  0  0  0  0  1  0  0  0  0  0  0
  183.3890  178.1590  141.9100 O   0  0  0  0  0  0  0  0  0  0  0  0
  190.3610  174.0280  141.5760 C   0  0  0  0  0  2  0  0  0  0  0  0
  185.6160  177.3090  141.9970 C   0  0  0  0  0  2  0  0  0  0  0  0
  191.9620  175.2440  142.9680 O   0  0  0  0  0  0  0  0  0  0  0  0
  186.8730  177.9030  144.0920 C   0  0  2  0  0  3  0  0  0  0  0  0
  187.8820  174.3700  141.9000 C   0  0  0  0  0  2  0  0  0  0  0  0
  192.4560  172.2920  144.3720 C   0  0  0  0  0  1  0  0  0  0  0  0
  191.4840  173.2770  144.1950 O   0  0  0  0  0  0  0  0  0  0  0  0
  185.6500  179.0840  145.9530 C   0  0  0  0  0  2  0  0  0  0  0  0
  185.9440  177.0480  147.6630 C   0  0  0  0  0  1  0  0  0  0  0  0
  184.9090  177.5500  146.5370 S   0  0  0  0  0  0  0  0  0  0  0  0
  1 13  1  0  0  0  0
  1 11  1  0  0  0  0
  2 14  1  1  0  0  0
  2  5  1  0  0  0  0
  3 14  1  0  0  0  0
  4 16  1  6  0  0  0
  4  5  1  0  0  0  0
  6 18  1  0  0  0  0
  6 22  1  0  0  0  0
  7  2  1  0  0  0  0
  8 15  1  0  0  0  0
  9 20  1  0  0  0  0
  9  7  1  0  0  0  0
 10  8  1  0  0  0  0
 11  7  1  0  0  0  0
 12 24  1  0  0  0  0
 12  4  1  0  0  0  0
 13 21  1  0  0  0  0
 15 25  1  0  0  0  0
 17 10  2  0  0  0  0
 18  9  1  0  0  0  0
 19 10  1  0  0  0  0
 19 13  1  0  0  0  0
 20 12  1  0  0  0  0
 21 15  1  0  0  0  0
 21  3  1  0  0  0  0
 22 11  1  0  0  0  0
 24 23  1  0  0  0  0
 25 27  1  0  0  0  0
 27 26  1  0  0  0  0
M  END
>  <MODEL>
3

>  <REMARK>
 VINA RESULT:      -7.0      2.407      4.132
  Name = 
  3 active torsions:
  status: ('A' for Active; 'I' for Inactive)
    1  A    between atoms: S_12  and  C_14
    2  A    between atoms: C_14  and  C_20
    3  A    between atoms: O_16  and  C_17
                            x       y       z     vdW  Elec       q    Type
                         _______ _______ _______ _____ _____    ______ ____

>  <TORSDO>
F 3

$$$$
=
 OpenBabel11052418333D

 27 30  0  0  1  0  0  0  0  0999 V2000
  189.1030  174.9530  143.3470 C   0  0  0  0  0  2  0  0  0  0  0  0
  188.3080  176.6400  145.9080 C   0  0  1  0  0  3  0  0  0  0  0  0
  190.1830  175.0660  146.0080 N   0  0  0  0  0  2  0  0  0  0  0  0
  186.3310  177.8830  146.9370 C   0  0  1  0  0  3  0  0  0  0  0  0
  187.8440  177.8120  146.7630 C   0  0  0  0  0  2  0  0  0  0  0  0
  187.2660  176.6740  141.5830 C   0  0  0  0  0  2  0  0  0  0  0  0
  188.0110  176.9780  144.4310 C   0  0  2  0  0  3  0  0  0  0  0  0
  193.2890  174.1480  144.1290 N   0  0  0  0  0  2  0  0  0  0  0  0
  186.5870  176.5720  143.9890 C   0  0  2  0  0  3  0  0  0  0  0  0
  192.8130  174.1260  142.7800 C   0  0  0  0  0  0  0  0  0  0  0  0
  189.0340  176.4820  143.3900 C   0  0  2  0  0  3  0  0  0  0  0  0
  185.5640  177.9840  145.6180 C   0  0  2  0  0  3  0  0  0  0  0  0
  190.5000  174.4170  143.6630 C   0  0  1  0  0  3  0  0  0  0  0  0
  189.7930  176.4530  146.2040 C   0  0  0  0  0  2  0  0  0  0  0  0
  192.3990  174.2770  145.2810 C   0  0  2  0  0  3  0  0  0  0  0  0
  185.8740  176.8000  147.6880 O   0  0  0  0  0  1  0  0  0  0  0  0
  193.5990  173.8150  141.8480 O   0  0  0  0  0  0  0  0  0  0  0  0
  186.2440  177.1470  142.6160 C   0  0  0  0  0  2  0  0  0  0  0  0
  191.4180  174.5650  142.4550 C   0  0  0  0  0  2  0  0  0  0  0  0
  185.5320  176.7470  144.9210 O   0  0  0  0  0  0  0  0  0  0  0  0
  191.1340  175.0580  144.9050 C   0  0  2  0  0  3  0  0  0  0  0  0
  188.6910  177.0450  142.0080 C   0  0  0  0  0  2  0  0  0  0  0  0
  184.8030  179.7510  144.5180 C   0  0  0  0  0  1  0  0  0  0  0  0
  185.9790  179.0700  144.8330 O   0  0  0  0  0  0  0  0  0  0  0  0
  193.1540  174.9600  146.4100 C   0  0  0  0  0  2  0  0  0  0  0  0
  194.5500  177.1700  145.8440 C   0  0  0  0  0  1  0  0  0  0  0  0
  194.7420  175.5720  145.8180 S   0  0  0  0  0  0  0  0  0  0  0  0
  1 11  1  0  0  0  0
  1 13  1  0  0  0  0
  2 14  1  6  0  0  0
  2  5  1  0  0  0  0
  3 14  1  0  0  0  0
  4 16  1  6  0  0  0
  5  4  1  0  0  0  0
  6 22  1  0  0  0  0
  6 18  1  0  0  0  0
  7  2  1  0  0  0  0
  8 15  1  0  0  0  0
  9  7  1  0  0  0  0
  9 20  1  0  0  0  0
 10  8  1  0  0  0  0
 11  7  1  0  0  0  0
 12  4  1  0  0  0  0
 13 21  1  0  0  0  0
 15 25  1  0  0  0  0
 17 10  2  0  0  0  0
 18  9  1  0  0  0  0
 19 10  1  0  0  0  0
 19 13  1  0  0  0  0
 20 12  1  0  0  0  0
 21 15  1  0  0  0  0
 21  3  1  0  0  0  0
 22 11  1  0  0  0  0
 23 24  1  0  0  0  0
 24 12  1  0  0  0  0
 27 26  1  0  0  0  0
 27 25  1  0  0  0  0
M  END
>  <MODEL>
4

>  <REMARK>
 VINA RESULT:      -6.9      3.051      7.374
  Name = 
  3 active torsions:
  status: ('A' for Active; 'I' for Inactive)
    1  A    between atoms: S_12  and  C_14
    2  A    between atoms: C_14  and  C_20
    3  A    between atoms: O_16  and  C_17
                            x       y       z     vdW  Elec       q    Type
                         _______ _______ _______ _____ _____    ______ ____

>  <TORSDO>
F 3

$$$$
=
 OpenBabel11052418333D

 27 30  0  0  1  0  0  0  0  0999 V2000
  190.5600  176.9450  142.8090 C   0  0  0  0  0  2  0  0  0  0  0  0
  191.9420  176.5010  145.6250 C   0  0  1  0  0  3  0  0  0  0  0  0
  189.8450  177.7590  145.4710 N   0  0  0  0  0  2  0  0  0  0  0  0
  194.2150  175.9990  146.6690 C   0  0  1  0  0  3  0  0  0  0  0  0
  192.7040  175.8200  146.7540 C   0  0  0  0  0  2  0  0  0  0  0  0
  192.4460  174.8950  141.5070 C   0  0  0  0  0  2  0  0  0  0  0  0
  192.1140  175.6480  144.3500 C   0  0  2  0  0  3  0  0  0  0  0  0
  186.4230  177.5010  143.9730 N   0  0  0  0  0  2  0  0  0  0  0  0
  193.3800  176.0100  143.5420 C   0  0  2  0  0  3  0  0  0  0  0  0
  186.7210  177.0470  142.6490 C   0  0  0  0  0  0  0  0  0  0  0  0
  190.9020  175.5740  143.4000 C   0  0  2  0  0  3  0  0  0  0  0  0
  194.8250  175.4780  145.3660 C   0  0  2  0  0  3  0  0  0  0  0  0
  189.1390  177.3950  143.1490 C   0  0  1  0  0  3  0  0  0  0  0  0
  190.4940  176.6150  146.0910 C   0  0  0  0  0  2  0  0  0  0  0  0
  187.4540  177.9370  144.9120 C   0  0  2  0  0  3  0  0  0  0  0  0
  194.5620  177.3350  146.8720 O   0  0  0  0  0  1  0  0  0  0  0  0
  185.7870  176.8740  141.8250 O   0  0  0  0  0  0  0  0  0  0  0  0
  193.6510  174.9870  142.4400 C   0  0  0  0  0  2  0  0  0  0  0  0
  188.1230  176.6800  142.2660 C   0  0  0  0  0  2  0  0  0  0  0  0
  194.5550  176.3380  144.2680 O   0  0  0  0  0  0  0  0  0  0  0  0
  188.7820  177.2240  144.6310 C   0  0  2  0  0  3  0  0  0  0  0  0
  191.1700  174.5580  142.2860 C   0  0  0  0  0  2  0  0  0  0  0  0
  195.6910  173.4390  145.4150 C   0  0  0  0  0  1  0  0  0  0  0  0
  194.5150  174.1320  145.1250 O   0  0  0  0  0  0  0  0  0  0  0  0
  186.9720  177.6690  146.3280 C   0  0  0  0  0  2  0  0  0  0  0  0
  184.4060  178.2940  146.7500 C   0  0  0  0  0  1  0  0  0  0  0  0
  185.2900  177.0250  146.3040 S   0  0  0  0  0  0  0  0  0  0  0  0
  1 13  1  0  0  0  0
  1 11  1  0  0  0  0
  2 14  1  1  0  0  0
  2  5  1  0  0  0  0
  3 14  1  0  0  0  0
  4  5  1  0  0  0  0
  4 16  1  6  0  0  0
  6 22  1  0  0  0  0
  6 18  1  0  0  0  0
  7  2  1  0  0  0  0
  8 15  1  0  0  0  0
  9 20  1  0  0  0  0
  9  7  1  0  0  0  0
 10  8  1  0  0  0  0
 11  7  1  0  0  0  0
 12  4  1  0  0  0  0
 13 21  1  0  0  0  0
 15 25  1  0  0  0  0
 17 10  2  0  0  0  0
 18  9  1  0  0  0  0
 19 10  1  0  0  0  0
 19 13  1  0  0  0  0
 20 12  1  0  0  0  0
 21 15  1  0  0  0  0
 21  3  1  0  0  0  0
 22 11  1  0  0  0  0
 24 12  1  0  0  0  0
 24 23  1  0  0  0  0
 27 25  1  0  0  0  0
 27 26  1  0  0  0  0
M  END
>  <MODEL>
5

>  <REMARK>
 VINA RESULT:      -6.8      2.169      4.063
  Name = 
  3 active torsions:
  status: ('A' for Active; 'I' for Inactive)
    1  A    between atoms: S_12  and  C_14
    2  A    between atoms: C_14  and  C_20
    3  A    between atoms: O_16  and  C_17
                            x       y       z     vdW  Elec       q    Type
                         _______ _______ _______ _____ _____    ______ ____

>  <TORSDO>
F 3

$$$$
=
 OpenBabel11052418333D

 27 30  0  0  1  0  0  0  0  0999 V2000
  189.6220  177.4450  142.7870 C   0  0  0  0  0  2  0  0  0  0  0  0
  189.7110  176.3790  145.7680 C   0  0  1  0  0  3  0  0  0  0  0  0
  187.8490  177.7860  145.0220 N   0  0  0  0  0  2  0  0  0  0  0  0
  191.3500  175.5310  147.5300 C   0  0  1  0  0  3  0  0  0  0  0  0
  189.9440  175.4450  146.9480 C   0  0  0  0  0  2  0  0  0  0  0  0
  191.9130  175.5560  141.9920 C   0  0  0  0  0  2  0  0  0  0  0  0
  190.4140  175.7740  144.5340 C   0  0  2  0  0  3  0  0  0  0  0  0
  185.3680  178.0540  142.2310 N   0  0  0  0  0  2  0  0  0  0  0  0
  191.8950  176.1960  144.4100 C   0  0  2  0  0  3  0  0  0  0  0  0
  186.1990  177.8410  141.0850 C   0  0  0  0  0  0  0  0  0  0  0  0
  189.7090  175.9670  143.1760 C   0  0  2  0  0  3  0  0  0  0  0  0
  192.4560  175.2280  146.5180 C   0  0  2  0  0  3  0  0  0  0  0  0
  188.1810  177.9200  142.5940 C   0  0  1  0  0  3  0  0  0  0  0  0
  188.1980  176.5030  145.6100 C   0  0  0  0  0  2  0  0  0  0  0  0
  185.9060  178.2310  143.5780 C   0  0  2  0  0  3  0  0  0  0  0  0
  191.5580  176.7770  148.1240 O   0  0  0  0  0  1  0  0  0  0  0  0
  185.6970  177.8930  139.9330 O   0  0  0  0  0  0  0  0  0  0  0  0
  192.6180  175.3850  143.3360 C   0  0  0  0  0  2  0  0  0  0  0  0
  187.6380  177.4590  141.2470 C   0  0  0  0  0  2  0  0  0  0  0  0
  192.6540  176.2970  145.6050 O   0  0  0  0  0  0  0  0  0  0  0  0
  187.2420  177.4950  143.7310 C   0  0  2  0  0  3  0  0  0  0  0  0
  190.4340  175.1650  142.0910 C   0  0  0  0  0  2  0  0  0  0  0  0
  193.5850  173.4400  145.8540 C   0  0  0  0  0  1  0  0  0  0  0  0
  192.2980  173.9770  145.9050 O   0  0  0  0  0  0  0  0  0  0  0  0
  184.8820  177.7330  144.5840 C   0  0  0  0  0  2  0  0  0  0  0  0
  184.8750  178.3780  147.1790 C   0  0  0  0  0  1  0  0  0  0  0  0
  184.4800  179.0330  145.7630 S   0  0  0  0  0  0  0  0  0  0  0  0
  1 11  1  0  0  0  0
  2 14  1  6  0  0  0
  2  5  1  0  0  0  0
  3 14  1  0  0  0  0
  4 16  1  6  0  0  0
  5  4  1  0  0  0  0
  6 22  1  0  0  0  0
  6 18  1  0  0  0  0
  7  2  1  0  0  0  0
  8 15  1  0  0  0  0
  9  7  1  0  0  0  0
  9 20  1  0  0  0  0
 10 19  1  0  0  0  0
 10  8  1  0  0  0  0
 11  7  1  0  0  0  0
 12  4  1  0  0  0  0
 13  1  1  0  0  0  0
 13 21  1  0  0  0  0
 15 21  1  0  0  0  0
 15 25  1  0  0  0  0
 17 10  2  0  0  0  0
 18  9  1  0  0  0  0
 19 13  1  0  0  0  0
 20 12  1  0  0  0  0
 21  3  1  0  0  0  0
 22 11  1  0  0  0  0
 23 24  1  0  0  0  0
 24 12  1  0  0  0  0
 25 27  1  0  0  0  0
 27 26  1  0  0  0  0
M  END
>  <MODEL>
6

>  <REMARK>
 VINA RESULT:      -6.8      2.260      4.184
  Name = 
  3 active torsions:
  status: ('A' for Active; 'I' for Inactive)
    1  A    between atoms: S_12  and  C_14
    2  A    between atoms: C_14  and  C_20
    3  A    between atoms: O_16  and  C_17
                            x       y       z     vdW  Elec       q    Type
                         _______ _______ _______ _____ _____    ______ ____

>  <TORSDO>
F 3

$$$$
=
 OpenBabel11052418333D

 27 30  0  0  1  0  0  0  0  0999 V2000
  190.3720  175.8890  144.1920 C   0  0  0  0  0  2  0  0  0  0  0  0
  187.4610  176.3330  143.0250 C   0  0  1  0  0  3  0  0  0  0  0  0
  189.1950  175.2970  141.6380 N   0  0  0  0  0  2  0  0  0  0  0  0
  185.3820  177.7750  143.3570 C   0  0  1  0  0  3  0  0  0  0  0  0
  185.9410  176.4140  142.9600 C   0  0  0  0  0  2  0  0  0  0  0  0
  189.3910  176.5650  147.0260 C   0  0  0  0  0  2  0  0  0  0  0  0
  187.8710  176.2270  144.5090 C   0  0  2  0  0  3  0  0  0  0  0  0
  191.7580  172.5710  141.7730 N   0  0  0  0  0  2  0  0  0  0  0  0
  188.0420  177.6030  145.1920 C   0  0  2  0  0  3  0  0  0  0  0  0
  192.3460  172.7920  143.0590 C   0  0  0  0  0  0  0  0  0  0  0  0
  189.0910  175.3400  144.8260 C   0  0  2  0  0  3  0  0  0  0  0  0
  185.7750  178.2140  144.7690 C   0  0  2  0  0  3  0  0  0  0  0  0
  191.0230  174.8980  143.2260 C   0  0  1  0  0  3  0  0  0  0  0  0
  187.8630  175.1190  142.1920 C   0  0  0  0  0  2  0  0  0  0  0  0
  190.8130  173.5040  141.1630 C   0  0  2  0  0  3  0  0  0  0  0  0
  185.7470  178.7450  142.4230 O   0  0  0  0  0  1  0  0  0  0  0  0
  193.2940  172.0610  143.4440 O   0  0  0  0  0  0  0  0  0  0  0  0
  188.1950  177.4590  146.7050 C   0  0  0  0  0  2  0  0  0  0  0  0
  191.7780  173.8190  143.9910 C   0  0  0  0  0  2  0  0  0  0  0  0
  187.1300  178.6310  144.8420 O   0  0  0  0  0  0  0  0  0  0  0  0
  190.0320  174.2680  142.2380 C   0  0  2  0  0  3  0  0  0  0  0  0
  189.2580  175.1990  146.3420 C   0  0  0  0  0  2  0  0  0  0  0  0
  184.4410  177.9170  146.5140 C   0  0  0  0  0  1  0  0  0  0  0  0
  185.4150  177.2760  145.7470 O   0  0  0  0  0  0  0  0  0  0  0  0
  189.8810  172.7290  140.2470 C   0  0  0  0  0  2  0  0  0  0  0  0
  188.5040  173.9230  138.2890 C   0  0  0  0  0  1  0  0  0  0  0  0
  189.9880  173.3630  138.5640 S   0  0  0  0  0  0  0  0  0  0  0  0
  1 11  1  0  0  0  0
  2 14  1  6  0  0  0
  2  7  1  0  0  0  0
  3 14  1  0  0  0  0
  3 21  1  0  0  0  0
  4 16  1  6  0  0  0
  4 12  1  0  0  0  0
  5  2  1  0  0  0  0
  5  4  1  0  0  0  0
  7 11  1  0  0  0  0
  7  9  1  0  0  0  0
  8 10  1  0  0  0  0
  9 18  1  0  0  0  0
 10 17  2  0  0  0  0
 10 19  1  0  0  0  0
 11 22  1  0  0  0  0
 12 20  1  0  0  0  0
 12 24  1  0  0  0  0
 13 19  1  0  0  0  0
 13  1  1  0  0  0  0
 15  8  1  0  0  0  0
 15 21  1  0  0  0  0
 18  6  1  0  0  0  0
 20  9  1  0  0  0  0
 21 13  1  0  0  0  0
 22  6  1  0  0  0  0
 24 23  1  0  0  0  0
 25 15  1  0  0  0  0
 26 27  1  0  0  0  0
 27 25  1  0  0  0  0
M  END
>  <MODEL>
7

>  <REMARK>
 VINA RESULT:      -6.7      3.225      6.540
  Name = 
  3 active torsions:
  status: ('A' for Active; 'I' for Inactive)
    1  A    between atoms: S_12  and  C_14
    2  A    between atoms: C_14  and  C_20
    3  A    between atoms: O_16  and  C_17
                            x       y       z     vdW  Elec       q    Type
                         _______ _______ _______ _____ _____    ______ ____

>  <TORSDO>
F 3

$$$$
=
 OpenBabel11052418333D

 27 30  0  0  1  0  0  0  0  0999 V2000
  187.7060  176.3290  145.3130 C   0  0  0  0  0  2  0  0  0  0  0  0
  188.9400  174.4820  143.0550 C   0  0  1  0  0  3  0  0  0  0  0  0
  186.7650  175.5550  142.7110 N   0  0  0  0  0  2  0  0  0  0  0  0
  190.6080  172.5770  142.7330 C   0  0  1  0  0  3  0  0  0  0  0  0
  189.9720  173.8310  142.1430 C   0  0  0  0  0  2  0  0  0  0  0  0
  190.3760  176.3290  146.8390 C   0  0  0  0  0  2  0  0  0  0  0  0
  189.6960  175.2210  144.1800 C   0  0  2  0  0  3  0  0  0  0  0  0
  185.1220  178.9090  142.9800 N   0  0  0  0  0  2  0  0  0  0  0  0
  190.0130  174.3190  145.3940 C   0  0  2  0  0  3  0  0  0  0  0  0
  185.6020  179.3640  144.2490 C   0  0  0  0  0  0  0  0  0  0  0  0
  189.0790  176.5460  144.6710 C   0  0  2  0  0  3  0  0  0  0  0  0
  191.3080  172.8130  144.0720 C   0  0  2  0  0  3  0  0  0  0  0  0
  186.5950  177.1050  144.6060 C   0  0  1  0  0  3  0  0  0  0  0  0
  188.1070  175.4050  142.1710 C   0  0  0  0  0  2  0  0  0  0  0  0
  185.3360  177.5470  142.4940 C   0  0  2  0  0  3  0  0  0  0  0  0
  189.6620  171.5570  142.8470 O   0  0  0  0  0  1  0  0  0  0  0  0
  185.2210  180.4760  144.6970 O   0  0  0  0  0  0  0  0  0  0  0  0
  190.9730  175.0060  146.3640 C   0  0  0  0  0  2  0  0  0  0  0  0
  186.6290  178.5760  145.0040 C   0  0  0  0  0  2  0  0  0  0  0  0
  190.3840  172.9740  145.1380 O   0  0  0  0  0  0  0  0  0  0  0  0
  186.6240  176.9570  143.0790 C   0  0  2  0  0  3  0  0  0  0  0  0
  190.0310  177.2360  145.6520 C   0  0  0  0  0  2  0  0  0  0  0  0
  193.4430  173.1670  143.5980 C   0  0  0  0  0  1  0  0  0  0  0  0
  192.2800  173.8210  144.0040 O   0  0  0  0  0  0  0  0  0  0  0  0
  185.3780  177.5700  140.9750 C   0  0  0  0  0  2  0  0  0  0  0  0
  182.7580  177.8360  140.5110 C   0  0  0  0  0  1  0  0  0  0  0  0
  184.1150  178.6820  140.3310 S   0  0  0  0  0  0  0  0  0  0  0  0
  2  5  1  6  0  0  0
  2  7  1  0  0  0  0
  3 21  1  0  0  0  0
  4 16  1  1  0  0  0
  4 12  1  0  0  0  0
  5  4  1  0  0  0  0
  7 11  1  0  0  0  0
  7  9  1  0  0  0  0
  8 10  1  0  0  0  0
  9 18  1  0  0  0  0
 10 17  2  0  0  0  0
 10 19  1  0  0  0  0
 11  1  1  0  0  0  0
 11 22  1  0  0  0  0
 12 20  1  0  0  0  0
 13 19  1  0  0  0  0
 13  1  1  0  0  0  0
 14  3  1  0  0  0  0
 14  2  1  0  0  0  0
 15  8  1  0  0  0  0
 15 21  1  0  0  0  0
 18  6  1  0  0  0  0
 20  9  1  0  0  0  0
 21 13  1  0  0  0  0
 22  6  1  0  0  0  0
 23 24  1  0  0  0  0
 24 12  1  0  0  0  0
 25 15  1  0  0  0  0
 27 26  1  0  0  0  0
 27 25  1  0  0  0  0
M  END
>  <MODEL>
8

>  <REMARK>
 VINA RESULT:      -6.6      2.295      2.692
  Name = 
  3 active torsions:
  status: ('A' for Active; 'I' for Inactive)
    1  A    between atoms: S_12  and  C_14
    2  A    between atoms: C_14  and  C_20
    3  A    between atoms: O_16  and  C_17
                            x       y       z     vdW  Elec       q    Type
                         _______ _______ _______ _____ _____    ______ ____

>  <TORSDO>
F 3

$$$$
=
 OpenBabel11052418333D

 27 30  0  0  1  0  0  0  0  0999 V2000
  193.0390  176.6210  145.5180 C   0  0  0  0  0  2  0  0  0  0  0  0
  190.8840  176.3810  143.2090 C   0  0  1  0  0  3  0  0  0  0  0  0
  193.2560  176.0130  142.7170 N   0  0  0  0  0  2  0  0  0  0  0  0
  188.5330  177.1580  142.5920 C   0  0  1  0  0  3  0  0  0  0  0  0
  189.5780  176.0520  142.4980 C   0  0  0  0  0  2  0  0  0  0  0  0
  190.8210  176.6910  147.6460 C   0  0  0  0  0  2  0  0  0  0  0  0
  190.6530  176.2290  144.7270 C   0  0  2  0  0  3  0  0  0  0  0  0
  196.2060  174.0890  143.9880 N   0  0  0  0  0  2  0  0  0  0  0  0
  190.1160  177.5160  145.3920 C   0  0  2  0  0  3  0  0  0  0  0  0
  196.1150  174.3190  145.3970 C   0  0  0  0  0  0  0  0  0  0  0  0
  191.8330  175.6780  145.5530 C   0  0  2  0  0  3  0  0  0  0  0  0
  188.1580  177.5310  144.0280 C   0  0  2  0  0  3  0  0  0  0  0  0
  194.2900  175.9550  144.9420 C   0  0  1  0  0  3  0  0  0  0  0  0
  191.9300  175.4200  142.6510 C   0  0  0  0  0  2  0  0  0  0  0  0
  195.3720  174.7910  143.0150 C   0  0  2  0  0  3  0  0  0  0  0  0
  188.9510  178.2870  141.8860 O   0  0  0  0  0  1  0  0  0  0  0  0
  196.9860  173.8360  146.1650 O   0  0  0  0  0  0  0  0  0  0  0  0
  189.6620  177.2550  146.8270 C   0  0  0  0  0  2  0  0  0  0  0  0
  194.9390  175.0450  145.9770 C   0  0  0  0  0  2  0  0  0  0  0  0
  189.1740  178.2900  144.6660 O   0  0  0  0  0  0  0  0  0  0  0  0
  194.0290  175.1910  143.6370 C   0  0  2  0  0  3  0  0  0  0  0  0
  191.3890  175.4230  146.9960 C   0  0  0  0  0  2  0  0  0  0  0  0
  186.4340  176.7780  145.1990 C   0  0  0  0  0  1  0  0  0  0  0  0
  187.7170  176.4290  144.7740 O   0  0  0  0  0  0  0  0  0  0  0  0
  195.1740  173.8960  141.8020 C   0  0  0  0  0  2  0  0  0  0  0  0
  196.5030  176.0310  140.8900 C   0  0  0  0  0  1  0  0  0  0  0  0
  195.7690  174.7190  140.3140 S   0  0  0  0  0  0  0  0  0  0  0  0
  1 11  1  0  0  0  0
  2  5  1  6  0  0  0
  2  7  1  0  0  0  0
  3 21  1  0  0  0  0
  4 16  1  1  0  0  0
  4 12  1  0  0  0  0
  5  4  1  0  0  0  0
  7  9  1  0  0  0  0
  7 11  1  0  0  0  0
  8 10  1  0  0  0  0
  9 18  1  0  0  0  0
 10 19  1  0  0  0  0
 10 17  2  0  0  0  0
 11 22  1  0  0  0  0
 12 20  1  0  0  0  0
 12 24  1  0  0  0  0
 13  1  1  0  0  0  0
 13 19  1  0  0  0  0
 14  3  1  0  0  0  0
 14  2  1  0  0  0  0
 15 21  1  0  0  0  0
 15  8  1  0  0  0  0
 18  6  1  0  0  0  0
 20  9  1  0  0  0  0
 21 13  1  0  0  0  0
 22  6  1  0  0  0  0
 24 23  1  0  0  0  0
 25 15  1  0  0  0  0
 27 26  1  0  0  0  0
 27 25  1  0  0  0  0
M  END
>  <MODEL>
9

>  <REMARK>
 VINA RESULT:      -6.6      3.769      7.168
  Name = 
  3 active torsions:
  status: ('A' for Active; 'I' for Inactive)
    1  A    between atoms: S_12  and  C_14
    2  A    between atoms: C_14  and  C_20
    3  A    between atoms: O_16  and  C_17
                            x       y       z     vdW  Elec       q    Type
                         _______ _______ _______ _____ _____    ______ ____

>  <TORSDO>
F 3

$$$$
