=
 OpenBabel11052418243D

 27 31  0  0  1  0  0  0  0  0999 V2000
  189.1510  176.8550  145.7650 C   0  0  0  0  0  2  0  0  0  0  0  0
  188.5990  176.1360  143.3850 C   0  0  0  0  0  0  0  0  0  0  0  0
  191.1020  176.1010  143.2930 N   0  0  0  0  0  2  0  0  0  0  0  0
  188.4500  173.1160  140.4850 C   0  0  0  0  0  3  0  0  0  0  0  0
  189.5530  171.5530  138.8800 C   0  0  0  0  0  1  0  0  0  0  0  0
  187.3890  175.5690  142.9530 C   0  0  0  0  0  3  0  0  0  0  0  0
  190.9350  174.1350  141.2740 C   0  0  0  0  0  3  0  0  0  0  0  0
  193.6140  175.8290  144.9040 C   0  0  0  0  0  2  0  0  0  0  0  0
  190.8650  173.1300  140.3050 C   0  0  0  0  0  3  0  0  0  0  0  0
  193.1510  175.1250  146.0910 N   0  0  0  0  0  2  0  0  0  0  0  0
  189.7630  174.6430  141.8540 C   0  0  0  0  0  0  0  0  0  0  0  0
  188.5890  177.2620  144.3990 C   0  0  1  0  0  3  0  0  0  0  0  0
  189.6240  172.6220  139.9100 C   0  0  0  0  0  0  0  0  0  0  0  0
  188.5120  174.1220  141.4530 C   0  0  0  0  0  0  0  0  0  0  0  0
  190.6170  176.4110  145.7200 C   0  0  1  0  0  3  0  0  0  0  0  0
  189.8120  175.6470  142.8370 C   0  0  0  0  0  0  0  0  0  0  0  0
  192.8470  177.1360  144.7130 C   0  0  0  0  0  2  0  0  0  0  0  0
  187.3700  174.5900  142.0140 N   0  0  0  0  0  0  0  0  0  0  0  0
  192.0610  174.2650  145.6610 C   0  0  0  0  0  2  0  0  0  0  0  0
  190.7010  174.8960  145.9630 C   0  0  0  0  0  2  0  0  0  0  0  0
  191.3490  176.9340  144.4680 C   0  0  1  0  0  3  0  0  0  0  0  0
  184.8780  179.4040  144.8040 C   0  0  0  0  0  3  0  0  0  0  0  0
  187.2870  178.0020  144.5190 C   0  0  0  0  0  0  0  0  0  0  0  0
  186.6040  177.9850  145.7400 C   0  0  0  0  0  3  0  0  0  0  0  0
  185.4000  178.6820  145.8810 C   0  0  0  0  0  3  0  0  0  0  0  0
  185.5590  179.4290  143.5840 C   0  0  0  0  0  3  0  0  0  0  0  0
  186.7620  178.7330  143.4410 C   0  0  0  0  0  3  0  0  0  0  0  0
  2 12  1  0  0  0  0
  3 21  1  0  0  0  0
  4 14  1  0  0  0  0
  5 13  1  0  0  0  0
  6  2  1  0  0  0  0
  7 11  1  0  0  0  0
  8 10  1  0  0  0  0
  9  7  2  0  0  0  0
 11 16  1  0  0  0  0
 12 23  1  1  0  0  0
 12  1  1  0  0  0  0
 13  9  1  0  0  0  0
 13  4  2  0  0  0  0
 14 11  2  0  0  0  0
 14 18  1  0  0  0  0
 15  1  1  6  0  0  0
 15 20  1  0  0  0  0
 16  3  1  0  0  0  0
 16  2  2  0  0  0  0
 17  8  1  0  0  0  0
 18  6  2  0  0  0  0
 19 20  1  0  0  0  0
 19 10  1  0  0  0  0
 21 17  1  1  0  0  0
 21 15  1  0  0  0  0
 22 25  1  0  0  0  0
 23 24  1  0  0  0  0
 24 25  2  0  0  0  0
 26 22  2  0  0  0  0
 27 26  1  0  0  0  0
 27 23  2  0  0  0  0
M  END
>  <MODEL>
1

>  <REMARK>
 VINA RESULT:      -8.1      0.000      0.000
  Name = 
  1 active torsions:
  status: ('A' for Active; 'I' for Inactive)
    1  A    between atoms: C_9  and  C_15
                            x       y       z     vdW  Elec       q    Type
                         _______ _______ _______ _____ _____    ______ ____

>  <TORSDO>
F 1

$$$$
=
 OpenBabel11052418243D

 27 31  0  0  1  0  0  0  0  0999 V2000
  192.5740  175.5040  146.1630 C   0  0  0  0  0  2  0  0  0  0  0  0
  192.0840  174.0210  144.1510 C   0  0  0  0  0  0  0  0  0  0  0  0
  189.7780  174.2720  145.0950 N   0  0  0  0  0  2  0  0  0  0  0  0
  190.4670  173.5940  140.3100 C   0  0  0  0  0  3  0  0  0  0  0  0
  188.5250  173.4340  138.7480 C   0  0  0  0  0  1  0  0  0  0  0  0
  192.8890  173.8880  143.0080 C   0  0  0  0  0  3  0  0  0  0  0  0
  188.7430  173.8830  142.4970 C   0  0  0  0  0  3  0  0  0  0  0  0
  187.9800  175.9970  146.7590 C   0  0  0  0  0  2  0  0  0  0  0  0
  188.2220  173.7350  141.2080 C   0  0  0  0  0  3  0  0  0  0  0  0
  188.6230  177.3000  146.6690 N   0  0  0  0  0  2  0  0  0  0  0  0
  190.1310  173.8830  142.7050 C   0  0  0  0  0  0  0  0  0  0  0  0
  192.7240  174.1210  145.5210 C   0  0  1  0  0  3  0  0  0  0  0  0
  189.0830  173.5900  140.1160 C   0  0  0  0  0  0  0  0  0  0  0  0
  190.9950  173.7400  141.5960 C   0  0  0  0  0  0  0  0  0  0  0  0
  191.1190  175.9170  146.4040 C   0  0  1  0  0  3  0  0  0  0  0  0
  190.6750  174.0400  143.9910 C   0  0  0  0  0  0  0  0  0  0  0  0
  188.9430  174.9540  147.3240 C   0  0  0  0  0  2  0  0  0  0  0  0
  192.3380  173.7540  141.7750 N   0  0  0  0  0  0  0  0  0  0  0  0
  189.2450  177.3610  145.3570 C   0  0  0  0  0  2  0  0  0  0  0  0
  190.7390  177.0470  145.4330 C   0  0  0  0  0  2  0  0  0  0  0  0
  190.1640  174.7070  146.4350 C   0  0  1  0  0  3  0  0  0  0  0  0
  196.7700  172.6860  145.8180 C   0  0  0  0  0  3  0  0  0  0  0  0
  194.1320  173.6050  145.6080 C   0  0  0  0  0  0  0  0  0  0  0  0
  195.1830  174.5140  145.7660 C   0  0  0  0  0  3  0  0  0  0  0  0
  196.5000  174.0560  145.8680 C   0  0  0  0  0  3  0  0  0  0  0  0
  195.7240  171.7720  145.6660 C   0  0  0  0  0  3  0  0  0  0  0  0
  194.4080  172.2280  145.5630 C   0  0  0  0  0  3  0  0  0  0  0  0
  1 15  1  0  0  0  0
  2 12  1  0  0  0  0
  3 21  1  0  0  0  0
  4 14  1  0  0  0  0
  5 13  1  0  0  0  0
  6  2  2  0  0  0  0
  7 11  1  0  0  0  0
  8 17  1  0  0  0  0
  9  7  2  0  0  0  0
 10  8  1  0  0  0  0
 11 16  2  0  0  0  0
 12 23  1  6  0  0  0
 12  1  1  0  0  0  0
 13  4  2  0  0  0  0
 13  9  1  0  0  0  0
 14 18  2  0  0  0  0
 14 11  1  0  0  0  0
 15 20  1  6  0  0  0
 15 21  1  0  0  0  0
 16  2  1  0  0  0  0
 16  3  1  0  0  0  0
 18  6  1  0  0  0  0
 19 20  1  0  0  0  0
 19 10  1  0  0  0  0
 21 17  1  1  0  0  0
 22 25  1  0  0  0  0
 23 24  1  0  0  0  0
 24 25  2  0  0  0  0
 26 22  2  0  0  0  0
 27 23  2  0  0  0  0
 27 26  1  0  0  0  0
M  END
>  <MODEL>
2

>  <REMARK>
 VINA RESULT:      -7.9      2.394      6.210
  Name = 
  1 active torsions:
  status: ('A' for Active; 'I' for Inactive)
    1  A    between atoms: C_9  and  C_15
                            x       y       z     vdW  Elec       q    Type
                         _______ _______ _______ _____ _____    ______ ____

>  <TORSDO>
F 1

$$$$
=
 OpenBabel11052418243D

 27 31  0  0  1  0  0  0  0  0999 V2000
  190.6650  176.0330  146.3550 C   0  0  0  0  0  2  0  0  0  0  0  0
  190.0510  175.6340  143.9160 C   0  0  0  0  0  0  0  0  0  0  0  0
  192.4930  176.1390  143.6850 N   0  0  0  0  0  2  0  0  0  0  0  0
  190.2340  173.1940  140.5150 C   0  0  0  0  0  3  0  0  0  0  0  0
  191.4720  172.1960  138.5900 C   0  0  0  0  0  1  0  0  0  0  0  0
  188.9410  174.9100  143.4510 C   0  0  0  0  0  3  0  0  0  0  0  0
  192.5330  174.5580  141.3460 C   0  0  0  0  0  3  0  0  0  0  0  0
  195.1450  176.1250  145.0800 C   0  0  0  0  0  2  0  0  0  0  0  0
  192.5730  173.7420  140.2110 C   0  0  0  0  0  3  0  0  0  0  0  0
  194.9390  175.1470  146.1380 N   0  0  0  0  0  2  0  0  0  0  0  0
  191.3410  174.7030  142.0730 C   0  0  0  0  0  0  0  0  0  0  0  0
  189.9130  176.5420  145.1210 C   0  0  1  0  0  3  0  0  0  0  0  0
  191.4250  173.0620  139.7960 C   0  0  0  0  0  0  0  0  0  0  0  0
  190.1850  174.0090  141.6490 C   0  0  0  0  0  0  0  0  0  0  0  0
  192.1790  175.9190  146.1500 C   0  0  1  0  0  3  0  0  0  0  0  0
  191.2820  175.5110  143.2220 C   0  0  0  0  0  0  0  0  0  0  0  0
  194.1230  177.2560  145.1780 C   0  0  0  0  0  2  0  0  0  0  0  0
  189.0300  174.1240  142.3480 N   0  0  0  0  0  0  0  0  0  0  0  0
  194.0040  174.1650  145.6130 C   0  0  0  0  0  2  0  0  0  0  0  0
  192.5810  174.4360  146.1000 C   0  0  0  0  0  2  0  0  0  0  0  0
  192.6790  176.7910  144.9800 C   0  0  1  0  0  3  0  0  0  0  0  0
  185.9040  177.7470  146.1210 C   0  0  0  0  0  3  0  0  0  0  0  0
  188.5080  176.9610  145.4470 C   0  0  0  0  0  0  0  0  0  0  0  0
  187.8760  176.4140  146.5690 C   0  0  0  0  0  3  0  0  0  0  0  0
  186.5750  176.8040  146.9040 C   0  0  0  0  0  3  0  0  0  0  0  0
  186.5320  178.3010  145.0020 C   0  0  0  0  0  3  0  0  0  0  0  0
  187.8310  177.9130  144.6660 C   0  0  0  0  0  3  0  0  0  0  0  0
  2 12  1  0  0  0  0
  3 21  1  0  0  0  0
  4 14  1  0  0  0  0
  5 13  1  0  0  0  0
  6  2  1  0  0  0  0
  7 11  1  0  0  0  0
  8 17  1  0  0  0  0
  8 10  1  0  0  0  0
  9  7  2  0  0  0  0
 11 16  1  0  0  0  0
 12 23  1  1  0  0  0
 12  1  1  0  0  0  0
 13  9  1  0  0  0  0
 13  4  2  0  0  0  0
 14 11  2  0  0  0  0
 14 18  1  0  0  0  0
 15 20  1  6  0  0  0
 15  1  1  0  0  0  0
 16  3  1  0  0  0  0
 16  2  2  0  0  0  0
 18  6  2  0  0  0  0
 19 20  1  0  0  0  0
 19 10  1  0  0  0  0
 21 17  1  1  0  0  0
 21 15  1  0  0  0  0
 22 25  1  0  0  0  0
 23 24  1  0  0  0  0
 24 25  2  0  0  0  0
 26 22  2  0  0  0  0
 27 26  1  0  0  0  0
 27 23  2  0  0  0  0
M  END
>  <MODEL>
3

>  <REMARK>
 VINA RESULT:      -7.8      1.342      1.814
  Name = 
  1 active torsions:
  status: ('A' for Active; 'I' for Inactive)
    1  A    between atoms: C_9  and  C_15
                            x       y       z     vdW  Elec       q    Type
                         _______ _______ _______ _____ _____    ______ ____

>  <TORSDO>
F 1

$$$$
=
 OpenBabel11052418243D

 27 31  0  0  1  0  0  0  0  0999 V2000
  187.2220  176.1050  142.5210 C   0  0  0  0  0  2  0  0  0  0  0  0
  188.7960  176.1860  144.5220 C   0  0  0  0  0  0  0  0  0  0  0  0
  189.2870  173.8860  143.6590 N   0  0  0  0  0  2  0  0  0  0  0  0
  192.7010  176.4600  146.0130 C   0  0  0  0  0  3  0  0  0  0  0  0
  194.9660  175.4960  146.4360 C   0  0  0  0  0  1  0  0  0  0  0  0
  189.2820  177.3470  145.1440 C   0  0  0  0  0  3  0  0  0  0  0  0
  191.8750  174.0930  144.7680 C   0  0  0  0  0  3  0  0  0  0  0  0
  189.2520  172.1100  141.2460 C   0  0  0  0  0  2  0  0  0  0  0  0
  193.1730  174.2020  145.2760 C   0  0  0  0  0  3  0  0  0  0  0  0
  189.2840  173.0680  140.1500 N   0  0  0  0  0  2  0  0  0  0  0  0
  190.9770  175.1650  144.8830 C   0  0  0  0  0  0  0  0  0  0  0  0
  187.3580  176.1250  144.0480 C   0  0  1  0  0  3  0  0  0  0  0  0
  193.5850  175.3840  145.8990 C   0  0  0  0  0  0  0  0  0  0  0  0
  191.4020  176.3580  145.5100 C   0  0  0  0  0  0  0  0  0  0  0  0
  187.8800  174.8900  141.8600 C   0  0  1  0  0  3  0  0  0  0  0  0
  189.6700  175.0790  144.3710 C   0  0  0  0  0  0  0  0  0  0  0  0
  188.0490  172.3600  142.1520 C   0  0  0  0  0  2  0  0  0  0  0  0
  190.5530  177.4090  145.6150 N   0  0  0  0  0  0  0  0  0  0  0  0
  190.0490  174.2100  140.6240 C   0  0  0  0  0  2  0  0  0  0  0  0
  189.1310  175.3410  141.0900 C   0  0  0  0  0  2  0  0  0  0  0  0
  188.0820  173.7230  142.8480 C   0  0  1  0  0  3  0  0  0  0  0  0
  184.6820  178.9930  145.8180 C   0  0  0  0  0  3  0  0  0  0  0  0
  186.4320  177.1200  144.6870 C   0  0  0  0  0  0  0  0  0  0  0  0
  186.2540  178.3700  144.0840 C   0  0  0  0  0  3  0  0  0  0  0  0
  185.3830  179.3060  144.6500 C   0  0  0  0  0  3  0  0  0  0  0  0
  184.8520  177.7440  146.4220 C   0  0  0  0  0  3  0  0  0  0  0  0
  185.7220  176.8080  145.8580 C   0  0  0  0  0  3  0  0  0  0  0  0
  1 12  1  0  0  0  0
  2  6  1  0  0  0  0
  3 16  1  0  0  0  0
  6 18  2  0  0  0  0
  7 11  2  0  0  0  0
  7  9  1  0  0  0  0
  8 17  1  0  0  0  0
  9 13  2  0  0  0  0
 10 19  1  0  0  0  0
 10  8  1  0  0  0  0
 11 14  1  0  0  0  0
 12  2  1  0  0  0  0
 12 23  1  6  0  0  0
 13  4  1  0  0  0  0
 13  5  1  0  0  0  0
 14 18  1  0  0  0  0
 14  4  2  0  0  0  0
 15 20  1  1  0  0  0
 15  1  1  0  0  0  0
 15 21  1  0  0  0  0
 16  2  2  0  0  0  0
 16 11  1  0  0  0  0
 19 20  1  0  0  0  0
 21 17  1  6  0  0  0
 21  3  1  0  0  0  0
 22 26  1  0  0  0  0
 23 27  1  0  0  0  0
 24 25  1  0  0  0  0
 24 23  2  0  0  0  0
 25 22  2  0  0  0  0
 27 26  2  0  0  0  0
M  END
>  <MODEL>
4

>  <REMARK>
 VINA RESULT:      -7.7      1.523      4.965
  Name = 
  1 active torsions:
  status: ('A' for Active; 'I' for Inactive)
    1  A    between atoms: C_9  and  C_15
                            x       y       z     vdW  Elec       q    Type
                         _______ _______ _______ _____ _____    ______ ____

>  <TORSDO>
F 1

$$$$
=
 OpenBabel11052418243D

 27 31  0  0  1  0  0  0  0  0999 V2000
  189.9470  176.9630  145.4940 C   0  0  0  0  0  2  0  0  0  0  0  0
  189.6230  175.6140  143.3580 C   0  0  0  0  0  0  0  0  0  0  0  0
  192.1250  175.7020  143.4570 N   0  0  0  0  0  2  0  0  0  0  0  0
  189.8310  171.9350  141.3650 C   0  0  0  0  0  3  0  0  0  0  0  0
  191.1220  170.0720  140.3170 C   0  0  0  0  0  1  0  0  0  0  0  0
  188.4760  174.8840  143.0080 C   0  0  0  0  0  3  0  0  0  0  0  0
  192.2010  173.2680  142.0280 C   0  0  0  0  0  3  0  0  0  0  0  0
  194.5010  176.0090  145.2560 C   0  0  0  0  0  2  0  0  0  0  0  0
  192.2500  172.0410  141.3590 C   0  0  0  0  0  3  0  0  0  0  0  0
  193.9670  175.6160  146.5520 N   0  0  0  0  0  2  0  0  0  0  0  0
  190.9670  173.8410  142.3670 C   0  0  0  0  0  0  0  0  0  0  0  0
  189.4860  176.9640  144.0320 C   0  0  1  0  0  3  0  0  0  0  0  0
  191.0660  171.3760  141.0270 C   0  0  0  0  0  0  0  0  0  0  0  0
  189.7740  173.1610  142.0320 C   0  0  0  0  0  0  0  0  0  0  0  0
  191.4270  176.6090  145.6730 C   0  0  1  0  0  3  0  0  0  0  0  0
  190.8960  175.0690  143.0480 C   0  0  0  0  0  0  0  0  0  0  0  0
  193.7050  177.1730  144.6700 C   0  0  0  0  0  2  0  0  0  0  0  0
  188.5720  173.6930  142.3650 N   0  0  0  0  0  0  0  0  0  0  0  0
  192.9500  174.6110  146.2900 C   0  0  0  0  0  2  0  0  0  0  0  0
  191.5470  175.2190  146.3160 C   0  0  0  0  0  2  0  0  0  0  0  0
  192.2420  176.8270  144.3820 C   0  0  1  0  0  3  0  0  0  0  0  0
  185.6760  178.9150  143.5900 C   0  0  0  0  0  3  0  0  0  0  0  0
  188.1530  177.6320  143.8580 C   0  0  0  0  0  0  0  0  0  0  0  0
  187.3450  177.8450  144.9810 C   0  0  0  0  0  3  0  0  0  0  0  0
  186.1080  178.4820  144.8460 C   0  0  0  0  0  3  0  0  0  0  0  0
  186.4810  178.7110  142.4660 C   0  0  0  0  0  3  0  0  0  0  0  0
  187.7170  178.0740  142.5980 C   0  0  0  0  0  3  0  0  0  0  0  0
  2 12  1  0  0  0  0
  3 21  1  0  0  0  0
  4 14  1  0  0  0  0
  5 13  1  0  0  0  0
  6  2  2  0  0  0  0
  7 11  1  0  0  0  0
  8 10  1  0  0  0  0
  9  7  2  0  0  0  0
 11 16  2  0  0  0  0
 12 23  1  1  0  0  0
 12  1  1  0  0  0  0
 13  9  1  0  0  0  0
 13  4  2  0  0  0  0
 14 18  2  0  0  0  0
 14 11  1  0  0  0  0
 15  1  1  6  0  0  0
 15 20  1  0  0  0  0
 16  2  1  0  0  0  0
 16  3  1  0  0  0  0
 17  8  1  0  0  0  0
 18  6  1  0  0  0  0
 19 20  1  0  0  0  0
 19 10  1  0  0  0  0
 21 17  1  1  0  0  0
 21 15  1  0  0  0  0
 22 25  1  0  0  0  0
 23 24  1  0  0  0  0
 25 24  2  0  0  0  0
 26 27  1  0  0  0  0
 26 22  2  0  0  0  0
 27 23  2  0  0  0  0
M  END
>  <MODEL>
5

>  <REMARK>
 VINA RESULT:      -7.4      1.282      1.435
  Name = 
  1 active torsions:
  status: ('A' for Active; 'I' for Inactive)
    1  A    between atoms: C_9  and  C_15
                            x       y       z     vdW  Elec       q    Type
                         _______ _______ _______ _____ _____    ______ ____

>  <TORSDO>
F 1

$$$$
=
 OpenBabel11052418243D

 27 31  0  0  1  0  0  0  0  0999 V2000
  187.6000  176.8740  144.8540 C   0  0  0  0  0  2  0  0  0  0  0  0
  188.3570  175.2930  143.0050 C   0  0  0  0  0  0  0  0  0  0  0  0
  190.5190  175.6230  144.2250 N   0  0  0  0  0  2  0  0  0  0  0  0
  189.6010  171.4680  141.8330 C   0  0  0  0  0  3  0  0  0  0  0  0
  191.2980  169.6380  141.7490 C   0  0  0  0  0  1  0  0  0  0  0  0
  187.5310  174.4280  142.2690 C   0  0  0  0  0  3  0  0  0  0  0  0
  191.3400  173.0760  143.3250 C   0  0  0  0  0  3  0  0  0  0  0  0
  191.7730  176.3290  146.8540 C   0  0  0  0  0  2  0  0  0  0  0  0
  191.7390  171.7980  142.9210 C   0  0  0  0  0  3  0  0  0  0  0  0
  190.7110  176.0200  147.8010 N   0  0  0  0  0  2  0  0  0  0  0  0
  190.0700  173.5630  142.9830 C   0  0  0  0  0  0  0  0  0  0  0  0
  187.8730  176.6850  143.3570 C   0  0  1  0  0  3  0  0  0  0  0  0
  190.8710  170.9960  142.1750 C   0  0  0  0  0  0  0  0  0  0  0  0
  189.1960  172.7450  142.2320 C   0  0  0  0  0  0  0  0  0  0  0  0
  188.8380  176.6790  145.7350 C   0  0  1  0  0  3  0  0  0  0  0  0
  189.6460  174.8410  143.3870 C   0  0  0  0  0  0  0  0  0  0  0  0
  191.2990  177.3490  145.8200 C   0  0  0  0  0  2  0  0  0  0  0  0
  187.9590  173.1930  141.9050 N   0  0  0  0  0  0  0  0  0  0  0  0
  189.9700  174.9040  147.2380 C   0  0  0  0  0  2  0  0  0  0  0  0
  188.6950  175.3770  146.5390 C   0  0  0  0  0  2  0  0  0  0  0  0
  190.1510  176.8420  144.9440 C   0  0  1  0  0  3  0  0  0  0  0  0
  184.6370  178.2160  140.9690 C   0  0  0  0  0  3  0  0  0  0  0  0
  186.7510  177.2060  142.5060 C   0  0  0  0  0  0  0  0  0  0  0  0
  185.4900  177.3960  143.0820 C   0  0  0  0  0  3  0  0  0  0  0  0
  184.4340  177.8980  142.3140 C   0  0  0  0  0  3  0  0  0  0  0  0
  185.8950  178.0330  140.3890 C   0  0  0  0  0  3  0  0  0  0  0  0
  186.9510  177.5320  141.1550 C   0  0  0  0  0  3  0  0  0  0  0  0
  2 12  1  0  0  0  0
  2 16  1  0  0  0  0
  3 21  1  0  0  0  0
  4 13  2  0  0  0  0
  4 14  1  0  0  0  0
  5 13  1  0  0  0  0
  6  2  2  0  0  0  0
  8 10  1  0  0  0  0
  9  7  2  0  0  0  0
 11  7  1  0  0  0  0
 11 16  2  0  0  0  0
 12 23  1  6  0  0  0
 12  1  1  0  0  0  0
 13  9  1  0  0  0  0
 14 11  1  0  0  0  0
 15  1  1  6  0  0  0
 15 20  1  0  0  0  0
 16  3  1  0  0  0  0
 17  8  1  0  0  0  0
 18 14  2  0  0  0  0
 18  6  1  0  0  0  0
 19 10  1  0  0  0  0
 20 19  1  0  0  0  0
 21 15  1  0  0  0  0
 21 17  1  1  0  0  0
 22 25  1  0  0  0  0
 23 24  1  0  0  0  0
 25 24  2  0  0  0  0
 26 22  2  0  0  0  0
 26 27  1  0  0  0  0
 27 23  2  0  0  0  0
M  END
>  <MODEL>
6

>  <REMARK>
 VINA RESULT:      -7.4      2.066      2.462
  Name = 
  1 active torsions:
  status: ('A' for Active; 'I' for Inactive)
    1  A    between atoms: C_9  and  C_15
                            x       y       z     vdW  Elec       q    Type
                         _______ _______ _______ _____ _____    ______ ____

>  <TORSDO>
F 1

$$$$
=
 OpenBabel11052418243D

 27 31  0  0  1  0  0  0  0  0999 V2000
  191.2500  173.5610  143.3780 C   0  0  0  0  0  2  0  0  0  0  0  0
  190.0980  175.5150  144.5370 C   0  0  0  0  0  0  0  0  0  0  0  0
  188.8480  175.4810  142.3660 N   0  0  0  0  0  2  0  0  0  0  0  0
  186.7150  177.0640  146.4620 C   0  0  0  0  0  3  0  0  0  0  0  0
  184.3670  177.9120  146.4370 C   0  0  0  0  0  1  0  0  0  0  0  0
  190.0640  175.7510  145.9210 C   0  0  0  0  0  3  0  0  0  0  0  0
  186.6320  176.6140  143.7010 C   0  0  0  0  0  3  0  0  0  0  0  0
  187.9990  173.7830  140.0490 C   0  0  0  0  0  2  0  0  0  0  0  0
  185.5150  177.1340  144.3610 C   0  0  0  0  0  3  0  0  0  0  0  0
  188.0670  172.4380  140.6020 N   0  0  0  0  0  2  0  0  0  0  0  0
  187.8030  176.3190  144.4150 C   0  0  0  0  0  0  0  0  0  0  0  0
  191.3670  175.0020  143.8860 C   0  0  1  0  0  3  0  0  0  0  0  0
  185.5570  177.3600  145.7390 C   0  0  0  0  0  0  0  0  0  0  0  0
  187.8370  176.5460  145.8100 C   0  0  0  0  0  0  0  0  0  0  0  0
  190.1790  173.3730  142.2990 C   0  0  1  0  0  3  0  0  0  0  0  0
  188.9340  175.7850  143.7730 C   0  0  0  0  0  0  0  0  0  0  0  0
  189.3510  174.4850  140.1570 C   0  0  0  0  0  2  0  0  0  0  0  0
  188.9540  176.2510  146.5190 N   0  0  0  0  0  0  0  0  0  0  0  0
  187.7410  172.5580  142.0140 C   0  0  0  0  0  2  0  0  0  0  0  0
  189.0020  172.5730  142.8780 C   0  0  0  0  0  2  0  0  0  0  0  0
  189.8140  174.6970  141.5990 C   0  0  1  0  0  3  0  0  0  0  0  0
  194.9450  175.6960  146.1740 C   0  0  0  0  0  3  0  0  0  0  0  0
  192.6250  175.2240  144.6760 C   0  0  0  0  0  0  0  0  0  0  0  0
  193.1530  176.5170  144.7670 C   0  0  0  0  0  3  0  0  0  0  0  0
  194.3130  176.7520  145.5120 C   0  0  0  0  0  3  0  0  0  0  0  0
  194.4190  174.4040  146.0920 C   0  0  0  0  0  3  0  0  0  0  0  0
  193.2610  174.1670  145.3470 C   0  0  0  0  0  3  0  0  0  0  0  0
  1 12  1  0  0  0  0
  2  6  1  0  0  0  0
  3 16  1  0  0  0  0
  6 18  2  0  0  0  0
  7  9  2  0  0  0  0
  7 11  1  0  0  0  0
  8 17  1  0  0  0  0
  8 10  1  0  0  0  0
  9 13  1  0  0  0  0
 10 19  1  0  0  0  0
 11 14  2  0  0  0  0
 12  2  1  0  0  0  0
 12 23  1  1  0  0  0
 13  5  1  0  0  0  0
 13  4  2  0  0  0  0
 14  4  1  0  0  0  0
 14 18  1  0  0  0  0
 15 20  1  1  0  0  0
 15  1  1  0  0  0  0
 16 11  1  0  0  0  0
 16  2  2  0  0  0  0
 19 20  1  0  0  0  0
 21 17  1  6  0  0  0
 21 15  1  0  0  0  0
 21  3  1  0  0  0  0
 23 24  2  0  0  0  0
 23 27  1  0  0  0  0
 24 25  1  0  0  0  0
 25 22  2  0  0  0  0
 26 22  1  0  0  0  0
 27 26  2  0  0  0  0
M  END
>  <MODEL>
7

>  <REMARK>
 VINA RESULT:      -7.3      1.797      6.613
  Name = 
  1 active torsions:
  status: ('A' for Active; 'I' for Inactive)
    1  A    between atoms: C_9  and  C_15
                            x       y       z     vdW  Elec       q    Type
                         _______ _______ _______ _____ _____    ______ ____

>  <TORSDO>
F 1

$$$$
=
 OpenBabel11052418243D

 27 31  0  0  1  0  0  0  0  0999 V2000
  189.8950  175.9570  145.7450 C   0  0  0  0  0  2  0  0  0  0  0  0
  189.1830  175.4990  143.3430 C   0  0  0  0  0  0  0  0  0  0  0  0
  191.6660  175.6560  143.0510 N   0  0  0  0  0  2  0  0  0  0  0  0
  188.9690  172.8560  140.0990 C   0  0  0  0  0  3  0  0  0  0  0  0
  190.0230  171.5860  138.2250 C   0  0  0  0  0  1  0  0  0  0  0  0
  187.9770  174.9030  142.9380 C   0  0  0  0  0  3  0  0  0  0  0  0
  191.4460  173.9460  140.8150 C   0  0  0  0  0  3  0  0  0  0  0  0
  194.3200  175.3700  144.4110 C   0  0  0  0  0  2  0  0  0  0  0  0
  191.3530  173.0650  139.7330 C   0  0  0  0  0  3  0  0  0  0  0  0
  194.0070  174.4940  145.5310 N   0  0  0  0  0  2  0  0  0  0  0  0
  190.2990  174.2940  141.5460 C   0  0  0  0  0  0  0  0  0  0  0  0
  189.1910  176.4880  144.4910 C   0  0  1  0  0  3  0  0  0  0  0  0
  190.1160  172.5220  139.3750 C   0  0  0  0  0  0  0  0  0  0  0  0
  189.0530  173.7370  141.1810 C   0  0  0  0  0  0  0  0  0  0  0  0
  191.3750  175.6290  145.5280 C   0  0  1  0  0  3  0  0  0  0  0  0
  190.3720  175.1690  142.6430 C   0  0  0  0  0  0  0  0  0  0  0  0
  193.4600  176.6310  144.4510 C   0  0  0  0  0  2  0  0  0  0  0  0
  187.9370  174.0480  141.8850 N   0  0  0  0  0  0  0  0  0  0  0  0
  192.9390  173.6170  145.0800 C   0  0  0  0  0  2  0  0  0  0  0  0
  191.5740  174.1060  145.5670 C   0  0  0  0  0  2  0  0  0  0  0  0
  191.9630  176.3540  144.3010 C   0  0  1  0  0  3  0  0  0  0  0  0
  185.3680  178.2760  145.3310 C   0  0  0  0  0  3  0  0  0  0  0  0
  187.8620  177.1110  144.8070 C   0  0  0  0  0  0  0  0  0  0  0  0
  187.3810  178.1410  143.9910 C   0  0  0  0  0  3  0  0  0  0  0  0
  186.1380  178.7240  144.2540 C   0  0  0  0  0  3  0  0  0  0  0  0
  185.8410  177.2440  146.1470 C   0  0  0  0  0  3  0  0  0  0  0  0
  187.0830  176.6610  145.8850 C   0  0  0  0  0  3  0  0  0  0  0  0
  2 12  1  0  0  0  0
  3 21  1  0  0  0  0
  4 14  1  0  0  0  0
  5 13  1  0  0  0  0
  6  2  1  0  0  0  0
  7 11  1  0  0  0  0
  8 17  1  0  0  0  0
  8 10  1  0  0  0  0
  9  7  2  0  0  0  0
 11 16  1  0  0  0  0
 12 23  1  1  0  0  0
 12  1  1  0  0  0  0
 13  9  1  0  0  0  0
 13  4  2  0  0  0  0
 14 11  2  0  0  0  0
 14 18  1  0  0  0  0
 15 20  1  6  0  0  0
 15  1  1  0  0  0  0
 16  3  1  0  0  0  0
 16  2  2  0  0  0  0
 18  6  2  0  0  0  0
 19 10  1  0  0  0  0
 19 20  1  0  0  0  0
 21 17  1  1  0  0  0
 21 15  1  0  0  0  0
 22 26  1  0  0  0  0
 23 27  1  0  0  0  0
 24 25  1  0  0  0  0
 24 23  2  0  0  0  0
 25 22  2  0  0  0  0
 27 26  2  0  0  0  0
M  END
>  <MODEL>
8

>  <REMARK>
 VINA RESULT:      -7.3      0.890      1.350
  Name = 
  1 active torsions:
  status: ('A' for Active; 'I' for Inactive)
    1  A    between atoms: C_9  and  C_15
                            x       y       z     vdW  Elec       q    Type
                         _______ _______ _______ _____ _____    ______ ____

>  <TORSDO>
F 1

$$$$
=
 OpenBabel11052418243D

 27 31  0  0  1  0  0  0  0  0999 V2000
  188.7910  175.2010  142.9850 C   0  0  0  0  0  2  0  0  0  0  0  0
  190.5260  175.1850  144.8500 C   0  0  0  0  0  0  0  0  0  0  0  0
  190.8290  172.8720  143.9370 N   0  0  0  0  0  2  0  0  0  0  0  0
  194.5490  175.2520  146.0170 C   0  0  0  0  0  3  0  0  0  0  0  0
  196.7890  174.1730  146.2480 C   0  0  0  0  0  1  0  0  0  0  0  0
  191.1190  176.3150  145.4350 C   0  0  0  0  0  3  0  0  0  0  0  0
  193.5060  172.9400  144.8320 C   0  0  0  0  0  3  0  0  0  0  0  0
  190.5080  171.1220  141.5260 C   0  0  0  0  0  2  0  0  0  0  0  0
  194.8450  172.9800  145.2320 C   0  0  0  0  0  3  0  0  0  0  0  0
  190.4980  172.0880  140.4360 N   0  0  0  0  0  2  0  0  0  0  0  0
  192.6750  174.0540  145.0260 C   0  0  0  0  0  0  0  0  0  0  0  0
  189.0530  175.2000  144.4950 C   0  0  1  0  0  3  0  0  0  0  0  0
  195.3650  174.1340  145.8250 C   0  0  0  0  0  0  0  0  0  0  0  0
  193.2090  175.2190  145.6220 C   0  0  0  0  0  0  0  0  0  0  0  0
  189.3320  173.9610  142.2660 C   0  0  1  0  0  3  0  0  0  0  0  0
  191.3280  174.0380  144.6210 C   0  0  0  0  0  0  0  0  0  0  0  0
  189.3970  171.4240  142.5300 C   0  0  0  0  0  2  0  0  0  0  0  0
  192.4260  176.3100  145.8020 N   0  0  0  0  0  0  0  0  0  0  0  0
  191.3550  173.1860  140.8520 C   0  0  0  0  0  2  0  0  0  0  0  0
  190.5370  174.3560  141.3970 C   0  0  0  0  0  2  0  0  0  0  0  0
  189.5550  172.7770  143.2270 C   0  0  1  0  0  3  0  0  0  0  0  0
  186.6620  178.1650  146.4990 C   0  0  0  0  0  3  0  0  0  0  0  0
  188.2330  176.2340  145.2130 C   0  0  0  0  0  0  0  0  0  0  0  0
  187.7200  177.3180  144.4920 C   0  0  0  0  0  3  0  0  0  0  0  0
  186.9390  178.2830  145.1350 C   0  0  0  0  0  3  0  0  0  0  0  0
  187.1680  177.0810  147.2230 C   0  0  0  0  0  3  0  0  0  0  0  0
  187.9490  176.1170  146.5830 C   0  0  0  0  0  3  0  0  0  0  0  0
  1 12  1  0  0  0  0
  2  6  1  0  0  0  0
  3 16  1  0  0  0  0
  6 18  2  0  0  0  0
  7 11  2  0  0  0  0
  7  9  1  0  0  0  0
  8 17  1  0  0  0  0
  9 13  2  0  0  0  0
 10 19  1  0  0  0  0
 10  8  1  0  0  0  0
 11 14  1  0  0  0  0
 12  2  1  0  0  0  0
 12 23  1  6  0  0  0
 13  4  1  0  0  0  0
 13  5  1  0  0  0  0
 14 18  1  0  0  0  0
 14  4  2  0  0  0  0
 15 20  1  1  0  0  0
 15  1  1  0  0  0  0
 15 21  1  0  0  0  0
 16  2  2  0  0  0  0
 16 11  1  0  0  0  0
 19 20  1  0  0  0  0
 21 17  1  6  0  0  0
 21  3  1  0  0  0  0
 22 26  1  0  0  0  0
 23 27  1  0  0  0  0
 24 25  1  0  0  0  0
 24 23  2  0  0  0  0
 25 22  2  0  0  0  0
 27 26  2  0  0  0  0
M  END
>  <MODEL>
9

>  <REMARK>
 VINA RESULT:      -7.3      2.000      5.330
  Name = 
  1 active torsions:
  status: ('A' for Active; 'I' for Inactive)
    1  A    between atoms: C_9  and  C_15
                            x       y       z     vdW  Elec       q    Type
                         _______ _______ _______ _____ _____    ______ ____

>  <TORSDO>
F 1

$$$$
