=
 OpenBabel11052421283D

 32 36  0  0  1  0  0  0  0  0999 V2000
  189.0680  177.7580  144.0280 C   0  0  0  0  0  3  0  0  0  0  0  0
  188.9660  172.4540  141.0950 C   0  0  0  0  0  2  0  0  0  0  0  0
  188.6270  173.3670  139.9000 C   0  0  0  0  0  2  0  0  0  0  0  0
  190.7280  176.8580  145.7800 C   0  0  2  0  0  3  0  0  0  0  0  0
  189.6010  174.7650  144.9540 C   0  0  0  0  0  3  0  0  0  0  0  0
  189.5510  173.2300  142.2390 C   0  0  0  0  0  3  0  0  0  0  0  0
  189.5190  175.3290  143.5750 C   0  0  1  0  0  3  0  0  0  0  0  0
  188.9680  174.3820  142.5850 C   0  0  0  0  0  0  0  0  0  0  0  0
  187.7280  176.4240  142.2560 C   0  0  2  0  0  0  0  0  0  0  0  0
  190.1030  175.4880  145.9670 C   0  0  0  0  0  0  0  0  0  0  0  0
  188.2090  174.8050  140.2790 C   0  0  0  0  0  2  0  0  0  0  0  0
  187.8610  174.9610  141.7710 C   0  0  1  0  0  3  0  0  0  0  0  0
  188.3270  177.3160  141.3540 O   0  0  0  0  0  1  0  0  0  0  0  0
  189.9900  177.9260  144.9930 C   0  0  0  0  0  3  0  0  0  0  0  0
  188.4930  176.4360  143.6010 C   0  0  2  0  0  3  0  0  0  0  0  0
  185.9910  177.4250  143.8270 C   0  0  0  0  0  3  0  0  0  0  0  0
  184.8840  178.1350  144.0910 C   0  0  0  0  0  0  0  0  0  0  0  0
  185.6120  177.6560  141.3920 C   0  0  0  0  0  0  0  0  0  0  0  0
  184.4670  178.4500  141.7170 N   0  0  0  0  0  2  0  0  0  0  0  0
  183.8400  178.3420  143.0300 C   0  0  0  0  0  2  0  0  0  0  0  0
  184.6760  178.6960  145.4540 C   0  0  0  0  0  1  0  0  0  0  0  0
  186.0490  177.6600  140.2120 O   0  0  0  0  0  0  0  0  0  0  0  0
  186.2360  176.7930  142.4720 C   0  0  1  0  0  3  0  0  0  0  0  0
  188.8420  174.4520  147.6830 O   0  0  0  0  0  1  0  0  0  0  0  0
  190.1190  174.8930  147.3370 C   0  0  0  0  0  2  0  0  0  0  0  0
  192.2290  176.8160  145.4830 C   0  0  0  0  0  2  0  0  0  0  0  0
  193.0740  176.2740  146.6340 C   0  0  0  0  0  2  0  0  0  0  0  0
  195.8280  174.1750  145.7660 C   0  0  0  0  0  3  0  0  0  0  0  0
  193.6180  173.9790  145.6810 C   0  0  0  0  0  3  0  0  0  0  0  0
  195.3130  175.2900  146.2250 O   0  0  0  0  0  0  0  0  0  0  0  0
  194.8030  173.3160  145.4090 C   0  0  0  0  0  3  0  0  0  0  0  0
  194.0080  175.2020  146.1780 C   0  0  0  0  0  0  0  0  0  0  0  0
  1 14  2  0  0  0  0
  2  6  1  0  0  0  0
  3 11  1  0  0  0  0
  3  2  1  0  0  0  0
  4 26  1  6  0  0  0
  4 10  1  0  0  0  0
  5 10  2  0  0  0  0
  6  8  2  0  0  0  0
  7 15  1  0  0  0  0
  7  5  1  1  0  0  0
  8  7  1  0  0  0  0
  9 13  1  6  0  0  0
  9 23  1  0  0  0  0
  9 15  1  0  0  0  0
 10 25  1  0  0  0  0
 12 11  1  6  0  0  0
 12  9  1  0  0  0  0
 12  8  1  0  0  0  0
 14  4  1  0  0  0  0
 15  1  1  6  0  0  0
 16 17  2  0  0  0  0
 17 21  1  0  0  0  0
 18 19  1  0  0  0  0
 18 23  1  0  0  0  0
 19 20  1  0  0  0  0
 20 17  1  0  0  0  0
 22 18  2  0  0  0  0
 23 16  1  1  0  0  0
 25 24  1  0  0  0  0
 26 27  1  0  0  0  0
 28 30  1  0  0  0  0
 29 32  2  0  0  0  0
 31 29  1  0  0  0  0
 31 28  2  0  0  0  0
 32 30  1  0  0  0  0
 32 27  1  0  0  0  0
M  END
>  <MODEL>
1

>  <REMARK>
 VINA RESULT:      -8.5      0.000      0.000
  Name = 
  5 active torsions:
  status: ('A' for Active; 'I' for Inactive)
    1  A    between atoms: C_8  and  C_23
    2  A    between atoms: C_12  and  C_21
    3  A    between atoms: C_16  and  C_32
    4  A    between atoms: C_19  and  C_23
    5  A    between atoms: C_19  and  C_24
                            x       y       z     vdW  Elec       q    Type
                         _______ _______ _______ _____ _____    ______ ____

>  <TORSDO>
F 5

$$$$
=
 OpenBabel11052421283D

 32 36  0  0  1  0  0  0  0  0999 V2000
  189.1190  177.6540  144.1470 C   0  0  0  0  0  3  0  0  0  0  0  0
  189.0950  172.2310  141.4390 C   0  0  0  0  0  2  0  0  0  0  0  0
  188.8590  173.0980  140.1870 C   0  0  0  0  0  2  0  0  0  0  0  0
  190.6350  176.7990  146.0460 C   0  0  2  0  0  3  0  0  0  0  0  0
  189.5190  174.6950  145.2330 C   0  0  0  0  0  3  0  0  0  0  0  0
  189.6190  173.0440  142.5880 C   0  0  0  0  0  3  0  0  0  0  0  0
  189.5440  175.1990  143.8290 C   0  0  1  0  0  3  0  0  0  0  0  0
  189.0400  174.2220  142.8440 C   0  0  0  0  0  0  0  0  0  0  0  0
  187.8720  176.2720  142.3450 C   0  0  2  0  0  0  0  0  0  0  0  0
  189.9690  175.4510  146.2470 C   0  0  0  0  0  0  0  0  0  0  0  0
  188.4490  174.5600  140.4760 C   0  0  0  0  0  2  0  0  0  0  0  0
  188.0040  174.7870  141.9320 C   0  0  1  0  0  3  0  0  0  0  0  0
  188.5510  177.1110  141.4500 O   0  0  0  0  0  1  0  0  0  0  0  0
  189.9760  177.8460  145.1650 C   0  0  0  0  0  3  0  0  0  0  0  0
  188.5440  176.3260  143.7370 C   0  0  2  0  0  3  0  0  0  0  0  0
  186.0440  177.3270  143.7710 C   0  0  0  0  0  3  0  0  0  0  0  0
  184.9380  178.0660  143.9440 C   0  0  0  0  0  0  0  0  0  0  0  0
  185.8600  177.5490  141.3130 C   0  0  0  0  0  0  0  0  0  0  0  0
  184.7140  178.3740  141.5430 N   0  0  0  0  0  2  0  0  0  0  0  0
  183.9850  178.2910  142.8040 C   0  0  0  0  0  2  0  0  0  0  0  0
  184.6400  178.6420  145.2840 C   0  0  0  0  0  1  0  0  0  0  0  0
  186.3880  177.5330  140.1700 O   0  0  0  0  0  0  0  0  0  0  0  0
  186.3770  176.6790  142.4420 C   0  0  1  0  0  3  0  0  0  0  0  0
  188.5660  174.5340  147.9210 O   0  0  0  0  0  1  0  0  0  0  0  0
  189.8780  174.9160  147.6380 C   0  0  0  0  0  2  0  0  0  0  0  0
  192.1520  176.7140  145.8540 C   0  0  0  0  0  2  0  0  0  0  0  0
  192.6270  177.1570  144.4710 C   0  0  0  0  0  2  0  0  0  0  0  0
  192.8610  174.8710  141.7400 C   0  0  0  0  0  3  0  0  0  0  0  0
  193.1900  174.7360  143.9320 C   0  0  0  0  0  3  0  0  0  0  0  0
  192.6160  176.0520  142.2520 O   0  0  0  0  0  0  0  0  0  0  0  0
  193.2270  174.0040  142.7570 C   0  0  0  0  0  3  0  0  0  0  0  0
  192.7960  175.9970  143.5470 C   0  0  0  0  0  0  0  0  0  0  0  0
  1 14  2  0  0  0  0
  2  6  1  0  0  0  0
  3 11  1  0  0  0  0
  3  2  1  0  0  0  0
  4 26  1  6  0  0  0
  4 10  1  0  0  0  0
  5 10  2  0  0  0  0
  6  8  2  0  0  0  0
  7  5  1  1  0  0  0
  8  7  1  0  0  0  0
  9 13  1  6  0  0  0
  9 23  1  0  0  0  0
  9 15  1  0  0  0  0
 10 25  1  0  0  0  0
 12 11  1  6  0  0  0
 12  9  1  0  0  0  0
 12  8  1  0  0  0  0
 14  4  1  0  0  0  0
 15  7  1  0  0  0  0
 15  1  1  6  0  0  0
 16 17  2  0  0  0  0
 17 21  1  0  0  0  0
 18 19  1  0  0  0  0
 18 23  1  0  0  0  0
 19 20  1  0  0  0  0
 20 17  1  0  0  0  0
 22 18  2  0  0  0  0
 23 16  1  1  0  0  0
 25 24  1  0  0  0  0
 27 26  1  0  0  0  0
 28 30  1  0  0  0  0
 28 31  2  0  0  0  0
 30 32  1  0  0  0  0
 31 29  1  0  0  0  0
 32 29  2  0  0  0  0
 32 27  1  0  0  0  0
M  END
>  <MODEL>
2

>  <REMARK>
 VINA RESULT:      -8.5      1.319      1.582
  Name = 
  5 active torsions:
  status: ('A' for Active; 'I' for Inactive)
    1  A    between atoms: C_8  and  C_23
    2  A    between atoms: C_12  and  C_21
    3  A    between atoms: C_16  and  C_32
    4  A    between atoms: C_19  and  C_23
    5  A    between atoms: C_19  and  C_24
                            x       y       z     vdW  Elec       q    Type
                         _______ _______ _______ _____ _____    ______ ____

>  <TORSDO>
F 5

$$$$
=
 OpenBabel11052421283D

 32 36  0  0  1  0  0  0  0  0999 V2000
  191.0760  176.5950  146.1080 C   0  0  0  0  0  3  0  0  0  0  0  0
  191.0410  171.5800  142.7030 C   0  0  0  0  0  2  0  0  0  0  0  0
  192.0520  171.1100  143.7670 C   0  0  0  0  0  2  0  0  0  0  0  0
  188.6790  177.2070  145.3890 C   0  0  2  0  0  3  0  0  0  0  0  0
  189.4850  175.7770  143.4810 C   0  0  0  0  0  3  0  0  0  0  0  0
  190.2530  172.7690  143.1720 C   0  0  0  0  0  3  0  0  0  0  0  0
  190.2590  174.9180  144.4250 C   0  0  1  0  0  3  0  0  0  0  0  0
  190.9110  173.7670  143.7720 C   0  0  0  0  0  0  0  0  0  0  0  0
  192.6430  174.7970  145.0960 C   0  0  2  0  0  0  0  0  0  0  0  0
  188.8100  176.8510  143.9200 C   0  0  0  0  0  0  0  0  0  0  0  0
  192.6240  172.2340  144.6610 C   0  0  0  0  0  2  0  0  0  0  0  0
  192.3600  173.6440  144.1030 C   0  0  1  0  0  3  0  0  0  0  0  0
  192.7070  174.3280  146.4160 O   0  0  0  0  0  1  0  0  0  0  0  0
  189.9150  177.2540  146.2700 C   0  0  0  0  0  3  0  0  0  0  0  0
  191.4260  175.7360  144.9240 C   0  0  2  0  0  3  0  0  0  0  0  0
  195.1890  174.7260  145.0810 C   0  0  0  0  0  3  0  0  0  0  0  0
  196.3910  174.9810  144.5430 C   0  0  0  0  0  0  0  0  0  0  0  0
  194.0620  175.9860  143.2740 C   0  0  0  0  0  0  0  0  0  0  0  0
  195.3580  176.1930  142.7050 N   0  0  0  0  0  2  0  0  0  0  0  0
  196.5550  176.0820  143.5330 C   0  0  0  0  0  2  0  0  0  0  0  0
  197.5740  174.1870  144.9710 C   0  0  0  0  0  1  0  0  0  0  0  0
  193.0390  176.2250  142.5800 O   0  0  0  0  0  0  0  0  0  0  0  0
  193.9580  175.5300  144.7170 C   0  0  1  0  0  3  0  0  0  0  0  0
  188.9880  178.2050  141.9850 O   0  0  0  0  0  1  0  0  0  0  0  0
  188.0900  177.7020  142.9270 C   0  0  0  0  0  2  0  0  0  0  0  0
  187.4710  176.5620  146.0740 C   0  0  0  0  0  2  0  0  0  0  0  0
  186.4510  177.5670  146.6050 C   0  0  0  0  0  2  0  0  0  0  0  0
  184.3520  178.4530  143.8550 C   0  0  0  0  0  3  0  0  0  0  0  0
  185.7320  179.5610  145.1970 C   0  0  0  0  0  3  0  0  0  0  0  0
  184.8640  177.5900  144.6990 O   0  0  0  0  0  0  0  0  0  0  0  0
  184.8670  179.7100  144.1260 C   0  0  0  0  0  3  0  0  0  0  0  0
  185.6890  178.2180  145.4980 C   0  0  0  0  0  0  0  0  0  0  0  0
  1 14  2  0  0  0  0
  2  6  1  0  0  0  0
  2  3  1  0  0  0  0
  3 11  1  0  0  0  0
  4 26  1  1  0  0  0
  4 14  1  0  0  0  0
  5 10  2  0  0  0  0
  6  8  2  0  0  0  0
  7  5  1  6  0  0  0
  7 15  1  0  0  0  0
  8 12  1  0  0  0  0
  8  7  1  0  0  0  0
  9 13  1  1  0  0  0
 10  4  1  0  0  0  0
 12 11  1  1  0  0  0
 12  9  1  0  0  0  0
 15  9  1  0  0  0  0
 15  1  1  1  0  0  0
 17 21  1  0  0  0  0
 17 16  2  0  0  0  0
 18 23  1  0  0  0  0
 19 18  1  0  0  0  0
 19 20  1  0  0  0  0
 20 17  1  0  0  0  0
 22 18  2  0  0  0  0
 23 16  1  6  0  0  0
 23  9  1  0  0  0  0
 24 25  1  0  0  0  0
 25 10  1  0  0  0  0
 26 27  1  0  0  0  0
 28 31  2  0  0  0  0
 28 30  1  0  0  0  0
 29 32  2  0  0  0  0
 30 32  1  0  0  0  0
 31 29  1  0  0  0  0
 32 27  1  0  0  0  0
M  END
>  <MODEL>
3

>  <REMARK>
 VINA RESULT:      -8.1      2.883      7.692
  Name = 
  5 active torsions:
  status: ('A' for Active; 'I' for Inactive)
    1  A    between atoms: C_8  and  C_23
    2  A    between atoms: C_12  and  C_21
    3  A    between atoms: C_16  and  C_32
    4  A    between atoms: C_19  and  C_23
    5  A    between atoms: C_19  and  C_24
                            x       y       z     vdW  Elec       q    Type
                         _______ _______ _______ _____ _____    ______ ____

>  <TORSDO>
F 5

$$$$
=
 OpenBabel11052421283D

 32 36  0  0  1  0  0  0  0  0999 V2000
  188.4930  177.8370  143.8500 C   0  0  0  0  0  3  0  0  0  0  0  0
  189.0850  171.9130  142.7100 C   0  0  0  0  0  2  0  0  0  0  0  0
  189.6920  171.9220  144.1270 C   0  0  0  0  0  2  0  0  0  0  0  0
  186.4770  178.0330  142.2580 C   0  0  2  0  0  3  0  0  0  0  0  0
  187.7020  176.0250  141.3620 C   0  0  0  0  0  3  0  0  0  0  0  0
  188.2890  173.1570  142.4390 C   0  0  0  0  0  3  0  0  0  0  0  0
  188.0880  175.6190  142.7440 C   0  0  1  0  0  3  0  0  0  0  0  0
  188.8130  174.3340  142.7970 C   0  0  0  0  0  0  0  0  0  0  0  0
  190.1450  175.8590  144.1080 C   0  0  2  0  0  0  0  0  0  0  0  0
  187.0130  177.1560  141.1420 C   0  0  0  0  0  0  0  0  0  0  0  0
  190.0560  173.3220  144.6700 C   0  0  0  0  0  2  0  0  0  0  0  0
  190.0830  174.4060  143.5780 C   0  0  1  0  0  3  0  0  0  0  0  0
  189.7740  175.9230  145.4590 O   0  0  0  0  0  1  0  0  0  0  0  0
  187.3920  178.4600  143.3920 C   0  0  0  0  0  3  0  0  0  0  0  0
  189.1130  176.6120  143.2360 C   0  0  2  0  0  3  0  0  0  0  0  0
  192.3570  176.4950  145.2000 C   0  0  0  0  0  3  0  0  0  0  0  0
  193.6920  176.6240  145.2130 C   0  0  0  0  0  0  0  0  0  0  0  0
  192.4030  175.7930  142.8270 C   0  0  0  0  0  0  0  0  0  0  0  0
  193.8280  175.8940  142.8970 N   0  0  0  0  0  2  0  0  0  0  0  0
  194.4620  176.7150  143.9250 C   0  0  0  0  0  2  0  0  0  0  0  0
  194.4120  176.7060  146.5130 C   0  0  0  0  0  1  0  0  0  0  0  0
  191.8760  175.1970  141.8510 O   0  0  0  0  0  0  0  0  0  0  0  0
  191.5660  176.4500  143.9080 C   0  0  1  0  0  3  0  0  0  0  0  0
  186.9590  176.4760  138.8740 O   0  0  0  0  0  1  0  0  0  0  0  0
  186.6920  177.5410  139.7350 C   0  0  0  0  0  2  0  0  0  0  0  0
  185.0730  177.6430  142.7270 C   0  0  0  0  0  2  0  0  0  0  0  0
  184.4420  178.6440  143.6930 C   0  0  0  0  0  2  0  0  0  0  0  0
  184.7420  178.4040  147.2420 C   0  0  0  0  0  3  0  0  0  0  0  0
  185.1920  177.0580  145.5350 C   0  0  0  0  0  3  0  0  0  0  0  0
  184.4250  179.0400  146.1400 O   0  0  0  0  0  0  0  0  0  0  0  0
  185.2310  177.1500  146.9150 C   0  0  0  0  0  3  0  0  0  0  0  0
  184.6880  178.2690  145.1160 C   0  0  0  0  0  0  0  0  0  0  0  0
  2  3  1  0  0  0  0
  3 11  1  0  0  0  0
  4 26  1  1  0  0  0
  4 14  1  0  0  0  0
  6  2  1  0  0  0  0
  6  8  2  0  0  0  0
  7  5  1  6  0  0  0
  7  8  1  0  0  0  0
  7 15  1  0  0  0  0
  8 12  1  0  0  0  0
  9 13  1  1  0  0  0
 10  5  2  0  0  0  0
 10  4  1  0  0  0  0
 12  9  1  0  0  0  0
 12 11  1  1  0  0  0
 14  1  2  0  0  0  0
 15  1  1  1  0  0  0
 15  9  1  0  0  0  0
 16 17  2  0  0  0  0
 17 21  1  0  0  0  0
 18 19  1  0  0  0  0
 18 23  1  0  0  0  0
 19 20  1  0  0  0  0
 20 17  1  0  0  0  0
 22 18  2  0  0  0  0
 23  9  1  0  0  0  0
 23 16  1  1  0  0  0
 24 25  1  0  0  0  0
 25 10  1  0  0  0  0
 26 27  1  0  0  0  0
 27 32  1  0  0  0  0
 29 31  1  0  0  0  0
 30 28  1  0  0  0  0
 31 28  2  0  0  0  0
 32 29  2  0  0  0  0
 32 30  1  0  0  0  0
M  END
>  <MODEL>
4

>  <REMARK>
 VINA RESULT:      -8.0      2.677      7.119
  Name = 
  5 active torsions:
  status: ('A' for Active; 'I' for Inactive)
    1  A    between atoms: C_8  and  C_23
    2  A    between atoms: C_12  and  C_21
    3  A    between atoms: C_16  and  C_32
    4  A    between atoms: C_19  and  C_23
    5  A    between atoms: C_19  and  C_24
                            x       y       z     vdW  Elec       q    Type
                         _______ _______ _______ _____ _____    ______ ____

>  <TORSDO>
F 5

$$$$
=
 OpenBabel11052421283D

 32 36  0  0  1  0  0  0  0  0999 V2000
  191.6200  173.6770  144.6350 C   0  0  0  0  0  3  0  0  0  0  0  0
  188.6830  178.2100  141.8840 C   0  0  0  0  0  2  0  0  0  0  0  0
  187.5720  177.1450  141.7910 C   0  0  0  0  0  2  0  0  0  0  0  0
  193.0620  175.3200  145.9990 C   0  0  2  0  0  3  0  0  0  0  0  0
  192.4100  176.6860  143.9890 C   0  0  0  0  0  3  0  0  0  0  0  0
  189.7230  177.8400  142.9020 C   0  0  0  0  0  3  0  0  0  0  0  0
  191.0710  176.0300  143.9520 C   0  0  1  0  0  3  0  0  0  0  0  0
  190.1750  176.5810  142.9150 C   0  0  0  0  0  0  0  0  0  0  0  0
  190.0810  174.1900  142.6160 C   0  0  2  0  0  0  0  0  0  0  0  0
  193.3340  176.3190  144.8910 C   0  0  0  0  0  0  0  0  0  0  0  0
  188.0330  175.6980  142.0760 C   0  0  0  0  0  2  0  0  0  0  0  0
  189.5630  175.5330  142.0480 C   0  0  1  0  0  3  0  0  0  0  0  0
  189.1020  173.5560  143.3950 O   0  0  0  0  0  1  0  0  0  0  0  0
  192.4200  173.9820  145.6720 C   0  0  0  0  0  3  0  0  0  0  0  0
  191.2790  174.6040  143.5020 C   0  0  2  0  0  3  0  0  0  0  0  0
  191.8520  173.7150  140.8480 C   0  0  0  0  0  3  0  0  0  0  0  0
  192.6130  172.8970  140.1060 C   0  0  0  0  0  0  0  0  0  0  0  0
  190.6440  171.7840  141.8160 C   0  0  0  0  0  0  0  0  0  0  0  0
  191.5100  170.9460  141.0470 N   0  0  0  0  0  2  0  0  0  0  0  0
  192.1970  171.4720  139.8720 C   0  0  0  0  0  2  0  0  0  0  0  0
  193.8640  173.4150  139.4870 C   0  0  0  0  0  1  0  0  0  0  0  0
  189.9530  171.2760  142.7380 O   0  0  0  0  0  0  0  0  0  0  0  0
  190.5460  173.2570  141.4660 C   0  0  1  0  0  3  0  0  0  0  0  0
  195.5780  176.1840  144.1470 O   0  0  0  0  0  1  0  0  0  0  0  0
  194.6740  176.9760  144.8550 C   0  0  0  0  0  2  0  0  0  0  0  0
  192.5180  175.9540  147.2820 C   0  0  0  0  0  2  0  0  0  0  0  0
  191.2580  175.2780  147.8210 C   0  0  0  0  0  2  0  0  0  0  0  0
  188.6500  177.3530  146.5400 C   0  0  0  0  0  3  0  0  0  0  0  0
  188.9340  175.1650  146.7940 C   0  0  0  0  0  3  0  0  0  0  0  0
  189.8300  177.1650  147.0800 O   0  0  0  0  0  0  0  0  0  0  0  0
  188.0440  176.1230  146.3400 C   0  0  0  0  0  3  0  0  0  0  0  0
  190.0190  175.8810  147.2470 C   0  0  0  0  0  0  0  0  0  0  0  0
  1 14  2  0  0  0  0
  2  6  1  0  0  0  0
  3  2  1  0  0  0  0
  3 11  1  0  0  0  0
  4 26  1  1  0  0  0
  5 10  2  0  0  0  0
  6  8  2  0  0  0  0
  7  5  1  6  0  0  0
  8  7  1  0  0  0  0
  9 13  1  1  0  0  0
  9 15  1  0  0  0  0
 10  4  1  0  0  0  0
 12 11  1  1  0  0  0
 12  9  1  0  0  0  0
 12  8  1  0  0  0  0
 14  4  1  0  0  0  0
 15  7  1  0  0  0  0
 15  1  1  1  0  0  0
 17 16  2  0  0  0  0
 18 22  2  0  0  0  0
 19 18  1  0  0  0  0
 20 17  1  0  0  0  0
 20 19  1  0  0  0  0
 21 17  1  0  0  0  0
 23 16  1  1  0  0  0
 23 18  1  0  0  0  0
 23  9  1  0  0  0  0
 24 25  1  0  0  0  0
 25 10  1  0  0  0  0
 26 27  1  0  0  0  0
 28 30  1  0  0  0  0
 29 32  2  0  0  0  0
 30 32  1  0  0  0  0
 31 28  2  0  0  0  0
 31 29  1  0  0  0  0
 32 27  1  0  0  0  0
M  END
>  <MODEL>
5

>  <REMARK>
 VINA RESULT:      -8.0      3.050      6.126
  Name = 
  5 active torsions:
  status: ('A' for Active; 'I' for Inactive)
    1  A    between atoms: C_8  and  C_23
    2  A    between atoms: C_12  and  C_21
    3  A    between atoms: C_16  and  C_32
    4  A    between atoms: C_19  and  C_23
    5  A    between atoms: C_19  and  C_24
                            x       y       z     vdW  Elec       q    Type
                         _______ _______ _______ _____ _____    ______ ____

>  <TORSDO>
F 5

$$$$
=
 OpenBabel11052421283D

 32 36  0  0  1  0  0  0  0  0999 V2000
  189.9570  173.3770  144.8830 C   0  0  0  0  0  3  0  0  0  0  0  0
  194.7170  177.1280  144.9940 C   0  0  0  0  0  2  0  0  0  0  0  0
  194.4130  177.1210  146.5060 C   0  0  0  0  0  2  0  0  0  0  0  0
  190.8100  172.2150  142.7480 C   0  0  2  0  0  3  0  0  0  0  0  0
  191.8900  174.4840  142.6160 C   0  0  0  0  0  3  0  0  0  0  0  0
  194.0570  175.9780  144.2890 C   0  0  0  0  0  3  0  0  0  0  0  0
  192.0550  174.5140  144.0990 C   0  0  1  0  0  3  0  0  0  0  0  0
  192.7830  175.7020  144.5850 C   0  0  0  0  0  0  0  0  0  0  0  0
  190.8050  175.5760  145.9590 C   0  0  2  0  0  0  0  0  0  0  0  0
  191.2730  173.4570  142.0110 C   0  0  0  0  0  0  0  0  0  0  0  0
  193.0320  176.5440  146.8880 C   0  0  0  0  0  2  0  0  0  0  0  0
  192.0760  176.4160  145.6880 C   0  0  1  0  0  3  0  0  0  0  0  0
  190.9560  174.7790  147.1030 O   0  0  0  0  0  1  0  0  0  0  0  0
  189.9860  172.3490  144.0160 C   0  0  0  0  0  3  0  0  0  0  0  0
  190.6810  174.6830  144.7020 C   0  0  2  0  0  3  0  0  0  0  0  0
  189.1220  177.0730  144.7690 C   0  0  0  0  0  3  0  0  0  0  0  0
  187.8980  177.5900  144.5890 C   0  0  0  0  0  0  0  0  0  0  0  0
  188.3690  175.8840  146.8050 C   0  0  0  0  0  0  0  0  0  0  0  0
  187.0660  176.4160  146.5490 N   0  0  0  0  0  2  0  0  0  0  0  0
  186.9020  177.6030  145.7150 C   0  0  0  0  0  2  0  0  0  0  0  0
  187.5340  178.1820  143.2730 C   0  0  0  0  0  1  0  0  0  0  0  0
  188.5000  174.9500  147.6380 O   0  0  0  0  0  0  0  0  0  0  0  0
  189.5640  176.4970  146.0990 C   0  0  1  0  0  3  0  0  0  0  0  0
  189.7640  173.7850  140.2140 O   0  0  0  0  0  1  0  0  0  0  0  0
  191.0930  173.4990  140.5290 C   0  0  0  0  0  2  0  0  0  0  0  0
  191.8730  171.1160  142.8300 C   0  0  0  0  0  2  0  0  0  0  0  0
  192.4250  170.8920  144.2370 C   0  0  0  0  0  2  0  0  0  0  0  0
  195.5410  172.6200  144.0130 C   0  0  0  0  0  3  0  0  0  0  0  0
  194.1910  172.0280  145.6730 C   0  0  0  0  0  3  0  0  0  0  0  0
  194.5190  171.9880  143.4880 O   0  0  0  0  0  0  0  0  0  0  0  0
  195.3830  172.6710  145.3880 C   0  0  0  0  0  3  0  0  0  0  0  0
  193.7100  171.6220  144.4490 C   0  0  0  0  0  0  0  0  0  0  0  0
  2  3  1  0  0  0  0
  3 11  1  0  0  0  0
  4 26  1  1  0  0  0
  4 14  1  0  0  0  0
  6  8  2  0  0  0  0
  6  2  1  0  0  0  0
  7  5  1  6  0  0  0
  7  8  1  0  0  0  0
  7 15  1  0  0  0  0
  8 12  1  0  0  0  0
  9 23  1  0  0  0  0
  9 13  1  1  0  0  0
 10  5  2  0  0  0  0
 10  4  1  0  0  0  0
 12  9  1  0  0  0  0
 12 11  1  1  0  0  0
 14  1  2  0  0  0  0
 15  1  1  1  0  0  0
 15  9  1  0  0  0  0
 17 16  2  0  0  0  0
 17 20  1  0  0  0  0
 18 22  2  0  0  0  0
 19 18  1  0  0  0  0
 20 19  1  0  0  0  0
 21 17  1  0  0  0  0
 23 16  1  6  0  0  0
 23 18  1  0  0  0  0
 24 25  1  0  0  0  0
 25 10  1  0  0  0  0
 26 27  1  0  0  0  0
 27 32  1  0  0  0  0
 28 31  2  0  0  0  0
 30 28  1  0  0  0  0
 30 32  1  0  0  0  0
 31 29  1  0  0  0  0
 32 29  2  0  0  0  0
M  END
>  <MODEL>
6

>  <REMARK>
 VINA RESULT:      -8.0      2.586      5.493
  Name = 
  5 active torsions:
  status: ('A' for Active; 'I' for Inactive)
    1  A    between atoms: C_8  and  C_23
    2  A    between atoms: C_12  and  C_21
    3  A    between atoms: C_16  and  C_32
    4  A    between atoms: C_19  and  C_23
    5  A    between atoms: C_19  and  C_24
                            x       y       z     vdW  Elec       q    Type
                         _______ _______ _______ _____ _____    ______ ____

>  <TORSDO>
F 5

$$$$
=
 OpenBabel11052421283D

 32 36  0  0  1  0  0  0  0  0999 V2000
  191.2890  177.6590  143.5450 C   0  0  0  0  0  3  0  0  0  0  0  0
  191.7900  171.6400  144.0710 C   0  0  0  0  0  2  0  0  0  0  0  0
  193.0220  172.0330  144.9100 C   0  0  0  0  0  2  0  0  0  0  0  0
  188.7380  177.5060  143.2150 C   0  0  2  0  0  3  0  0  0  0  0  0
  189.5330  175.2410  142.4620 C   0  0  0  0  0  3  0  0  0  0  0  0
  190.8520  172.7980  143.8860 C   0  0  0  0  0  3  0  0  0  0  0  0
  190.5980  175.2440  143.5080 C   0  0  1  0  0  3  0  0  0  0  0  0
  191.3700  173.9870  143.5640 C   0  0  0  0  0  0  0  0  0  0  0  0
  193.0280  175.7380  143.5030 C   0  0  2  0  0  0  0  0  0  0  0  0
  188.7230  176.2980  142.2980 C   0  0  0  0  0  0  0  0  0  0  0  0
  193.4740  173.5020  144.7530 C   0  0  0  0  0  2  0  0  0  0  0  0
  192.8460  174.2020  143.5340 C   0  0  1  0  0  3  0  0  0  0  0  0
  193.3790  176.2340  144.7670 O   0  0  0  0  0  1  0  0  0  0  0  0
  190.0530  178.1900  143.5470 C   0  0  0  0  0  3  0  0  0  0  0  0
  191.6310  176.2640  143.0960 C   0  0  2  0  0  3  0  0  0  0  0  0
  195.5010  176.0830  143.0040 C   0  0  0  0  0  3  0  0  0  0  0  0
  196.5790  176.0370  142.2080 C   0  0  0  0  0  0  0  0  0  0  0  0
  194.0370  175.3770  141.1380 C   0  0  0  0  0  0  0  0  0  0  0  0
  195.2180  175.2920  140.3360 N   0  0  0  0  0  2  0  0  0  0  0  0
  196.4230  176.0250  140.7130 C   0  0  0  0  0  2  0  0  0  0  0  0
  197.9400  176.0280  142.8090 C   0  0  0  0  0  1  0  0  0  0  0  0
  192.9710  174.8530  140.7220 O   0  0  0  0  0  0  0  0  0  0  0  0
  194.0930  176.1390  142.4480 C   0  0  1  0  0  3  0  0  0  0  0  0
  187.1880  177.5390  140.9890 O   0  0  0  0  0  1  0  0  0  0  0  0
  187.7050  176.2620  141.2070 C   0  0  0  0  0  2  0  0  0  0  0  0
  187.8030  177.3770  144.4210 C   0  0  0  0  0  2  0  0  0  0  0  0
  188.4510  177.7560  145.7510 C   0  0  0  0  0  2  0  0  0  0  0  0
  189.3110  174.5980  147.1780 C   0  0  0  0  0  3  0  0  0  0  0  0
  190.3530  176.5420  146.9270 C   0  0  0  0  0  3  0  0  0  0  0  0
  188.4850  175.4160  146.5720 O   0  0  0  0  0  0  0  0  0  0  0  0
  190.5030  175.2590  147.4250 C   0  0  0  0  0  3  0  0  0  0  0  0
  189.0740  176.5740  146.4180 C   0  0  0  0  0  0  0  0  0  0  0  0
  1 14  2  0  0  0  0
  2  3  1  0  0  0  0
  4 14  1  0  0  0  0
  4 26  1  1  0  0  0
  6  2  1  0  0  0  0
  7  5  1  6  0  0  0
  7  8  1  0  0  0  0
  8  6  2  0  0  0  0
  9 12  1  0  0  0  0
  9 13  1  1  0  0  0
 10  5  2  0  0  0  0
 10  4  1  0  0  0  0
 11  3  1  0  0  0  0
 12  8  1  0  0  0  0
 12 11  1  1  0  0  0
 15  9  1  0  0  0  0
 15  7  1  0  0  0  0
 15  1  1  1  0  0  0
 17 21  1  0  0  0  0
 17 16  2  0  0  0  0
 18 23  1  0  0  0  0
 19 20  1  0  0  0  0
 19 18  1  0  0  0  0
 20 17  1  0  0  0  0
 22 18  2  0  0  0  0
 23 16  1  1  0  0  0
 23  9  1  0  0  0  0
 24 25  1  0  0  0  0
 25 10  1  0  0  0  0
 26 27  1  0  0  0  0
 27 32  1  0  0  0  0
 28 31  2  0  0  0  0
 29 31  1  0  0  0  0
 30 28  1  0  0  0  0
 32 30  1  0  0  0  0
 32 29  2  0  0  0  0
M  END
>  <MODEL>
7

>  <REMARK>
 VINA RESULT:      -7.8      3.257      6.853
  Name = 
  5 active torsions:
  status: ('A' for Active; 'I' for Inactive)
    1  A    between atoms: C_8  and  C_23
    2  A    between atoms: C_12  and  C_21
    3  A    between atoms: C_16  and  C_32
    4  A    between atoms: C_19  and  C_23
    5  A    between atoms: C_19  and  C_24
                            x       y       z     vdW  Elec       q    Type
                         _______ _______ _______ _____ _____    ______ ____

>  <TORSDO>
F 5

$$$$
=
 OpenBabel11052421283D

 32 36  0  0  1  0  0  0  0  0999 V2000
  191.0600  177.2070  144.7680 C   0  0  0  0  0  3  0  0  0  0  0  0
  192.3020  171.2890  144.3400 C   0  0  0  0  0  2  0  0  0  0  0  0
  193.5590  171.7170  145.1230 C   0  0  0  0  0  2  0  0  0  0  0  0
  188.5240  176.7750  144.6350 C   0  0  2  0  0  3  0  0  0  0  0  0
  189.4940  174.7570  143.4860 C   0  0  0  0  0  3  0  0  0  0  0  0
  191.2220  172.3310  144.4110 C   0  0  0  0  0  3  0  0  0  0  0  0
  190.6510  174.7520  144.4280 C   0  0  1  0  0  3  0  0  0  0  0  0
  191.5650  173.6100  144.2290 C   0  0  0  0  0  0  0  0  0  0  0  0
  192.9950  175.5510  144.2930 C   0  0  2  0  0  0  0  0  0  0  0  0
  188.5550  175.7140  143.5520 C   0  0  0  0  0  0  0  0  0  0  0  0
  193.8210  173.2400  145.1510 C   0  0  0  0  0  2  0  0  0  0  0  0
  192.9950  174.0150  144.1070 C   0  0  1  0  0  3  0  0  0  0  0  0
  193.4140  175.9080  145.5830 O   0  0  0  0  0  1  0  0  0  0  0  0
  189.7780  177.5690  144.9540 C   0  0  0  0  0  3  0  0  0  0  0  0
  191.5130  175.9440  144.0880 C   0  0  2  0  0  3  0  0  0  0  0  0
  195.3570  176.2220  143.6170 C   0  0  0  0  0  3  0  0  0  0  0  0
  196.3360  176.4190  142.7210 C   0  0  0  0  0  0  0  0  0  0  0  0
  193.7480  175.6940  141.8120 C   0  0  0  0  0  0  0  0  0  0  0  0
  194.8310  175.8640  140.8930 N   0  0  0  0  0  2  0  0  0  0  0  0
  196.0080  176.6420  141.2710 C   0  0  0  0  0  2  0  0  0  0  0  0
  197.7540  176.4460  143.1710 C   0  0  0  0  0  1  0  0  0  0  0  0
  192.6870  175.1430  141.4180 O   0  0  0  0  0  0  0  0  0  0  0  0
  193.8940  176.2280  143.2240 C   0  0  1  0  0  3  0  0  0  0  0  0
  187.8310  176.3600  141.3910 O   0  0  0  0  0  1  0  0  0  0  0  0
  187.4420  175.6980  142.5560 C   0  0  0  0  0  2  0  0  0  0  0  0
  187.7370  176.3600  145.8820 C   0  0  0  0  0  2  0  0  0  0  0  0
  187.2660  177.5360  146.7360 C   0  0  0  0  0  2  0  0  0  0  0  0
  185.0850  179.4500  144.6580 C   0  0  0  0  0  3  0  0  0  0  0  0
  184.8610  178.3490  146.5720 C   0  0  0  0  0  3  0  0  0  0  0  0
  186.2500  178.9280  144.9540 O   0  0  0  0  0  0  0  0  0  0  0  0
  184.1740  179.1150  145.6470 C   0  0  0  0  0  3  0  0  0  0  0  0
  186.1470  178.2780  146.0850 C   0  0  0  0  0  0  0  0  0  0  0  0
  1 14  2  0  0  0  0
  2  6  1  0  0  0  0
  2  3  1  0  0  0  0
  3 11  1  0  0  0  0
  4 14  1  0  0  0  0
  4 26  1  1  0  0  0
  5 10  2  0  0  0  0
  7  5  1  6  0  0  0
  8  6  2  0  0  0  0
  8  7  1  0  0  0  0
  9 13  1  1  0  0  0
 10  4  1  0  0  0  0
 12  8  1  0  0  0  0
 12  9  1  0  0  0  0
 12 11  1  1  0  0  0
 15  9  1  0  0  0  0
 15  7  1  0  0  0  0
 15  1  1  1  0  0  0
 17 21  1  0  0  0  0
 17 16  2  0  0  0  0
 18 23  1  0  0  0  0
 19 20  1  0  0  0  0
 19 18  1  0  0  0  0
 20 17  1  0  0  0  0
 22 18  2  0  0  0  0
 23 16  1  1  0  0  0
 23  9  1  0  0  0  0
 24 25  1  0  0  0  0
 25 10  1  0  0  0  0
 26 27  1  0  0  0  0
 28 30  1  0  0  0  0
 28 31  2  0  0  0  0
 30 32  1  0  0  0  0
 31 29  1  0  0  0  0
 32 29  2  0  0  0  0
 32 27  1  0  0  0  0
M  END
>  <MODEL>
8

>  <REMARK>
 VINA RESULT:      -7.8      3.169      7.587
  Name = 
  5 active torsions:
  status: ('A' for Active; 'I' for Inactive)
    1  A    between atoms: C_8  and  C_23
    2  A    between atoms: C_12  and  C_21
    3  A    between atoms: C_16  and  C_32
    4  A    between atoms: C_19  and  C_23
    5  A    between atoms: C_19  and  C_24
                            x       y       z     vdW  Elec       q    Type
                         _______ _______ _______ _____ _____    ______ ____

>  <TORSDO>
F 5

$$$$
=
 OpenBabel11052421283D

 32 36  0  0  1  0  0  0  0  0999 V2000
  188.9480  175.8850  145.4150 C   0  0  0  0  0  3  0  0  0  0  0  0
  190.1540  171.7470  141.1520 C   0  0  0  0  0  2  0  0  0  0  0  0
  190.3800  170.8550  142.3880 C   0  0  0  0  0  2  0  0  0  0  0  0
  187.3940  177.1940  143.8310 C   0  0  2  0  0  3  0  0  0  0  0  0
  188.9210  175.9830  142.2380 C   0  0  0  0  0  3  0  0  0  0  0  0
  189.3820  172.9890  141.4960 C   0  0  0  0  0  3  0  0  0  0  0  0
  188.9670  174.8020  143.1480 C   0  0  1  0  0  3  0  0  0  0  0  0
  189.7290  173.6640  142.5960 C   0  0  0  0  0  0  0  0  0  0  0  0
  190.5940  173.9720  144.8260 C   0  0  2  0  0  0  0  0  0  0  0  0
  188.2460  177.0920  142.5800 C   0  0  0  0  0  0  0  0  0  0  0  0
  190.5120  171.6180  143.7250 C   0  0  0  0  0  2  0  0  0  0  0  0
  190.7520  173.1280  143.5390 C   0  0  1  0  0  3  0  0  0  0  0  0
  189.8880  173.2670  145.8130 O   0  0  0  0  0  1  0  0  0  0  0  0
  187.9650  176.7700  145.1730 C   0  0  0  0  0  3  0  0  0  0  0  0
  189.7740  175.1980  144.3610 C   0  0  2  0  0  3  0  0  0  0  0  0
  192.8290  175.0680  144.2910 C   0  0  0  0  0  3  0  0  0  0  0  0
  193.8900  175.8320  144.5910 C   0  0  0  0  0  0  0  0  0  0  0  0
  191.9580  175.2940  146.5970 C   0  0  0  0  0  0  0  0  0  0  0  0
  193.0770  176.1440  146.8610 N   0  0  0  0  0  2  0  0  0  0  0  0
  194.2710  176.0780  146.0240 C   0  0  0  0  0  2  0  0  0  0  0  0
  194.7130  176.4150  143.4960 C   0  0  0  0  0  1  0  0  0  0  0  0
  190.9990  175.2660  147.4110 O   0  0  0  0  0  0  0  0  0  0  0  0
  191.9820  174.4120  145.3620 C   0  0  1  0  0  3  0  0  0  0  0  0
  187.4840  178.0020  140.5300 O   0  0  0  0  0  1  0  0  0  0  0  0
  188.2710  178.2630  141.6530 C   0  0  0  0  0  2  0  0  0  0  0  0
  185.9420  176.7550  143.6250 C   0  0  0  0  0  2  0  0  0  0  0  0
  184.9130  177.8170  144.0070 C   0  0  0  0  0  2  0  0  0  0  0  0
  185.5660  179.4160  147.1320 C   0  0  0  0  0  3  0  0  0  0  0  0
  184.5830  177.5240  146.5130 C   0  0  0  0  0  3  0  0  0  0  0  0
  185.6230  179.3480  145.8240 O   0  0  0  0  0  0  0  0  0  0  0  0
  184.9210  178.2900  147.6160 C   0  0  0  0  0  3  0  0  0  0  0  0
  185.0560  178.2360  145.4340 C   0  0  0  0  0  0  0  0  0  0  0  0
  2  6  1  0  0  0  0
  2  3  1  0  0  0  0
  3 11  1  0  0  0  0
  4 26  1  6  0  0  0
  4 14  1  0  0  0  0
  5 10  2  0  0  0  0
  6  8  2  0  0  0  0
  7  5  1  6  0  0  0
  7 15  1  0  0  0  0
  8  7  1  0  0  0  0
  8 12  1  0  0  0  0
  9 23  1  0  0  0  0
  9 13  1  1  0  0  0
 10  4  1  0  0  0  0
 12 11  1  1  0  0  0
 12  9  1  0  0  0  0
 14  1  2  0  0  0  0
 15  9  1  0  0  0  0
 15  1  1  1  0  0  0
 16 17  2  0  0  0  0
 17 20  1  0  0  0  0
 18 19  1  0  0  0  0
 18 22  2  0  0  0  0
 20 19  1  0  0  0  0
 21 17  1  0  0  0  0
 23 16  1  6  0  0  0
 23 18  1  0  0  0  0
 24 25  1  0  0  0  0
 25 10  1  0  0  0  0
 26 27  1  0  0  0  0
 27 32  1  0  0  0  0
 28 31  2  0  0  0  0
 29 31  1  0  0  0  0
 30 28  1  0  0  0  0
 32 30  1  0  0  0  0
 32 29  2  0  0  0  0
M  END
>  <MODEL>
9

>  <REMARK>
 VINA RESULT:      -7.6      2.614      7.174
  Name = 
  5 active torsions:
  status: ('A' for Active; 'I' for Inactive)
    1  A    between atoms: C_8  and  C_23
    2  A    between atoms: C_12  and  C_21
    3  A    between atoms: C_16  and  C_32
    4  A    between atoms: C_19  and  C_23
    5  A    between atoms: C_19  and  C_24
                            x       y       z     vdW  Elec       q    Type
                         _______ _______ _______ _____ _____    ______ ____

>  <TORSDO>
F 5

$$$$
