=
 OpenBabel11052419533D

 37 43  0  0  1  0  0  0  0  0999 V2000
  191.5360  175.1320  145.2540 C   0  0  0  0  0  0  0  0  0  0  0  0
  188.2310  175.6020  143.1800 C   0  0  0  0  0  2  0  0  0  0  0  0
  193.7940  174.4790  145.9910 C   0  0  2  0  0  3  0  0  0  0  0  0
  190.3190  174.8470  144.4460 C   0  0  1  0  0  3  0  0  0  0  0  0
  192.5970  174.3710  145.0910 C   0  0  0  0  0  0  0  0  0  0  0  0
  189.1930  175.9510  144.2930 C   0  0  2  0  0  3  0  0  0  0  0  0
  193.9400  175.9430  146.4990 C   0  0  0  0  0  3  0  0  0  0  0  0
  192.2330  173.0450  144.0540 S   0  0  0  0  0  0  0  0  0  0  0  0
  191.8190  171.8430  144.8450 O   0  0  0  0  0  0  0  0  0  0  0  0
  190.5720  176.7570  146.8790 C   0  0  0  0  0  3  0  0  0  0  0  0
  192.8670  176.7630  146.5370 C   0  0  0  0  0  3  0  0  0  0  0  0
  193.3220  172.6890  143.1000 O   0  0  0  0  0  0  0  0  0  0  0  0
  188.9320  176.0180  141.9130 C   0  0  0  0  0  2  0  0  0  0  0  0
  191.5570  176.2810  146.1820 C   0  0  0  0  0  0  0  0  0  0  0  0
  190.7840  173.8370  143.3450 C   0  0  2  0  0  3  0  0  0  0  0  0
  188.4430  176.0110  145.6070 C   0  0  1  0  0  3  0  0  0  0  0  0
  189.6810  174.6630  141.5070 C   0  0  2  0  0  3  0  0  0  0  0  0
  191.0050  174.5090  141.9910 N   0  0  0  0  0  0  0  0  0  0  0  0
  189.1940  176.3500  146.7690 O   0  0  0  0  0  0  0  0  0  0  0  0
  185.9610  176.4750  146.2610 C   0  0  0  0  0  3  0  0  0  0  0  0
  187.1510  176.8150  145.5800 C   0  0  0  0  0  0  0  0  0  0  0  0
  187.2160  177.9420  144.8140 C   0  0  0  0  0  3  0  0  0  0  0  0
  186.1270  179.9700  144.0150 F   0  0  0  0  0  0  0  0  0  0  0  0
  184.9490  178.5690  145.4560 C   0  0  0  0  0  3  0  0  0  0  0  0
  186.1220  178.8100  144.7180 C   0  0  0  0  0  0  0  0  0  0  0  0
  184.8780  177.3810  146.2020 C   0  0  0  0  0  3  0  0  0  0  0  0
  188.2820  173.0460  140.0930 C   0  0  0  0  0  2  0  0  0  0  0  0
  189.2720  174.1700  140.1220 C   0  0  1  0  0  3  0  0  0  0  0  0
  187.9390  174.3780  139.8690 O   0  0  0  0  0  0  0  0  0  0  0  0
  191.6180  173.5880  141.1450 O   0  0  0  0  0  0  0  0  0  0  0  0
  192.6500  174.1440  140.3850 C   0  0  1  0  0  3  0  0  0  0  0  0
  193.9660  174.8490  138.5000 C   0  0  0  0  0  1  0  0  0  0  0  0
  193.4110  173.0050  139.6330 C   0  0  0  0  0  2  0  0  0  0  0  0
  192.7400  174.1110  138.8890 C   0  0  1  0  0  3  0  0  0  0  0  0
  195.1030  173.9770  145.3870 C   0  0  0  0  0  2  0  0  0  0  0  0
  195.7310  174.9300  144.4770 C   0  0  0  0  0  0  0  0  0  0  0  0
  196.2090  175.7290  143.7250 C   0  0  0  0  0  3  0  0  0  0  0  0
  1 14  1  0  0  0  0
  3 35  1  6  0  0  0
  3  7  1  0  0  0  0
  4  1  1  6  0  0  0
  5  1  2  0  0  0  0
  5  3  1  0  0  0  0
  6  2  1  6  0  0  0
  6  4  1  0  0  0  0
  6 16  1  0  0  0  0
  7 11  2  0  0  0  0
  8  9  2  0  0  0  0
  8  5  1  0  0  0  0
 12  8  2  0  0  0  0
 13  2  1  0  0  0  0
 14 11  1  0  0  0  0
 14 10  2  0  0  0  0
 15 18  1  6  0  0  0
 15  8  1  0  0  0  0
 15  4  1  0  0  0  0
 16 21  1  6  0  0  0
 16 19  1  0  0  0  0
 17 13  1  6  0  0  0
 17 18  1  0  0  0  0
 19 10  1  0  0  0  0
 21 20  2  0  0  0  0
 22 21  1  0  0  0  0
 23 25  1  0  0  0  0
 24 26  2  0  0  0  0
 25 22  2  0  0  0  0
 25 24  1  0  0  0  0
 26 20  1  0  0  0  0
 28 27  1  1  0  0  0
 28 17  1  0  0  0  0
 29 27  1  0  0  0  0
 29 28  1  0  0  0  0
 30 18  1  0  0  0  0
 31 30  1  6  0  0  0
 33 31  1  0  0  0  0
 34 32  1  1  0  0  0
 34 33  1  0  0  0  0
 34 31  1  0  0  0  0
 36 35  1  0  0  0  0
 37 36  3  0  0  0  0
M  END
>  <MODEL>
1

>  <REMARK>
 VINA RESULT:      -7.6      0.000      0.000
  Name = 
  6 active torsions:
  status: ('A' for Active; 'I' for Inactive)
    1  A    between atoms: O_1  and  C_5
    2  A    between atoms: O_1  and  N_36
    3  A    between atoms: C_3  and  C_30
    4  A    between atoms: C_6  and  C_31
    5  A    between atoms: C_9  and  C_30
    6  A    between atoms: C_26  and  C_33
                            x       y       z     vdW  Elec       q    Type
                         _______ _______ _______ _____ _____    ______ ____

>  <TORSDO>
F 6

$$$$
=
 OpenBabel11052419533D

 37 43  0  0  1  0  0  0  0  0999 V2000
  191.1980  173.5860  142.3820 C   0  0  0  0  0  0  0  0  0  0  0  0
  191.1260  176.2060  145.3110 C   0  0  0  0  0  2  0  0  0  0  0  0
  191.9270  171.9910  140.6520 C   0  0  2  0  0  3  0  0  0  0  0  0
  191.4700  174.7930  143.2090 C   0  0  1  0  0  3  0  0  0  0  0  0
  192.1690  173.0910  141.6450 C   0  0  0  0  0  0  0  0  0  0  0  0
  190.4990  175.1720  144.4030 C   0  0  2  0  0  3  0  0  0  0  0  0
  190.7670  171.0800  141.1490 C   0  0  0  0  0  3  0  0  0  0  0  0
  193.5420  174.1300  141.6810 S   0  0  0  0  0  0  0  0  0  0  0  0
  193.5170  175.0930  140.5340 O   0  0  0  0  0  0  0  0  0  0  0  0
  188.7170  173.4980  142.5960 C   0  0  0  0  0  3  0  0  0  0  0  0
  189.8460  171.5570  142.0150 C   0  0  0  0  0  3  0  0  0  0  0  0
  194.8530  173.4230  141.7370 O   0  0  0  0  0  0  0  0  0  0  0  0
  192.0590  175.4290  146.2030 C   0  0  0  0  0  2  0  0  0  0  0  0
  189.8740  172.9340  142.4360 C   0  0  0  0  0  0  0  0  0  0  0  0
  193.0250  174.9640  143.1870 C   0  0  2  0  0  3  0  0  0  0  0  0
  189.2360  175.7370  143.7900 C   0  0  1  0  0  3  0  0  0  0  0  0
  193.4290  175.5200  145.3790 C   0  0  2  0  0  3  0  0  0  0  0  0
  193.6860  174.4620  144.4700 N   0  0  0  0  0  0  0  0  0  0  0  0
  188.4990  174.8860  142.9170 O   0  0  0  0  0  0  0  0  0  0  0  0
  188.0100  175.9650  146.0820 C   0  0  0  0  0  3  0  0  0  0  0  0
  188.2860  176.4110  144.7700 C   0  0  0  0  0  0  0  0  0  0  0  0
  187.6810  177.5300  144.2740 C   0  0  0  0  0  3  0  0  0  0  0  0
  186.2070  179.4320  144.6590 F   0  0  0  0  0  0  0  0  0  0  0  0
  186.5790  177.9400  146.4100 C   0  0  0  0  0  3  0  0  0  0  0  0
  186.8080  178.2850  145.0650 C   0  0  0  0  0  0  0  0  0  0  0  0
  187.1690  176.7600  146.8920 C   0  0  0  0  0  3  0  0  0  0  0  0
  194.8340  177.6050  145.8770 C   0  0  0  0  0  2  0  0  0  0  0  0
  194.5480  176.1690  146.1910 C   0  0  1  0  0  3  0  0  0  0  0  0
  194.0890  177.1930  146.9810 O   0  0  0  0  0  0  0  0  0  0  0  0
  195.0650  174.4530  144.2720 O   0  0  0  0  0  0  0  0  0  0  0  0
  195.6680  173.2580  144.6730 C   0  0  1  0  0  3  0  0  0  0  0  0
  196.8830  171.6470  145.9790 C   0  0  0  0  0  1  0  0  0  0  0  0
  197.2190  173.4440  144.6950 C   0  0  0  0  0  2  0  0  0  0  0  0
  196.4660  173.0680  145.9280 C   0  0  1  0  0  3  0  0  0  0  0  0
  193.1580  171.1630  140.2930 C   0  0  0  0  0  2  0  0  0  0  0  0
  193.5750  170.2460  141.3510 C   0  0  0  0  0  0  0  0  0  0  0  0
  193.9490  169.5200  142.2260 C   0  0  0  0  0  3  0  0  0  0  0  0
  1 14  1  0  0  0  0
  2 13  1  0  0  0  0
  3 35  1  1  0  0  0
  3  7  1  0  0  0  0
  3  5  1  0  0  0  0
  4  1  1  1  0  0  0
  4  6  1  0  0  0  0
  5  8  1  0  0  0  0
  5  1  2  0  0  0  0
  6  2  1  1  0  0  0
  7 11  2  0  0  0  0
  8 12  2  0  0  0  0
  8 15  1  0  0  0  0
  9  8  2  0  0  0  0
 10 19  1  0  0  0  0
 11 14  1  0  0  0  0
 14 10  2  0  0  0  0
 15  4  1  0  0  0  0
 15 18  1  1  0  0  0
 16  6  1  0  0  0  0
 16 21  1  1  0  0  0
 17 28  1  0  0  0  0
 17 13  1  1  0  0  0
 18 17  1  0  0  0  0
 19 16  1  0  0  0  0
 20 26  1  0  0  0  0
 21 20  2  0  0  0  0
 22 21  1  0  0  0  0
 22 25  2  0  0  0  0
 23 25  1  0  0  0  0
 24 26  2  0  0  0  0
 25 24  1  0  0  0  0
 27 29  1  0  0  0  0
 28 27  1  6  0  0  0
 28 29  1  0  0  0  0
 30 18  1  0  0  0  0
 31 30  1  1  0  0  0
 31 33  1  0  0  0  0
 31 34  1  0  0  0  0
 33 34  1  0  0  0  0
 34 32  1  6  0  0  0
 35 36  1  0  0  0  0
 36 37  3  0  0  0  0
M  END
>  <MODEL>
2

>  <REMARK>
 VINA RESULT:      -7.5      2.210      5.293
  Name = 
  6 active torsions:
  status: ('A' for Active; 'I' for Inactive)
    1  A    between atoms: O_1  and  C_5
    2  A    between atoms: O_1  and  N_36
    3  A    between atoms: C_3  and  C_30
    4  A    between atoms: C_6  and  C_31
    5  A    between atoms: C_9  and  C_30
    6  A    between atoms: C_26  and  C_33
                            x       y       z     vdW  Elec       q    Type
                         _______ _______ _______ _____ _____    ______ ____

>  <TORSDO>
F 6

$$$$
=
 OpenBabel11052419533D

 37 43  0  0  1  0  0  0  0  0999 V2000
  191.7650  174.5900  143.3340 C   0  0  0  0  0  0  0  0  0  0  0  0
  188.9360  174.3090  140.6200 C   0  0  0  0  0  2  0  0  0  0  0  0
  193.1480  175.3000  145.2450 C   0  0  2  0  0  3  0  0  0  0  0  0
  190.8020  174.9320  142.2520 C   0  0  1  0  0  3  0  0  0  0  0  0
  192.0570  175.5040  144.2340 C   0  0  0  0  0  0  0  0  0  0  0  0
  190.1090  173.7790  141.4140 C   0  0  2  0  0  3  0  0  0  0  0  0
  193.2720  173.7850  145.5850 C   0  0  0  0  0  3  0  0  0  0  0  0
  191.3510  177.0160  143.8080 S   0  0  0  0  0  0  0  0  0  0  0  0
  192.3130  177.8570  143.0260 O   0  0  0  0  0  0  0  0  0  0  0  0
  192.6380  172.4360  142.4350 C   0  0  0  0  0  3  0  0  0  0  0  0
  192.8440  172.8510  144.7080 C   0  0  0  0  0  3  0  0  0  0  0  0
  190.8010  177.7890  144.9580 O   0  0  0  0  0  0  0  0  0  0  0  0
  187.8010  174.3920  141.6080 C   0  0  0  0  0  2  0  0  0  0  0  0
  192.3360  173.2310  143.4150 C   0  0  0  0  0  0  0  0  0  0  0  0
  190.1440  176.2790  142.6980 C   0  0  2  0  0  3  0  0  0  0  0  0
  191.1510  173.2250  140.4660 C   0  0  1  0  0  3  0  0  0  0  0  0
  187.9510  175.8960  142.1330 C   0  0  2  0  0  3  0  0  0  0  0  0
  188.7490  176.0810  143.2900 N   0  0  0  0  0  0  0  0  0  0  0  0
  192.3240  172.6620  141.0470 O   0  0  0  0  0  0  0  0  0  0  0  0
  190.2210  172.6880  138.0890 C   0  0  0  0  0  3  0  0  0  0  0  0
  190.6170  172.2950  139.3870 C   0  0  0  0  0  0  0  0  0  0  0  0
  190.5350  170.9880  139.7720 C   0  0  0  0  0  3  0  0  0  0  0  0
  190.0370  168.6790  139.1760 F   0  0  0  0  0  0  0  0  0  0  0  0
  189.7910  170.3270  137.5480 C   0  0  0  0  0  3  0  0  0  0  0  0
  190.1000  170.0020  138.8810 C   0  0  0  0  0  0  0  0  0  0  0  0
  189.8320  171.6810  137.1780 C   0  0  0  0  0  3  0  0  0  0  0  0
  186.8810  178.0180  141.1690 C   0  0  0  0  0  2  0  0  0  0  0  0
  186.6880  176.7200  141.8910 C   0  0  1  0  0  3  0  0  0  0  0  0
  186.4060  176.8590  140.5560 O   0  0  0  0  0  0  0  0  0  0  0  0
  188.3410  177.2880  143.8500 O   0  0  0  0  0  0  0  0  0  0  0  0
  187.8140  177.1460  145.1360 C   0  0  1  0  0  3  0  0  0  0  0  0
  186.2840  176.6830  146.9330 C   0  0  0  0  0  1  0  0  0  0  0  0
  186.6960  178.2150  145.3590 C   0  0  0  0  0  2  0  0  0  0  0  0
  186.4020  176.7550  145.4570 C   0  0  1  0  0  3  0  0  0  0  0  0
  193.0160  176.1360  146.5160 C   0  0  0  0  0  2  0  0  0  0  0  0
  191.9100  175.7240  147.3760 C   0  0  0  0  0  0  0  0  0  0  0  0
  190.9810  175.3800  148.0470 C   0  0  0  0  0  3  0  0  0  0  0  0
  1 14  1  0  0  0  0
  1  5  2  0  0  0  0
  2 13  1  0  0  0  0
  3  7  1  0  0  0  0
  3 35  1  1  0  0  0
  4 15  1  0  0  0  0
  4  1  1  1  0  0  0
  5  3  1  0  0  0  0
  6  2  1  6  0  0  0
  6  4  1  0  0  0  0
  8  5  1  0  0  0  0
  8 12  2  0  0  0  0
  9  8  2  0  0  0  0
 10 14  2  0  0  0  0
 11  7  2  0  0  0  0
 14 11  1  0  0  0  0
 15 18  1  1  0  0  0
 15  8  1  0  0  0  0
 16 21  1  1  0  0  0
 16 19  1  0  0  0  0
 16  6  1  0  0  0  0
 17 13  1  1  0  0  0
 17 18  1  0  0  0  0
 18 30  1  0  0  0  0
 19 10  1  0  0  0  0
 20 21  1  0  0  0  0
 21 22  2  0  0  0  0
 24 25  2  0  0  0  0
 25 23  1  0  0  0  0
 25 22  1  0  0  0  0
 26 24  1  0  0  0  0
 26 20  2  0  0  0  0
 28 27  1  6  0  0  0
 28 17  1  0  0  0  0
 29 27  1  0  0  0  0
 29 28  1  0  0  0  0
 31 30  1  6  0  0  0
 31 33  1  0  0  0  0
 31 34  1  0  0  0  0
 33 34  1  0  0  0  0
 34 32  1  1  0  0  0
 35 36  1  0  0  0  0
 36 37  3  0  0  0  0
M  END
>  <MODEL>
3

>  <REMARK>
 VINA RESULT:      -7.3      3.120      6.828
  Name = 
  6 active torsions:
  status: ('A' for Active; 'I' for Inactive)
    1  A    between atoms: O_1  and  C_5
    2  A    between atoms: O_1  and  N_36
    3  A    between atoms: C_3  and  C_30
    4  A    between atoms: C_6  and  C_31
    5  A    between atoms: C_9  and  C_30
    6  A    between atoms: C_26  and  C_33
                            x       y       z     vdW  Elec       q    Type
                         _______ _______ _______ _____ _____    ______ ____

>  <TORSDO>
F 6

$$$$
=
 OpenBabel11052419533D

 37 43  0  0  1  0  0  0  0  0999 V2000
  192.0440  174.8950  145.1740 C   0  0  0  0  0  0  0  0  0  0  0  0
  188.6130  175.3200  143.3040 C   0  0  0  0  0  2  0  0  0  0  0  0
  194.3600  174.2960  145.7620 C   0  0  2  0  0  3  0  0  0  0  0  0
  190.7930  174.5960  144.4260 C   0  0  1  0  0  3  0  0  0  0  0  0
  193.1180  174.1770  144.9270 C   0  0  0  0  0  0  0  0  0  0  0  0
  189.6250  175.6660  144.3730 C   0  0  2  0  0  3  0  0  0  0  0  0
  194.4870  175.7480  146.3120 C   0  0  0  0  0  3  0  0  0  0  0  0
  192.7390  172.8740  143.8670 S   0  0  0  0  0  0  0  0  0  0  0  0
  192.4100  171.6330  144.6380 O   0  0  0  0  0  0  0  0  0  0  0  0
  191.1220  176.4330  146.9060 C   0  0  0  0  0  3  0  0  0  0  0  0
  193.3920  176.5290  146.4370 C   0  0  0  0  0  3  0  0  0  0  0  0
  193.7830  172.5860  142.8420 O   0  0  0  0  0  0  0  0  0  0  0  0
  189.2280  175.8010  142.0150 C   0  0  0  0  0  2  0  0  0  0  0  0
  192.0810  176.0140  146.1380 C   0  0  0  0  0  0  0  0  0  0  0  0
  191.2280  173.6390  143.2670 C   0  0  2  0  0  3  0  0  0  0  0  0
  188.9500  175.6570  145.7280 C   0  0  1  0  0  3  0  0  0  0  0  0
  189.9960  174.4860  141.5220 C   0  0  2  0  0  3  0  0  0  0  0  0
  191.3500  174.3620  141.9260 N   0  0  0  0  0  0  0  0  0  0  0  0
  189.7540  175.9830  146.8580 O   0  0  0  0  0  0  0  0  0  0  0  0
  186.8340  176.7790  144.6940 C   0  0  0  0  0  3  0  0  0  0  0  0
  187.6330  176.4170  145.8010 C   0  0  0  0  0  0  0  0  0  0  0  0
  187.2540  176.7480  147.0700 C   0  0  0  0  0  3  0  0  0  0  0  0
  185.5830  177.7360  148.5420 F   0  0  0  0  0  0  0  0  0  0  0  0
  185.1690  177.7080  146.2500 C   0  0  0  0  0  3  0  0  0  0  0  0
  186.0480  177.4150  147.3090 C   0  0  0  0  0  0  0  0  0  0  0  0
  185.5920  177.4050  144.9450 C   0  0  0  0  0  3  0  0  0  0  0  0
  188.5080  172.9250  140.1360 C   0  0  0  0  0  2  0  0  0  0  0  0
  189.5260  174.0250  140.1450 C   0  0  1  0  0  3  0  0  0  0  0  0
  188.1900  174.2690  139.9450 O   0  0  0  0  0  0  0  0  0  0  0  0
  191.9430  173.4900  141.0170 O   0  0  0  0  0  0  0  0  0  0  0  0
  192.9150  174.1050  140.2220 C   0  0  1  0  0  3  0  0  0  0  0  0
  194.0950  174.9270  138.2960 C   0  0  0  0  0  1  0  0  0  0  0  0
  193.6490  173.0200  139.3710 C   0  0  0  0  0  2  0  0  0  0  0  0
  192.9110  174.1440  138.7230 C   0  0  1  0  0  3  0  0  0  0  0  0
  195.6490  173.8590  145.0700 C   0  0  0  0  0  2  0  0  0  0  0  0
  196.2540  172.6670  145.6580 C   0  0  0  0  0  0  0  0  0  0  0  0
  196.7870  171.7090  146.1370 C   0  0  0  0  0  3  0  0  0  0  0  0
  1 14  1  0  0  0  0
  3 35  1  6  0  0  0
  3  7  1  0  0  0  0
  4  1  1  6  0  0  0
  5  1  2  0  0  0  0
  5  3  1  0  0  0  0
  6  2  1  6  0  0  0
  6  4  1  0  0  0  0
  6 16  1  0  0  0  0
  7 11  2  0  0  0  0
  8  9  2  0  0  0  0
  8  5  1  0  0  0  0
 12  8  2  0  0  0  0
 13  2  1  0  0  0  0
 14 11  1  0  0  0  0
 14 10  2  0  0  0  0
 15 18  1  6  0  0  0
 15  8  1  0  0  0  0
 15  4  1  0  0  0  0
 16 21  1  6  0  0  0
 16 19  1  0  0  0  0
 17 18  1  0  0  0  0
 17 13  1  6  0  0  0
 19 10  1  0  0  0  0
 20 26  2  0  0  0  0
 20 21  1  0  0  0  0
 21 22  2  0  0  0  0
 22 25  1  0  0  0  0
 24 25  2  0  0  0  0
 25 23  1  0  0  0  0
 26 24  1  0  0  0  0
 28 27  1  1  0  0  0
 28 17  1  0  0  0  0
 29 27  1  0  0  0  0
 29 28  1  0  0  0  0
 30 18  1  0  0  0  0
 31 30  1  6  0  0  0
 33 31  1  0  0  0  0
 34 32  1  1  0  0  0
 34 33  1  0  0  0  0
 34 31  1  0  0  0  0
 35 36  1  0  0  0  0
 36 37  3  0  0  0  0
M  END
>  <MODEL>
4

>  <REMARK>
 VINA RESULT:      -7.3      1.188      1.510
  Name = 
  6 active torsions:
  status: ('A' for Active; 'I' for Inactive)
    1  A    between atoms: O_1  and  C_5
    2  A    between atoms: O_1  and  N_36
    3  A    between atoms: C_3  and  C_30
    4  A    between atoms: C_6  and  C_31
    5  A    between atoms: C_9  and  C_30
    6  A    between atoms: C_26  and  C_33
                            x       y       z     vdW  Elec       q    Type
                         _______ _______ _______ _____ _____    ______ ____

>  <TORSDO>
F 6

$$$$
=
 OpenBabel11052419533D

 37 43  0  0  1  0  0  0  0  0999 V2000
  189.1540  175.2310  143.0240 C   0  0  0  0  0  0  0  0  0  0  0  0
  191.8510  173.2670  140.9470 C   0  0  0  0  0  2  0  0  0  0  0  0
  187.9590  176.4360  144.8100 C   0  0  2  0  0  3  0  0  0  0  0  0
  190.1650  174.2190  142.6160 C   0  0  1  0  0  3  0  0  0  0  0  0
  189.0660  175.5630  144.2950 C   0  0  0  0  0  0  0  0  0  0  0  0
  190.5940  174.0950  141.0960 C   0  0  2  0  0  3  0  0  0  0  0  0
  187.5150  177.4330  143.6990 C   0  0  0  0  0  3  0  0  0  0  0  0
  190.0780  174.5500  145.2520 S   0  0  0  0  0  0  0  0  0  0  0  0
  189.3160  173.3730  145.7790 O   0  0  0  0  0  0  0  0  0  0  0  0
  187.8390  175.3660  140.9120 C   0  0  0  0  0  3  0  0  0  0  0  0
  187.7310  177.1450  142.3970 C   0  0  0  0  0  3  0  0  0  0  0  0
  190.7830  175.2520  146.3630 O   0  0  0  0  0  0  0  0  0  0  0  0
  192.9800  174.2090  141.2780 C   0  0  0  0  0  2  0  0  0  0  0  0
  188.3050  175.8830  142.0070 C   0  0  0  0  0  0  0  0  0  0  0  0
  191.0970  174.0440  143.8610 C   0  0  2  0  0  3  0  0  0  0  0  0
  189.4550  173.4180  140.3630 C   0  0  1  0  0  3  0  0  0  0  0  0
  193.1570  173.9480  142.8480 C   0  0  2  0  0  3  0  0  0  0  0  0
  192.4180  174.7970  143.7120 N   0  0  0  0  0  0  0  0  0  0  0  0
  188.1900  174.0740  140.3800 O   0  0  0  0  0  0  0  0  0  0  0  0
  190.2500  173.7910  137.9070 C   0  0  0  0  0  3  0  0  0  0  0  0
  189.7750  172.9610  138.9470 C   0  0  0  0  0  0  0  0  0  0  0  0
  189.5600  171.6310  138.7320 C   0  0  0  0  0  3  0  0  0  0  0  0
  189.6990  169.7270  137.2180 F   0  0  0  0  0  0  0  0  0  0  0  0
  190.4120  171.8100  136.4560 C   0  0  0  0  0  3  0  0  0  0  0  0
  189.8430  171.0480  137.4920 C   0  0  0  0  0  0  0  0  0  0  0  0
  190.5840  173.1870  136.6730 C   0  0  0  0  0  3  0  0  0  0  0  0
  194.7080  172.0200  143.5170 C   0  0  0  0  0  2  0  0  0  0  0  0
  194.5660  173.4770  143.1990 C   0  0  1  0  0  3  0  0  0  0  0  0
  195.0540  172.5760  142.2860 O   0  0  0  0  0  0  0  0  0  0  0  0
  193.0770  174.7620  144.9380 O   0  0  0  0  0  0  0  0  0  0  0  0
  193.5200  176.0200  145.3580 C   0  0  1  0  0  3  0  0  0  0  0  0
  194.9410  177.9150  145.7630 C   0  0  0  0  0  1  0  0  0  0  0  0
  194.5630  175.8430  146.5070 C   0  0  0  0  0  2  0  0  0  0  0  0
  194.9240  176.5310  145.2330 C   0  0  1  0  0  3  0  0  0  0  0  0
  188.2700  177.1710  146.1120 C   0  0  0  0  0  2  0  0  0  0  0  0
  187.0920  177.4240  146.9370 C   0  0  0  0  0  0  0  0  0  0  0  0
  186.1030  177.6140  147.5840 C   0  0  0  0  0  3  0  0  0  0  0  0
  1  5  2  0  0  0  0
  2 13  1  0  0  0  0
  3 35  1  1  0  0  0
  4  1  1  6  0  0  0
  4 15  1  0  0  0  0
  5  3  1  0  0  0  0
  5  8  1  0  0  0  0
  6  2  1  1  0  0  0
  6  4  1  0  0  0  0
  7  3  1  0  0  0  0
  8  9  2  0  0  0  0
  8 12  2  0  0  0  0
 10 14  2  0  0  0  0
 11  7  2  0  0  0  0
 14 11  1  0  0  0  0
 14  1  1  0  0  0  0
 15 18  1  6  0  0  0
 15  8  1  0  0  0  0
 16 21  1  6  0  0  0
 16 19  1  0  0  0  0
 16  6  1  0  0  0  0
 17 13  1  6  0  0  0
 17 28  1  0  0  0  0
 17 18  1  0  0  0  0
 18 30  1  0  0  0  0
 19 10  1  0  0  0  0
 20 21  1  0  0  0  0
 22 21  2  0  0  0  0
 23 25  1  0  0  0  0
 24 26  1  0  0  0  0
 24 25  2  0  0  0  0
 25 22  1  0  0  0  0
 26 20  2  0  0  0  0
 28 27  1  1  0  0  0
 29 28  1  0  0  0  0
 29 27  1  0  0  0  0
 31 30  1  6  0  0  0
 31 33  1  0  0  0  0
 34 31  1  0  0  0  0
 34 32  1  1  0  0  0
 34 33  1  0  0  0  0
 35 36  1  0  0  0  0
 36 37  3  0  0  0  0
M  END
>  <MODEL>
5

>  <REMARK>
 VINA RESULT:      -6.9      2.887      7.174
  Name = 
  6 active torsions:
  status: ('A' for Active; 'I' for Inactive)
    1  A    between atoms: O_1  and  C_5
    2  A    between atoms: O_1  and  N_36
    3  A    between atoms: C_3  and  C_30
    4  A    between atoms: C_6  and  C_31
    5  A    between atoms: C_9  and  C_30
    6  A    between atoms: C_26  and  C_33
                            x       y       z     vdW  Elec       q    Type
                         _______ _______ _______ _____ _____    ______ ____

>  <TORSDO>
F 6

$$$$
=
 OpenBabel11052419533D

 37 43  0  0  1  0  0  0  0  0999 V2000
  190.0000  174.2540  141.9320 C   0  0  0  0  0  0  0  0  0  0  0  0
  189.8880  176.2640  145.3080 C   0  0  0  0  0  2  0  0  0  0  0  0
  190.7140  172.8550  140.0340 C   0  0  2  0  0  3  0  0  0  0  0  0
  190.3450  175.1960  143.0300 C   0  0  1  0  0  3  0  0  0  0  0  0
  190.9750  173.6730  141.2650 C   0  0  0  0  0  0  0  0  0  0  0  0
  189.2550  175.5870  144.1120 C   0  0  2  0  0  3  0  0  0  0  0  0
  189.3140  172.1810  140.1370 C   0  0  0  0  0  3  0  0  0  0  0  0
  192.4970  174.3250  141.7370 S   0  0  0  0  0  0  0  0  0  0  0  0
  192.9040  175.4480  140.8330 O   0  0  0  0  0  0  0  0  0  0  0  0
  187.5630  174.7370  141.7340 C   0  0  0  0  0  3  0  0  0  0  0  0
  188.3580  172.7100  140.9320 C   0  0  0  0  0  3  0  0  0  0  0  0
  193.5940  173.3200  141.8430 O   0  0  0  0  0  0  0  0  0  0  0  0
  190.4410  175.1400  146.1450 C   0  0  0  0  0  2  0  0  0  0  0  0
  188.5860  173.9450  141.6380 C   0  0  0  0  0  0  0  0  0  0  0  0
  191.8740  174.9850  143.2880 C   0  0  2  0  0  3  0  0  0  0  0  0
  188.2860  176.5400  143.4470 C   0  0  1  0  0  3  0  0  0  0  0  0
  191.9370  175.0370  145.5840 C   0  0  2  0  0  3  0  0  0  0  0  0
  192.1460  174.1220  144.5200 N   0  0  0  0  0  0  0  0  0  0  0  0
  187.5790  176.0590  142.3080 O   0  0  0  0  0  0  0  0  0  0  0  0
  186.9370  176.7800  145.6670 C   0  0  0  0  0  3  0  0  0  0  0  0
  187.3200  177.2450  144.3890 C   0  0  0  0  0  0  0  0  0  0  0  0
  186.8150  178.4120  143.8930 C   0  0  0  0  0  3  0  0  0  0  0  0
  185.4390  180.3910  144.2490 F   0  0  0  0  0  0  0  0  0  0  0  0
  185.6110  178.8310  145.9700 C   0  0  0  0  0  3  0  0  0  0  0  0
  185.9430  179.1980  144.6540 C   0  0  0  0  0  0  0  0  0  0  0  0
  186.0980  177.6040  146.4500 C   0  0  0  0  0  3  0  0  0  0  0  0
  193.8700  176.4370  146.5180 C   0  0  0  0  0  2  0  0  0  0  0  0
  192.9800  175.2430  146.6790 C   0  0  1  0  0  3  0  0  0  0  0  0
  192.7740  176.4040  147.3800 O   0  0  0  0  0  0  0  0  0  0  0  0
  193.5030  173.8130  144.5410 O   0  0  0  0  0  0  0  0  0  0  0  0
  193.7520  172.4540  144.7580 C   0  0  1  0  0  3  0  0  0  0  0  0
  194.5590  170.4160  145.7430 C   0  0  0  0  0  1  0  0  0  0  0  0
  195.2750  172.1700  144.5580 C   0  0  0  0  0  2  0  0  0  0  0  0
  194.5990  171.8930  145.8600 C   0  0  1  0  0  3  0  0  0  0  0  0
  191.7920  171.8270  139.7010 C   0  0  0  0  0  2  0  0  0  0  0  0
  191.9710  171.6080  138.2690 C   0  0  0  0  0  0  0  0  0  0  0  0
  192.0830  171.4510  137.0880 C   0  0  0  0  0  3  0  0  0  0  0  0
  2 13  1  0  0  0  0
  3 35  1  1  0  0  0
  3  7  1  0  0  0  0
  3  5  1  0  0  0  0
  4  1  1  1  0  0  0
  4 15  1  0  0  0  0
  4  6  1  0  0  0  0
  5  8  1  0  0  0  0
  5  1  2  0  0  0  0
  6  2  1  1  0  0  0
  7 11  2  0  0  0  0
  8 12  2  0  0  0  0
  8 15  1  0  0  0  0
  9  8  2  0  0  0  0
 10 19  1  0  0  0  0
 11 14  1  0  0  0  0
 14 10  2  0  0  0  0
 14  1  1  0  0  0  0
 15 18  1  1  0  0  0
 16  6  1  0  0  0  0
 16 21  1  1  0  0  0
 17 13  1  1  0  0  0
 17 28  1  0  0  0  0
 18 30  1  0  0  0  0
 18 17  1  0  0  0  0
 19 16  1  0  0  0  0
 20 26  1  0  0  0  0
 21 20  2  0  0  0  0
 22 21  1  0  0  0  0
 22 25  2  0  0  0  0
 23 25  1  0  0  0  0
 24 26  2  0  0  0  0
 25 24  1  0  0  0  0
 27 29  1  0  0  0  0
 28 27  1  6  0  0  0
 28 29  1  0  0  0  0
 31 30  1  1  0  0  0
 31 34  1  0  0  0  0
 33 31  1  0  0  0  0
 33 34  1  0  0  0  0
 34 32  1  6  0  0  0
 36 35  1  0  0  0  0
 37 36  3  0  0  0  0
M  END
>  <MODEL>
6

>  <REMARK>
 VINA RESULT:      -6.8      1.907      5.324
  Name = 
  6 active torsions:
  status: ('A' for Active; 'I' for Inactive)
    1  A    between atoms: O_1  and  C_5
    2  A    between atoms: O_1  and  N_36
    3  A    between atoms: C_3  and  C_30
    4  A    between atoms: C_6  and  C_31
    5  A    between atoms: C_9  and  C_30
    6  A    between atoms: C_26  and  C_33
                            x       y       z     vdW  Elec       q    Type
                         _______ _______ _______ _____ _____    ______ ____

>  <TORSDO>
F 6

$$$$
=
 OpenBabel11052419533D

 37 43  0  0  1  0  0  0  0  0999 V2000
  191.2060  173.1910  141.2660 C   0  0  0  0  0  0  0  0  0  0  0  0
  192.7980  174.9010  144.4260 C   0  0  0  0  0  2  0  0  0  0  0  0
  189.6280  172.3820  139.5560 C   0  0  2  0  0  3  0  0  0  0  0  0
  191.4770  173.5910  142.6730 C   0  0  1  0  0  3  0  0  0  0  0  0
  189.9630  172.9620  140.9000 C   0  0  0  0  0  0  0  0  0  0  0  0
  192.8570  174.2710  143.0520 C   0  0  2  0  0  3  0  0  0  0  0  0
  190.6920  172.8280  138.5100 C   0  0  0  0  0  3  0  0  0  0  0  0
  188.9160  173.0090  142.2650 S   0  0  0  0  0  0  0  0  0  0  0  0
  188.7200  171.6400  142.8400 O   0  0  0  0  0  0  0  0  0  0  0  0
  193.5400  172.7400  140.5170 C   0  0  0  0  0  3  0  0  0  0  0  0
  191.9300  173.1930  138.9090 C   0  0  0  0  0  3  0  0  0  0  0  0
  187.5980  173.6590  142.0130 O   0  0  0  0  0  0  0  0  0  0  0  0
  192.1060  176.2230  144.2200 C   0  0  0  0  0  2  0  0  0  0  0  0
  192.3150  173.1040  140.2940 C   0  0  0  0  0  0  0  0  0  0  0  0
  190.0760  173.9350  143.2790 C   0  0  2  0  0  3  0  0  0  0  0  0
  193.9090  173.1830  143.0420 C   0  0  1  0  0  3  0  0  0  0  0  0
  190.5790  175.8230  144.4860 C   0  0  2  0  0  3  0  0  0  0  0  0
  189.8230  175.4410  143.3490 N   0  0  0  0  0  0  0  0  0  0  0  0
  194.1170  172.4910  141.8130 O   0  0  0  0  0  0  0  0  0  0  0  0
  196.1010  174.5930  143.1570 C   0  0  0  0  0  3  0  0  0  0  0  0
  195.2520  173.5730  143.6420 C   0  0  0  0  0  0  0  0  0  0  0  0
  195.6070  172.8350  144.7340 C   0  0  0  0  0  3  0  0  0  0  0  0
  197.1910  172.4380  146.5420 F   0  0  0  0  0  0  0  0  0  0  0  0
  197.6250  174.1660  145.0410 C   0  0  0  0  0  3  0  0  0  0  0  0
  196.7950  173.0970  145.4230 C   0  0  0  0  0  0  0  0  0  0  0  0
  197.2740  174.8870  143.8880 C   0  0  0  0  0  3  0  0  0  0  0  0
  189.7200  175.8880  146.9010 C   0  0  0  0  0  2  0  0  0  0  0  0
  189.9610  176.6330  145.6240 C   0  0  1  0  0  3  0  0  0  0  0  0
  190.8040  176.7420  146.7010 O   0  0  0  0  0  0  0  0  0  0  0  0
  188.4880  175.6390  143.6910 O   0  0  0  0  0  0  0  0  0  0  0  0
  187.8770  176.6530  142.9480 C   0  0  1  0  0  3  0  0  0  0  0  0
  186.6860  178.6660  142.3880 C   0  0  0  0  0  1  0  0  0  0  0  0
  186.3320  176.6060  143.1810 C   0  0  0  0  0  2  0  0  0  0  0  0
  187.1310  177.8210  143.5220 C   0  0  1  0  0  3  0  0  0  0  0  0
  188.2150  172.6800  139.0590 C   0  0  0  0  0  2  0  0  0  0  0  0
  188.1180  173.9010  138.2650 C   0  0  0  0  0  0  0  0  0  0  0  0
  188.0010  174.8910  137.6030 C   0  0  0  0  0  3  0  0  0  0  0  0
  3 35  1  6  0  0  0
  3  5  1  0  0  0  0
  4  1  1  6  0  0  0
  4  6  1  0  0  0  0
  4 15  1  0  0  0  0
  5  1  2  0  0  0  0
  5  8  1  0  0  0  0
  6  2  1  1  0  0  0
  7 11  2  0  0  0  0
  7  3  1  0  0  0  0
  8  9  2  0  0  0  0
  8 15  1  0  0  0  0
 10 19  1  0  0  0  0
 11 14  1  0  0  0  0
 12  8  2  0  0  0  0
 13  2  1  0  0  0  0
 14 10  2  0  0  0  0
 14  1  1  0  0  0  0
 15 18  1  6  0  0  0
 16  6  1  0  0  0  0
 16 21  1  6  0  0  0
 17 13  1  6  0  0  0
 17 28  1  0  0  0  0
 18 30  1  0  0  0  0
 18 17  1  0  0  0  0
 19 16  1  0  0  0  0
 20 21  2  0  0  0  0
 20 26  1  0  0  0  0
 21 22  1  0  0  0  0
 22 25  2  0  0  0  0
 24 25  1  0  0  0  0
 25 23  1  0  0  0  0
 26 24  2  0  0  0  0
 28 29  1  0  0  0  0
 28 27  1  1  0  0  0
 29 27  1  0  0  0  0
 31 33  1  0  0  0  0
 31 34  1  0  0  0  0
 31 30  1  1  0  0  0
 33 34  1  0  0  0  0
 34 32  1  6  0  0  0
 36 35  1  0  0  0  0
 37 36  3  0  0  0  0
M  END
>  <MODEL>
7

>  <REMARK>
 VINA RESULT:      -6.7      3.004      7.923
  Name = 
  6 active torsions:
  status: ('A' for Active; 'I' for Inactive)
    1  A    between atoms: O_1  and  C_5
    2  A    between atoms: O_1  and  N_36
    3  A    between atoms: C_3  and  C_30
    4  A    between atoms: C_6  and  C_31
    5  A    between atoms: C_9  and  C_30
    6  A    between atoms: C_26  and  C_33
                            x       y       z     vdW  Elec       q    Type
                         _______ _______ _______ _____ _____    ______ ____

>  <TORSDO>
F 6

$$$$
=
 OpenBabel11052419533D

 37 43  0  0  1  0  0  0  0  0999 V2000
  190.4910  175.5180  144.8960 C   0  0  0  0  0  0  0  0  0  0  0  0
  193.4930  173.8050  143.0250 C   0  0  0  0  0  2  0  0  0  0  0  0
  188.3590  176.6330  145.4240 C   0  0  2  0  0  3  0  0  0  0  0  0
  191.5990  175.2590  143.9380 C   0  0  1  0  0  3  0  0  0  0  0  0
  189.4320  176.1780  144.4780 C   0  0  0  0  0  0  0  0  0  0  0  0
  192.6760  174.1400  144.2530 C   0  0  2  0  0  3  0  0  0  0  0  0
  188.2520  175.6370  146.6170 C   0  0  0  0  0  3  0  0  0  0  0  0
  189.6850  176.7710  142.8820 S   0  0  0  0  0  0  0  0  0  0  0  0
  190.2200  178.1700  142.9070 O   0  0  0  0  0  0  0  0  0  0  0  0
  191.6240  174.8530  147.0140 C   0  0  0  0  0  3  0  0  0  0  0  0
  189.3050  174.8620  146.9560 C   0  0  0  0  0  3  0  0  0  0  0  0
  188.4900  176.6890  141.9940 O   0  0  0  0  0  0  0  0  0  0  0  0
  192.6280  172.8680  142.2230 C   0  0  0  0  0  2  0  0  0  0  0  0
  190.5670  174.9940  146.2750 C   0  0  0  0  0  0  0  0  0  0  0  0
  191.0160  175.6160  142.5300 C   0  0  2  0  0  3  0  0  0  0  0  0
  193.5860  174.6850  145.3320 C   0  0  1  0  0  3  0  0  0  0  0  0
  191.8590  173.8940  141.2640 C   0  0  2  0  0  3  0  0  0  0  0  0
  190.6100  174.3760  141.7340 N   0  0  0  0  0  0  0  0  0  0  0  0
  192.9840  175.0360  146.5740 O   0  0  0  0  0  0  0  0  0  0  0  0
  196.1370  174.4110  145.8010 C   0  0  0  0  0  3  0  0  0  0  0  0
  194.8490  173.8740  145.5860 C   0  0  0  0  0  0  0  0  0  0  0  0
  194.6490  172.5240  145.5890 C   0  0  0  0  0  3  0  0  0  0  0  0
  195.5720  170.2930  145.9140 F   0  0  0  0  0  0  0  0  0  0  0  0
  196.9830  172.1290  146.1670 C   0  0  0  0  0  3  0  0  0  0  0  0
  195.7030  171.6420  145.8480 C   0  0  0  0  0  0  0  0  0  0  0  0
  197.1870  173.5180  146.1130 C   0  0  0  0  0  3  0  0  0  0  0  0
  193.1680  174.3960  139.1180 C   0  0  0  0  0  2  0  0  0  0  0  0
  192.0960  173.5920  139.7870 C   0  0  1  0  0  3  0  0  0  0  0  0
  193.3500  173.0850  139.5560 O   0  0  0  0  0  0  0  0  0  0  0  0
  189.9120  174.7970  140.6050 O   0  0  0  0  0  0  0  0  0  0  0  0
  189.0750  173.8080  140.0790 C   0  0  1  0  0  3  0  0  0  0  0  0
  188.0880  172.2360  138.5520 C   0  0  0  0  0  1  0  0  0  0  0  0
  188.1790  174.4310  138.9610 C   0  0  0  0  0  2  0  0  0  0  0  0
  189.1110  173.3020  138.6680 C   0  0  1  0  0  3  0  0  0  0  0  0
  186.9930  176.8700  144.7850 C   0  0  0  0  0  2  0  0  0  0  0  0
  185.9000  176.9460  145.7500 C   0  0  0  0  0  0  0  0  0  0  0  0
  185.0160  177.0470  146.5500 C   0  0  0  0  0  3  0  0  0  0  0  0
  1 14  1  0  0  0  0
  3 35  1  6  0  0  0
  3  7  1  0  0  0  0
  4  6  1  0  0  0  0
  4  1  1  1  0  0  0
  5  1  2  0  0  0  0
  5  3  1  0  0  0  0
  6  2  1  6  0  0  0
  6 16  1  0  0  0  0
  7 11  2  0  0  0  0
  8  9  2  0  0  0  0
  8  5  1  0  0  0  0
 12  8  2  0  0  0  0
 13  2  1  0  0  0  0
 14 11  1  0  0  0  0
 14 10  2  0  0  0  0
 15 18  1  1  0  0  0
 15  8  1  0  0  0  0
 15  4  1  0  0  0  0
 16 21  1  1  0  0  0
 16 19  1  0  0  0  0
 17 18  1  0  0  0  0
 17 13  1  1  0  0  0
 19 10  1  0  0  0  0
 20 26  1  0  0  0  0
 21 22  1  0  0  0  0
 21 20  2  0  0  0  0
 22 25  2  0  0  0  0
 25 23  1  0  0  0  0
 25 24  1  0  0  0  0
 26 24  2  0  0  0  0
 27 29  1  0  0  0  0
 28 27  1  6  0  0  0
 28 17  1  0  0  0  0
 29 28  1  0  0  0  0
 30 18  1  0  0  0  0
 31 30  1  6  0  0  0
 33 31  1  0  0  0  0
 34 32  1  1  0  0  0
 34 33  1  0  0  0  0
 34 31  1  0  0  0  0
 35 36  1  0  0  0  0
 36 37  3  0  0  0  0
M  END
>  <MODEL>
8

>  <REMARK>
 VINA RESULT:      -6.7      2.970      6.910
  Name = 
  6 active torsions:
  status: ('A' for Active; 'I' for Inactive)
    1  A    between atoms: O_1  and  C_5
    2  A    between atoms: O_1  and  N_36
    3  A    between atoms: C_3  and  C_30
    4  A    between atoms: C_6  and  C_31
    5  A    between atoms: C_9  and  C_30
    6  A    between atoms: C_26  and  C_33
                            x       y       z     vdW  Elec       q    Type
                         _______ _______ _______ _____ _____    ______ ____

>  <TORSDO>
F 6

$$$$
=
 OpenBabel11052419533D

 37 43  0  0  1  0  0  0  0  0999 V2000
  189.7910  174.4820  142.5790 C   0  0  0  0  0  0  0  0  0  0  0  0
  189.0240  176.6290  145.7810 C   0  0  0  0  0  2  0  0  0  0  0  0
  190.8820  173.0540  140.8930 C   0  0  2  0  0  3  0  0  0  0  0  0
  189.8990  175.4960  143.6630 C   0  0  1  0  0  3  0  0  0  0  0  0
  190.8940  173.9440  142.1020 C   0  0  0  0  0  0  0  0  0  0  0  0
  188.6310  175.8540  144.5430 C   0  0  2  0  0  3  0  0  0  0  0  0
  189.5300  172.2850  140.8200 C   0  0  0  0  0  3  0  0  0  0  0  0
  192.2790  174.7260  142.7620 S   0  0  0  0  0  0  0  0  0  0  0  0
  192.7460  175.8340  141.8700 O   0  0  0  0  0  0  0  0  0  0  0  0
  187.3890  174.7750  141.9860 C   0  0  0  0  0  3  0  0  0  0  0  0
  188.4290  172.7780  141.4300 C   0  0  0  0  0  3  0  0  0  0  0  0
  193.4090  173.8110  143.0900 O   0  0  0  0  0  0  0  0  0  0  0  0
  189.5130  175.5880  146.7540 C   0  0  0  0  0  2  0  0  0  0  0  0
  188.4640  174.0570  142.0920 C   0  0  0  0  0  0  0  0  0  0  0  0
  191.3800  175.4090  144.1610 C   0  0  2  0  0  3  0  0  0  0  0  0
  187.7160  176.7020  143.6860 C   0  0  1  0  0  3  0  0  0  0  0  0
  191.0810  175.5690  146.4330 C   0  0  2  0  0  3  0  0  0  0  0  0
  191.5120  174.6250  145.4670 N   0  0  0  0  0  0  0  0  0  0  0  0
  187.2280  176.1190  142.4810 O   0  0  0  0  0  0  0  0  0  0  0  0
  185.8140  176.7920  145.4680 C   0  0  0  0  0  3  0  0  0  0  0  0
  186.5710  177.3760  144.4280 C   0  0  0  0  0  0  0  0  0  0  0  0
  186.3040  178.6450  144.0020 C   0  0  0  0  0  3  0  0  0  0  0  0
  185.0150  180.6940  144.2730 F   0  0  0  0  0  0  0  0  0  0  0  0
  184.5920  178.9140  145.7150 C   0  0  0  0  0  3  0  0  0  0  0  0
  185.3060  179.4130  144.6100 C   0  0  0  0  0  0  0  0  0  0  0  0
  184.8430  177.5900  146.1130 C   0  0  0  0  0  3  0  0  0  0  0  0
  191.5670  177.1660  148.3790 C   0  0  0  0  0  2  0  0  0  0  0  0
  191.9250  175.9000  147.6610 C   0  0  1  0  0  3  0  0  0  0  0  0
  191.1840  175.8980  148.8170 O   0  0  0  0  0  0  0  0  0  0  0  0
  192.8670  174.4170  145.7110 O   0  0  0  0  0  0  0  0  0  0  0  0
  193.5590  175.5970  146.0000 C   0  0  1  0  0  3  0  0  0  0  0  0
  194.9840  177.5180  145.7620 C   0  0  0  0  0  1  0  0  0  0  0  0
  195.0930  175.3030  146.0300 C   0  0  0  0  0  2  0  0  0  0  0  0
  194.5120  176.2920  145.0750 C   0  0  1  0  0  3  0  0  0  0  0  0
  192.0640  172.0940  140.7870 C   0  0  0  0  0  2  0  0  0  0  0  0
  192.0060  170.9870  141.7380 C   0  0  0  0  0  0  0  0  0  0  0  0
  191.9500  170.1080  142.5470 C   0  0  0  0  0  3  0  0  0  0  0  0
  2 13  1  0  0  0  0
  3 35  1  1  0  0  0
  3  5  1  0  0  0  0
  4  1  1  1  0  0  0
  4 15  1  0  0  0  0
  4  6  1  0  0  0  0
  5  1  2  0  0  0  0
  5  8  1  0  0  0  0
  6  2  1  1  0  0  0
  7  3  1  0  0  0  0
  7 11  2  0  0  0  0
  8 12  2  0  0  0  0
  8 15  1  0  0  0  0
  9  8  2  0  0  0  0
 10 14  2  0  0  0  0
 10 19  1  0  0  0  0
 11 14  1  0  0  0  0
 14  1  1  0  0  0  0
 15 18  1  1  0  0  0
 16 21  1  1  0  0  0
 16  6  1  0  0  0  0
 17 13  1  1  0  0  0
 17 28  1  0  0  0  0
 18 30  1  0  0  0  0
 18 17  1  0  0  0  0
 19 16  1  0  0  0  0
 20 26  1  0  0  0  0
 21 20  2  0  0  0  0
 22 21  1  0  0  0  0
 22 25  2  0  0  0  0
 23 25  1  0  0  0  0
 24 26  2  0  0  0  0
 25 24  1  0  0  0  0
 27 29  1  0  0  0  0
 28 27  1  6  0  0  0
 28 29  1  0  0  0  0
 31 30  1  6  0  0  0
 31 33  1  0  0  0  0
 34 32  1  1  0  0  0
 34 31  1  0  0  0  0
 34 33  1  0  0  0  0
 35 36  1  0  0  0  0
 36 37  3  0  0  0  0
M  END
>  <MODEL>
9

>  <REMARK>
 VINA RESULT:      -6.6      1.868      5.173
  Name = 
  6 active torsions:
  status: ('A' for Active; 'I' for Inactive)
    1  A    between atoms: O_1  and  C_5
    2  A    between atoms: O_1  and  N_36
    3  A    between atoms: C_3  and  C_30
    4  A    between atoms: C_6  and  C_31
    5  A    between atoms: C_9  and  C_30
    6  A    between atoms: C_26  and  C_33
                            x       y       z     vdW  Elec       q    Type
                         _______ _______ _______ _____ _____    ______ ____

>  <TORSDO>
F 6

$$$$
