=
 OpenBabel11052419513D

 55 58  0  0  1  0  0  0  0  0999 V2000
  190.4030  172.1330  137.2980 C   0  0  0  0  0  2  0  0  0  0  0  0
  190.5870  171.9110  140.2370 C   0  0  2  0  0  3  0  0  0  0  0  0
  191.1300  173.1450  139.5080 C   0  0  2  0  0  3  0  0  0  0  0  0
  189.7470  170.9760  138.0360 C   0  0  0  0  0  2  0  0  0  0  0  0
  190.3930  173.3790  138.1790 C   0  0  0  0  0  2  0  0  0  0  0  0
  190.5250  170.6780  139.3170 C   0  0  0  0  0  2  0  0  0  0  0  0
  189.2420  172.2160  140.9000 C   0  0  0  0  0  2  0  0  0  0  0  0
  189.1340  173.5800  141.2000 O   0  0  0  0  0  0  0  0  0  0  0  0
  188.8090  173.6460  142.5570 C   0  0  0  0  0  2  0  0  0  0  0  0
  189.9210  174.3070  143.3130 C   0  0  2  0  0  3  0  0  0  0  0  0
  190.0470  174.0700  144.9020 S   0  0  0  0  0  0  0  0  0  0  0  0
  190.9040  175.1810  142.5940 C   0  0  0  0  0  1  0  0  0  0  0  0
  189.5440  175.7680  147.2500 O   0  0  0  0  0  0  0  0  0  0  0  0
  189.7400  175.9450  145.7730 S   0  0  0  0  0  0  0  0  0  0  0  0
  190.9810  176.7670  145.5400 O   0  0  0  0  0  0  0  0  0  0  0  0
  186.3810  178.7500  143.2640 C   0  0  0  0  0  2  0  0  0  0  0  0
  188.2940  176.7200  145.0210 C   0  0  2  0  0  3  0  0  0  0  0  0
  187.3490  176.8330  141.8730 C   0  0  0  0  0  2  0  0  0  0  0  0
  189.7830  178.1040  143.7530 O   0  0  0  0  0  0  0  0  0  0  0  0
  188.6560  177.6470  143.8790 C   0  0  0  0  0  0  0  0  0  0  0  0
  186.6800  178.5620  145.6380 O   0  0  0  0  0  0  0  0  0  0  0  0
  188.0680  178.0980  141.4140 C   0  0  0  0  0  2  0  0  0  0  0  0
  185.8490  178.1690  144.5690 C   0  0  1  0  0  3  0  0  0  0  0  0
  187.6100  177.9620  142.8490 C   0  0  0  0  0  0  0  0  0  0  0  0
  186.6510  176.5420  147.0160 C   0  0  0  0  0  1  0  0  0  0  0  0
  187.4440  177.4560  146.0860 C   0  0  1  0  0  3  0  0  0  0  0  0
  184.4260  178.5550  144.8040 C   0  0  0  0  0  0  0  0  0  0  0  0
  183.5880  178.8870  143.7010 N   0  0  0  0  0  1  0  0  0  0  0  0
  183.9180  178.4730  145.9560 O   0  0  0  0  0  0  0  0  0  0  0  0
  192.6360  173.0000  139.3100 C   0  0  0  0  0  2  0  0  0  0  0  0
  193.3400  173.0280  140.5900 N   0  0  0  0  0  2  0  0  0  0  0  0
  194.2210  174.2000  140.6780 C   0  0  1  0  0  3  0  0  0  0  0  0
  195.6300  173.9000  141.2600 C   0  0  1  0  0  3  0  0  0  0  0  0
  194.3460  174.8960  143.2160 C   0  0  0  0  0  2  0  0  0  0  0  0
  195.4990  176.6090  144.6360 C   0  0  0  0  0  2  0  0  0  0  0  0
  196.3580  176.0980  142.3230 N   0  0  0  0  0  0  0  0  0  0  0  0
  196.6080  176.8030  143.5900 C   0  0  0  0  0  2  0  0  0  0  0  0
  194.1850  176.2110  143.9840 C   0  0  0  0  0  2  0  0  0  0  0  0
  195.7230  174.7790  142.5430 C   0  0  2  0  0  3  0  0  0  0  0  0
  197.5790  175.9090  141.7520 O   0  0  0  0  0  1  0  0  0  0  0  0
  196.8920  171.9110  140.6170 C   0  0  0  0  0  1  0  0  0  0  0  0
  195.8570  172.4440  141.5000 N   0  0  0  0  0  0  0  0  0  0  0  0
  196.2140  172.0830  142.8950 C   0  0  0  0  0  2  0  0  0  0  0  0
  195.2730  171.1390  143.6280 C   0  0  0  0  0  0  0  0  0  0  0  0
  195.2240  171.2230  145.1190 C   0  0  0  0  0  1  0  0  0  0  0  0
  194.4180  170.3300  143.0080 C   0  0  0  0  0  2  0  0  0  0  0  0
  194.2980  174.9600  139.3520 C   0  0  0  0  0  2  0  0  0  0  0  0
  195.7300  175.0950  138.8580 C   0  0  0  0  0  2  0  0  0  0  0  0
  195.7520  174.8340  137.3690 C   0  0  0  0  0  2  0  0  0  0  0  0
  195.4630  173.3660  137.0610 C   0  0  0  0  0  2  0  0  0  0  0  0
  197.1460  173.4120  135.3600 O   0  0  0  0  0  1  0  0  0  0  0  0
  195.8240  173.0160  135.6200 C   0  0  1  0  0  0  0  0  0  0  0  0
  195.7390  171.5100  135.4830 C   0  0  0  0  0  1  0  0  0  0  0  0
  194.8830  173.6690  134.6970 N   0  0  0  0  0  2  0  0  0  0  0  0
  193.5320  173.1550  134.8900 C   0  0  0  0  0  1  0  0  0  0  0  0
  1  4  1  0  0  0  0
  1  5  1  0  0  0  0
  2  7  1  6  0  0  0
  3 30  1  6  0  0  0
  3  2  1  0  0  0  0
  4  6  1  0  0  0  0
  5  3  1  0  0  0  0
  6  2  1  0  0  0  0
  7  8  1  0  0  0  0
  8  9  1  0  0  0  0
  9 10  1  0  0  0  0
 10 12  1  1  0  0  0
 10 11  1  0  0  0  0
 11 14  1  0  0  0  0
 14 13  2  0  0  0  0
 15 14  2  0  0  0  0
 16 23  1  0  0  0  0
 17 14  1  1  0  0  0
 17 26  1  0  0  0  0
 18 24  1  0  0  0  0
 19 20  2  0  0  0  0
 20 17  1  0  0  0  0
 21 26  1  0  0  0  0
 22 18  1  0  0  0  0
 22 24  1  0  0  0  0
 23 27  1  1  0  0  0
 23 21  1  0  0  0  0
 24 16  1  0  0  0  0
 24 20  1  0  0  0  0
 26 25  1  6  0  0  0
 27 29  2  0  0  0  0
 28 27  1  0  0  0  0
 30 31  1  0  0  0  0
 31 32  1  0  0  0  0
 32 47  1  6  0  0  0
 32 33  1  0  0  0  0
 33 42  1  1  0  0  0
 34 38  1  0  0  0  0
 36 39  1  0  0  0  0
 36 37  1  0  0  0  0
 37 35  1  0  0  0  0
 38 35  1  0  0  0  0
 39 33  1  6  0  0  0
 39 34  1  0  0  0  0
 40 36  1  0  0  0  0
 41 42  1  0  0  0  0
 42 43  1  0  0  0  0
 43 44  1  0  0  0  0
 44 45  1  0  0  0  0
 46 44  2  0  0  0  0
 48 47  1  0  0  0  0
 49 48  1  0  0  0  0
 50 49  1  0  0  0  0
 51 52  1  0  0  0  0
 52 53  1  6  0  0  0
 52 50  1  0  0  0  0
 54 55  1  0  0  0  0
 54 52  1  0  0  0  0
M  END
>  <MODEL>
1

>  <REMARK>
 VINA RESULT:      -5.5      0.000      0.000
  Name = 
  21 active torsions:
  status: ('A' for Active; 'I' for Inactive)
    1  A    between atoms: C_1  and  C_29
    2  A    between atoms: C_2  and  N_28
    3  A    between atoms: C_2  and  C_31
    4  A    between atoms: C_4  and  C_40
    5  A    between atoms: C_6  and  S_20
    6  A    between atoms: C_8  and  C_35
    7  A    between atoms: N_10  and  C_39
    8  A    between atoms: C_13  and  C_48
    9  A    between atoms: C_13  and  C_52
   10  A    between atoms: S_20  and  S_22
   11  A    between atoms: C_26  and  C_49
   12  A    between atoms: C_27  and  C_54
   13  A    between atoms: N_28  and  C_33
   14  A    between atoms: C_33  and  C_34
   15  A    between atoms: C_33  and  C_49
   16  A    between atoms: C_34  and  C_52
   17  A    between atoms: C_35  and  O_51
   18  A    between atoms: C_39  and  C_48
   19  A    between atoms: C_40  and  N_45
   20  A    between atoms: N_45  and  C_49
   21  A    between atoms: O_51  and  C_54
                            x       y       z     vdW  Elec       q    Type
                         _______ _______ _______ _____ _____    ______ ____

>  <TORSDO>
F 21

$$$$
=
 OpenBabel11052419513D

 55 58  0  0  1  0  0  0  0  0999 V2000
  193.7170  170.9670  144.7990 C   0  0  0  0  0  2  0  0  0  0  0  0
  195.4010  173.3780  144.5400 C   0  0  2  0  0  3  0  0  0  0  0  0
  194.2120  173.1470  143.6000 C   0  0  2  0  0  3  0  0  0  0  0  0
  194.8130  171.2660  145.8100 C   0  0  0  0  0  2  0  0  0  0  0  0
  193.1360  172.2730  144.2650 C   0  0  0  0  0  2  0  0  0  0  0  0
  195.9300  172.0610  145.1360 C   0  0  0  0  0  2  0  0  0  0  0  0
  195.0560  174.4120  145.6140 C   0  0  0  0  0  2  0  0  0  0  0  0
  193.6730  174.4530  145.8380 O   0  0  0  0  0  0  0  0  0  0  0  0
  193.3870  175.7690  146.2080 C   0  0  0  0  0  2  0  0  0  0  0  0
  192.2240  176.2790  145.4130 C   0  0  2  0  0  3  0  0  0  0  0  0
  190.9030  176.7870  146.1820 S   0  0  0  0  0  0  0  0  0  0  0  0
  192.2930  176.3110  143.9160 C   0  0  0  0  0  1  0  0  0  0  0  0
  189.9250  174.5150  144.5910 O   0  0  0  0  0  0  0  0  0  0  0  0
  189.3820  175.4740  145.6090 S   0  0  0  0  0  0  0  0  0  0  0  0
  188.9590  174.7010  146.8310 O   0  0  0  0  0  0  0  0  0  0  0  0
  186.2600  178.6280  143.2100 C   0  0  0  0  0  2  0  0  0  0  0  0
  188.0040  176.4210  144.9290 C   0  0  2  0  0  3  0  0  0  0  0  0
  186.8120  176.5230  141.8650 C   0  0  0  0  0  2  0  0  0  0  0  0
  189.5610  177.5020  143.4650 O   0  0  0  0  0  0  0  0  0  0  0  0
  188.3950  177.2270  143.7080 C   0  0  0  0  0  0  0  0  0  0  0  0
  186.7350  178.5110  145.5600 O   0  0  0  0  0  0  0  0  0  0  0  0
  187.6650  177.6420  141.2750 C   0  0  0  0  0  2  0  0  0  0  0  0
  185.7660  178.1970  144.5860 C   0  0  1  0  0  3  0  0  0  0  0  0
  187.3200  177.6450  142.7470 C   0  0  0  0  0  0  0  0  0  0  0  0
  186.5330  176.5880  147.0560 C   0  0  0  0  0  1  0  0  0  0  0  0
  187.3670  177.3260  146.0120 C   0  0  1  0  0  3  0  0  0  0  0  0
  184.4400  178.8030  144.9100 C   0  0  0  0  0  0  0  0  0  0  0  0
  183.5060  179.0680  143.8680 N   0  0  0  0  0  1  0  0  0  0  0  0
  184.0850  178.9720  146.1090 O   0  0  0  0  0  0  0  0  0  0  0  0
  194.7070  172.5470  142.2870 C   0  0  0  0  0  2  0  0  0  0  0  0
  193.9300  173.0450  141.1550 N   0  0  0  0  0  2  0  0  0  0  0  0
  193.5250  171.9440  140.2720 C   0  0  1  0  0  3  0  0  0  0  0  0
  194.5770  171.5690  139.1920 C   0  0  1  0  0  3  0  0  0  0  0  0
  192.4560  172.1310  137.9060 C   0  0  0  0  0  2  0  0  0  0  0  0
  191.8620  170.7080  135.9310 C   0  0  0  0  0  2  0  0  0  0  0  0
  193.4770  169.8520  137.6650 N   0  0  0  0  0  0  0  0  0  0  0  0
  192.8680  169.6230  136.3450 C   0  0  0  0  0  2  0  0  0  0  0  0
  191.3180  171.4510  137.1410 C   0  0  0  0  0  2  0  0  0  0  0  0
  193.7420  171.2880  137.9070 C   0  0  2  0  0  3  0  0  0  0  0  0
  194.6610  169.1810  137.6530 O   0  0  0  0  0  1  0  0  0  0  0  0
  196.9440  172.1260  139.4160 C   0  0  0  0  0  1  0  0  0  0  0  0
  195.6270  172.6180  139.0200 N   0  0  0  0  0  0  0  0  0  0  0  0
  195.7390  173.1790  137.6510 C   0  0  0  0  0  2  0  0  0  0  0  0
  195.5310  174.6780  137.4970 C   0  0  0  0  0  0  0  0  0  0  0  0
  194.3670  175.2950  138.2010 C   0  0  0  0  0  1  0  0  0  0  0  0
  196.3910  175.4760  136.8680 C   0  0  0  0  0  2  0  0  0  0  0  0
  193.0530  170.7210  141.0610 C   0  0  0  0  0  2  0  0  0  0  0  0
  191.5580  170.4870  140.9040 C   0  0  0  0  0  2  0  0  0  0  0  0
  190.8240  171.7070  141.4130 C   0  0  0  0  0  2  0  0  0  0  0  0
  189.6860  172.0980  140.4730 C   0  0  0  0  0  2  0  0  0  0  0  0
  188.1960  173.2760  141.9280 O   0  0  0  0  0  1  0  0  0  0  0  0
  189.0840  173.4480  140.8540 C   0  0  1  0  0  0  0  0  0  0  0  0
  190.2200  174.3400  141.3100 C   0  0  0  0  0  1  0  0  0  0  0  0
  188.4040  174.0380  139.6900 N   0  0  0  0  0  2  0  0  0  0  0  0
  188.4000  173.1060  138.5700 C   0  0  0  0  0  1  0  0  0  0  0  0
  1  4  1  0  0  0  0
  2  6  1  0  0  0  0
  2  7  1  1  0  0  0
  3 30  1  6  0  0  0
  3  5  1  0  0  0  0
  3  2  1  0  0  0  0
  5  1  1  0  0  0  0
  6  4  1  0  0  0  0
  7  8  1  0  0  0  0
  8  9  1  0  0  0  0
 10 12  1  6  0  0  0
 10 11  1  0  0  0  0
 10  9  1  0  0  0  0
 13 14  2  0  0  0  0
 14 11  1  0  0  0  0
 14 15  2  0  0  0  0
 16 23  1  0  0  0  0
 17 14  1  1  0  0  0
 17 26  1  0  0  0  0
 18 24  1  0  0  0  0
 19 20  2  0  0  0  0
 20 17  1  0  0  0  0
 21 26  1  0  0  0  0
 22 18  1  0  0  0  0
 22 24  1  0  0  0  0
 23 27  1  1  0  0  0
 23 21  1  0  0  0  0
 24 16  1  0  0  0  0
 24 20  1  0  0  0  0
 26 25  1  6  0  0  0
 27 29  2  0  0  0  0
 28 27  1  0  0  0  0
 31 30  1  0  0  0  0
 32 47  1  1  0  0  0
 32 31  1  0  0  0  0
 33 42  1  6  0  0  0
 33 32  1  0  0  0  0
 34 39  1  0  0  0  0
 35 37  1  0  0  0  0
 35 38  1  0  0  0  0
 36 39  1  0  0  0  0
 37 36  1  0  0  0  0
 38 34  1  0  0  0  0
 39 33  1  1  0  0  0
 40 36  1  0  0  0  0
 42 41  1  0  0  0  0
 43 42  1  0  0  0  0
 44 43  1  0  0  0  0
 44 45  1  0  0  0  0
 46 44  2  0  0  0  0
 48 47  1  0  0  0  0
 48 49  1  0  0  0  0
 50 52  1  0  0  0  0
 50 49  1  0  0  0  0
 52 53  1  1  0  0  0
 52 51  1  0  0  0  0
 54 52  1  0  0  0  0
 55 54  1  0  0  0  0
M  END
>  <MODEL>
2

>  <REMARK>
 VINA RESULT:      -5.5      2.046      5.804
  Name = 
  21 active torsions:
  status: ('A' for Active; 'I' for Inactive)
    1  A    between atoms: C_1  and  C_29
    2  A    between atoms: C_2  and  N_28
    3  A    between atoms: C_2  and  C_31
    4  A    between atoms: C_4  and  C_40
    5  A    between atoms: C_6  and  S_20
    6  A    between atoms: C_8  and  C_35
    7  A    between atoms: N_10  and  C_39
    8  A    between atoms: C_13  and  C_48
    9  A    between atoms: C_13  and  C_52
   10  A    between atoms: S_20  and  S_22
   11  A    between atoms: C_26  and  C_49
   12  A    between atoms: C_27  and  C_54
   13  A    between atoms: N_28  and  C_33
   14  A    between atoms: C_33  and  C_34
   15  A    between atoms: C_33  and  C_49
   16  A    between atoms: C_34  and  C_52
   17  A    between atoms: C_35  and  O_51
   18  A    between atoms: C_39  and  C_48
   19  A    between atoms: C_40  and  N_45
   20  A    between atoms: N_45  and  C_49
   21  A    between atoms: O_51  and  C_54
                            x       y       z     vdW  Elec       q    Type
                         _______ _______ _______ _____ _____    ______ ____

>  <TORSDO>
F 21

$$$$
=
 OpenBabel11052419513D

 55 58  0  0  1  0  0  0  0  0999 V2000
  188.3890  174.1510  137.9120 C   0  0  0  0  0  2  0  0  0  0  0  0
  190.6840  172.7090  139.0830 C   0  0  2  0  0  3  0  0  0  0  0  0
  189.3850  172.8940  139.8770 C   0  0  2  0  0  3  0  0  0  0  0  0
  189.6270  173.8490  137.0820 C   0  0  0  0  0  2  0  0  0  0  0  0
  188.1750  173.0450  138.9410 C   0  0  0  0  0  2  0  0  0  0  0  0
  190.8510  173.7830  137.9930 C   0  0  0  0  0  2  0  0  0  0  0  0
  190.7870  171.2880  138.5270 C   0  0  0  0  0  2  0  0  0  0  0  0
  192.1220  170.9500  138.2710 O   0  0  0  0  0  0  0  0  0  0  0  0
  192.0910  170.0940  137.1670 C   0  0  0  0  0  2  0  0  0  0  0  0
  193.4620  169.5420  136.9140 C   0  0  2  0  0  3  0  0  0  0  0  0
  194.6630  169.9210  137.9190 S   0  0  0  0  0  0  0  0  0  0  0  0
  193.7070  168.6490  135.7360 C   0  0  0  0  0  1  0  0  0  0  0  0
  197.2730  170.1950  136.5900 O   0  0  0  0  0  0  0  0  0  0  0  0
  196.0280  171.0130  136.7730 S   0  0  0  0  0  0  0  0  0  0  0  0
  195.4010  171.2570  135.4250 O   0  0  0  0  0  0  0  0  0  0  0  0
  197.7850  175.4500  138.4060 C   0  0  0  0  0  2  0  0  0  0  0  0
  196.3970  172.5680  137.6110 C   0  0  2  0  0  3  0  0  0  0  0  0
  195.9930  175.6700  136.5930 C   0  0  0  0  0  2  0  0  0  0  0  0
  197.9360  173.0730  135.8460 O   0  0  0  0  0  0  0  0  0  0  0  0
  197.2630  173.4900  136.7780 C   0  0  0  0  0  0  0  0  0  0  0  0
  197.9000  173.3150  139.4980 O   0  0  0  0  0  0  0  0  0  0  0  0
  197.3320  175.9090  135.9010 C   0  0  0  0  0  2  0  0  0  0  0  0
  197.2350  174.5580  139.5130 C   0  0  1  0  0  3  0  0  0  0  0  0
  197.2420  174.9610  137.0760 C   0  0  0  0  0  0  0  0  0  0  0  0
  196.0670  171.7990  140.0630 C   0  0  0  0  0  1  0  0  0  0  0  0
  197.0340  172.3110  138.9990 C   0  0  1  0  0  3  0  0  0  0  0  0
  197.3270  175.2180  140.8500 C   0  0  0  0  0  0  0  0  0  0  0  0
  196.6020  176.4180  141.1010 N   0  0  0  0  0  1  0  0  0  0  0  0
  197.9410  174.6620  141.8020 O   0  0  0  0  0  0  0  0  0  0  0  0
  189.5300  174.0830  140.8240 C   0  0  0  0  0  2  0  0  0  0  0  0
  189.6440  173.6400  142.2110 N   0  0  0  0  0  2  0  0  0  0  0  0
  189.6600  174.7860  143.1280 C   0  0  1  0  0  3  0  0  0  0  0  0
  191.0820  175.2780  143.5140 C   0  0  1  0  0  3  0  0  0  0  0  0
  189.9050  174.4190  145.5970 C   0  0  0  0  0  2  0  0  0  0  0  0
  190.7110  175.2290  147.8270 C   0  0  0  0  0  2  0  0  0  0  0  0
  191.2840  176.5090  145.7350 N   0  0  0  0  0  0  0  0  0  0  0  0
  191.5190  176.3640  147.1800 C   0  0  0  0  0  2  0  0  0  0  0  0
  189.4870  174.8750  146.9980 C   0  0  0  0  0  2  0  0  0  0  0  0
  191.1200  175.1980  145.0690 C   0  0  2  0  0  3  0  0  0  0  0  0
  192.3910  177.1220  145.2350 O   0  0  0  0  0  1  0  0  0  0  0  0
  192.9540  175.3520  141.9480 C   0  0  0  0  0  1  0  0  0  0  0  0
  192.1640  174.5030  142.8360 N   0  0  0  0  0  0  0  0  0  0  0  0
  193.0990  173.7970  143.7470 C   0  0  0  0  0  2  0  0  0  0  0  0
  193.5910  172.4250  143.3070 C   0  0  0  0  0  0  0  0  0  0  0  0
  192.8020  171.7050  142.2630 C   0  0  0  0  0  1  0  0  0  0  0  0
  194.7370  171.8920  143.7200 C   0  0  0  0  0  2  0  0  0  0  0  0
  188.7730  175.9300  142.6300 C   0  0  0  0  0  2  0  0  0  0  0  0
  187.3960  175.9020  143.2770 C   0  0  0  0  0  2  0  0  0  0  0  0
  187.3530  176.9530  144.3630 C   0  0  0  0  0  2  0  0  0  0  0  0
  186.2130  176.6860  145.3440 C   0  0  0  0  0  2  0  0  0  0  0  0
  184.6820  178.2100  144.3170 O   0  0  0  0  0  1  0  0  0  0  0  0
  185.3320  177.9190  145.5270 C   0  0  1  0  0  0  0  0  0  0  0  0
  184.2840  177.5790  146.5650 C   0  0  0  0  0  1  0  0  0  0  0  0
  186.1520  179.0560  145.9770 N   0  0  0  0  0  2  0  0  0  0  0  0
  185.9090  179.3380  147.3870 C   0  0  0  0  0  1  0  0  0  0  0  0
  1  5  1  0  0  0  0
  2  7  1  6  0  0  0
  2  3  1  0  0  0  0
  3 30  1  6  0  0  0
  4  1  1  0  0  0  0
  4  6  1  0  0  0  0
  5  3  1  0  0  0  0
  6  2  1  0  0  0  0
  8  7  1  0  0  0  0
  9  8  1  0  0  0  0
 10 12  1  6  0  0  0
 10  9  1  0  0  0  0
 10 11  1  0  0  0  0
 13 14  2  0  0  0  0
 14 11  1  0  0  0  0
 15 14  2  0  0  0  0
 16 23  1  0  0  0  0
 17 14  1  6  0  0  0
 17 26  1  0  0  0  0
 18 24  1  0  0  0  0
 19 20  2  0  0  0  0
 20 24  1  0  0  0  0
 20 17  1  0  0  0  0
 21 23  1  0  0  0  0
 22 18  1  0  0  0  0
 22 24  1  0  0  0  0
 23 27  1  1  0  0  0
 24 16  1  0  0  0  0
 26 21  1  0  0  0  0
 26 25  1  1  0  0  0
 27 28  1  0  0  0  0
 27 29  2  0  0  0  0
 30 31  1  0  0  0  0
 31 32  1  0  0  0  0
 32 47  1  6  0  0  0
 32 33  1  0  0  0  0
 33 42  1  6  0  0  0
 34 38  1  0  0  0  0
 36 37  1  0  0  0  0
 37 35  1  0  0  0  0
 38 35  1  0  0  0  0
 39 33  1  6  0  0  0
 39 34  1  0  0  0  0
 39 36  1  0  0  0  0
 40 36  1  0  0  0  0
 41 42  1  0  0  0  0
 42 43  1  0  0  0  0
 44 46  2  0  0  0  0
 44 43  1  0  0  0  0
 45 44  1  0  0  0  0
 47 48  1  0  0  0  0
 48 49  1  0  0  0  0
 49 50  1  0  0  0  0
 50 52  1  0  0  0  0
 51 52  1  0  0  0  0
 52 54  1  0  0  0  0
 52 53  1  1  0  0  0
 54 55  1  0  0  0  0
M  END
>  <MODEL>
3

>  <REMARK>
 VINA RESULT:      -5.4      3.050      9.754
  Name = 
  21 active torsions:
  status: ('A' for Active; 'I' for Inactive)
    1  A    between atoms: C_1  and  C_29
    2  A    between atoms: C_2  and  N_28
    3  A    between atoms: C_2  and  C_31
    4  A    between atoms: C_4  and  C_40
    5  A    between atoms: C_6  and  S_20
    6  A    between atoms: C_8  and  C_35
    7  A    between atoms: N_10  and  C_39
    8  A    between atoms: C_13  and  C_48
    9  A    between atoms: C_13  and  C_52
   10  A    between atoms: S_20  and  S_22
   11  A    between atoms: C_26  and  C_49
   12  A    between atoms: C_27  and  C_54
   13  A    between atoms: N_28  and  C_33
   14  A    between atoms: C_33  and  C_34
   15  A    between atoms: C_33  and  C_49
   16  A    between atoms: C_34  and  C_52
   17  A    between atoms: C_35  and  O_51
   18  A    between atoms: C_39  and  C_48
   19  A    between atoms: C_40  and  N_45
   20  A    between atoms: N_45  and  C_49
   21  A    between atoms: O_51  and  C_54
                            x       y       z     vdW  Elec       q    Type
                         _______ _______ _______ _____ _____    ______ ____

>  <TORSDO>
F 21

$$$$
=
 OpenBabel11052419513D

 55 58  0  0  1  0  0  0  0  0999 V2000
  186.9670  178.3150  143.9350 C   0  0  0  0  0  2  0  0  0  0  0  0
  188.0940  176.5720  141.8360 C   0  0  2  0  0  3  0  0  0  0  0  0
  188.8010  176.7310  143.1870 C   0  0  2  0  0  3  0  0  0  0  0  0
  186.2020  178.0500  142.6480 C   0  0  0  0  0  2  0  0  0  0  0  0
  187.8050  177.0940  144.3000 C   0  0  0  0  0  2  0  0  0  0  0  0
  187.1880  177.7740  141.5140 C   0  0  0  0  0  2  0  0  0  0  0  0
  187.3470  175.2380  141.7650 C   0  0  0  0  0  2  0  0  0  0  0  0
  188.2100  174.1700  142.0410 O   0  0  0  0  0  0  0  0  0  0  0  0
  188.1460  173.3310  140.9260 C   0  0  0  0  0  2  0  0  0  0  0  0
  189.4220  173.4250  140.1450 C   0  0  2  0  0  3  0  0  0  0  0  0
  189.3910  173.1970  138.5500 S   0  0  0  0  0  0  0  0  0  0  0  0
  190.7110  173.7270  140.8470 C   0  0  0  0  0  1  0  0  0  0  0  0
  190.3230  170.5240  139.3500 O   0  0  0  0  0  0  0  0  0  0  0  0
  190.5300  171.4780  138.2100 S   0  0  0  0  0  0  0  0  0  0  0  0
  190.0270  170.8400  136.9410 O   0  0  0  0  0  0  0  0  0  0  0  0
  195.0800  173.2680  136.9720 C   0  0  0  0  0  2  0  0  0  0  0  0
  192.2690  171.9370  138.0620 C   0  0  2  0  0  3  0  0  0  0  0  0
  193.7290  174.8570  138.4530 C   0  0  0  0  0  2  0  0  0  0  0  0
  191.6550  173.4200  136.2840 O   0  0  0  0  0  0  0  0  0  0  0  0
  192.4890  173.1020  137.1210 C   0  0  0  0  0  0  0  0  0  0  0  0
  194.3180  170.9920  136.9270 O   0  0  0  0  0  0  0  0  0  0  0  0
  193.6290  175.4080  137.0340 C   0  0  0  0  0  2  0  0  0  0  0  0
  195.1170  171.9030  137.6480 C   0  0  1  0  0  3  0  0  0  0  0  0
  193.7400  173.9180  137.2650 C   0  0  0  0  0  0  0  0  0  0  0  0
  193.3460  169.6810  138.7470 C   0  0  0  0  0  1  0  0  0  0  0  0
  193.1300  170.7180  137.6470 C   0  0  1  0  0  3  0  0  0  0  0  0
  196.5150  171.4040  137.8090 C   0  0  0  0  0  0  0  0  0  0  0  0
  197.3920  171.3730  136.6880 N   0  0  0  0  0  1  0  0  0  0  0  0
  196.9710  171.1230  138.9520 O   0  0  0  0  0  0  0  0  0  0  0  0
  189.9190  177.7630  143.0610 C   0  0  0  0  0  2  0  0  0  0  0  0
  190.6560  177.8970  144.3150 N   0  0  0  0  0  2  0  0  0  0  0  0
  192.0000  177.3170  144.1970 C   0  0  1  0  0  3  0  0  0  0  0  0
  192.5980  176.8090  145.5380 C   0  0  1  0  0  3  0  0  0  0  0  0
  191.3260  174.7020  144.8970 C   0  0  0  0  0  2  0  0  0  0  0  0
  189.5660  173.8620  146.4700 C   0  0  0  0  0  2  0  0  0  0  0  0
  190.3630  176.2470  146.6220 N   0  0  0  0  0  0  0  0  0  0  0  0
  189.5540  175.1880  147.2460 C   0  0  0  0  0  2  0  0  0  0  0  0
  189.9340  174.0770  145.0110 C   0  0  0  0  0  2  0  0  0  0  0  0
  191.6050  175.7110  146.0230 C   0  0  2  0  0  3  0  0  0  0  0  0
  190.6920  177.1080  147.6240 O   0  0  0  0  0  1  0  0  0  0  0  0
  194.9560  177.4430  145.5200 C   0  0  0  0  0  1  0  0  0  0  0  0
  194.0080  176.3370  145.3980 N   0  0  0  0  0  0  0  0  0  0  0  0
  194.4150  175.2760  146.3520 C   0  0  0  0  0  2  0  0  0  0  0  0
  195.2430  174.1270  145.7960 C   0  0  0  0  0  0  0  0  0  0  0  0
  194.5140  172.9760  145.1840 C   0  0  0  0  0  1  0  0  0  0  0  0
  196.5720  174.1480  145.7270 C   0  0  0  0  0  2  0  0  0  0  0  0
  192.0710  176.2540  143.0980 C   0  0  0  0  0  2  0  0  0  0  0  0
  193.3390  176.3820  142.2670 C   0  0  0  0  0  2  0  0  0  0  0  0
  193.9510  175.0080  142.1100 C   0  0  0  0  0  2  0  0  0  0  0  0
  195.4750  175.0700  142.1970 C   0  0  0  0  0  2  0  0  0  0  0  0
  197.0950  173.3190  142.3830 O   0  0  0  0  0  1  0  0  0  0  0  0
  196.1220  173.8600  141.5270 C   0  0  1  0  0  0  0  0  0  0  0  0
  195.0390  172.8240  141.3160 C   0  0  0  0  0  1  0  0  0  0  0  0
  196.7110  174.2580  140.2380 N   0  0  0  0  0  2  0  0  0  0  0  0
  197.1990  175.6310  140.2980 C   0  0  0  0  0  1  0  0  0  0  0  0
  1  5  1  0  0  0  0
  2  7  1  1  0  0  0
  2  3  1  0  0  0  0
  3 30  1  6  0  0  0
  3  5  1  0  0  0  0
  4  1  1  0  0  0  0
  6  2  1  0  0  0  0
  6  4  1  0  0  0  0
  7  8  1  0  0  0  0
  9  8  1  0  0  0  0
 10 12  1  1  0  0  0
 10  9  1  0  0  0  0
 11 10  1  0  0  0  0
 14 11  1  0  0  0  0
 14 13  2  0  0  0  0
 15 14  2  0  0  0  0
 16 24  1  0  0  0  0
 16 23  1  0  0  0  0
 17 14  1  6  0  0  0
 19 20  2  0  0  0  0
 20 24  1  0  0  0  0
 20 17  1  0  0  0  0
 21 26  1  0  0  0  0
 21 23  1  0  0  0  0
 22 24  1  0  0  0  0
 22 18  1  0  0  0  0
 23 27  1  6  0  0  0
 24 18  1  0  0  0  0
 26 17  1  0  0  0  0
 26 25  1  1  0  0  0
 27 29  2  0  0  0  0
 28 27  1  0  0  0  0
 30 31  1  0  0  0  0
 32 47  1  6  0  0  0
 32 31  1  0  0  0  0
 32 33  1  0  0  0  0
 33 42  1  6  0  0  0
 34 38  1  0  0  0  0
 34 39  1  0  0  0  0
 35 37  1  0  0  0  0
 36 37  1  0  0  0  0
 36 40  1  0  0  0  0
 38 35  1  0  0  0  0
 39 33  1  6  0  0  0
 39 36  1  0  0  0  0
 42 41  1  0  0  0  0
 42 43  1  0  0  0  0
 44 43  1  0  0  0  0
 45 44  1  0  0  0  0
 46 44  2  0  0  0  0
 48 47  1  0  0  0  0
 49 50  1  0  0  0  0
 49 48  1  0  0  0  0
 52 53  1  6  0  0  0
 52 50  1  0  0  0  0
 52 51  1  0  0  0  0
 54 55  1  0  0  0  0
 54 52  1  0  0  0  0
M  END
>  <MODEL>
4

>  <REMARK>
 VINA RESULT:      -5.4      2.993      8.235
  Name = 
  21 active torsions:
  status: ('A' for Active; 'I' for Inactive)
    1  A    between atoms: C_1  and  C_29
    2  A    between atoms: C_2  and  N_28
    3  A    between atoms: C_2  and  C_31
    4  A    between atoms: C_4  and  C_40
    5  A    between atoms: C_6  and  S_20
    6  A    between atoms: C_8  and  C_35
    7  A    between atoms: N_10  and  C_39
    8  A    between atoms: C_13  and  C_48
    9  A    between atoms: C_13  and  C_52
   10  A    between atoms: S_20  and  S_22
   11  A    between atoms: C_26  and  C_49
   12  A    between atoms: C_27  and  C_54
   13  A    between atoms: N_28  and  C_33
   14  A    between atoms: C_33  and  C_34
   15  A    between atoms: C_33  and  C_49
   16  A    between atoms: C_34  and  C_52
   17  A    between atoms: C_35  and  O_51
   18  A    between atoms: C_39  and  C_48
   19  A    between atoms: C_40  and  N_45
   20  A    between atoms: N_45  and  C_49
   21  A    between atoms: O_51  and  C_54
                            x       y       z     vdW  Elec       q    Type
                         _______ _______ _______ _____ _____    ______ ____

>  <TORSDO>
F 21

$$$$
=
 OpenBabel11052419513D

 55 58  0  0  1  0  0  0  0  0999 V2000
  193.7120  176.6180  146.6180 C   0  0  0  0  0  2  0  0  0  0  0  0
  194.5030  175.5420  143.9850 C   0  0  2  0  0  3  0  0  0  0  0  0
  193.3340  176.5260  144.1110 C   0  0  2  0  0  3  0  0  0  0  0  0
  194.9510  175.7490  146.4710 C   0  0  0  0  0  2  0  0  0  0  0  0
  193.4960  177.4300  145.3440 C   0  0  0  0  0  2  0  0  0  0  0  0
  194.7650  174.7850  145.3000 C   0  0  0  0  0  2  0  0  0  0  0  0
  195.7540  176.2450  143.4530 C   0  0  0  0  0  2  0  0  0  0  0  0
  196.6610  175.3150  142.9280 O   0  0  0  0  0  0  0  0  0  0  0  0
  196.1410  174.9360  141.6880 C   0  0  0  0  0  2  0  0  0  0  0  0
  196.7830  173.6580  141.2380 C   0  0  2  0  0  3  0  0  0  0  0  0
  196.8630  173.3260  139.6630 S   0  0  0  0  0  0  0  0  0  0  0  0
  197.3420  172.7020  142.2470 C   0  0  0  0  0  1  0  0  0  0  0  0
  196.5970  170.4490  139.1140 O   0  0  0  0  0  0  0  0  0  0  0  0
  195.6940  171.6150  139.3930 S   0  0  0  0  0  0  0  0  0  0  0  0
  194.9500  171.3610  140.6770 O   0  0  0  0  0  0  0  0  0  0  0  0
  192.1740  173.1520  136.1230 C   0  0  0  0  0  2  0  0  0  0  0  0
  194.5530  171.8860  138.0210 C   0  0  2  0  0  3  0  0  0  0  0  0
  194.4270  174.3260  135.8200 C   0  0  0  0  0  2  0  0  0  0  0  0
  193.8760  173.9260  139.0770 O   0  0  0  0  0  0  0  0  0  0  0  0
  193.9130  173.2570  138.0540 C   0  0  0  0  0  0  0  0  0  0  0  0
  192.2260  171.1210  137.4020 O   0  0  0  0  0  0  0  0  0  0  0  0
  193.5260  175.3140  136.5550 C   0  0  0  0  0  2  0  0  0  0  0  0
  192.4160  171.6470  136.1080 C   0  0  1  0  0  3  0  0  0  0  0  0
  193.3650  173.8270  136.7780 C   0  0  0  0  0  0  0  0  0  0  0  0
  193.9790  169.4180  137.4750 C   0  0  0  0  0  1  0  0  0  0  0  0
  193.4770  170.7720  137.9690 C   0  0  1  0  0  3  0  0  0  0  0  0
  191.5540  170.9600  135.1000 C   0  0  0  0  0  0  0  0  0  0  0  0
  190.4560  171.6520  134.5150 N   0  0  0  0  0  1  0  0  0  0  0  0
  191.8570  169.8130  134.6690 O   0  0  0  0  0  0  0  0  0  0  0  0
  192.0170  175.7540  144.1350 C   0  0  0  0  0  2  0  0  0  0  0  0
  191.8510  174.9610  142.9190 N   0  0  0  0  0  2  0  0  0  0  0  0
  190.4430  174.9300  142.5030 C   0  0  1  0  0  3  0  0  0  0  0  0
  189.7530  173.5500  142.6810 C   0  0  1  0  0  3  0  0  0  0  0  0
  190.6510  173.5770  140.3020 C   0  0  0  0  0  2  0  0  0  0  0  0
  189.2520  172.5400  138.5000 C   0  0  0  0  0  2  0  0  0  0  0  0
  188.2010  173.2070  140.6900 N   0  0  0  0  0  0  0  0  0  0  0  0
  188.0140  172.5070  139.4090 C   0  0  0  0  0  2  0  0  0  0  0  0
  190.1700  173.6980  138.8540 C   0  0  0  0  0  2  0  0  0  0  0  0
  189.5640  173.0120  141.2310 C   0  0  2  0  0  3  0  0  0  0  0  0
  187.3020  172.6580  141.5520 O   0  0  0  0  0  1  0  0  0  0  0  0
  189.7840  172.3500  144.8080 C   0  0  0  0  0  1  0  0  0  0  0  0
  190.5190  172.6320  143.5770 N   0  0  0  0  0  0  0  0  0  0  0  0
  190.9090  171.3370  142.9680 C   0  0  0  0  0  2  0  0  0  0  0  0
  192.3210  170.8390  143.2430 C   0  0  0  0  0  0  0  0  0  0  0  0
  193.2970  171.8050  143.8310 C   0  0  0  0  0  1  0  0  0  0  0  0
  192.6920  169.5710  143.0920 C   0  0  0  0  0  2  0  0  0  0  0  0
  189.6330  176.0620  143.1380 C   0  0  0  0  0  2  0  0  0  0  0  0
  188.5820  176.6120  142.1850 C   0  0  0  0  0  2  0  0  0  0  0  0
  187.7690  177.6560  142.9150 C   0  0  0  0  0  2  0  0  0  0  0  0
  186.6520  177.0130  143.7340 C   0  0  0  0  0  2  0  0  0  0  0  0
  186.1790  178.9450  145.0640 O   0  0  0  0  0  1  0  0  0  0  0  0
  186.5800  177.6010  145.1410 C   0  0  1  0  0  0  0  0  0  0  0  0
  185.5240  176.8290  145.9040 C   0  0  0  0  0  1  0  0  0  0  0  0
  187.8880  177.4730  145.8030 N   0  0  0  0  0  2  0  0  0  0  0  0
  187.8490  176.4300  146.8210 C   0  0  0  0  0  1  0  0  0  0  0  0
  2  7  1  1  0  0  0
  2  3  1  0  0  0  0
  2  6  1  0  0  0  0
  3 30  1  1  0  0  0
  3  5  1  0  0  0  0
  4  1  1  0  0  0  0
  5  1  1  0  0  0  0
  6  4  1  0  0  0  0
  8  7  1  0  0  0  0
  9  8  1  0  0  0  0
 10  9  1  0  0  0  0
 10 12  1  1  0  0  0
 11 10  1  0  0  0  0
 13 14  2  0  0  0  0
 14 11  1  0  0  0  0
 14 15  2  0  0  0  0
 16 24  1  0  0  0  0
 17 20  1  0  0  0  0
 17 14  1  1  0  0  0
 18 22  1  0  0  0  0
 18 24  1  0  0  0  0
 20 19  2  0  0  0  0
 21 26  1  0  0  0  0
 22 24  1  0  0  0  0
 23 27  1  6  0  0  0
 23 16  1  0  0  0  0
 23 21  1  0  0  0  0
 24 20  1  0  0  0  0
 26 25  1  6  0  0  0
 26 17  1  0  0  0  0
 28 27  1  0  0  0  0
 29 27  2  0  0  0  0
 31 30  1  0  0  0  0
 32 33  1  0  0  0  0
 32 31  1  0  0  0  0
 32 47  1  1  0  0  0
 33 42  1  1  0  0  0
 34 39  1  0  0  0  0
 35 38  1  0  0  0  0
 35 37  1  0  0  0  0
 36 39  1  0  0  0  0
 36 40  1  0  0  0  0
 37 36  1  0  0  0  0
 38 34  1  0  0  0  0
 39 33  1  1  0  0  0
 42 41  1  0  0  0  0
 43 44  1  0  0  0  0
 43 42  1  0  0  0  0
 44 45  1  0  0  0  0
 46 44  2  0  0  0  0
 48 49  1  0  0  0  0
 48 47  1  0  0  0  0
 49 50  1  0  0  0  0
 50 52  1  0  0  0  0
 51 52  1  0  0  0  0
 52 54  1  0  0  0  0
 52 53  1  1  0  0  0
 54 55  1  0  0  0  0
M  END
>  <MODEL>
5

>  <REMARK>
 VINA RESULT:      -5.2      3.120      9.721
  Name = 
  21 active torsions:
  status: ('A' for Active; 'I' for Inactive)
    1  A    between atoms: C_1  and  C_29
    2  A    between atoms: C_2  and  N_28
    3  A    between atoms: C_2  and  C_31
    4  A    between atoms: C_4  and  C_40
    5  A    between atoms: C_6  and  S_20
    6  A    between atoms: C_8  and  C_35
    7  A    between atoms: N_10  and  C_39
    8  A    between atoms: C_13  and  C_48
    9  A    between atoms: C_13  and  C_52
   10  A    between atoms: S_20  and  S_22
   11  A    between atoms: C_26  and  C_49
   12  A    between atoms: C_27  and  C_54
   13  A    between atoms: N_28  and  C_33
   14  A    between atoms: C_33  and  C_34
   15  A    between atoms: C_33  and  C_49
   16  A    between atoms: C_34  and  C_52
   17  A    between atoms: C_35  and  O_51
   18  A    between atoms: C_39  and  C_48
   19  A    between atoms: C_40  and  N_45
   20  A    between atoms: N_45  and  C_49
   21  A    between atoms: O_51  and  C_54
                            x       y       z     vdW  Elec       q    Type
                         _______ _______ _______ _____ _____    ______ ____

>  <TORSDO>
F 21

$$$$
=
 OpenBabel11052419513D

 55 58  0  0  1  0  0  0  0  0999 V2000
  193.4380  171.4630  144.7610 C   0  0  0  0  0  2  0  0  0  0  0  0
  195.1030  173.8260  144.1570 C   0  0  2  0  0  3  0  0  0  0  0  0
  194.0350  173.3450  143.1670 C   0  0  2  0  0  3  0  0  0  0  0  0
  194.4030  172.0230  145.7940 C   0  0  0  0  0  2  0  0  0  0  0  0
  192.9030  172.5950  143.8880 C   0  0  0  0  0  2  0  0  0  0  0  0
  195.5790  172.6950  145.0870 C   0  0  0  0  0  2  0  0  0  0  0  0
  194.6190  175.0560  144.9280 C   0  0  0  0  0  2  0  0  0  0  0  0
  193.2610  175.2970  144.6770 O   0  0  0  0  0  0  0  0  0  0  0  0
  193.0090  176.5840  145.1590 C   0  0  0  0  0  2  0  0  0  0  0  0
  191.7060  177.0840  144.6130 C   0  0  2  0  0  3  0  0  0  0  0  0
  190.5050  177.4310  145.6290 S   0  0  0  0  0  0  0  0  0  0  0  0
  191.5280  177.2550  143.1350 C   0  0  0  0  0  1  0  0  0  0  0  0
  189.5480  174.9650  144.3420 O   0  0  0  0  0  0  0  0  0  0  0  0
  188.9800  176.0760  145.1750 S   0  0  0  0  0  0  0  0  0  0  0  0
  188.4750  175.5040  146.4740 O   0  0  0  0  0  0  0  0  0  0  0  0
  184.7150  178.1520  143.4580 C   0  0  0  0  0  2  0  0  0  0  0  0
  187.6640  176.9370  144.2880 C   0  0  2  0  0  3  0  0  0  0  0  0
  185.9890  179.6500  145.0940 C   0  0  0  0  0  2  0  0  0  0  0  0
  186.2200  176.5020  146.1480 O   0  0  0  0  0  0  0  0  0  0  0  0
  186.4330  177.1600  145.1400 C   0  0  0  0  0  0  0  0  0  0  0  0
  185.9800  176.3510  142.5000 O   0  0  0  0  0  0  0  0  0  0  0  0
  184.8370  179.0370  145.8850 C   0  0  0  0  0  2  0  0  0  0  0  0
  185.6790  177.7210  142.3590 C   0  0  1  0  0  3  0  0  0  0  0  0
  185.4850  178.2610  144.7610 C   0  0  0  0  0  0  0  0  0  0  0  0
  188.3400  176.3250  141.8620 C   0  0  0  0  0  1  0  0  0  0  0  0
  187.3050  176.1960  142.9760 C   0  0  1  0  0  3  0  0  0  0  0  0
  185.1410  178.0320  141.0010 C   0  0  0  0  0  0  0  0  0  0  0  0
  183.7510  178.2930  140.8290 N   0  0  0  0  0  1  0  0  0  0  0  0
  185.9190  178.1870  140.0190 O   0  0  0  0  0  0  0  0  0  0  0  0
  194.6900  172.4910  142.0850 C   0  0  0  0  0  2  0  0  0  0  0  0
  194.1610  172.8220  140.7630 N   0  0  0  0  0  2  0  0  0  0  0  0
  193.9220  171.6070  139.9750 C   0  0  1  0  0  3  0  0  0  0  0  0
  194.9180  171.3970  138.8020 C   0  0  1  0  0  3  0  0  0  0  0  0
  192.8290  172.4990  137.8600 C   0  0  0  0  0  2  0  0  0  0  0  0
  192.1900  171.9880  135.4910 C   0  0  0  0  0  2  0  0  0  0  0  0
  193.7600  170.4600  136.7350 N   0  0  0  0  0  0  0  0  0  0  0  0
  193.1500  170.7890  135.4370 C   0  0  0  0  0  2  0  0  0  0  0  0
  191.6690  172.2180  136.9000 C   0  0  0  0  0  2  0  0  0  0  0  0
  194.0800  171.6740  137.5180 C   0  0  2  0  0  3  0  0  0  0  0  0
  194.9170  169.8020  136.4500 O   0  0  0  0  0  1  0  0  0  0  0  0
  197.3080  171.4470  139.3000 C   0  0  0  0  0  1  0  0  0  0  0  0
  196.1420  172.2440  138.9260 N   0  0  0  0  0  0  0  0  0  0  0  0
  196.4920  173.0280  137.7160 C   0  0  0  0  0  2  0  0  0  0  0  0
  196.5610  174.5410  137.8670 C   0  0  0  0  0  0  0  0  0  0  0  0
  196.2310  175.1230  139.2020 C   0  0  0  0  0  1  0  0  0  0  0  0
  197.0060  175.3520  136.9110 C   0  0  0  0  0  2  0  0  0  0  0  0
  193.8100  170.3630  140.8610 C   0  0  0  0  0  2  0  0  0  0  0  0
  192.3840  170.1350  141.3410 C   0  0  0  0  0  2  0  0  0  0  0  0
  191.4820  171.1410  140.6620 C   0  0  0  0  0  2  0  0  0  0  0  0
  190.1320  171.2380  141.3710 C   0  0  0  0  0  2  0  0  0  0  0  0
  188.6320  172.9220  142.1710 O   0  0  0  0  0  1  0  0  0  0  0  0
  189.4420  172.5680  141.0800 C   0  0  1  0  0  0  0  0  0  0  0  0
  190.5230  173.6170  140.9240 C   0  0  0  0  0  1  0  0  0  0  0  0
  188.6500  172.4590  139.8440 N   0  0  0  0  0  2  0  0  0  0  0  0
  188.4980  173.7650  139.2150 C   0  0  0  0  0  1  0  0  0  0  0  0
  1  4  1  0  0  0  0
  2  7  1  1  0  0  0
  2  6  1  0  0  0  0
  3 30  1  6  0  0  0
  3  5  1  0  0  0  0
  3  2  1  0  0  0  0
  5  1  1  0  0  0  0
  6  4  1  0  0  0  0
  8  7  1  0  0  0  0
  8  9  1  0  0  0  0
 10 12  1  6  0  0  0
 10  9  1  0  0  0  0
 10 11  1  0  0  0  0
 13 14  2  0  0  0  0
 14 11  1  0  0  0  0
 14 15  2  0  0  0  0
 16 24  1  0  0  0  0
 17 20  1  0  0  0  0
 17 14  1  1  0  0  0
 18 22  1  0  0  0  0
 20 19  2  0  0  0  0
 21 26  1  0  0  0  0
 23 27  1  6  0  0  0
 23 21  1  0  0  0  0
 23 16  1  0  0  0  0
 24 18  1  0  0  0  0
 24 20  1  0  0  0  0
 24 22  1  0  0  0  0
 26 25  1  6  0  0  0
 26 17  1  0  0  0  0
 28 27  1  0  0  0  0
 29 27  2  0  0  0  0
 31 30  1  0  0  0  0
 32 31  1  0  0  0  0
 32 47  1  1  0  0  0
 33 42  1  1  0  0  0
 33 32  1  0  0  0  0
 35 38  1  0  0  0  0
 36 39  1  0  0  0  0
 37 35  1  0  0  0  0
 37 36  1  0  0  0  0
 38 34  1  0  0  0  0
 39 34  1  0  0  0  0
 39 33  1  1  0  0  0
 40 36  1  0  0  0  0
 42 41  1  0  0  0  0
 43 44  1  0  0  0  0
 43 42  1  0  0  0  0
 44 45  1  0  0  0  0
 46 44  2  0  0  0  0
 47 48  1  0  0  0  0
 49 48  1  0  0  0  0
 49 50  1  0  0  0  0
 52 53  1  6  0  0  0
 52 50  1  0  0  0  0
 52 51  1  0  0  0  0
 54 52  1  0  0  0  0
 55 54  1  0  0  0  0
M  END
>  <MODEL>
6

>  <REMARK>
 VINA RESULT:      -5.2      2.204      5.989
  Name = 
  21 active torsions:
  status: ('A' for Active; 'I' for Inactive)
    1  A    between atoms: C_1  and  C_29
    2  A    between atoms: C_2  and  N_28
    3  A    between atoms: C_2  and  C_31
    4  A    between atoms: C_4  and  C_40
    5  A    between atoms: C_6  and  S_20
    6  A    between atoms: C_8  and  C_35
    7  A    between atoms: N_10  and  C_39
    8  A    between atoms: C_13  and  C_48
    9  A    between atoms: C_13  and  C_52
   10  A    between atoms: S_20  and  S_22
   11  A    between atoms: C_26  and  C_49
   12  A    between atoms: C_27  and  C_54
   13  A    between atoms: N_28  and  C_33
   14  A    between atoms: C_33  and  C_34
   15  A    between atoms: C_33  and  C_49
   16  A    between atoms: C_34  and  C_52
   17  A    between atoms: C_35  and  O_51
   18  A    between atoms: C_39  and  C_48
   19  A    between atoms: C_40  and  N_45
   20  A    between atoms: N_45  and  C_49
   21  A    between atoms: O_51  and  C_54
                            x       y       z     vdW  Elec       q    Type
                         _______ _______ _______ _____ _____    ______ ____

>  <TORSDO>
F 21

$$$$
=
 OpenBabel11052419513D

 55 58  0  0  1  0  0  0  0  0999 V2000
  196.2510  174.7710  145.0230 C   0  0  0  0  0  2  0  0  0  0  0  0
  195.7420  175.1100  142.1340 C   0  0  2  0  0  3  0  0  0  0  0  0
  195.2430  176.1480  143.1460 C   0  0  2  0  0  3  0  0  0  0  0  0
  196.8580  173.8160  144.0060 C   0  0  0  0  0  2  0  0  0  0  0  0
  196.1180  176.1620  144.4100 C   0  0  0  0  0  2  0  0  0  0  0  0
  195.9500  173.7280  142.7800 C   0  0  0  0  0  2  0  0  0  0  0  0
  196.9910  175.6120  141.4070 C   0  0  0  0  0  2  0  0  0  0  0  0
  196.7650  175.6910  140.0270 O   0  0  0  0  0  0  0  0  0  0  0  0
  197.8500  175.0460  139.4270 C   0  0  0  0  0  2  0  0  0  0  0  0
  197.4070  173.7350  138.8530 C   0  0  2  0  0  3  0  0  0  0  0  0
  196.5670  173.7170  137.4780 S   0  0  0  0  0  0  0  0  0  0  0  0
  197.7440  172.4550  139.5560 C   0  0  0  0  0  1  0  0  0  0  0  0
  194.7060  171.4580  137.7680 O   0  0  0  0  0  0  0  0  0  0  0  0
  194.6910  172.9440  137.9790 S   0  0  0  0  0  0  0  0  0  0  0  0
  194.4530  173.2290  139.4380 O   0  0  0  0  0  0  0  0  0  0  0  0
  191.4330  175.9750  135.6040 C   0  0  0  0  0  2  0  0  0  0  0  0
  193.4320  173.7260  136.9490 C   0  0  2  0  0  3  0  0  0  0  0  0
  193.7460  175.9130  134.5130 C   0  0  0  0  0  2  0  0  0  0  0  0
  194.1370  175.8440  137.8170 O   0  0  0  0  0  0  0  0  0  0  0  0
  193.5380  175.2360  136.9410 C   0  0  0  0  0  0  0  0  0  0  0  0
  190.9530  174.1780  137.1220 O   0  0  0  0  0  0  0  0  0  0  0  0
  193.6820  177.2170  135.3030 C   0  0  0  0  0  2  0  0  0  0  0  0
  190.9420  174.5410  135.7590 C   0  0  1  0  0  3  0  0  0  0  0  0
  192.9390  175.9940  135.7920 C   0  0  0  0  0  0  0  0  0  0  0  0
  191.6540  171.8410  136.9760 C   0  0  0  0  0  1  0  0  0  0  0  0
  192.0120  173.2710  137.3700 C   0  0  1  0  0  3  0  0  0  0  0  0
  189.5920  174.3510  135.1480 C   0  0  0  0  0  0  0  0  0  0  0  0
  188.7380  175.4730  134.9490 N   0  0  0  0  0  1  0  0  0  0  0  0
  189.2440  173.2270  134.6930 O   0  0  0  0  0  0  0  0  0  0  0  0
  193.7750  175.8830  143.4680 C   0  0  0  0  0  2  0  0  0  0  0  0
  193.0760  175.3200  142.3150 N   0  0  0  0  0  2  0  0  0  0  0  0
  191.6520  175.1220  142.6110 C   0  0  1  0  0  3  0  0  0  0  0  0
  191.2920  173.6940  143.1030 C   0  0  1  0  0  3  0  0  0  0  0  0
  190.2910  174.0210  140.7890 C   0  0  0  0  0  2  0  0  0  0  0  0
  188.2400  172.7090  140.1930 C   0  0  0  0  0  2  0  0  0  0  0  0
  188.8860  173.0180  142.6090 N   0  0  0  0  0  0  0  0  0  0  0  0
  187.9940  172.3310  141.6620 C   0  0  0  0  0  2  0  0  0  0  0  0
  188.9360  174.0550  140.0760 C   0  0  0  0  0  2  0  0  0  0  0  0
  190.2550  173.1670  142.0670 C   0  0  2  0  0  3  0  0  0  0  0  0
  188.9340  172.2310  143.7180 O   0  0  0  0  0  1  0  0  0  0  0  0
  192.8890  172.7080  144.6650 C   0  0  0  0  0  1  0  0  0  0  0  0
  192.4920  172.8190  143.2630 N   0  0  0  0  0  0  0  0  0  0  0  0
  192.3500  171.4470  142.7160 C   0  0  0  0  0  2  0  0  0  0  0  0
  193.6170  170.6120  142.6020 C   0  0  0  0  0  0  0  0  0  0  0  0
  194.3790  170.6750  141.3190 C   0  0  0  0  0  1  0  0  0  0  0  0
  194.1350  169.9260  143.6180 C   0  0  0  0  0  2  0  0  0  0  0  0
  191.1050  176.2050  143.5440 C   0  0  0  0  0  2  0  0  0  0  0  0
  189.9130  176.9300  142.9340 C   0  0  0  0  0  2  0  0  0  0  0  0
  188.6600  176.4820  143.6520 C   0  0  0  0  0  2  0  0  0  0  0  0
  188.9930  175.8610  145.0080 C   0  0  0  0  0  2  0  0  0  0  0  0
  187.8850  175.6280  147.1160 O   0  0  0  0  0  1  0  0  0  0  0  0
  188.2560  176.5690  146.1420 C   0  0  1  0  0  0  0  0  0  0  0  0
  189.2220  177.5520  146.7690 C   0  0  0  0  0  1  0  0  0  0  0  0
  187.0790  177.2750  145.6090 N   0  0  0  0  0  2  0  0  0  0  0  0
  186.4590  178.0930  146.6440 C   0  0  0  0  0  1  0  0  0  0  0  0
  2  7  1  1  0  0  0
  2  6  1  0  0  0  0
  2  3  1  0  0  0  0
  3 30  1  1  0  0  0
  3  5  1  0  0  0  0
  4  1  1  0  0  0  0
  5  1  1  0  0  0  0
  6  4  1  0  0  0  0
  8  7  1  0  0  0  0
  9  8  1  0  0  0  0
 10  9  1  0  0  0  0
 10 12  1  1  0  0  0
 11 14  1  0  0  0  0
 11 10  1  0  0  0  0
 13 14  2  0  0  0  0
 14 15  2  0  0  0  0
 16 23  1  0  0  0  0
 16 24  1  0  0  0  0
 17 26  1  0  0  0  0
 17 14  1  1  0  0  0
 18 22  1  0  0  0  0
 18 24  1  0  0  0  0
 20 17  1  0  0  0  0
 20 19  2  0  0  0  0
 21 26  1  0  0  0  0
 22 24  1  0  0  0  0
 23 27  1  1  0  0  0
 23 21  1  0  0  0  0
 24 20  1  0  0  0  0
 26 25  1  6  0  0  0
 28 27  1  0  0  0  0
 29 27  2  0  0  0  0
 31 32  1  0  0  0  0
 31 30  1  0  0  0  0
 32 33  1  0  0  0  0
 32 47  1  1  0  0  0
 33 42  1  6  0  0  0
 34 39  1  0  0  0  0
 35 37  1  0  0  0  0
 36 40  1  0  0  0  0
 37 36  1  0  0  0  0
 38 35  1  0  0  0  0
 38 34  1  0  0  0  0
 39 36  1  0  0  0  0
 39 33  1  1  0  0  0
 42 41  1  0  0  0  0
 43 42  1  0  0  0  0
 44 43  1  0  0  0  0
 44 46  2  0  0  0  0
 45 44  1  0  0  0  0
 48 47  1  0  0  0  0
 48 49  1  0  0  0  0
 49 50  1  0  0  0  0
 50 52  1  0  0  0  0
 52 53  1  1  0  0  0
 52 51  1  0  0  0  0
 54 52  1  0  0  0  0
 54 55  1  0  0  0  0
M  END
>  <MODEL>
7

>  <REMARK>
 VINA RESULT:      -5.0      3.185      9.116
  Name = 
  21 active torsions:
  status: ('A' for Active; 'I' for Inactive)
    1  A    between atoms: C_1  and  C_29
    2  A    between atoms: C_2  and  N_28
    3  A    between atoms: C_2  and  C_31
    4  A    between atoms: C_4  and  C_40
    5  A    between atoms: C_6  and  S_20
    6  A    between atoms: C_8  and  C_35
    7  A    between atoms: N_10  and  C_39
    8  A    between atoms: C_13  and  C_48
    9  A    between atoms: C_13  and  C_52
   10  A    between atoms: S_20  and  S_22
   11  A    between atoms: C_26  and  C_49
   12  A    between atoms: C_27  and  C_54
   13  A    between atoms: N_28  and  C_33
   14  A    between atoms: C_33  and  C_34
   15  A    between atoms: C_33  and  C_49
   16  A    between atoms: C_34  and  C_52
   17  A    between atoms: C_35  and  O_51
   18  A    between atoms: C_39  and  C_48
   19  A    between atoms: C_40  and  N_45
   20  A    between atoms: N_45  and  C_49
   21  A    between atoms: O_51  and  C_54
                            x       y       z     vdW  Elec       q    Type
                         _______ _______ _______ _____ _____    ______ ____

>  <TORSDO>
F 21

$$$$
=
 OpenBabel11052419513D

 55 58  0  0  1  0  0  0  0  0999 V2000
  187.2150  174.7000  142.4140 C   0  0  0  0  0  2  0  0  0  0  0  0
  189.6560  173.8490  140.9870 C   0  0  2  0  0  3  0  0  0  0  0  0
  188.9920  172.9330  142.0230 C   0  0  2  0  0  3  0  0  0  0  0  0
  187.7990  175.5460  141.2940 C   0  0  0  0  0  2  0  0  0  0  0  0
  187.4870  173.2240  142.1430 C   0  0  0  0  0  2  0  0  0  0  0  0
  189.3100  175.3300  141.2220 C   0  0  0  0  0  2  0  0  0  0  0  0
  189.3320  173.3890  139.5640 C   0  0  0  0  0  2  0  0  0  0  0  0
  190.3700  173.7250  138.6850 O   0  0  0  0  0  0  0  0  0  0  0  0
  189.9040  173.4080  137.4070 C   0  0  0  0  0  2  0  0  0  0  0  0
  190.5050  172.1120  136.9550 C   0  0  2  0  0  3  0  0  0  0  0  0
  191.9970  171.7260  137.4240 S   0  0  0  0  0  0  0  0  0  0  0  0
  189.7210  171.1880  136.0730 C   0  0  0  0  0  1  0  0  0  0  0  0
  194.0290  170.4600  135.7160 O   0  0  0  0  0  0  0  0  0  0  0  0
  193.1350  171.6640  135.6730 S   0  0  0  0  0  0  0  0  0  0  0  0
  192.1840  171.5260  134.5130 O   0  0  0  0  0  0  0  0  0  0  0  0
  196.2770  175.5790  136.1690 C   0  0  0  0  0  2  0  0  0  0  0  0
  194.1060  173.1800  135.5410 C   0  0  2  0  0  3  0  0  0  0  0  0
  197.3090  173.5970  134.9240 C   0  0  0  0  0  2  0  0  0  0  0  0
  195.4180  172.4190  137.3950 O   0  0  0  0  0  0  0  0  0  0  0  0
  195.3270  173.1720  136.4360 C   0  0  0  0  0  0  0  0  0  0  0  0
  193.8830  175.5670  136.3340 O   0  0  0  0  0  0  0  0  0  0  0  0
  197.8720  173.5490  136.3410 C   0  0  0  0  0  2  0  0  0  0  0  0
  194.9560  175.9290  135.4950 C   0  0  1  0  0  3  0  0  0  0  0  0
  196.4760  174.0760  136.0940 C   0  0  0  0  0  0  0  0  0  0  0  0
  192.2520  174.7800  134.6920 C   0  0  0  0  0  1  0  0  0  0  0  0
  193.2260  174.4260  135.8130 C   0  0  1  0  0  3  0  0  0  0  0  0
  194.8980  177.3710  135.1130 C   0  0  0  0  0  0  0  0  0  0  0  0
  196.0330  177.9980  134.5240 N   0  0  0  0  0  1  0  0  0  0  0  0
  193.8150  178.0150  135.1920 O   0  0  0  0  0  0  0  0  0  0  0  0
  189.7110  173.0700  143.3620 C   0  0  0  0  0  2  0  0  0  0  0  0
  190.9830  173.7710  143.2060 N   0  0  0  0  0  2  0  0  0  0  0  0
  191.5800  174.0710  144.5140 C   0  0  1  0  0  3  0  0  0  0  0  0
  192.7220  175.1230  144.4710 C   0  0  1  0  0  3  0  0  0  0  0  0
  193.7090  172.8050  144.8210 C   0  0  0  0  0  2  0  0  0  0  0  0
  196.0730  172.6390  145.6340 C   0  0  0  0  0  2  0  0  0  0  0  0
  194.7830  174.7830  145.9300 N   0  0  0  0  0  0  0  0  0  0  0  0
  196.0930  174.1220  146.0360 C   0  0  0  0  0  2  0  0  0  0  0  0
  194.6750  172.0540  145.7410 C   0  0  0  0  0  2  0  0  0  0  0  0
  194.0200  174.3090  144.7530 C   0  0  2  0  0  3  0  0  0  0  0  0
  195.0420  176.1100  145.7820 O   0  0  0  0  0  1  0  0  0  0  0  0
  192.1610  177.2190  143.3510 C   0  0  0  0  0  1  0  0  0  0  0  0
  192.7510  175.8920  143.1900 N   0  0  0  0  0  0  0  0  0  0  0  0
  194.0950  176.0570  142.5840 C   0  0  0  0  0  2  0  0  0  0  0  0
  194.3420  175.3680  141.2500 C   0  0  0  0  0  0  0  0  0  0  0  0
  193.3100  174.4060  140.7610 C   0  0  0  0  0  1  0  0  0  0  0  0
  195.3660  175.6630  140.4530 C   0  0  0  0  0  2  0  0  0  0  0  0
  190.5190  174.4190  145.5610 C   0  0  0  0  0  2  0  0  0  0  0  0
  191.0250  175.4500  146.5590 C   0  0  0  0  0  2  0  0  0  0  0  0
  190.0140  176.5700  146.6460 C   0  0  0  0  0  2  0  0  0  0  0  0
  188.5860  176.0330  146.5640 C   0  0  0  0  0  2  0  0  0  0  0  0
  188.2400  177.9550  145.1800 O   0  0  0  0  0  1  0  0  0  0  0  0
  187.6080  177.1130  146.1100 C   0  0  1  0  0  0  0  0  0  0  0  0
  186.4520  176.4190  145.4200 C   0  0  0  0  0  1  0  0  0  0  0  0
  187.1280  177.8730  147.2750 N   0  0  0  0  0  2  0  0  0  0  0  0
  185.8790  178.5590  146.9630 C   0  0  0  0  0  1  0  0  0  0  0  0
  2  7  1  6  0  0  0
  2  6  1  0  0  0  0
  2  3  1  0  0  0  0
  3  5  1  0  0  0  0
  3 30  1  1  0  0  0
  4  1  1  0  0  0  0
  5  1  1  0  0  0  0
  6  4  1  0  0  0  0
  8  7  1  0  0  0  0
  9  8  1  0  0  0  0
 10 12  1  6  0  0  0
 10  9  1  0  0  0  0
 10 11  1  0  0  0  0
 14 13  2  0  0  0  0
 14 11  1  0  0  0  0
 15 14  2  0  0  0  0
 17 14  1  1  0  0  0
 17 26  1  0  0  0  0
 17 20  1  0  0  0  0
 18 24  1  0  0  0  0
 18 22  1  0  0  0  0
 20 19  2  0  0  0  0
 23 27  1  1  0  0  0
 23 16  1  0  0  0  0
 23 21  1  0  0  0  0
 24 16  1  0  0  0  0
 24 22  1  0  0  0  0
 24 20  1  0  0  0  0
 26 25  1  6  0  0  0
 26 21  1  0  0  0  0
 27 29  2  0  0  0  0
 28 27  1  0  0  0  0
 31 30  1  0  0  0  0
 31 32  1  0  0  0  0
 32 47  1  1  0  0  0
 33 42  1  6  0  0  0
 33 32  1  0  0  0  0
 34 38  1  0  0  0  0
 35 38  1  0  0  0  0
 35 37  1  0  0  0  0
 36 37  1  0  0  0  0
 39 33  1  1  0  0  0
 39 34  1  0  0  0  0
 39 36  1  0  0  0  0
 40 36  1  0  0  0  0
 42 41  1  0  0  0  0
 43 42  1  0  0  0  0
 44 43  1  0  0  0  0
 45 44  1  0  0  0  0
 46 44  2  0  0  0  0
 47 48  1  0  0  0  0
 48 49  1  0  0  0  0
 50 49  1  0  0  0  0
 51 52  1  0  0  0  0
 52 53  1  6  0  0  0
 52 50  1  0  0  0  0
 52 54  1  0  0  0  0
 55 54  1  0  0  0  0
M  END
>  <MODEL>
8

>  <REMARK>
 VINA RESULT:      -5.0      3.087      9.479
  Name = 
  21 active torsions:
  status: ('A' for Active; 'I' for Inactive)
    1  A    between atoms: C_1  and  C_29
    2  A    between atoms: C_2  and  N_28
    3  A    between atoms: C_2  and  C_31
    4  A    between atoms: C_4  and  C_40
    5  A    between atoms: C_6  and  S_20
    6  A    between atoms: C_8  and  C_35
    7  A    between atoms: N_10  and  C_39
    8  A    between atoms: C_13  and  C_48
    9  A    between atoms: C_13  and  C_52
   10  A    between atoms: S_20  and  S_22
   11  A    between atoms: C_26  and  C_49
   12  A    between atoms: C_27  and  C_54
   13  A    between atoms: N_28  and  C_33
   14  A    between atoms: C_33  and  C_34
   15  A    between atoms: C_33  and  C_49
   16  A    between atoms: C_34  and  C_52
   17  A    between atoms: C_35  and  O_51
   18  A    between atoms: C_39  and  C_48
   19  A    between atoms: C_40  and  N_45
   20  A    between atoms: N_45  and  C_49
   21  A    between atoms: O_51  and  C_54
                            x       y       z     vdW  Elec       q    Type
                         _______ _______ _______ _____ _____    ______ ____

>  <TORSDO>
F 21

$$$$
=
 OpenBabel11052419513D

 55 58  0  0  1  0  0  0  0  0999 V2000
  188.8640  171.7360  137.8600 C   0  0  0  0  0  2  0  0  0  0  0  0
  191.4050  172.9530  138.7430 C   0  0  2  0  0  3  0  0  0  0  0  0
  190.8610  171.6920  139.4240 C   0  0  2  0  0  3  0  0  0  0  0  0
  189.4740  172.9050  137.1030 C   0  0  0  0  0  2  0  0  0  0  0  0
  189.9720  170.8800  138.4680 C   0  0  0  0  0  2  0  0  0  0  0  0
  190.2900  173.7690  138.0630 C   0  0  0  0  0  2  0  0  0  0  0  0
  192.5470  172.6070  137.7840 C   0  0  0  0  0  2  0  0  0  0  0  0
  193.0180  171.3100  138.0200 O   0  0  0  0  0  0  0  0  0  0  0  0
  194.4110  171.3930  137.9510 C   0  0  0  0  0  2  0  0  0  0  0  0
  195.0260  170.2770  138.7400 C   0  0  2  0  0  3  0  0  0  0  0  0
  194.6900  170.1410  140.3100 S   0  0  0  0  0  0  0  0  0  0  0  0
  195.9470  169.3020  138.0700 C   0  0  0  0  0  1  0  0  0  0  0  0
  196.6760  169.3790  142.3410 O   0  0  0  0  0  0  0  0  0  0  0  0
  196.5050  170.4460  141.3000 S   0  0  0  0  0  0  0  0  0  0  0  0
  197.6080  170.3180  140.2820 O   0  0  0  0  0  0  0  0  0  0  0  0
  195.7180  174.6640  143.9510 C   0  0  0  0  0  2  0  0  0  0  0  0
  196.5020  172.0860  142.0540 C   0  0  2  0  0  3  0  0  0  0  0  0
  197.2940  173.0140  145.1070 C   0  0  0  0  0  2  0  0  0  0  0  0
  194.8710  171.2880  143.6160 O   0  0  0  0  0  0  0  0  0  0  0  0
  195.7100  172.1350  143.3430 C   0  0  0  0  0  0  0  0  0  0  0  0
  195.3780  174.3020  141.6030 O   0  0  0  0  0  0  0  0  0  0  0  0
  195.9420  172.8690  145.7990 C   0  0  0  0  0  2  0  0  0  0  0  0
  196.2380  174.9100  142.5400 C   0  0  1  0  0  3  0  0  0  0  0  0
  196.0100  173.2240  144.3310 C   0  0  0  0  0  0  0  0  0  0  0  0
  196.9850  173.5070  139.9410 C   0  0  0  0  0  1  0  0  0  0  0  0
  195.9990  173.1550  141.0510 C   0  0  1  0  0  3  0  0  0  0  0  0
  196.4160  176.3670  142.2630 C   0  0  0  0  0  0  0  0  0  0  0  0
  195.6290  177.0010  141.2600 N   0  0  0  0  0  1  0  0  0  0  0  0
  197.1680  177.0730  142.9890 O   0  0  0  0  0  0  0  0  0  0  0  0
  190.1240  172.0790  140.7020 C   0  0  0  0  0  2  0  0  0  0  0  0
  191.0350  172.6840  141.6720 N   0  0  0  0  0  2  0  0  0  0  0  0
  190.3240  173.6350  142.5360 C   0  0  1  0  0  3  0  0  0  0  0  0
  191.2360  174.3940  143.5390 C   0  0  1  0  0  3  0  0  0  0  0  0
  192.0400  176.6950  142.8140 C   0  0  0  0  0  2  0  0  0  0  0  0
  190.5830  178.6690  143.3250 C   0  0  0  0  0  2  0  0  0  0  0  0
  190.2700  176.5080  144.5810 N   0  0  0  0  0  0  0  0  0  0  0  0
  189.7360  177.8530  144.3130 C   0  0  0  0  0  2  0  0  0  0  0  0
  192.0130  178.1580  143.2660 C   0  0  0  0  0  2  0  0  0  0  0  0
  190.8500  175.8930  143.3670 C   0  0  2  0  0  3  0  0  0  0  0  0
  189.2100  175.7590  144.9910 O   0  0  0  0  0  1  0  0  0  0  0  0
  190.5550  172.5330  144.9650 C   0  0  0  0  0  1  0  0  0  0  0  0
  191.1040  173.8870  144.9380 N   0  0  0  0  0  0  0  0  0  0  0  0
  192.3580  173.8890  145.7310 C   0  0  0  0  0  2  0  0  0  0  0  0
  192.6220  175.1070  146.6040 C   0  0  0  0  0  0  0  0  0  0  0  0
  191.6490  175.4030  147.6990 C   0  0  0  0  0  1  0  0  0  0  0  0
  193.7240  175.8470  146.5150 C   0  0  0  0  0  2  0  0  0  0  0  0
  189.4380  174.5890  141.7320 C   0  0  0  0  0  2  0  0  0  0  0  0
  188.0220  174.6500  142.2860 C   0  0  0  0  0  2  0  0  0  0  0  0
  187.4750  176.0400  142.0540 C   0  0  0  0  0  2  0  0  0  0  0  0
  186.1700  176.2530  142.8180 C   0  0  0  0  0  2  0  0  0  0  0  0
  186.6900  178.5170  142.2400 O   0  0  0  0  0  1  0  0  0  0  0  0
  185.9380  177.7300  143.1280 C   0  0  1  0  0  0  0  0  0  0  0  0
  184.4690  178.0180  142.8990 C   0  0  0  0  0  1  0  0  0  0  0  0
  186.3040  178.0100  144.5260 N   0  0  0  0  0  2  0  0  0  0  0  0
  185.6610  177.0600  145.4260 C   0  0  0  0  0  1  0  0  0  0  0  0
  1  5  1  0  0  0  0
  2  7  1  6  0  0  0
  2  3  1  0  0  0  0
  3 30  1  1  0  0  0
  4  1  1  0  0  0  0
  4  6  1  0  0  0  0
  5  3  1  0  0  0  0
  6  2  1  0  0  0  0
  7  8  1  0  0  0  0
  9  8  1  0  0  0  0
  9 10  1  0  0  0  0
 10 12  1  1  0  0  0
 10 11  1  0  0  0  0
 11 14  1  0  0  0  0
 14 13  2  0  0  0  0
 15 14  2  0  0  0  0
 16 24  1  0  0  0  0
 17 14  1  6  0  0  0
 17 20  1  0  0  0  0
 18 22  1  0  0  0  0
 20 19  2  0  0  0  0
 20 24  1  0  0  0  0
 21 23  1  0  0  0  0
 23 27  1  6  0  0  0
 23 16  1  0  0  0  0
 24 18  1  0  0  0  0
 24 22  1  0  0  0  0
 26 25  1  1  0  0  0
 26 21  1  0  0  0  0
 26 17  1  0  0  0  0
 27 29  2  0  0  0  0
 28 27  1  0  0  0  0
 30 31  1  0  0  0  0
 31 32  1  0  0  0  0
 32 47  1  6  0  0  0
 32 33  1  0  0  0  0
 33 42  1  1  0  0  0
 34 38  1  0  0  0  0
 34 39  1  0  0  0  0
 35 37  1  0  0  0  0
 36 40  1  0  0  0  0
 37 36  1  0  0  0  0
 38 35  1  0  0  0  0
 39 33  1  1  0  0  0
 39 36  1  0  0  0  0
 42 41  1  0  0  0  0
 42 43  1  0  0  0  0
 43 44  1  0  0  0  0
 44 45  1  0  0  0  0
 46 44  2  0  0  0  0
 47 48  1  0  0  0  0
 49 48  1  0  0  0  0
 49 50  1  0  0  0  0
 50 52  1  0  0  0  0
 51 52  1  0  0  0  0
 52 53  1  6  0  0  0
 52 54  1  0  0  0  0
 54 55  1  0  0  0  0
M  END
>  <MODEL>
9

>  <REMARK>
 VINA RESULT:      -5.0      3.077      8.719
  Name = 
  21 active torsions:
  status: ('A' for Active; 'I' for Inactive)
    1  A    between atoms: C_1  and  C_29
    2  A    between atoms: C_2  and  N_28
    3  A    between atoms: C_2  and  C_31
    4  A    between atoms: C_4  and  C_40
    5  A    between atoms: C_6  and  S_20
    6  A    between atoms: C_8  and  C_35
    7  A    between atoms: N_10  and  C_39
    8  A    between atoms: C_13  and  C_48
    9  A    between atoms: C_13  and  C_52
   10  A    between atoms: S_20  and  S_22
   11  A    between atoms: C_26  and  C_49
   12  A    between atoms: C_27  and  C_54
   13  A    between atoms: N_28  and  C_33
   14  A    between atoms: C_33  and  C_34
   15  A    between atoms: C_33  and  C_49
   16  A    between atoms: C_34  and  C_52
   17  A    between atoms: C_35  and  O_51
   18  A    between atoms: C_39  and  C_48
   19  A    between atoms: C_40  and  N_45
   20  A    between atoms: N_45  and  C_49
   21  A    between atoms: O_51  and  C_54
                            x       y       z     vdW  Elec       q    Type
                         _______ _______ _______ _____ _____    ______ ____

>  <TORSDO>
F 21

$$$$
