=
 OpenBabel11052418123D

 28 32  0  0  1  0  0  0  0  0999 V2000
  190.9370  175.3400  144.5220 C   0  0  1  0  0  3  0  0  0  0  0  0
  186.7710  176.9370  141.4910 C   0  0  0  0  0  3  0  0  0  0  0  0
  189.0690  177.3490  146.8960 C   0  0  0  0  0  1  0  0  0  0  0  0
  185.4080  177.8480  143.2870 C   0  0  0  0  0  0  0  0  0  0  0  0
  187.3450  176.3210  143.8700 C   0  0  1  0  0  3  0  0  0  0  0  0
  184.8740  178.3460  140.9740 C   0  0  0  0  0  0  0  0  0  0  0  0
  186.5290  177.0920  142.8640 C   0  0  0  0  0  0  0  0  0  0  0  0
  185.8260  177.0900  145.6750 C   0  0  0  0  0  2  0  0  0  0  0  0
  184.6030  178.4850  142.3380 C   0  0  0  0  0  3  0  0  0  0  0  0
  188.9230  175.0450  145.7370 C   0  0  1  0  0  3  0  0  0  0  0  0
  188.8180  176.1920  143.5080 C   0  0  0  0  0  2  0  0  0  0  0  0
  185.1060  178.0730  144.7490 C   0  0  0  0  0  2  0  0  0  0  0  0
  190.0700  174.5180  146.5940 C   0  0  2  0  0  3  0  0  0  0  0  0
  188.1590  176.2930  146.2870 C   0  0  2  0  0  3  0  0  0  0  0  0
  189.9480  174.8480  147.9460 O   0  0  0  0  0  1  0  0  0  0  0  0
  184.0850  178.9640  140.0620 F   0  0  0  0  0  0  0  0  0  0  0  0
  185.9530  177.5690  140.5510 C   0  0  0  0  0  3  0  0  0  0  0  0
  187.2770  176.9780  145.2410 C   0  0  1  0  0  3  0  0  0  0  0  0
  191.3070  175.1330  145.9840 C   0  0  0  0  0  2  0  0  0  0  0  0
  189.4750  175.2000  144.3760 N   0  0  1  0  0  0  0  0  0  0  0  0
  191.6020  176.5690  143.8650 C   0  0  0  0  0  2  0  0  0  0  0  0
  193.0860  176.4640  143.6920 C   0  0  0  0  0  0  0  0  0  0  0  0
  195.8630  176.3300  143.3540 C   0  0  0  0  0  0  0  0  0  0  0  0
  193.6280  176.1120  142.4490 C   0  0  0  0  0  3  0  0  0  0  0  0
  193.9400  176.7690  144.7580 C   0  0  0  0  0  3  0  0  0  0  0  0
  195.3260  176.6980  144.5920 C   0  0  0  0  0  3  0  0  0  0  0  0
  197.2390  176.2570  143.1900 O   0  0  0  0  0  1  0  0  0  0  0  0
  195.0140  176.0410  142.2820 C   0  0  0  0  0  3  0  0  0  0  0  0
  1 21  1  1  0  0  0
  1 19  1  0  0  0  0
  2  7  1  0  0  0  0
  4 12  1  0  0  0  0
  5 11  1  6  0  0  0
  5 18  1  0  0  0  0
  6  9  2  0  0  0  0
  7  4  2  0  0  0  0
  7  5  1  0  0  0  0
  9  4  1  0  0  0  0
 10 14  1  0  0  0  0
 10 13  1  0  0  0  0
 11 20  1  0  0  0  0
 12  8  1  0  0  0  0
 13 15  1  0  0  0  0
 14  3  1  0  0  0  0
 16  6  1  0  0  0  0
 17  6  1  0  0  0  0
 17  2  2  0  0  0  0
 18  8  1  0  0  0  0
 18 14  1  0  0  0  0
 19 13  1  0  0  0  0
 20  1  1  0  0  0  0
 20 10  1  0  0  0  0
 22 21  1  0  0  0  0
 22 25  1  0  0  0  0
 23 26  1  0  0  0  0
 24 22  2  0  0  0  0
 26 25  2  0  0  0  0
 27 23  1  0  0  0  0
 28 24  1  0  0  0  0
 28 23  2  0  0  0  0
M  END
>  <MODEL>
1

>  <REMARK>
 VINA RESULT:      -8.4      0.000      0.000
  Name = 
  2 active torsions:
  status: ('A' for Active; 'I' for Inactive)
    1  A    between atoms: C_1  and  C_2
    2  A    between atoms: C_2  and  C_3
                            x       y       z     vdW  Elec       q    Type
                         _______ _______ _______ _____ _____    ______ ____

>  <TORSDO>
F 2

$$$$
=
 OpenBabel11052418123D

 28 32  0  0  1  0  0  0  0  0999 V2000
  191.7350  175.6710  145.6130 C   0  0  1  0  0  3  0  0  0  0  0  0
  186.8890  177.9720  146.1710 C   0  0  0  0  0  3  0  0  0  0  0  0
  190.5080  175.5630  142.2000 C   0  0  0  0  0  1  0  0  0  0  0  0
  186.4020  178.2540  143.8050 C   0  0  0  0  0  0  0  0  0  0  0  0
  188.7840  177.7640  144.5170 C   0  0  1  0  0  3  0  0  0  0  0  0
  184.6410  178.5040  145.4530 C   0  0  0  0  0  0  0  0  0  0  0  0
  187.3220  177.9460  144.8370 C   0  0  0  0  0  0  0  0  0  0  0  0
  188.3130  178.2550  142.1310 C   0  0  0  0  0  2  0  0  0  0  0  0
  185.0640  178.5100  144.1220 C   0  0  0  0  0  3  0  0  0  0  0  0
  191.4270  177.2790  143.8990 C   0  0  1  0  0  3  0  0  0  0  0  0
  189.5010  176.7750  145.4250 C   0  0  0  0  0  2  0  0  0  0  0  0
  186.7980  178.2190  142.3480 C   0  0  0  0  0  2  0  0  0  0  0  0
  192.8320  176.7010  143.7540 C   0  0  2  0  0  3  0  0  0  0  0  0
  190.4310  176.9870  142.7310 C   0  0  2  0  0  3  0  0  0  0  0  0
  193.2020  176.4710  142.4270 O   0  0  0  0  0  1  0  0  0  0  0  0
  183.3440  178.7580  145.7510 F   0  0  0  0  0  0  0  0  0  0  0  0
  185.5520  178.2410  146.4760 C   0  0  0  0  0  3  0  0  0  0  0  0
  188.9710  177.2770  143.0870 C   0  0  1  0  0  3  0  0  0  0  0  0
  192.7930  175.4180  144.5470 C   0  0  0  0  0  2  0  0  0  0  0  0
  190.9590  176.8690  145.2370 N   0  0  1  0  0  0  0  0  0  0  0  0
  190.9430  174.4140  146.0340 C   0  0  0  0  0  2  0  0  0  0  0  0
  190.7880  173.3800  144.9630 C   0  0  0  0  0  0  0  0  0  0  0  0
  190.4780  171.4030  143.0030 C   0  0  0  0  0  0  0  0  0  0  0  0
  191.8780  172.5850  144.5860 C   0  0  0  0  0  3  0  0  0  0  0  0
  189.5380  173.1670  144.3700 C   0  0  0  0  0  3  0  0  0  0  0  0
  189.3830  172.1830  143.3890 C   0  0  0  0  0  3  0  0  0  0  0  0
  190.3250  170.4290  142.0270 O   0  0  0  0  0  1  0  0  0  0  0  0
  191.7240  171.6010  143.6050 C   0  0  0  0  0  3  0  0  0  0  0  0
  1 21  1  6  0  0  0
  2 17  1  0  0  0  0
  3 14  1  0  0  0  0
  4  9  2  0  0  0  0
  4  7  1  0  0  0  0
  5  7  1  0  0  0  0
  5 11  1  1  0  0  0
  6 16  1  0  0  0  0
  6 17  2  0  0  0  0
  7  2  2  0  0  0  0
  8 12  1  0  0  0  0
  8 18  1  0  0  0  0
  9  6  1  0  0  0  0
 10 20  1  0  0  0  0
 12  4  1  0  0  0  0
 13 10  1  0  0  0  0
 13 19  1  0  0  0  0
 14 18  1  0  0  0  0
 14 10  1  0  0  0  0
 15 13  1  0  0  0  0
 18  5  1  0  0  0  0
 19  1  1  0  0  0  0
 20 11  1  0  0  0  0
 20  1  1  0  0  0  0
 22 21  1  0  0  0  0
 23 26  2  0  0  0  0
 23 28  1  0  0  0  0
 24 22  1  0  0  0  0
 25 22  2  0  0  0  0
 26 25  1  0  0  0  0
 27 23  1  0  0  0  0
 28 24  2  0  0  0  0
M  END
>  <MODEL>
2

>  <REMARK>
 VINA RESULT:      -8.3      2.732      4.661
  Name = 
  2 active torsions:
  status: ('A' for Active; 'I' for Inactive)
    1  A    between atoms: C_1  and  C_2
    2  A    between atoms: C_2  and  C_3
                            x       y       z     vdW  Elec       q    Type
                         _______ _______ _______ _____ _____    ______ ____

>  <TORSDO>
F 2

$$$$
=
 OpenBabel11052418123D

 28 32  0  0  1  0  0  0  0  0999 V2000
  187.8500  176.4070  141.7260 C   0  0  1  0  0  3  0  0  0  0  0  0
  192.6420  176.0260  144.1720 C   0  0  0  0  0  3  0  0  0  0  0  0
  186.8550  176.3350  145.2150 C   0  0  0  0  0  1  0  0  0  0  0  0
  191.8720  176.4550  146.4390 C   0  0  0  0  0  0  0  0  0  0  0  0
  190.3470  177.0250  144.4960 C   0  0  1  0  0  3  0  0  0  0  0  0
  194.0910  175.5560  146.0510 C   0  0  0  0  0  0  0  0  0  0  0  0
  191.6240  176.4400  145.0440 C   0  0  0  0  0  0  0  0  0  0  0  0
  189.6570  177.6460  146.7970 C   0  0  0  0  0  2  0  0  0  0  0  0
  193.0970  175.9930  146.9300 C   0  0  0  0  0  3  0  0  0  0  0  0
  187.9410  177.9540  143.5200 C   0  0  1  0  0  3  0  0  0  0  0  0
  189.8450  176.3470  143.2290 C   0  0  0  0  0  2  0  0  0  0  0  0
  190.8110  176.8660  147.4310 C   0  0  0  0  0  2  0  0  0  0  0  0
  186.6040  178.1390  142.8080 C   0  0  2  0  0  3  0  0  0  0  0  0
  187.8800  177.4380  144.9940 C   0  0  2  0  0  3  0  0  0  0  0  0
  185.5360  178.3460  143.6830 O   0  0  0  0  0  1  0  0  0  0  0  0
  195.2760  175.1150  146.5370 F   0  0  0  0  0  0  0  0  0  0  0  0
  193.8660  175.5770  144.6740 C   0  0  0  0  0  3  0  0  0  0  0  0
  189.2270  176.9410  145.5230 C   0  0  1  0  0  3  0  0  0  0  0  0
  186.4270  176.8720  142.0080 C   0  0  0  0  0  2  0  0  0  0  0  0
  188.7740  177.1450  142.6080 N   0  0  1  0  0  0  0  0  0  0  0  0
  188.0150  174.8740  141.6470 C   0  0  0  0  0  2  0  0  0  0  0  0
  188.7140  174.3800  140.4180 C   0  0  0  0  0  0  0  0  0  0  0  0
  189.9910  173.3990  138.1260 C   0  0  0  0  0  0  0  0  0  0  0  0
  189.9720  173.7720  140.5180 C   0  0  0  0  0  3  0  0  0  0  0  0
  188.0890  174.4760  139.1690 C   0  0  0  0  0  3  0  0  0  0  0  0
  188.7270  173.9900  138.0240 C   0  0  0  0  0  3  0  0  0  0  0  0
  190.6250  172.9200  136.9890 O   0  0  0  0  0  1  0  0  0  0  0  0
  190.6110  173.2860  139.3730 C   0  0  0  0  0  3  0  0  0  0  0  0
  1 21  1  1  0  0  0
  1 19  1  0  0  0  0
  1 20  1  0  0  0  0
  2 17  2  0  0  0  0
  2  7  1  0  0  0  0
  4  9  1  0  0  0  0
  4 12  1  0  0  0  0
  5 11  1  6  0  0  0
  5  7  1  0  0  0  0
  5 18  1  0  0  0  0
  6 16  1  0  0  0  0
  6  9  2  0  0  0  0
  7  4  2  0  0  0  0
  8 12  1  0  0  0  0
 10 14  1  0  0  0  0
 13 10  1  0  0  0  0
 13 15  1  0  0  0  0
 14  3  1  0  0  0  0
 14 18  1  0  0  0  0
 17  6  1  0  0  0  0
 18  8  1  0  0  0  0
 19 13  1  0  0  0  0
 20 11  1  0  0  0  0
 20 10  1  0  0  0  0
 22 24  1  0  0  0  0
 22 21  1  0  0  0  0
 23 28  1  0  0  0  0
 25 22  2  0  0  0  0
 26 23  2  0  0  0  0
 26 25  1  0  0  0  0
 27 23  1  0  0  0  0
 28 24  2  0  0  0  0
M  END
>  <MODEL>
3

>  <REMARK>
 VINA RESULT:      -8.0      4.204      6.836
  Name = 
  2 active torsions:
  status: ('A' for Active; 'I' for Inactive)
    1  A    between atoms: C_1  and  C_2
    2  A    between atoms: C_2  and  C_3
                            x       y       z     vdW  Elec       q    Type
                         _______ _______ _______ _____ _____    ______ ____

>  <TORSDO>
F 2

$$$$
=
 OpenBabel11052418123D

 28 32  0  0  1  0  0  0  0  0999 V2000
  193.7560  175.9730  144.6020 C   0  0  1  0  0  3  0  0  0  0  0  0
  188.8510  177.4340  146.3040 C   0  0  0  0  0  3  0  0  0  0  0  0
  191.6360  174.0950  142.3340 C   0  0  0  0  0  1  0  0  0  0  0  0
  187.5850  176.5020  144.4480 C   0  0  0  0  0  0  0  0  0  0  0  0
  190.0900  176.8000  144.1990 C   0  0  1  0  0  3  0  0  0  0  0  0
  186.4500  177.1930  146.4770 C   0  0  0  0  0  0  0  0  0  0  0  0
  188.8280  176.8640  145.0230 C   0  0  0  0  0  0  0  0  0  0  0  0
  188.7610  176.0440  142.2440 C   0  0  0  0  0  2  0  0  0  0  0  0
  186.4090  176.6510  145.1900 C   0  0  0  0  0  3  0  0  0  0  0  0
  192.4090  176.5270  142.7320 C   0  0  1  0  0  3  0  0  0  0  0  0
  191.3410  176.4770  145.0020 C   0  0  0  0  0  2  0  0  0  0  0  0
  187.4940  175.8630  143.0840 C   0  0  0  0  0  2  0  0  0  0  0  0
  193.8060  176.1890  142.2200 C   0  0  2  0  0  3  0  0  0  0  0  0
  191.2560  175.5670  142.2940 C   0  0  2  0  0  3  0  0  0  0  0  0
  193.7980  175.4350  141.0450 O   0  0  0  0  0  1  0  0  0  0  0  0
  185.3050  177.3380  147.1860 F   0  0  0  0  0  0  0  0  0  0  0  0
  187.6680  177.5880  147.0320 C   0  0  0  0  0  3  0  0  0  0  0  0
  189.9720  175.7440  143.1090 C   0  0  1  0  0  3  0  0  0  0  0  0
  194.4490  175.4330  143.3580 C   0  0  0  0  0  2  0  0  0  0  0  0
  192.5480  176.7130  144.1900 N   0  0  1  0  0  0  0  0  0  0  0  0
  193.6040  174.9430  145.7430 C   0  0  0  0  0  2  0  0  0  0  0  0
  194.6060  173.8300  145.7230 C   0  0  0  0  0  0  0  0  0  0  0  0
  196.4640  171.7350  145.7480 C   0  0  0  0  0  0  0  0  0  0  0  0
  195.9450  174.0810  146.0480 C   0  0  0  0  0  3  0  0  0  0  0  0
  194.1970  172.5240  145.4310 C   0  0  0  0  0  3  0  0  0  0  0  0
  195.1250  171.4780  145.4390 C   0  0  0  0  0  3  0  0  0  0  0  0
  197.3860  170.6980  145.7520 O   0  0  0  0  0  1  0  0  0  0  0  0
  196.8740  173.0350  146.0560 C   0  0  0  0  0  3  0  0  0  0  0  0
  1 21  1  1  0  0  0
  2 17  1  0  0  0  0
  4  7  1  0  0  0  0
  4  9  2  0  0  0  0
  5 11  1  1  0  0  0
  5  7  1  0  0  0  0
  6 17  2  0  0  0  0
  6 16  1  0  0  0  0
  7  2  2  0  0  0  0
  8 12  1  0  0  0  0
  8 18  1  0  0  0  0
  9  6  1  0  0  0  0
 10 20  1  0  0  0  0
 12  4  1  0  0  0  0
 13 10  1  0  0  0  0
 13 19  1  0  0  0  0
 14  3  1  0  0  0  0
 14 10  1  0  0  0  0
 14 18  1  0  0  0  0
 15 13  1  0  0  0  0
 18  5  1  0  0  0  0
 19  1  1  0  0  0  0
 20  1  1  0  0  0  0
 20 11  1  0  0  0  0
 22 21  1  0  0  0  0
 22 24  1  0  0  0  0
 23 27  1  0  0  0  0
 23 28  1  0  0  0  0
 24 28  2  0  0  0  0
 25 26  1  0  0  0  0
 25 22  2  0  0  0  0
 26 23  2  0  0  0  0
M  END
>  <MODEL>
4

>  <REMARK>
 VINA RESULT:      -7.9      3.066      4.877
  Name = 
  2 active torsions:
  status: ('A' for Active; 'I' for Inactive)
    1  A    between atoms: C_1  and  C_2
    2  A    between atoms: C_2  and  C_3
                            x       y       z     vdW  Elec       q    Type
                         _______ _______ _______ _____ _____    ______ ____

>  <TORSDO>
F 2

$$$$
=
 OpenBabel11052418123D

 28 32  0  0  1  0  0  0  0  0999 V2000
  187.6530  177.1350  146.5670 C   0  0  1  0  0  3  0  0  0  0  0  0
  187.5020  175.8440  141.3320 C   0  0  0  0  0  3  0  0  0  0  0  0
  185.5660  179.7930  145.2470 C   0  0  0  0  0  1  0  0  0  0  0  0
  185.7390  177.3880  140.6800 C   0  0  0  0  0  0  0  0  0  0  0  0
  186.0780  176.8800  143.1400 C   0  0  1  0  0  3  0  0  0  0  0  0
  187.1030  176.3060  138.9910 C   0  0  0  0  0  0  0  0  0  0  0  0
  186.4860  176.7410  141.6950 C   0  0  0  0  0  0  0  0  0  0  0  0
  184.1560  178.2900  142.4500 C   0  0  0  0  0  2  0  0  0  0  0  0
  186.0690  177.1790  139.3370 C   0  0  0  0  0  3  0  0  0  0  0  0
  185.4180  177.2720  145.7880 C   0  0  1  0  0  3  0  0  0  0  0  0
  187.2390  176.8240  144.1220 C   0  0  0  0  0  2  0  0  0  0  0  0
  184.6500  178.3810  141.0030 C   0  0  0  0  0  2  0  0  0  0  0  0
  185.4130  177.5720  147.2840 C   0  0  2  0  0  3  0  0  0  0  0  0
  184.9960  178.4420  144.8420 C   0  0  2  0  0  3  0  0  0  0  0  0
  184.5530  178.6140  147.6370 O   0  0  0  0  0  1  0  0  0  0  0  0
  187.4120  176.1070  137.6880 F   0  0  0  0  0  0  0  0  0  0  0  0
  187.8150  175.6360  139.9870 C   0  0  0  0  0  3  0  0  0  0  0  0
  185.3570  178.2000  143.3750 C   0  0  1  0  0  3  0  0  0  0  0  0
  186.8500  177.9090  147.6040 C   0  0  0  0  0  2  0  0  0  0  0  0
  186.7400  176.6800  145.5010 N   0  0  1  0  0  0  0  0  0  0  0  0
  188.9650  177.8240  146.1340 C   0  0  0  0  0  2  0  0  0  0  0  0
  190.1700  176.9350  146.1260 C   0  0  0  0  0  0  0  0  0  0  0  0
  192.4590  175.3210  146.1360 C   0  0  0  0  0  0  0  0  0  0  0  0
  190.9660  176.8360  144.9780 C   0  0  0  0  0  3  0  0  0  0  0  0
  190.5360  176.2400  147.2850 C   0  0  0  0  0  3  0  0  0  0  0  0
  191.6760  175.4320  147.2900 C   0  0  0  0  0  3  0  0  0  0  0  0
  193.5890  174.5160  146.1390 O   0  0  0  0  0  1  0  0  0  0  0  0
  192.1060  176.0270  144.9820 C   0  0  0  0  0  3  0  0  0  0  0  0
  1 21  1  6  0  0  0
  1 19  1  0  0  0  0
  2  7  1  0  0  0  0
  4 12  1  0  0  0  0
  4  7  2  0  0  0  0
  5 18  1  0  0  0  0
  5 11  1  1  0  0  0
  6  9  2  0  0  0  0
  6 17  1  0  0  0  0
  7  5  1  0  0  0  0
  8 18  1  0  0  0  0
  9  4  1  0  0  0  0
 10 13  1  0  0  0  0
 11 20  1  0  0  0  0
 12  8  1  0  0  0  0
 13 19  1  0  0  0  0
 13 15  1  0  0  0  0
 14  3  1  0  0  0  0
 14 10  1  0  0  0  0
 16  6  1  0  0  0  0
 17  2  2  0  0  0  0
 18 14  1  0  0  0  0
 20 10  1  0  0  0  0
 20  1  1  0  0  0  0
 22 21  1  0  0  0  0
 22 25  1  0  0  0  0
 23 27  1  0  0  0  0
 23 26  1  0  0  0  0
 24 28  1  0  0  0  0
 24 22  2  0  0  0  0
 25 26  2  0  0  0  0
 28 23  2  0  0  0  0
M  END
>  <MODEL>
5

>  <REMARK>
 VINA RESULT:      -7.9      2.381      3.987
  Name = 
  2 active torsions:
  status: ('A' for Active; 'I' for Inactive)
    1  A    between atoms: C_1  and  C_2
    2  A    between atoms: C_2  and  C_3
                            x       y       z     vdW  Elec       q    Type
                         _______ _______ _______ _____ _____    ______ ____

>  <TORSDO>
F 2

$$$$
=
 OpenBabel11052418123D

 28 32  0  0  1  0  0  0  0  0999 V2000
  189.3060  177.2890  143.5760 C   0  0  1  0  0  3  0  0  0  0  0  0
  189.8040  173.5410  139.7290 C   0  0  0  0  0  3  0  0  0  0  0  0
  189.7780  174.2930  145.5680 C   0  0  0  0  0  1  0  0  0  0  0  0
  190.5660  171.7260  141.1570 C   0  0  0  0  0  0  0  0  0  0  0  0
  190.6360  174.0980  142.0450 C   0  0  1  0  0  3  0  0  0  0  0  0
  189.8140  171.2690  138.8960 C   0  0  0  0  0  0  0  0  0  0  0  0
  190.2760  173.1000  140.9740 C   0  0  0  0  0  0  0  0  0  0  0  0
  191.6000  172.2660  143.4130 C   0  0  0  0  0  2  0  0  0  0  0  0
  190.3120  170.8200  140.1220 C   0  0  0  0  0  3  0  0  0  0  0  0
  191.1540  175.8910  144.0760 C   0  0  1  0  0  3  0  0  0  0  0  0
  189.6970  175.2940  142.1230 C   0  0  0  0  0  2  0  0  0  0  0  0
  191.0530  171.1830  142.4790 C   0  0  0  0  0  2  0  0  0  0  0  0
  191.0870  176.9790  145.1430 C   0  0  2  0  0  3  0  0  0  0  0  0
  190.9100  174.4250  144.5600 C   0  0  2  0  0  3  0  0  0  0  0  0
  191.3520  176.5090  146.4310 O   0  0  0  0  0  1  0  0  0  0  0  0
  189.5760  170.3850  137.8980 F   0  0  0  0  0  0  0  0  0  0  0  0
  189.5650  172.6280  138.6980 C   0  0  0  0  0  3  0  0  0  0  0  0
  190.6400  173.4420  143.4190 C   0  0  1  0  0  3  0  0  0  0  0  0
  189.6840  177.5270  145.0310 C   0  0  0  0  0  2  0  0  0  0  0  0
  190.2710  176.3430  142.9820 N   0  0  1  0  0  0  0  0  0  0  0  0
  187.8050  177.0100  143.3460 C   0  0  0  0  0  2  0  0  0  0  0  0
  186.9060  177.4400  144.4640 C   0  0  0  0  0  0  0  0  0  0  0  0
  185.1760  178.2230  146.5230 C   0  0  0  0  0  0  0  0  0  0  0  0
  186.4100  178.7490  144.5070 C   0  0  0  0  0  3  0  0  0  0  0  0
  186.5170  176.5190  145.4440 C   0  0  0  0  0  3  0  0  0  0  0  0
  185.6560  176.9100  146.4740 C   0  0  0  0  0  3  0  0  0  0  0  0
  184.3250  178.6120  147.5470 O   0  0  0  0  0  1  0  0  0  0  0  0
  185.5490  179.1410  145.5370 C   0  0  0  0  0  3  0  0  0  0  0  0
  1 21  1  1  0  0  0
  1 19  1  0  0  0  0
  2  7  1  0  0  0  0
  4 12  1  0  0  0  0
  5 11  1  1  0  0  0
  5 18  1  0  0  0  0
  6  9  2  0  0  0  0
  7  4  2  0  0  0  0
  7  5  1  0  0  0  0
  8 18  1  0  0  0  0
  9  4  1  0  0  0  0
 10 14  1  0  0  0  0
 10 13  1  0  0  0  0
 11 20  1  0  0  0  0
 12  8  1  0  0  0  0
 13 15  1  0  0  0  0
 14  3  1  0  0  0  0
 16  6  1  0  0  0  0
 17  6  1  0  0  0  0
 17  2  2  0  0  0  0
 18 14  1  0  0  0  0
 19 13  1  0  0  0  0
 20  1  1  0  0  0  0
 20 10  1  0  0  0  0
 21 22  1  0  0  0  0
 22 24  2  0  0  0  0
 22 25  1  0  0  0  0
 23 27  1  0  0  0  0
 24 28  1  0  0  0  0
 25 26  2  0  0  0  0
 26 23  1  0  0  0  0
 28 23  2  0  0  0  0
M  END
>  <MODEL>
6

>  <REMARK>
 VINA RESULT:      -7.8      3.872      7.122
  Name = 
  2 active torsions:
  status: ('A' for Active; 'I' for Inactive)
    1  A    between atoms: C_1  and  C_2
    2  A    between atoms: C_2  and  C_3
                            x       y       z     vdW  Elec       q    Type
                         _______ _______ _______ _____ _____    ______ ____

>  <TORSDO>
F 2

$$$$
=
 OpenBabel11052418123D

 28 32  0  0  1  0  0  0  0  0999 V2000
  192.0060  175.1700  146.2390 C   0  0  1  0  0  3  0  0  0  0  0  0
  190.0750  172.7200  141.8390 C   0  0  0  0  0  3  0  0  0  0  0  0
  190.2790  177.9130  144.6070 C   0  0  0  0  0  1  0  0  0  0  0  0
  188.5920  174.5050  141.1120 C   0  0  0  0  0  0  0  0  0  0  0  0
  189.4990  174.5500  143.4780 C   0  0  1  0  0  3  0  0  0  0  0  0
  189.1360  172.6790  139.6100 C   0  0  0  0  0  0  0  0  0  0  0  0
  189.4340  173.9390  142.1010 C   0  0  0  0  0  0  0  0  0  0  0  0
  187.8270  176.2510  142.7910 C   0  0  0  0  0  2  0  0  0  0  0  0
  188.4680  173.8790  139.8680 C   0  0  0  0  0  3  0  0  0  0  0  0
  189.7320  175.7690  145.9410 C   0  0  1  0  0  3  0  0  0  0  0  0
  190.8500  174.3970  144.1630 C   0  0  0  0  0  2  0  0  0  0  0  0
  187.8930  175.8260  141.3220 C   0  0  0  0  0  2  0  0  0  0  0  0
  190.2230  176.4210  147.2300 C   0  0  2  0  0  3  0  0  0  0  0  0
  189.3300  176.7370  144.7810 C   0  0  2  0  0  3  0  0  0  0  0  0
  189.7570  177.7250  147.4040 O   0  0  0  0  0  1  0  0  0  0  0  0
  189.0050  172.0790  138.4030 F   0  0  0  0  0  0  0  0  0  0  0  0
  189.9340  172.0980  140.5960 C   0  0  0  0  0  3  0  0  0  0  0  0
  189.1900  176.0400  143.4260 C   0  0  1  0  0  3  0  0  0  0  0  0
  191.7280  176.3820  147.1190 C   0  0  0  0  0  2  0  0  0  0  0  0
  190.7480  174.7580  145.5880 N   0  0  1  0  0  0  0  0  0  0  0  0
  193.2580  175.3060  145.3460 C   0  0  0  0  0  2  0  0  0  0  0  0
  194.2810  174.2270  145.5290 C   0  0  0  0  0  0  0  0  0  0  0  0
  196.2090  172.2150  145.8080 C   0  0  0  0  0  0  0  0  0  0  0  0
  193.9120  172.8800  145.4230 C   0  0  0  0  0  3  0  0  0  0  0  0
  195.6210  174.5630  145.7540 C   0  0  0  0  0  3  0  0  0  0  0  0
  196.5830  173.5600  145.8980 C   0  0  0  0  0  3  0  0  0  0  0  0
  197.1630  171.2180  145.9540 O   0  0  0  0  0  1  0  0  0  0  0  0
  194.8740  171.8750  145.5670 C   0  0  0  0  0  3  0  0  0  0  0  0
  1 21  1  6  0  0  0
  1 19  1  0  0  0  0
  2  7  1  0  0  0  0
  3 14  1  0  0  0  0
  4 12  1  0  0  0  0
  4  7  2  0  0  0  0
  5 11  1  6  0  0  0
  6  9  2  0  0  0  0
  6 17  1  0  0  0  0
  7  5  1  0  0  0  0
  8 18  1  0  0  0  0
  9  4  1  0  0  0  0
 10 13  1  0  0  0  0
 11 20  1  0  0  0  0
 12  8  1  0  0  0  0
 13 15  1  0  0  0  0
 14 10  1  0  0  0  0
 16  6  1  0  0  0  0
 17  2  2  0  0  0  0
 18  5  1  0  0  0  0
 18 14  1  0  0  0  0
 19 13  1  0  0  0  0
 20 10  1  0  0  0  0
 20  1  1  0  0  0  0
 21 22  1  0  0  0  0
 22 25  1  0  0  0  0
 23 26  1  0  0  0  0
 23 27  1  0  0  0  0
 24 22  2  0  0  0  0
 24 28  1  0  0  0  0
 25 26  2  0  0  0  0
 28 23  2  0  0  0  0
M  END
>  <MODEL>
7

>  <REMARK>
 VINA RESULT:      -7.7      3.421      4.336
  Name = 
  2 active torsions:
  status: ('A' for Active; 'I' for Inactive)
    1  A    between atoms: C_1  and  C_2
    2  A    between atoms: C_2  and  C_3
                            x       y       z     vdW  Elec       q    Type
                         _______ _______ _______ _____ _____    ______ ____

>  <TORSDO>
F 2

$$$$
=
 OpenBabel11052418123D

 28 32  0  0  1  0  0  0  0  0999 V2000
  188.1960  174.4680  141.7500 C   0  0  1  0  0  3  0  0  0  0  0  0
  189.8780  176.2400  146.5580 C   0  0  0  0  0  3  0  0  0  0  0  0
  191.7930  174.1500  141.3980 C   0  0  0  0  0  1  0  0  0  0  0  0
  192.1990  175.5430  146.3550 C   0  0  0  0  0  0  0  0  0  0  0  0
  190.4830  174.5790  144.7570 C   0  0  1  0  0  3  0  0  0  0  0  0
  191.5350  177.0870  148.1040 C   0  0  0  0  0  0  0  0  0  0  0  0
  190.8650  175.5150  145.8770 C   0  0  0  0  0  0  0  0  0  0  0  0
  192.8120  173.7230  144.6920 C   0  0  0  0  0  2  0  0  0  0  0  0
  192.5240  176.3460  147.4520 C   0  0  0  0  0  3  0  0  0  0  0  0
  189.8320  172.9820  142.6060 C   0  0  1  0  0  3  0  0  0  0  0  0
  189.3660  175.1010  143.8650 C   0  0  0  0  0  2  0  0  0  0  0  0
  193.3120  174.8050  145.6530 C   0  0  0  0  0  2  0  0  0  0  0  0
  189.3280  172.4130  141.2830 C   0  0  2  0  0  3  0  0  0  0  0  0
  191.3320  173.4200  142.6500 C   0  0  2  0  0  3  0  0  0  0  0  0
  190.3430  171.8690  140.4920 O   0  0  0  0  0  1  0  0  0  0  0  0
  191.8590  177.8580  149.1690 F   0  0  0  0  0  0  0  0  0  0  0  0
  190.2130  177.0300  147.6610 C   0  0  0  0  0  3  0  0  0  0  0  0
  191.6780  174.2930  143.8580 C   0  0  1  0  0  3  0  0  0  0  0  0
  188.6630  173.5840  140.6010 C   0  0  0  0  0  2  0  0  0  0  0  0
  188.8640  174.0280  142.9900 N   0  0  1  0  0  0  0  0  0  0  0  0
  188.2060  175.9790  141.4350 C   0  0  0  0  0  2  0  0  0  0  0  0
  186.9310  176.6970  141.7520 C   0  0  0  0  0  0  0  0  0  0  0  0
  184.5120  177.9870  142.3280 C   0  0  0  0  0  0  0  0  0  0  0  0
  186.3080  177.4910  140.7810 C   0  0  0  0  0  3  0  0  0  0  0  0
  186.3270  176.5340  143.0040 C   0  0  0  0  0  3  0  0  0  0  0  0
  185.1220  177.1810  143.2940 C   0  0  0  0  0  3  0  0  0  0  0  0
  183.3180  178.6310  142.6160 O   0  0  0  0  0  1  0  0  0  0  0  0
  185.1030  178.1390  141.0700 C   0  0  0  0  0  3  0  0  0  0  0  0
  1 21  1  6  0  0  0
  1 20  1  0  0  0  0
  2 17  1  0  0  0  0
  3 14  1  0  0  0  0
  4  9  2  0  0  0  0
  5 11  1  6  0  0  0
  5  7  1  0  0  0  0
  6 16  1  0  0  0  0
  7  4  1  0  0  0  0
  7  2  2  0  0  0  0
  8 12  1  0  0  0  0
  9  6  1  0  0  0  0
 10 14  1  0  0  0  0
 10 20  1  0  0  0  0
 12  4  1  0  0  0  0
 13 10  1  0  0  0  0
 14 18  1  0  0  0  0
 15 13  1  0  0  0  0
 17  6  2  0  0  0  0
 18  8  1  0  0  0  0
 18  5  1  0  0  0  0
 19 13  1  0  0  0  0
 19  1  1  0  0  0  0
 20 11  1  0  0  0  0
 21 22  1  0  0  0  0
 22 25  1  0  0  0  0
 23 27  1  0  0  0  0
 23 26  1  0  0  0  0
 24 28  1  0  0  0  0
 24 22  2  0  0  0  0
 25 26  2  0  0  0  0
 28 23  2  0  0  0  0
M  END
>  <MODEL>
8

>  <REMARK>
 VINA RESULT:      -7.7      3.800      7.760
  Name = 
  2 active torsions:
  status: ('A' for Active; 'I' for Inactive)
    1  A    between atoms: C_1  and  C_2
    2  A    between atoms: C_2  and  C_3
                            x       y       z     vdW  Elec       q    Type
                         _______ _______ _______ _____ _____    ______ ____

>  <TORSDO>
F 2

$$$$
=
 OpenBabel11052418123D

 28 32  0  0  1  0  0  0  0  0999 V2000
  190.5250  174.9300  144.8690 C   0  0  1  0  0  3  0  0  0  0  0  0
  185.6780  176.8910  143.5480 C   0  0  0  0  0  3  0  0  0  0  0  0
  190.2770  177.7680  147.1170 C   0  0  0  0  0  1  0  0  0  0  0  0
  185.4530  178.4480  145.4020 C   0  0  0  0  0  0  0  0  0  0  0  0
  187.2150  176.6300  145.5320 C   0  0  1  0  0  3  0  0  0  0  0  0
  183.9660  178.6000  143.4920 C   0  0  0  0  0  0  0  0  0  0  0  0
  186.1320  177.3680  144.7860 C   0  0  0  0  0  0  0  0  0  0  0  0
  186.8400  178.0930  147.5010 C   0  0  0  0  0  2  0  0  0  0  0  0
  184.3890  179.0670  144.7390 C   0  0  0  0  0  3  0  0  0  0  0  0
  189.3000  175.3920  146.8450 C   0  0  1  0  0  3  0  0  0  0  0  0
  188.3130  176.0690  144.6400 C   0  0  0  0  0  2  0  0  0  0  0  0
  185.9060  179.0240  146.7220 C   0  0  0  0  0  2  0  0  0  0  0  0
  190.6330  174.7740  147.2540 C   0  0  2  0  0  3  0  0  0  0  0  0
  189.0570  176.8740  147.2790 C   0  0  2  0  0  3  0  0  0  0  0  0
  191.2060  175.3820  148.3730 O   0  0  0  0  0  1  0  0  0  0  0  0
  182.9320  179.2040  142.8600 F   0  0  0  0  0  0  0  0  0  0  0  0
  184.6060  177.5110  142.8990 C   0  0  0  0  0  3  0  0  0  0  0  0
  187.8870  177.5390  146.5520 C   0  0  1  0  0  3  0  0  0  0  0  0
  191.5070  174.9280  146.0330 C   0  0  0  0  0  2  0  0  0  0  0  0
  189.1630  175.1340  145.3980 N   0  0  1  0  0  0  0  0  0  0  0  0
  190.9600  175.8000  143.6710 C   0  0  0  0  0  2  0  0  0  0  0  0
  191.1890  175.0470  142.3970 C   0  0  0  0  0  0  0  0  0  0  0  0
  191.6200  173.5850  140.0470 C   0  0  0  0  0  0  0  0  0  0  0  0
  192.4840  174.9080  141.8820 C   0  0  0  0  0  3  0  0  0  0  0  0
  190.1140  174.4350  141.7420 C   0  0  0  0  0  3  0  0  0  0  0  0
  190.3270  173.7080  140.5670 C   0  0  0  0  0  3  0  0  0  0  0  0
  191.8320  172.8670  138.8790 O   0  0  0  0  0  1  0  0  0  0  0  0
  192.6980  174.1810  140.7060 C   0  0  0  0  0  3  0  0  0  0  0  0
  1 21  1  6  0  0  0
  1 20  1  0  0  0  0
  1 19  1  0  0  0  0
  2  7  1  0  0  0  0
  3 14  1  0  0  0  0
  4 12  1  0  0  0  0
  5 11  1  6  0  0  0
  5 18  1  0  0  0  0
  6  9  2  0  0  0  0
  7  4  2  0  0  0  0
  7  5  1  0  0  0  0
  9  4  1  0  0  0  0
 10 13  1  0  0  0  0
 10 14  1  0  0  0  0
 11 20  1  0  0  0  0
 12  8  1  0  0  0  0
 13 15  1  0  0  0  0
 16  6  1  0  0  0  0
 17  6  1  0  0  0  0
 17  2  2  0  0  0  0
 18 14  1  0  0  0  0
 18  8  1  0  0  0  0
 19 13  1  0  0  0  0
 20 10  1  0  0  0  0
 22 21  1  0  0  0  0
 23 26  2  0  0  0  0
 23 28  1  0  0  0  0
 24 22  1  0  0  0  0
 25 22  2  0  0  0  0
 26 25  1  0  0  0  0
 27 23  1  0  0  0  0
 28 24  2  0  0  0  0
M  END
>  <MODEL>
9

>  <REMARK>
 VINA RESULT:      -7.6      2.422      3.102
  Name = 
  2 active torsions:
  status: ('A' for Active; 'I' for Inactive)
    1  A    between atoms: C_1  and  C_2
    2  A    between atoms: C_2  and  C_3
                            x       y       z     vdW  Elec       q    Type
                         _______ _______ _______ _____ _____    ______ ____

>  <TORSDO>
F 2

$$$$
