=
 OpenBabel11052417493D

 31 34  0  0  0  0  0  0  0  0999 V2000
  185.4410  178.3340  147.8620 C   0  0  0  0  0  3  0  0  0  0  0  0
  186.1980  177.9780  143.2990 C   0  0  0  0  0  0  0  0  0  0  0  0
  185.0200  178.1180  142.4710 C   0  0  0  0  0  0  0  0  0  0  0  0
  182.5800  178.4310  142.1720 C   0  0  0  0  0  3  0  0  0  0  0  0
  186.2020  178.0840  144.7450 C   0  0  0  0  0  0  0  0  0  0  0  0
  186.6690  177.9350  147.8610 N   0  0  0  0  0  0  0  0  0  0  0  0
  183.7950  178.3070  142.9900 C   0  0  0  0  0  3  0  0  0  0  0  0
  188.6160  177.4880  143.3740 C   0  0  0  0  0  0  0  0  0  0  0  0
  184.6540  178.6910  146.6940 C   0  0  0  0  0  3  0  0  0  0  0  0
  186.3520  177.7490  140.4670 C   0  0  0  0  0  3  0  0  0  0  0  0
  182.6420  178.3680  140.8460 C   0  0  0  0  0  0  0  0  0  0  0  0
  188.5620  177.5040  144.7530 C   0  0  0  0  0  3  0  0  0  0  0  0
  187.4360  177.6960  142.6370 C   0  0  0  0  0  0  0  0  0  0  0  0
  184.9820  178.5810  145.4170 C   0  0  0  0  0  3  0  0  0  0  0  0
  181.5040  178.4880  140.1210 F   0  0  0  0  0  0  0  0  0  0  0  0
  187.4000  177.7880  145.4560 C   0  0  0  0  0  0  0  0  0  0  0  0
  187.5840  177.7330  146.7800 C   0  0  0  0  0  3  0  0  0  0  0  0
  187.4810  177.5830  141.2450 C   0  0  0  0  0  2  0  0  0  0  0  0
  185.1300  178.0160  141.0590 C   0  0  0  0  0  0  0  0  0  0  0  0
  183.9490  178.1820  140.1340 C   0  0  0  0  0  3  0  0  0  0  0  0
  189.8600  177.2180  142.7890 O   0  0  0  0  0  0  0  0  0  0  0  0
  191.0590  177.8950  143.1370 C   0  0  0  0  0  2  0  0  0  0  0  0
  192.1320  176.8810  143.4790 C   0  0  0  0  0  2  0  0  0  0  0  0
  192.6640  177.1020  144.8900 C   0  0  0  0  0  2  0  0  0  0  0  0
  193.5930  175.9780  145.3500 C   0  0  0  0  0  2  0  0  0  0  0  0
  193.5190  173.2830  145.3440 S   0  0  0  0  0  0  0  0  0  0  0  0
  192.8420  174.7360  145.6920 C   0  0  0  0  0  0  0  0  0  0  0  0
  190.3120  174.5050  146.1270 C   0  0  0  0  0  0  0  0  0  0  0  0
  189.9890  174.2700  144.8990 N   0  0  0  0  0  2  0  0  0  0  0  0
  189.2430  174.5890  147.1550 C   0  0  0  0  0  1  0  0  0  0  0  0
  191.6540  174.8540  146.4910 N   0  0  0  0  0  2  0  0  0  0  0  0
  2  5  1  0  0  0  0
  3  7  1  0  0  0  0
  3  2  2  0  0  0  0
  4  7  2  0  0  0  0
  5 14  2  0  0  0  0
  5 16  1  0  0  0  0
  6  1  1  0  0  0  0
  8 12  1  0  0  0  0
  9  1  2  0  0  0  0
 10 19  2  0  0  0  0
 10 18  1  0  0  0  0
 11  4  1  0  0  0  0
 12 16  2  0  0  0  0
 13  2  1  0  0  0  0
 13  8  2  0  0  0  0
 14  9  1  0  0  0  0
 15 11  1  0  0  0  0
 16 17  1  0  0  0  0
 17  6  2  0  0  0  0
 18 13  1  0  0  0  0
 19  3  1  0  0  0  0
 20 11  2  0  0  0  0
 20 19  1  0  0  0  0
 21 22  1  0  0  0  0
 21  8  1  0  0  0  0
 22 23  1  0  0  0  0
 23 24  1  0  0  0  0
 24 25  1  0  0  0  0
 25 27  1  0  0  0  0
 26 27  2  0  0  0  0
 27 31  1  0  0  0  0
 28 31  1  0  0  0  0
 28 30  1  0  0  0  0
 29 28  2  0  0  0  0
M  END
>  <MODEL>
1

>  <REMARK>
 VINA RESULT:      -8.0      0.000      0.000
  Name = 
  7 active torsions:
  status: ('A' for Active; 'I' for Inactive)
    1  A    between atoms: C_3  and  C_19
    2  A    between atoms: C_3  and  C_22
    3  A    between atoms: C_7  and  C_9
    4  A    between atoms: C_7  and  C_22
    5  A    between atoms: C_9  and  O_23
    6  A    between atoms: C_15  and  O_23
    7  A    between atoms: C_19  and  N_24
                            x       y       z     vdW  Elec       q    Type
                         _______ _______ _______ _____ _____    ______ ____

>  <TORSDO>
F 7

$$$$
=
 OpenBabel11052417493D

 31 34  0  0  0  0  0  0  0  0999 V2000
  185.3920  179.3830  145.2410 C   0  0  0  0  0  3  0  0  0  0  0  0
  188.3210  175.9330  144.2220 C   0  0  0  0  0  0  0  0  0  0  0  0
  188.3470  175.5440  142.8290 C   0  0  0  0  0  0  0  0  0  0  0  0
  187.5490  175.7310  140.4890 C   0  0  0  0  0  3  0  0  0  0  0  0
  187.5070  177.0060  144.7590 C   0  0  0  0  0  0  0  0  0  0  0  0
  185.7350  179.0110  146.4290 N   0  0  0  0  0  0  0  0  0  0  0  0
  187.5580  176.1210  141.9070 C   0  0  0  0  0  2  0  0  0  0  0  0
  189.1340  175.4670  146.5050 C   0  0  0  0  0  0  0  0  0  0  0  0
  185.9500  178.8910  143.9930 C   0  0  0  0  0  3  0  0  0  0  0  0
  189.9820  173.8080  143.3160 C   0  0  0  0  0  3  0  0  0  0  0  0
  188.3490  174.7680  140.0440 C   0  0  0  0  0  0  0  0  0  0  0  0
  188.2760  176.4310  146.9920 C   0  0  0  0  0  3  0  0  0  0  0  0
  189.1470  175.1900  145.1260 C   0  0  0  0  0  0  0  0  0  0  0  0
  186.8200  177.9100  143.8130 C   0  0  0  0  0  3  0  0  0  0  0  0
  188.3180  174.4320  138.7310 F   0  0  0  0  0  0  0  0  0  0  0  0
  187.4650  177.2000  146.1690 C   0  0  0  0  0  0  0  0  0  0  0  0
  186.7100  178.0590  146.8640 C   0  0  0  0  0  3  0  0  0  0  0  0
  189.9470  174.1470  144.6540 C   0  0  0  0  0  3  0  0  0  0  0  0
  189.1980  174.4920  142.4020 C   0  0  0  0  0  0  0  0  0  0  0  0
  189.2980  174.0540  140.9600 C   0  0  0  0  0  3  0  0  0  0  0  0
  189.9230  174.7850  147.4410 O   0  0  0  0  0  0  0  0  0  0  0  0
  190.9820  175.3890  148.1700 C   0  0  0  0  0  2  0  0  0  0  0  0
  191.9170  176.0960  147.2100 C   0  0  0  0  0  2  0  0  0  0  0  0
  192.8660  175.1070  146.5430 C   0  0  0  0  0  2  0  0  0  0  0  0
  194.2610  175.6920  146.3220 C   0  0  0  0  0  2  0  0  0  0  0  0
  195.6340  175.9550  144.0170 S   0  0  0  0  0  0  0  0  0  0  0  0
  194.3830  176.3630  144.9950 C   0  0  0  0  0  0  0  0  0  0  0  0
  192.3610  176.9070  143.4930 C   0  0  0  0  0  0  0  0  0  0  0  0
  192.5680  175.9550  142.6450 N   0  0  0  0  0  2  0  0  0  0  0  0
  191.2280  177.8430  143.2710 C   0  0  0  0  0  1  0  0  0  0  0  0
  193.2960  177.1860  144.5430 N   0  0  0  0  0  2  0  0  0  0  0  0
  1  6  1  0  0  0  0
  2  5  1  0  0  0  0
  2 13  1  0  0  0  0
  3  2  2  0  0  0  0
  4  7  1  0  0  0  0
  5 16  1  0  0  0  0
  6 17  2  0  0  0  0
  7  3  1  0  0  0  0
  8 12  1  0  0  0  0
  8 21  1  0  0  0  0
  9  1  2  0  0  0  0
 10 18  2  0  0  0  0
 11  4  2  0  0  0  0
 11 20  1  0  0  0  0
 13  8  2  0  0  0  0
 14  9  1  0  0  0  0
 14  5  2  0  0  0  0
 15 11  1  0  0  0  0
 16 17  1  0  0  0  0
 16 12  2  0  0  0  0
 18 13  1  0  0  0  0
 19  3  1  0  0  0  0
 19 10  1  0  0  0  0
 20 19  2  0  0  0  0
 21 22  1  0  0  0  0
 23 22  1  0  0  0  0
 24 23  1  0  0  0  0
 25 24  1  0  0  0  0
 26 27  2  0  0  0  0
 27 25  1  0  0  0  0
 28 31  1  0  0  0  0
 29 28  2  0  0  0  0
 30 28  1  0  0  0  0
 31 27  1  0  0  0  0
M  END
>  <MODEL>
2

>  <REMARK>
 VINA RESULT:      -7.8      2.802      4.320
  Name = 
  7 active torsions:
  status: ('A' for Active; 'I' for Inactive)
    1  A    between atoms: C_3  and  C_19
    2  A    between atoms: C_3  and  C_22
    3  A    between atoms: C_7  and  C_9
    4  A    between atoms: C_7  and  C_22
    5  A    between atoms: C_9  and  O_23
    6  A    between atoms: C_15  and  O_23
    7  A    between atoms: C_19  and  N_24
                            x       y       z     vdW  Elec       q    Type
                         _______ _______ _______ _____ _____    ______ ____

>  <TORSDO>
F 7

$$$$
=
 OpenBabel11052417493D

 31 34  0  0  0  0  0  0  0  0999 V2000
  184.5450  178.3210  147.4310 C   0  0  0  0  0  3  0  0  0  0  0  0
  188.1360  177.6510  144.5720 C   0  0  0  0  0  0  0  0  0  0  0  0
  189.3750  177.2830  145.2220 C   0  0  0  0  0  0  0  0  0  0  0  0
  190.7330  176.8230  147.2440 C   0  0  0  0  0  3  0  0  0  0  0  0
  186.8820  177.8780  145.2640 C   0  0  0  0  0  0  0  0  0  0  0  0
  184.0420  178.7520  146.3230 N   0  0  0  0  0  0  0  0  0  0  0  0
  189.4810  177.1740  146.5570 C   0  0  0  0  0  3  0  0  0  0  0  0
  187.0180  178.2310  142.4500 C   0  0  0  0  0  0  0  0  0  0  0  0
  185.8380  177.6780  147.5950 C   0  0  0  0  0  3  0  0  0  0  0  0
  190.5180  177.2310  143.0740 C   0  0  0  0  0  3  0  0  0  0  0  0
  191.8440  176.5830  146.5550 C   0  0  0  0  0  0  0  0  0  0  0  0
  185.8690  178.5290  143.1540 C   0  0  0  0  0  3  0  0  0  0  0  0
  188.1660  177.8170  143.1500 C   0  0  0  0  0  0  0  0  0  0  0  0
  186.7890  177.5040  146.6920 C   0  0  0  0  0  3  0  0  0  0  0  0
  192.9800  176.2610  147.2180 F   0  0  0  0  0  0  0  0  0  0  0  0
  185.7670  178.3710  144.5290 C   0  0  0  0  0  0  0  0  0  0  0  0
  184.5660  178.7340  144.9920 C   0  0  0  0  0  3  0  0  0  0  0  0
  189.3510  177.6110  142.4410 C   0  0  0  0  0  3  0  0  0  0  0  0
  190.5440  177.0630  144.4480 C   0  0  0  0  0  0  0  0  0  0  0  0
  191.8620  176.6480  145.0570 C   0  0  0  0  0  2  0  0  0  0  0  0
  186.9760  178.4040  141.0600 O   0  0  0  0  0  0  0  0  0  0  0  0
  185.9880  177.8210  140.2220 C   0  0  0  0  0  2  0  0  0  0  0  0
  186.6600  176.9470  139.1820 C   0  0  0  0  0  2  0  0  0  0  0  0
  187.4870  175.8500  139.8410 C   0  0  0  0  0  2  0  0  0  0  0  0
  187.8920  174.7500  138.8590 C   0  0  0  0  0  2  0  0  0  0  0  0
  189.5140  172.6250  138.5130 S   0  0  0  0  0  0  0  0  0  0  0  0
  188.8520  173.7830  139.4670 C   0  0  0  0  0  0  0  0  0  0  0  0
  188.9210  173.3450  142.0050 C   0  0  0  0  0  0  0  0  0  0  0  0
  187.8840  172.5760  142.0340 N   0  0  0  0  0  2  0  0  0  0  0  0
  189.6170  173.6720  143.2770 C   0  0  0  0  0  1  0  0  0  0  0  0
  189.3110  174.0260  140.8060 N   0  0  0  0  0  2  0  0  0  0  0  0
  1  9  1  0  0  0  0
  2  3  1  0  0  0  0
  2  5  2  0  0  0  0
  3  7  2  0  0  0  0
  5 14  1  0  0  0  0
  6  1  2  0  0  0  0
  7  4  1  0  0  0  0
  8 13  1  0  0  0  0
  8 12  2  0  0  0  0
 10 19  2  0  0  0  0
 11 15  1  0  0  0  0
 11  4  2  0  0  0  0
 12 16  1  0  0  0  0
 13  2  1  0  0  0  0
 14  9  2  0  0  0  0
 16 17  2  0  0  0  0
 16  5  1  0  0  0  0
 17  6  1  0  0  0  0
 18 10  1  0  0  0  0
 18 13  2  0  0  0  0
 19 20  1  0  0  0  0
 19  3  1  0  0  0  0
 20 11  1  0  0  0  0
 21  8  1  0  0  0  0
 22 21  1  0  0  0  0
 23 24  1  0  0  0  0
 23 22  1  0  0  0  0
 25 27  1  0  0  0  0
 25 24  1  0  0  0  0
 26 27  2  0  0  0  0
 27 31  1  0  0  0  0
 28 29  2  0  0  0  0
 28 30  1  0  0  0  0
 31 28  1  0  0  0  0
M  END
>  <MODEL>
3

>  <REMARK>
 VINA RESULT:      -7.7      3.595      6.037
  Name = 
  7 active torsions:
  status: ('A' for Active; 'I' for Inactive)
    1  A    between atoms: C_3  and  C_19
    2  A    between atoms: C_3  and  C_22
    3  A    between atoms: C_7  and  C_9
    4  A    between atoms: C_7  and  C_22
    5  A    between atoms: C_9  and  O_23
    6  A    between atoms: C_15  and  O_23
    7  A    between atoms: C_19  and  N_24
                            x       y       z     vdW  Elec       q    Type
                         _______ _______ _______ _____ _____    ______ ____

>  <TORSDO>
F 7

$$$$
=
 OpenBabel11052417493D

 31 34  0  0  0  0  0  0  0  0999 V2000
  185.5630  178.3180  147.8770 C   0  0  0  0  0  3  0  0  0  0  0  0
  186.4300  177.9610  143.3340 C   0  0  0  0  0  0  0  0  0  0  0  0
  185.2680  178.0660  142.4790 C   0  0  0  0  0  0  0  0  0  0  0  0
  182.8270  178.3140  142.1250 C   0  0  0  0  0  3  0  0  0  0  0  0
  186.3990  178.0750  144.7790 C   0  0  0  0  0  0  0  0  0  0  0  0
  186.8010  177.9530  147.9050 N   0  0  0  0  0  0  0  0  0  0  0  0
  184.0270  178.2260  142.9700 C   0  0  0  0  0  3  0  0  0  0  0  0
  188.8570  177.5360  143.4650 C   0  0  0  0  0  0  0  0  0  0  0  0
  184.7920  178.6500  146.6900 C   0  0  0  0  0  3  0  0  0  0  0  0
  186.6530  177.7240  140.5070 C   0  0  0  0  0  3  0  0  0  0  0  0
  182.9200  178.2460  140.8010 C   0  0  0  0  0  0  0  0  0  0  0  0
  188.7720  177.5570  144.8420 C   0  0  0  0  0  3  0  0  0  0  0  0
  187.6890  177.7100  142.7000 C   0  0  0  0  0  0  0  0  0  0  0  0
  185.1520  178.5430  145.4210 C   0  0  0  0  0  3  0  0  0  0  0  0
  181.7950  178.3320  140.0500 F   0  0  0  0  0  0  0  0  0  0  0  0
  187.5880  177.8140  145.5180 C   0  0  0  0  0  0  0  0  0  0  0  0
  187.7440  177.7700  146.8460 C   0  0  0  0  0  3  0  0  0  0  0  0
  187.7680  177.5910  141.3110 C   0  0  0  0  0  2  0  0  0  0  0  0
  185.4110  177.9610  141.0710 C   0  0  0  0  0  0  0  0  0  0  0  0
  184.2470  178.0910  140.1190 C   0  0  0  0  0  3  0  0  0  0  0  0
  190.1210  177.2960  142.9080 O   0  0  0  0  0  0  0  0  0  0  0  0
  190.8350  176.0780  143.0680 C   0  0  0  0  0  2  0  0  0  0  0  0
  189.8880  174.9980  143.5520 C   0  0  0  0  0  2  0  0  0  0  0  0
  190.5530  174.1180  144.6030 C   0  0  0  0  0  2  0  0  0  0  0  0
  190.2250  174.5590  146.0300 C   0  0  0  0  0  2  0  0  0  0  0  0
  191.0490  176.3960  147.8230 S   0  0  0  0  0  0  0  0  0  0  0  0
  191.3680  175.2700  146.6730 C   0  0  0  0  0  0  0  0  0  0  0  0
  193.8040  175.5500  145.8840 C   0  0  0  0  0  0  0  0  0  0  0  0
  193.6340  176.7080  145.3390 N   0  0  0  0  0  2  0  0  0  0  0  0
  195.1390  174.9020  145.8060 C   0  0  0  0  0  1  0  0  0  0  0  0
  192.6990  174.8030  146.4090 N   0  0  0  0  0  2  0  0  0  0  0  0
  1  6  1  0  0  0  0
  2  5  1  0  0  0  0
  3  7  1  0  0  0  0
  3  2  2  0  0  0  0
  4  7  2  0  0  0  0
  5 14  2  0  0  0  0
  5 16  1  0  0  0  0
  8 12  1  0  0  0  0
  9  1  2  0  0  0  0
 10 19  2  0  0  0  0
 10 18  1  0  0  0  0
 11  4  1  0  0  0  0
 12 16  2  0  0  0  0
 13  2  1  0  0  0  0
 13  8  2  0  0  0  0
 14  9  1  0  0  0  0
 15 11  1  0  0  0  0
 16 17  1  0  0  0  0
 17  6  2  0  0  0  0
 18 13  1  0  0  0  0
 19  3  1  0  0  0  0
 20 11  2  0  0  0  0
 20 19  1  0  0  0  0
 21 22  1  0  0  0  0
 21  8  1  0  0  0  0
 22 23  1  0  0  0  0
 23 24  1  0  0  0  0
 24 25  1  0  0  0  0
 25 27  1  0  0  0  0
 27 26  2  0  0  0  0
 28 31  1  0  0  0  0
 29 28  2  0  0  0  0
 30 28  1  0  0  0  0
 31 27  1  0  0  0  0
M  END
>  <MODEL>
4

>  <REMARK>
 VINA RESULT:      -7.7      1.288      2.098
  Name = 
  7 active torsions:
  status: ('A' for Active; 'I' for Inactive)
    1  A    between atoms: C_3  and  C_19
    2  A    between atoms: C_3  and  C_22
    3  A    between atoms: C_7  and  C_9
    4  A    between atoms: C_7  and  C_22
    5  A    between atoms: C_9  and  O_23
    6  A    between atoms: C_15  and  O_23
    7  A    between atoms: C_19  and  N_24
                            x       y       z     vdW  Elec       q    Type
                         _______ _______ _______ _____ _____    ______ ____

>  <TORSDO>
F 7

$$$$
=
 OpenBabel11052417493D

 31 34  0  0  0  0  0  0  0  0999 V2000
  189.5150  174.1010  140.7750 C   0  0  0  0  0  3  0  0  0  0  0  0
  187.7180  176.0260  144.5940 C   0  0  0  0  0  0  0  0  0  0  0  0
  186.5360  176.8320  144.3750 C   0  0  0  0  0  0  0  0  0  0  0  0
  184.8320  177.8620  142.8980 C   0  0  0  0  0  3  0  0  0  0  0  0
  188.4250  175.3070  143.5530 C   0  0  0  0  0  0  0  0  0  0  0  0
  190.4450  173.8340  141.6290 N   0  0  0  0  0  0  0  0  0  0  0  0
  186.0180  177.0300  143.1510 C   0  0  0  0  0  2  0  0  0  0  0  0
  189.4020  175.2410  146.2180 C   0  0  0  0  0  0  0  0  0  0  0  0
  188.2270  174.7070  141.0700 C   0  0  0  0  0  3  0  0  0  0  0  0
  186.4330  177.3730  146.7460 C   0  0  0  0  0  3  0  0  0  0  0  0
  184.1980  178.4640  143.8990 C   0  0  0  0  0  0  0  0  0  0  0  0
  190.1000  174.6480  145.1850 C   0  0  0  0  0  3  0  0  0  0  0  0
  188.2240  175.9550  145.9310 C   0  0  0  0  0  0  0  0  0  0  0  0
  187.7950  175.2000  142.2200 C   0  0  0  0  0  3  0  0  0  0  0  0
  183.1060  179.2220  143.6330 F   0  0  0  0  0  0  0  0  0  0  0  0
  189.6540  174.6630  143.8710 C   0  0  0  0  0  0  0  0  0  0  0  0
  190.4990  174.0380  143.0440 C   0  0  0  0  0  3  0  0  0  0  0  0
  187.5770  176.6330  146.9680 C   0  0  0  0  0  3  0  0  0  0  0  0
  185.9060  177.4790  145.4700 C   0  0  0  0  0  0  0  0  0  0  0  0
  184.6550  178.3100  145.3190 C   0  0  0  0  0  3  0  0  0  0  0  0
  189.9470  175.1240  147.5040 O   0  0  0  0  0  0  0  0  0  0  0  0
  191.3410  175.1630  147.7760 C   0  0  0  0  0  2  0  0  0  0  0  0
  191.8680  176.5600  147.5140 C   0  0  0  0  0  2  0  0  0  0  0  0
  193.1790  176.5130  146.7380 C   0  0  0  0  0  2  0  0  0  0  0  0
  192.9680  176.5980  145.2260 C   0  0  0  0  0  2  0  0  0  0  0  0
  193.9390  175.8180  142.8340 S   0  0  0  0  0  0  0  0  0  0  0  0
  194.0240  175.8610  144.4720 C   0  0  0  0  0  0  0  0  0  0  0  0
  195.5250  174.0400  145.5060 C   0  0  0  0  0  0  0  0  0  0  0  0
  194.6690  173.0800  145.3850 N   0  0  0  0  0  2  0  0  0  0  0  0
  196.8350  173.7650  146.1510 C   0  0  0  0  0  1  0  0  0  0  0  0
  195.1760  175.3930  145.1900 N   0  0  0  0  0  2  0  0  0  0  0  0
  1  9  2  0  0  0  0
  1  6  1  0  0  0  0
  2 13  1  0  0  0  0
  3  2  2  0  0  0  0
  3 19  1  0  0  0  0
  4  7  1  0  0  0  0
  4 11  2  0  0  0  0
  5 16  1  0  0  0  0
  5  2  1  0  0  0  0
  6 17  2  0  0  0  0
  7  3  1  0  0  0  0
  8 21  1  0  0  0  0
  9 14  1  0  0  0  0
 10 18  2  0  0  0  0
 11 20  1  0  0  0  0
 12  8  1  0  0  0  0
 13  8  2  0  0  0  0
 13 18  1  0  0  0  0
 14  5  2  0  0  0  0
 15 11  1  0  0  0  0
 16 12  2  0  0  0  0
 17 16  1  0  0  0  0
 19 10  1  0  0  0  0
 20 19  2  0  0  0  0
 21 22  1  0  0  0  0
 23 22  1  0  0  0  0
 24 23  1  0  0  0  0
 25 24  1  0  0  0  0
 26 27  2  0  0  0  0
 27 31  1  0  0  0  0
 27 25  1  0  0  0  0
 28 30  1  0  0  0  0
 29 28  2  0  0  0  0
 31 28  1  0  0  0  0
M  END
>  <MODEL>
5

>  <REMARK>
 VINA RESULT:      -7.7      2.743      4.906
  Name = 
  7 active torsions:
  status: ('A' for Active; 'I' for Inactive)
    1  A    between atoms: C_3  and  C_19
    2  A    between atoms: C_3  and  C_22
    3  A    between atoms: C_7  and  C_9
    4  A    between atoms: C_7  and  C_22
    5  A    between atoms: C_9  and  O_23
    6  A    between atoms: C_15  and  O_23
    7  A    between atoms: C_19  and  N_24
                            x       y       z     vdW  Elec       q    Type
                         _______ _______ _______ _____ _____    ______ ____

>  <TORSDO>
F 7

$$$$
=
 OpenBabel11052417493D

 31 34  0  0  1  0  0  0  0  0999 V2000
  189.7870  171.7350  140.1230 C   0  0  0  0  0  3  0  0  0  0  0  0
  190.1060  175.6170  142.6420 C   0  0  0  0  0  0  0  0  0  0  0  0
  191.1270  175.5990  143.6670 C   0  0  2  0  0  3  0  0  0  0  0  0
  192.9320  174.4720  144.9380 C   0  0  0  0  0  3  0  0  0  0  0  0
  189.8510  174.5290  141.7200 C   0  0  0  0  0  0  0  0  0  0  0  0
  188.7320  172.3600  139.7200 N   0  0  0  0  0  0  0  0  0  0  0  0
  191.9030  174.5250  143.8900 C   0  0  0  0  0  3  0  0  0  0  0  0
  188.2330  176.8600  141.6240 C   0  0  0  0  0  0  0  0  0  0  0  0
  190.8100  172.2610  141.0110 C   0  0  0  0  0  3  0  0  0  0  0  0
  190.4920  177.8390  144.3760 C   0  0  0  0  0  3  0  0  0  0  0  0
  193.1520  175.5180  145.7290 C   0  0  0  0  0  0  0  0  0  0  0  0
  187.9600  175.7680  140.8270 C   0  0  0  0  0  3  0  0  0  0  0  0
  189.2860  176.7870  142.5540 C   0  0  0  0  0  0  0  0  0  0  0  0
  190.8200  173.4140  141.6610 C   0  0  0  0  0  3  0  0  0  0  0  0
  194.1100  175.4380  146.6850 F   0  0  0  0  0  0  0  0  0  0  0  0
  188.7270  174.6110  140.8490 C   0  0  0  0  0  0  0  0  0  0  0  0
  188.2670  173.6830  140.0020 C   0  0  0  0  0  3  0  0  0  0  0  0
  189.4940  177.8610  143.4230 C   0  0  0  0  0  3  0  0  0  0  0  0
  191.3090  176.7290  144.5070 C   0  0  0  0  0  0  0  0  0  0  0  0
  192.3730  176.7900  145.5760 C   0  0  0  0  0  3  0  0  0  0  0  0
  187.4000  177.9780  141.4800 O   0  0  0  0  0  0  0  0  0  0  0  0
  185.9880  177.8960  141.3410 C   0  0  0  0  0  2  0  0  0  0  0  0
  185.3700  177.5370  142.6780 C   0  0  0  0  0  2  0  0  0  0  0  0
  185.1850  178.7770  143.5450 C   0  0  0  0  0  2  0  0  0  0  0  0
  186.1960  178.8480  144.6900 C   0  0  0  0  0  2  0  0  0  0  0  0
  184.5400  177.8150  146.5490 S   0  0  0  0  0  0  0  0  0  0  0  0
  185.9530  177.7940  145.7170 C   0  0  0  0  0  0  0  0  0  0  0  0
  188.0150  176.5600  146.6470 C   0  0  0  0  0  0  0  0  0  0  0  0
  188.5010  177.5760  147.2800 N   0  0  0  0  0  2  0  0  0  0  0  0
  188.7600  175.2750  146.6590 C   0  0  0  0  0  1  0  0  0  0  0  0
  186.8700  176.6910  145.7960 N   0  0  0  0  0  2  0  0  0  0  0  0
  1  9  1  0  0  0  0
  2  3  1  0  0  0  0
  3  7  1  1  0  0  0
  3 19  1  0  0  0  0
  4 11  1  0  0  0  0
  5  2  2  0  0  0  0
  6 17  1  0  0  0  0
  6  1  2  0  0  0  0
  7  4  2  0  0  0  0
  8 13  1  0  0  0  0
  9 14  2  0  0  0  0
 10 19  2  0  0  0  0
 11 15  1  0  0  0  0
 12 16  1  0  0  0  0
 12  8  2  0  0  0  0
 13  2  1  0  0  0  0
 13 18  2  0  0  0  0
 14  5  1  0  0  0  0
 16  5  1  0  0  0  0
 17 16  2  0  0  0  0
 18 10  1  0  0  0  0
 19 20  1  0  0  0  0
 20 11  2  0  0  0  0
 21  8  1  0  0  0  0
 22 21  1  0  0  0  0
 22 23  1  0  0  0  0
 23 24  1  0  0  0  0
 24 25  1  0  0  0  0
 25 27  1  0  0  0  0
 27 31  1  0  0  0  0
 27 26  2  0  0  0  0
 28 30  1  0  0  0  0
 28 29  2  0  0  0  0
 31 28  1  0  0  0  0
M  END
>  <MODEL>
6

>  <REMARK>
 VINA RESULT:      -7.5      4.116      7.660
  Name = 
  7 active torsions:
  status: ('A' for Active; 'I' for Inactive)
    1  A    between atoms: C_3  and  C_19
    2  A    between atoms: C_3  and  C_22
    3  A    between atoms: C_7  and  C_9
    4  A    between atoms: C_7  and  C_22
    5  A    between atoms: C_9  and  O_23
    6  A    between atoms: C_15  and  O_23
    7  A    between atoms: C_19  and  N_24
                            x       y       z     vdW  Elec       q    Type
                         _______ _______ _______ _____ _____    ______ ____

>  <TORSDO>
F 7

$$$$
=
 OpenBabel11052417493D

 31 34  0  0  0  0  0  0  0  0999 V2000
  185.8390  178.5240  141.7220 C   0  0  0  0  0  3  0  0  0  0  0  0
  188.6320  175.1440  143.2360 C   0  0  0  0  0  0  0  0  0  0  0  0
  188.9690  174.1410  142.2490 C   0  0  0  0  0  0  0  0  0  0  0  0
  188.7930  173.1570  139.9810 C   0  0  0  0  0  3  0  0  0  0  0  0
  187.8020  176.3040  142.9760 C   0  0  0  0  0  0  0  0  0  0  0  0
  185.8450  178.7780  142.9880 N   0  0  0  0  0  0  0  0  0  0  0  0
  188.4840  174.1740  140.9960 C   0  0  0  0  0  2  0  0  0  0  0  0
  188.8130  175.8560  145.5920 C   0  0  0  0  0  0  0  0  0  0  0  0
  186.6460  177.5240  141.0430 C   0  0  0  0  0  3  0  0  0  0  0  0
  190.2830  172.9230  143.8970 C   0  0  0  0  0  3  0  0  0  0  0  0
  189.5960  172.1360  140.2630 C   0  0  0  0  0  0  0  0  0  0  0  0
  187.9440  176.8960  145.3290 C   0  0  0  0  0  3  0  0  0  0  0  0
  189.1430  174.9580  144.5600 C   0  0  0  0  0  0  0  0  0  0  0  0
  187.4480  176.6170  141.5750 C   0  0  0  0  0  3  0  0  0  0  0  0
  189.8630  171.2160  139.3050 F   0  0  0  0  0  0  0  0  0  0  0  0
  187.4280  177.1430  144.0650 C   0  0  0  0  0  0  0  0  0  0  0  0
  186.5990  178.1930  144.0530 C   0  0  0  0  0  3  0  0  0  0  0  0
  189.9460  173.8550  144.8580 C   0  0  0  0  0  3  0  0  0  0  0  0
  189.8090  173.0530  142.6020 C   0  0  0  0  0  0  0  0  0  0  0  0
  190.2260  171.9880  141.6160 C   0  0  0  0  0  3  0  0  0  0  0  0
  189.2850  175.7380  146.9060 O   0  0  0  0  0  0  0  0  0  0  0  0
  190.3860  176.4760  147.4170 C   0  0  0  0  0  2  0  0  0  0  0  0
  191.5850  175.5600  147.5620 C   0  0  0  0  0  2  0  0  0  0  0  0
  192.8720  176.2790  147.1760 C   0  0  0  0  0  2  0  0  0  0  0  0
  193.7160  175.4790  146.1830 C   0  0  0  0  0  2  0  0  0  0  0  0
  195.3880  175.8980  144.1100 S   0  0  0  0  0  0  0  0  0  0  0  0
  194.0310  176.2650  144.9550 C   0  0  0  0  0  0  0  0  0  0  0  0
  192.0550  176.9200  143.4360 C   0  0  0  0  0  0  0  0  0  0  0  0
  192.1340  175.8860  142.6660 N   0  0  0  0  0  2  0  0  0  0  0  0
  191.0340  177.9610  143.1510 C   0  0  0  0  0  1  0  0  0  0  0  0
  193.0370  177.1700  144.4500 N   0  0  0  0  0  2  0  0  0  0  0  0
  1  6  1  0  0  0  0
  2 13  1  0  0  0  0
  3 19  1  0  0  0  0
  3  2  2  0  0  0  0
  4 11  2  0  0  0  0
  4  7  1  0  0  0  0
  5  2  1  0  0  0  0
  5 16  1  0  0  0  0
  6 17  2  0  0  0  0
  7  3  1  0  0  0  0
  8 21  1  0  0  0  0
  9 14  1  0  0  0  0
  9  1  2  0  0  0  0
 10 18  2  0  0  0  0
 11 20  1  0  0  0  0
 12  8  1  0  0  0  0
 13 18  1  0  0  0  0
 13  8  2  0  0  0  0
 14  5  2  0  0  0  0
 15 11  1  0  0  0  0
 16 12  2  0  0  0  0
 17 16  1  0  0  0  0
 19 10  1  0  0  0  0
 20 19  2  0  0  0  0
 21 22  1  0  0  0  0
 22 23  1  0  0  0  0
 24 23  1  0  0  0  0
 25 24  1  0  0  0  0
 26 27  2  0  0  0  0
 27 25  1  0  0  0  0
 28 31  1  0  0  0  0
 29 28  2  0  0  0  0
 30 28  1  0  0  0  0
 31 27  1  0  0  0  0
M  END
>  <MODEL>
7

>  <REMARK>
 VINA RESULT:      -7.4      3.476      5.397
  Name = 
  7 active torsions:
  status: ('A' for Active; 'I' for Inactive)
    1  A    between atoms: C_3  and  C_19
    2  A    between atoms: C_3  and  C_22
    3  A    between atoms: C_7  and  C_9
    4  A    between atoms: C_7  and  C_22
    5  A    between atoms: C_9  and  O_23
    6  A    between atoms: C_15  and  O_23
    7  A    between atoms: C_19  and  N_24
                            x       y       z     vdW  Elec       q    Type
                         _______ _______ _______ _____ _____    ______ ____

>  <TORSDO>
F 7

$$$$
=
 OpenBabel11052417493D

 31 34  0  0  0  0  0  0  0  0999 V2000
  185.8670  179.0490  143.2470 C   0  0  0  0  0  3  0  0  0  0  0  0
  188.7220  175.4140  143.6410 C   0  0  0  0  0  0  0  0  0  0  0  0
  188.9520  174.6810  142.4150 C   0  0  0  0  0  0  0  0  0  0  0  0
  188.5570  174.2740  140.0020 C   0  0  0  0  0  3  0  0  0  0  0  0
  187.8930  176.5990  143.7450 C   0  0  0  0  0  0  0  0  0  0  0  0
  185.9900  178.9890  144.5310 N   0  0  0  0  0  0  0  0  0  0  0  0
  188.3580  175.0140  141.2560 C   0  0  0  0  0  2  0  0  0  0  0  0
  189.1240  175.5360  146.0730 C   0  0  0  0  0  0  0  0  0  0  0  0
  186.5920  178.2460  142.2760 C   0  0  0  0  0  3  0  0  0  0  0  0
  190.3840  173.1050  143.5940 C   0  0  0  0  0  3  0  0  0  0  0  0
  189.3630  173.2180  139.9550 C   0  0  0  0  0  0  0  0  0  0  0  0
  188.2540  176.6040  146.1480 C   0  0  0  0  0  3  0  0  0  0  0  0
  189.3450  174.9150  144.8300 C   0  0  0  0  0  0  0  0  0  0  0  0
  187.4220  177.2400  142.4990 C   0  0  0  0  0  3  0  0  0  0  0  0
  189.5270  172.5590  138.7830 F   0  0  0  0  0  0  0  0  0  0  0  0
  187.6330  177.1480  145.0330 C   0  0  0  0  0  0  0  0  0  0  0  0
  186.8250  178.1660  145.3500 C   0  0  0  0  0  3  0  0  0  0  0  0
  190.1510  173.7750  144.7780 C   0  0  0  0  0  3  0  0  0  0  0  0
  189.8000  173.5430  142.4180 C   0  0  0  0  0  0  0  0  0  0  0  0
  190.1080  172.7500  141.1700 C   0  0  0  0  0  3  0  0  0  0  0  0
  189.7090  175.1050  147.2710 O   0  0  0  0  0  0  0  0  0  0  0  0
  190.8040  175.7610  147.8940 C   0  0  0  0  0  2  0  0  0  0  0  0
  192.1000  175.2820  147.2710 C   0  0  0  0  0  2  0  0  0  0  0  0
  192.8620  176.4390  146.6350 C   0  0  0  0  0  2  0  0  0  0  0  0
  192.5770  176.5760  145.1400 C   0  0  0  0  0  2  0  0  0  0  0  0
  193.1990  175.5710  142.7170 S   0  0  0  0  0  0  0  0  0  0  0  0
  193.5170  175.7630  144.3140 C   0  0  0  0  0  0  0  0  0  0  0  0
  195.1570  174.0310  145.2880 C   0  0  0  0  0  0  0  0  0  0  0  0
  194.2950  173.0730  145.3810 N   0  0  0  0  0  2  0  0  0  0  0  0
  196.5460  173.8050  145.7630 C   0  0  0  0  0  1  0  0  0  0  0  0
  194.7620  175.3530  144.9010 N   0  0  0  0  0  2  0  0  0  0  0  0
  1  6  1  0  0  0  0
  2  5  1  0  0  0  0
  2 13  1  0  0  0  0
  3 19  1  0  0  0  0
  3  2  2  0  0  0  0
  4  7  1  0  0  0  0
  5 16  1  0  0  0  0
  6 17  2  0  0  0  0
  7  3  1  0  0  0  0
  8 12  1  0  0  0  0
  8 21  1  0  0  0  0
  9 14  1  0  0  0  0
  9  1  2  0  0  0  0
 10 18  2  0  0  0  0
 11  4  2  0  0  0  0
 11 20  1  0  0  0  0
 13  8  2  0  0  0  0
 14  5  2  0  0  0  0
 15 11  1  0  0  0  0
 16 17  1  0  0  0  0
 16 12  2  0  0  0  0
 18 13  1  0  0  0  0
 19 10  1  0  0  0  0
 20 19  2  0  0  0  0
 21 22  1  0  0  0  0
 23 22  1  0  0  0  0
 24 23  1  0  0  0  0
 25 24  1  0  0  0  0
 26 27  2  0  0  0  0
 27 31  1  0  0  0  0
 27 25  1  0  0  0  0
 28 29  2  0  0  0  0
 28 30  1  0  0  0  0
 31 28  1  0  0  0  0
M  END
>  <MODEL>
8

>  <REMARK>
 VINA RESULT:      -7.3      3.257      5.134
  Name = 
  7 active torsions:
  status: ('A' for Active; 'I' for Inactive)
    1  A    between atoms: C_3  and  C_19
    2  A    between atoms: C_3  and  C_22
    3  A    between atoms: C_7  and  C_9
    4  A    between atoms: C_7  and  C_22
    5  A    between atoms: C_9  and  O_23
    6  A    between atoms: C_15  and  O_23
    7  A    between atoms: C_19  and  N_24
                            x       y       z     vdW  Elec       q    Type
                         _______ _______ _______ _____ _____    ______ ____

>  <TORSDO>
F 7

$$$$
=
 OpenBabel11052417493D

 31 34  0  0  1  0  0  0  0  0999 V2000
  192.2910  175.8850  147.0160 C   0  0  0  0  0  3  0  0  0  0  0  0
  188.3360  176.5500  144.6840 C   0  0  0  0  0  0  0  0  0  0  0  0
  187.2470  177.0890  145.4690 C   0  0  2  0  0  3  0  0  0  0  0  0
  186.2690  177.8750  147.6070 C   0  0  0  0  0  3  0  0  0  0  0  0
  189.6670  176.2930  145.1970 C   0  0  0  0  0  0  0  0  0  0  0  0
  192.5760  175.2980  145.9020 N   0  0  0  0  0  0  0  0  0  0  0  0
  187.3660  177.3480  146.7820 C   0  0  0  0  0  3  0  0  0  0  0  0
  189.0530  175.6550  142.4990 C   0  0  0  0  0  0  0  0  0  0  0  0
  191.0880  176.6500  147.2990 C   0  0  0  0  0  3  0  0  0  0  0  0
  185.7760  177.0100  143.5310 C   0  0  0  0  0  3  0  0  0  0  0  0
  185.0800  178.1340  147.0730 C   0  0  0  0  0  0  0  0  0  0  0  0
  190.2790  175.3370  143.0480 C   0  0  0  0  0  3  0  0  0  0  0  0
  188.0650  176.2370  143.3140 C   0  0  0  0  0  0  0  0  0  0  0  0
  190.0160  176.8060  146.5390 C   0  0  0  0  0  3  0  0  0  0  0  0
  184.0900  178.6200  147.8600 F   0  0  0  0  0  0  0  0  0  0  0  0
  190.6130  175.6310  144.3630 C   0  0  0  0  0  0  0  0  0  0  0  0
  191.8460  175.2190  144.6750 C   0  0  0  0  0  3  0  0  0  0  0  0
  186.7960  176.4670  142.7750 C   0  0  0  0  0  3  0  0  0  0  0  0
  185.9850  177.3240  144.8630 C   0  0  0  0  0  0  0  0  0  0  0  0
  184.8140  177.9120  145.6130 C   0  0  0  0  0  3  0  0  0  0  0  0
  188.8570  175.3330  141.1490 O   0  0  0  0  0  0  0  0  0  0  0  0
  188.5250  174.0300  140.6910 C   0  0  0  0  0  2  0  0  0  0  0  0
  189.2910  173.7320  139.4170 C   0  0  0  0  0  2  0  0  0  0  0  0
  189.8060  172.2970  139.4110 C   0  0  0  0  0  2  0  0  0  0  0  0
  190.8730  172.0530  140.4780 C   0  0  0  0  0  2  0  0  0  0  0  0
  190.9480  169.4420  141.1450 S   0  0  0  0  0  0  0  0  0  0  0  0
  190.4700  170.9830  141.4380 C   0  0  0  0  0  0  0  0  0  0  0  0
  190.5070  171.7900  143.8840 C   0  0  0  0  0  0  0  0  0  0  0  0
  191.7730  171.6110  144.0630 N   0  0  0  0  0  2  0  0  0  0  0  0
  189.6760  172.2730  145.0180 C   0  0  0  0  0  1  0  0  0  0  0  0
  189.8580  171.3720  142.6770 N   0  0  0  0  0  2  0  0  0  0  0  0
  1  9  1  0  0  0  0
  2  5  2  0  0  0  0
  2  3  1  0  0  0  0
  3  7  1  1  0  0  0
  5 14  1  0  0  0  0
  6  1  2  0  0  0  0
  7  4  2  0  0  0  0
  8 12  2  0  0  0  0
  8 13  1  0  0  0  0
 10 19  2  0  0  0  0
 11  4  1  0  0  0  0
 11 15  1  0  0  0  0
 12 16  1  0  0  0  0
 13  2  1  0  0  0  0
 14  9  2  0  0  0  0
 16 17  2  0  0  0  0
 16  5  1  0  0  0  0
 17  6  1  0  0  0  0
 18 13  2  0  0  0  0
 18 10  1  0  0  0  0
 19  3  1  0  0  0  0
 19 20  1  0  0  0  0
 20 11  2  0  0  0  0
 21  8  1  0  0  0  0
 22 21  1  0  0  0  0
 23 22  1  0  0  0  0
 24 23  1  0  0  0  0
 24 25  1  0  0  0  0
 25 27  1  0  0  0  0
 26 27  2  0  0  0  0
 27 31  1  0  0  0  0
 28 29  2  0  0  0  0
 28 30  1  0  0  0  0
 31 28  1  0  0  0  0
M  END
>  <MODEL>
9

>  <REMARK>
 VINA RESULT:      -7.3      3.326      5.198
  Name = 
  7 active torsions:
  status: ('A' for Active; 'I' for Inactive)
    1  A    between atoms: C_3  and  C_19
    2  A    between atoms: C_3  and  C_22
    3  A    between atoms: C_7  and  C_9
    4  A    between atoms: C_7  and  C_22
    5  A    between atoms: C_9  and  O_23
    6  A    between atoms: C_15  and  O_23
    7  A    between atoms: C_19  and  N_24
                            x       y       z     vdW  Elec       q    Type
                         _______ _______ _______ _____ _____    ______ ____

>  <TORSDO>
F 7

$$$$
