=
 OpenBabel11052420103D

 37 40  0  0  1  0  0  0  0  0999 V2000
  188.5150  174.3910  140.1560 C   0  0  0  0  0  3  0  0  0  0  0  0
  190.6350  173.8210  140.7170 O   0  0  0  0  0  1  0  0  0  0  0  0
  189.0400  175.4330  142.5030 C   0  0  2  0  0  3  0  0  0  0  0  0
  188.9530  172.1880  144.0510 O   0  0  0  0  0  1  0  0  0  0  0  0
  188.0550  176.0430  143.4890 C   0  0  0  0  0  2  0  0  0  0  0  0
  189.3510  173.2530  140.5740 C   0  0  1  0  0  0  0  0  0  0  0  0
  189.5630  172.7330  142.9220 C   0  0  1  0  0  0  0  0  0  0  0  0
  190.4480  171.0690  140.9890 C   0  0  2  0  0  3  0  0  0  0  0  0
  187.5040  176.5220  140.7040 C   0  0  0  0  0  3  0  0  0  0  0  0
  188.5890  172.7810  141.8330 C   0  0  0  0  0  2  0  0  0  0  0  0
  189.6250  171.9200  139.9270 C   0  0  0  0  0  2  0  0  0  0  0  0
  188.3960  175.4070  141.0610 C   0  0  0  0  0  0  0  0  0  0  0  0
  189.9230  174.2560  143.1620 C   0  0  2  0  0  3  0  0  0  0  0  0
  187.6790  177.4460  143.0140 C   0  0  1  0  0  3  0  0  0  0  0  0
  190.7000  171.7610  142.4120 C   0  0  0  0  0  2  0  0  0  0  0  0
  187.1520  177.4480  141.6000 C   0  0  0  0  0  3  0  0  0  0  0  0
  185.7850  179.0470  143.6050 C   0  0  0  0  0  3  0  0  0  0  0  0
  186.7040  178.0740  143.9530 C   0  0  0  0  0  0  0  0  0  0  0  0
  186.5900  177.8170  145.3040 C   0  0  0  0  0  3  0  0  0  0  0  0
  185.6200  178.6120  145.7820 N   0  0  0  0  0  0  0  0  0  0  0  0
  185.1190  179.3550  144.7780 C   0  0  0  0  0  3  0  0  0  0  0  0
  186.0220  177.7350  148.0160 C   0  0  0  0  0  1  0  0  0  0  0  0
  185.1560  178.6380  147.1590 C   0  0  0  0  0  2  0  0  0  0  0  0
  191.7390  170.7220  139.0120 O   0  0  0  0  0  1  0  0  0  0  0  0
  191.7720  170.6120  140.4030 C   0  0  0  0  0  2  0  0  0  0  0  0
  190.9610  174.6210  144.2660 C   0  0  1  0  0  0  0  0  0  0  0  0
  192.6360  173.0980  145.1410 O   0  0  0  0  0  1  0  0  0  0  0  0
  192.3010  173.8970  144.0450 C   0  0  0  0  0  2  0  0  0  0  0  0
  191.1950  176.1450  144.3100 C   0  0  0  0  0  2  0  0  0  0  0  0
  192.6310  176.5670  144.2770 C   0  0  0  0  0  0  0  0  0  0  0  0
  194.7250  177.1920  145.5300 C   0  0  0  0  0  1  0  0  0  0  0  0
  193.2140  176.7260  143.1700 O   0  0  0  0  0  0  0  0  0  0  0  0
  193.3340  176.7740  145.5020 N   0  0  0  0  0  2  0  0  0  0  0  0
  190.3860  174.1760  145.6230 C   0  0  0  0  0  2  0  0  0  0  0  0
  190.1070  175.3200  146.5940 C   0  0  1  0  0  3  0  0  0  0  0  0
  188.6790  175.2380  147.0940 C   0  0  0  0  0  1  0  0  0  0  0  0
  190.9770  175.2270  147.6780 O   0  0  0  0  0  1  0  0  0  0  0  0
  1  6  1  0  0  0  0
  1 12  2  0  0  0  0
  3 13  1  0  0  0  0
  3  5  1  1  0  0  0
  6  2  1  1  0  0  0
  6 10  1  0  0  0  0
  7 13  1  0  0  0  0
  7  4  1  1  0  0  0
  8 25  1  6  0  0  0
  8 15  1  0  0  0  0
  9 12  1  0  0  0  0
  9 16  2  0  0  0  0
 10  7  1  0  0  0  0
 11  6  1  0  0  0  0
 11  8  1  0  0  0  0
 12  3  1  0  0  0  0
 13 26  1  1  0  0  0
 14  5  1  0  0  0  0
 14 18  1  1  0  0  0
 15  7  1  0  0  0  0
 16 14  1  0  0  0  0
 17 18  1  0  0  0  0
 17 21  2  0  0  0  0
 18 19  2  0  0  0  0
 19 20  1  0  0  0  0
 20 23  1  0  0  0  0
 21 20  1  0  0  0  0
 23 22  1  0  0  0  0
 24 25  1  0  0  0  0
 26 28  1  6  0  0  0
 26 29  1  0  0  0  0
 26 34  1  0  0  0  0
 28 27  1  0  0  0  0
 30 29  1  0  0  0  0
 30 33  1  0  0  0  0
 32 30  2  0  0  0  0
 33 31  1  0  0  0  0
 34 35  1  0  0  0  0
 35 36  1  1  0  0  0
 35 37  1  0  0  0  0
M  END
>  <MODEL>
1

>  <REMARK>
 VINA RESULT:      -7.2      0.000      0.000
  Name = 
  9 active torsions:
  status: ('A' for Active; 'I' for Inactive)
    1  A    between atoms: C_1  and  C_5
    2  A    between atoms: C_1  and  C_36
    3  A    between atoms: C_6  and  C_31
    4  A    between atoms: C_11  and  C_33
    5  A    between atoms: N_18  and  C_19
    6  A    between atoms: C_21  and  C_30
    7  A    between atoms: C_27  and  C_36
    8  A    between atoms: C_29  and  C_36
    9  A    between atoms: C_33  and  C_36
                            x       y       z     vdW  Elec       q    Type
                         _______ _______ _______ _____ _____    ______ ____

>  <TORSDO>
F 9

$$$$
=
 OpenBabel11052420103D

 37 40  0  0  1  0  0  0  0  0999 V2000
  191.5250  176.4550  147.0060 C   0  0  0  0  0  3  0  0  0  0  0  0
  192.4620  174.6170  146.0680 O   0  0  0  0  0  1  0  0  0  0  0  0
  190.1210  175.8220  144.8850 C   0  0  2  0  0  3  0  0  0  0  0  0
  192.7720  176.9040  142.7100 O   0  0  0  0  0  1  0  0  0  0  0  0
  189.0650  176.6640  144.1860 C   0  0  0  0  0  2  0  0  0  0  0  0
  192.7030  175.9950  146.2520 C   0  0  1  0  0  0  0  0  0  0  0  0
  192.6850  176.0930  143.8390 C   0  0  1  0  0  0  0  0  0  0  0  0
  194.9300  175.5730  145.2460 C   0  0  2  0  0  3  0  0  0  0  0  0
  189.1400  176.8740  147.0570 C   0  0  0  0  0  3  0  0  0  0  0  0
  192.6530  176.9400  145.0310 C   0  0  0  0  0  2  0  0  0  0  0  0
  194.1770  176.0560  146.5620 C   0  0  0  0  0  2  0  0  0  0  0  0
  190.3260  176.3500  146.3600 C   0  0  0  0  0  0  0  0  0  0  0  0
  191.2900  175.3440  143.8830 C   0  0  2  0  0  3  0  0  0  0  0  0
  187.7680  176.6060  144.9920 C   0  0  1  0  0  3  0  0  0  0  0  0
  194.0050  175.2360  143.9820 C   0  0  0  0  0  2  0  0  0  0  0  0
  187.9690  177.0160  146.4300 C   0  0  0  0  0  3  0  0  0  0  0  0
  186.3600  178.7150  144.7200 C   0  0  0  0  0  3  0  0  0  0  0  0
  186.7080  177.4310  144.3410 C   0  0  0  0  0  0  0  0  0  0  0  0
  185.8930  177.0380  143.2980 C   0  0  0  0  0  3  0  0  0  0  0  0
  185.0600  178.0580  143.0350 N   0  0  0  0  0  0  0  0  0  0  0  0
  185.3260  179.0770  143.8740 C   0  0  0  0  0  3  0  0  0  0  0  0
  184.7240  178.1910  140.6290 C   0  0  0  0  0  1  0  0  0  0  0  0
  184.0550  178.0740  141.9850 C   0  0  0  0  0  2  0  0  0  0  0  0
  195.3570  173.2510  144.9000 O   0  0  0  0  0  1  0  0  0  0  0  0
  195.8330  174.3910  145.5470 C   0  0  0  0  0  2  0  0  0  0  0  0
  190.9470  174.3230  142.7580 C   0  0  1  0  0  0  0  0  0  0  0  0
  192.4150  174.0440  140.8440 O   0  0  0  0  0  1  0  0  0  0  0  0
  192.2160  173.6730  142.1770 C   0  0  0  0  0  2  0  0  0  0  0  0
  189.9990  173.2280  143.2870 C   0  0  0  0  0  2  0  0  0  0  0  0
  190.5330  171.8310  143.2060 C   0  0  0  0  0  0  0  0  0  0  0  0
  190.7540  169.6780  141.9170 C   0  0  0  0  0  1  0  0  0  0  0  0
  191.2250  171.3670  144.1520 O   0  0  0  0  0  0  0  0  0  0  0  0
  190.2680  171.0410  142.0470 N   0  0  0  0  0  2  0  0  0  0  0  0
  190.2300  175.0840  141.6280 C   0  0  0  0  0  2  0  0  0  0  0  0
  188.9220  174.4450  141.1700 C   0  0  1  0  0  3  0  0  0  0  0  0
  187.9120  175.5220  140.8300 C   0  0  0  0  0  1  0  0  0  0  0  0
  189.1610  173.6680  140.0390 O   0  0  0  0  0  1  0  0  0  0  0  0
  3  5  1  6  0  0  0
  3 12  1  0  0  0  0
  5 14  1  0  0  0  0
  6  2  1  6  0  0  0
  6 11  1  0  0  0  0
  6  1  1  0  0  0  0
  7  4  1  6  0  0  0
  7 13  1  0  0  0  0
  7 15  1  0  0  0  0
  7 10  1  0  0  0  0
  8 25  1  1  0  0  0
  8 11  1  0  0  0  0
 10  6  1  0  0  0  0
 12  1  2  0  0  0  0
 12  9  1  0  0  0  0
 13 26  1  6  0  0  0
 13  3  1  0  0  0  0
 14 18  1  6  0  0  0
 14 16  1  0  0  0  0
 15  8  1  0  0  0  0
 16  9  2  0  0  0  0
 18 17  1  0  0  0  0
 19 18  2  0  0  0  0
 20 19  1  0  0  0  0
 20 21  1  0  0  0  0
 21 17  2  0  0  0  0
 22 23  1  0  0  0  0
 23 20  1  0  0  0  0
 24 25  1  0  0  0  0
 26 34  1  6  0  0  0
 26 29  1  0  0  0  0
 27 28  1  0  0  0  0
 28 26  1  0  0  0  0
 30 29  1  0  0  0  0
 30 32  2  0  0  0  0
 31 33  1  0  0  0  0
 33 30  1  0  0  0  0
 35 36  1  6  0  0  0
 35 34  1  0  0  0  0
 37 35  1  0  0  0  0
M  END
>  <MODEL>
2

>  <REMARK>
 VINA RESULT:      -7.1      2.106      5.535
  Name = 
  9 active torsions:
  status: ('A' for Active; 'I' for Inactive)
    1  A    between atoms: C_1  and  C_5
    2  A    between atoms: C_1  and  C_36
    3  A    between atoms: C_6  and  C_31
    4  A    between atoms: C_11  and  C_33
    5  A    between atoms: N_18  and  C_19
    6  A    between atoms: C_21  and  C_30
    7  A    between atoms: C_27  and  C_36
    8  A    between atoms: C_29  and  C_36
    9  A    between atoms: C_33  and  C_36
                            x       y       z     vdW  Elec       q    Type
                         _______ _______ _______ _____ _____    ______ ____

>  <TORSDO>
F 9

$$$$
=
 OpenBabel11052420103D

 37 40  0  0  1  0  0  0  0  0999 V2000
  191.6940  176.6530  146.9860 C   0  0  0  0  0  3  0  0  0  0  0  0
  192.5210  174.6490  146.3280 O   0  0  0  0  0  1  0  0  0  0  0  0
  190.1940  175.7590  145.0310 C   0  0  2  0  0  3  0  0  0  0  0  0
  192.8140  176.3600  142.6410 O   0  0  0  0  0  1  0  0  0  0  0  0
  189.1520  176.5290  144.2350 C   0  0  0  0  0  2  0  0  0  0  0  0
  192.8270  176.0260  146.2840 C   0  0  1  0  0  0  0  0  0  0  0  0
  192.7310  175.7430  143.8880 C   0  0  1  0  0  0  0  0  0  0  0  0
  194.9990  175.3470  145.2980 C   0  0  2  0  0  3  0  0  0  0  0  0
  189.3320  177.1850  147.0330 C   0  0  0  0  0  3  0  0  0  0  0  0
  192.7750  176.7680  144.9290 C   0  0  0  0  0  2  0  0  0  0  0  0
  194.3110  176.0670  146.5400 C   0  0  0  0  0  2  0  0  0  0  0  0
  190.4710  176.5030  146.3970 C   0  0  0  0  0  0  0  0  0  0  0  0
  191.3080  175.0760  144.0880 C   0  0  2  0  0  3  0  0  0  0  0  0
  187.8810  176.6590  145.0740 C   0  0  1  0  0  3  0  0  0  0  0  0
  194.0180  174.8580  144.1290 C   0  0  0  0  0  2  0  0  0  0  0  0
  188.1470  177.2810  146.4230 C   0  0  0  0  0  3  0  0  0  0  0  0
  186.3630  178.6700  144.6820 C   0  0  0  0  0  3  0  0  0  0  0  0
  186.8350  177.4190  144.3290 C   0  0  0  0  0  0  0  0  0  0  0  0
  186.1560  176.9880  143.2070 C   0  0  0  0  0  3  0  0  0  0  0  0
  185.2840  177.9510  142.8720 N   0  0  0  0  0  0  0  0  0  0  0  0
  185.3940  178.9730  143.7410 C   0  0  0  0  0  3  0  0  0  0  0  0
  185.1650  178.1750  140.4510 C   0  0  0  0  0  1  0  0  0  0  0  0
  184.3880  177.9140  141.7280 C   0  0  0  0  0  2  0  0  0  0  0  0
  195.2810  172.9790  145.3720 O   0  0  0  0  0  1  0  0  0  0  0  0
  195.8610  174.1870  145.7600 C   0  0  0  0  0  2  0  0  0  0  0  0
  190.8850  173.9060  143.1480 C   0  0  1  0  0  0  0  0  0  0  0  0
  189.6200  172.0760  144.1200 O   0  0  0  0  0  1  0  0  0  0  0  0
  189.5070  173.3400  143.5340 C   0  0  0  0  0  2  0  0  0  0  0  0
  190.8630  174.3700  141.6780 C   0  0  0  0  0  2  0  0  0  0  0  0
  189.5640  174.1560  140.9640 C   0  0  0  0  0  0  0  0  0  0  0  0
  188.1510  172.7380  139.4360 C   0  0  0  0  0  1  0  0  0  0  0  0
  188.6320  174.9960  141.0910 O   0  0  0  0  0  0  0  0  0  0  0  0
  189.3870  172.9920  140.1570 N   0  0  0  0  0  2  0  0  0  0  0  0
  191.9290  172.7840  143.2900 C   0  0  0  0  0  2  0  0  0  0  0  0
  192.4060  172.1970  141.9640 C   0  0  1  0  0  3  0  0  0  0  0  0
  193.9020  171.9620  142.0100 C   0  0  0  0  0  1  0  0  0  0  0  0
  191.7590  170.9840  141.7380 O   0  0  0  0  0  1  0  0  0  0  0  0
  3  5  1  6  0  0  0
  3 12  1  0  0  0  0
  5 14  1  0  0  0  0
  6  2  1  6  0  0  0
  6 11  1  0  0  0  0
  6  1  1  0  0  0  0
  7  4  1  6  0  0  0
  7 13  1  0  0  0  0
  7 15  1  0  0  0  0
  7 10  1  0  0  0  0
  8 25  1  1  0  0  0
  8 11  1  0  0  0  0
 10  6  1  0  0  0  0
 12  1  2  0  0  0  0
 12  9  1  0  0  0  0
 13 26  1  6  0  0  0
 13  3  1  0  0  0  0
 14 18  1  6  0  0  0
 14 16  1  0  0  0  0
 15  8  1  0  0  0  0
 16  9  2  0  0  0  0
 18 17  1  0  0  0  0
 19 18  2  0  0  0  0
 20 19  1  0  0  0  0
 20 21  1  0  0  0  0
 21 17  2  0  0  0  0
 22 23  1  0  0  0  0
 23 20  1  0  0  0  0
 24 25  1  0  0  0  0
 26 29  1  6  0  0  0
 26 34  1  0  0  0  0
 26 28  1  0  0  0  0
 28 27  1  0  0  0  0
 30 32  2  0  0  0  0
 30 29  1  0  0  0  0
 31 33  1  0  0  0  0
 33 30  1  0  0  0  0
 35 36  1  1  0  0  0
 35 34  1  0  0  0  0
 37 35  1  0  0  0  0
M  END
>  <MODEL>
3

>  <REMARK>
 VINA RESULT:      -7.1      2.199      5.607
  Name = 
  9 active torsions:
  status: ('A' for Active; 'I' for Inactive)
    1  A    between atoms: C_1  and  C_5
    2  A    between atoms: C_1  and  C_36
    3  A    between atoms: C_6  and  C_31
    4  A    between atoms: C_11  and  C_33
    5  A    between atoms: N_18  and  C_19
    6  A    between atoms: C_21  and  C_30
    7  A    between atoms: C_27  and  C_36
    8  A    between atoms: C_29  and  C_36
    9  A    between atoms: C_33  and  C_36
                            x       y       z     vdW  Elec       q    Type
                         _______ _______ _______ _____ _____    ______ ____

>  <TORSDO>
F 9

$$$$
=
 OpenBabel11052420103D

 37 40  0  0  1  0  0  0  0  0999 V2000
  188.3490  174.3670  141.2340 C   0  0  0  0  0  3  0  0  0  0  0  0
  186.9290  175.4350  142.6400 O   0  0  0  0  0  1  0  0  0  0  0  0
  189.3740  174.2730  143.6440 C   0  0  2  0  0  3  0  0  0  0  0  0
  190.1310  177.7880  143.5430 O   0  0  0  0  0  1  0  0  0  0  0  0
  190.7880  173.8760  144.0360 C   0  0  0  0  0  2  0  0  0  0  0  0
  187.8430  175.7010  141.5970 C   0  0  1  0  0  0  0  0  0  0  0  0
  189.0140  177.0060  143.2580 C   0  0  1  0  0  0  0  0  0  0  0  0
  187.0530  178.0480  141.7230 C   0  0  2  0  0  3  0  0  0  0  0  0
  189.6310  172.4060  141.8470 C   0  0  0  0  0  3  0  0  0  0  0  0
  189.1640  176.4340  141.9200 C   0  0  0  0  0  2  0  0  0  0  0  0
  187.1510  176.7660  140.7860 C   0  0  0  0  0  2  0  0  0  0  0  0
  189.0450  173.7080  142.2060 C   0  0  0  0  0  0  0  0  0  0  0  0
  188.9690  175.7320  144.1980 C   0  0  2  0  0  3  0  0  0  0  0  0
  190.9080  172.3520  143.9880 C   0  0  1  0  0  3  0  0  0  0  0  0
  187.7310  177.9240  143.1700 C   0  0  0  0  0  2  0  0  0  0  0  0
  190.5040  171.7890  142.6480 C   0  0  0  0  0  3  0  0  0  0  0  0
  192.7810  170.6370  144.2210 C   0  0  0  0  0  3  0  0  0  0  0  0
  192.2880  171.9230  144.3590 C   0  0  0  0  0  0  0  0  0  0  0  0
  193.2670  172.7160  144.9230 C   0  0  0  0  0  3  0  0  0  0  0  0
  194.3430  171.9390  145.1290 N   0  0  0  0  0  0  0  0  0  0  0  0
  194.0750  170.6890  144.7100 C   0  0  0  0  0  3  0  0  0  0  0  0
  195.8830  173.8190  145.2600 C   0  0  0  0  0  1  0  0  0  0  0  0
  195.6100  172.3880  145.6800 C   0  0  0  0  0  2  0  0  0  0  0  0
  184.9750  178.4810  140.6310 O   0  0  0  0  0  1  0  0  0  0  0  0
  185.6100  178.4940  141.8730 C   0  0  0  0  0  2  0  0  0  0  0  0
  188.8040  175.9360  145.7350 C   0  0  1  0  0  0  0  0  0  0  0  0
  188.6080  174.6190  147.7650 O   0  0  0  0  0  1  0  0  0  0  0  0
  189.2420  174.6870  146.5220 C   0  0  0  0  0  2  0  0  0  0  0  0
  189.6120  177.1590  146.2110 C   0  0  0  0  0  2  0  0  0  0  0  0
  190.9320  176.8420  146.8420 C   0  0  0  0  0  0  0  0  0  0  0  0
  193.3510  176.1930  146.5730 C   0  0  0  0  0  1  0  0  0  0  0  0
  191.0530  176.8760  148.0970 O   0  0  0  0  0  0  0  0  0  0  0  0
  192.0490  176.5170  146.0150 N   0  0  0  0  0  2  0  0  0  0  0  0
  187.3140  176.1930  146.0220 C   0  0  0  0  0  2  0  0  0  0  0  0
  187.0370  177.4620  146.8230 C   0  0  1  0  0  3  0  0  0  0  0  0
  186.1230  178.3810  146.0380 C   0  0  0  0  0  1  0  0  0  0  0  0
  186.4210  177.1220  148.0260 O   0  0  0  0  0  1  0  0  0  0  0  0
  1  6  1  0  0  0  0
  1 12  2  0  0  0  0
  3  5  1  6  0  0  0
  3 13  1  0  0  0  0
  6 10  1  0  0  0  0
  6  2  1  1  0  0  0
  7  4  1  1  0  0  0
  7 13  1  0  0  0  0
  8 25  1  1  0  0  0
  8 15  1  0  0  0  0
  9 12  1  0  0  0  0
  9 16  2  0  0  0  0
 10  7  1  0  0  0  0
 11  6  1  0  0  0  0
 11  8  1  0  0  0  0
 12  3  1  0  0  0  0
 13 26  1  1  0  0  0
 14  5  1  0  0  0  0
 14 18  1  6  0  0  0
 15  7  1  0  0  0  0
 16 14  1  0  0  0  0
 17 18  1  0  0  0  0
 17 21  2  0  0  0  0
 18 19  2  0  0  0  0
 19 20  1  0  0  0  0
 20 23  1  0  0  0  0
 21 20  1  0  0  0  0
 22 23  1  0  0  0  0
 24 25  1  0  0  0  0
 26 34  1  1  0  0  0
 26 29  1  0  0  0  0
 26 28  1  0  0  0  0
 28 27  1  0  0  0  0
 29 30  1  0  0  0  0
 30 32  2  0  0  0  0
 33 31  1  0  0  0  0
 33 30  1  0  0  0  0
 34 35  1  0  0  0  0
 35 36  1  6  0  0  0
 35 37  1  0  0  0  0
M  END
>  <MODEL>
4

>  <REMARK>
 VINA RESULT:      -6.9      2.574      6.477
  Name = 
  9 active torsions:
  status: ('A' for Active; 'I' for Inactive)
    1  A    between atoms: C_1  and  C_5
    2  A    between atoms: C_1  and  C_36
    3  A    between atoms: C_6  and  C_31
    4  A    between atoms: C_11  and  C_33
    5  A    between atoms: N_18  and  C_19
    6  A    between atoms: C_21  and  C_30
    7  A    between atoms: C_27  and  C_36
    8  A    between atoms: C_29  and  C_36
    9  A    between atoms: C_33  and  C_36
                            x       y       z     vdW  Elec       q    Type
                         _______ _______ _______ _____ _____    ______ ____

>  <TORSDO>
F 9

$$$$
=
 OpenBabel11052420103D

 37 40  0  0  1  0  0  0  0  0999 V2000
  188.5890  174.2090  140.4590 C   0  0  0  0  0  3  0  0  0  0  0  0
  190.7650  173.7920  140.9350 O   0  0  0  0  0  1  0  0  0  0  0  0
  189.1980  175.4960  142.6590 C   0  0  2  0  0  3  0  0  0  0  0  0
  189.3680  172.4150  144.5070 O   0  0  0  0  0  1  0  0  0  0  0  0
  188.2440  176.1530  143.6440 C   0  0  0  0  0  2  0  0  0  0  0  0
  189.5050  173.1560  140.9270 C   0  0  1  0  0  0  0  0  0  0  0  0
  189.8820  172.8750  143.2960 C   0  0  1  0  0  0  0  0  0  0  0  0
  190.7350  171.0730  141.4760 C   0  0  2  0  0  3  0  0  0  0  0  0
  187.5050  176.3350  140.8670 C   0  0  0  0  0  3  0  0  0  0  0  0
  188.8440  172.7740  142.2710 C   0  0  0  0  0  2  0  0  0  0  0  0
  189.8080  171.7800  140.3920 C   0  0  0  0  0  2  0  0  0  0  0  0
  188.4720  175.3010  141.2700 C   0  0  0  0  0  0  0  0  0  0  0  0
  190.1770  174.4290  143.3690 C   0  0  2  0  0  3  0  0  0  0  0  0
  187.7690  177.4850  143.0640 C   0  0  1  0  0  3  0  0  0  0  0  0
  191.0350  171.9110  142.8080 C   0  0  0  0  0  2  0  0  0  0  0  0
  187.1600  177.3270  141.6930 C   0  0  0  0  0  3  0  0  0  0  0  0
  185.9040  179.1270  143.6370 C   0  0  0  0  0  3  0  0  0  0  0  0
  186.8210  178.1570  144.0000 C   0  0  0  0  0  0  0  0  0  0  0  0
  186.7340  177.9500  145.3630 C   0  0  0  0  0  3  0  0  0  0  0  0
  185.7810  178.7720  145.8310 N   0  0  0  0  0  0  0  0  0  0  0  0
  185.2660  179.4840  144.8120 C   0  0  0  0  0  3  0  0  0  0  0  0
  185.9410  177.7070  148.0140 C   0  0  0  0  0  1  0  0  0  0  0  0
  185.3480  178.8530  147.2160 C   0  0  0  0  0  2  0  0  0  0  0  0
  193.0380  170.5560  141.8260 O   0  0  0  0  0  1  0  0  0  0  0  0
  192.0420  170.6220  140.8510 C   0  0  0  0  0  2  0  0  0  0  0  0
  191.2580  174.9460  144.3650 C   0  0  1  0  0  0  0  0  0  0  0  0
  192.6360  176.6290  143.2880 O   0  0  0  0  0  1  0  0  0  0  0  0
  191.5560  176.4410  144.1540 C   0  0  0  0  0  2  0  0  0  0  0  0
  190.8140  174.7060  145.8220 C   0  0  0  0  0  2  0  0  0  0  0  0
  190.8670  175.9110  146.7080 C   0  0  0  0  0  0  0  0  0  0  0  0
  189.7080  177.9230  147.6860 C   0  0  0  0  0  1  0  0  0  0  0  0
  191.9250  176.1820  147.3380 O   0  0  0  0  0  0  0  0  0  0  0  0
  189.7100  176.7370  146.8460 N   0  0  0  0  0  2  0  0  0  0  0  0
  192.5530  174.1520  144.1130 C   0  0  0  0  0  2  0  0  0  0  0  0
  193.2760  173.7080  145.3810 C   0  0  1  0  0  3  0  0  0  0  0  0
  193.8060  172.2990  145.2090 C   0  0  0  0  0  1  0  0  0  0  0  0
  194.3430  174.5710  145.6280 O   0  0  0  0  0  1  0  0  0  0  0  0
  1  6  1  0  0  0  0
  1 12  2  0  0  0  0
  3 13  1  0  0  0  0
  3  5  1  1  0  0  0
  6  2  1  1  0  0  0
  6 10  1  0  0  0  0
  7 13  1  0  0  0  0
  7  4  1  1  0  0  0
  8 25  1  6  0  0  0
  8 15  1  0  0  0  0
  9 12  1  0  0  0  0
  9 16  2  0  0  0  0
 10  7  1  0  0  0  0
 11  6  1  0  0  0  0
 11  8  1  0  0  0  0
 12  3  1  0  0  0  0
 13 26  1  1  0  0  0
 14  5  1  0  0  0  0
 14 18  1  1  0  0  0
 15  7  1  0  0  0  0
 16 14  1  0  0  0  0
 17 18  1  0  0  0  0
 17 21  2  0  0  0  0
 18 19  2  0  0  0  0
 19 20  1  0  0  0  0
 20 23  1  0  0  0  0
 21 20  1  0  0  0  0
 23 22  1  0  0  0  0
 25 24  1  0  0  0  0
 26 34  1  6  0  0  0
 26 29  1  0  0  0  0
 27 28  1  0  0  0  0
 28 26  1  0  0  0  0
 29 30  1  0  0  0  0
 30 33  1  0  0  0  0
 30 32  2  0  0  0  0
 33 31  1  0  0  0  0
 34 35  1  0  0  0  0
 35 36  1  6  0  0  0
 35 37  1  0  0  0  0
M  END
>  <MODEL>
5

>  <REMARK>
 VINA RESULT:      -6.7      1.235      2.266
  Name = 
  9 active torsions:
  status: ('A' for Active; 'I' for Inactive)
    1  A    between atoms: C_1  and  C_5
    2  A    between atoms: C_1  and  C_36
    3  A    between atoms: C_6  and  C_31
    4  A    between atoms: C_11  and  C_33
    5  A    between atoms: N_18  and  C_19
    6  A    between atoms: C_21  and  C_30
    7  A    between atoms: C_27  and  C_36
    8  A    between atoms: C_29  and  C_36
    9  A    between atoms: C_33  and  C_36
                            x       y       z     vdW  Elec       q    Type
                         _______ _______ _______ _____ _____    ______ ____

>  <TORSDO>
F 9

$$$$
=
 OpenBabel11052420103D

 37 40  0  0  1  0  0  0  0  0999 V2000
  192.2200  176.8320  146.8430 C   0  0  0  0  0  3  0  0  0  0  0  0
  190.7100  177.1210  145.1780 O   0  0  0  0  0  1  0  0  0  0  0  0
  192.4680  174.8310  145.1690 C   0  0  2  0  0  3  0  0  0  0  0  0
  189.3320  173.4380  146.2480 O   0  0  0  0  0  1  0  0  0  0  0  0
  193.2330  173.5340  145.3800 C   0  0  0  0  0  2  0  0  0  0  0  0
  190.7780  176.7850  146.5470 C   0  0  1  0  0  0  0  0  0  0  0  0
  189.7740  174.7000  145.8560 C   0  0  1  0  0  0  0  0  0  0  0  0
  188.3000  176.8620  146.5220 C   0  0  2  0  0  3  0  0  0  0  0  0
  194.4290  175.8970  146.5110 C   0  0  0  0  0  3  0  0  0  0  0  0
  190.4390  175.3440  146.9880 C   0  0  0  0  0  2  0  0  0  0  0  0
  189.6070  177.5180  147.1480 C   0  0  0  0  0  2  0  0  0  0  0  0
  192.9950  175.9260  146.1780 C   0  0  0  0  0  0  0  0  0  0  0  0
  190.9250  174.5780  144.7750 C   0  0  2  0  0  3  0  0  0  0  0  0
  194.7260  173.8010  145.1920 C   0  0  1  0  0  3  0  0  0  0  0  0
  188.5320  175.6220  145.5340 C   0  0  0  0  0  2  0  0  0  0  0  0
  195.2250  174.9130  146.0820 C   0  0  0  0  0  3  0  0  0  0  0  0
  196.8810  172.4380  145.2240 C   0  0  0  0  0  3  0  0  0  0  0  0
  195.5130  172.5510  145.4010 C   0  0  0  0  0  0  0  0  0  0  0  0
  195.0080  171.3180  145.7630 C   0  0  0  0  0  3  0  0  0  0  0  0
  196.0400  170.4610  145.8100 N   0  0  0  0  0  0  0  0  0  0  0  0
  197.1750  171.1130  145.4960 C   0  0  0  0  0  3  0  0  0  0  0  0
  194.8690  168.8650  147.2260 C   0  0  0  0  0  1  0  0  0  0  0  0
  195.9520  169.0590  146.1820 C   0  0  0  0  0  2  0  0  0  0  0  0
  187.5510  177.7730  144.4480 O   0  0  0  0  0  1  0  0  0  0  0  0
  187.4490  177.9120  145.8320 C   0  0  0  0  0  2  0  0  0  0  0  0
  190.5960  173.9370  143.3930 C   0  0  1  0  0  0  0  0  0  0  0  0
  189.8260  171.6450  143.1670 O   0  0  0  0  0  1  0  0  0  0  0  0
  190.9580  172.4410  143.3620 C   0  0  0  0  0  2  0  0  0  0  0  0
  189.1030  174.1160  143.0520 C   0  0  0  0  0  2  0  0  0  0  0  0
  188.8230  174.6320  141.6750 C   0  0  0  0  0  0  0  0  0  0  0  0
  188.5050  174.1660  139.2200 C   0  0  0  0  0  1  0  0  0  0  0  0
  188.6280  175.8640  141.4930 O   0  0  0  0  0  0  0  0  0  0  0  0
  188.7650  173.7200  140.5780 N   0  0  0  0  0  2  0  0  0  0  0  0
  191.4320  174.6610  142.3230 C   0  0  0  0  0  2  0  0  0  0  0  0
  192.4760  173.7830  141.6390 C   0  0  1  0  0  3  0  0  0  0  0  0
  192.2520  173.7820  140.1410 C   0  0  0  0  0  1  0  0  0  0  0  0
  193.7480  174.2860  141.9110 O   0  0  0  0  0  1  0  0  0  0  0  0
  3  5  1  1  0  0  0
  3 12  1  0  0  0  0
  6  2  1  6  0  0  0
  6  1  1  0  0  0  0
  6 10  1  0  0  0  0
  6 11  1  0  0  0  0
  7  4  1  1  0  0  0
  7 10  1  0  0  0  0
  8 25  1  6  0  0  0
  8 11  1  0  0  0  0
 12  9  1  0  0  0  0
 12  1  2  0  0  0  0
 13 26  1  1  0  0  0
 13  3  1  0  0  0  0
 13  7  1  0  0  0  0
 14  5  1  0  0  0  0
 14 18  1  1  0  0  0
 14 16  1  0  0  0  0
 15  7  1  0  0  0  0
 15  8  1  0  0  0  0
 16  9  2  0  0  0  0
 17 18  1  0  0  0  0
 17 21  2  0  0  0  0
 18 19  2  0  0  0  0
 19 20  1  0  0  0  0
 20 23  1  0  0  0  0
 21 20  1  0  0  0  0
 23 22  1  0  0  0  0
 24 25  1  0  0  0  0
 26 34  1  6  0  0  0
 27 28  1  0  0  0  0
 28 26  1  0  0  0  0
 29 26  1  0  0  0  0
 30 29  1  0  0  0  0
 31 33  1  0  0  0  0
 32 30  2  0  0  0  0
 33 30  1  0  0  0  0
 35 36  1  6  0  0  0
 35 37  1  0  0  0  0
 35 34  1  0  0  0  0
M  END
>  <MODEL>
6

>  <REMARK>
 VINA RESULT:      -6.7      3.320      8.136
  Name = 
  9 active torsions:
  status: ('A' for Active; 'I' for Inactive)
    1  A    between atoms: C_1  and  C_5
    2  A    between atoms: C_1  and  C_36
    3  A    between atoms: C_6  and  C_31
    4  A    between atoms: C_11  and  C_33
    5  A    between atoms: N_18  and  C_19
    6  A    between atoms: C_21  and  C_30
    7  A    between atoms: C_27  and  C_36
    8  A    between atoms: C_29  and  C_36
    9  A    between atoms: C_33  and  C_36
                            x       y       z     vdW  Elec       q    Type
                         _______ _______ _______ _____ _____    ______ ____

>  <TORSDO>
F 9

$$$$
=
 OpenBabel11052420103D

 37 40  0  0  1  0  0  0  0  0999 V2000
  192.2570  176.8180  146.9240 C   0  0  0  0  0  3  0  0  0  0  0  0
  190.7340  177.1560  145.2800 O   0  0  0  0  0  1  0  0  0  0  0  0
  192.4770  174.8570  145.1990 C   0  0  2  0  0  3  0  0  0  0  0  0
  189.3420  173.4570  146.2720 O   0  0  0  0  0  1  0  0  0  0  0  0
  193.2360  173.5500  145.3710 C   0  0  0  0  0  2  0  0  0  0  0  0
  190.8130  176.7860  146.6400 C   0  0  1  0  0  0  0  0  0  0  0  0
  189.7890  174.7250  145.9080 C   0  0  1  0  0  0  0  0  0  0  0  0
  188.3340  176.8790  146.6400 C   0  0  2  0  0  3  0  0  0  0  0  0
  194.4570  175.8770  146.5490 C   0  0  0  0  0  3  0  0  0  0  0  0
  190.4690  175.3360  147.0490 C   0  0  0  0  0  2  0  0  0  0  0  0
  189.6510  177.5120  147.2700 C   0  0  0  0  0  2  0  0  0  0  0  0
  193.0200  175.9230  146.2290 C   0  0  0  0  0  0  0  0  0  0  0  0
  190.9290  174.6230  144.8130 C   0  0  2  0  0  3  0  0  0  0  0  0
  194.7290  173.8130  145.1760 C   0  0  1  0  0  3  0  0  0  0  0  0
  188.5500  175.6620  145.6190 C   0  0  0  0  0  2  0  0  0  0  0  0
  195.2420  174.8990  146.0880 C   0  0  0  0  0  3  0  0  0  0  0  0
  196.8820  172.4470  145.2050 C   0  0  0  0  0  3  0  0  0  0  0  0
  195.5100  172.5530  145.3470 C   0  0  0  0  0  0  0  0  0  0  0  0
  194.9950  171.3040  145.6330 C   0  0  0  0  0  3  0  0  0  0  0  0
  196.0250  170.4450  145.6690 N   0  0  0  0  0  0  0  0  0  0  0  0
  197.1690  171.1100  145.4210 C   0  0  0  0  0  3  0  0  0  0  0  0
  195.0900  168.8150  147.2160 C   0  0  0  0  0  1  0  0  0  0  0  0
  195.9270  169.0260  145.9690 C   0  0  0  0  0  2  0  0  0  0  0  0
  187.6330  177.8960  144.5980 O   0  0  0  0  0  1  0  0  0  0  0  0
  187.4840  177.9510  145.9840 C   0  0  0  0  0  2  0  0  0  0  0  0
  190.5830  174.0170  143.4190 C   0  0  1  0  0  0  0  0  0  0  0  0
  191.7150  174.4360  141.3120 O   0  0  0  0  0  1  0  0  0  0  0  0
  191.8450  173.8180  142.5590 C   0  0  0  0  0  2  0  0  0  0  0  0
  189.8460  172.6720  143.5780 C   0  0  0  0  0  2  0  0  0  0  0  0
  190.6400  171.4630  143.1910 C   0  0  0  0  0  0  0  0  0  0  0  0
  191.1140  169.6370  141.5220 C   0  0  0  0  0  1  0  0  0  0  0  0
  191.5410  171.0310  143.9600 O   0  0  0  0  0  0  0  0  0  0  0  0
  190.3800  170.8180  141.9450 N   0  0  0  0  0  2  0  0  0  0  0  0
  189.6500  175.0030  142.6920 C   0  0  0  0  0  2  0  0  0  0  0  0
  188.3680  174.3740  142.1540 C   0  0  1  0  0  3  0  0  0  0  0  0
  187.2020  175.3190  142.3600 C   0  0  0  0  0  1  0  0  0  0  0  0
  188.5160  174.1200  140.7920 O   0  0  0  0  0  1  0  0  0  0  0  0
  3  5  1  1  0  0  0
  3 12  1  0  0  0  0
  6  2  1  6  0  0  0
  6  1  1  0  0  0  0
  6 10  1  0  0  0  0
  6 11  1  0  0  0  0
  7  4  1  1  0  0  0
  7 10  1  0  0  0  0
  8 25  1  6  0  0  0
  8 11  1  0  0  0  0
 12  9  1  0  0  0  0
 12  1  2  0  0  0  0
 13 26  1  1  0  0  0
 13  3  1  0  0  0  0
 13  7  1  0  0  0  0
 14 18  1  1  0  0  0
 14  5  1  0  0  0  0
 14 16  1  0  0  0  0
 15  7  1  0  0  0  0
 15  8  1  0  0  0  0
 16  9  2  0  0  0  0
 17 18  1  0  0  0  0
 17 21  2  0  0  0  0
 18 19  2  0  0  0  0
 19 20  1  0  0  0  0
 20 23  1  0  0  0  0
 21 20  1  0  0  0  0
 23 22  1  0  0  0  0
 24 25  1  0  0  0  0
 26 28  1  6  0  0  0
 26 29  1  0  0  0  0
 27 28  1  0  0  0  0
 30 29  1  0  0  0  0
 30 32  2  0  0  0  0
 31 33  1  0  0  0  0
 33 30  1  0  0  0  0
 34 26  1  0  0  0  0
 35 36  1  6  0  0  0
 35 34  1  0  0  0  0
 37 35  1  0  0  0  0
M  END
>  <MODEL>
7

>  <REMARK>
 VINA RESULT:      -6.6      3.263      8.148
  Name = 
  9 active torsions:
  status: ('A' for Active; 'I' for Inactive)
    1  A    between atoms: C_1  and  C_5
    2  A    between atoms: C_1  and  C_36
    3  A    between atoms: C_6  and  C_31
    4  A    between atoms: C_11  and  C_33
    5  A    between atoms: N_18  and  C_19
    6  A    between atoms: C_21  and  C_30
    7  A    between atoms: C_27  and  C_36
    8  A    between atoms: C_29  and  C_36
    9  A    between atoms: C_33  and  C_36
                            x       y       z     vdW  Elec       q    Type
                         _______ _______ _______ _____ _____    ______ ____

>  <TORSDO>
F 9

$$$$
=
 OpenBabel11052420103D

 37 40  0  0  1  0  0  0  0  0999 V2000
  192.7620  176.2120  146.8650 C   0  0  0  0  0  3  0  0  0  0  0  0
  193.4710  174.2760  145.9230 O   0  0  0  0  0  1  0  0  0  0  0  0
  191.0820  175.5770  144.9560 C   0  0  2  0  0  3  0  0  0  0  0  0
  193.5190  176.3850  142.4360 O   0  0  0  0  0  1  0  0  0  0  0  0
  190.0040  176.4530  144.3390 C   0  0  0  0  0  2  0  0  0  0  0  0
  193.8140  175.6430  146.0060 C   0  0  1  0  0  0  0  0  0  0  0  0
  193.5170  175.6340  143.6090 C   0  0  1  0  0  0  0  0  0  0  0  0
  195.8780  175.0330  144.7740 C   0  0  2  0  0  3  0  0  0  0  0  0
  190.4290  176.7870  147.1670 C   0  0  0  0  0  3  0  0  0  0  0  0
  193.6760  176.5340  144.7510 C   0  0  0  0  0  2  0  0  0  0  0  0
  195.3150  175.6220  146.1410 C   0  0  0  0  0  2  0  0  0  0  0  0
  191.4910  176.1560  146.3670 C   0  0  0  0  0  0  0  0  0  0  0  0
  192.0950  174.9800  143.8520 C   0  0  2  0  0  3  0  0  0  0  0  0
  188.8090  176.5160  145.2900 C   0  0  1  0  0  3  0  0  0  0  0  0
  194.7920  174.7000  143.6440 C   0  0  0  0  0  2  0  0  0  0  0  0
  189.2020  176.9760  146.6720 C   0  0  0  0  0  3  0  0  0  0  0  0
  187.6760  177.8160  143.4120 C   0  0  0  0  0  3  0  0  0  0  0  0
  187.7310  177.3770  144.7230 C   0  0  0  0  0  0  0  0  0  0  0  0
  186.6530  177.8970  145.4110 C   0  0  0  0  0  3  0  0  0  0  0  0
  185.9450  178.6390  144.5450 N   0  0  0  0  0  0  0  0  0  0  0  0
  186.5380  178.6010  143.3370 C   0  0  0  0  0  3  0  0  0  0  0  0
  184.0470  178.7190  146.0660 C   0  0  0  0  0  1  0  0  0  0  0  0
  184.7110  179.3420  144.8520 C   0  0  0  0  0  2  0  0  0  0  0  0
  197.0510  173.7230  146.3880 O   0  0  0  0  0  1  0  0  0  0  0  0
  196.7380  173.8090  145.0310 C   0  0  0  0  0  2  0  0  0  0  0  0
  191.5620  173.9330  142.8280 C   0  0  1  0  0  0  0  0  0  0  0  0
  190.4810  174.3980  140.7050 O   0  0  0  0  0  1  0  0  0  0  0  0
  191.7040  174.4340  141.3800 C   0  0  0  0  0  2  0  0  0  0  0  0
  192.3040  172.5900  142.9870 C   0  0  0  0  0  2  0  0  0  0  0  0
  192.8130  171.9910  141.7140 C   0  0  0  0  0  0  0  0  0  0  0  0
  194.7050  171.6800  140.0810 C   0  0  0  0  0  1  0  0  0  0  0  0
  192.0540  171.2680  141.0120 O   0  0  0  0  0  0  0  0  0  0  0  0
  194.1610  172.2300  141.3110 N   0  0  0  0  0  2  0  0  0  0  0  0
  190.0680  173.7030  143.1190 C   0  0  0  0  0  2  0  0  0  0  0  0
  189.7260  172.2850  143.5700 C   0  0  1  0  0  3  0  0  0  0  0  0
  189.4650  172.2650  145.0620 C   0  0  0  0  0  1  0  0  0  0  0  0
  188.5830  171.8530  142.8990 O   0  0  0  0  0  1  0  0  0  0  0  0
  3  5  1  6  0  0  0
  3 12  1  0  0  0  0
  5 14  1  0  0  0  0
  6  2  1  6  0  0  0
  6 11  1  0  0  0  0
  6  1  1  0  0  0  0
  7  4  1  6  0  0  0
  7 15  1  0  0  0  0
  7 13  1  0  0  0  0
  7 10  1  0  0  0  0
  8 25  1  1  0  0  0
  8 11  1  0  0  0  0
 10  6  1  0  0  0  0
 12  1  2  0  0  0  0
 12  9  1  0  0  0  0
 13 26  1  6  0  0  0
 13  3  1  0  0  0  0
 14 18  1  6  0  0  0
 14 16  1  0  0  0  0
 15  8  1  0  0  0  0
 16  9  2  0  0  0  0
 17 18  1  0  0  0  0
 18 19  2  0  0  0  0
 20 23  1  0  0  0  0
 20 19  1  0  0  0  0
 21 17  2  0  0  0  0
 21 20  1  0  0  0  0
 23 22  1  0  0  0  0
 25 24  1  0  0  0  0
 26 28  1  6  0  0  0
 26 29  1  0  0  0  0
 26 34  1  0  0  0  0
 27 28  1  0  0  0  0
 30 29  1  0  0  0  0
 31 33  1  0  0  0  0
 32 30  2  0  0  0  0
 33 30  1  0  0  0  0
 34 35  1  0  0  0  0
 35 36  1  1  0  0  0
 37 35  1  0  0  0  0
M  END
>  <MODEL>
8

>  <REMARK>
 VINA RESULT:      -6.5      2.150      5.348
  Name = 
  9 active torsions:
  status: ('A' for Active; 'I' for Inactive)
    1  A    between atoms: C_1  and  C_5
    2  A    between atoms: C_1  and  C_36
    3  A    between atoms: C_6  and  C_31
    4  A    between atoms: C_11  and  C_33
    5  A    between atoms: N_18  and  C_19
    6  A    between atoms: C_21  and  C_30
    7  A    between atoms: C_27  and  C_36
    8  A    between atoms: C_29  and  C_36
    9  A    between atoms: C_33  and  C_36
                            x       y       z     vdW  Elec       q    Type
                         _______ _______ _______ _____ _____    ______ ____

>  <TORSDO>
F 9

$$$$
=
 OpenBabel11052420103D

 37 40  0  0  1  0  0  0  0  0999 V2000
  192.7050  175.6470  146.8910 C   0  0  0  0  0  3  0  0  0  0  0  0
  193.4660  173.8250  145.7790 O   0  0  0  0  0  1  0  0  0  0  0  0
  191.0540  175.1560  144.9150 C   0  0  2  0  0  3  0  0  0  0  0  0
  193.4890  176.2520  142.5050 O   0  0  0  0  0  1  0  0  0  0  0  0
  189.9600  176.0620  144.3730 C   0  0  0  0  0  2  0  0  0  0  0  0
  193.7760  175.1860  145.9930 C   0  0  1  0  0  0  0  0  0  0  0  0
  193.4970  175.3940  143.6030 C   0  0  1  0  0  0  0  0  0  0  0  0
  195.8620  174.7400  144.7280 C   0  0  2  0  0  3  0  0  0  0  0  0
  190.3570  176.1380  147.2240 C   0  0  0  0  0  3  0  0  0  0  0  0
  193.6270  176.1860  144.8250 C   0  0  0  0  0  2  0  0  0  0  0  0
  195.2760  175.1860  146.1380 C   0  0  0  0  0  2  0  0  0  0  0  0
  191.4400  175.6090  146.3780 C   0  0  0  0  0  0  0  0  0  0  0  0
  192.0890  174.6880  143.7700 C   0  0  2  0  0  3  0  0  0  0  0  0
  188.7570  176.0090  145.3150 C   0  0  1  0  0  3  0  0  0  0  0  0
  194.7920  174.4900  143.5610 C   0  0  0  0  0  2  0  0  0  0  0  0
  189.1300  176.3460  146.7380 C   0  0  0  0  0  3  0  0  0  0  0  0
  187.7580  177.7300  143.7220 C   0  0  0  0  0  3  0  0  0  0  0  0
  187.6640  176.8950  144.8210 C   0  0  0  0  0  0  0  0  0  0  0  0
  186.4160  177.0500  145.3920 C   0  0  0  0  0  3  0  0  0  0  0  0
  185.7520  177.9590  144.6610 N   0  0  0  0  0  0  0  0  0  0  0  0
  186.5360  178.3770  143.6510 C   0  0  0  0  0  3  0  0  0  0  0  0
  184.1670  178.6240  146.3840 C   0  0  0  0  0  1  0  0  0  0  0  0
  184.3860  178.3950  144.9010 C   0  0  0  0  0  2  0  0  0  0  0  0
  196.1580  172.4200  144.2490 O   0  0  0  0  0  1  0  0  0  0  0  0
  196.7490  173.5170  144.8770 C   0  0  0  0  0  2  0  0  0  0  0  0
  191.5870  173.7300  142.6480 C   0  0  1  0  0  0  0  0  0  0  0  0
  191.1900  171.7310  143.9660 O   0  0  0  0  0  1  0  0  0  0  0  0
  190.5680  172.7100  143.1870 C   0  0  0  0  0  2  0  0  0  0  0  0
  190.9570  174.5310  141.4910 C   0  0  0  0  0  2  0  0  0  0  0  0
  189.6040  174.0610  141.0560 C   0  0  0  0  0  0  0  0  0  0  0  0
  188.2010  172.6760  139.4880 C   0  0  0  0  0  1  0  0  0  0  0  0
  188.5750  174.4540  141.6710 O   0  0  0  0  0  0  0  0  0  0  0  0
  189.4890  173.1580  139.9570 N   0  0  0  0  0  2  0  0  0  0  0  0
  192.8040  172.9610  142.1030 C   0  0  0  0  0  2  0  0  0  0  0  0
  192.9090  172.9470  140.5800 C   0  0  1  0  0  3  0  0  0  0  0  0
  194.3290  173.2610  140.1570 C   0  0  0  0  0  1  0  0  0  0  0  0
  192.5600  171.6830  140.1070 O   0  0  0  0  0  1  0  0  0  0  0  0
  3  5  1  6  0  0  0
  3 12  1  0  0  0  0
  5 14  1  0  0  0  0
  6  2  1  6  0  0  0
  6 11  1  0  0  0  0
  6  1  1  0  0  0  0
  7  4  1  6  0  0  0
  7 13  1  0  0  0  0
  7 10  1  0  0  0  0
  8 25  1  1  0  0  0
  8 11  1  0  0  0  0
 10  6  1  0  0  0  0
 12  1  2  0  0  0  0
 12  9  1  0  0  0  0
 13 26  1  6  0  0  0
 13  3  1  0  0  0  0
 14 18  1  6  0  0  0
 14 16  1  0  0  0  0
 15  7  1  0  0  0  0
 15  8  1  0  0  0  0
 16  9  2  0  0  0  0
 17 18  1  0  0  0  0
 18 19  2  0  0  0  0
 20 23  1  0  0  0  0
 20 19  1  0  0  0  0
 21 17  2  0  0  0  0
 21 20  1  0  0  0  0
 23 22  1  0  0  0  0
 24 25  1  0  0  0  0
 26 29  1  6  0  0  0
 26 28  1  0  0  0  0
 28 27  1  0  0  0  0
 30 29  1  0  0  0  0
 30 32  2  0  0  0  0
 31 33  1  0  0  0  0
 33 30  1  0  0  0  0
 34 26  1  0  0  0  0
 35 36  1  1  0  0  0
 35 34  1  0  0  0  0
 37 35  1  0  0  0  0
M  END
>  <MODEL>
9

>  <REMARK>
 VINA RESULT:      -6.5      2.314      5.612
  Name = 
  9 active torsions:
  status: ('A' for Active; 'I' for Inactive)
    1  A    between atoms: C_1  and  C_5
    2  A    between atoms: C_1  and  C_36
    3  A    between atoms: C_6  and  C_31
    4  A    between atoms: C_11  and  C_33
    5  A    between atoms: N_18  and  C_19
    6  A    between atoms: C_21  and  C_30
    7  A    between atoms: C_27  and  C_36
    8  A    between atoms: C_29  and  C_36
    9  A    between atoms: C_33  and  C_36
                            x       y       z     vdW  Elec       q    Type
                         _______ _______ _______ _____ _____    ______ ____

>  <TORSDO>
F 9

$$$$
