=
 OpenBabel11052418273D

 27 31  0  0  1  0  0  0  0  0999 V2000
  189.5410  177.7960  145.3110 C   0  0  1  0  0  3  0  0  0  0  0  0
  190.8080  175.2810  148.1100 C   0  0  0  0  0  3  0  0  0  0  0  0
  190.2690  176.4830  145.6030 C   0  0  1  0  0  0  0  0  0  0  0  0
  189.4880  175.2700  146.0520 C   0  0  0  0  0  3  0  0  0  0  0  0
  190.1610  176.9630  144.1570 C   0  0  1  0  0  3  0  0  0  0  0  0
  189.7460  174.7310  147.2440 C   0  0  0  0  0  3  0  0  0  0  0  0
  191.6660  176.2040  147.6580 C   0  0  0  0  0  3  0  0  0  0  0  0
  191.6520  176.6700  146.2250 C   0  0  0  0  0  2  0  0  0  0  0  0
  189.1700  176.2440  143.3470 N   0  0  0  0  0  0  0  0  0  0  0  0
  188.8350  177.9230  141.7120 O   0  0  0  0  0  0  0  0  0  0  0  0
  188.4260  172.7720  140.1920 C   0  0  0  0  0  3  0  0  0  0  0  0
  188.2700  173.4890  139.0770 C   0  0  0  0  0  3  0  0  0  0  0  0
  189.0800  174.7850  143.2730 C   0  0  0  0  0  2  0  0  0  0  0  0
  187.6240  175.7760  139.9280 C   0  0  0  0  0  0  0  0  0  0  0  0
  187.0590  176.9660  139.6080 F   0  0  0  0  0  0  0  0  0  0  0  0
  188.2630  175.6380  141.2530 C   0  0  0  0  0  0  0  0  0  0  0  0
  187.6640  174.8330  138.9770 C   0  0  0  0  0  3  0  0  0  0  0  0
  188.4470  174.5180  141.9390 C   0  0  0  0  0  0  0  0  0  0  0  0
  188.7400  176.7220  142.0800 C   0  0  0  0  0  0  0  0  0  0  0  0
  187.9150  173.1860  141.5340 C   0  0  0  0  0  2  0  0  0  0  0  0
  184.9450  177.7260  145.1850 C   0  0  0  0  0  3  0  0  0  0  0  0
  185.3400  176.5580  146.0230 C   0  0  0  0  0  2  0  0  0  0  0  0
  188.0380  177.7460  145.4770 C   0  0  0  0  0  0  0  0  0  0  0  0
  185.8180  178.4570  144.4920 C   0  0  0  0  0  3  0  0  0  0  0  0
  186.2970  176.9620  147.0930 C   0  0  0  0  0  3  0  0  0  0  0  0
  187.5040  177.4610  146.8310 C   0  0  0  0  0  3  0  0  0  0  0  0
  187.2840  178.2780  144.5020 C   0  0  0  0  0  3  0  0  0  0  0  0
  1 23  1  6  0  0  0
  1  3  1  0  0  0  0
  3  4  1  1  0  0  0
  3  8  1  0  0  0  0
  4  6  2  0  0  0  0
  5  9  1  6  0  0  0
  5  1  1  0  0  0  0
  5  3  1  0  0  0  0
  6  2  1  0  0  0  0
  7  2  2  0  0  0  0
  8  7  1  0  0  0  0
 10 19  2  0  0  0  0
 11 20  1  0  0  0  0
 12 11  2  0  0  0  0
 13  9  1  0  0  0  0
 14 16  1  0  0  0  0
 15 14  1  0  0  0  0
 16 18  2  0  0  0  0
 16 19  1  0  0  0  0
 17 12  1  0  0  0  0
 17 14  2  0  0  0  0
 18 13  1  0  0  0  0
 19  9  1  0  0  0  0
 20 18  1  0  0  0  0
 21 22  1  0  0  0  0
 22 25  1  0  0  0  0
 23 26  1  0  0  0  0
 24 27  1  0  0  0  0
 24 21  2  0  0  0  0
 26 25  2  0  0  0  0
 27 23  2  0  0  0  0
M  END
>  <MODEL>
1

>  <REMARK>
 VINA RESULT:      -8.1      0.000      0.000
  Name = 
  2 active torsions:
  status: ('A' for Active; 'I' for Inactive)
    1  A    between atoms: C_1  and  C_18
    2  A    between atoms: N_2  and  C_15
                            x       y       z     vdW  Elec       q    Type
                         _______ _______ _______ _____ _____    ______ ____

>  <TORSDO>
F 2

$$$$
=
 OpenBabel11052418273D

 27 31  0  0  1  0  0  0  0  0999 V2000
  191.2480  174.8970  146.6040 C   0  0  1  0  0  3  0  0  0  0  0  0
  194.1850  177.1520  145.1720 C   0  0  0  0  0  3  0  0  0  0  0  0
  191.7220  176.3180  146.2920 C   0  0  1  0  0  0  0  0  0  0  0  0
  191.7870  176.7940  144.8610 C   0  0  0  0  0  3  0  0  0  0  0  0
  190.3660  176.1220  146.9670 C   0  0  1  0  0  3  0  0  0  0  0  0
  192.9600  177.1660  144.3470 C   0  0  0  0  0  3  0  0  0  0  0  0
  194.1320  176.9550  146.4950 C   0  0  0  0  0  3  0  0  0  0  0  0
  192.8220  176.8190  147.2270 C   0  0  0  0  0  2  0  0  0  0  0  0
  189.2110  176.3030  146.0800 N   0  0  0  0  0  0  0  0  0  0  0  0
  187.5350  175.6640  147.6260 O   0  0  0  0  0  0  0  0  0  0  0  0
  186.3180  179.4150  143.9570 C   0  0  0  0  0  3  0  0  0  0  0  0
  185.2370  179.3070  144.7320 C   0  0  0  0  0  3  0  0  0  0  0  0
  189.1860  177.2340  144.9510 C   0  0  0  0  0  2  0  0  0  0  0  0
  185.5120  177.0470  145.8220 C   0  0  0  0  0  0  0  0  0  0  0  0
  184.8830  176.0410  146.4780 F   0  0  0  0  0  0  0  0  0  0  0  0
  186.9840  176.9930  145.7040 C   0  0  0  0  0  0  0  0  0  0  0  0
  184.7670  178.0840  145.4150 C   0  0  0  0  0  3  0  0  0  0  0  0
  187.7320  177.5610  144.7690 C   0  0  0  0  0  0  0  0  0  0  0  0
  187.8740  176.2410  146.5580 C   0  0  0  0  0  0  0  0  0  0  0  0
  187.1930  178.2670  143.5730 C   0  0  0  0  0  2  0  0  0  0  0  0
  189.4530  172.3320  143.2360 C   0  0  0  0  0  3  0  0  0  0  0  0
  190.0760  173.5050  142.5580 C   0  0  0  0  0  2  0  0  0  0  0  0
  190.8420  174.0770  145.3990 C   0  0  0  0  0  0  0  0  0  0  0  0
  189.3170  172.2410  144.5590 C   0  0  0  0  0  3  0  0  0  0  0  0
  191.4830  173.7040  143.0100 C   0  0  0  0  0  3  0  0  0  0  0  0
  191.8020  173.9870  144.2730 C   0  0  0  0  0  3  0  0  0  0  0  0
  189.8140  173.2250  145.5410 C   0  0  0  0  0  3  0  0  0  0  0  0
  1 23  1  6  0  0  0
  1  5  1  0  0  0  0
  2  7  2  0  0  0  0
  3  4  1  6  0  0  0
  3  1  1  0  0  0  0
  3  5  1  0  0  0  0
  3  8  1  0  0  0  0
  5  9  1  6  0  0  0
  6  4  2  0  0  0  0
  6  2  1  0  0  0  0
  7  8  1  0  0  0  0
  9 19  1  0  0  0  0
 11 12  2  0  0  0  0
 12 17  1  0  0  0  0
 13  9  1  0  0  0  0
 14 15  1  0  0  0  0
 16 14  1  0  0  0  0
 16 19  1  0  0  0  0
 17 14  2  0  0  0  0
 18 13  1  0  0  0  0
 18 16  2  0  0  0  0
 19 10  2  0  0  0  0
 20 11  1  0  0  0  0
 20 18  1  0  0  0  0
 21 24  2  0  0  0  0
 22 25  1  0  0  0  0
 22 21  1  0  0  0  0
 23 27  2  0  0  0  0
 24 27  1  0  0  0  0
 25 26  2  0  0  0  0
 26 23  1  0  0  0  0
M  END
>  <MODEL>
2

>  <REMARK>
 VINA RESULT:      -8.0      2.819      5.537
  Name = 
  2 active torsions:
  status: ('A' for Active; 'I' for Inactive)
    1  A    between atoms: C_1  and  C_18
    2  A    between atoms: N_2  and  C_15
                            x       y       z     vdW  Elec       q    Type
                         _______ _______ _______ _____ _____    ______ ____

>  <TORSDO>
F 2

$$$$
=
 OpenBabel11052418273D

 27 31  0  0  1  0  0  0  0  0999 V2000
  189.6810  175.1290  141.9400 C   0  0  1  0  0  3  0  0  0  0  0  0
  190.1070  171.5990  143.7080 C   0  0  0  0  0  3  0  0  0  0  0  0
  189.0000  174.0240  142.7500 C   0  0  1  0  0  0  0  0  0  0  0  0
  189.3200  173.8580  144.2170 C   0  0  0  0  0  3  0  0  0  0  0  0
  188.1690  175.2170  142.2830 C   0  0  1  0  0  3  0  0  0  0  0  0
  189.8570  172.7140  144.6440 C   0  0  0  0  0  3  0  0  0  0  0  0
  189.6340  171.6220  142.4560 C   0  0  0  0  0  3  0  0  0  0  0  0
  188.7560  172.7400  141.9580 C   0  0  0  0  0  2  0  0  0  0  0  0
  187.8580  176.1920  143.3350 N   0  0  0  0  0  0  0  0  0  0  0  0
  186.9820  177.8860  141.9320 O   0  0  0  0  0  0  0  0  0  0  0  0
  184.9250  177.3650  146.8830 C   0  0  0  0  0  3  0  0  0  0  0  0
  184.2080  178.3260  146.2950 C   0  0  0  0  0  3  0  0  0  0  0  0
  187.5610  175.8310  144.7220 C   0  0  0  0  0  2  0  0  0  0  0  0
  185.6910  179.1010  144.4050 C   0  0  0  0  0  0  0  0  0  0  0  0
  185.9400  180.0970  143.5200 F   0  0  0  0  0  0  0  0  0  0  0  0
  186.4490  177.8400  144.2720 C   0  0  0  0  0  0  0  0  0  0  0  0
  184.6920  179.2830  145.2800 C   0  0  0  0  0  3  0  0  0  0  0  0
  186.7140  176.9620  145.2290 C   0  0  0  0  0  0  0  0  0  0  0  0
  187.1080  177.3710  143.0740 C   0  0  0  0  0  0  0  0  0  0  0  0
  186.3900  177.1630  146.6690 C   0  0  0  0  0  2  0  0  0  0  0  0
  192.0820  178.2280  144.3430 C   0  0  0  0  0  3  0  0  0  0  0  0
  192.2860  176.9290  145.0470 C   0  0  0  0  0  2  0  0  0  0  0  0
  190.6280  176.0090  142.7250 C   0  0  0  0  0  0  0  0  0  0  0  0
  191.2040  178.3920  143.3530 C   0  0  0  0  0  3  0  0  0  0  0  0
  192.7140  175.8630  144.0970 C   0  0  0  0  0  3  0  0  0  0  0  0
  191.9510  175.4460  143.0880 C   0  0  0  0  0  3  0  0  0  0  0  0
  190.3700  177.3260  142.7620 C   0  0  0  0  0  3  0  0  0  0  0  0
  1  5  1  0  0  0  0
  1 23  1  1  0  0  0
  1  3  1  0  0  0  0
  2  6  1  0  0  0  0
  3  8  1  6  0  0  0
  3  4  1  0  0  0  0
  4  6  2  0  0  0  0
  5  3  1  0  0  0  0
  5  9  1  1  0  0  0
  7  2  2  0  0  0  0
  8  7  1  0  0  0  0
  9 13  1  0  0  0  0
 10 19  2  0  0  0  0
 12 11  2  0  0  0  0
 13 18  1  0  0  0  0
 14 17  2  0  0  0  0
 15 14  1  0  0  0  0
 16 14  1  0  0  0  0
 16 18  2  0  0  0  0
 17 12  1  0  0  0  0
 18 20  1  0  0  0  0
 19  9  1  0  0  0  0
 19 16  1  0  0  0  0
 20 11  1  0  0  0  0
 21 22  1  0  0  0  0
 23 27  2  0  0  0  0
 23 26  1  0  0  0  0
 24 21  2  0  0  0  0
 25 22  1  0  0  0  0
 26 25  2  0  0  0  0
 27 24  1  0  0  0  0
M  END
>  <MODEL>
3

>  <REMARK>
 VINA RESULT:      -7.5      2.194      5.565
  Name = 
  2 active torsions:
  status: ('A' for Active; 'I' for Inactive)
    1  A    between atoms: C_1  and  C_18
    2  A    between atoms: N_2  and  C_15
                            x       y       z     vdW  Elec       q    Type
                         _______ _______ _______ _____ _____    ______ ____

>  <TORSDO>
F 2

$$$$
=
 OpenBabel11052418273D

 27 31  0  0  1  0  0  0  0  0999 V2000
  192.0960  177.1450  145.0040 C   0  0  1  0  0  3  0  0  0  0  0  0
  195.0180  174.6870  146.0920 C   0  0  0  0  0  3  0  0  0  0  0  0
  193.0690  176.0540  144.5570 C   0  0  1  0  0  0  0  0  0  0  0  0
  192.8420  174.6210  144.9780 C   0  0  0  0  0  3  0  0  0  0  0  0
  192.1510  176.6950  143.5190 C   0  0  1  0  0  3  0  0  0  0  0  0
  193.7650  174.0010  145.7160 C   0  0  0  0  0  3  0  0  0  0  0  0
  195.3550  175.8660  145.5550 C   0  0  0  0  0  3  0  0  0  0  0  0
  194.5230  176.5180  144.4810 C   0  0  0  0  0  2  0  0  0  0  0  0
  191.0140  175.8610  143.1120 N   0  0  0  0  0  0  0  0  0  0  0  0
  189.6410  177.6010  142.2790 O   0  0  0  0  0  0  0  0  0  0  0  0
  189.3360  172.7670  139.9220 C   0  0  0  0  0  3  0  0  0  0  0  0
  188.5290  173.5620  139.2160 C   0  0  0  0  0  3  0  0  0  0  0  0
  191.1290  174.4510  142.7370 C   0  0  0  0  0  2  0  0  0  0  0  0
  188.0500  175.4730  140.7950 C   0  0  0  0  0  0  0  0  0  0  0  0
  187.2230  176.5110  141.0720 F   0  0  0  0  0  0  0  0  0  0  0  0
  189.2830  175.3270  141.5980 C   0  0  0  0  0  0  0  0  0  0  0  0
  187.7530  174.7070  139.7370 C   0  0  0  0  0  3  0  0  0  0  0  0
  189.9600  174.2110  141.8260 C   0  0  0  0  0  0  0  0  0  0  0  0
  189.9340  176.3770  142.3460 C   0  0  0  0  0  0  0  0  0  0  0  0
  189.5140  172.8540  141.4030 C   0  0  0  0  0  2  0  0  0  0  0  0
  188.1800  175.8900  147.0630 C   0  0  0  0  0  3  0  0  0  0  0  0
  189.0840  174.7080  147.1660 C   0  0  0  0  0  2  0  0  0  0  0  0
  190.9290  176.6620  145.8380 C   0  0  0  0  0  0  0  0  0  0  0  0
  188.4650  176.9650  146.3290 C   0  0  0  0  0  3  0  0  0  0  0  0
  190.4140  175.0930  147.7170 C   0  0  0  0  0  3  0  0  0  0  0  0
  191.2340  175.9410  147.0970 C   0  0  0  0  0  3  0  0  0  0  0  0
  189.7200  177.1840  145.5800 C   0  0  0  0  0  3  0  0  0  0  0  0
  1 23  1  1  0  0  0
  3  8  1  6  0  0  0
  3  4  1  0  0  0  0
  3  1  1  0  0  0  0
  4  6  2  0  0  0  0
  5  9  1  1  0  0  0
  5  3  1  0  0  0  0
  5  1  1  0  0  0  0
  6  2  1  0  0  0  0
  7  2  2  0  0  0  0
  8  7  1  0  0  0  0
 10 19  2  0  0  0  0
 11 20  1  0  0  0  0
 12 17  1  0  0  0  0
 12 11  2  0  0  0  0
 13  9  1  0  0  0  0
 14 15  1  0  0  0  0
 14 16  1  0  0  0  0
 16 18  2  0  0  0  0
 16 19  1  0  0  0  0
 17 14  2  0  0  0  0
 18 13  1  0  0  0  0
 19  9  1  0  0  0  0
 20 18  1  0  0  0  0
 21 22  1  0  0  0  0
 22 25  1  0  0  0  0
 23 26  1  0  0  0  0
 24 21  2  0  0  0  0
 26 25  2  0  0  0  0
 27 23  2  0  0  0  0
 27 24  1  0  0  0  0
M  END
>  <MODEL>
4

>  <REMARK>
 VINA RESULT:      -7.1      1.926      2.919
  Name = 
  2 active torsions:
  status: ('A' for Active; 'I' for Inactive)
    1  A    between atoms: C_1  and  C_18
    2  A    between atoms: N_2  and  C_15
                            x       y       z     vdW  Elec       q    Type
                         _______ _______ _______ _____ _____    ______ ____

>  <TORSDO>
F 2

$$$$
=
 OpenBabel11052418273D

 27 31  0  0  1  0  0  0  0  0999 V2000
  190.0530  173.1550  144.9830 C   0  0  1  0  0  3  0  0  0  0  0  0
  187.9680  173.9760  141.7050 C   0  0  0  0  0  3  0  0  0  0  0  0
  190.0760  173.2650  143.4570 C   0  0  1  0  0  0  0  0  0  0  0  0
  190.0570  174.6240  142.7980 C   0  0  0  0  0  3  0  0  0  0  0  0
  191.3340  172.7910  144.1830 C   0  0  1  0  0  3  0  0  0  0  0  0
  189.0450  174.9450  141.9900 C   0  0  0  0  0  3  0  0  0  0  0  0
  188.0650  172.6960  142.0850 C   0  0  0  0  0  3  0  0  0  0  0  0
  189.3040  172.1540  142.7470 C   0  0  0  0  0  2  0  0  0  0  0  0
  192.3980  173.7970  144.2810 N   0  0  0  0  0  0  0  0  0  0  0  0
  193.7400  172.6670  145.8710 O   0  0  0  0  0  0  0  0  0  0  0  0
  196.1940  175.7390  142.1880 C   0  0  0  0  0  3  0  0  0  0  0  0
  197.1750  175.1710  142.8940 C   0  0  0  0  0  3  0  0  0  0  0  0
  192.7420  174.7290  143.2070 C   0  0  0  0  0  2  0  0  0  0  0  0
  196.0390  174.4790  145.0390 C   0  0  0  0  0  0  0  0  0  0  0  0
  196.2240  174.1210  146.3340 F   0  0  0  0  0  0  0  0  0  0  0  0
  194.6790  174.3780  144.4730 C   0  0  0  0  0  0  0  0  0  0  0  0
  197.1250  174.8010  144.3230 C   0  0  0  0  0  3  0  0  0  0  0  0
  194.1830  175.0690  143.4560 C   0  0  0  0  0  0  0  0  0  0  0  0
  193.6100  173.5480  144.9800 C   0  0  0  0  0  0  0  0  0  0  0  0
  194.8930  176.1860  142.7710 C   0  0  0  0  0  2  0  0  0  0  0  0
  190.6100  177.0140  147.4210 C   0  0  0  0  0  3  0  0  0  0  0  0
  190.0810  177.4500  146.0960 C   0  0  0  0  0  2  0  0  0  0  0  0
  190.0430  174.4750  145.7210 C   0  0  0  0  0  0  0  0  0  0  0  0
  191.0010  175.7650  147.6760 C   0  0  0  0  0  3  0  0  0  0  0  0
  188.8590  176.6790  145.7240 C   0  0  0  0  0  3  0  0  0  0  0  0
  188.8680  175.3610  145.5330 C   0  0  0  0  0  3  0  0  0  0  0  0
  190.9060  174.6290  146.7380 C   0  0  0  0  0  3  0  0  0  0  0  0
  1 23  1  1  0  0  0
  2  6  1  0  0  0  0
  2  7  2  0  0  0  0
  3  8  1  6  0  0  0
  3  5  1  0  0  0  0
  3  1  1  0  0  0  0
  4  3  1  0  0  0  0
  5  9  1  1  0  0  0
  5  1  1  0  0  0  0
  6  4  2  0  0  0  0
  7  8  1  0  0  0  0
  9 19  1  0  0  0  0
 11 20  1  0  0  0  0
 11 12  2  0  0  0  0
 12 17  1  0  0  0  0
 13 18  1  0  0  0  0
 13  9  1  0  0  0  0
 14 15  1  0  0  0  0
 16 19  1  0  0  0  0
 16 14  1  0  0  0  0
 17 14  2  0  0  0  0
 18 16  2  0  0  0  0
 19 10  2  0  0  0  0
 20 18  1  0  0  0  0
 21 24  2  0  0  0  0
 22 21  1  0  0  0  0
 23 27  2  0  0  0  0
 25 22  1  0  0  0  0
 26 23  1  0  0  0  0
 26 25  2  0  0  0  0
 27 24  1  0  0  0  0
M  END
>  <MODEL>
5

>  <REMARK>
 VINA RESULT:      -7.0      4.248      6.727
  Name = 
  2 active torsions:
  status: ('A' for Active; 'I' for Inactive)
    1  A    between atoms: C_1  and  C_18
    2  A    between atoms: N_2  and  C_15
                            x       y       z     vdW  Elec       q    Type
                         _______ _______ _______ _____ _____    ______ ____

>  <TORSDO>
F 2

$$$$
=
 OpenBabel11052418273D

 27 31  0  0  1  0  0  0  0  0999 V2000
  190.4370  176.0940  143.4300 C   0  0  1  0  0  3  0  0  0  0  0  0
  188.5670  175.5490  146.8890 C   0  0  0  0  0  3  0  0  0  0  0  0
  190.5620  176.0920  144.9550 C   0  0  1  0  0  0  0  0  0  0  0  0
  190.5670  174.7840  145.7090 C   0  0  0  0  0  3  0  0  0  0  0  0
  191.7740  176.4890  144.1140 C   0  0  1  0  0  3  0  0  0  0  0  0
  189.6070  174.5410  146.6040 C   0  0  0  0  0  3  0  0  0  0  0  0
  188.6560  176.7960  146.4130 C   0  0  0  0  0  3  0  0  0  0  0  0
  189.8560  177.2660  145.6320 C   0  0  0  0  0  2  0  0  0  0  0  0
  192.8140  175.4570  144.0190 N   0  0  0  0  0  0  0  0  0  0  0  0
  193.9720  176.3630  142.1620 O   0  0  0  0  0  0  0  0  0  0  0  0
  196.8140  173.7050  145.8880 C   0  0  0  0  0  3  0  0  0  0  0  0
  197.7110  174.1660  145.0130 C   0  0  0  0  0  3  0  0  0  0  0  0
  193.2740  174.6540  145.1520 C   0  0  0  0  0  2  0  0  0  0  0  0
  196.3410  174.6180  142.9420 C   0  0  0  0  0  0  0  0  0  0  0  0
  196.3780  174.8160  141.6010 F   0  0  0  0  0  0  0  0  0  0  0  0
  195.0550  174.8130  143.6420 C   0  0  0  0  0  0  0  0  0  0  0  0
  197.4990  174.3630  143.5640 C   0  0  0  0  0  3  0  0  0  0  0  0
  194.6750  174.2580  144.7850 C   0  0  0  0  0  0  0  0  0  0  0  0
  193.9400  175.5970  143.1630 C   0  0  0  0  0  0  0  0  0  0  0  0
  195.4520  173.2180  145.5140 C   0  0  0  0  0  2  0  0  0  0  0  0
  190.7270  172.0970  141.1750 C   0  0  0  0  0  3  0  0  0  0  0  0
  190.4810  171.7360  142.6010 C   0  0  0  0  0  2  0  0  0  0  0  0
  190.3570  174.7250  142.7910 C   0  0  0  0  0  0  0  0  0  0  0  0
  190.9960  173.3390  140.7730 C   0  0  0  0  0  3  0  0  0  0  0  0
  189.3130  172.4810  143.1520 C   0  0  0  0  0  3  0  0  0  0  0  0
  189.2880  173.8090  143.2560 C   0  0  0  0  0  3  0  0  0  0  0  0
  191.0200  174.5340  141.6390 C   0  0  0  0  0  3  0  0  0  0  0  0
  1 23  1  6  0  0  0
  1  5  1  0  0  0  0
  1  3  1  0  0  0  0
  3  8  1  1  0  0  0
  3  4  1  0  0  0  0
  4  6  2  0  0  0  0
  5  9  1  6  0  0  0
  5  3  1  0  0  0  0
  6  2  1  0  0  0  0
  7  2  2  0  0  0  0
  8  7  1  0  0  0  0
  9 13  1  0  0  0  0
 10 19  2  0  0  0  0
 12 11  2  0  0  0  0
 14 17  2  0  0  0  0
 14 16  1  0  0  0  0
 15 14  1  0  0  0  0
 16 18  2  0  0  0  0
 17 12  1  0  0  0  0
 18 13  1  0  0  0  0
 18 20  1  0  0  0  0
 19 16  1  0  0  0  0
 19  9  1  0  0  0  0
 20 11  1  0  0  0  0
 21 22  1  0  0  0  0
 22 25  1  0  0  0  0
 23 26  1  0  0  0  0
 24 21  2  0  0  0  0
 24 27  1  0  0  0  0
 25 26  2  0  0  0  0
 27 23  2  0  0  0  0
M  END
>  <MODEL>
6

>  <REMARK>
 VINA RESULT:      -6.9      4.040      6.583
  Name = 
  2 active torsions:
  status: ('A' for Active; 'I' for Inactive)
    1  A    between atoms: C_1  and  C_18
    2  A    between atoms: N_2  and  C_15
                            x       y       z     vdW  Elec       q    Type
                         _______ _______ _______ _____ _____    ______ ____

>  <TORSDO>
F 2

$$$$
=
 OpenBabel11052418273D

 27 31  0  0  1  0  0  0  0  0999 V2000
  194.8660  174.5810  144.6700 C   0  0  1  0  0  3  0  0  0  0  0  0
  196.1360  176.6160  141.5060 C   0  0  0  0  0  3  0  0  0  0  0  0
  194.7800  175.8900  143.8840 C   0  0  1  0  0  0  0  0  0  0  0  0
  194.0420  175.9320  142.5660 C   0  0  0  0  0  3  0  0  0  0  0  0
  193.9980  175.7590  145.1890 C   0  0  1  0  0  3  0  0  0  0  0  0
  194.7040  176.2590  141.4550 C   0  0  0  0  0  3  0  0  0  0  0  0
  196.7650  176.8090  142.6710 C   0  0  0  0  0  3  0  0  0  0  0  0
  196.0350  176.7560  143.9880 C   0  0  0  0  0  2  0  0  0  0  0  0
  192.5550  175.5500  145.0170 N   0  0  0  0  0  0  0  0  0  0  0  0
  192.0950  174.7820  147.2090 O   0  0  0  0  0  0  0  0  0  0  0  0
  188.2890  177.6060  144.6490 C   0  0  0  0  0  3  0  0  0  0  0  0
  187.8020  177.3720  145.8690 C   0  0  0  0  0  3  0  0  0  0  0  0
  191.7330  176.2820  144.0520 C   0  0  0  0  0  2  0  0  0  0  0  0
  189.1630  175.4090  146.6840 C   0  0  0  0  0  0  0  0  0  0  0  0
  189.2300  174.3920  147.5790 F   0  0  0  0  0  0  0  0  0  0  0  0
  190.3410  175.6670  145.8300 C   0  0  0  0  0  0  0  0  0  0  0  0
  188.0720  176.1850  146.7070 C   0  0  0  0  0  3  0  0  0  0  0  0
  190.3510  176.2480  144.6380 C   0  0  0  0  0  0  0  0  0  0  0  0
  191.6980  175.2610  146.1130 C   0  0  0  0  0  0  0  0  0  0  0  0
  189.1290  176.6380  143.8810 C   0  0  0  0  0  2  0  0  0  0  0  0
  192.3250  171.0050  143.2910 C   0  0  0  0  0  3  0  0  0  0  0  0
  192.3630  171.9410  142.1310 C   0  0  0  0  0  2  0  0  0  0  0  0
  194.1480  173.4070  144.0420 C   0  0  0  0  0  0  0  0  0  0  0  0
  192.7890  171.3220  144.5000 C   0  0  0  0  0  3  0  0  0  0  0  0
  193.7620  172.3460  141.8100 C   0  0  0  0  0  3  0  0  0  0  0  0
  194.5300  173.0230  142.6620 C   0  0  0  0  0  3  0  0  0  0  0  0
  193.4620  172.5880  144.8550 C   0  0  0  0  0  3  0  0  0  0  0  0
  1 23  1  6  0  0  0
  1  5  1  0  0  0  0
  2  7  2  0  0  0  0
  3  4  1  6  0  0  0
  3  8  1  0  0  0  0
  3  1  1  0  0  0  0
  3  5  1  0  0  0  0
  5  9  1  6  0  0  0
  6  2  1  0  0  0  0
  6  4  2  0  0  0  0
  7  8  1  0  0  0  0
  9 19  1  0  0  0  0
 11 12  2  0  0  0  0
 12 17  1  0  0  0  0
 13 18  1  0  0  0  0
 13  9  1  0  0  0  0
 14 17  2  0  0  0  0
 14 15  1  0  0  0  0
 16 19  1  0  0  0  0
 16 14  1  0  0  0  0
 18 16  2  0  0  0  0
 19 10  2  0  0  0  0
 20 18  1  0  0  0  0
 20 11  1  0  0  0  0
 21 24  2  0  0  0  0
 22 21  1  0  0  0  0
 23 27  2  0  0  0  0
 24 27  1  0  0  0  0
 25 22  1  0  0  0  0
 25 26  2  0  0  0  0
 26 23  1  0  0  0  0
M  END
>  <MODEL>
7

>  <REMARK>
 VINA RESULT:      -6.9      4.402      7.154
  Name = 
  2 active torsions:
  status: ('A' for Active; 'I' for Inactive)
    1  A    between atoms: C_1  and  C_18
    2  A    between atoms: N_2  and  C_15
                            x       y       z     vdW  Elec       q    Type
                         _______ _______ _______ _____ _____    ______ ____

>  <TORSDO>
F 2

$$$$
=
 OpenBabel11052418273D

 27 31  0  0  1  0  0  0  0  0999 V2000
  189.7850  174.6650  144.3670 C   0  0  1  0  0  3  0  0  0  0  0  0
  188.4480  177.5690  142.0130 C   0  0  0  0  0  3  0  0  0  0  0  0
  190.0430  175.5040  143.1150 C   0  0  1  0  0  0  0  0  0  0  0  0
  190.4650  176.9490  143.2480 C   0  0  0  0  0  3  0  0  0  0  0  0
  191.0240  174.3900  143.4720 C   0  0  1  0  0  3  0  0  0  0  0  0
  189.6910  177.9070  142.7370 C   0  0  0  0  0  3  0  0  0  0  0  0
  188.1580  176.3060  141.6800 C   0  0  0  0  0  3  0  0  0  0  0  0
  189.1130  175.1730  141.9480 C   0  0  0  0  0  2  0  0  0  0  0  0
  192.2890  174.8540  144.0540 N   0  0  0  0  0  0  0  0  0  0  0  0
  193.0340  172.7610  144.8730 O   0  0  0  0  0  0  0  0  0  0  0  0
  196.7300  176.3020  143.1940 C   0  0  0  0  0  3  0  0  0  0  0  0
  197.4100  175.2020  143.5230 C   0  0  0  0  0  3  0  0  0  0  0  0
  193.0220  176.0300  143.5830 C   0  0  0  0  0  2  0  0  0  0  0  0
  195.8270  173.9580  145.0450 C   0  0  0  0  0  0  0  0  0  0  0  0
  195.7160  172.9930  145.9910 F   0  0  0  0  0  0  0  0  0  0  0  0
  194.5870  174.5540  144.5050 C   0  0  0  0  0  0  0  0  0  0  0  0
  197.0530  174.2350  144.5810 C   0  0  0  0  0  3  0  0  0  0  0  0
  194.4480  175.7570  143.9650 C   0  0  0  0  0  0  0  0  0  0  0  0
  193.2750  173.9510  144.5360 C   0  0  0  0  0  0  0  0  0  0  0  0
  195.5210  176.7900  143.9240 C   0  0  0  0  0  2  0  0  0  0  0  0
  191.0420  176.5270  148.3790 C   0  0  0  0  0  3  0  0  0  0  0  0
  190.5860  177.6680  147.5330 C   0  0  0  0  0  2  0  0  0  0  0  0
  190.0170  175.3820  145.6790 C   0  0  0  0  0  0  0  0  0  0  0  0
  191.2080  175.2910  147.9100 C   0  0  0  0  0  3  0  0  0  0  0  0
  189.2440  177.3980  146.9430 C   0  0  0  0  0  3  0  0  0  0  0  0
  189.0160  176.3940  146.0970 C   0  0  0  0  0  3  0  0  0  0  0  0
  190.9030  174.8480  146.5340 C   0  0  0  0  0  3  0  0  0  0  0  0
  1 23  1  1  0  0  0
  2  6  1  0  0  0  0
  3  8  1  6  0  0  0
  3  4  1  0  0  0  0
  3  5  1  0  0  0  0
  3  1  1  0  0  0  0
  5  9  1  1  0  0  0
  5  1  1  0  0  0  0
  6  4  2  0  0  0  0
  7  8  1  0  0  0  0
  7  2  2  0  0  0  0
  9 19  1  0  0  0  0
 11 12  2  0  0  0  0
 11 20  1  0  0  0  0
 12 17  1  0  0  0  0
 13 18  1  0  0  0  0
 13  9  1  0  0  0  0
 14 15  1  0  0  0  0
 16 19  1  0  0  0  0
 16 14  1  0  0  0  0
 17 14  2  0  0  0  0
 18 16  2  0  0  0  0
 19 10  2  0  0  0  0
 20 18  1  0  0  0  0
 22 21  1  0  0  0  0
 23 26  1  0  0  0  0
 23 27  2  0  0  0  0
 24 21  2  0  0  0  0
 25 22  1  0  0  0  0
 26 25  2  0  0  0  0
 27 24  1  0  0  0  0
M  END
>  <MODEL>
8

>  <REMARK>
 VINA RESULT:      -6.7      4.019      6.682
  Name = 
  2 active torsions:
  status: ('A' for Active; 'I' for Inactive)
    1  A    between atoms: C_1  and  C_18
    2  A    between atoms: N_2  and  C_15
                            x       y       z     vdW  Elec       q    Type
                         _______ _______ _______ _____ _____    ______ ____

>  <TORSDO>
F 2

$$$$
=
 OpenBabel11052418273D

 27 31  0  0  1  0  0  0  0  0999 V2000
  191.2450  176.9990  144.7680 C   0  0  1  0  0  3  0  0  0  0  0  0
  189.9750  175.0170  147.9660 C   0  0  0  0  0  3  0  0  0  0  0  0
  191.2360  175.6630  145.5140 C   0  0  1  0  0  0  0  0  0  0  0  0
  189.9850  174.8160  145.5290 C   0  0  0  0  0  3  0  0  0  0  0  0
  192.0540  175.7870  144.2300 C   0  0  1  0  0  3  0  0  0  0  0  0
  189.3970  174.5390  146.6940 C   0  0  0  0  0  3  0  0  0  0  0  0
  191.1910  175.5730  148.0130 C   0  0  0  0  0  3  0  0  0  0  0  0
  192.0710  175.6660  146.7930 C   0  0  0  0  0  2  0  0  0  0  0  0
  191.4480  175.1460  143.0570 N   0  0  0  0  0  0  0  0  0  0  0  0
  193.1730  175.6440  141.5130 O   0  0  0  0  0  0  0  0  0  0  0  0
  190.4410  171.0440  140.8830 C   0  0  0  0  0  3  0  0  0  0  0  0
  191.3860  171.0330  139.9400 C   0  0  0  0  0  3  0  0  0  0  0  0
  190.5050  174.0300  143.1310 C   0  0  0  0  0  2  0  0  0  0  0  0
  192.0360  173.4620  139.7220 C   0  0  0  0  0  0  0  0  0  0  0  0
  192.6380  174.3900  138.9370 F   0  0  0  0  0  0  0  0  0  0  0  0
  191.6270  173.8590  141.0850 C   0  0  0  0  0  0  0  0  0  0  0  0
  191.9490  172.2120  139.2490 C   0  0  0  0  0  3  0  0  0  0  0  0
  190.6640  173.3190  141.8190 C   0  0  0  0  0  0  0  0  0  0  0  0
  192.1630  174.9670  141.8410 C   0  0  0  0  0  0  0  0  0  0  0  0
  189.7200  172.2740  141.3320 C   0  0  0  0  0  2  0  0  0  0  0  0
  187.6510  177.9810  142.0730 C   0  0  0  0  0  3  0  0  0  0  0  0
  187.1440  176.9990  143.0740 C   0  0  0  0  0  2  0  0  0  0  0  0
  189.9550  177.3470  144.0600 C   0  0  0  0  0  0  0  0  0  0  0  0
  188.9410  178.2910  141.9420 C   0  0  0  0  0  3  0  0  0  0  0  0
  187.4870  177.4200  144.4630 C   0  0  0  0  0  3  0  0  0  0  0  0
  188.7430  177.5410  144.8920 C   0  0  0  0  0  3  0  0  0  0  0  0
  190.0360  177.7800  142.7920 C   0  0  0  0  0  3  0  0  0  0  0  0
  1 23  1  6  0  0  0
  1  3  1  0  0  0  0
  2  7  2  0  0  0  0
  3  4  1  6  0  0  0
  3  8  1  0  0  0  0
  4  6  2  0  0  0  0
  5  9  1  6  0  0  0
  5  1  1  0  0  0  0
  5  3  1  0  0  0  0
  6  2  1  0  0  0  0
  8  7  1  0  0  0  0
  9 13  1  0  0  0  0
 10 19  2  0  0  0  0
 11 20  1  0  0  0  0
 12 11  2  0  0  0  0
 14 16  1  0  0  0  0
 15 14  1  0  0  0  0
 16 18  2  0  0  0  0
 16 19  1  0  0  0  0
 17 14  2  0  0  0  0
 17 12  1  0  0  0  0
 18 13  1  0  0  0  0
 19  9  1  0  0  0  0
 20 18  1  0  0  0  0
 21 22  1  0  0  0  0
 22 25  1  0  0  0  0
 23 26  1  0  0  0  0
 24 21  2  0  0  0  0
 24 27  1  0  0  0  0
 25 26  2  0  0  0  0
 27 23  2  0  0  0  0
M  END
>  <MODEL>
9

>  <REMARK>
 VINA RESULT:      -6.7      2.547      3.197
  Name = 
  2 active torsions:
  status: ('A' for Active; 'I' for Inactive)
    1  A    between atoms: C_1  and  C_18
    2  A    between atoms: N_2  and  C_15
                            x       y       z     vdW  Elec       q    Type
                         _______ _______ _______ _____ _____    ______ ____

>  <TORSDO>
F 2

$$$$
