=
 OpenBabel11052421233D

 43 47  0  0  1  0  0  0  0  0999 V2000
  188.1000  175.7480  142.0800 N   0  0  0  0  0  0  0  0  0  0  0  0
  190.2600  175.3450  146.9140 C   0  0  0  0  0  0  0  0  0  0  0  0
  190.2890  176.8150  144.9240 C   0  0  2  0  0  3  0  0  0  0  0  0
  189.9870  174.2230  145.9870 C   0  0  0  0  0  3  0  0  0  0  0  0
  190.5840  175.1040  148.1060 O   0  0  0  0  0  0  0  0  0  0  0  0
  189.2890  175.8700  144.3030 C   0  0  2  0  0  3  0  0  0  0  0  0
  190.1410  176.7750  146.4430 C   0  0  0  0  0  2  0  0  0  0  0  0
  189.5680  174.4610  144.7360 C   0  0  0  0  0  3  0  0  0  0  0  0
  189.3380  176.1120  142.8000 C   0  0  2  0  0  3  0  0  0  0  0  0
  189.7360  177.8810  142.5380 S   0  0  0  0  0  0  0  0  0  0  0  0
  190.0130  178.1660  144.3190 C   0  0  0  0  0  2  0  0  0  0  0  0
  187.2840  176.9330  141.7770 C   0  0  1  0  0  3  0  0  0  0  0  0
  187.0990  177.0610  140.3970 O   0  0  0  0  0  1  0  0  0  0  0  0
  185.9120  176.8140  142.4290 C   0  0  0  0  0  2  0  0  0  0  0  0
  186.1400  177.6130  146.1240 C   0  0  0  0  0  0  0  0  0  0  0  0
  185.8590  178.9880  146.1290 C   0  0  0  0  0  0  0  0  0  0  0  0
  185.8420  179.6880  147.2890 F   0  0  0  0  0  0  0  0  0  0  0  0
  185.6000  178.9370  143.7190 C   0  0  0  0  0  3  0  0  0  0  0  0
  186.1480  176.9070  144.9180 C   0  0  0  0  0  3  0  0  0  0  0  0
  185.8780  177.5670  143.7140 C   0  0  0  0  0  0  0  0  0  0  0  0
  186.4480  176.8970  147.3930 C   0  0  0  0  0  1  0  0  0  0  0  0
  185.5870  179.6460  144.9250 C   0  0  0  0  0  3  0  0  0  0  0  0
  188.3580  174.8850  140.9090 C   0  0  0  0  0  2  0  0  0  0  0  0
  189.2000  173.6430  141.2280 C   0  0  0  0  0  2  0  0  0  0  0  0
  190.4440  173.5650  140.3530 C   0  0  2  0  0  3  0  0  0  0  0  0
  190.1420  172.8380  139.0520 C   0  0  0  0  0  1  0  0  0  0  0  0
  191.5040  172.9340  141.0690 O   0  0  0  0  0  0  0  0  0  0  0  0
  192.1820  173.5410  142.1300 C   0  0  0  0  0  0  0  0  0  0  0  0
  192.2800  172.9300  143.2260 O   0  0  0  0  0  0  0  0  0  0  0  0
  192.8960  175.1830  141.9770 S   0  0  0  0  0  0  0  0  0  0  0  0
  194.5450  174.6680  141.3600 C   0  0  1  0  0  3  0  0  0  0  0  0
  196.6070  173.2570  141.6040 C   0  0  0  0  0  2  0  0  0  0  0  0
  195.1890  175.6590  140.3840 C   0  0  0  0  0  2  0  0  0  0  0  0
  196.6510  175.2970  140.0770 C   0  0  0  0  0  2  0  0  0  0  0  0
  195.5270  174.0450  142.3660 C   0  0  1  0  0  3  0  0  0  0  0  0
  196.8970  173.7890  140.1860 C   0  0  0  0  0  2  0  0  0  0  0  0
  196.2200  175.1110  143.2200 C   0  0  0  0  0  2  0  0  0  0  0  0
  195.4050  175.5450  144.3980 C   0  0  0  0  0  0  0  0  0  0  0  0
  193.8280  176.3240  146.5470 C   0  0  0  0  0  3  0  0  0  0  0  0
  194.5210  177.2650  145.7820 C   0  0  0  0  0  3  0  0  0  0  0  0
  193.9270  174.9720  146.2150 C   0  0  0  0  0  3  0  0  0  0  0  0
  195.2800  176.8620  144.7280 N   0  0  0  0  0  0  0  0  0  0  0  0
  194.7160  174.5780  145.1330 C   0  0  0  0  0  3  0  0  0  0  0  0
  2  5  2  0  0  0  0
  3 11  1  6  0  0  0
  3  7  1  0  0  0  0
  4  2  1  0  0  0  0
  6  8  1  6  0  0  0
  6  3  1  0  0  0  0
  7  2  1  0  0  0  0
  8  4  2  0  0  0  0
  9  1  1  1  0  0  0
  9  6  1  0  0  0  0
 10  9  1  0  0  0  0
 10 11  1  0  0  0  0
 12 13  1  6  0  0  0
 12  1  1  0  0  0  0
 12 14  1  0  0  0  0
 14 20  1  0  0  0  0
 15 16  1  0  0  0  0
 15 21  1  0  0  0  0
 16 17  1  0  0  0  0
 18 22  1  0  0  0  0
 19 15  2  0  0  0  0
 20 18  2  0  0  0  0
 20 19  1  0  0  0  0
 22 16  2  0  0  0  0
 23 24  1  0  0  0  0
 23  1  1  0  0  0  0
 25 26  1  6  0  0  0
 25 27  1  0  0  0  0
 25 24  1  0  0  0  0
 27 28  1  0  0  0  0
 28 29  2  0  0  0  0
 30 28  1  0  0  0  0
 31 30  1  1  0  0  0
 31 35  1  0  0  0  0
 32 35  1  0  0  0  0
 33 31  1  0  0  0  0
 34 36  1  0  0  0  0
 34 33  1  0  0  0  0
 35 37  1  6  0  0  0
 36 32  1  0  0  0  0
 37 38  1  0  0  0  0
 38 42  2  0  0  0  0
 38 43  1  0  0  0  0
 40 39  2  0  0  0  0
 41 39  1  0  0  0  0
 42 40  1  0  0  0  0
 43 41  2  0  0  0  0
M  END
>  <MODEL>
1

>  <REMARK>
 VINA RESULT:      -7.6      0.000      0.000
  Name = 
  13 active torsions:
  status: ('A' for Active; 'I' for Inactive)
    1  A    between atoms: C_1  and  C_34
    2  A    between atoms: C_1  and  C_35
    3  A    between atoms: C_2  and  O_6
    4  A    between atoms: C_2  and  C_13
    5  A    between atoms: S_3  and  C_4
    6  A    between atoms: S_3  and  C_12
    7  A    between atoms: O_6  and  C_12
    8  A    between atoms: N_8  and  C_27
    9  A    between atoms: N_8  and  C_30
   10  A    between atoms: N_8  and  C_34
   11  A    between atoms: C_11  and  C_14
   12  A    between atoms: C_13  and  C_27
   13  A    between atoms: C_14  and  C_41
                            x       y       z     vdW  Elec       q    Type
                         _______ _______ _______ _____ _____    ______ ____

>  <TORSDO>
F 13

$$$$
=
 OpenBabel11052421233D

 43 47  0  0  1  0  0  0  0  0999 V2000
  190.3710  176.0980  145.6020 N   0  0  0  0  0  0  0  0  0  0  0  0
  187.7250  177.2170  141.1360 C   0  0  0  0  0  0  0  0  0  0  0  0
  189.0380  175.3950  142.1740 C   0  0  2  0  0  3  0  0  0  0  0  0
  188.5660  178.1600  141.9090 C   0  0  0  0  0  3  0  0  0  0  0  0
  186.9890  177.6520  140.2130 O   0  0  0  0  0  0  0  0  0  0  0  0
  189.1960  176.2930  143.3770 C   0  0  2  0  0  3  0  0  0  0  0  0
  187.7360  175.7420  141.4560 C   0  0  0  0  0  2  0  0  0  0  0  0
  189.2980  177.7270  142.9440 C   0  0  0  0  0  3  0  0  0  0  0  0
  190.3870  175.7630  144.1630 C   0  0  2  0  0  3  0  0  0  0  0  0
  190.4390  173.9470  143.9270 S   0  0  0  0  0  0  0  0  0  0  0  0
  189.0880  173.9860  142.7010 C   0  0  0  0  0  2  0  0  0  0  0  0
  189.0140  176.0020  146.1620 C   0  0  1  0  0  3  0  0  0  0  0  0
  188.9270  174.9260  147.0510 O   0  0  0  0  0  1  0  0  0  0  0  0
  188.6640  177.2750  146.9240 C   0  0  0  0  0  2  0  0  0  0  0  0
  185.4590  177.9740  145.0300 C   0  0  0  0  0  0  0  0  0  0  0  0
  184.6260  178.4420  146.0570 C   0  0  0  0  0  0  0  0  0  0  0  0
  183.3470  178.8100  145.7980 F   0  0  0  0  0  0  0  0  0  0  0  0
  186.4350  178.1590  147.6460 C   0  0  0  0  0  3  0  0  0  0  0  0
  186.7760  177.6030  145.3150 C   0  0  0  0  0  3  0  0  0  0  0  0
  187.2670  177.6950  146.6220 C   0  0  0  0  0  0  0  0  0  0  0  0
  184.9500  177.8510  143.6350 C   0  0  0  0  0  1  0  0  0  0  0  0
  185.1180  178.5350  147.3640 C   0  0  0  0  0  3  0  0  0  0  0  0
  191.3880  175.3520  146.3700 C   0  0  0  0  0  2  0  0  0  0  0  0
  192.4650  176.2440  147.0010 C   0  0  0  0  0  2  0  0  0  0  0  0
  193.8390  175.9850  146.3940 C   0  0  2  0  0  3  0  0  0  0  0  0
  194.0980  176.9260  145.2280 C   0  0  0  0  0  1  0  0  0  0  0  0
  193.9450  174.6200  145.9950 O   0  0  0  0  0  0  0  0  0  0  0  0
  195.1260  174.0500  145.5100 C   0  0  0  0  0  0  0  0  0  0  0  0
  196.1970  174.2220  146.1470 O   0  0  0  0  0  0  0  0  0  0  0  0
  195.1570  173.1010  143.9850 S   0  0  0  0  0  0  0  0  0  0  0  0
  195.4730  174.5000  142.8400 C   0  0  1  0  0  3  0  0  0  0  0  0
  194.6000  176.3130  141.3410 C   0  0  0  0  0  2  0  0  0  0  0  0
  196.8870  174.5200  142.2470 C   0  0  0  0  0  2  0  0  0  0  0  0
  197.0270  175.5670  141.1310 C   0  0  0  0  0  2  0  0  0  0  0  0
  194.3650  174.8780  141.8430 C   0  0  1  0  0  3  0  0  0  0  0  0
  196.0780  176.7500  141.3410 C   0  0  0  0  0  2  0  0  0  0  0  0
  194.3430  173.9400  140.6330 C   0  0  0  0  0  2  0  0  0  0  0  0
  193.0490  173.2050  140.4790 C   0  0  0  0  0  0  0  0  0  0  0  0
  190.6100  171.9010  140.2270 C   0  0  0  0  0  3  0  0  0  0  0  0
  191.6130  171.3990  141.0580 C   0  0  0  0  0  3  0  0  0  0  0  0
  190.8390  173.0830  139.5210 C   0  0  0  0  0  3  0  0  0  0  0  0
  192.7970  172.0590  141.1740 N   0  0  0  0  0  0  0  0  0  0  0  0
  192.0630  173.7430  139.6490 C   0  0  0  0  0  3  0  0  0  0  0  0
  1 12  1  0  0  0  0
  1 23  1  0  0  0  0
  2  7  1  0  0  0  0
  2  4  1  0  0  0  0
  3  7  1  1  0  0  0
  3 11  1  0  0  0  0
  3  6  1  0  0  0  0
  4  8  2  0  0  0  0
  5  2  2  0  0  0  0
  6  8  1  6  0  0  0
  6  9  1  0  0  0  0
  9  1  1  1  0  0  0
 10  9  1  0  0  0  0
 11 10  1  0  0  0  0
 12 14  1  0  0  0  0
 12 13  1  1  0  0  0
 15 19  2  0  0  0  0
 15 16  1  0  0  0  0
 16 22  2  0  0  0  0
 17 16  1  0  0  0  0
 19 20  1  0  0  0  0
 20 14  1  0  0  0  0
 20 18  2  0  0  0  0
 21 15  1  0  0  0  0
 22 18  1  0  0  0  0
 23 24  1  0  0  0  0
 25 26  1  6  0  0  0
 25 24  1  0  0  0  0
 27 25  1  0  0  0  0
 28 27  1  0  0  0  0
 28 29  2  0  0  0  0
 30 28  1  0  0  0  0
 31 30  1  6  0  0  0
 32 36  1  0  0  0  0
 32 35  1  0  0  0  0
 33 31  1  0  0  0  0
 34 36  1  0  0  0  0
 34 33  1  0  0  0  0
 35 37  1  6  0  0  0
 35 31  1  0  0  0  0
 38 37  1  0  0  0  0
 38 42  1  0  0  0  0
 39 40  1  0  0  0  0
 40 42  2  0  0  0  0
 41 43  1  0  0  0  0
 41 39  2  0  0  0  0
 43 38  2  0  0  0  0
M  END
>  <MODEL>
2

>  <REMARK>
 VINA RESULT:      -7.4      2.103      5.061
  Name = 
  13 active torsions:
  status: ('A' for Active; 'I' for Inactive)
    1  A    between atoms: C_1  and  C_34
    2  A    between atoms: C_1  and  C_35
    3  A    between atoms: C_2  and  O_6
    4  A    between atoms: C_2  and  C_13
    5  A    between atoms: S_3  and  C_4
    6  A    between atoms: S_3  and  C_12
    7  A    between atoms: O_6  and  C_12
    8  A    between atoms: N_8  and  C_27
    9  A    between atoms: N_8  and  C_30
   10  A    between atoms: N_8  and  C_34
   11  A    between atoms: C_11  and  C_14
   12  A    between atoms: C_13  and  C_27
   13  A    between atoms: C_14  and  C_41
                            x       y       z     vdW  Elec       q    Type
                         _______ _______ _______ _____ _____    ______ ____

>  <TORSDO>
F 13

$$$$
=
 OpenBabel11052421233D

 43 47  0  0  1  0  0  0  0  0999 V2000
  188.1810  175.6450  142.1900 N   0  0  0  0  0  0  0  0  0  0  0  0
  190.3550  175.4120  147.0290 C   0  0  0  0  0  0  0  0  0  0  0  0
  190.2530  176.8920  145.0490 C   0  0  2  0  0  3  0  0  0  0  0  0
  190.1900  174.2760  146.0930 C   0  0  0  0  0  3  0  0  0  0  0  0
  190.6970  175.1940  148.2200 O   0  0  0  0  0  0  0  0  0  0  0  0
  189.3470  175.8630  144.4170 C   0  0  2  0  0  3  0  0  0  0  0  0
  190.1050  176.8270  146.5670 C   0  0  0  0  0  2  0  0  0  0  0  0
  189.7560  174.4820  144.8430 C   0  0  0  0  0  3  0  0  0  0  0  0
  189.3780  176.1180  142.9170 C   0  0  2  0  0  3  0  0  0  0  0  0
  189.6100  177.9180  142.6680 S   0  0  0  0  0  0  0  0  0  0  0  0
  189.8530  178.2150  144.4520 C   0  0  0  0  0  2  0  0  0  0  0  0
  187.3190  176.7650  141.7840 C   0  0  1  0  0  3  0  0  0  0  0  0
  187.1300  176.7600  140.3980 O   0  0  0  0  0  1  0  0  0  0  0  0
  185.9520  176.6500  142.4480 C   0  0  0  0  0  2  0  0  0  0  0  0
  186.0980  177.5890  146.1150 C   0  0  0  0  0  0  0  0  0  0  0  0
  185.8820  178.9740  146.0550 C   0  0  0  0  0  0  0  0  0  0  0  0
  185.8610  179.7200  147.1860 F   0  0  0  0  0  0  0  0  0  0  0  0
  185.6990  178.8370  143.6420 C   0  0  0  0  0  3  0  0  0  0  0  0
  186.1120  176.8340  144.9380 C   0  0  0  0  0  3  0  0  0  0  0  0
  185.9120  177.4560  143.7010 C   0  0  0  0  0  0  0  0  0  0  0  0
  186.3300  176.9110  147.4210 C   0  0  0  0  0  1  0  0  0  0  0  0
  185.6810  179.5940  144.8180 C   0  0  0  0  0  3  0  0  0  0  0  0
  188.5160  174.7190  141.0890 C   0  0  0  0  0  2  0  0  0  0  0  0
  189.9490  174.1740  141.1510 C   0  0  0  0  0  2  0  0  0  0  0  0
  189.9770  172.7050  141.5520 C   0  0  2  0  0  3  0  0  0  0  0  0
  188.6380  172.2810  142.1330 C   0  0  0  0  0  1  0  0  0  0  0  0
  191.0410  172.4720  142.4710 O   0  0  0  0  0  0  0  0  0  0  0  0
  192.3180  172.0550  142.0800 C   0  0  0  0  0  0  0  0  0  0  0  0
  192.5580  171.8810  140.8570 O   0  0  0  0  0  0  0  0  0  0  0  0
  193.6160  171.7400  143.2820 S   0  0  0  0  0  0  0  0  0  0  0  0
  193.6820  173.4250  144.0070 C   0  0  1  0  0  3  0  0  0  0  0  0
  193.6140  175.9160  143.7100 C   0  0  0  0  0  2  0  0  0  0  0  0
  194.3130  173.4840  145.4030 C   0  0  0  0  0  2  0  0  0  0  0  0
  194.5510  174.9300  145.8640 C   0  0  0  0  0  2  0  0  0  0  0  0
  194.0790  174.5890  143.0840 C   0  0  1  0  0  3  0  0  0  0  0  0
  193.5350  175.8970  145.2490 C   0  0  0  0  0  2  0  0  0  0  0  0
  195.5950  174.6590  142.8760 C   0  0  0  0  0  2  0  0  0  0  0  0
  195.9840  174.8950  141.4500 C   0  0  0  0  0  0  0  0  0  0  0  0
  196.7020  175.2570  138.7920 C   0  0  0  0  0  3  0  0  0  0  0  0
  197.5820  175.5810  139.8270 C   0  0  0  0  0  3  0  0  0  0  0  0
  195.4470  174.7340  139.1050 C   0  0  0  0  0  3  0  0  0  0  0  0
  197.2130  175.3880  141.1220 N   0  0  0  0  0  0  0  0  0  0  0  0
  195.0840  174.5480  140.4400 C   0  0  0  0  0  3  0  0  0  0  0  0
  2  5  2  0  0  0  0
  3 11  1  6  0  0  0
  3  7  1  0  0  0  0
  4  2  1  0  0  0  0
  6  8  1  6  0  0  0
  6  3  1  0  0  0  0
  7  2  1  0  0  0  0
  8  4  2  0  0  0  0
  9  1  1  1  0  0  0
  9  6  1  0  0  0  0
 10  9  1  0  0  0  0
 10 11  1  0  0  0  0
 12 13  1  6  0  0  0
 12  1  1  0  0  0  0
 12 14  1  0  0  0  0
 14 20  1  0  0  0  0
 15 21  1  0  0  0  0
 16 15  1  0  0  0  0
 16 17  1  0  0  0  0
 18 20  2  0  0  0  0
 18 22  1  0  0  0  0
 19 15  2  0  0  0  0
 20 19  1  0  0  0  0
 22 16  2  0  0  0  0
 23 24  1  0  0  0  0
 23  1  1  0  0  0  0
 24 25  1  0  0  0  0
 25 26  1  1  0  0  0
 25 27  1  0  0  0  0
 28 27  1  0  0  0  0
 28 30  1  0  0  0  0
 29 28  2  0  0  0  0
 31 30  1  6  0  0  0
 31 33  1  0  0  0  0
 32 36  1  0  0  0  0
 33 34  1  0  0  0  0
 35 37  1  1  0  0  0
 35 32  1  0  0  0  0
 35 31  1  0  0  0  0
 36 34  1  0  0  0  0
 38 37  1  0  0  0  0
 39 41  2  0  0  0  0
 39 40  1  0  0  0  0
 40 42  2  0  0  0  0
 41 43  1  0  0  0  0
 42 38  1  0  0  0  0
 43 38  2  0  0  0  0
M  END
>  <MODEL>
3

>  <REMARK>
 VINA RESULT:      -7.4      1.274      3.071
  Name = 
  13 active torsions:
  status: ('A' for Active; 'I' for Inactive)
    1  A    between atoms: C_1  and  C_34
    2  A    between atoms: C_1  and  C_35
    3  A    between atoms: C_2  and  O_6
    4  A    between atoms: C_2  and  C_13
    5  A    between atoms: S_3  and  C_4
    6  A    between atoms: S_3  and  C_12
    7  A    between atoms: O_6  and  C_12
    8  A    between atoms: N_8  and  C_27
    9  A    between atoms: N_8  and  C_30
   10  A    between atoms: N_8  and  C_34
   11  A    between atoms: C_11  and  C_14
   12  A    between atoms: C_13  and  C_27
   13  A    between atoms: C_14  and  C_41
                            x       y       z     vdW  Elec       q    Type
                         _______ _______ _______ _____ _____    ______ ____

>  <TORSDO>
F 13

$$$$
=
 OpenBabel11052421233D

 43 47  0  0  1  0  0  0  0  0999 V2000
  188.5710  175.4300  142.2380 N   0  0  0  0  0  0  0  0  0  0  0  0
  190.6800  175.4010  147.1120 C   0  0  0  0  0  0  0  0  0  0  0  0
  190.4810  176.8600  145.1240 C   0  0  2  0  0  3  0  0  0  0  0  0
  190.6290  174.2520  146.1780 C   0  0  0  0  0  3  0  0  0  0  0  0
  191.0200  175.2170  148.3090 O   0  0  0  0  0  0  0  0  0  0  0  0
  189.6780  175.7550  144.4830 C   0  0  2  0  0  3  0  0  0  0  0  0
  190.3160  176.7880  146.6400 C   0  0  0  0  0  2  0  0  0  0  0  0
  190.1970  174.4160  144.9200 C   0  0  0  0  0  3  0  0  0  0  0  0
  189.7100  176.0070  142.9820 C   0  0  2  0  0  3  0  0  0  0  0  0
  189.7900  177.8200  142.7280 S   0  0  0  0  0  0  0  0  0  0  0  0
  189.9780  178.1430  144.5150 C   0  0  0  0  0  2  0  0  0  0  0  0
  187.5590  176.4510  141.9270 C   0  0  1  0  0  3  0  0  0  0  0  0
  187.2600  176.4420  140.5600 O   0  0  0  0  0  1  0  0  0  0  0  0
  186.2710  176.1730  142.6940 C   0  0  0  0  0  2  0  0  0  0  0  0
  186.1400  177.5350  146.2260 C   0  0  0  0  0  0  0  0  0  0  0  0
  185.9150  178.8990  145.9890 C   0  0  0  0  0  0  0  0  0  0  0  0
  185.8040  179.7720  147.0200 F   0  0  0  0  0  0  0  0  0  0  0  0
  185.9100  178.4790  143.6020 C   0  0  0  0  0  3  0  0  0  0  0  0
  186.2470  176.6490  145.1500 C   0  0  0  0  0  3  0  0  0  0  0  0
  186.1320  177.1180  143.8370 C   0  0  0  0  0  0  0  0  0  0  0  0
  186.2840  177.0180  147.6150 C   0  0  0  0  0  1  0  0  0  0  0  0
  185.7980  179.3680  144.6760 C   0  0  0  0  0  3  0  0  0  0  0  0
  189.0000  174.6370  141.0690 C   0  0  0  0  0  2  0  0  0  0  0  0
  188.8980  173.1210  141.2770 C   0  0  0  0  0  2  0  0  0  0  0  0
  190.2650  172.4510  141.2250 C   0  0  2  0  0  3  0  0  0  0  0  0
  190.2270  171.0960  141.9140 C   0  0  0  0  0  1  0  0  0  0  0  0
  191.2470  173.3040  141.8080 O   0  0  0  0  0  0  0  0  0  0  0  0
  192.5540  173.4150  141.3230 C   0  0  0  0  0  0  0  0  0  0  0  0
  192.7660  174.0750  140.2730 O   0  0  0  0  0  0  0  0  0  0  0  0
  193.9360  172.6170  142.1490 S   0  0  0  0  0  0  0  0  0  0  0  0
  194.5750  174.0970  143.0260 C   0  0  1  0  0  3  0  0  0  0  0  0
  196.4040  175.2280  144.3200 C   0  0  0  0  0  2  0  0  0  0  0  0
  193.4900  175.0950  143.4500 C   0  0  0  0  0  2  0  0  0  0  0  0
  194.0460  176.1920  144.3710 C   0  0  0  0  0  2  0  0  0  0  0  0
  195.6850  173.8910  144.0710 C   0  0  1  0  0  3  0  0  0  0  0  0
  195.5250  176.4730  144.0900 C   0  0  0  0  0  2  0  0  0  0  0  0
  195.1260  173.3880  145.4040 C   0  0  0  0  0  2  0  0  0  0  0  0
  195.4510  171.9530  145.6760 C   0  0  0  0  0  0  0  0  0  0  0  0
  196.0900  169.2850  146.1100 C   0  0  0  0  0  3  0  0  0  0  0  0
  194.7600  169.7040  146.0270 C   0  0  0  0  0  3  0  0  0  0  0  0
  197.1100  170.2260  145.9630 C   0  0  0  0  0  3  0  0  0  0  0  0
  194.4700  171.0140  145.8050 N   0  0  0  0  0  0  0  0  0  0  0  0
  196.7920  171.5670  145.7410 C   0  0  0  0  0  3  0  0  0  0  0  0
  2  5  2  0  0  0  0
  3 11  1  6  0  0  0
  3  7  1  0  0  0  0
  4  2  1  0  0  0  0
  6  8  1  6  0  0  0
  6  3  1  0  0  0  0
  7  2  1  0  0  0  0
  8  4  2  0  0  0  0
  9  1  1  6  0  0  0
  9  6  1  0  0  0  0
 10  9  1  0  0  0  0
 10 11  1  0  0  0  0
 12 13  1  6  0  0  0
 12  1  1  0  0  0  0
 12 14  1  0  0  0  0
 14 20  1  0  0  0  0
 15 21  1  0  0  0  0
 16 15  1  0  0  0  0
 16 17  1  0  0  0  0
 18 20  2  0  0  0  0
 18 22  1  0  0  0  0
 19 15  2  0  0  0  0
 20 19  1  0  0  0  0
 22 16  2  0  0  0  0
 23 24  1  0  0  0  0
 23  1  1  0  0  0  0
 25 24  1  0  0  0  0
 25 27  1  0  0  0  0
 25 26  1  1  0  0  0
 28 27  1  0  0  0  0
 28 30  1  0  0  0  0
 29 28  2  0  0  0  0
 31 30  1  1  0  0  0
 31 33  1  0  0  0  0
 31 35  1  0  0  0  0
 33 34  1  0  0  0  0
 35 32  1  0  0  0  0
 35 37  1  1  0  0  0
 36 32  1  0  0  0  0
 36 34  1  0  0  0  0
 37 38  1  0  0  0  0
 38 43  2  0  0  0  0
 38 42  1  0  0  0  0
 40 39  1  0  0  0  0
 41 39  2  0  0  0  0
 42 40  2  0  0  0  0
 43 41  1  0  0  0  0
M  END
>  <MODEL>
4

>  <REMARK>
 VINA RESULT:      -7.4      2.053      2.799
  Name = 
  13 active torsions:
  status: ('A' for Active; 'I' for Inactive)
    1  A    between atoms: C_1  and  C_34
    2  A    between atoms: C_1  and  C_35
    3  A    between atoms: C_2  and  O_6
    4  A    between atoms: C_2  and  C_13
    5  A    between atoms: S_3  and  C_4
    6  A    between atoms: S_3  and  C_12
    7  A    between atoms: O_6  and  C_12
    8  A    between atoms: N_8  and  C_27
    9  A    between atoms: N_8  and  C_30
   10  A    between atoms: N_8  and  C_34
   11  A    between atoms: C_11  and  C_14
   12  A    between atoms: C_13  and  C_27
   13  A    between atoms: C_14  and  C_41
                            x       y       z     vdW  Elec       q    Type
                         _______ _______ _______ _____ _____    ______ ____

>  <TORSDO>
F 13

$$$$
=
 OpenBabel11052421233D

 43 47  0  0  1  0  0  0  0  0999 V2000
  191.5360  172.1390  142.7840 N   0  0  0  0  0  0  0  0  0  0  0  0
  195.8410  173.2170  145.7000 C   0  0  0  0  0  0  0  0  0  0  0  0
  194.5120  171.2930  144.8930 C   0  0  2  0  0  3  0  0  0  0  0  0
  194.5810  173.9950  145.6890 C   0  0  0  0  0  3  0  0  0  0  0  0
  196.8570  173.6850  146.2750 O   0  0  0  0  0  0  0  0  0  0  0  0
  193.6200  172.2930  144.1990 C   0  0  2  0  0  3  0  0  0  0  0  0
  195.9190  171.8730  145.0160 C   0  0  0  0  0  2  0  0  0  0  0  0
  193.5110  173.5460  145.0170 C   0  0  0  0  0  3  0  0  0  0  0  0
  192.3040  171.5820  143.9170 C   0  0  2  0  0  3  0  0  0  0  0  0
  192.6840  169.8130  143.6260 S   0  0  0  0  0  0  0  0  0  0  0  0
  194.4400  170.0340  144.0700 C   0  0  0  0  0  2  0  0  0  0  0  0
  192.2430  171.9520  141.5090 C   0  0  1  0  0  3  0  0  0  0  0  0
  191.5750  171.0180  140.7110 O   0  0  0  0  0  1  0  0  0  0  0  0
  192.3100  173.2670  140.7410 C   0  0  0  0  0  2  0  0  0  0  0  0
  195.5470  174.7610  142.0210 C   0  0  0  0  0  0  0  0  0  0  0  0
  195.0970  175.9730  142.5660 C   0  0  0  0  0  0  0  0  0  0  0  0
  195.9670  176.8390  143.1420 F   0  0  0  0  0  0  0  0  0  0  0  0
  192.8270  175.4100  141.9300 C   0  0  0  0  0  3  0  0  0  0  0  0
  194.6350  173.8780  141.4350 C   0  0  0  0  0  3  0  0  0  0  0  0
  193.2740  174.2010  141.3890 C   0  0  0  0  0  0  0  0  0  0  0  0
  196.9940  174.4080  142.0450 C   0  0  0  0  0  1  0  0  0  0  0  0
  193.7360  176.2940  142.5200 C   0  0  0  0  0  3  0  0  0  0  0  0
  190.1350  171.6720  142.7650 C   0  0  0  0  0  2  0  0  0  0  0  0
  189.1300  172.7030  143.2970 C   0  0  0  0  0  2  0  0  0  0  0  0
  188.5660  173.5690  142.1780 C   0  0  2  0  0  3  0  0  0  0  0  0
  188.4990  172.7890  140.8750 C   0  0  0  0  0  1  0  0  0  0  0  0
  189.3470  174.7530  142.0380 O   0  0  0  0  0  0  0  0  0  0  0  0
  188.7930  176.0330  141.9460 C   0  0  0  0  0  0  0  0  0  0  0  0
  187.8180  176.2260  141.1740 O   0  0  0  0  0  0  0  0  0  0  0  0
  189.4560  177.4170  142.8820 S   0  0  0  0  0  0  0  0  0  0  0  0
  189.8540  176.4940  144.4180 C   0  0  1  0  0  3  0  0  0  0  0  0
  189.1310  174.9870  146.2900 C   0  0  0  0  0  2  0  0  0  0  0  0
  191.1200  176.9800  145.1330 C   0  0  0  0  0  2  0  0  0  0  0  0
  191.2810  176.3350  146.5180 C   0  0  0  0  0  2  0  0  0  0  0  0
  188.6940  176.1340  145.3620 C   0  0  1  0  0  3  0  0  0  0  0  0
  190.6450  174.9430  146.5730 C   0  0  0  0  0  2  0  0  0  0  0  0
  188.2760  177.3250  146.2290 C   0  0  0  0  0  2  0  0  0  0  0  0
  186.8760  177.7830  145.9650 C   0  0  0  0  0  0  0  0  0  0  0  0
  184.2570  178.5590  145.4620 C   0  0  0  0  0  3  0  0  0  0  0  0
  185.3030  178.9720  144.6340 C   0  0  0  0  0  3  0  0  0  0  0  0
  184.5370  177.7350  146.5530 C   0  0  0  0  0  3  0  0  0  0  0  0
  186.5770  178.5720  144.8940 N   0  0  0  0  0  0  0  0  0  0  0  0
  185.8520  177.3410  146.8060 C   0  0  0  0  0  3  0  0  0  0  0  0
  2  5  2  0  0  0  0
  3 11  1  6  0  0  0
  3  7  1  0  0  0  0
  4  2  1  0  0  0  0
  6  3  1  0  0  0  0
  6  8  1  1  0  0  0
  7  2  1  0  0  0  0
  8  4  2  0  0  0  0
  9  1  1  6  0  0  0
  9  6  1  0  0  0  0
 10  9  1  0  0  0  0
 10 11  1  0  0  0  0
 12 13  1  6  0  0  0
 12  1  1  0  0  0  0
 14 20  1  0  0  0  0
 14 12  1  0  0  0  0
 15 21  1  0  0  0  0
 15 16  1  0  0  0  0
 16 17  1  0  0  0  0
 18 22  1  0  0  0  0
 19 15  2  0  0  0  0
 20 19  1  0  0  0  0
 20 18  2  0  0  0  0
 22 16  2  0  0  0  0
 23  1  1  0  0  0  0
 23 24  1  0  0  0  0
 25 26  1  6  0  0  0
 25 24  1  0  0  0  0
 27 25  1  0  0  0  0
 28 27  1  0  0  0  0
 28 30  1  0  0  0  0
 29 28  2  0  0  0  0
 31 30  1  6  0  0  0
 31 33  1  0  0  0  0
 31 35  1  0  0  0  0
 32 36  1  0  0  0  0
 33 34  1  0  0  0  0
 34 36  1  0  0  0  0
 35 37  1  1  0  0  0
 35 32  1  0  0  0  0
 38 37  1  0  0  0  0
 38 43  1  0  0  0  0
 39 41  1  0  0  0  0
 40 42  1  0  0  0  0
 40 39  2  0  0  0  0
 41 43  2  0  0  0  0
 42 38  2  0  0  0  0
M  END
>  <MODEL>
5

>  <REMARK>
 VINA RESULT:      -7.3      2.909      7.685
  Name = 
  13 active torsions:
  status: ('A' for Active; 'I' for Inactive)
    1  A    between atoms: C_1  and  C_34
    2  A    between atoms: C_1  and  C_35
    3  A    between atoms: C_2  and  O_6
    4  A    between atoms: C_2  and  C_13
    5  A    between atoms: S_3  and  C_4
    6  A    between atoms: S_3  and  C_12
    7  A    between atoms: O_6  and  C_12
    8  A    between atoms: N_8  and  C_27
    9  A    between atoms: N_8  and  C_30
   10  A    between atoms: N_8  and  C_34
   11  A    between atoms: C_11  and  C_14
   12  A    between atoms: C_13  and  C_27
   13  A    between atoms: C_14  and  C_41
                            x       y       z     vdW  Elec       q    Type
                         _______ _______ _______ _____ _____    ______ ____

>  <TORSDO>
F 13

$$$$
=
 OpenBabel11052421233D

 43 47  0  0  1  0  0  0  0  0999 V2000
  192.4230  175.3580  143.6520 N   0  0  0  0  0  0  0  0  0  0  0  0
  194.4080  170.8320  141.7080 C   0  0  0  0  0  0  0  0  0  0  0  0
  194.7290  173.2800  141.5560 C   0  0  2  0  0  3  0  0  0  0  0  0
  192.9780  171.1130  141.9710 C   0  0  0  0  0  3  0  0  0  0  0  0
  194.7730  169.6580  141.4400 O   0  0  0  0  0  0  0  0  0  0  0  0
  193.6040  173.4160  142.5540 C   0  0  2  0  0  3  0  0  0  0  0  0
  195.4300  171.9410  141.7690 C   0  0  0  0  0  2  0  0  0  0  0  0
  192.5800  172.3410  142.3300 C   0  0  0  0  0  3  0  0  0  0  0  0
  193.0870  174.8430  142.4360 C   0  0  2  0  0  3  0  0  0  0  0  0
  194.5060  175.9090  141.9800 S   0  0  0  0  0  0  0  0  0  0  0  0
  195.6180  174.4760  141.7710 C   0  0  0  0  0  2  0  0  0  0  0  0
  193.2740  176.3230  144.3630 C   0  0  1  0  0  3  0  0  0  0  0  0
  192.6040  177.5400  144.5250 O   0  0  0  0  0  1  0  0  0  0  0  0
  193.6340  175.7940  145.7460 C   0  0  0  0  0  2  0  0  0  0  0  0
  195.0580  172.2860  145.6310 C   0  0  0  0  0  0  0  0  0  0  0  0
  196.4160  172.5460  145.3900 C   0  0  0  0  0  0  0  0  0  0  0  0
  197.3050  171.5290  145.2710 F   0  0  0  0  0  0  0  0  0  0  0  0
  195.9570  174.9260  145.3940 C   0  0  0  0  0  3  0  0  0  0  0  0
  194.1570  173.3480  145.7550 C   0  0  0  0  0  3  0  0  0  0  0  0
  194.6040  174.6680  145.6380 C   0  0  0  0  0  0  0  0  0  0  0  0
  194.5600  170.8870  145.7420 C   0  0  0  0  0  1  0  0  0  0  0  0
  196.8620  173.8670  145.2740 C   0  0  0  0  0  3  0  0  0  0  0  0
  191.0550  175.8480  143.3860 C   0  0  0  0  0  2  0  0  0  0  0  0
  189.9560  175.0110  144.0530 C   0  0  0  0  0  2  0  0  0  0  0  0
  190.5350  173.9980  145.0330 C   0  0  2  0  0  3  0  0  0  0  0  0
  189.7380  172.7040  145.0010 C   0  0  0  0  0  1  0  0  0  0  0  0
  190.5720  174.5550  146.3440 O   0  0  0  0  0  0  0  0  0  0  0  0
  189.5170  175.2860  146.8990 C   0  0  0  0  0  0  0  0  0  0  0  0
  188.6060  174.6760  147.5180 O   0  0  0  0  0  0  0  0  0  0  0  0
  189.4140  177.0720  146.7280 S   0  0  0  0  0  0  0  0  0  0  0  0
  187.5910  177.1890  146.5520 C   0  0  1  0  0  3  0  0  0  0  0  0
  185.4970  176.6330  145.2870 C   0  0  0  0  0  2  0  0  0  0  0  0
  186.9550  178.3380  147.3440 C   0  0  0  0  0  2  0  0  0  0  0  0
  185.4740  178.5310  146.9850 C   0  0  0  0  0  2  0  0  0  0  0  0
  186.9900  176.9790  145.1520 C   0  0  1  0  0  3  0  0  0  0  0  0
  184.8210  177.2190  146.5420 C   0  0  0  0  0  2  0  0  0  0  0  0
  187.1180  178.2330  144.2830 C   0  0  0  0  0  2  0  0  0  0  0  0
  186.7390  178.0010  142.8540 C   0  0  0  0  0  0  0  0  0  0  0  0
  186.1020  177.6070  140.1790 C   0  0  0  0  0  3  0  0  0  0  0  0
  185.3040  178.4070  141.0010 C   0  0  0  0  0  3  0  0  0  0  0  0
  187.2420  177.0070  140.7150 C   0  0  0  0  0  3  0  0  0  0  0  0
  185.6400  178.5930  142.3060 N   0  0  0  0  0  0  0  0  0  0  0  0
  187.5670  177.2060  142.0580 C   0  0  0  0  0  3  0  0  0  0  0  0
  1 12  1  0  0  0  0
  2  7  1  0  0  0  0
  2  4  1  0  0  0  0
  3  7  1  1  0  0  0
  3 11  1  0  0  0  0
  3  6  1  0  0  0  0
  4  8  2  0  0  0  0
  5  2  2  0  0  0  0
  6  8  1  6  0  0  0
  9  6  1  0  0  0  0
  9  1  1  1  0  0  0
 10  9  1  0  0  0  0
 11 10  1  0  0  0  0
 12 13  1  1  0  0  0
 12 14  1  0  0  0  0
 15 21  1  0  0  0  0
 15 19  1  0  0  0  0
 16 15  2  0  0  0  0
 17 16  1  0  0  0  0
 18 20  1  0  0  0  0
 20 14  1  0  0  0  0
 20 19  2  0  0  0  0
 22 16  1  0  0  0  0
 22 18  2  0  0  0  0
 23  1  1  0  0  0  0
 23 24  1  0  0  0  0
 24 25  1  0  0  0  0
 25 26  1  1  0  0  0
 25 27  1  0  0  0  0
 27 28  1  0  0  0  0
 28 29  2  0  0  0  0
 30 28  1  0  0  0  0
 31 30  1  6  0  0  0
 31 33  1  0  0  0  0
 32 36  1  0  0  0  0
 34 33  1  0  0  0  0
 35 37  1  6  0  0  0
 35 32  1  0  0  0  0
 35 31  1  0  0  0  0
 36 34  1  0  0  0  0
 38 37  1  0  0  0  0
 39 41  2  0  0  0  0
 39 40  1  0  0  0  0
 40 42  2  0  0  0  0
 41 43  1  0  0  0  0
 42 38  1  0  0  0  0
 43 38  2  0  0  0  0
M  END
>  <MODEL>
6

>  <REMARK>
 VINA RESULT:      -7.2      3.226      8.805
  Name = 
  13 active torsions:
  status: ('A' for Active; 'I' for Inactive)
    1  A    between atoms: C_1  and  C_34
    2  A    between atoms: C_1  and  C_35
    3  A    between atoms: C_2  and  O_6
    4  A    between atoms: C_2  and  C_13
    5  A    between atoms: S_3  and  C_4
    6  A    between atoms: S_3  and  C_12
    7  A    between atoms: O_6  and  C_12
    8  A    between atoms: N_8  and  C_27
    9  A    between atoms: N_8  and  C_30
   10  A    between atoms: N_8  and  C_34
   11  A    between atoms: C_11  and  C_14
   12  A    between atoms: C_13  and  C_27
   13  A    between atoms: C_14  and  C_41
                            x       y       z     vdW  Elec       q    Type
                         _______ _______ _______ _____ _____    ______ ____

>  <TORSDO>
F 13

$$$$
=
 OpenBabel11052421233D

 43 47  0  0  1  0  0  0  0  0999 V2000
  188.4970  175.5600  142.2440 N   0  0  0  0  0  0  0  0  0  0  0  0
  190.7060  175.3210  147.0670 C   0  0  0  0  0  0  0  0  0  0  0  0
  190.5350  176.8320  145.1160 C   0  0  2  0  0  3  0  0  0  0  0  0
  190.5800  174.1970  146.1110 C   0  0  0  0  0  3  0  0  0  0  0  0
  191.0630  175.0940  148.2520 O   0  0  0  0  0  0  0  0  0  0  0  0
  189.6670  175.7810  144.4690 C   0  0  2  0  0  3  0  0  0  0  0  0
  190.3980  176.7340  146.6330 C   0  0  0  0  0  2  0  0  0  0  0  0
  190.1300  174.4100  144.8660 C   0  0  0  0  0  3  0  0  0  0  0  0
  189.6780  176.0650  142.9740 C   0  0  2  0  0  3  0  0  0  0  0  0
  189.8390  177.8780  142.7580 S   0  0  0  0  0  0  0  0  0  0  0  0
  190.0810  178.1500  144.5460 C   0  0  0  0  0  2  0  0  0  0  0  0
  187.5070  176.6240  142.0190 C   0  0  1  0  0  3  0  0  0  0  0  0
  187.2170  176.7420  140.6560 O   0  0  0  0  0  1  0  0  0  0  0  0
  186.2100  176.3050  142.7520 C   0  0  0  0  0  2  0  0  0  0  0  0
  186.2620  177.6650  146.2870 C   0  0  0  0  0  0  0  0  0  0  0  0
  185.7350  178.9520  146.0970 C   0  0  0  0  0  0  0  0  0  0  0  0
  185.5830  179.7990  147.1430 F   0  0  0  0  0  0  0  0  0  0  0  0
  185.5060  178.5030  143.7260 C   0  0  0  0  0  3  0  0  0  0  0  0
  186.4070  176.8030  145.1960 C   0  0  0  0  0  3  0  0  0  0  0  0
  186.0290  177.2190  143.9150 C   0  0  0  0  0  0  0  0  0  0  0  0
  186.6860  177.2100  147.6400 C   0  0  0  0  0  1  0  0  0  0  0  0
  185.3560  179.3660  144.8150 C   0  0  0  0  0  3  0  0  0  0  0  0
  188.8620  174.8140  141.0220 C   0  0  0  0  0  2  0  0  0  0  0  0
  189.7700  173.6060  141.2810 C   0  0  0  0  0  2  0  0  0  0  0  0
  190.6020  173.2530  140.0550 C   0  0  2  0  0  3  0  0  0  0  0  0
  189.8110  172.3680  139.1050 C   0  0  0  0  0  1  0  0  0  0  0  0
  191.8200  172.6290  140.4560 O   0  0  0  0  0  0  0  0  0  0  0  0
  193.0430  173.3040  140.5250 C   0  0  0  0  0  0  0  0  0  0  0  0
  193.0840  174.5300  140.2420 O   0  0  0  0  0  0  0  0  0  0  0  0
  194.5610  172.4600  140.9840 S   0  0  0  0  0  0  0  0  0  0  0  0
  193.8660  171.4500  142.3500 C   0  0  1  0  0  3  0  0  0  0  0  0
  192.3060  171.2260  144.3030 C   0  0  0  0  0  2  0  0  0  0  0  0
  194.7300  170.2460  142.7440 C   0  0  0  0  0  2  0  0  0  0  0  0
  194.2250  169.5720  144.0290 C   0  0  0  0  0  2  0  0  0  0  0  0
  193.2330  172.1890  143.5410 C   0  0  1  0  0  3  0  0  0  0  0  0
  192.7130  169.7430  144.2030 C   0  0  0  0  0  2  0  0  0  0  0  0
  194.2930  172.7110  144.5150 C   0  0  0  0  0  2  0  0  0  0  0  0
  194.2260  174.1920  144.7210 C   0  0  0  0  0  0  0  0  0  0  0  0
  194.0330  176.9300  145.1410 C   0  0  0  0  0  3  0  0  0  0  0  0
  193.9930  176.3940  143.8520 C   0  0  0  0  0  3  0  0  0  0  0  0
  194.1630  176.0700  146.2320 C   0  0  0  0  0  3  0  0  0  0  0  0
  194.0800  175.0490  143.6700 N   0  0  0  0  0  0  0  0  0  0  0  0
  194.2560  174.6930  146.0240 C   0  0  0  0  0  3  0  0  0  0  0  0
  2  5  2  0  0  0  0
  3 11  1  6  0  0  0
  3  7  1  0  0  0  0
  4  2  1  0  0  0  0
  6  8  1  6  0  0  0
  6  3  1  0  0  0  0
  7  2  1  0  0  0  0
  8  4  2  0  0  0  0
  9  1  1  1  0  0  0
  9  6  1  0  0  0  0
 10  9  1  0  0  0  0
 10 11  1  0  0  0  0
 12 13  1  6  0  0  0
 12  1  1  0  0  0  0
 12 14  1  0  0  0  0
 14 20  1  0  0  0  0
 15 21  1  0  0  0  0
 16 15  1  0  0  0  0
 16 17  1  0  0  0  0
 18 20  2  0  0  0  0
 18 22  1  0  0  0  0
 19 15  2  0  0  0  0
 20 19  1  0  0  0  0
 22 16  2  0  0  0  0
 23 24  1  0  0  0  0
 23  1  1  0  0  0  0
 25 26  1  6  0  0  0
 25 27  1  0  0  0  0
 25 24  1  0  0  0  0
 27 28  1  0  0  0  0
 28 30  1  0  0  0  0
 29 28  2  0  0  0  0
 31 30  1  1  0  0  0
 31 33  1  0  0  0  0
 31 35  1  0  0  0  0
 33 34  1  0  0  0  0
 34 36  1  0  0  0  0
 35 32  1  0  0  0  0
 35 37  1  1  0  0  0
 36 32  1  0  0  0  0
 37 38  1  0  0  0  0
 38 43  1  0  0  0  0
 39 41  1  0  0  0  0
 40 39  2  0  0  0  0
 42 40  1  0  0  0  0
 42 38  2  0  0  0  0
 43 41  2  0  0  0  0
M  END
>  <MODEL>
7

>  <REMARK>
 VINA RESULT:      -7.0      1.666      2.427
  Name = 
  13 active torsions:
  status: ('A' for Active; 'I' for Inactive)
    1  A    between atoms: C_1  and  C_34
    2  A    between atoms: C_1  and  C_35
    3  A    between atoms: C_2  and  O_6
    4  A    between atoms: C_2  and  C_13
    5  A    between atoms: S_3  and  C_4
    6  A    between atoms: S_3  and  C_12
    7  A    between atoms: O_6  and  C_12
    8  A    between atoms: N_8  and  C_27
    9  A    between atoms: N_8  and  C_30
   10  A    between atoms: N_8  and  C_34
   11  A    between atoms: C_11  and  C_14
   12  A    between atoms: C_13  and  C_27
   13  A    between atoms: C_14  and  C_41
                            x       y       z     vdW  Elec       q    Type
                         _______ _______ _______ _____ _____    ______ ____

>  <TORSDO>
F 13

$$$$
=
 OpenBabel11052421233D

 43 47  0  0  1  0  0  0  0  0999 V2000
  193.2890  174.6200  142.8780 N   0  0  0  0  0  0  0  0  0  0  0  0
  195.9360  170.1160  141.9280 C   0  0  0  0  0  0  0  0  0  0  0  0
  196.1830  172.5660  141.6840 C   0  0  2  0  0  3  0  0  0  0  0  0
  194.4800  170.3230  141.7560 C   0  0  0  0  0  3  0  0  0  0  0  0
  196.4120  168.9530  141.8660 O   0  0  0  0  0  0  0  0  0  0  0  0
  194.8160  172.6920  142.3110 C   0  0  2  0  0  3  0  0  0  0  0  0
  196.8510  171.2890  142.1880 C   0  0  0  0  0  2  0  0  0  0  0  0
  193.9450  171.5440  141.8920 C   0  0  0  0  0  3  0  0  0  0  0  0
  194.2940  174.0740  141.9420 C   0  0  2  0  0  3  0  0  0  0  0  0
  195.7370  175.1960  141.8240 S   0  0  0  0  0  0  0  0  0  0  0  0
  196.9220  173.8260  142.0480 C   0  0  0  0  0  2  0  0  0  0  0  0
  193.9220  175.3910  143.9580 C   0  0  1  0  0  3  0  0  0  0  0  0
  193.3830  176.6800  144.0210 O   0  0  0  0  0  1  0  0  0  0  0  0
  193.6860  174.7140  145.3030 C   0  0  0  0  0  2  0  0  0  0  0  0
  195.1140  171.2320  145.7260 C   0  0  0  0  0  0  0  0  0  0  0  0
  196.4860  171.5070  145.8410 C   0  0  0  0  0  0  0  0  0  0  0  0
  197.3810  170.5030  146.0070 F   0  0  0  0  0  0  0  0  0  0  0  0
  196.0250  173.8760  145.6180 C   0  0  0  0  0  3  0  0  0  0  0  0
  194.2050  172.2810  145.5590 C   0  0  0  0  0  3  0  0  0  0  0  0
  194.6570  173.6030  145.5050 C   0  0  0  0  0  0  0  0  0  0  0  0
  194.6150  169.8300  145.7630 C   0  0  0  0  0  1  0  0  0  0  0  0
  196.9370  172.8300  145.7890 C   0  0  0  0  0  3  0  0  0  0  0  0
  192.2020  175.3420  142.1860 C   0  0  0  0  0  2  0  0  0  0  0  0
  190.9170  174.5210  142.0250 C   0  0  0  0  0  2  0  0  0  0  0  0
  190.0660  174.5510  143.2880 C   0  0  2  0  0  3  0  0  0  0  0  0
  190.0990  173.2030  143.9900 C   0  0  0  0  0  1  0  0  0  0  0  0
  188.7330  174.9400  142.9680 O   0  0  0  0  0  0  0  0  0  0  0  0
  188.4240  175.8970  141.9960 C   0  0  0  0  0  0  0  0  0  0  0  0
  187.9100  175.5240  140.9090 O   0  0  0  0  0  0  0  0  0  0  0  0
  188.7640  177.6420  142.2500 S   0  0  0  0  0  0  0  0  0  0  0  0
  187.2300  178.0510  143.1720 C   0  0  1  0  0  3  0  0  0  0  0  0
  186.1150  178.9150  145.2480 C   0  0  0  0  0  2  0  0  0  0  0  0
  185.9700  177.3680  142.6300 C   0  0  0  0  0  2  0  0  0  0  0  0
  184.7650  177.5600  143.5650 C   0  0  0  0  0  2  0  0  0  0  0  0
  187.3080  178.1070  144.7070 C   0  0  1  0  0  3  0  0  0  0  0  0
  184.8610  178.8690  144.3530 C   0  0  0  0  0  2  0  0  0  0  0  0
  187.2660  176.7090  145.3310 C   0  0  0  0  0  2  0  0  0  0  0  0
  188.5120  176.3630  146.0850 C   0  0  0  0  0  0  0  0  0  0  0  0
  190.8590  175.7040  147.4150 C   0  0  0  0  0  3  0  0  0  0  0  0
  189.6960  174.9490  147.5860 C   0  0  0  0  0  3  0  0  0  0  0  0
  190.8360  176.8010  146.5530 C   0  0  0  0  0  3  0  0  0  0  0  0
  188.5600  175.2840  146.9170 N   0  0  0  0  0  0  0  0  0  0  0  0
  189.6590  177.1320  145.8800 C   0  0  0  0  0  3  0  0  0  0  0  0
  1 12  1  0  0  0  0
  2  7  1  0  0  0  0
  3 11  1  1  0  0  0
  3  7  1  0  0  0  0
  3  6  1  0  0  0  0
  4  8  2  0  0  0  0
  4  2  1  0  0  0  0
  5  2  2  0  0  0  0
  6  8  1  6  0  0  0
  9  6  1  0  0  0  0
  9  1  1  1  0  0  0
 10  9  1  0  0  0  0
 10 11  1  0  0  0  0
 12 13  1  1  0  0  0
 12 14  1  0  0  0  0
 14 20  1  0  0  0  0
 15 21  1  0  0  0  0
 15 16  1  0  0  0  0
 16 17  1  0  0  0  0
 18 22  1  0  0  0  0
 19 15  2  0  0  0  0
 20 19  1  0  0  0  0
 20 18  2  0  0  0  0
 22 16  2  0  0  0  0
 23  1  1  0  0  0  0
 24 23  1  0  0  0  0
 24 25  1  0  0  0  0
 25 26  1  6  0  0  0
 27 25  1  0  0  0  0
 28 30  1  0  0  0  0
 28 27  1  0  0  0  0
 29 28  2  0  0  0  0
 31 30  1  1  0  0  0
 31 35  1  0  0  0  0
 33 31  1  0  0  0  0
 33 34  1  0  0  0  0
 34 36  1  0  0  0  0
 35 32  1  0  0  0  0
 35 37  1  1  0  0  0
 36 32  1  0  0  0  0
 37 38  1  0  0  0  0
 38 42  1  0  0  0  0
 39 40  1  0  0  0  0
 41 39  2  0  0  0  0
 42 40  2  0  0  0  0
 43 38  2  0  0  0  0
 43 41  1  0  0  0  0
M  END
>  <MODEL>
8

>  <REMARK>
 VINA RESULT:      -7.0      3.300      8.541
  Name = 
  13 active torsions:
  status: ('A' for Active; 'I' for Inactive)
    1  A    between atoms: C_1  and  C_34
    2  A    between atoms: C_1  and  C_35
    3  A    between atoms: C_2  and  O_6
    4  A    between atoms: C_2  and  C_13
    5  A    between atoms: S_3  and  C_4
    6  A    between atoms: S_3  and  C_12
    7  A    between atoms: O_6  and  C_12
    8  A    between atoms: N_8  and  C_27
    9  A    between atoms: N_8  and  C_30
   10  A    between atoms: N_8  and  C_34
   11  A    between atoms: C_11  and  C_14
   12  A    between atoms: C_13  and  C_27
   13  A    between atoms: C_14  and  C_41
                            x       y       z     vdW  Elec       q    Type
                         _______ _______ _______ _____ _____    ______ ____

>  <TORSDO>
F 13

$$$$
=
 OpenBabel11052421233D

 43 47  0  0  1  0  0  0  0  0999 V2000
  189.3210  176.4520  143.2000 N   0  0  0  0  0  0  0  0  0  0  0  0
  185.3470  178.1070  146.3090 C   0  0  0  0  0  0  0  0  0  0  0  0
  186.3020  178.4930  144.0590 C   0  0  2  0  0  3  0  0  0  0  0  0
  186.7220  177.7820  146.7530 C   0  0  0  0  0  3  0  0  0  0  0  0
  184.4430  178.2920  147.1640 O   0  0  0  0  0  0  0  0  0  0  0  0
  187.3330  177.4450  144.3980 C   0  0  2  0  0  3  0  0  0  0  0  0
  185.0200  178.2070  144.8380 C   0  0  0  0  0  2  0  0  0  0  0  0
  187.6800  177.5090  145.8570 C   0  0  0  0  0  3  0  0  0  0  0  0
  188.4990  177.6560  143.4410 C   0  0  2  0  0  3  0  0  0  0  0  0
  187.8120  178.2900  141.8650 S   0  0  0  0  0  0  0  0  0  0  0  0
  186.1330  178.4400  142.5640 C   0  0  0  0  0  2  0  0  0  0  0  0
  190.6470  176.5720  143.8250 C   0  0  1  0  0  3  0  0  0  0  0  0
  190.9380  177.9110  144.1030 O   0  0  0  0  0  1  0  0  0  0  0  0
  190.6870  175.7970  145.1370 C   0  0  0  0  0  2  0  0  0  0  0  0
  193.9140  173.8610  145.5630 C   0  0  0  0  0  0  0  0  0  0  0  0
  194.7460  174.8320  146.1410 C   0  0  0  0  0  0  0  0  0  0  0  0
  196.0310  174.5420  146.4590 F   0  0  0  0  0  0  0  0  0  0  0  0
  192.9220  176.4280  146.0740 C   0  0  0  0  0  3  0  0  0  0  0  0
  192.5900  174.1770  145.2460 C   0  0  0  0  0  3  0  0  0  0  0  0
  192.0910  175.4590  145.5010 C   0  0  0  0  0  0  0  0  0  0  0  0
  194.4310  172.4960  145.2680 C   0  0  0  0  0  1  0  0  0  0  0  0
  194.2460  176.1140  146.3970 C   0  0  0  0  0  3  0  0  0  0  0  0
  188.6100  175.2030  143.5390 C   0  0  0  0  0  2  0  0  0  0  0  0
  187.7640  174.6400  142.3900 C   0  0  0  0  0  2  0  0  0  0  0  0
  188.4340  173.4410  141.7310 C   0  0  2  0  0  3  0  0  0  0  0  0
  188.8520  172.4170  142.7750 C   0  0  0  0  0  1  0  0  0  0  0  0
  189.5450  173.8730  140.9500 O   0  0  0  0  0  0  0  0  0  0  0  0
  189.6810  173.5940  139.5860 C   0  0  0  0  0  0  0  0  0  0  0  0
  188.6810  173.7130  138.8320 O   0  0  0  0  0  0  0  0  0  0  0  0
  191.2430  173.0460  138.8880 S   0  0  0  0  0  0  0  0  0  0  0  0
  191.6720  171.8280  140.1920 C   0  0  1  0  0  3  0  0  0  0  0  0
  192.2650  171.3280  142.5790 C   0  0  0  0  0  2  0  0  0  0  0  0
  192.1740  170.4820  139.6560 C   0  0  0  0  0  2  0  0  0  0  0  0
  192.7300  169.5890  140.7760 C   0  0  0  0  0  2  0  0  0  0  0  0
  192.4310  172.3370  141.4300 C   0  0  1  0  0  3  0  0  0  0  0  0
  192.0500  169.8730  142.1190 C   0  0  0  0  0  2  0  0  0  0  0  0
  193.9260  172.5090  141.1500 C   0  0  0  0  0  2  0  0  0  0  0  0
  194.5060  173.7370  141.7780 C   0  0  0  0  0  0  0  0  0  0  0  0
  195.5750  176.0540  142.8740 C   0  0  0  0  0  3  0  0  0  0  0  0
  196.3430  174.8940  142.7500 C   0  0  0  0  0  3  0  0  0  0  0  0
  194.2520  176.0450  142.4290 C   0  0  0  0  0  3  0  0  0  0  0  0
  195.8020  173.7730  142.2020 N   0  0  0  0  0  0  0  0  0  0  0  0
  193.7140  174.8830  141.8740 C   0  0  0  0  0  3  0  0  0  0  0  0
  1 23  1  0  0  0  0
  1 12  1  0  0  0  0
  2  4  1  0  0  0  0
  2  5  2  0  0  0  0
  3 11  1  6  0  0  0
  3  6  1  0  0  0  0
  3  7  1  0  0  0  0
  6  8  1  1  0  0  0
  7  2  1  0  0  0  0
  8  4  2  0  0  0  0
  9  1  1  6  0  0  0
  9  6  1  0  0  0  0
 10 11  1  0  0  0  0
 10  9  1  0  0  0  0
 12 13  1  1  0  0  0
 12 14  1  0  0  0  0
 14 20  1  0  0  0  0
 15 16  1  0  0  0  0
 16 22  2  0  0  0  0
 16 17  1  0  0  0  0
 18 22  1  0  0  0  0
 19 20  1  0  0  0  0
 19 15  2  0  0  0  0
 20 18  2  0  0  0  0
 21 15  1  0  0  0  0
 24 23  1  0  0  0  0
 25 24  1  0  0  0  0
 25 26  1  1  0  0  0
 27 25  1  0  0  0  0
 28 27  1  0  0  0  0
 29 28  2  0  0  0  0
 30 28  1  0  0  0  0
 31 30  1  6  0  0  0
 31 35  1  0  0  0  0
 33 31  1  0  0  0  0
 33 34  1  0  0  0  0
 34 36  1  0  0  0  0
 35 37  1  6  0  0  0
 35 32  1  0  0  0  0
 36 32  1  0  0  0  0
 37 38  1  0  0  0  0
 38 43  2  0  0  0  0
 38 42  1  0  0  0  0
 40 39  1  0  0  0  0
 41 39  2  0  0  0  0
 42 40  2  0  0  0  0
 43 41  1  0  0  0  0
M  END
>  <MODEL>
9

>  <REMARK>
 VINA RESULT:      -6.9      2.932      5.517
  Name = 
  13 active torsions:
  status: ('A' for Active; 'I' for Inactive)
    1  A    between atoms: C_1  and  C_34
    2  A    between atoms: C_1  and  C_35
    3  A    between atoms: C_2  and  O_6
    4  A    between atoms: C_2  and  C_13
    5  A    between atoms: S_3  and  C_4
    6  A    between atoms: S_3  and  C_12
    7  A    between atoms: O_6  and  C_12
    8  A    between atoms: N_8  and  C_27
    9  A    between atoms: N_8  and  C_30
   10  A    between atoms: N_8  and  C_34
   11  A    between atoms: C_11  and  C_14
   12  A    between atoms: C_13  and  C_27
   13  A    between atoms: C_14  and  C_41
                            x       y       z     vdW  Elec       q    Type
                         _______ _______ _______ _____ _____    ______ ____

>  <TORSDO>
F 13

$$$$
