=
 OpenBabel11052419313D

 55 61  0  0  1  0  0  0  0  0999 V2000
  187.7310  177.1240  141.1220 C   0  0  0  0  0  3  0  0  0  0  0  0
  186.5820  177.1240  143.6720 C   0  0  0  0  0  0  0  0  0  0  0  0
  186.8790  175.9140  143.0380 C   0  0  0  0  0  3  0  0  0  0  0  0
  187.4290  178.3350  141.7520 C   0  0  0  0  0  3  0  0  0  0  0  0
  187.4550  175.9070  141.7640 C   0  0  0  0  0  0  0  0  0  0  0  0
  186.8520  178.3350  143.0270 C   0  0  0  0  0  3  0  0  0  0  0  0
  187.7530  174.6120  141.1420 C   0  0  0  0  0  3  0  0  0  0  0  0
  188.8570  174.3690  140.4410 C   0  0  0  0  0  3  0  0  0  0  0  0
  189.1130  173.0870  139.8470 N   0  0  0  0  0  0  0  0  0  0  0  0
  189.7190  171.7130  141.8340 C   0  0  0  0  0  2  0  0  0  0  0  0
  191.7980  170.3390  141.4680 N   0  0  0  0  0  0  0  0  0  0  0  0
  190.5560  171.1300  139.5010 C   0  0  0  0  0  2  0  0  0  0  0  0
  191.1170  169.9160  140.2370 C   0  0  0  0  0  2  0  0  0  0  0  0
  190.7590  170.7480  142.4300 C   0  0  0  0  0  2  0  0  0  0  0  0
  190.1420  172.2520  140.4610 C   0  0  0  0  0  3  0  0  0  0  0  0
  192.5270  169.1830  142.0230 C   0  0  0  0  0  3  0  0  0  0  0  0
  193.4210  169.6010  143.1830 C   0  0  0  0  0  1  0  0  0  0  0  0
  193.4280  168.5450  140.9730 C   0  0  0  0  0  1  0  0  0  0  0  0
  188.5320  172.7260  138.5490 C   0  0  0  0  0  2  0  0  0  0  0  0
  188.7870  173.8230  137.5200 C   0  0  0  0  0  2  0  0  0  0  0  0
  191.9710  172.7860  135.6340 C   0  0  0  0  0  2  0  0  0  0  0  0
  191.7320  171.3000  135.8330 C   0  0  0  0  0  2  0  0  0  0  0  0
  189.6450  173.3240  136.3670 C   0  0  2  0  0  3  0  0  0  0  0  0
  189.3230  171.8760  136.0950 C   0  0  0  0  0  3  0  0  0  0  0  0
  190.2650  170.9680  135.8060 C   0  0  0  0  0  3  0  0  0  0  0  0
  191.1340  173.5540  136.6480 C   0  0  2  0  0  3  0  0  0  0  0  0
  191.4390  174.9400  136.5800 O   0  0  0  0  0  0  0  0  0  0  0  0
  192.7490  175.4220  136.5620 C   0  0  0  0  0  0  0  0  0  0  0  0
  193.1240  176.1400  135.6000 O   0  0  0  0  0  0  0  0  0  0  0  0
  193.7050  175.1490  137.6790 C   0  0  0  0  0  2  0  0  0  0  0  0
  194.9690  174.4750  137.1690 C   0  0  0  0  0  2  0  0  0  0  0  0
  196.5300  175.1780  138.7790 C   0  0  0  0  0  2  0  0  0  0  0  0
  196.1240  175.2300  137.5660 N   0  0  0  0  0  0  0  0  0  0  0  0
  185.9650  177.1110  145.0260 C   0  0  0  0  0  2  0  0  0  0  0  0
  186.9850  177.5140  146.0770 C   0  0  0  0  0  2  0  0  0  0  0  0
  187.2130  176.3650  147.0460 C   0  0  0  0  0  2  0  0  0  0  0  0
  188.6320  176.0570  147.1350 N   0  0  0  0  0  2  0  0  0  0  0  0
  188.9360  175.0750  146.1090 C   0  0  0  0  0  2  0  0  0  0  0  0
  193.6560  176.2870  146.0550 C   0  0  0  0  0  0  0  0  0  0  0  0
  190.2430  177.9290  144.3800 C   0  0  0  0  0  1  0  0  0  0  0  0
  191.3510  176.9060  144.5380 C   0  0  2  0  0  0  0  0  0  0  0  0
  190.4500  174.9230  145.9700 C   0  0  2  0  0  3  0  0  0  0  0  0
  191.2350  175.9150  143.3620 C   0  0  2  0  0  3  0  0  0  0  0  0
  191.1940  176.2610  145.9600 C   0  0  1  0  0  3  0  0  0  0  0  0
  194.7270  176.0740  146.6780 O   0  0  0  0  0  0  0  0  0  0  0  0
  193.5750  175.4740  143.8480 O   0  0  0  0  0  0  0  0  0  0  0  0
  190.4010  174.6780  143.6990 C   0  0  0  0  0  2  0  0  0  0  0  0
  192.6350  175.6170  142.8060 C   0  0  1  0  0  3  0  0  0  0  0  0
  192.4250  176.1300  146.6810 O   0  0  0  0  0  0  0  0  0  0  0  0
  192.5900  177.5880  144.4220 O   0  0  0  0  0  0  0  0  0  0  0  0
  190.8320  174.0880  144.8990 O   0  0  0  0  0  0  0  0  0  0  0  0
  193.6610  176.6680  144.6220 C   0  0  1  0  0  3  0  0  0  0  0  0
  193.4900  173.3430  142.1960 C   0  0  0  0  0  2  0  0  0  0  0  0
  192.6540  174.4690  141.7830 C   0  0  2  0  0  3  0  0  0  0  0  0
  194.0050  174.3170  141.2200 N   0  0  0  0  0  2  0  0  0  0  0  0
  1  4  2  0  0  0  0
  1  5  1  0  0  0  0
  2 34  1  0  0  0  0
  3  2  1  0  0  0  0
  4  6  1  0  0  0  0
  5  3  2  0  0  0  0
  6  2  2  0  0  0  0
  7  5  1  0  0  0  0
  8  7  2  0  0  0  0
  9  8  1  0  0  0  0
  9 15  1  0  0  0  0
 10 14  1  0  0  0  0
 11 16  1  0  0  0  0
 11 14  1  0  0  0  0
 12 13  1  0  0  0  0
 12 15  1  0  0  0  0
 13 11  1  0  0  0  0
 15 10  1  0  0  0  0
 16 17  1  0  0  0  0
 18 16  1  0  0  0  0
 19  9  1  0  0  0  0
 20 19  1  0  0  0  0
 21 22  1  0  0  0  0
 21 26  1  0  0  0  0
 23 26  1  0  0  0  0
 23 20  1  1  0  0  0
 24 23  1  0  0  0  0
 25 22  1  0  0  0  0
 25 24  2  0  0  0  0
 26 27  1  6  0  0  0
 28 27  1  0  0  0  0
 28 30  1  0  0  0  0
 29 28  2  0  0  0  0
 31 33  1  0  0  0  0
 31 30  1  0  0  0  0
 33 32  2  0  0  0  0
 34 35  1  0  0  0  0
 35 36  1  0  0  0  0
 36 37  1  0  0  0  0
 38 37  1  0  0  0  0
 39 45  2  0  0  0  0
 39 49  1  0  0  0  0
 41 40  1  6  0  0  0
 41 44  1  0  0  0  0
 42 38  1  6  0  0  0
 43 47  1  1  0  0  0
 43 41  1  0  0  0  0
 44 42  1  0  0  0  0
 44 49  1  6  0  0  0
 47 51  1  0  0  0  0
 48 43  1  0  0  0  0
 48 46  1  1  0  0  0
 50 41  1  0  0  0  0
 50 52  1  0  0  0  0
 51 42  1  0  0  0  0
 52 46  1  6  0  0  0
 52 39  1  0  0  0  0
 54 53  1  1  0  0  0
 54 48  1  0  0  0  0
 55 54  1  0  0  0  0
 55 53  1  0  0  0  0
M  END
>  <MODEL>
1

>  <REMARK>
 VINA RESULT:      -6.1      0.000      0.000
  Name = 
  19 active torsions:
  status: ('A' for Active; 'I' for Inactive)
    1  A    between atoms: C_2  and  C_44
    2  A    between atoms: C_4  and  N_37
    3  A    between atoms: C_4  and  C_40
    4  A    between atoms: C_5  and  C_40
    5  A    between atoms: C_5  and  O_45
    6  A    between atoms: C_7  and  C_22
    7  A    between atoms: N_8  and  C_22
    8  A    between atoms: N_8  and  C_43
    9  A    between atoms: C_10  and  N_32
   10  A    between atoms: C_12  and  C_38
   11  A    between atoms: C_16  and  C_36
   12  A    between atoms: C_26  and  O_45
   13  A    between atoms: C_27  and  C_54
   14  A    between atoms: C_28  and  N_49
   15  A    between atoms: C_33  and  C_36
   16  A    between atoms: C_33  and  N_49
   17  A    between atoms: C_43  and  C_51
   18  A    between atoms: N_49  and  C_52
   19  A    between atoms: C_51  and  C_54
                            x       y       z     vdW  Elec       q    Type
                         _______ _______ _______ _____ _____    ______ ____

>  <TORSDO>
F 19

$$$$
=
 OpenBabel11052419313D

 55 61  0  0  1  0  0  0  0  0999 V2000
  189.9550  174.9180  146.9810 C   0  0  0  0  0  3  0  0  0  0  0  0
  192.6910  175.0780  146.4230 C   0  0  0  0  0  0  0  0  0  0  0  0
  191.7890  174.7400  145.4100 C   0  0  0  0  0  3  0  0  0  0  0  0
  190.8570  175.2510  147.9960 C   0  0  0  0  0  3  0  0  0  0  0  0
  190.4190  174.6590  145.6820 C   0  0  0  0  0  0  0  0  0  0  0  0
  192.2260  175.3290  147.7170 C   0  0  0  0  0  3  0  0  0  0  0  0
  189.5110  174.3050  144.5860 C   0  0  0  0  0  3  0  0  0  0  0  0
  189.8490  174.3690  143.3010 C   0  0  0  0  0  3  0  0  0  0  0  0
  188.9320  174.0140  142.2550 N   0  0  0  0  0  0  0  0  0  0  0  0
  188.3940  172.9460  140.0700 C   0  0  0  0  0  2  0  0  0  0  0  0
  190.4170  171.9410  138.9550 N   0  0  0  0  0  0  0  0  0  0  0  0
  190.7600  173.6900  140.6470 C   0  0  0  0  0  2  0  0  0  0  0  0
  191.0190  173.2570  139.2060 C   0  0  0  0  0  2  0  0  0  0  0  0
  188.9560  172.1270  138.8950 C   0  0  0  0  0  2  0  0  0  0  0  0
  189.4280  173.1530  141.1850 C   0  0  0  0  0  3  0  0  0  0  0  0
  190.8860  171.4510  137.6450 C   0  0  0  0  0  3  0  0  0  0  0  0
  191.1810  172.6060  136.6990 C   0  0  0  0  0  1  0  0  0  0  0  0
  189.8310  170.5820  136.9730 C   0  0  0  0  0  1  0  0  0  0  0  0
  187.6230  174.6680  142.1420 C   0  0  0  0  0  2  0  0  0  0  0  0
  187.7370  175.9680  141.3510 C   0  0  0  0  0  2  0  0  0  0  0  0
  188.0150  177.9510  144.6300 C   0  0  0  0  0  2  0  0  0  0  0  0
  189.5300  177.8640  144.6770 C   0  0  0  0  0  2  0  0  0  0  0  0
  187.9800  177.1620  142.2610 C   0  0  2  0  0  3  0  0  0  0  0  0
  189.4390  177.5390  142.2100 C   0  0  0  0  0  3  0  0  0  0  0  0
  190.1300  177.9040  143.2980 C   0  0  0  0  0  3  0  0  0  0  0  0
  187.4940  176.8760  143.6870 C   0  0  2  0  0  3  0  0  0  0  0  0
  186.0740  176.8410  143.7250 O   0  0  0  0  0  0  0  0  0  0  0  0
  185.3010  177.9710  143.9960 C   0  0  0  0  0  0  0  0  0  0  0  0
  185.2480  178.8960  143.1450 O   0  0  0  0  0  0  0  0  0  0  0  0
  184.4940  178.0920  145.2500 C   0  0  0  0  0  2  0  0  0  0  0  0
  184.9640  177.1010  146.3030 C   0  0  0  0  0  2  0  0  0  0  0  0
  185.7040  179.0720  147.3480 C   0  0  0  0  0  2  0  0  0  0  0  0
  185.6080  177.7960  147.3820 N   0  0  0  0  0  0  0  0  0  0  0  0
  194.1450  175.1550  146.1150 C   0  0  0  0  0  2  0  0  0  0  0  0
  194.5290  176.5690  145.7160 C   0  0  0  0  0  2  0  0  0  0  0  0
  195.3170  176.5460  144.4160 C   0  0  0  0  0  2  0  0  0  0  0  0
  196.1560  175.3600  144.3580 N   0  0  0  0  0  2  0  0  0  0  0  0
  196.2190  174.9310  142.9730 C   0  0  0  0  0  2  0  0  0  0  0  0
  192.7860  171.4730  143.0700 C   0  0  0  0  0  0  0  0  0  0  0  0
  196.9260  171.4170  142.9440 C   0  0  0  0  0  1  0  0  0  0  0  0
  195.5280  171.6370  142.3980 C   0  0  2  0  0  0  0  0  0  0  0  0
  194.9440  174.1700  142.6080 C   0  0  2  0  0  3  0  0  0  0  0  0
  195.6650  171.9460  140.8930 C   0  0  2  0  0  3  0  0  0  0  0  0
  194.8670  172.7800  143.2470 C   0  0  1  0  0  3  0  0  0  0  0  0
  191.5730  171.3080  143.3550 O   0  0  0  0  0  0  0  0  0  0  0  0
  193.3510  171.2080  140.8010 O   0  0  0  0  0  0  0  0  0  0  0  0
  195.7360  173.4440  140.5910 C   0  0  0  0  0  2  0  0  0  0  0  0
  194.5840  171.1830  140.1150 C   0  0  1  0  0  3  0  0  0  0  0  0
  193.5170  172.5090  143.6400 O   0  0  0  0  0  0  0  0  0  0  0  0
  194.8110  170.4210  142.5360 O   0  0  0  0  0  0  0  0  0  0  0  0
  194.6900  174.1390  141.2210 O   0  0  0  0  0  0  0  0  0  0  0  0
  193.4710  170.6020  142.0850 C   0  0  1  0  0  3  0  0  0  0  0  0
  194.4430  170.4590  137.7200 C   0  0  0  0  0  2  0  0  0  0  0  0
  194.4870  171.5970  138.6370 C   0  0  2  0  0  3  0  0  0  0  0  0
  195.7040  171.1930  137.9180 N   0  0  0  0  0  2  0  0  0  0  0  0
  1  4  1  0  0  0  0
  2  6  1  0  0  0  0
  3  5  1  0  0  0  0
  3  2  2  0  0  0  0
  5  1  2  0  0  0  0
  6  4  2  0  0  0  0
  7  5  1  0  0  0  0
  8  7  2  0  0  0  0
  9  8  1  0  0  0  0
 10 15  1  0  0  0  0
 11 13  1  0  0  0  0
 12 15  1  0  0  0  0
 13 12  1  0  0  0  0
 14 11  1  0  0  0  0
 14 10  1  0  0  0  0
 15  9  1  0  0  0  0
 16 11  1  0  0  0  0
 17 16  1  0  0  0  0
 18 16  1  0  0  0  0
 19  9  1  0  0  0  0
 20 19  1  0  0  0  0
 21 22  1  0  0  0  0
 23 20  1  6  0  0  0
 23 26  1  0  0  0  0
 24 23  1  0  0  0  0
 24 25  2  0  0  0  0
 25 22  1  0  0  0  0
 26 27  1  6  0  0  0
 26 21  1  0  0  0  0
 27 28  1  0  0  0  0
 28 30  1  0  0  0  0
 29 28  2  0  0  0  0
 30 31  1  0  0  0  0
 31 33  1  0  0  0  0
 32 33  2  0  0  0  0
 34  2  1  0  0  0  0
 35 34  1  0  0  0  0
 36 35  1  0  0  0  0
 37 36  1  0  0  0  0
 38 37  1  0  0  0  0
 39 45  2  0  0  0  0
 39 49  1  0  0  0  0
 41 50  1  0  0  0  0
 41 40  1  1  0  0  0
 41 44  1  0  0  0  0
 42 38  1  6  0  0  0
 42 44  1  0  0  0  0
 43 47  1  1  0  0  0
 43 41  1  0  0  0  0
 44 49  1  6  0  0  0
 47 51  1  0  0  0  0
 48 46  1  1  0  0  0
 48 43  1  0  0  0  0
 51 42  1  0  0  0  0
 52 46  1  6  0  0  0
 52 50  1  0  0  0  0
 52 39  1  0  0  0  0
 53 55  1  0  0  0  0
 54 53  1  6  0  0  0
 54 48  1  0  0  0  0
 55 54  1  0  0  0  0
M  END
>  <MODEL>
2

>  <REMARK>
 VINA RESULT:      -5.9      2.658      7.542
  Name = 
  19 active torsions:
  status: ('A' for Active; 'I' for Inactive)
    1  A    between atoms: C_2  and  C_44
    2  A    between atoms: C_4  and  N_37
    3  A    between atoms: C_4  and  C_40
    4  A    between atoms: C_5  and  C_40
    5  A    between atoms: C_5  and  O_45
    6  A    between atoms: C_7  and  C_22
    7  A    between atoms: N_8  and  C_22
    8  A    between atoms: N_8  and  C_43
    9  A    between atoms: C_10  and  N_32
   10  A    between atoms: C_12  and  C_38
   11  A    between atoms: C_16  and  C_36
   12  A    between atoms: C_26  and  O_45
   13  A    between atoms: C_27  and  C_54
   14  A    between atoms: C_28  and  N_49
   15  A    between atoms: C_33  and  C_36
   16  A    between atoms: C_33  and  N_49
   17  A    between atoms: C_43  and  C_51
   18  A    between atoms: N_49  and  C_52
   19  A    between atoms: C_51  and  C_54
                            x       y       z     vdW  Elec       q    Type
                         _______ _______ _______ _____ _____    ______ ____

>  <TORSDO>
F 19

$$$$
=
 OpenBabel11052419313D

 55 61  0  0  1  0  0  0  0  0999 V2000
  189.9870  175.8740  146.6700 C   0  0  0  0  0  3  0  0  0  0  0  0
  192.7420  176.3510  146.5960 C   0  0  0  0  0  0  0  0  0  0  0  0
  191.9920  176.3960  145.4170 C   0  0  0  0  0  3  0  0  0  0  0  0
  190.7380  175.8230  147.8490 C   0  0  0  0  0  3  0  0  0  0  0  0
  190.6140  176.1610  145.4470 C   0  0  0  0  0  0  0  0  0  0  0  0
  192.1160  176.0590  147.8110 C   0  0  0  0  0  3  0  0  0  0  0  0
  189.8690  176.2240  144.1850 C   0  0  0  0  0  3  0  0  0  0  0  0
  189.1790  175.2020  143.6850 C   0  0  0  0  0  3  0  0  0  0  0  0
  188.4620  175.3030  142.4460 N   0  0  0  0  0  0  0  0  0  0  0  0
  190.5100  174.2760  141.4690 C   0  0  0  0  0  2  0  0  0  0  0  0
  190.0360  172.9750  139.3640 N   0  0  0  0  0  0  0  0  0  0  0  0
  188.1840  173.3960  140.9240 C   0  0  0  0  0  2  0  0  0  0  0  0
  188.9910  172.3370  140.1760 C   0  0  0  0  0  2  0  0  0  0  0  0
  191.0740  173.4680  140.2860 C   0  0  0  0  0  2  0  0  0  0  0  0
  189.0270  174.6260  141.2820 C   0  0  0  0  0  3  0  0  0  0  0  0
  190.6330  171.9560  138.4800 C   0  0  0  0  0  3  0  0  0  0  0  0
  190.9870  172.5460  137.1220 C   0  0  0  0  0  1  0  0  0  0  0  0
  189.6620  170.8090  138.2290 C   0  0  0  0  0  1  0  0  0  0  0  0
  187.3360  176.2320  142.2970 C   0  0  0  0  0  2  0  0  0  0  0  0
  186.2980  176.0000  143.3910 C   0  0  0  0  0  2  0  0  0  0  0  0
  184.5950  178.9390  145.1900 C   0  0  0  0  0  2  0  0  0  0  0  0
  184.4430  178.1850  146.4990 C   0  0  0  0  0  2  0  0  0  0  0  0
  186.1650  177.2090  144.3050 C   0  0  2  0  0  3  0  0  0  0  0  0
  186.3470  176.7740  145.7380 C   0  0  0  0  0  3  0  0  0  0  0  0
  185.5980  177.2530  146.7400 C   0  0  0  0  0  3  0  0  0  0  0  0
  184.8330  177.9310  144.0740 C   0  0  2  0  0  3  0  0  0  0  0  0
  184.8440  178.5920  142.8160 O   0  0  0  0  0  0  0  0  0  0  0  0
  183.8550  178.3890  141.8510 C   0  0  0  0  0  0  0  0  0  0  0  0
  182.6530  178.3160  142.2120 O   0  0  0  0  0  0  0  0  0  0  0  0
  184.1820  178.3050  140.3940 C   0  0  0  0  0  2  0  0  0  0  0  0
  185.6150  177.8490  140.1770 C   0  0  0  0  0  2  0  0  0  0  0  0
  186.8490  176.6650  138.5640 C   0  0  0  0  0  2  0  0  0  0  0  0
  185.7050  177.0550  138.9840 N   0  0  0  0  0  0  0  0  0  0  0  0
  194.2080  176.6000  146.5420 C   0  0  0  0  0  2  0  0  0  0  0  0
  194.6480  176.8740  145.1150 C   0  0  0  0  0  2  0  0  0  0  0  0
  195.9220  176.1040  144.8070 C   0  0  0  0  0  2  0  0  0  0  0  0
  196.0280  175.8610  143.3770 N   0  0  0  0  0  2  0  0  0  0  0  0
  196.1850  174.4300  143.1830 C   0  0  0  0  0  2  0  0  0  0  0  0
  192.0530  172.1460  144.3930 C   0  0  0  0  0  0  0  0  0  0  0  0
  196.0580  171.4770  145.2090 C   0  0  0  0  0  1  0  0  0  0  0  0
  194.8130  171.5280  144.3460 C   0  0  2  0  0  0  0  0  0  0  0  0
  194.8120  173.7750  143.0240 C   0  0  2  0  0  3  0  0  0  0  0  0
  195.1690  170.8990  142.9830 C   0  0  2  0  0  3  0  0  0  0  0  0
  194.3510  173.0270  144.2770 C   0  0  1  0  0  3  0  0  0  0  0  0
  190.8120  172.3380  144.4530 O   0  0  0  0  0  0  0  0  0  0  0  0
  192.7690  170.5580  142.8100 O   0  0  0  0  0  0  0  0  0  0  0  0
  195.6150  171.9290  141.9440 C   0  0  0  0  0  2  0  0  0  0  0  0
  194.0250  169.9800  142.5310 C   0  0  1  0  0  3  0  0  0  0  0  0
  192.9410  173.2130  144.4540 O   0  0  0  0  0  0  0  0  0  0  0  0
  193.8230  170.7190  144.9620 O   0  0  0  0  0  0  0  0  0  0  0  0
  194.7000  172.9910  141.8570 O   0  0  0  0  0  0  0  0  0  0  0  0
  192.6140  170.7860  144.2090 C   0  0  1  0  0  3  0  0  0  0  0  0
  193.0400  169.8280  140.2320 C   0  0  0  0  0  2  0  0  0  0  0  0
  194.1780  169.4830  141.0840 C   0  0  2  0  0  3  0  0  0  0  0  0
  193.1530  168.4700  140.7870 N   0  0  0  0  0  2  0  0  0  0  0  0
  1  4  1  0  0  0  0
  2  6  1  0  0  0  0
  3  5  1  0  0  0  0
  3  2  2  0  0  0  0
  5  1  2  0  0  0  0
  6  4  2  0  0  0  0
  7  5  1  0  0  0  0
  8  7  2  0  0  0  0
  9  8  1  0  0  0  0
 11 13  1  0  0  0  0
 11 14  1  0  0  0  0
 12 15  1  0  0  0  0
 13 12  1  0  0  0  0
 14 10  1  0  0  0  0
 15 10  1  0  0  0  0
 15  9  1  0  0  0  0
 16 11  1  0  0  0  0
 17 16  1  0  0  0  0
 18 16  1  0  0  0  0
 19  9  1  0  0  0  0
 19 20  1  0  0  0  0
 21 22  1  0  0  0  0
 22 25  1  0  0  0  0
 23 20  1  6  0  0  0
 23 24  1  0  0  0  0
 24 25  2  0  0  0  0
 26 27  1  6  0  0  0
 26 23  1  0  0  0  0
 26 21  1  0  0  0  0
 28 29  2  0  0  0  0
 28 27  1  0  0  0  0
 30 28  1  0  0  0  0
 31 30  1  0  0  0  0
 32 33  2  0  0  0  0
 33 31  1  0  0  0  0
 34  2  1  0  0  0  0
 35 34  1  0  0  0  0
 36 35  1  0  0  0  0
 37 36  1  0  0  0  0
 38 37  1  0  0  0  0
 39 45  2  0  0  0  0
 39 49  1  0  0  0  0
 41 50  1  0  0  0  0
 41 40  1  1  0  0  0
 42 38  1  1  0  0  0
 42 44  1  0  0  0  0
 43 47  1  6  0  0  0
 43 41  1  0  0  0  0
 44 41  1  0  0  0  0
 44 49  1  6  0  0  0
 48 46  1  6  0  0  0
 48 43  1  0  0  0  0
 51 47  1  0  0  0  0
 51 42  1  0  0  0  0
 52 46  1  6  0  0  0
 52 39  1  0  0  0  0
 52 50  1  0  0  0  0
 53 55  1  0  0  0  0
 54 53  1  6  0  0  0
 54 48  1  0  0  0  0
 55 54  1  0  0  0  0
M  END
>  <MODEL>
3

>  <REMARK>
 VINA RESULT:      -5.9      2.801      7.560
  Name = 
  19 active torsions:
  status: ('A' for Active; 'I' for Inactive)
    1  A    between atoms: C_2  and  C_44
    2  A    between atoms: C_4  and  N_37
    3  A    between atoms: C_4  and  C_40
    4  A    between atoms: C_5  and  C_40
    5  A    between atoms: C_5  and  O_45
    6  A    between atoms: C_7  and  C_22
    7  A    between atoms: N_8  and  C_22
    8  A    between atoms: N_8  and  C_43
    9  A    between atoms: C_10  and  N_32
   10  A    between atoms: C_12  and  C_38
   11  A    between atoms: C_16  and  C_36
   12  A    between atoms: C_26  and  O_45
   13  A    between atoms: C_27  and  C_54
   14  A    between atoms: C_28  and  N_49
   15  A    between atoms: C_33  and  C_36
   16  A    between atoms: C_33  and  N_49
   17  A    between atoms: C_43  and  C_51
   18  A    between atoms: N_49  and  C_52
   19  A    between atoms: C_51  and  C_54
                            x       y       z     vdW  Elec       q    Type
                         _______ _______ _______ _____ _____    ______ ____

>  <TORSDO>
F 19

$$$$
=
 OpenBabel11052419313D

 55 61  0  0  1  0  0  0  0  0999 V2000
  189.6930  174.9220  146.8720 C   0  0  0  0  0  3  0  0  0  0  0  0
  192.4530  175.0250  146.4250 C   0  0  0  0  0  0  0  0  0  0  0  0
  191.5870  174.6740  145.3850 C   0  0  0  0  0  3  0  0  0  0  0  0
  190.5580  175.2680  147.9150 C   0  0  0  0  0  3  0  0  0  0  0  0
  190.2070  174.6220  145.6010 C   0  0  0  0  0  0  0  0  0  0  0  0
  191.9390  175.3170  147.6920 C   0  0  0  0  0  3  0  0  0  0  0  0
  189.3400  174.2530  144.4770 C   0  0  0  0  0  3  0  0  0  0  0  0
  189.7670  174.1450  143.2220 C   0  0  0  0  0  3  0  0  0  0  0  0
  188.8860  173.7810  142.1480 N   0  0  0  0  0  0  0  0  0  0  0  0
  188.6970  172.8000  139.8670 C   0  0  0  0  0  2  0  0  0  0  0  0
  190.3770  170.9710  139.4520 N   0  0  0  0  0  0  0  0  0  0  0  0
  190.8360  172.6020  141.2320 C   0  0  0  0  0  2  0  0  0  0  0  0
  191.3460  171.9590  139.9440 C   0  0  0  0  0  2  0  0  0  0  0  0
  189.2230  171.7120  138.9140 C   0  0  0  0  0  2  0  0  0  0  0  0
  189.3060  172.6920  141.2710 C   0  0  0  0  0  3  0  0  0  0  0  0
  191.0020  170.2070  138.3550 C   0  0  0  0  0  3  0  0  0  0  0  0
  190.7510  170.8710  137.0080 C   0  0  0  0  0  1  0  0  0  0  0  0
  190.4280  168.7980  138.2710 C   0  0  0  0  0  1  0  0  0  0  0  0
  187.7270  174.6130  141.8060 C   0  0  0  0  0  2  0  0  0  0  0  0
  188.1680  175.8840  141.0860 C   0  0  0  0  0  2  0  0  0  0  0  0
  187.4740  177.9210  144.2700 C   0  0  0  0  0  2  0  0  0  0  0  0
  188.9060  177.8310  144.7660 C   0  0  0  0  0  2  0  0  0  0  0  0
  188.1390  177.0920  142.0090 C   0  0  2  0  0  3  0  0  0  0  0  0
  189.5500  177.4660  142.3880 C   0  0  0  0  0  3  0  0  0  0  0  0
  189.8890  177.8470  143.6270 C   0  0  0  0  0  3  0  0  0  0  0  0
  187.2500  176.8310  143.2310 C   0  0  2  0  0  3  0  0  0  0  0  0
  185.8820  176.8000  142.8460 O   0  0  0  0  0  0  0  0  0  0  0  0
  185.1550  177.9560  142.5580 C   0  0  0  0  0  0  0  0  0  0  0  0
  185.4430  178.6190  141.5280 O   0  0  0  0  0  0  0  0  0  0  0  0
  184.0120  178.4030  143.4120 C   0  0  0  0  0  2  0  0  0  0  0  0
  184.4670  179.4070  144.4580 C   0  0  0  0  0  2  0  0  0  0  0  0
  184.4380  177.9780  146.3240 C   0  0  0  0  0  2  0  0  0  0  0  0
  183.9770  179.0270  145.7540 N   0  0  0  0  0  0  0  0  0  0  0  0
  193.9190  175.0710  146.1760 C   0  0  0  0  0  2  0  0  0  0  0  0
  194.4570  176.4680  146.4310 C   0  0  0  0  0  2  0  0  0  0  0  0
  194.9920  177.0620  145.1380 C   0  0  0  0  0  2  0  0  0  0  0  0
  195.8830  176.1180  144.4820 N   0  0  0  0  0  2  0  0  0  0  0  0
  196.4740  176.7900  143.3380 C   0  0  0  0  0  2  0  0  0  0  0  0
  195.6770  174.6550  139.0300 C   0  0  0  0  0  0  0  0  0  0  0  0
  193.2210  175.9020  142.1240 C   0  0  0  0  0  1  0  0  0  0  0  0
  194.2510  175.0200  141.4460 C   0  0  2  0  0  0  0  0  0  0  0  0
  196.6270  175.8040  142.1800 C   0  0  2  0  0  3  0  0  0  0  0  0
  194.5200  173.8220  142.3800 C   0  0  2  0  0  3  0  0  0  0  0  0
  195.5060  175.9120  141.1420 C   0  0  1  0  0  3  0  0  0  0  0  0
  196.2340  174.4540  137.9210 O   0  0  0  0  0  0  0  0  0  0  0  0
  195.2820  172.7410  140.3410 O   0  0  0  0  0  0  0  0  0  0  0  0
  195.7100  174.0460  143.3150 C   0  0  0  0  0  2  0  0  0  0  0  0
  194.5860  172.5320  141.5500 C   0  0  1  0  0  3  0  0  0  0  0  0
  196.0500  175.7290  139.8300 O   0  0  0  0  0  0  0  0  0  0  0  0
  193.6770  174.5250  140.2460 O   0  0  0  0  0  0  0  0  0  0  0  0
  196.8420  174.4750  142.6020 O   0  0  0  0  0  0  0  0  0  0  0  0
  194.6370  173.7340  139.5480 C   0  0  1  0  0  3  0  0  0  0  0  0
  195.3660  170.1520  141.5150 C   0  0  0  0  0  2  0  0  0  0  0  0
  195.0740  171.3150  142.3520 C   0  0  2  0  0  3  0  0  0  0  0  0
  194.0960  170.2210  142.2560 N   0  0  0  0  0  2  0  0  0  0  0  0
  1  4  1  0  0  0  0
  2  6  1  0  0  0  0
  3  5  1  0  0  0  0
  3  2  2  0  0  0  0
  5  1  2  0  0  0  0
  6  4  2  0  0  0  0
  7  5  1  0  0  0  0
  8  7  2  0  0  0  0
  9  8  1  0  0  0  0
 10 15  1  0  0  0  0
 11 13  1  0  0  0  0
 12 15  1  0  0  0  0
 13 12  1  0  0  0  0
 14 11  1  0  0  0  0
 14 10  1  0  0  0  0
 15  9  1  0  0  0  0
 16 11  1  0  0  0  0
 17 16  1  0  0  0  0
 18 16  1  0  0  0  0
 19  9  1  0  0  0  0
 20 19  1  0  0  0  0
 21 22  1  0  0  0  0
 23 20  1  6  0  0  0
 23 24  1  0  0  0  0
 23 26  1  0  0  0  0
 24 25  2  0  0  0  0
 25 22  1  0  0  0  0
 26 27  1  6  0  0  0
 26 21  1  0  0  0  0
 28 27  1  0  0  0  0
 28 30  1  0  0  0  0
 29 28  2  0  0  0  0
 30 31  1  0  0  0  0
 31 33  1  0  0  0  0
 33 32  2  0  0  0  0
 34  2  1  0  0  0  0
 34 35  1  0  0  0  0
 36 35  1  0  0  0  0
 37 36  1  0  0  0  0
 38 37  1  0  0  0  0
 39 49  1  0  0  0  0
 41 40  1  1  0  0  0
 41 43  1  0  0  0  0
 42 51  1  0  0  0  0
 42 38  1  1  0  0  0
 43 47  1  6  0  0  0
 44 49  1  6  0  0  0
 44 41  1  0  0  0  0
 44 42  1  0  0  0  0
 45 39  2  0  0  0  0
 48 46  1  6  0  0  0
 48 54  1  0  0  0  0
 48 43  1  0  0  0  0
 50 41  1  0  0  0  0
 51 47  1  0  0  0  0
 52 39  1  1  0  0  0
 52 50  1  0  0  0  0
 52 46  1  0  0  0  0
 53 55  1  0  0  0  0
 54 53  1  6  0  0  0
 55 54  1  0  0  0  0
M  END
>  <MODEL>
4

>  <REMARK>
 VINA RESULT:      -5.9      2.787      7.272
  Name = 
  19 active torsions:
  status: ('A' for Active; 'I' for Inactive)
    1  A    between atoms: C_2  and  C_44
    2  A    between atoms: C_4  and  N_37
    3  A    between atoms: C_4  and  C_40
    4  A    between atoms: C_5  and  C_40
    5  A    between atoms: C_5  and  O_45
    6  A    between atoms: C_7  and  C_22
    7  A    between atoms: N_8  and  C_22
    8  A    between atoms: N_8  and  C_43
    9  A    between atoms: C_10  and  N_32
   10  A    between atoms: C_12  and  C_38
   11  A    between atoms: C_16  and  C_36
   12  A    between atoms: C_26  and  O_45
   13  A    between atoms: C_27  and  C_54
   14  A    between atoms: C_28  and  N_49
   15  A    between atoms: C_33  and  C_36
   16  A    between atoms: C_33  and  N_49
   17  A    between atoms: C_43  and  C_51
   18  A    between atoms: N_49  and  C_52
   19  A    between atoms: C_51  and  C_54
                            x       y       z     vdW  Elec       q    Type
                         _______ _______ _______ _____ _____    ______ ____

>  <TORSDO>
F 19

$$$$
=
 OpenBabel11052419313D

 55 61  0  0  1  0  0  0  0  0999 V2000
  192.5740  176.3060  145.9180 C   0  0  0  0  0  3  0  0  0  0  0  0
  194.5380  174.3350  145.6330 C   0  0  0  0  0  0  0  0  0  0  0  0
  193.2660  174.1390  145.0880 C   0  0  0  0  0  3  0  0  0  0  0  0
  193.8440  176.5000  146.4690 C   0  0  0  0  0  3  0  0  0  0  0  0
  192.2790  175.1210  145.2250 C   0  0  0  0  0  0  0  0  0  0  0  0
  194.8260  175.5130  146.3280 C   0  0  0  0  0  3  0  0  0  0  0  0
  190.9620  174.8720  144.6320 C   0  0  0  0  0  3  0  0  0  0  0  0
  190.6370  175.2150  143.3880 C   0  0  0  0  0  3  0  0  0  0  0  0
  189.3360  174.9540  142.8420 N   0  0  0  0  0  0  0  0  0  0  0  0
  188.4420  174.8980  140.5180 C   0  0  0  0  0  2  0  0  0  0  0  0
  189.4540  173.0560  139.1310 N   0  0  0  0  0  0  0  0  0  0  0  0
  190.6770  173.8340  141.1150 C   0  0  0  0  0  2  0  0  0  0  0  0
  190.7300  173.6070  139.6060 C   0  0  0  0  0  2  0  0  0  0  0  0
  188.4580  174.1410  139.1790 C   0  0  0  0  0  2  0  0  0  0  0  0
  189.2650  174.1880  141.6010 C   0  0  0  0  0  3  0  0  0  0  0  0
  189.6200  172.6280  137.7290 C   0  0  0  0  0  3  0  0  0  0  0  0
  191.0880  172.6260  137.3240 C   0  0  0  0  0  1  0  0  0  0  0  0
  188.8970  173.5710  136.7760 C   0  0  0  0  0  1  0  0  0  0  0  0
  188.1430  175.6180  143.3800 C   0  0  0  0  0  2  0  0  0  0  0  0
  188.3820  177.1180  143.5280 C   0  0  0  0  0  2  0  0  0  0  0  0
  185.3660  177.9200  145.7700 C   0  0  0  0  0  2  0  0  0  0  0  0
  185.6900  176.8300  146.7760 C   0  0  0  0  0  2  0  0  0  0  0  0
  187.6150  177.6960  144.7070 C   0  0  2  0  0  3  0  0  0  0  0  0
  188.0410  176.9950  145.9720 C   0  0  0  0  0  3  0  0  0  0  0  0
  187.1750  176.6440  146.9320 C   0  0  0  0  0  3  0  0  0  0  0  0
  186.1020  177.6200  144.4720 C   0  0  2  0  0  3  0  0  0  0  0  0
  185.7130  178.5450  143.4660 O   0  0  0  0  0  0  0  0  0  0  0  0
  184.9730  178.1690  142.3440 C   0  0  0  0  0  0  0  0  0  0  0  0
  185.5610  177.6210  141.3780 O   0  0  0  0  0  0  0  0  0  0  0  0
  183.4900  178.3550  142.2810 C   0  0  0  0  0  2  0  0  0  0  0  0
  182.9840  178.2530  140.8510 C   0  0  0  0  0  2  0  0  0  0  0  0
  180.7240  178.8060  140.5200 C   0  0  0  0  0  2  0  0  0  0  0  0
  181.5870  177.9190  140.8450 N   0  0  0  0  0  0  0  0  0  0  0  0
  195.5730  173.2770  145.4800 C   0  0  0  0  0  2  0  0  0  0  0  0
  196.8780  173.7140  146.1220 C   0  0  0  0  0  2  0  0  0  0  0  0
  197.8910  174.0760  145.0470 C   0  0  0  0  0  2  0  0  0  0  0  0
  197.4340  173.6040  143.7490 N   0  0  0  0  0  2  0  0  0  0  0  0
  197.1450  174.7700  142.9330 C   0  0  0  0  0  2  0  0  0  0  0  0
  196.0490  175.0200  138.1910 C   0  0  0  0  0  0  0  0  0  0  0  0
  193.8990  175.6270  141.6780 C   0  0  0  0  0  1  0  0  0  0  0  0
  194.6270  174.8130  140.6270 C   0  0  2  0  0  0  0  0  0  0  0  0
  197.0560  174.3650  141.4620 C   0  0  2  0  0  3  0  0  0  0  0  0
  194.3980  173.3230  140.9570 C   0  0  2  0  0  3  0  0  0  0  0  0
  196.1300  175.2660  140.6410 C   0  0  1  0  0  3  0  0  0  0  0  0
  196.5990  175.1200  137.0650 O   0  0  0  0  0  0  0  0  0  0  0  0
  194.9250  172.9950  138.6070 O   0  0  0  0  0  0  0  0  0  0  0  0
  195.5100  172.7210  141.8180 C   0  0  0  0  0  2  0  0  0  0  0  0
  194.0980  172.5550  139.6620 C   0  0  1  0  0  3  0  0  0  0  0  0
  196.6910  175.4700  139.3390 O   0  0  0  0  0  0  0  0  0  0  0  0
  194.0260  175.0860  139.3720 O   0  0  0  0  0  0  0  0  0  0  0  0
  196.7770  172.9950  141.2760 O   0  0  0  0  0  0  0  0  0  0  0  0
  194.7200  174.3810  138.3450 C   0  0  1  0  0  3  0  0  0  0  0  0
  194.7530  170.3080  138.7680 C   0  0  0  0  0  2  0  0  0  0  0  0
  194.0800  171.0280  139.8480 C   0  0  2  0  0  3  0  0  0  0  0  0
  193.2840  170.3990  138.7830 N   0  0  0  0  0  2  0  0  0  0  0  0
  1  4  1  0  0  0  0
  2  6  1  0  0  0  0
  3  5  1  0  0  0  0
  3  2  2  0  0  0  0
  5  1  2  0  0  0  0
  6  4  2  0  0  0  0
  7  5  1  0  0  0  0
  8  7  2  0  0  0  0
  9 19  1  0  0  0  0
  9  8  1  0  0  0  0
 10 15  1  0  0  0  0
 11 14  1  0  0  0  0
 11 13  1  0  0  0  0
 12 15  1  0  0  0  0
 13 12  1  0  0  0  0
 14 10  1  0  0  0  0
 15  9  1  0  0  0  0
 16 11  1  0  0  0  0
 17 16  1  0  0  0  0
 18 16  1  0  0  0  0
 19 20  1  0  0  0  0
 21 22  1  0  0  0  0
 22 25  1  0  0  0  0
 23 20  1  6  0  0  0
 23 24  1  0  0  0  0
 24 25  2  0  0  0  0
 26 27  1  6  0  0  0
 26 23  1  0  0  0  0
 26 21  1  0  0  0  0
 28 27  1  0  0  0  0
 29 28  2  0  0  0  0
 30 28  1  0  0  0  0
 31 30  1  0  0  0  0
 32 33  2  0  0  0  0
 33 31  1  0  0  0  0
 34  2  1  0  0  0  0
 34 35  1  0  0  0  0
 36 35  1  0  0  0  0
 37 36  1  0  0  0  0
 38 37  1  0  0  0  0
 39 49  1  0  0  0  0
 41 44  1  0  0  0  0
 41 43  1  0  0  0  0
 41 40  1  1  0  0  0
 42 38  1  1  0  0  0
 43 47  1  6  0  0  0
 44 49  1  6  0  0  0
 44 42  1  0  0  0  0
 45 39  2  0  0  0  0
 48 46  1  6  0  0  0
 48 54  1  0  0  0  0
 48 43  1  0  0  0  0
 50 41  1  0  0  0  0
 51 42  1  0  0  0  0
 51 47  1  0  0  0  0
 52 39  1  1  0  0  0
 52 46  1  0  0  0  0
 52 50  1  0  0  0  0
 53 55  1  0  0  0  0
 54 53  1  6  0  0  0
 55 54  1  0  0  0  0
M  END
>  <MODEL>
5

>  <REMARK>
 VINA RESULT:      -5.9      3.226      8.411
  Name = 
  19 active torsions:
  status: ('A' for Active; 'I' for Inactive)
    1  A    between atoms: C_2  and  C_44
    2  A    between atoms: C_4  and  N_37
    3  A    between atoms: C_4  and  C_40
    4  A    between atoms: C_5  and  C_40
    5  A    between atoms: C_5  and  O_45
    6  A    between atoms: C_7  and  C_22
    7  A    between atoms: N_8  and  C_22
    8  A    between atoms: N_8  and  C_43
    9  A    between atoms: C_10  and  N_32
   10  A    between atoms: C_12  and  C_38
   11  A    between atoms: C_16  and  C_36
   12  A    between atoms: C_26  and  O_45
   13  A    between atoms: C_27  and  C_54
   14  A    between atoms: C_28  and  N_49
   15  A    between atoms: C_33  and  C_36
   16  A    between atoms: C_33  and  N_49
   17  A    between atoms: C_43  and  C_51
   18  A    between atoms: N_49  and  C_52
   19  A    between atoms: C_51  and  C_54
                            x       y       z     vdW  Elec       q    Type
                         _______ _______ _______ _____ _____    ______ ____

>  <TORSDO>
F 19

$$$$
=
 OpenBabel11052419313D

 55 61  0  0  1  0  0  0  0  0999 V2000
  184.6720  178.6550  146.3060 C   0  0  0  0  0  3  0  0  0  0  0  0
  186.8110  176.9370  146.8530 C   0  0  0  0  0  0  0  0  0  0  0  0
  186.5740  177.3660  145.5440 C   0  0  0  0  0  3  0  0  0  0  0  0
  184.9040  178.2220  147.6160 C   0  0  0  0  0  3  0  0  0  0  0  0
  185.5080  178.2260  145.2630 C   0  0  0  0  0  0  0  0  0  0  0  0
  185.9730  177.3610  147.8890 C   0  0  0  0  0  3  0  0  0  0  0  0
  185.3030  178.6520  143.8750 C   0  0  0  0  0  3  0  0  0  0  0  0
  184.6630  177.9200  142.9670 C   0  0  0  0  0  3  0  0  0  0  0  0
  184.4830  178.3710  141.6160 N   0  0  0  0  0  0  0  0  0  0  0  0
  182.6600  177.5320  140.1420 C   0  0  0  0  0  2  0  0  0  0  0  0
  180.4520  178.6590  140.5870 N   0  0  0  0  0  0  0  0  0  0  0  0
  182.1610  178.6930  142.3520 C   0  0  0  0  0  2  0  0  0  0  0  0
  180.7290  178.3090  141.9860 C   0  0  0  0  0  2  0  0  0  0  0  0
  181.1840  177.7040  139.7380 C   0  0  0  0  0  2  0  0  0  0  0  0
  183.1150  178.5910  141.1550 C   0  0  0  0  0  3  0  0  0  0  0  0
  179.0060  178.5000  140.3410 C   0  0  0  0  0  3  0  0  0  0  0  0
  178.2760  179.8300  140.4660 C   0  0  0  0  0  1  0  0  0  0  0  0
  178.3770  177.5490  141.3510 C   0  0  0  0  0  1  0  0  0  0  0  0
  185.6040  178.3920  140.6700 C   0  0  0  0  0  2  0  0  0  0  0  0
  186.3670  177.0720  140.7090 C   0  0  0  0  0  2  0  0  0  0  0  0
  189.2720  175.8430  142.9040 C   0  0  0  0  0  2  0  0  0  0  0  0
  190.1630  177.0260  142.5710 C   0  0  0  0  0  2  0  0  0  0  0  0
  187.2800  176.9860  141.9220 C   0  0  2  0  0  3  0  0  0  0  0  0
  188.0680  178.2660  142.0470 C   0  0  0  0  0  3  0  0  0  0  0  0
  189.3640  178.2870  142.3870 C   0  0  0  0  0  3  0  0  0  0  0  0
  188.1780  175.7450  141.8500 C   0  0  2  0  0  3  0  0  0  0  0  0
  187.4080  174.5680  142.0550 O   0  0  0  0  0  0  0  0  0  0  0  0
  187.8110  173.3160  141.5870 C   0  0  0  0  0  0  0  0  0  0  0  0
  187.2590  172.2840  142.0480 O   0  0  0  0  0  0  0  0  0  0  0  0
  188.8460  173.1700  140.5170 C   0  0  0  0  0  2  0  0  0  0  0  0
  188.2090  172.8240  139.1810 C   0  0  0  0  0  2  0  0  0  0  0  0
  189.8130  171.1540  138.7750 C   0  0  0  0  0  2  0  0  0  0  0  0
  189.1660  172.1670  138.3350 N   0  0  0  0  0  0  0  0  0  0  0  0
  187.9480  176.0180  147.1300 C   0  0  0  0  0  2  0  0  0  0  0  0
  189.2300  176.5630  146.5250 C   0  0  0  0  0  2  0  0  0  0  0  0
  190.4330  175.8800  147.1550 C   0  0  0  0  0  2  0  0  0  0  0  0
  191.6410  176.6460  146.8900 N   0  0  0  0  0  2  0  0  0  0  0  0
  192.7480  175.7100  146.8080 C   0  0  0  0  0  2  0  0  0  0  0  0
  193.3900  172.0450  143.6600 C   0  0  0  0  0  0  0  0  0  0  0  0
  195.9250  174.1970  146.1290 C   0  0  0  0  0  1  0  0  0  0  0  0
  195.0160  173.9760  144.9360 C   0  0  2  0  0  0  0  0  0  0  0  0
  192.6480  174.9010  145.5150 C   0  0  2  0  0  3  0  0  0  0  0  0
  195.1210  175.2250  144.0380 C   0  0  2  0  0  3  0  0  0  0  0  0
  193.5770  173.6840  145.4910 C   0  0  1  0  0  3  0  0  0  0  0  0
  192.7450  171.1500  143.0580 O   0  0  0  0  0  0  0  0  0  0  0  0
  194.3350  173.7180  142.3010 O   0  0  0  0  0  0  0  0  0  0  0  0
  194.0440  176.2700  144.3340 C   0  0  0  0  0  2  0  0  0  0  0  0
  195.2110  174.7910  142.5680 C   0  0  1  0  0  3  0  0  0  0  0  0
  192.9140  172.5880  144.8480 O   0  0  0  0  0  0  0  0  0  0  0  0
  195.5160  172.8640  144.2090 O   0  0  0  0  0  0  0  0  0  0  0  0
  192.7650  175.6900  144.3520 O   0  0  0  0  0  0  0  0  0  0  0  0
  194.6540  172.5870  143.1080 C   0  0  1  0  0  3  0  0  0  0  0  0
  196.0480  175.8840  140.4750 C   0  0  0  0  0  2  0  0  0  0  0  0
  195.0900  175.9600  141.5770 C   0  0  2  0  0  3  0  0  0  0  0  0
  196.3100  176.7810  141.6130 N   0  0  0  0  0  2  0  0  0  0  0  0
  1  4  1  0  0  0  0
  2 34  1  0  0  0  0
  2  6  1  0  0  0  0
  3  2  2  0  0  0  0
  4  6  2  0  0  0  0
  5  3  1  0  0  0  0
  5  1  2  0  0  0  0
  7  5  1  0  0  0  0
  8  7  2  0  0  0  0
  9  8  1  0  0  0  0
 10 15  1  0  0  0  0
 11 13  1  0  0  0  0
 13 12  1  0  0  0  0
 14 10  1  0  0  0  0
 14 11  1  0  0  0  0
 15  9  1  0  0  0  0
 15 12  1  0  0  0  0
 16 17  1  0  0  0  0
 16 11  1  0  0  0  0
 16 18  1  0  0  0  0
 19 20  1  0  0  0  0
 19  9  1  0  0  0  0
 22 21  1  0  0  0  0
 23 20  1  6  0  0  0
 23 24  1  0  0  0  0
 24 25  2  0  0  0  0
 25 22  1  0  0  0  0
 26 23  1  0  0  0  0
 26 27  1  1  0  0  0
 26 21  1  0  0  0  0
 28 29  2  0  0  0  0
 28 27  1  0  0  0  0
 30 28  1  0  0  0  0
 31 30  1  0  0  0  0
 33 32  2  0  0  0  0
 33 31  1  0  0  0  0
 35 34  1  0  0  0  0
 35 36  1  0  0  0  0
 37 36  1  0  0  0  0
 38 37  1  0  0  0  0
 39 49  1  0  0  0  0
 41 44  1  0  0  0  0
 41 40  1  1  0  0  0
 42 38  1  1  0  0  0
 43 47  1  6  0  0  0
 43 41  1  0  0  0  0
 44 49  1  6  0  0  0
 44 42  1  0  0  0  0
 45 39  2  0  0  0  0
 47 51  1  0  0  0  0
 48 46  1  6  0  0  0
 48 43  1  0  0  0  0
 50 41  1  0  0  0  0
 51 42  1  0  0  0  0
 52 46  1  1  0  0  0
 52 39  1  0  0  0  0
 52 50  1  0  0  0  0
 53 55  1  0  0  0  0
 54 53  1  6  0  0  0
 54 55  1  0  0  0  0
 54 48  1  0  0  0  0
M  END
>  <MODEL>
6

>  <REMARK>
 VINA RESULT:      -5.8      3.696      7.714
  Name = 
  19 active torsions:
  status: ('A' for Active; 'I' for Inactive)
    1  A    between atoms: C_2  and  C_44
    2  A    between atoms: C_4  and  N_37
    3  A    between atoms: C_4  and  C_40
    4  A    between atoms: C_5  and  C_40
    5  A    between atoms: C_5  and  O_45
    6  A    between atoms: C_7  and  C_22
    7  A    between atoms: N_8  and  C_22
    8  A    between atoms: N_8  and  C_43
    9  A    between atoms: C_10  and  N_32
   10  A    between atoms: C_12  and  C_38
   11  A    between atoms: C_16  and  C_36
   12  A    between atoms: C_26  and  O_45
   13  A    between atoms: C_27  and  C_54
   14  A    between atoms: C_28  and  N_49
   15  A    between atoms: C_33  and  C_36
   16  A    between atoms: C_33  and  N_49
   17  A    between atoms: C_43  and  C_51
   18  A    between atoms: N_49  and  C_52
   19  A    between atoms: C_51  and  C_54
                            x       y       z     vdW  Elec       q    Type
                         _______ _______ _______ _____ _____    ______ ____

>  <TORSDO>
F 19

$$$$
=
 OpenBabel11052419313D

 55 61  0  0  1  0  0  0  0  0999 V2000
  186.8190  177.9920  141.9390 C   0  0  0  0  0  3  0  0  0  0  0  0
  185.5320  177.2240  144.3010 C   0  0  0  0  0  0  0  0  0  0  0  0
  186.3720  176.3250  143.6370 C   0  0  0  0  0  3  0  0  0  0  0  0
  185.9750  178.8900  142.5990 C   0  0  0  0  0  3  0  0  0  0  0  0
  187.0200  176.7020  142.4570 C   0  0  0  0  0  0  0  0  0  0  0  0
  185.3290  178.5050  143.7790 C   0  0  0  0  0  3  0  0  0  0  0  0
  187.8950  175.7260  141.7990 C   0  0  0  0  0  3  0  0  0  0  0  0
  187.7790  174.4100  141.9580 C   0  0  0  0  0  3  0  0  0  0  0  0
  188.6550  173.4850  141.2960 N   0  0  0  0  0  0  0  0  0  0  0  0
  190.5890  173.3720  139.7310 C   0  0  0  0  0  2  0  0  0  0  0  0
  189.9940  174.1000  137.3950 N   0  0  0  0  0  0  0  0  0  0  0  0
  188.1870  173.3620  138.8880 C   0  0  0  0  0  2  0  0  0  0  0  0
  188.8840  173.1500  137.5460 C   0  0  0  0  0  2  0  0  0  0  0  0
  191.0730  173.6680  138.3010 C   0  0  0  0  0  2  0  0  0  0  0  0
  189.1530  173.8540  139.9740 C   0  0  0  0  0  3  0  0  0  0  0  0
  190.4860  174.0310  136.0060 C   0  0  0  0  0  3  0  0  0  0  0  0
  189.3740  174.3380  135.0120 C   0  0  0  0  0  1  0  0  0  0  0  0
  191.0070  172.6380  135.6750 C   0  0  0  0  0  1  0  0  0  0  0  0
  188.8610  172.1310  141.8220 C   0  0  0  0  0  2  0  0  0  0  0  0
  189.8670  172.1450  142.9690 C   0  0  0  0  0  2  0  0  0  0  0  0
  193.0340  170.0290  143.4810 C   0  0  0  0  0  2  0  0  0  0  0  0
  192.3950  168.7550  142.9590 C   0  0  0  0  0  2  0  0  0  0  0  0
  191.1480  171.4110  142.6030 C   0  0  2  0  0  3  0  0  0  0  0  0
  190.8140  170.2310  141.7250 C   0  0  0  0  0  3  0  0  0  0  0  0
  191.4130  169.0400  141.8550 C   0  0  0  0  0  3  0  0  0  0  0  0
  191.9310  171.0090  143.8580 C   0  0  2  0  0  3  0  0  0  0  0  0
  192.4920  172.1580  144.4770 O   0  0  0  0  0  0  0  0  0  0  0  0
  193.8260  172.2180  144.8840 C   0  0  0  0  0  0  0  0  0  0  0  0
  194.1880  171.5620  145.8940 O   0  0  0  0  0  0  0  0  0  0  0  0
  194.8470  173.0010  144.1220 C   0  0  0  0  0  2  0  0  0  0  0  0
  194.1930  173.8700  143.0600 C   0  0  0  0  0  2  0  0  0  0  0  0
  195.3120  175.7870  142.2850 C   0  0  0  0  0  2  0  0  0  0  0  0
  195.1990  174.5120  142.2610 N   0  0  0  0  0  0  0  0  0  0  0  0
  184.8490  176.8020  145.5530 C   0  0  0  0  0  2  0  0  0  0  0  0
  184.9910  177.8710  146.6220 C   0  0  0  0  0  2  0  0  0  0  0  0
  185.8870  177.3700  147.7430 C   0  0  0  0  0  2  0  0  0  0  0  0
  187.1790  178.0370  147.6900 N   0  0  0  0  0  2  0  0  0  0  0  0
  188.1950  177.0160  147.5030 C   0  0  0  0  0  2  0  0  0  0  0  0
  190.8320  177.7290  143.4670 C   0  0  0  0  0  0  0  0  0  0  0  0
  189.3140  174.3720  145.3590 C   0  0  0  0  0  1  0  0  0  0  0  0
  190.2370  175.5630  145.1850 C   0  0  2  0  0  0  0  0  0  0  0  0
  189.3020  177.5480  146.5930 C   0  0  2  0  0  3  0  0  0  0  0  0
  191.3100  175.4790  146.2890 C   0  0  2  0  0  3  0  0  0  0  0  0
  189.3470  176.8550  145.2280 C   0  0  1  0  0  3  0  0  0  0  0  0
  191.1430  178.6320  142.6490 O   0  0  0  0  0  0  0  0  0  0  0  0
  192.5950  176.8850  144.7790 O   0  0  0  0  0  0  0  0  0  0  0  0
  190.9450  176.2770  147.5430 C   0  0  0  0  0  2  0  0  0  0  0  0
  192.6840  175.8130  145.6910 C   0  0  1  0  0  3  0  0  0  0  0  0
  189.6630  177.8160  144.2140 O   0  0  0  0  0  0  0  0  0  0  0  0
  190.8830  175.4320  143.9280 O   0  0  0  0  0  0  0  0  0  0  0  0
  190.5660  177.5890  147.2170 O   0  0  0  0  0  0  0  0  0  0  0  0
  191.7190  176.5640  143.7010 C   0  0  1  0  0  3  0  0  0  0  0  0
  194.6350  177.1490  146.5180 C   0  0  0  0  0  2  0  0  0  0  0  0
  193.7870  175.9810  146.7490 C   0  0  2  0  0  3  0  0  0  0  0  0
  195.1110  175.8110  146.1320 N   0  0  0  0  0  2  0  0  0  0  0  0
  1  5  2  0  0  0  0
  1  4  1  0  0  0  0
  2 34  1  0  0  0  0
  3  2  2  0  0  0  0
  4  6  2  0  0  0  0
  5  3  1  0  0  0  0
  6  2  1  0  0  0  0
  7  8  2  0  0  0  0
  7  5  1  0  0  0  0
  9 19  1  0  0  0  0
  9  8  1  0  0  0  0
 10 15  1  0  0  0  0
 11 13  1  0  0  0  0
 11 14  1  0  0  0  0
 12 15  1  0  0  0  0
 13 12  1  0  0  0  0
 14 10  1  0  0  0  0
 15  9  1  0  0  0  0
 16 11  1  0  0  0  0
 17 16  1  0  0  0  0
 18 16  1  0  0  0  0
 19 20  1  0  0  0  0
 21 26  1  0  0  0  0
 22 21  1  0  0  0  0
 23 20  1  1  0  0  0
 23 26  1  0  0  0  0
 24 25  2  0  0  0  0
 24 23  1  0  0  0  0
 25 22  1  0  0  0  0
 26 27  1  6  0  0  0
 27 28  1  0  0  0  0
 28 29  2  0  0  0  0
 30 28  1  0  0  0  0
 31 30  1  0  0  0  0
 33 32  2  0  0  0  0
 33 31  1  0  0  0  0
 34 35  1  0  0  0  0
 35 36  1  0  0  0  0
 37 36  1  0  0  0  0
 38 37  1  0  0  0  0
 39 49  1  0  0  0  0
 41 44  1  0  0  0  0
 41 40  1  1  0  0  0
 41 43  1  0  0  0  0
 42 51  1  0  0  0  0
 42 38  1  1  0  0  0
 43 47  1  1  0  0  0
 44 49  1  6  0  0  0
 44 42  1  0  0  0  0
 45 39  2  0  0  0  0
 48 46  1  1  0  0  0
 48 43  1  0  0  0  0
 48 54  1  0  0  0  0
 50 41  1  0  0  0  0
 51 47  1  0  0  0  0
 52 39  1  1  0  0  0
 52 50  1  0  0  0  0
 52 46  1  0  0  0  0
 54 53  1  6  0  0  0
 55 53  1  0  0  0  0
 55 54  1  0  0  0  0
M  END
>  <MODEL>
7

>  <REMARK>
 VINA RESULT:      -5.8      2.330      5.011
  Name = 
  19 active torsions:
  status: ('A' for Active; 'I' for Inactive)
    1  A    between atoms: C_2  and  C_44
    2  A    between atoms: C_4  and  N_37
    3  A    between atoms: C_4  and  C_40
    4  A    between atoms: C_5  and  C_40
    5  A    between atoms: C_5  and  O_45
    6  A    between atoms: C_7  and  C_22
    7  A    between atoms: N_8  and  C_22
    8  A    between atoms: N_8  and  C_43
    9  A    between atoms: C_10  and  N_32
   10  A    between atoms: C_12  and  C_38
   11  A    between atoms: C_16  and  C_36
   12  A    between atoms: C_26  and  O_45
   13  A    between atoms: C_27  and  C_54
   14  A    between atoms: C_28  and  N_49
   15  A    between atoms: C_33  and  C_36
   16  A    between atoms: C_33  and  N_49
   17  A    between atoms: C_43  and  C_51
   18  A    between atoms: N_49  and  C_52
   19  A    between atoms: C_51  and  C_54
                            x       y       z     vdW  Elec       q    Type
                         _______ _______ _______ _____ _____    ______ ____

>  <TORSDO>
F 19

$$$$
=
 OpenBabel11052419313D

 55 61  0  0  1  0  0  0  0  0999 V2000
  188.0170  177.3180  141.4730 C   0  0  0  0  0  3  0  0  0  0  0  0
  185.9690  177.5420  143.3640 C   0  0  0  0  0  0  0  0  0  0  0  0
  186.3290  176.2860  142.8680 C   0  0  0  0  0  3  0  0  0  0  0  0
  187.6540  178.5760  141.9640 C   0  0  0  0  0  3  0  0  0  0  0  0
  187.3530  176.1660  141.9240 C   0  0  0  0  0  0  0  0  0  0  0  0
  186.6270  178.6880  142.9090 C   0  0  0  0  0  3  0  0  0  0  0  0
  187.6990  174.8270  141.4370 C   0  0  0  0  0  3  0  0  0  0  0  0
  188.8410  174.5400  140.8180 C   0  0  0  0  0  3  0  0  0  0  0  0
  189.1430  173.2150  140.3560 N   0  0  0  0  0  0  0  0  0  0  0  0
  190.4550  171.1010  140.4790 C   0  0  0  0  0  2  0  0  0  0  0  0
  192.0140  171.0380  142.4560 N   0  0  0  0  0  0  0  0  0  0  0  0
  191.2290  173.2240  141.6520 C   0  0  0  0  0  2  0  0  0  0  0  0
  192.4440  172.3530  141.9640 C   0  0  0  0  0  2  0  0  0  0  0  0
  191.4690  170.2930  141.3080 C   0  0  0  0  0  2  0  0  0  0  0  0
  190.0260  172.3960  141.1820 C   0  0  0  0  0  3  0  0  0  0  0  0
  193.1950  170.3180  142.9690 C   0  0  0  0  0  3  0  0  0  0  0  0
  192.8330  169.4520  144.1680 C   0  0  0  0  0  1  0  0  0  0  0  0
  194.2730  171.2900  143.4300 C   0  0  0  0  0  1  0  0  0  0  0  0
  188.7680  172.7820  139.0050 C   0  0  0  0  0  2  0  0  0  0  0  0
  189.2510  173.7860  137.9630 C   0  0  0  0  0  2  0  0  0  0  0  0
  192.1580  171.7770  136.4520 C   0  0  0  0  0  2  0  0  0  0  0  0
  191.3440  170.5020  136.3160 C   0  0  0  0  0  2  0  0  0  0  0  0
  190.0980  173.1190  136.8890 C   0  0  2  0  0  3  0  0  0  0  0  0
  189.3300  171.9670  136.2930 C   0  0  0  0  0  3  0  0  0  0  0  0
  189.9050  170.7950  135.9880 C   0  0  0  0  0  3  0  0  0  0  0  0
  191.4610  172.6950  137.4460 C   0  0  2  0  0  3  0  0  0  0  0  0
  192.2670  173.8380  137.7000 O   0  0  0  0  0  0  0  0  0  0  0  0
  193.4600  173.7710  138.4220 C   0  0  0  0  0  0  0  0  0  0  0  0
  193.7900  172.6840  138.9600 O   0  0  0  0  0  0  0  0  0  0  0  0
  194.3810  174.9450  138.5310 C   0  0  0  0  0  2  0  0  0  0  0  0
  194.5900  175.3460  139.9820 C   0  0  0  0  0  2  0  0  0  0  0  0
  196.8500  175.2430  139.3420 C   0  0  0  0  0  2  0  0  0  0  0  0
  195.9940  175.4010  140.2800 N   0  0  0  0  0  0  0  0  0  0  0  0
  184.8730  177.6500  144.3650 C   0  0  0  0  0  2  0  0  0  0  0  0
  185.4320  178.0300  145.7250 C   0  0  0  0  0  2  0  0  0  0  0  0
  185.8610  176.7810  146.4790 C   0  0  0  0  0  2  0  0  0  0  0  0
  186.8700  177.1150  147.4720 N   0  0  0  0  0  2  0  0  0  0  0  0
  187.9890  176.2100  147.2850 C   0  0  0  0  0  2  0  0  0  0  0  0
  190.8920  178.2010  143.9140 C   0  0  0  0  0  0  0  0  0  0  0  0
  189.1000  174.4920  144.3420 C   0  0  0  0  0  1  0  0  0  0  0  0
  190.0890  175.5950  144.6640 C   0  0  2  0  0  0  0  0  0  0  0  0
  189.1730  176.9660  146.6830 C   0  0  2  0  0  3  0  0  0  0  0  0
  191.0900  175.0300  145.6930 C   0  0  2  0  0  3  0  0  0  0  0  0
  189.2640  176.8340  145.1600 C   0  0  1  0  0  3  0  0  0  0  0  0
  191.2950  179.3210  143.5100 O   0  0  0  0  0  0  0  0  0  0  0  0
  192.5300  176.8080  144.8720 O   0  0  0  0  0  0  0  0  0  0  0  0
  190.6920  175.3230  147.1410 C   0  0  0  0  0  2  0  0  0  0  0  0
  192.5120  175.4690  145.3140 C   0  0  1  0  0  3  0  0  0  0  0  0
  189.6870  178.0820  144.5960 O   0  0  0  0  0  0  0  0  0  0  0  0
  190.8010  175.9010  143.4750 O   0  0  0  0  0  0  0  0  0  0  0  0
  190.3990  176.6850  147.3220 O   0  0  0  0  0  0  0  0  0  0  0  0
  191.7040  176.9760  143.7230 C   0  0  1  0  0  3  0  0  0  0  0  0
  194.8470  175.7990  146.1600 C   0  0  0  0  0  2  0  0  0  0  0  0
  193.5570  175.1530  146.3970 C   0  0  2  0  0  3  0  0  0  0  0  0
  194.6660  174.3780  145.8180 N   0  0  0  0  0  2  0  0  0  0  0  0
  1  5  2  0  0  0  0
  1  4  1  0  0  0  0
  2 34  1  0  0  0  0
  3  2  2  0  0  0  0
  4  6  2  0  0  0  0
  5  3  1  0  0  0  0
  6  2  1  0  0  0  0
  7  5  1  0  0  0  0
  8  7  2  0  0  0  0
  9  8  1  0  0  0  0
  9 15  1  0  0  0  0
 10 15  1  0  0  0  0
 10 14  1  0  0  0  0
 11 16  1  0  0  0  0
 12 13  1  0  0  0  0
 13 11  1  0  0  0  0
 14 11  1  0  0  0  0
 15 12  1  0  0  0  0
 16 18  1  0  0  0  0
 16 17  1  0  0  0  0
 19  9  1  0  0  0  0
 20 19  1  0  0  0  0
 21 26  1  0  0  0  0
 22 21  1  0  0  0  0
 23 26  1  0  0  0  0
 23 20  1  1  0  0  0
 24 23  1  0  0  0  0
 25 24  2  0  0  0  0
 25 22  1  0  0  0  0
 26 27  1  6  0  0  0
 27 28  1  0  0  0  0
 28 30  1  0  0  0  0
 28 29  2  0  0  0  0
 30 31  1  0  0  0  0
 31 33  1  0  0  0  0
 32 33  2  0  0  0  0
 34 35  1  0  0  0  0
 35 36  1  0  0  0  0
 36 37  1  0  0  0  0
 38 37  1  0  0  0  0
 39 49  1  0  0  0  0
 41 40  1  6  0  0  0
 41 44  1  0  0  0  0
 41 43  1  0  0  0  0
 42 38  1  1  0  0  0
 42 51  1  0  0  0  0
 43 47  1  1  0  0  0
 44 49  1  1  0  0  0
 44 42  1  0  0  0  0
 45 39  2  0  0  0  0
 47 51  1  0  0  0  0
 48 46  1  1  0  0  0
 48 43  1  0  0  0  0
 48 54  1  0  0  0  0
 50 41  1  0  0  0  0
 52 50  1  1  0  0  0
 52 39  1  0  0  0  0
 52 46  1  0  0  0  0
 54 53  1  6  0  0  0
 55 53  1  0  0  0  0
 55 54  1  0  0  0  0
M  END
>  <MODEL>
8

>  <REMARK>
 VINA RESULT:      -5.7      1.566      2.457
  Name = 
  19 active torsions:
  status: ('A' for Active; 'I' for Inactive)
    1  A    between atoms: C_2  and  C_44
    2  A    between atoms: C_4  and  N_37
    3  A    between atoms: C_4  and  C_40
    4  A    between atoms: C_5  and  C_40
    5  A    between atoms: C_5  and  O_45
    6  A    between atoms: C_7  and  C_22
    7  A    between atoms: N_8  and  C_22
    8  A    between atoms: N_8  and  C_43
    9  A    between atoms: C_10  and  N_32
   10  A    between atoms: C_12  and  C_38
   11  A    between atoms: C_16  and  C_36
   12  A    between atoms: C_26  and  O_45
   13  A    between atoms: C_27  and  C_54
   14  A    between atoms: C_28  and  N_49
   15  A    between atoms: C_33  and  C_36
   16  A    between atoms: C_33  and  N_49
   17  A    between atoms: C_43  and  C_51
   18  A    between atoms: N_49  and  C_52
   19  A    between atoms: C_51  and  C_54
                            x       y       z     vdW  Elec       q    Type
                         _______ _______ _______ _____ _____    ______ ____

>  <TORSDO>
F 19

$$$$
=
 OpenBabel11052419313D

 55 61  0  0  1  0  0  0  0  0999 V2000
  189.9970  175.0340  146.7530 C   0  0  0  0  0  3  0  0  0  0  0  0
  192.7090  174.6410  146.1930 C   0  0  0  0  0  0  0  0  0  0  0  0
  191.7460  174.3680  145.2170 C   0  0  0  0  0  3  0  0  0  0  0  0
  190.9590  175.3010  147.7320 C   0  0  0  0  0  3  0  0  0  0  0  0
  190.3880  174.5640  145.4900 C   0  0  0  0  0  0  0  0  0  0  0  0
  192.3160  175.1030  147.4520 C   0  0  0  0  0  3  0  0  0  0  0  0
  189.4160  174.2690  144.4320 C   0  0  0  0  0  3  0  0  0  0  0  0
  189.6970  174.3350  143.1340 C   0  0  0  0  0  3  0  0  0  0  0  0
  188.7180  174.0380  142.1280 N   0  0  0  0  0  0  0  0  0  0  0  0
  190.2040  173.7920  140.1440 C   0  0  0  0  0  2  0  0  0  0  0  0
  190.2450  171.4410  139.2450 N   0  0  0  0  0  0  0  0  0  0  0  0
  189.5430  171.7920  141.5730 C   0  0  0  0  0  2  0  0  0  0  0  0
  190.5160  171.0740  140.6410 C   0  0  0  0  0  2  0  0  0  0  0  0
  190.7030  172.8280  139.0540 C   0  0  0  0  0  2  0  0  0  0  0  0
  189.1210  173.1630  141.0300 C   0  0  0  0  0  3  0  0  0  0  0  0
  191.0340  170.5570  138.3650 C   0  0  0  0  0  3  0  0  0  0  0  0
  190.6930  170.7930  136.9000 C   0  0  0  0  0  1  0  0  0  0  0  0
  190.7460  169.0900  138.6590 C   0  0  0  0  0  1  0  0  0  0  0  0
  187.4420  174.7610  142.0780 C   0  0  0  0  0  2  0  0  0  0  0  0
  187.5870  176.0570  141.2860 C   0  0  0  0  0  2  0  0  0  0  0  0
  187.8210  178.0540  144.5610 C   0  0  0  0  0  2  0  0  0  0  0  0
  189.3280  177.9050  144.6670 C   0  0  0  0  0  2  0  0  0  0  0  0
  187.8440  177.2470  142.1970 C   0  0  2  0  0  3  0  0  0  0  0  0
  189.3180  177.5650  142.2000 C   0  0  0  0  0  3  0  0  0  0  0  0
  189.9810  177.9100  143.3120 C   0  0  0  0  0  3  0  0  0  0  0  0
  187.2930  176.9930  143.6050 C   0  0  2  0  0  3  0  0  0  0  0  0
  185.8720  177.0160  143.5890 O   0  0  0  0  0  0  0  0  0  0  0  0
  185.1210  177.7290  144.5250 C   0  0  0  0  0  0  0  0  0  0  0  0
  184.6500  178.8510  144.2060 O   0  0  0  0  0  0  0  0  0  0  0  0
  184.8190  177.1740  145.8810 C   0  0  0  0  0  2  0  0  0  0  0  0
  184.7650  178.2770  146.9260 C   0  0  0  0  0  2  0  0  0  0  0  0
  186.6930  179.0710  148.0120 C   0  0  0  0  0  2  0  0  0  0  0  0
  185.8460  178.1240  147.8600 N   0  0  0  0  0  0  0  0  0  0  0  0
  194.1480  174.4220  145.8850 C   0  0  0  0  0  2  0  0  0  0  0  0
  194.9340  175.7070  146.0800 C   0  0  0  0  0  2  0  0  0  0  0  0
  194.6020  176.6920  144.9710 C   0  0  0  0  0  2  0  0  0  0  0  0
  195.3750  176.3850  143.7780 N   0  0  0  0  0  2  0  0  0  0  0  0
  194.4380  176.0560  142.7180 C   0  0  0  0  0  2  0  0  0  0  0  0
  196.5580  171.7550  141.8490 C   0  0  0  0  0  0  0  0  0  0  0  0
  197.3670  175.6490  140.6930 C   0  0  0  0  0  1  0  0  0  0  0  0
  196.5980  174.3420  140.7060 C   0  0  2  0  0  0  0  0  0  0  0  0
  194.5810  174.5820  142.3390 C   0  0  2  0  0  3  0  0  0  0  0  0
  195.5240  174.4270  139.6020 C   0  0  2  0  0  3  0  0  0  0  0  0
  196.0360  174.1430  142.1580 C   0  0  1  0  0  3  0  0  0  0  0  0
  196.6060  170.5810  142.2960 O   0  0  0  0  0  0  0  0  0  0  0  0
  195.5930  172.0000  139.7160 O   0  0  0  0  0  0  0  0  0  0  0  0
  194.1720  174.9240  140.1180 C   0  0  0  0  0  2  0  0  0  0  0  0
  195.4720  173.0970  138.8370 C   0  0  1  0  0  3  0  0  0  0  0  0
  196.2040  172.8160  142.6730 O   0  0  0  0  0  0  0  0  0  0  0  0
  197.5030  173.3030  140.3640 O   0  0  0  0  0  0  0  0  0  0  0  0
  193.7650  174.2030  141.2520 O   0  0  0  0  0  0  0  0  0  0  0  0
  196.8310  172.0460  140.4210 C   0  0  1  0  0  3  0  0  0  0  0  0
  194.6250  172.3590  136.5980 C   0  0  0  0  0  2  0  0  0  0  0  0
  194.2820  172.9950  137.8690 C   0  0  2  0  0  3  0  0  0  0  0  0
  194.5260  173.8260  136.6800 N   0  0  0  0  0  2  0  0  0  0  0  0
  1  4  1  0  0  0  0
  2  6  1  0  0  0  0
  3  5  1  0  0  0  0
  3  2  2  0  0  0  0
  5  1  2  0  0  0  0
  6  4  2  0  0  0  0
  7  5  1  0  0  0  0
  8  7  2  0  0  0  0
  9  8  1  0  0  0  0
 10 15  1  0  0  0  0
 11 13  1  0  0  0  0
 13 12  1  0  0  0  0
 14 11  1  0  0  0  0
 14 10  1  0  0  0  0
 15 12  1  0  0  0  0
 15  9  1  0  0  0  0
 16 18  1  0  0  0  0
 16 11  1  0  0  0  0
 17 16  1  0  0  0  0
 19  9  1  0  0  0  0
 20 19  1  0  0  0  0
 21 22  1  0  0  0  0
 23 20  1  6  0  0  0
 23 24  1  0  0  0  0
 23 26  1  0  0  0  0
 24 25  2  0  0  0  0
 25 22  1  0  0  0  0
 26 27  1  6  0  0  0
 26 21  1  0  0  0  0
 27 28  1  0  0  0  0
 28 30  1  0  0  0  0
 29 28  2  0  0  0  0
 30 31  1  0  0  0  0
 31 33  1  0  0  0  0
 33 32  2  0  0  0  0
 34 35  1  0  0  0  0
 34  2  1  0  0  0  0
 36 35  1  0  0  0  0
 37 36  1  0  0  0  0
 38 37  1  0  0  0  0
 39 45  2  0  0  0  0
 39 49  1  0  0  0  0
 41 40  1  6  0  0  0
 41 44  1  0  0  0  0
 42 38  1  6  0  0  0
 43 47  1  1  0  0  0
 43 41  1  0  0  0  0
 44 42  1  0  0  0  0
 44 49  1  6  0  0  0
 47 51  1  0  0  0  0
 48 43  1  0  0  0  0
 48 46  1  1  0  0  0
 50 52  1  0  0  0  0
 50 41  1  0  0  0  0
 51 42  1  0  0  0  0
 52 46  1  6  0  0  0
 52 39  1  0  0  0  0
 53 55  1  0  0  0  0
 54 53  1  6  0  0  0
 54 48  1  0  0  0  0
 55 54  1  0  0  0  0
M  END
>  <MODEL>
9

>  <REMARK>
 VINA RESULT:      -5.7      2.689      7.522
  Name = 
  19 active torsions:
  status: ('A' for Active; 'I' for Inactive)
    1  A    between atoms: C_2  and  C_44
    2  A    between atoms: C_4  and  N_37
    3  A    between atoms: C_4  and  C_40
    4  A    between atoms: C_5  and  C_40
    5  A    between atoms: C_5  and  O_45
    6  A    between atoms: C_7  and  C_22
    7  A    between atoms: N_8  and  C_22
    8  A    between atoms: N_8  and  C_43
    9  A    between atoms: C_10  and  N_32
   10  A    between atoms: C_12  and  C_38
   11  A    between atoms: C_16  and  C_36
   12  A    between atoms: C_26  and  O_45
   13  A    between atoms: C_27  and  C_54
   14  A    between atoms: C_28  and  N_49
   15  A    between atoms: C_33  and  C_36
   16  A    between atoms: C_33  and  N_49
   17  A    between atoms: C_43  and  C_51
   18  A    between atoms: N_49  and  C_52
   19  A    between atoms: C_51  and  C_54
                            x       y       z     vdW  Elec       q    Type
                         _______ _______ _______ _____ _____    ______ ____

>  <TORSDO>
F 19

$$$$
