=
 OpenBabel11052418453D

 34 39  0  0  1  0  0  0  0  0999 V2000
  185.8420  177.1960  145.2560 C   0  0  0  0  0  0  0  0  0  0  0  0
  187.4280  178.1570  146.8210 C   0  0  0  0  0  3  0  0  0  0  0  0
  188.2330  177.1570  144.7230 C   0  0  0  0  0  0  0  0  0  0  0  0
  190.6400  177.4210  143.9460 N   0  0  1  0  0  0  0  0  0  0  0  0
  185.0630  178.1640  147.3350 C   0  0  0  0  0  3  0  0  0  0  0  0
  186.3770  178.4840  147.6810 C   0  0  0  0  0  3  0  0  0  0  0  0
  190.2910  176.7050  146.1490 C   0  0  0  0  0  0  0  0  0  0  0  0
  187.1800  177.5000  145.6050 C   0  0  0  0  0  0  0  0  0  0  0  0
  191.9360  177.1240  144.5830 C   0  0  0  0  0  2  0  0  0  0  0  0
  184.7950  177.5240  146.1230 C   0  0  0  0  0  3  0  0  0  0  0  0
  187.9250  176.5500  143.4840 C   0  0  0  0  0  0  0  0  0  0  0  0
  185.5560  176.5920  144.0340 C   0  0  0  0  0  3  0  0  0  0  0  0
  189.7270  176.3110  147.2030 O   0  0  0  0  0  0  0  0  0  0  0  0
  190.3760  176.2450  143.1130 C   0  0  0  0  0  2  0  0  0  0  0  0
  189.0060  176.3250  142.4570 C   0  0  1  0  0  3  0  0  0  0  0  0
  191.6550  176.5130  145.8700 N   0  0  0  0  0  0  0  0  0  0  0  0
  189.6750  177.5010  145.0700 C   0  0  2  0  0  3  0  0  0  0  0  0
  186.5880  176.2880  143.1510 C   0  0  0  0  0  3  0  0  0  0  0  0
  188.1480  174.0550  139.5160 C   0  0  0  0  0  0  0  0  0  0  0  0
  188.3690  172.7950  140.0800 C   0  0  0  0  0  3  0  0  0  0  0  0
  188.7770  175.1020  141.6160 C   0  0  0  0  0  0  0  0  0  0  0  0
  188.7930  172.6870  141.4070 C   0  0  0  0  0  3  0  0  0  0  0  0
  188.3510  175.2080  140.2810 C   0  0  0  0  0  3  0  0  0  0  0  0
  188.9960  173.8380  142.1740 C   0  0  0  0  0  3  0  0  0  0  0  0
  187.7380  174.1590  138.2310 F   0  0  0  0  0  0  0  0  0  0  0  0
  192.6580  175.9660  146.7720 C   0  0  0  0  0  2  0  0  0  0  0  0
  193.9670  176.5270  146.4700 N   0  0  0  0  0  2  0  0  0  0  0  0
  195.6480  177.1340  144.5140 F   0  0  0  0  0  0  0  0  0  0  0  0
  194.8300  175.4340  146.0460 C   0  0  2  0  0  3  0  0  0  0  0  0
  195.5320  175.7680  144.7150 C   0  0  1  0  0  3  0  0  0  0  0  0
  195.1680  173.7990  143.6940 C   0  0  0  0  0  2  0  0  0  0  0  0
  194.6410  173.1360  144.9800 C   0  0  0  0  0  2  0  0  0  0  0  0
  193.9930  174.1550  145.9230 C   0  0  0  0  0  2  0  0  0  0  0  0
  194.8600  175.1730  143.6350 O   0  0  0  0  0  0  0  0  0  0  0  0
  1  8  1  0  0  0  0
  1 10  2  0  0  0  0
  2  6  1  0  0  0  0
  3  8  1  0  0  0  0
  4 14  1  6  0  0  0
  4  9  1  0  0  0  0
  4 17  1  0  0  0  0
  5  6  2  0  0  0  0
  7 13  2  0  0  0  0
  8  2  2  0  0  0  0
  9 16  1  0  0  0  0
 10  5  1  0  0  0  0
 11  3  2  0  0  0  0
 12  1  1  0  0  0  0
 15 21  1  1  0  0  0
 15 14  1  0  0  0  0
 15 11  1  0  0  0  0
 16  7  1  0  0  0  0
 16 26  1  0  0  0  0
 17  3  1  6  0  0  0
 17  7  1  0  0  0  0
 18 11  1  0  0  0  0
 18 12  2  0  0  0  0
 19 20  2  0  0  0  0
 19 23  1  0  0  0  0
 20 22  1  0  0  0  0
 21 24  1  0  0  0  0
 22 24  2  0  0  0  0
 23 21  2  0  0  0  0
 25 19  1  0  0  0  0
 27 26  1  0  0  0  0
 29 27  1  6  0  0  0
 30 28  1  6  0  0  0
 30 29  1  0  0  0  0
 31 32  1  0  0  0  0
 32 33  1  0  0  0  0
 33 29  1  0  0  0  0
 34 31  1  0  0  0  0
 34 30  1  0  0  0  0
M  END
>  <MODEL>
1

>  <REMARK>
 VINA RESULT:      -8.8      0.000      0.000
  Name = 
  4 active torsions:
  status: ('A' for Active; 'I' for Inactive)
    1  A    between atoms: N_3  and  C_13
    2  A    between atoms: N_3  and  C_17
    3  A    between atoms: C_12  and  C_28
    4  A    between atoms: C_17  and  N_29
                            x       y       z     vdW  Elec       q    Type
                         _______ _______ _______ _____ _____    ______ ____

>  <TORSDO>
F 4

$$$$
=
 OpenBabel11052418453D

 34 39  0  0  1  0  0  0  0  0999 V2000
  191.2130  176.2670  146.1310 C   0  0  0  0  0  0  0  0  0  0  0  0
  192.0320  174.9480  144.2660 C   0  0  0  0  0  3  0  0  0  0  0  0
  189.9060  176.1690  144.0600 C   0  0  0  0  0  0  0  0  0  0  0  0
  188.7060  176.4110  141.8310 N   0  0  1  0  0  0  0  0  0  0  0  0
  193.2930  175.0430  146.3290 C   0  0  0  0  0  3  0  0  0  0  0  0
  193.1470  174.5770  145.0210 C   0  0  0  0  0  3  0  0  0  0  0  0
  189.3780  174.2580  142.4660 C   0  0  0  0  0  0  0  0  0  0  0  0
  191.0440  175.7860  144.8100 C   0  0  0  0  0  0  0  0  0  0  0  0
  188.2380  175.4290  140.8360 C   0  0  0  0  0  2  0  0  0  0  0  0
  192.3300  175.8900  146.8820 C   0  0  0  0  0  3  0  0  0  0  0  0
  188.9720  177.0620  144.6320 C   0  0  0  0  0  0  0  0  0  0  0  0
  190.2800  177.1420  146.6820 C   0  0  0  0  0  3  0  0  0  0  0  0
  189.8300  173.2960  143.1430 O   0  0  0  0  0  0  0  0  0  0  0  0
  187.5160  176.6950  142.6370 C   0  0  0  0  0  2  0  0  0  0  0  0
  187.8410  177.6160  143.8020 C   0  0  1  0  0  3  0  0  0  0  0  0
  188.5160  174.1070  141.3670 N   0  0  0  0  0  0  0  0  0  0  0  0
  189.7240  175.6830  142.6290 C   0  0  2  0  0  3  0  0  0  0  0  0
  189.1790  177.5470  145.9320 C   0  0  0  0  0  3  0  0  0  0  0  0
  184.8840  177.1630  146.1660 C   0  0  0  0  0  0  0  0  0  0  0  0
  184.2790  178.4200  146.0790 C   0  0  0  0  0  3  0  0  0  0  0  0
  186.5970  177.8800  144.6010 C   0  0  0  0  0  0  0  0  0  0  0  0
  184.8300  179.4060  145.2550 C   0  0  0  0  0  3  0  0  0  0  0  0
  186.0410  176.8920  145.4300 C   0  0  0  0  0  3  0  0  0  0  0  0
  185.9860  179.1360  144.5170 C   0  0  0  0  0  3  0  0  0  0  0  0
  184.3520  176.2090  146.9650 F   0  0  0  0  0  0  0  0  0  0  0  0
  188.1100  172.8540  140.7460 C   0  0  0  0  0  2  0  0  0  0  0  0
  188.7010  172.7340  139.4210 N   0  0  0  0  0  2  0  0  0  0  0  0
  191.0860  173.8750  139.5940 F   0  0  0  0  0  0  0  0  0  0  0  0
  189.8180  171.8040  139.5180 C   0  0  2  0  0  3  0  0  0  0  0  0
  191.1610  172.5260  139.2890 C   0  0  1  0  0  3  0  0  0  0  0  0
  192.0630  171.0210  137.8860 C   0  0  0  0  0  2  0  0  0  0  0  0
  190.9410  169.9950  138.1320 C   0  0  0  0  0  2  0  0  0  0  0  0
  189.6190  170.6750  138.4990 C   0  0  0  0  0  2  0  0  0  0  0  0
  191.6020  172.3500  137.9680 O   0  0  0  0  0  0  0  0  0  0  0  0
  1 12  1  0  0  0  0
  1 10  2  0  0  0  0
  2  8  2  0  0  0  0
  2  6  1  0  0  0  0
  3 11  2  0  0  0  0
  3  8  1  0  0  0  0
  4  9  1  6  0  0  0
  4 17  1  0  0  0  0
  4 14  1  0  0  0  0
  5 10  1  0  0  0  0
  6  5  2  0  0  0  0
  7 13  2  0  0  0  0
  8  1  1  0  0  0  0
  9 16  1  0  0  0  0
 11 18  1  0  0  0  0
 14 15  1  0  0  0  0
 15 21  1  1  0  0  0
 15 11  1  0  0  0  0
 16  7  1  0  0  0  0
 17  7  1  1  0  0  0
 17  3  1  0  0  0  0
 18 12  2  0  0  0  0
 19 25  1  0  0  0  0
 20 19  1  0  0  0  0
 21 23  1  0  0  0  0
 22 20  2  0  0  0  0
 23 19  2  0  0  0  0
 24 21  2  0  0  0  0
 24 22  1  0  0  0  0
 26 16  1  0  0  0  0
 27 26  1  0  0  0  0
 29 27  1  6  0  0  0
 30 29  1  0  0  0  0
 30 28  1  6  0  0  0
 31 34  1  0  0  0  0
 31 32  1  0  0  0  0
 32 33  1  0  0  0  0
 33 29  1  0  0  0  0
 34 30  1  0  0  0  0
M  END
>  <MODEL>
2

>  <REMARK>
 VINA RESULT:      -8.6      3.209      6.683
  Name = 
  4 active torsions:
  status: ('A' for Active; 'I' for Inactive)
    1  A    between atoms: N_3  and  C_13
    2  A    between atoms: N_3  and  C_17
    3  A    between atoms: C_12  and  C_28
    4  A    between atoms: C_17  and  N_29
                            x       y       z     vdW  Elec       q    Type
                         _______ _______ _______ _____ _____    ______ ____

>  <TORSDO>
F 4

$$$$
=
 OpenBabel11052418453D

 34 39  0  0  1  0  0  0  0  0999 V2000
  185.8750  177.1330  145.2420 C   0  0  0  0  0  0  0  0  0  0  0  0
  187.4630  178.1480  146.7710 C   0  0  0  0  0  3  0  0  0  0  0  0
  188.2570  177.1520  144.6660 C   0  0  0  0  0  0  0  0  0  0  0  0
  190.6410  177.4740  143.8430 N   0  0  1  0  0  0  0  0  0  0  0  0
  185.1080  178.0960  147.3270 C   0  0  0  0  0  3  0  0  0  0  0  0
  186.4190  178.4530  147.6470 C   0  0  0  0  0  3  0  0  0  0  0  0
  190.3510  176.7660  146.0580 C   0  0  0  0  0  0  0  0  0  0  0  0
  187.2110  177.4740  145.5640 C   0  0  0  0  0  0  0  0  0  0  0  0
  191.9550  177.2160  144.4600 C   0  0  0  0  0  2  0  0  0  0  0  0
  184.8350  177.4400  146.1250 C   0  0  0  0  0  3  0  0  0  0  0  0
  187.9430  176.5280  143.4370 C   0  0  0  0  0  0  0  0  0  0  0  0
  185.5840  176.5120  144.0300 C   0  0  0  0  0  3  0  0  0  0  0  0
  189.8160  176.3650  147.1250 O   0  0  0  0  0  0  0  0  0  0  0  0
  190.3940  176.2850  143.0240 C   0  0  0  0  0  2  0  0  0  0  0  0
  189.0110  176.3240  142.3920 C   0  0  1  0  0  3  0  0  0  0  0  0
  191.7140  176.6080  145.7560 N   0  0  0  0  0  0  0  0  0  0  0  0
  189.6950  177.5370  144.9840 C   0  0  2  0  0  3  0  0  0  0  0  0
  186.6080  176.2280  143.1300 C   0  0  0  0  0  3  0  0  0  0  0  0
  188.1660  174.0090  139.4830 C   0  0  0  0  0  0  0  0  0  0  0  0
  188.4250  172.7590  140.0540 C   0  0  0  0  0  3  0  0  0  0  0  0
  188.7990  175.0890  141.5640 C   0  0  0  0  0  0  0  0  0  0  0  0
  188.8700  172.6730  141.3750 C   0  0  0  0  0  3  0  0  0  0  0  0
  188.3520  175.1730  140.2350 C   0  0  0  0  0  3  0  0  0  0  0  0
  189.0560  173.8350  142.1290 C   0  0  0  0  0  3  0  0  0  0  0  0
  187.7360  174.0930  138.2020 F   0  0  0  0  0  0  0  0  0  0  0  0
  192.7470  176.0950  146.6440 C   0  0  0  0  0  2  0  0  0  0  0  0
  192.9100  174.6600  146.4520 N   0  0  0  0  0  2  0  0  0  0  0  0
  192.8730  172.3150  145.2200 F   0  0  0  0  0  0  0  0  0  0  0  0
  193.9800  174.4620  145.4850 C   0  0  2  0  0  3  0  0  0  0  0  0
  194.0770  172.9820  145.0620 C   0  0  1  0  0  3  0  0  0  0  0  0
  196.3090  172.7810  145.2260 C   0  0  0  0  0  2  0  0  0  0  0  0
  196.5140  174.2940  145.4270 C   0  0  0  0  0  2  0  0  0  0  0  0
  195.3010  174.9500  146.0930 C   0  0  0  0  0  2  0  0  0  0  0  0
  195.0940  172.3270  145.7760 O   0  0  0  0  0  0  0  0  0  0  0  0
  1  8  1  0  0  0  0
  1 10  2  0  0  0  0
  2  6  1  0  0  0  0
  3  8  1  0  0  0  0
  4 14  1  6  0  0  0
  4  9  1  0  0  0  0
  4 17  1  0  0  0  0
  5  6  2  0  0  0  0
  7 13  2  0  0  0  0
  8  2  2  0  0  0  0
  9 16  1  0  0  0  0
 10  5  1  0  0  0  0
 11  3  2  0  0  0  0
 12  1  1  0  0  0  0
 15 21  1  1  0  0  0
 15 14  1  0  0  0  0
 15 11  1  0  0  0  0
 16  7  1  0  0  0  0
 16 26  1  0  0  0  0
 17  3  1  6  0  0  0
 17  7  1  0  0  0  0
 18 11  1  0  0  0  0
 18 12  2  0  0  0  0
 19 20  2  0  0  0  0
 19 23  1  0  0  0  0
 20 22  1  0  0  0  0
 21 24  1  0  0  0  0
 22 24  2  0  0  0  0
 23 21  2  0  0  0  0
 25 19  1  0  0  0  0
 27 26  1  0  0  0  0
 29 33  1  0  0  0  0
 29 27  1  1  0  0  0
 30 28  1  1  0  0  0
 30 29  1  0  0  0  0
 30 34  1  0  0  0  0
 31 32  1  0  0  0  0
 31 34  1  0  0  0  0
 32 33  1  0  0  0  0
M  END
>  <MODEL>
3

>  <REMARK>
 VINA RESULT:      -8.6      1.291      1.466
  Name = 
  4 active torsions:
  status: ('A' for Active; 'I' for Inactive)
    1  A    between atoms: N_3  and  C_13
    2  A    between atoms: N_3  and  C_17
    3  A    between atoms: C_12  and  C_28
    4  A    between atoms: C_17  and  N_29
                            x       y       z     vdW  Elec       q    Type
                         _______ _______ _______ _____ _____    ______ ____

>  <TORSDO>
F 4

$$$$
=
 OpenBabel11052418453D

 34 39  0  0  1  0  0  0  0  0999 V2000
  190.6130  173.0630  141.2820 C   0  0  0  0  0  0  0  0  0  0  0  0
  188.6190  173.8450  140.1400 C   0  0  0  0  0  3  0  0  0  0  0  0
  189.6820  175.2580  141.8510 C   0  0  0  0  0  0  0  0  0  0  0  0
  188.9920  177.6780  142.2120 N   0  0  1  0  0  0  0  0  0  0  0  0
  189.5450  171.6720  139.6120 C   0  0  0  0  0  3  0  0  0  0  0  0
  188.5770  172.6570  139.4060 C   0  0  0  0  0  3  0  0  0  0  0  0
  187.2900  176.0700  142.1500 C   0  0  0  0  0  0  0  0  0  0  0  0
  189.6270  174.0620  141.0950 C   0  0  0  0  0  0  0  0  0  0  0  0
  187.6930  178.3170  142.4920 C   0  0  0  0  0  2  0  0  0  0  0  0
  190.5640  171.8760  140.5460 C   0  0  0  0  0  3  0  0  0  0  0  0
  190.7500  175.4520  142.7550 C   0  0  0  0  0  0  0  0  0  0  0  0
  191.6550  173.2690  142.1830 C   0  0  0  0  0  3  0  0  0  0  0  0
  186.6910  174.9620  142.1080 O   0  0  0  0  0  0  0  0  0  0  0  0
  189.6100  177.5340  143.5320 C   0  0  0  0  0  2  0  0  0  0  0  0
  190.9280  176.7800  143.4490 C   0  0  1  0  0  3  0  0  0  0  0  0
  186.7100  177.2580  142.6250 N   0  0  0  0  0  0  0  0  0  0  0  0
  188.6460  176.3530  141.6410 C   0  0  2  0  0  3  0  0  0  0  0  0
  191.7310  174.4600  142.8990 C   0  0  0  0  0  3  0  0  0  0  0  0
  193.4400  176.6730  146.3150 C   0  0  0  0  0  0  0  0  0  0  0  0
  192.5950  176.4200  147.4000 C   0  0  0  0  0  3  0  0  0  0  0  0
  191.5250  176.6540  144.8210 C   0  0  0  0  0  0  0  0  0  0  0  0
  191.2190  176.2830  147.1980 C   0  0  0  0  0  3  0  0  0  0  0  0
  192.9080  176.7910  145.0280 C   0  0  0  0  0  3  0  0  0  0  0  0
  190.6850  176.4000  145.9110 C   0  0  0  0  0  3  0  0  0  0  0  0
  194.7720  176.8060  146.5120 F   0  0  0  0  0  0  0  0  0  0  0  0
  185.3200  177.4510  143.0140 C   0  0  0  0  0  2  0  0  0  0  0  0
  185.2400  178.3190  144.1810 N   0  0  0  0  0  2  0  0  0  0  0  0
  183.5040  179.0410  146.0480 F   0  0  0  0  0  0  0  0  0  0  0  0
  185.2270  177.4690  145.3640 C   0  0  2  0  0  3  0  0  0  0  0  0
  184.4410  178.1330  146.5130 C   0  0  1  0  0  3  0  0  0  0  0  0
  185.9220  177.7190  148.1520 C   0  0  0  0  0  2  0  0  0  0  0  0
  186.7720  176.7920  147.2630 C   0  0  0  0  0  2  0  0  0  0  0  0
  186.6720  177.1730  145.7830 C   0  0  0  0  0  2  0  0  0  0  0  0
  185.3160  178.7580  147.4180 O   0  0  0  0  0  0  0  0  0  0  0  0
  1 12  1  0  0  0  0
  2  8  1  0  0  0  0
  3 11  2  0  0  0  0
  4  9  1  1  0  0  0
  4 14  1  0  0  0  0
  5 10  2  0  0  0  0
  6  5  1  0  0  0  0
  6  2  2  0  0  0  0
  7 16  1  0  0  0  0
  8  1  2  0  0  0  0
  8  3  1  0  0  0  0
  9 16  1  0  0  0  0
 10  1  1  0  0  0  0
 11 18  1  0  0  0  0
 11 15  1  0  0  0  0
 12 18  2  0  0  0  0
 13  7  2  0  0  0  0
 15 14  1  0  0  0  0
 15 21  1  1  0  0  0
 16 26  1  0  0  0  0
 17  3  1  1  0  0  0
 17  7  1  0  0  0  0
 17  4  1  0  0  0  0
 19 25  1  0  0  0  0
 19 20  1  0  0  0  0
 21 23  1  0  0  0  0
 21 24  2  0  0  0  0
 22 20  2  0  0  0  0
 23 19  2  0  0  0  0
 24 22  1  0  0  0  0
 26 27  1  0  0  0  0
 29 27  1  6  0  0  0
 29 33  1  0  0  0  0
 29 30  1  0  0  0  0
 30 28  1  6  0  0  0
 30 34  1  0  0  0  0
 32 31  1  0  0  0  0
 33 32  1  0  0  0  0
 34 31  1  0  0  0  0
M  END
>  <MODEL>
4

>  <REMARK>
 VINA RESULT:      -8.3      3.202      7.840
  Name = 
  4 active torsions:
  status: ('A' for Active; 'I' for Inactive)
    1  A    between atoms: N_3  and  C_13
    2  A    between atoms: N_3  and  C_17
    3  A    between atoms: C_12  and  C_28
    4  A    between atoms: C_17  and  N_29
                            x       y       z     vdW  Elec       q    Type
                         _______ _______ _______ _____ _____    ______ ____

>  <TORSDO>
F 4

$$$$
=
 OpenBabel11052418453D

 34 39  0  0  1  0  0  0  0  0999 V2000
  186.8630  178.0150  144.6570 C   0  0  0  0  0  0  0  0  0  0  0  0
  185.6030  177.1650  142.7650 C   0  0  0  0  0  3  0  0  0  0  0  0
  187.6670  176.0280  143.4690 C   0  0  0  0  0  0  0  0  0  0  0  0
  188.3430  173.7660  142.5240 N   0  0  1  0  0  0  0  0  0  0  0  0
  184.8410  179.1390  143.9410 C   0  0  0  0  0  3  0  0  0  0  0  0
  184.6740  178.1970  142.9230 C   0  0  0  0  0  3  0  0  0  0  0  0
  187.7600  175.4420  140.9950 C   0  0  0  0  0  0  0  0  0  0  0  0
  186.7140  177.0640  143.6170 C   0  0  0  0  0  0  0  0  0  0  0  0
  188.5430  173.2750  141.1490 C   0  0  0  0  0  2  0  0  0  0  0  0
  185.9320  179.0460  144.8090 C   0  0  0  0  0  3  0  0  0  0  0  0
  188.7350  175.9360  144.3900 C   0  0  0  0  0  0  0  0  0  0  0  0
  187.9250  177.9120  145.5520 C   0  0  0  0  0  3  0  0  0  0  0  0
  187.4410  176.5590  140.5080 O   0  0  0  0  0  0  0  0  0  0  0  0
  189.6920  174.1120  142.9780 C   0  0  0  0  0  2  0  0  0  0  0  0
  189.6680  174.7510  144.3570 C   0  0  1  0  0  3  0  0  0  0  0  0
  188.3480  174.4020  140.2540 N   0  0  0  0  0  0  0  0  0  0  0  0
  187.5070  174.9820  142.3740 C   0  0  2  0  0  3  0  0  0  0  0  0
  188.8420  176.8720  145.4280 C   0  0  0  0  0  3  0  0  0  0  0  0
  193.2890  175.9430  144.2950 C   0  0  0  0  0  0  0  0  0  0  0  0
  193.6660  175.7160  145.6220 C   0  0  0  0  0  3  0  0  0  0  0  0
  191.0680  175.0900  144.7830 C   0  0  0  0  0  0  0  0  0  0  0  0
  192.7490  175.1770  146.5280 C   0  0  0  0  0  3  0  0  0  0  0  0
  191.9930  175.6320  143.8750 C   0  0  0  0  0  3  0  0  0  0  0  0
  191.4520  174.8650  146.1090 C   0  0  0  0  0  3  0  0  0  0  0  0
  194.1780  176.4660  143.4180 F   0  0  0  0  0  0  0  0  0  0  0  0
  188.5630  174.3740  138.8150 C   0  0  0  0  0  2  0  0  0  0  0  0
  188.2400  173.0570  138.2830 N   0  0  0  0  0  2  0  0  0  0  0  0
  189.4530  170.8190  139.0160 F   0  0  0  0  0  0  0  0  0  0  0  0
  189.3390  172.6480  137.4200 C   0  0  2  0  0  3  0  0  0  0  0  0
  190.1810  171.5400  138.0850 C   0  0  1  0  0  3  0  0  0  0  0  0
  192.2050  172.4000  137.6230 C   0  0  0  0  0  2  0  0  0  0  0  0
  191.6260  173.4800  136.6910 C   0  0  0  0  0  2  0  0  0  0  0  0
  190.2010  173.8730  137.0910 C   0  0  0  0  0  2  0  0  0  0  0  0
  191.3330  172.0810  138.6810 O   0  0  0  0  0  0  0  0  0  0  0  0
  1 10  1  0  0  0  0
  1 12  1  0  0  0  0
  2  6  2  0  0  0  0
  2  8  1  0  0  0  0
  3  8  1  0  0  0  0
  3 11  2  0  0  0  0
  4  9  1  6  0  0  0
  4 14  1  0  0  0  0
  5 10  2  0  0  0  0
  6  5  1  0  0  0  0
  8  1  2  0  0  0  0
 11 18  1  0  0  0  0
 13  7  2  0  0  0  0
 14 15  1  0  0  0  0
 15 11  1  0  0  0  0
 15 21  1  6  0  0  0
 16  7  1  0  0  0  0
 16  9  1  0  0  0  0
 17  7  1  6  0  0  0
 17  4  1  0  0  0  0
 17  3  1  0  0  0  0
 18 12  2  0  0  0  0
 19 20  1  0  0  0  0
 20 22  2  0  0  0  0
 21 24  2  0  0  0  0
 23 19  2  0  0  0  0
 23 21  1  0  0  0  0
 24 22  1  0  0  0  0
 25 19  1  0  0  0  0
 26 16  1  0  0  0  0
 27 26  1  0  0  0  0
 29 30  1  0  0  0  0
 29 27  1  1  0  0  0
 30 34  1  0  0  0  0
 30 28  1  1  0  0  0
 31 34  1  0  0  0  0
 32 33  1  0  0  0  0
 32 31  1  0  0  0  0
 33 29  1  0  0  0  0
M  END
>  <MODEL>
5

>  <REMARK>
 VINA RESULT:      -8.2      3.150      6.400
  Name = 
  4 active torsions:
  status: ('A' for Active; 'I' for Inactive)
    1  A    between atoms: N_3  and  C_13
    2  A    between atoms: N_3  and  C_17
    3  A    between atoms: C_12  and  C_28
    4  A    between atoms: C_17  and  N_29
                            x       y       z     vdW  Elec       q    Type
                         _______ _______ _______ _____ _____    ______ ____

>  <TORSDO>
F 4

$$$$
=
 OpenBabel11052418453D

 34 39  0  0  1  0  0  0  0  0999 V2000
  188.8490  174.3150  140.9950 C   0  0  0  0  0  0  0  0  0  0  0  0
  191.1700  173.8080  141.4940 C   0  0  0  0  0  3  0  0  0  0  0  0
  189.7560  174.8760  143.2010 C   0  0  0  0  0  0  0  0  0  0  0  0
  190.5240  175.1350  145.6120 N   0  0  1  0  0  0  0  0  0  0  0  0
  190.2570  173.2840  139.3150 C   0  0  0  0  0  3  0  0  0  0  0  0
  191.3300  173.2870  140.2080 C   0  0  0  0  0  3  0  0  0  0  0  0
  191.9930  175.8450  143.9300 C   0  0  0  0  0  0  0  0  0  0  0  0
  189.9350  174.3400  141.9030 C   0  0  0  0  0  0  0  0  0  0  0  0
  191.7200  175.7460  146.2200 C   0  0  0  0  0  2  0  0  0  0  0  0
  189.0180  173.7940  139.7080 C   0  0  0  0  0  3  0  0  0  0  0  0
  188.4780  175.3440  143.5830 C   0  0  0  0  0  0  0  0  0  0  0  0
  187.5990  174.7860  141.3860 C   0  0  0  0  0  3  0  0  0  0  0  0
  192.4640  176.1440  142.8010 O   0  0  0  0  0  0  0  0  0  0  0  0
  189.5050  176.1830  145.7000 C   0  0  0  0  0  2  0  0  0  0  0  0
  188.2170  175.7660  145.0080 C   0  0  1  0  0  3  0  0  0  0  0  0
  192.5020  176.3300  145.1460 N   0  0  0  0  0  0  0  0  0  0  0  0
  190.9050  174.8840  144.2000 C   0  0  2  0  0  3  0  0  0  0  0  0
  187.4130  175.2800  142.6740 C   0  0  0  0  0  3  0  0  0  0  0  0
  185.2100  177.8260  146.1260 C   0  0  0  0  0  0  0  0  0  0  0  0
  185.3370  178.9500  145.3040 C   0  0  0  0  0  3  0  0  0  0  0  0
  187.2020  176.8670  145.1210 C   0  0  0  0  0  0  0  0  0  0  0  0
  186.3930  179.0330  144.3920 C   0  0  0  0  0  3  0  0  0  0  0  0
  186.1400  176.7860  146.0370 C   0  0  0  0  0  3  0  0  0  0  0  0
  187.3230  177.9940  144.3000 C   0  0  0  0  0  3  0  0  0  0  0  0
  184.1880  177.7460  147.0100 F   0  0  0  0  0  0  0  0  0  0  0  0
  193.7050  177.1290  145.3280 C   0  0  0  0  0  2  0  0  0  0  0  0
  194.8130  176.2830  145.7510 N   0  0  0  0  0  2  0  0  0  0  0  0
  195.6300  173.7920  146.1330 F   0  0  0  0  0  0  0  0  0  0  0  0
  195.3470  175.6270  144.5660 C   0  0  2  0  0  3  0  0  0  0  0  0
  196.0850  174.3260  144.9390 C   0  0  1  0  0  3  0  0  0  0  0  0
  197.9060  174.6510  143.6640 C   0  0  0  0  0  2  0  0  0  0  0  0
  197.2890  175.8660  142.9460 C   0  0  0  0  0  2  0  0  0  0  0  0
  196.2790  176.6000  143.8330 C   0  0  0  0  0  2  0  0  0  0  0  0
  197.4720  174.5410  144.9990 O   0  0  0  0  0  0  0  0  0  0  0  0
  1 12  2  0  0  0  0
  1  8  1  0  0  0  0
  2  8  1  0  0  0  0
  3 11  1  0  0  0  0
  4 14  1  6  0  0  0
  4  9  1  0  0  0  0
  5 10  2  0  0  0  0
  5  6  1  0  0  0  0
  6  2  2  0  0  0  0
  7 17  1  0  0  0  0
  7 16  1  0  0  0  0
  8  3  2  0  0  0  0
 10  1  1  0  0  0  0
 11 15  1  0  0  0  0
 12 18  1  0  0  0  0
 13  7  2  0  0  0  0
 15 21  1  6  0  0  0
 15 14  1  0  0  0  0
 16 26  1  0  0  0  0
 16  9  1  0  0  0  0
 17  3  1  6  0  0  0
 17  4  1  0  0  0  0
 18 11  2  0  0  0  0
 19 25  1  0  0  0  0
 20 19  2  0  0  0  0
 21 23  2  0  0  0  0
 22 20  1  0  0  0  0
 23 19  1  0  0  0  0
 24 22  2  0  0  0  0
 24 21  1  0  0  0  0
 26 27  1  0  0  0  0
 29 30  1  0  0  0  0
 29 27  1  1  0  0  0
 30 34  1  0  0  0  0
 30 28  1  1  0  0  0
 31 34  1  0  0  0  0
 32 31  1  0  0  0  0
 32 33  1  0  0  0  0
 33 29  1  0  0  0  0
M  END
>  <MODEL>
6

>  <REMARK>
 VINA RESULT:      -7.9      2.511      5.375
  Name = 
  4 active torsions:
  status: ('A' for Active; 'I' for Inactive)
    1  A    between atoms: N_3  and  C_13
    2  A    between atoms: N_3  and  C_17
    3  A    between atoms: C_12  and  C_28
    4  A    between atoms: C_17  and  N_29
                            x       y       z     vdW  Elec       q    Type
                         _______ _______ _______ _____ _____    ______ ____

>  <TORSDO>
F 4

$$$$
=
 OpenBabel11052418453D

 34 39  0  0  1  0  0  0  0  0999 V2000
  191.0570  173.2220  140.6640 C   0  0  0  0  0  0  0  0  0  0  0  0
  188.9400  174.1470  141.4060 C   0  0  0  0  0  3  0  0  0  0  0  0
  191.0500  175.1280  142.2040 C   0  0  0  0  0  0  0  0  0  0  0  0
  191.1100  177.3220  143.4890 N   0  0  1  0  0  0  0  0  0  0  0  0
  188.9730  172.2510  139.9030 C   0  0  0  0  0  3  0  0  0  0  0  0
  188.2590  173.1920  140.6470 C   0  0  0  0  0  3  0  0  0  0  0  0
  189.6100  175.6810  144.2280 C   0  0  0  0  0  0  0  0  0  0  0  0
  190.3440  174.1710  141.4370 C   0  0  0  0  0  0  0  0  0  0  0  0
  190.4340  177.7810  144.7160 C   0  0  0  0  0  2  0  0  0  0  0  0
  190.3700  172.2680  139.9080 C   0  0  0  0  0  3  0  0  0  0  0  0
  192.4620  175.1470  142.1530 C   0  0  0  0  0  0  0  0  0  0  0  0
  192.4490  173.2510  140.6300 C   0  0  0  0  0  3  0  0  0  0  0  0
  188.9970  174.5870  144.3460 O   0  0  0  0  0  0  0  0  0  0  0  0
  192.4260  176.8770  143.9540 C   0  0  0  0  0  2  0  0  0  0  0  0
  193.2340  176.2550  142.8250 C   0  0  1  0  0  3  0  0  0  0  0  0
  189.6630  176.6640  145.2300 N   0  0  0  0  0  0  0  0  0  0  0  0
  190.2990  176.1720  143.0180 C   0  0  2  0  0  3  0  0  0  0  0  0
  193.1430  174.2160  141.3560 C   0  0  0  0  0  3  0  0  0  0  0  0
  195.9390  174.6710  144.9960 C   0  0  0  0  0  0  0  0  0  0  0  0
  197.0880  175.0010  144.2700 C   0  0  0  0  0  3  0  0  0  0  0  0
  194.5720  175.8130  143.3450 C   0  0  0  0  0  0  0  0  0  0  0  0
  196.9810  175.7350  143.0860 C   0  0  0  0  0  3  0  0  0  0  0  0
  194.6820  175.0750  144.5350 C   0  0  0  0  0  3  0  0  0  0  0  0
  195.7260  176.1400  142.6240 C   0  0  0  0  0  3  0  0  0  0  0  0
  196.0420  173.9600  146.1420 F   0  0  0  0  0  0  0  0  0  0  0  0
  188.9330  176.6610  146.4890 C   0  0  0  0  0  2  0  0  0  0  0  0
  187.5100  176.4670  146.2470 N   0  0  0  0  0  2  0  0  0  0  0  0
  185.8960  177.0050  148.2780 F   0  0  0  0  0  0  0  0  0  0  0  0
  186.8860  177.7810  146.1990 C   0  0  2  0  0  3  0  0  0  0  0  0
  185.7360  177.8850  147.2210 C   0  0  1  0  0  3  0  0  0  0  0  0
  184.2270  178.8470  145.8610 C   0  0  0  0  0  2  0  0  0  0  0  0
  185.2620  179.0880  144.7470 C   0  0  0  0  0  2  0  0  0  0  0  0
  186.3830  178.0450  144.7740 C   0  0  0  0  0  2  0  0  0  0  0  0
  184.4950  177.6760  146.5970 O   0  0  0  0  0  0  0  0  0  0  0  0
  1  8  1  0  0  0  0
  2  8  1  0  0  0  0
  4 14  1  1  0  0  0
  4  9  1  0  0  0  0
  5 10  2  0  0  0  0
  5  6  1  0  0  0  0
  6  2  2  0  0  0  0
  7 13  2  0  0  0  0
  7 16  1  0  0  0  0
  8  3  2  0  0  0  0
  9 16  1  0  0  0  0
 10  1  1  0  0  0  0
 11  3  1  0  0  0  0
 11 15  1  0  0  0  0
 12  1  2  0  0  0  0
 12 18  1  0  0  0  0
 15 21  1  1  0  0  0
 15 14  1  0  0  0  0
 16 26  1  0  0  0  0
 17  3  1  1  0  0  0
 17  4  1  0  0  0  0
 17  7  1  0  0  0  0
 18 11  2  0  0  0  0
 19 25  1  0  0  0  0
 20 19  2  0  0  0  0
 21 23  2  0  0  0  0
 22 20  1  0  0  0  0
 23 19  1  0  0  0  0
 24 22  2  0  0  0  0
 24 21  1  0  0  0  0
 27 26  1  0  0  0  0
 29 27  1  6  0  0  0
 29 30  1  0  0  0  0
 30 28  1  1  0  0  0
 31 34  1  0  0  0  0
 32 33  1  0  0  0  0
 32 31  1  0  0  0  0
 33 29  1  0  0  0  0
 34 30  1  0  0  0  0
M  END
>  <MODEL>
7

>  <REMARK>
 VINA RESULT:      -7.8      2.810      7.687
  Name = 
  4 active torsions:
  status: ('A' for Active; 'I' for Inactive)
    1  A    between atoms: N_3  and  C_13
    2  A    between atoms: N_3  and  C_17
    3  A    between atoms: C_12  and  C_28
    4  A    between atoms: C_17  and  N_29
                            x       y       z     vdW  Elec       q    Type
                         _______ _______ _______ _____ _____    ______ ____

>  <TORSDO>
F 4

$$$$
=
 OpenBabel11052418453D

 34 39  0  0  1  0  0  0  0  0999 V2000
  194.3380  175.3430  142.5530 C   0  0  0  0  0  0  0  0  0  0  0  0
  194.0170  176.1450  144.8210 C   0  0  0  0  0  3  0  0  0  0  0  0
  192.2320  174.8660  143.7110 C   0  0  0  0  0  0  0  0  0  0  0  0
  190.1960  174.0220  144.9810 N   0  0  1  0  0  0  0  0  0  0  0  0
  196.0790  176.6210  143.6470 C   0  0  0  0  0  3  0  0  0  0  0  0
  195.2870  176.7250  144.7920 C   0  0  0  0  0  3  0  0  0  0  0  0
  190.7660  176.2810  145.2360 C   0  0  0  0  0  0  0  0  0  0  0  0
  193.5180  175.4570  143.7020 C   0  0  0  0  0  0  0  0  0  0  0  0
  189.1900  174.6980  145.8200 C   0  0  0  0  0  2  0  0  0  0  0  0
  195.6070  175.9280  142.5300 C   0  0  0  0  0  3  0  0  0  0  0  0
  191.8010  174.1340  142.5820 C   0  0  0  0  0  0  0  0  0  0  0  0
  193.8950  174.6230  141.4460 C   0  0  0  0  0  3  0  0  0  0  0  0
  191.3330  177.3950  145.0880 O   0  0  0  0  0  0  0  0  0  0  0  0
  189.5600  173.9330  143.6650 C   0  0  0  0  0  2  0  0  0  0  0  0
  190.5090  173.3570  142.6260 C   0  0  1  0  0  3  0  0  0  0  0  0
  189.4860  176.1190  145.7920 N   0  0  0  0  0  0  0  0  0  0  0  0
  191.3490  174.9550  144.9490 C   0  0  2  0  0  3  0  0  0  0  0  0
  192.6450  174.0110  141.4690 C   0  0  0  0  0  3  0  0  0  0  0  0
  188.4130  174.2640  139.5730 C   0  0  0  0  0  0  0  0  0  0  0  0
  188.5540  173.1070  138.8010 C   0  0  0  0  0  3  0  0  0  0  0  0
  189.8180  173.2840  141.2950 C   0  0  0  0  0  0  0  0  0  0  0  0
  189.3250  172.0400  139.2730 C   0  0  0  0  0  3  0  0  0  0  0  0
  189.0430  174.3540  140.8180 C   0  0  0  0  0  3  0  0  0  0  0  0
  189.9550  172.1290  140.5170 C   0  0  0  0  0  3  0  0  0  0  0  0
  187.6670  175.2960  139.1160 F   0  0  0  0  0  0  0  0  0  0  0  0
  188.6660  177.1560  146.4020 C   0  0  0  0  0  2  0  0  0  0  0  0
  187.2660  176.9620  146.0520 N   0  0  0  0  0  2  0  0  0  0  0  0
  185.9360  179.2520  146.1030 F   0  0  0  0  0  0  0  0  0  0  0  0
  187.0480  177.5700  144.7470 C   0  0  2  0  0  3  0  0  0  0  0  0
  186.0070  178.7050  144.8330 C   0  0  1  0  0  3  0  0  0  0  0  0
  184.8030  178.1290  143.0250 C   0  0  0  0  0  2  0  0  0  0  0  0
  185.8310  177.0750  142.5730 C   0  0  0  0  0  2  0  0  0  0  0  0
  186.6020  176.4870  143.7570 C   0  0  0  0  0  2  0  0  0  0  0  0
  184.7410  178.2500  144.4270 O   0  0  0  0  0  0  0  0  0  0  0  0
  1  8  1  0  0  0  0
  4 14  1  6  0  0  0
  4  9  1  0  0  0  0
  5  6  2  0  0  0  0
  6  2  1  0  0  0  0
  7 16  1  0  0  0  0
  8  3  1  0  0  0  0
  8  2  2  0  0  0  0
 10  1  2  0  0  0  0
 10  5  1  0  0  0  0
 11 15  1  0  0  0  0
 11  3  2  0  0  0  0
 12 18  2  0  0  0  0
 12  1  1  0  0  0  0
 13  7  2  0  0  0  0
 15 21  1  6  0  0  0
 15 14  1  0  0  0  0
 16  9  1  0  0  0  0
 16 26  1  0  0  0  0
 17  3  1  6  0  0  0
 17  4  1  0  0  0  0
 17  7  1  0  0  0  0
 18 11  1  0  0  0  0
 19 23  1  0  0  0  0
 20 22  1  0  0  0  0
 20 19  2  0  0  0  0
 22 24  2  0  0  0  0
 23 21  2  0  0  0  0
 24 21  1  0  0  0  0
 25 19  1  0  0  0  0
 27 26  1  0  0  0  0
 29 30  1  0  0  0  0
 29 27  1  1  0  0  0
 30 28  1  1  0  0  0
 31 34  1  0  0  0  0
 32 31  1  0  0  0  0
 32 33  1  0  0  0  0
 33 29  1  0  0  0  0
 34 30  1  0  0  0  0
M  END
>  <MODEL>
8

>  <REMARK>
 VINA RESULT:      -7.8      2.748      6.720
  Name = 
  4 active torsions:
  status: ('A' for Active; 'I' for Inactive)
    1  A    between atoms: N_3  and  C_13
    2  A    between atoms: N_3  and  C_17
    3  A    between atoms: C_12  and  C_28
    4  A    between atoms: C_17  and  N_29
                            x       y       z     vdW  Elec       q    Type
                         _______ _______ _______ _____ _____    ______ ____

>  <TORSDO>
F 4

$$$$
=
 OpenBabel11052418453D

 34 39  0  0  1  0  0  0  0  0999 V2000
  187.8820  177.3610  144.6500 C   0  0  0  0  0  0  0  0  0  0  0  0
  186.5420  176.1480  143.0310 C   0  0  0  0  0  3  0  0  0  0  0  0
  188.7860  175.3300  143.6200 C   0  0  0  0  0  0  0  0  0  0  0  0
  189.6200  173.0450  142.8780 N   0  0  1  0  0  0  0  0  0  0  0  0
  185.6810  178.1690  144.0460 C   0  0  0  0  0  3  0  0  0  0  0  0
  185.5210  177.0910  143.1730 C   0  0  0  0  0  3  0  0  0  0  0  0
  188.6930  174.4390  141.2390 C   0  0  0  0  0  0  0  0  0  0  0  0
  187.7390  176.2730  143.7550 C   0  0  0  0  0  0  0  0  0  0  0  0
  189.7340  172.4030  141.5560 C   0  0  0  0  0  2  0  0  0  0  0  0
  186.8580  178.3020  144.7860 C   0  0  0  0  0  3  0  0  0  0  0  0
  189.9460  175.4680  144.4160 C   0  0  0  0  0  0  0  0  0  0  0  0
  189.0340  177.4860  145.4220 C   0  0  0  0  0  3  0  0  0  0  0  0
  188.1980  175.4440  140.6640 O   0  0  0  0  0  0  0  0  0  0  0  0
  190.9590  173.5840  143.1280 C   0  0  0  0  0  2  0  0  0  0  0  0
  191.0020  174.3910  144.4150 C   0  0  1  0  0  3  0  0  0  0  0  0
  189.3190  173.3780  140.5640 N   0  0  0  0  0  0  0  0  0  0  0  0
  188.6380  174.1390  142.6830 C   0  0  2  0  0  3  0  0  0  0  0  0
  190.0490  176.5380  145.3170 C   0  0  0  0  0  3  0  0  0  0  0  0
  194.4280  175.9450  143.7960 C   0  0  0  0  0  0  0  0  0  0  0  0
  194.9700  175.9170  145.0850 C   0  0  0  0  0  3  0  0  0  0  0  0
  192.3890  174.9250  144.6320 C   0  0  0  0  0  0  0  0  0  0  0  0
  194.2240  175.3950  146.1450 C   0  0  0  0  0  3  0  0  0  0  0  0
  193.1410  175.4510  143.5680 C   0  0  0  0  0  3  0  0  0  0  0  0
  192.9370  174.8990  145.9190 C   0  0  0  0  0  3  0  0  0  0  0  0
  195.1500  176.4530  142.7690 F   0  0  0  0  0  0  0  0  0  0  0  0
  189.3870  173.1840  139.1220 C   0  0  0  0  0  2  0  0  0  0  0  0
  190.7200  173.5060  138.6330 N   0  0  0  0  0  2  0  0  0  0  0  0
  190.9290  174.8620  136.3670 F   0  0  0  0  0  0  0  0  0  0  0  0
  190.9680  172.6890  137.4530 C   0  0  2  0  0  3  0  0  0  0  0  0
  190.7540  173.5040  136.1620 C   0  0  1  0  0  3  0  0  0  0  0  0
  189.5500  171.9680  135.0480 C   0  0  0  0  0  2  0  0  0  0  0  0
  189.8220  170.8730  136.0960 C   0  0  0  0  0  2  0  0  0  0  0  0
  190.0470  171.4630  137.4910 C   0  0  0  0  0  2  0  0  0  0  0  0
  189.4820  173.2530  135.6200 O   0  0  0  0  0  0  0  0  0  0  0  0
  1 10  1  0  0  0  0
  1 12  1  0  0  0  0
  2  6  2  0  0  0  0
  2  8  1  0  0  0  0
  3  8  1  0  0  0  0
  3 11  2  0  0  0  0
  4  9  1  6  0  0  0
  4 14  1  0  0  0  0
  5 10  2  0  0  0  0
  6  5  1  0  0  0  0
  8  1  2  0  0  0  0
 11 18  1  0  0  0  0
 13  7  2  0  0  0  0
 14 15  1  0  0  0  0
 15 11  1  0  0  0  0
 15 21  1  6  0  0  0
 16  7  1  0  0  0  0
 16  9  1  0  0  0  0
 17  7  1  6  0  0  0
 17  4  1  0  0  0  0
 17  3  1  0  0  0  0
 18 12  2  0  0  0  0
 19 20  1  0  0  0  0
 20 22  2  0  0  0  0
 21 24  2  0  0  0  0
 23 19  2  0  0  0  0
 23 21  1  0  0  0  0
 24 22  1  0  0  0  0
 25 19  1  0  0  0  0
 26 16  1  0  0  0  0
 27 26  1  0  0  0  0
 29 33  1  0  0  0  0
 29 27  1  1  0  0  0
 30 28  1  1  0  0  0
 30 29  1  0  0  0  0
 31 34  1  0  0  0  0
 31 32  1  0  0  0  0
 32 33  1  0  0  0  0
 34 30  1  0  0  0  0
M  END
>  <MODEL>
9

>  <REMARK>
 VINA RESULT:      -7.8      3.373      6.755
  Name = 
  4 active torsions:
  status: ('A' for Active; 'I' for Inactive)
    1  A    between atoms: N_3  and  C_13
    2  A    between atoms: N_3  and  C_17
    3  A    between atoms: C_12  and  C_28
    4  A    between atoms: C_17  and  N_29
                            x       y       z     vdW  Elec       q    Type
                         _______ _______ _______ _____ _____    ______ ____

>  <TORSDO>
F 4

$$$$
