=
 OpenBabel11052417063D

 30 34  0  0  1  0  0  0  0  0999 V2000
  188.2040  176.4700  142.0960 C   0  0  2  0  0  3  0  0  0  0  0  0
  189.1540  174.2640  140.8490 C   0  0  1  0  0  3  0  0  0  0  0  0
  190.4200  176.0740  143.8940 C   0  0  2  0  0  0  0  0  0  0  0  0
  187.4370  176.5640  143.3700 N   0  0  2  0  0  0  0  0  0  0  0  0
  187.2920  176.7020  140.9090 C   0  0  0  0  0  2  0  0  0  0  0  0
  184.7890  178.1860  142.4880 N   0  0  0  0  0  2  0  0  0  0  0  0
  186.2060  178.5120  142.4080 C   0  0  2  0  0  3  0  0  0  0  0  0
  185.4260  178.0560  140.2070 N   0  0  0  0  0  2  0  0  0  0  0  0
  186.6600  178.0990  140.9760 C   0  0  2  0  0  3  0  0  0  0  0  0
  187.0530  177.9680  143.5810 C   0  0  1  0  0  3  0  0  0  0  0  0
  190.4070  173.4050  140.7530 C   0  0  0  0  0  3  0  0  0  0  0  0
  183.1680  177.8620  140.8220 O   0  0  0  0  0  0  0  0  0  0  0  0
  187.7380  173.2170  141.1210 Cl  0  0  0  0  0  0  0  0  0  0  0  0
  191.1940  174.7460  143.5880 C   0  0  2  0  0  3  0  0  0  0  0  0
  191.6090  173.5980  141.3480 C   0  0  0  0  0  3  0  0  0  0  0  0
  184.3730  178.0260  141.1490 C   0  0  0  0  0  0  0  0  0  0  0  0
  189.2500  175.3350  141.9270 C   0  0  2  0  0  3  0  0  0  0  0  0
  187.9820  175.9860  144.5070 O   0  0  0  0  0  0  0  0  0  0  0  0
  189.2740  176.5180  144.8540 C   0  0  1  0  0  3  0  0  0  0  0  0
  191.9920  174.7430  142.2680 C   0  0  0  0  0  2  0  0  0  0  0  0
  189.7580  174.8400  143.2470 C   0  0  2  0  0  3  0  0  0  0  0  0
  190.8000  177.1130  143.0140 O   0  0  0  0  0  0  0  0  0  0  0  0
  190.9240  178.2620  143.8000 C   0  0  0  0  0  1  0  0  0  0  0  0
  185.7620  179.6040  145.0470 C   0  0  0  0  0  1  0  0  0  0  0  0
  186.4190  178.2340  144.9550 C   0  0  0  0  0  2  0  0  0  0  0  0
  189.6070  176.1520  146.3040 C   0  0  1  0  0  3  0  0  0  0  0  0
  191.3780  176.8220  148.1170 C   0  0  0  0  0  1  0  0  0  0  0  0
  189.9920  177.6420  147.2810 S   0  0  0  0  0  0  0  0  0  0  0  0
  188.4430  175.4240  146.9590 C   0  0  0  0  0  2  0  0  0  0  0  0
  188.9150  174.3370  147.6960 O   0  0  0  0  0  1  0  0  0  0  0  0
  1  5  1  6  0  0  0
  1  4  1  0  0  0  0
  2 13  1  1  0  0  0
  2 17  1  0  0  0  0
  3 22  1  6  0  0  0
  3 19  1  0  0  0  0
  4 10  1  0  0  0  0
  4 18  1  1  0  0  0
  7  6  1  1  0  0  0
  7 10  1  0  0  0  0
  8  9  1  0  0  0  0
  8 16  1  0  0  0  0
  9  5  1  1  0  0  0
  9  7  1  0  0  0  0
 10 25  1  1  0  0  0
 11  2  1  0  0  0  0
 11 15  2  0  0  0  0
 12 16  2  0  0  0  0
 14 20  1  6  0  0  0
 14  3  1  0  0  0  0
 15 20  1  0  0  0  0
 16  6  1  0  0  0  0
 17  1  1  0  0  0  0
 17 21  1  0  0  0  0
 18 19  1  0  0  0  0
 19 26  1  0  0  0  0
 21 14  1  0  0  0  0
 21  3  1  0  0  0  0
 22 23  1  0  0  0  0
 25 24  1  0  0  0  0
 26 29  1  0  0  0  0
 26 28  1  0  0  0  0
 28 27  1  0  0  0  0
 29 30  1  0  0  0  0
M  END
>  <MODEL>
1

>  <REMARK>
 VINA RESULT:      -7.1      0.000      0.000
  Name = 
  5 active torsions:
  status: ('A' for Active; 'I' for Inactive)
    1  A    between atoms: C_3  and  O_11
    2  A    between atoms: C_10  and  C_15
    3  A    between atoms: C_10  and  C_25
    4  A    between atoms: C_10  and  S_26
    5  A    between atoms: C_13  and  C_30
                            x       y       z     vdW  Elec       q    Type
                         _______ _______ _______ _____ _____    ______ ____

>  <TORSDO>
F 5

$$$$
=
 OpenBabel11052417063D

 30 34  0  0  1  0  0  0  0  0999 V2000
  191.9610  174.4140  143.0620 C   0  0  2  0  0  3  0  0  0  0  0  0
  194.1270  173.6510  144.4950 C   0  0  1  0  0  3  0  0  0  0  0  0
  191.6710  176.4370  145.0920 C   0  0  2  0  0  0  0  0  0  0  0  0
  190.5190  174.1850  143.3570 N   0  0  2  0  0  0  0  0  0  0  0  0
  192.4260  173.5020  141.9450 C   0  0  0  0  0  2  0  0  0  0  0  0
  189.4690  172.7200  140.6790 N   0  0  0  0  0  2  0  0  0  0  0  0
  190.1120  174.0080  140.8990 C   0  0  2  0  0  3  0  0  0  0  0  0
  191.6870  172.5650  139.8520 N   0  0  0  0  0  2  0  0  0  0  0  0
  191.6340  173.7740  140.6590 C   0  0  2  0  0  3  0  0  0  0  0  0
  189.7250  174.6950  142.2300 C   0  0  1  0  0  3  0  0  0  0  0  0
  195.0740  174.1610  145.5720 C   0  0  0  0  0  3  0  0  0  0  0  0
  190.1610  170.8160  139.4940 O   0  0  0  0  0  0  0  0  0  0  0  0
  193.5510  172.0230  144.9340 Cl  0  0  0  0  0  0  0  0  0  0  0  0
  192.7060  176.2550  146.2550 C   0  0  2  0  0  3  0  0  0  0  0  0
  195.1010  175.3810  146.1620 C   0  0  0  0  0  3  0  0  0  0  0  0
  190.4190  171.9520  139.9710 C   0  0  0  0  0  0  0  0  0  0  0  0
  192.9550  174.5890  144.2420 C   0  0  2  0  0  3  0  0  0  0  0  0
  190.0270  174.6020  144.5850 O   0  0  0  0  0  0  0  0  0  0  0  0
  190.1960  176.0120  144.8170 C   0  0  1  0  0  3  0  0  0  0  0  0
  194.1730  176.5470  145.8770 C   0  0  0  0  0  2  0  0  0  0  0  0
  192.2690  175.0710  145.4860 C   0  0  2  0  0  3  0  0  0  0  0  0
  192.2510  177.0750  143.9730 O   0  0  0  0  0  0  0  0  0  0  0  0
  191.3170  178.0180  143.5340 C   0  0  0  0  0  1  0  0  0  0  0  0
  187.5030  175.8940  141.8850 C   0  0  0  0  0  1  0  0  0  0  0  0
  188.2100  174.6900  142.4890 C   0  0  0  0  0  2  0  0  0  0  0  0
  189.2780  176.4580  145.9610 C   0  0  1  0  0  3  0  0  0  0  0  0
  186.7370  176.6970  146.5580 C   0  0  0  0  0  1  0  0  0  0  0  0
  187.8620  177.4150  145.3280 S   0  0  0  0  0  0  0  0  0  0  0  0
  188.7540  175.2570  146.7320 C   0  0  0  0  0  2  0  0  0  0  0  0
  189.6570  174.9010  147.7340 O   0  0  0  0  0  1  0  0  0  0  0  0
  1  5  1  1  0  0  0
  1  4  1  0  0  0  0
  1 17  1  0  0  0  0
  2 13  1  1  0  0  0
  2 11  1  0  0  0  0
  3 22  1  6  0  0  0
  3 21  1  0  0  0  0
  3 14  1  0  0  0  0
  4 18  1  1  0  0  0
  7  6  1  1  0  0  0
  7 10  1  0  0  0  0
  8 16  1  0  0  0  0
  8  9  1  0  0  0  0
  9  7  1  0  0  0  0
  9  5  1  1  0  0  0
 10 25  1  1  0  0  0
 10  4  1  0  0  0  0
 11 15  2  0  0  0  0
 12 16  2  0  0  0  0
 14 20  1  6  0  0  0
 16  6  1  0  0  0  0
 17  2  1  0  0  0  0
 17 21  1  0  0  0  0
 18 19  1  0  0  0  0
 19  3  1  0  0  0  0
 19 26  1  0  0  0  0
 20 15  1  0  0  0  0
 21 14  1  0  0  0  0
 23 22  1  0  0  0  0
 24 25  1  0  0  0  0
 26 29  1  0  0  0  0
 28 26  1  0  0  0  0
 28 27  1  0  0  0  0
 29 30  1  0  0  0  0
M  END
>  <MODEL>
2

>  <REMARK>
 VINA RESULT:      -6.8      3.268      5.180
  Name = 
  5 active torsions:
  status: ('A' for Active; 'I' for Inactive)
    1  A    between atoms: C_3  and  O_11
    2  A    between atoms: C_10  and  C_15
    3  A    between atoms: C_10  and  C_25
    4  A    between atoms: C_10  and  S_26
    5  A    between atoms: C_13  and  C_30
                            x       y       z     vdW  Elec       q    Type
                         _______ _______ _______ _____ _____    ______ ____

>  <TORSDO>
F 5

$$$$
=
 OpenBabel11052417063D

 30 34  0  0  1  0  0  0  0  0999 V2000
  188.6370  175.1500  142.8870 C   0  0  2  0  0  3  0  0  0  0  0  0
  186.8570  177.1860  142.7980 C   0  0  1  0  0  3  0  0  0  0  0  0
  189.4410  176.3250  145.3920 C   0  0  2  0  0  0  0  0  0  0  0  0
  190.1020  175.1790  142.6240 N   0  0  2  0  0  0  0  0  0  0  0  0
  187.9020  174.5060  141.7290 C   0  0  0  0  0  2  0  0  0  0  0  0
  190.4590  172.9370  140.3290 N   0  0  0  0  0  2  0  0  0  0  0  0
  189.9130  172.8760  141.6770 C   0  0  2  0  0  3  0  0  0  0  0  0
  188.1060  172.7070  140.1390 N   0  0  0  0  0  2  0  0  0  0  0  0
  188.3740  173.0600  141.5250 C   0  0  2  0  0  3  0  0  0  0  0  0
  190.6180  173.8040  142.6940 C   0  0  1  0  0  3  0  0  0  0  0  0
  186.2020  178.2270  143.6950 C   0  0  0  0  0  3  0  0  0  0  0  0
  189.4680  172.5930  138.2300 O   0  0  0  0  0  0  0  0  0  0  0  0
  187.4860  177.9780  141.3310 Cl  0  0  0  0  0  0  0  0  0  0  0  0
  188.7070  177.6810  145.6660 C   0  0  2  0  0  3  0  0  0  0  0  0
  186.3410  178.3940  145.0320 C   0  0  0  0  0  3  0  0  0  0  0  0
  189.3530  172.7330  139.4750 C   0  0  0  0  0  0  0  0  0  0  0  0
  187.9550  176.4010  143.5020 C   0  0  2  0  0  3  0  0  0  0  0  0
  190.8800  176.0740  143.3440 O   0  0  0  0  0  0  0  0  0  0  0  0
  190.8000  175.8820  144.7680 C   0  0  1  0  0  3  0  0  0  0  0  0
  187.1980  177.5600  145.9670 C   0  0  0  0  0  2  0  0  0  0  0  0
  188.9250  177.2480  144.2700 C   0  0  2  0  0  3  0  0  0  0  0  0
  188.6260  175.2170  145.7140 O   0  0  0  0  0  0  0  0  0  0  0  0
  189.4530  174.3030  146.3730 C   0  0  0  0  0  1  0  0  0  0  0  0
  192.7490  172.9170  143.7750 C   0  0  0  0  0  1  0  0  0  0  0  0
  192.1510  173.7150  142.6260 C   0  0  0  0  0  2  0  0  0  0  0  0
  191.9710  176.5980  145.4500 C   0  0  1  0  0  3  0  0  0  0  0  0
  191.7740  176.6770  148.0620 C   0  0  0  0  0  1  0  0  0  0  0  0
  192.6100  175.6200  146.8480 S   0  0  0  0  0  0  0  0  0  0  0  0
  193.1030  176.8420  144.4640 C   0  0  0  0  0  2  0  0  0  0  0  0
  194.1920  176.0290  144.7770 O   0  0  0  0  0  1  0  0  0  0  0  0
  1  5  1  6  0  0  0
  1 17  1  0  0  0  0
  2 13  1  6  0  0  0
  2 17  1  0  0  0  0
  2 11  1  0  0  0  0
  3 14  1  0  0  0  0
  3 22  1  1  0  0  0
  4 10  1  0  0  0  0
  4  1  1  0  0  0  0
  4 18  1  1  0  0  0
  7  6  1  6  0  0  0
  7 10  1  0  0  0  0
  8  9  1  0  0  0  0
  9  7  1  0  0  0  0
  9  5  1  6  0  0  0
 10 25  1  6  0  0  0
 11 15  2  0  0  0  0
 12 16  2  0  0  0  0
 14 20  1  1  0  0  0
 15 20  1  0  0  0  0
 16  8  1  0  0  0  0
 16  6  1  0  0  0  0
 17 21  1  0  0  0  0
 18 19  1  0  0  0  0
 19  3  1  0  0  0  0
 19 26  1  0  0  0  0
 21  3  1  0  0  0  0
 21 14  1  0  0  0  0
 22 23  1  0  0  0  0
 25 24  1  0  0  0  0
 26 28  1  0  0  0  0
 28 27  1  0  0  0  0
 29 30  1  0  0  0  0
 29 26  1  0  0  0  0
M  END
>  <MODEL>
3

>  <REMARK>
 VINA RESULT:      -6.7      2.780      5.419
  Name = 
  5 active torsions:
  status: ('A' for Active; 'I' for Inactive)
    1  A    between atoms: C_3  and  O_11
    2  A    between atoms: C_10  and  C_15
    3  A    between atoms: C_10  and  C_25
    4  A    between atoms: C_10  and  S_26
    5  A    between atoms: C_13  and  C_30
                            x       y       z     vdW  Elec       q    Type
                         _______ _______ _______ _____ _____    ______ ____

>  <TORSDO>
F 5

$$$$
=
 OpenBabel11052417063D

 30 34  0  0  1  0  0  0  0  0999 V2000
  190.7220  176.1890  144.6660 C   0  0  2  0  0  3  0  0  0  0  0  0
  188.8950  176.3320  146.6570 C   0  0  1  0  0  3  0  0  0  0  0  0
  188.4230  176.1200  142.9310 C   0  0  2  0  0  0  0  0  0  0  0  0
  191.1280  175.0080  143.8550 N   0  0  2  0  0  0  0  0  0  0  0  0
  191.7960  176.5340  145.6770 C   0  0  0  0  0  2  0  0  0  0  0  0
  194.3260  174.9130  144.2870 N   0  0  0  0  0  2  0  0  0  0  0  0
  193.4410  175.9450  143.7670 C   0  0  2  0  0  3  0  0  0  0  0  0
  194.1920  176.6310  145.9170 N   0  0  0  0  0  2  0  0  0  0  0  0
  193.1150  176.8780  144.9710 C   0  0  2  0  0  3  0  0  0  0  0  0
  192.2320  175.4060  142.9680 C   0  0  1  0  0  3  0  0  0  0  0  0
  187.4260  176.6490  146.8950 C   0  0  0  0  0  3  0  0  0  0  0  0
  195.7050  174.8550  146.1860 O   0  0  0  0  0  0  0  0  0  0  0  0
  189.3080  174.7960  147.4600 Cl  0  0  0  0  0  0  0  0  0  0  0  0
  187.0820  176.0440  143.7380 C   0  0  2  0  0  3  0  0  0  0  0  0
  186.4970  177.0660  146.0010 C   0  0  0  0  0  3  0  0  0  0  0  0
  194.8090  175.4260  145.5110 C   0  0  0  0  0  0  0  0  0  0  0  0
  189.2610  176.2860  145.1800 C   0  0  2  0  0  3  0  0  0  0  0  0
  190.1400  174.3000  143.1870 O   0  0  0  0  0  0  0  0  0  0  0  0
  189.3940  175.1040  142.2550 C   0  0  1  0  0  3  0  0  0  0  0  0
  186.7150  177.3220  144.5200 C   0  0  0  0  0  2  0  0  0  0  0  0
  188.3150  175.4870  144.3340 C   0  0  2  0  0  3  0  0  0  0  0  0
  188.9240  177.4400  142.8780 O   0  0  0  0  0  0  0  0  0  0  0  0
  188.6280  177.9180  141.5980 C   0  0  0  0  0  1  0  0  0  0  0  0
  193.4350  174.8820  140.7840 C   0  0  0  0  0  1  0  0  0  0  0  0
  192.6210  174.3290  141.9440 C   0  0  0  0  0  2  0  0  0  0  0  0
  188.6370  174.1940  141.2820 C   0  0  1  0  0  3  0  0  0  0  0  0
  190.0220  172.2860  140.1360 C   0  0  0  0  0  1  0  0  0  0  0  0
  189.5620  173.9920  139.7240 S   0  0  0  0  0  0  0  0  0  0  0  0
  188.4040  172.8220  141.8950 C   0  0  0  0  0  2  0  0  0  0  0  0
  187.0360  172.5930  142.0470 O   0  0  0  0  0  1  0  0  0  0  0  0
  1 17  1  0  0  0  0
  1  5  1  1  0  0  0
  2 11  1  0  0  0  0
  2 13  1  6  0  0  0
  3 22  1  1  0  0  0
  3 14  1  0  0  0  0
  3 21  1  0  0  0  0
  4 18  1  6  0  0  0
  4  1  1  0  0  0  0
  6 16  1  0  0  0  0
  7  6  1  1  0  0  0
  7  9  1  0  0  0  0
  9  5  1  1  0  0  0
  9  8  1  0  0  0  0
 10 25  1  1  0  0  0
 10  7  1  0  0  0  0
 10  4  1  0  0  0  0
 14 21  1  0  0  0  0
 14 20  1  1  0  0  0
 15 11  2  0  0  0  0
 16  8  1  0  0  0  0
 16 12  2  0  0  0  0
 17  2  1  0  0  0  0
 19  3  1  0  0  0  0
 19 18  1  0  0  0  0
 20 15  1  0  0  0  0
 21 17  1  0  0  0  0
 23 22  1  0  0  0  0
 24 25  1  0  0  0  0
 26 29  1  0  0  0  0
 26 19  1  0  0  0  0
 28 27  1  0  0  0  0
 28 26  1  0  0  0  0
 29 30  1  0  0  0  0
M  END
>  <MODEL>
4

>  <REMARK>
 VINA RESULT:      -6.7      3.518      7.076
  Name = 
  5 active torsions:
  status: ('A' for Active; 'I' for Inactive)
    1  A    between atoms: C_3  and  O_11
    2  A    between atoms: C_10  and  C_15
    3  A    between atoms: C_10  and  C_25
    4  A    between atoms: C_10  and  S_26
    5  A    between atoms: C_13  and  C_30
                            x       y       z     vdW  Elec       q    Type
                         _______ _______ _______ _____ _____    ______ ____

>  <TORSDO>
F 5

$$$$
=
 OpenBabel11052417063D

 30 34  0  0  1  0  0  0  0  0999 V2000
  189.2380  174.9380  142.3790 C   0  0  2  0  0  3  0  0  0  0  0  0
  187.8490  177.1300  143.1450 C   0  0  1  0  0  3  0  0  0  0  0  0
  190.3080  175.0160  145.0530 C   0  0  2  0  0  0  0  0  0  0  0  0
  190.6770  174.8260  142.0130 N   0  0  2  0  0  0  0  0  0  0  0  0
  188.3690  174.8670  141.1400 C   0  0  0  0  0  2  0  0  0  0  0  0
  190.5640  173.5060  139.0700 N   0  0  0  0  0  2  0  0  0  0  0  0
  190.0530  173.0620  140.3590 C   0  0  2  0  0  3  0  0  0  0  0  0
  188.2030  173.7320  139.0210 N   0  0  0  0  0  2  0  0  0  0  0  0
  188.5680  173.5290  140.4150 C   0  0  2  0  0  3  0  0  0  0  0  0
  190.9410  173.4500  141.5650 C   0  0  1  0  0  3  0  0  0  0  0  0
  187.4170  177.8800  144.3980 C   0  0  0  0  0  3  0  0  0  0  0  0
  189.4700  174.0820  137.0750 O   0  0  0  0  0  0  0  0  0  0  0  0
  188.5700  178.2770  141.9870 Cl  0  0  0  0  0  0  0  0  0  0  0  0
  189.8360  176.2880  145.8360 C   0  0  2  0  0  3  0  0  0  0  0  0
  187.6200  177.5430  145.6940 C   0  0  0  0  0  3  0  0  0  0  0  0
  189.4160  173.7910  138.2980 C   0  0  0  0  0  0  0  0  0  0  0  0
  188.8080  175.9850  143.4410 C   0  0  2  0  0  3  0  0  0  0  0  0
  191.6220  175.2760  142.9240 O   0  0  0  0  0  0  0  0  0  0  0  0
  191.5480  174.6120  144.1980 C   0  0  1  0  0  3  0  0  0  0  0  0
  188.3390  176.3100  146.2090 C   0  0  0  0  0  2  0  0  0  0  0  0
  189.9350  176.3440  144.3620 C   0  0  2  0  0  3  0  0  0  0  0  0
  189.3160  174.0100  145.0480 O   0  0  0  0  0  0  0  0  0  0  0  0
  190.0000  172.7900  145.0290 C   0  0  0  0  0  1  0  0  0  0  0  0
  192.8050  171.7180  141.6880 C   0  0  0  0  0  1  0  0  0  0  0  0
  192.4290  173.1490  141.3350 C   0  0  0  0  0  2  0  0  0  0  0  0
  192.8460  174.8480  144.9770 C   0  0  1  0  0  3  0  0  0  0  0  0
  195.3890  174.2850  145.2720 C   0  0  0  0  0  1  0  0  0  0  0  0
  193.8620  173.3360  145.0280 S   0  0  0  0  0  0  0  0  0  0  0  0
  193.6610  175.9650  144.3430 C   0  0  0  0  0  2  0  0  0  0  0  0
  193.4250  177.1660  145.0130 O   0  0  0  0  0  1  0  0  0  0  0  0
  1  5  1  6  0  0  0
  1 17  1  0  0  0  0
  2 13  1  6  0  0  0
  2 17  1  0  0  0  0
  2 11  1  0  0  0  0
  3 22  1  6  0  0  0
  3 14  1  0  0  0  0
  4  1  1  0  0  0  0
  4 18  1  1  0  0  0
  7  6  1  6  0  0  0
  7  9  1  0  0  0  0
  7 10  1  0  0  0  0
  8  9  1  0  0  0  0
  9  5  1  1  0  0  0
 10 25  1  6  0  0  0
 10  4  1  0  0  0  0
 11 15  2  0  0  0  0
 12 16  2  0  0  0  0
 14 20  1  6  0  0  0
 15 20  1  0  0  0  0
 16  8  1  0  0  0  0
 16  6  1  0  0  0  0
 17 21  1  0  0  0  0
 18 19  1  0  0  0  0
 19 26  1  0  0  0  0
 19  3  1  0  0  0  0
 21  3  1  0  0  0  0
 21 14  1  0  0  0  0
 23 22  1  0  0  0  0
 25 24  1  0  0  0  0
 26 28  1  0  0  0  0
 28 27  1  0  0  0  0
 29 26  1  0  0  0  0
 29 30  1  0  0  0  0
M  END
>  <MODEL>
5

>  <REMARK>
 VINA RESULT:      -6.5      3.185      5.658
  Name = 
  5 active torsions:
  status: ('A' for Active; 'I' for Inactive)
    1  A    between atoms: C_3  and  O_11
    2  A    between atoms: C_10  and  C_15
    3  A    between atoms: C_10  and  C_25
    4  A    between atoms: C_10  and  S_26
    5  A    between atoms: C_13  and  C_30
                            x       y       z     vdW  Elec       q    Type
                         _______ _______ _______ _____ _____    ______ ____

>  <TORSDO>
F 5

$$$$
=
 OpenBabel11052417063D

 30 34  0  0  1  0  0  0  0  0999 V2000
  188.3930  177.0200  145.1090 C   0  0  2  0  0  3  0  0  0  0  0  0
  185.9050  177.8000  145.8310 C   0  0  1  0  0  3  0  0  0  0  0  0
  187.2880  176.9020  142.4510 C   0  0  2  0  0  0  0  0  0  0  0  0
  188.8790  175.6560  144.7590 N   0  0  2  0  0  0  0  0  0  0  0  0
  188.8780  177.4190  146.4870 C   0  0  0  0  0  2  0  0  0  0  0  0
  191.3450  175.2340  146.7980 N   0  0  0  0  0  2  0  0  0  0  0  0
  191.0770  176.2460  145.7860 C   0  0  2  0  0  3  0  0  0  0  0  0
  190.8030  177.2490  147.9260 N   0  0  0  0  0  2  0  0  0  0  0  0
  190.4120  177.4370  146.5380 C   0  0  2  0  0  3  0  0  0  0  0  0
  190.3310  175.7190  144.5380 C   0  0  1  0  0  3  0  0  0  0  0  0
  184.6150  178.3470  145.2350 C   0  0  0  0  0  3  0  0  0  0  0  0
  191.5660  175.3820  149.1300 O   0  0  0  0  0  0  0  0  0  0  0  0
  185.5280  176.4170  146.8910 Cl  0  0  0  0  0  0  0  0  0  0  0  0
  185.7440  177.1660  142.4450 C   0  0  2  0  0  3  0  0  0  0  0  0
  184.3610  178.6920  143.9500 C   0  0  0  0  0  3  0  0  0  0  0  0
  191.2630  175.9160  148.0310 C   0  0  0  0  0  0  0  0  0  0  0  0
  186.9280  177.4080  144.7740 C   0  0  2  0  0  3  0  0  0  0  0  0
  188.2190  174.9630  143.7540 O   0  0  0  0  0  0  0  0  0  0  0  0
  188.2200  175.6520  142.4910 C   0  0  1  0  0  3  0  0  0  0  0  0
  185.3260  178.6120  142.7810 C   0  0  0  0  0  2  0  0  0  0  0  0
  186.3720  176.5850  143.6500 C   0  0  2  0  0  3  0  0  0  0  0  0
  188.0220  178.1070  142.5250 O   0  0  0  0  0  0  0  0  0  0  0  0
  189.2350  177.8650  141.8720 C   0  0  0  0  0  1  0  0  0  0  0  0
  192.0430  174.6550  142.9790 C   0  0  0  0  0  1  0  0  0  0  0  0
  190.9300  174.4150  143.9880 C   0  0  0  0  0  2  0  0  0  0  0  0
  187.8630  174.6700  141.3700 C   0  0  1  0  0  3  0  0  0  0  0  0
  188.1920  174.1680  138.8180 C   0  0  0  0  0  1  0  0  0  0  0  0
  189.2780  174.4120  140.2510 S   0  0  0  0  0  0  0  0  0  0  0  0
  187.4400  173.3260  141.9430 C   0  0  0  0  0  2  0  0  0  0  0  0
  188.4990  172.4210  141.8690 O   0  0  0  0  0  1  0  0  0  0  0  0
  1  5  1  1  0  0  0
  2 13  1  6  0  0  0
  3 19  1  0  0  0  0
  3 22  1  1  0  0  0
  3 21  1  0  0  0  0
  4 18  1  6  0  0  0
  4  1  1  0  0  0  0
  6 16  1  0  0  0  0
  7  9  1  0  0  0  0
  7  6  1  1  0  0  0
  8 16  1  0  0  0  0
  9  5  1  1  0  0  0
  9  8  1  0  0  0  0
 10 25  1  1  0  0  0
 10  4  1  0  0  0  0
 10  7  1  0  0  0  0
 11  2  1  0  0  0  0
 14  3  1  0  0  0  0
 14 20  1  1  0  0  0
 14 21  1  0  0  0  0
 15 11  2  0  0  0  0
 16 12  2  0  0  0  0
 17  1  1  0  0  0  0
 17  2  1  0  0  0  0
 19 18  1  0  0  0  0
 20 15  1  0  0  0  0
 21 17  1  0  0  0  0
 23 22  1  0  0  0  0
 24 25  1  0  0  0  0
 26 29  1  0  0  0  0
 26 19  1  0  0  0  0
 27 28  1  0  0  0  0
 28 26  1  0  0  0  0
 30 29  1  0  0  0  0
M  END
>  <MODEL>
6

>  <REMARK>
 VINA RESULT:      -6.3      3.055      6.702
  Name = 
  5 active torsions:
  status: ('A' for Active; 'I' for Inactive)
    1  A    between atoms: C_3  and  O_11
    2  A    between atoms: C_10  and  C_15
    3  A    between atoms: C_10  and  C_25
    4  A    between atoms: C_10  and  S_26
    5  A    between atoms: C_13  and  C_30
                            x       y       z     vdW  Elec       q    Type
                         _______ _______ _______ _____ _____    ______ ____

>  <TORSDO>
F 5

$$$$
=
 OpenBabel11052417063D

 30 34  0  0  1  0  0  0  0  0999 V2000
  190.6620  174.7580  143.3870 C   0  0  2  0  0  3  0  0  0  0  0  0
  189.5500  176.5340  145.0990 C   0  0  1  0  0  3  0  0  0  0  0  0
  192.9820  174.9930  145.0790 C   0  0  2  0  0  0  0  0  0  0  0  0
  191.6610  175.0000  142.3090 N   0  0  2  0  0  0  0  0  0  0  0  0
  189.2870  174.5270  142.7930 C   0  0  0  0  0  2  0  0  0  0  0  0
  190.2000  173.7930  139.6970 N   0  0  0  0  0  2  0  0  0  0  0  0
  190.5630  173.1970  140.9750 C   0  0  2  0  0  3  0  0  0  0  0  0
  188.2000  173.4580  140.9270 N   0  0  0  0  0  2  0  0  0  0  0  0
  189.2940  173.2990  141.8720 C   0  0  2  0  0  3  0  0  0  0  0  0
  191.8780  173.7410  141.5810 C   0  0  1  0  0  3  0  0  0  0  0  0
  189.7450  177.1180  146.4910 C   0  0  0  0  0  3  0  0  0  0  0  0
  188.1130  174.1630  138.6890 O   0  0  0  0  0  0  0  0  0  0  0  0
  189.3040  177.8570  143.9310 Cl  0  0  0  0  0  0  0  0  0  0  0  0
  192.7950  176.0910  146.1810 C   0  0  2  0  0  3  0  0  0  0  0  0
  190.6780  176.7930  147.4190 C   0  0  0  0  0  3  0  0  0  0  0  0
  188.7880  173.8270  139.6960 C   0  0  0  0  0  0  0  0  0  0  0  0
  190.7010  175.6370  144.6650 C   0  0  2  0  0  3  0  0  0  0  0  0
  192.8510  175.6290  142.6480 O   0  0  0  0  0  0  0  0  0  0  0  0
  193.6040  174.9220  143.6500 C   0  0  1  0  0  3  0  0  0  0  0  0
  191.7690  175.7470  147.2800 C   0  0  0  0  0  2  0  0  0  0  0  0
  192.0630  176.2190  144.9030 C   0  0  2  0  0  3  0  0  0  0  0  0
  192.3480  173.7820  145.4360 O   0  0  0  0  0  0  0  0  0  0  0  0
  193.1990  172.7570  145.0130 C   0  0  0  0  0  1  0  0  0  0  0  0
  193.9710  172.6180  140.6570 C   0  0  0  0  0  1  0  0  0  0  0  0
  193.0270  173.8070  140.5620 C   0  0  0  0  0  2  0  0  0  0  0  0
  195.0500  175.4300  143.6600 C   0  0  1  0  0  3  0  0  0  0  0  0
  196.6940  174.1660  145.2620 C   0  0  0  0  0  1  0  0  0  0  0  0
  196.2290  174.0480  143.5120 S   0  0  0  0  0  0  0  0  0  0  0  0
  195.2880  176.4030  142.5160 C   0  0  0  0  0  2  0  0  0  0  0  0
  196.6280  176.7890  142.4890 O   0  0  0  0  0  1  0  0  0  0  0  0
  1  5  1  6  0  0  0
  1 17  1  0  0  0  0
  2 13  1  6  0  0  0
  2 11  1  0  0  0  0
  3 22  1  1  0  0  0
  3 14  1  0  0  0  0
  4 18  1  1  0  0  0
  4  1  1  0  0  0  0
  7  6  1  6  0  0  0
  7 10  1  0  0  0  0
  7  9  1  0  0  0  0
  8  9  1  0  0  0  0
  9  5  1  1  0  0  0
 10 25  1  6  0  0  0
 10  4  1  0  0  0  0
 11 15  2  0  0  0  0
 12 16  2  0  0  0  0
 14 20  1  1  0  0  0
 16  6  1  0  0  0  0
 16  8  1  0  0  0  0
 17 21  1  0  0  0  0
 17  2  1  0  0  0  0
 18 19  1  0  0  0  0
 19 26  1  0  0  0  0
 19  3  1  0  0  0  0
 20 15  1  0  0  0  0
 21  3  1  0  0  0  0
 21 14  1  0  0  0  0
 23 22  1  0  0  0  0
 25 24  1  0  0  0  0
 28 26  1  0  0  0  0
 28 27  1  0  0  0  0
 29 26  1  0  0  0  0
 30 29  1  0  0  0  0
M  END
>  <MODEL>
7

>  <REMARK>
 VINA RESULT:      -6.3      3.829      6.284
  Name = 
  5 active torsions:
  status: ('A' for Active; 'I' for Inactive)
    1  A    between atoms: C_3  and  O_11
    2  A    between atoms: C_10  and  C_15
    3  A    between atoms: C_10  and  C_25
    4  A    between atoms: C_10  and  S_26
    5  A    between atoms: C_13  and  C_30
                            x       y       z     vdW  Elec       q    Type
                         _______ _______ _______ _____ _____    ______ ____

>  <TORSDO>
F 5

$$$$
=
 OpenBabel11052417063D

 30 34  0  0  1  0  0  0  0  0999 V2000
  190.7120  175.2150  143.4350 C   0  0  2  0  0  3  0  0  0  0  0  0
  189.5350  173.5930  141.6170 C   0  0  1  0  0  3  0  0  0  0  0  0
  193.1680  174.0520  142.4780 C   0  0  2  0  0  0  0  0  0  0  0  0
  191.2890  174.8660  144.7620 N   0  0  2  0  0  0  0  0  0  0  0  0
  189.3850  175.9270  143.6030 C   0  0  0  0  0  2  0  0  0  0  0  0
  189.7100  176.8410  146.7680 N   0  0  0  0  0  2  0  0  0  0  0  0
  190.5430  177.0960  145.6020 C   0  0  2  0  0  3  0  0  0  0  0  0
  188.2830  177.5450  145.0090 N   0  0  0  0  0  2  0  0  0  0  0  0
  189.5650  177.2280  144.3970 C   0  0  2  0  0  3  0  0  0  0  0  0
  191.7170  176.1050  145.4280 C   0  0  1  0  0  3  0  0  0  0  0  0
  189.8610  172.7670  140.3800 C   0  0  0  0  0  3  0  0  0  0  0  0
  187.4370  177.2560  147.1800 O   0  0  0  0  0  0  0  0  0  0  0  0
  188.6010  172.5990  142.7640 Cl  0  0  0  0  0  0  0  0  0  0  0  0
  192.9090  172.8970  141.4510 C   0  0  2  0  0  3  0  0  0  0  0  0
  191.0440  172.6560  139.7280 C   0  0  0  0  0  3  0  0  0  0  0  0
  188.4060  177.2190  146.3790 C   0  0  0  0  0  0  0  0  0  0  0  0
  190.7730  174.1730  142.2860 C   0  0  2  0  0  3  0  0  0  0  0  0
  192.2570  173.8730  144.8160 O   0  0  0  0  0  0  0  0  0  0  0  0
  193.4160  174.1640  144.0140 C   0  0  1  0  0  3  0  0  0  0  0  0
  192.3460  173.3480  140.0870 C   0  0  0  0  0  2  0  0  0  0  0  0
  191.8890  173.1900  142.4800 C   0  0  2  0  0  3  0  0  0  0  0  0
  193.0640  175.3230  141.8690 O   0  0  0  0  0  0  0  0  0  0  0  0
  194.1720  176.0560  142.3050 C   0  0  0  0  0  1  0  0  0  0  0  0
  193.7040  176.7900  146.8690 C   0  0  0  0  0  1  0  0  0  0  0  0
  192.5020  175.8690  146.7280 C   0  0  0  0  0  2  0  0  0  0  0  0
  194.5780  173.2620  144.4440 C   0  0  1  0  0  3  0  0  0  0  0  0
  196.7750  172.7300  145.7710 C   0  0  0  0  0  1  0  0  0  0  0  0
  195.8840  174.2290  145.2690 S   0  0  0  0  0  0  0  0  0  0  0  0
  194.0960  172.1770  145.3950 C   0  0  0  0  0  2  0  0  0  0  0  0
  193.8510  170.9990  144.6890 O   0  0  0  0  0  1  0  0  0  0  0  0
  1  5  1  1  0  0  0
  1  4  1  0  0  0  0
  2 17  1  0  0  0  0
  2 13  1  1  0  0  0
  3 22  1  6  0  0  0
  3 21  1  0  0  0  0
  3 19  1  0  0  0  0
  4 18  1  6  0  0  0
  4 10  1  0  0  0  0
  7  6  1  1  0  0  0
  8 16  1  0  0  0  0
  9  5  1  1  0  0  0
  9  8  1  0  0  0  0
  9  7  1  0  0  0  0
 10  7  1  0  0  0  0
 10 25  1  1  0  0  0
 11  2  1  0  0  0  0
 14 20  1  6  0  0  0
 14  3  1  0  0  0  0
 14 21  1  0  0  0  0
 15 20  1  0  0  0  0
 15 11  2  0  0  0  0
 16  6  1  0  0  0  0
 16 12  2  0  0  0  0
 17 21  1  0  0  0  0
 17  1  1  0  0  0  0
 19 26  1  0  0  0  0
 19 18  1  0  0  0  0
 22 23  1  0  0  0  0
 25 24  1  0  0  0  0
 26 28  1  0  0  0  0
 26 29  1  0  0  0  0
 28 27  1  0  0  0  0
 30 29  1  0  0  0  0
M  END
>  <MODEL>
8

>  <REMARK>
 VINA RESULT:      -6.0      3.364      5.084
  Name = 
  5 active torsions:
  status: ('A' for Active; 'I' for Inactive)
    1  A    between atoms: C_3  and  O_11
    2  A    between atoms: C_10  and  C_15
    3  A    between atoms: C_10  and  C_25
    4  A    between atoms: C_10  and  S_26
    5  A    between atoms: C_13  and  C_30
                            x       y       z     vdW  Elec       q    Type
                         _______ _______ _______ _____ _____    ______ ____

>  <TORSDO>
F 5

$$$$
=
 OpenBabel11052417063D

 30 34  0  0  1  0  0  0  0  0999 V2000
  192.4950  173.7990  143.2020 C   0  0  2  0  0  3  0  0  0  0  0  0
  191.9440  172.9630  140.6890 C   0  0  1  0  0  3  0  0  0  0  0  0
  189.6720  174.3570  143.3430 C   0  0  2  0  0  0  0  0  0  0  0  0
  192.6000  175.1910  143.7210 N   0  0  2  0  0  0  0  0  0  0  0  0
  193.8710  173.1780  143.0670 C   0  0  0  0  0  2  0  0  0  0  0  0
  195.5430  175.2380  145.0460 N   0  0  0  0  0  2  0  0  0  0  0  0
  194.3760  174.4040  145.2910 C   0  0  2  0  0  3  0  0  0  0  0  0
  196.0080  173.0810  144.1760 N   0  0  0  0  0  2  0  0  0  0  0  0
  194.5760  173.1220  144.4290 C   0  0  2  0  0  3  0  0  0  0  0  0
  193.0230  175.1360  145.1280 C   0  0  1  0  0  3  0  0  0  0  0  0
  190.7740  172.5420  139.8110 C   0  0  0  0  0  3  0  0  0  0  0  0
  197.6890  174.7190  144.2500 O   0  0  0  0  0  0  0  0  0  0  0  0
  192.9310  174.1680  139.8230 Cl  0  0  0  0  0  0  0  0  0  0  0  0
  188.9600  174.1270  141.9670 C   0  0  2  0  0  3  0  0  0  0  0  0
  189.4690  172.4090  140.1510 C   0  0  0  0  0  3  0  0  0  0  0  0
  196.5010  174.3710  144.4770 C   0  0  0  0  0  0  0  0  0  0  0  0
  191.5060  173.4970  142.0450 C   0  0  2  0  0  3  0  0  0  0  0  0
  191.5270  176.0470  143.5230 O   0  0  0  0  0  0  0  0  0  0  0  0
  190.3000  175.5670  144.1020 C   0  0  1  0  0  3  0  0  0  0  0  0
  188.8590  172.6540  141.5190 C   0  0  0  0  0  2  0  0  0  0  0  0
  190.3910  174.4980  141.9850 C   0  0  2  0  0  3  0  0  0  0  0  0
  189.8740  173.1420  144.0350 O   0  0  0  0  0  0  0  0  0  0  0  0
  189.6910  173.4300  145.3900 C   0  0  0  0  0  1  0  0  0  0  0  0
  192.4670  176.4100  147.2640 C   0  0  0  0  0  1  0  0  0  0  0  0
  192.9890  176.4990  145.8380 C   0  0  0  0  0  2  0  0  0  0  0  0
  189.2970  176.7200  144.2110 C   0  0  1  0  0  3  0  0  0  0  0  0
  187.4420  176.4930  146.0490 C   0  0  0  0  0  1  0  0  0  0  0  0
  189.0900  177.2440  145.9450 S   0  0  0  0  0  0  0  0  0  0  0  0
  189.7560  177.9150  143.3900 C   0  0  0  0  0  2  0  0  0  0  0  0
  189.0750  177.9460  142.1720 O   0  0  0  0  0  1  0  0  0  0  0  0
  1  5  1  6  0  0  0
  1  4  1  0  0  0  0
  2 13  1  6  0  0  0
  2 17  1  0  0  0  0
  3 22  1  1  0  0  0
  3 19  1  0  0  0  0
  4 18  1  1  0  0  0
  4 10  1  0  0  0  0
  7  6  1  6  0  0  0
  8  9  1  0  0  0  0
  8 16  1  0  0  0  0
  9  5  1  6  0  0  0
  9  7  1  0  0  0  0
 10  7  1  0  0  0  0
 10 25  1  6  0  0  0
 11 15  2  0  0  0  0
 11  2  1  0  0  0  0
 12 16  2  0  0  0  0
 14 20  1  1  0  0  0
 14 21  1  0  0  0  0
 14  3  1  0  0  0  0
 15 20  1  0  0  0  0
 16  6  1  0  0  0  0
 17  1  1  0  0  0  0
 18 19  1  0  0  0  0
 19 26  1  0  0  0  0
 21 17  1  0  0  0  0
 21  3  1  0  0  0  0
 22 23  1  0  0  0  0
 25 24  1  0  0  0  0
 26 28  1  0  0  0  0
 28 27  1  0  0  0  0
 29 26  1  0  0  0  0
 30 29  1  0  0  0  0
M  END
>  <MODEL>
9

>  <REMARK>
 VINA RESULT:      -5.9      3.633      6.796
  Name = 
  5 active torsions:
  status: ('A' for Active; 'I' for Inactive)
    1  A    between atoms: C_3  and  O_11
    2  A    between atoms: C_10  and  C_15
    3  A    between atoms: C_10  and  C_25
    4  A    between atoms: C_10  and  S_26
    5  A    between atoms: C_13  and  C_30
                            x       y       z     vdW  Elec       q    Type
                         _______ _______ _______ _____ _____    ______ ____

>  <TORSDO>
F 5

$$$$
