=
 OpenBabel11052420023D

 37 42  0  0  1  0  0  0  0  0999 V2000
  188.1730  176.4600  146.0830 C   0  0  1  0  0  3  0  0  0  0  0  0
  190.4440  178.0760  148.1970 O   0  0  0  0  0  1  0  0  0  0  0  0
  190.1420  175.5460  145.4720 C   0  0  1  0  0  3  0  0  0  0  0  0
  190.8910  176.5000  146.4400 C   0  0  1  0  0  3  0  0  0  0  0  0
  189.8700  177.0510  147.4430 C   0  0  2  0  0  3  0  0  0  0  0  0
  188.9790  176.1590  144.9700 O   0  0  0  0  0  0  0  0  0  0  0  0
  188.7340  177.5480  146.7770 O   0  0  0  0  0  0  0  0  0  0  0  0
  191.2930  171.6940  141.5040 C   0  0  0  0  0  2  0  0  0  0  0  0
  190.9420  175.0270  144.3390 N   0  0  1  0  0  0  0  0  0  0  0  0
  190.6100  174.0760  142.1060 C   0  0  1  0  0  3  0  0  0  0  0  0
  190.2490  173.9720  143.5970 C   0  0  1  0  0  3  0  0  0  0  0  0
  191.0440  175.5330  141.9250 C   0  0  2  0  0  3  0  0  0  0  0  0
  190.2280  172.6140  144.3050 C   0  0  0  0  0  2  0  0  0  0  0  0
  191.4990  170.7130  143.7040 O   0  0  0  0  0  0  0  0  0  0  0  0
  190.9460  177.5410  143.5830 C   0  0  0  0  0  1  0  0  0  0  0  0
  192.4450  175.7980  142.4960 C   0  0  0  0  0  2  0  0  0  0  0  0
  191.5880  171.9400  144.3720 C   0  0  0  0  0  2  0  0  0  0  0  0
  191.2240  176.0620  143.3350 C   0  0  1  0  0  0  0  0  0  0  0  0
  191.7220  173.1460  141.6040 C   0  0  0  0  0  2  0  0  0  0  0  0
  192.1460  170.8800  142.4710 C   0  0  0  0  0  2  0  0  0  0  0  0
  186.7660  176.8120  145.6200 C   0  0  1  0  0  3  0  0  0  0  0  0
  186.1790  177.7030  146.5220 O   0  0  0  0  0  0  0  0  0  0  0  0
  184.0270  178.5920  146.0470 C   0  0  0  0  0  1  0  0  0  0  0  0
  184.8200  177.3860  146.5060 C   0  0  0  0  0  2  0  0  0  0  0  0
  186.8190  177.4040  144.3540 O   0  0  0  0  0  0  0  0  0  0  0  0
  185.1860  177.3880  142.6320 C   0  0  0  0  0  2  0  0  0  0  0  0
  186.0780  176.5550  143.5290 C   0  0  0  0  0  3  0  0  0  0  0  0
  186.4680  176.8010  142.0850 C   0  0  0  0  0  2  0  0  0  0  0  0
  191.9990  175.7670  147.1780 C   0  0  0  0  0  2  0  0  0  0  0  0
  193.3210  176.4770  146.9640 C   0  0  0  0  0  2  0  0  0  0  0  0
  193.9990  174.3770  145.7900 C   0  0  0  0  0  3  0  0  0  0  0  0
  194.1120  175.7660  145.9250 C   0  0  0  0  0  0  0  0  0  0  0  0
  194.9980  176.4770  145.1070 C   0  0  0  0  0  3  0  0  0  0  0  0
  196.8870  176.7090  143.1030 S   0  0  0  0  0  1  0  0  0  0  0  0
  195.6410  174.4150  144.0100 C   0  0  0  0  0  3  0  0  0  0  0  0
  195.7590  175.8010  144.1490 C   0  0  0  0  0  0  0  0  0  0  0  0
  194.7610  173.7030  144.8310 C   0  0  0  0  0  3  0  0  0  0  0  0
  1 21  1  6  0  0  0
  1  7  1  0  0  0  0
  3  6  1  6  0  0  0
  3  4  1  0  0  0  0
  4 29  1  1  0  0  0
  4  5  1  0  0  0  0
  5  2  1  6  0  0  0
  6  1  1  0  0  0  0
  7  5  1  0  0  0  0
  8 19  1  0  0  0  0
  8 20  1  0  0  0  0
  9  3  1  1  0  0  0
 10 19  1  1  0  0  0
 10 11  1  0  0  0  0
 11 13  1  1  0  0  0
 11  9  1  0  0  0  0
 12 10  1  0  0  0  0
 12 16  1  6  0  0  0
 12 18  1  0  0  0  0
 13 17  1  0  0  0  0
 14 17  1  0  0  0  0
 16 18  1  0  0  0  0
 18 15  1  1  0  0  0
 18  9  1  0  0  0  0
 20 14  1  0  0  0  0
 21 25  1  6  0  0  0
 21 22  1  0  0  0  0
 23 24  1  0  0  0  0
 24 22  1  0  0  0  0
 26 27  1  0  0  0  0
 27 25  1  0  0  0  0
 28 26  1  0  0  0  0
 28 27  1  0  0  0  0
 30 29  1  0  0  0  0
 31 32  1  0  0  0  0
 32 30  1  0  0  0  0
 33 32  2  0  0  0  0
 34 36  1  0  0  0  0
 35 36  2  0  0  0  0
 35 37  1  0  0  0  0
 36 33  1  0  0  0  0
 37 31  2  0  0  0  0
M  END
>  <MODEL>
1

>  <REMARK>
 VINA RESULT:      -7.0      0.000      0.000
  Name = 
  9 active torsions:
  status: ('A' for Active; 'I' for Inactive)
    1  A    between atoms: C_1  and  C_33
    2  A    between atoms: N_4  and  C_10
    3  A    between atoms: O_5  and  C_23
    4  A    between atoms: O_5  and  C_33
    5  A    between atoms: C_6  and  C_31
    6  A    between atoms: C_14  and  C_37
    7  A    between atoms: O_17  and  C_26
    8  A    between atoms: O_17  and  C_33
    9  A    between atoms: C_31  and  C_37
                            x       y       z     vdW  Elec       q    Type
                         _______ _______ _______ _____ _____    ______ ____

>  <TORSDO>
F 9

$$$$
=
 OpenBabel11052420023D

 37 42  0  0  1  0  0  0  0  0999 V2000
  187.6870  176.9900  143.9550 C   0  0  1  0  0  3  0  0  0  0  0  0
  188.7670  177.5980  147.2270 O   0  0  0  0  0  1  0  0  0  0  0  0
  189.3430  175.4800  144.2100 C   0  0  1  0  0  3  0  0  0  0  0  0
  189.6630  176.0600  145.6130 C   0  0  1  0  0  3  0  0  0  0  0  0
  188.4500  176.8790  146.0730 C   0  0  2  0  0  3  0  0  0  0  0  0
  188.8550  176.4860  143.3550 O   0  0  0  0  0  0  0  0  0  0  0  0
  188.0430  177.7760  145.0670 O   0  0  0  0  0  0  0  0  0  0  0  0
  191.4010  171.7190  140.5320 C   0  0  0  0  0  2  0  0  0  0  0  0
  190.4590  174.7750  143.5390 N   0  0  1  0  0  0  0  0  0  0  0  0
  191.1770  174.1460  141.2830 C   0  0  1  0  0  3  0  0  0  0  0  0
  190.0380  174.0900  142.3150 C   0  0  1  0  0  3  0  0  0  0  0  0
  192.0130  175.3540  141.7110 C   0  0  2  0  0  3  0  0  0  0  0  0
  189.2610  172.7930  142.5560 C   0  0  0  0  0  2  0  0  0  0  0  0
  190.0780  170.6000  142.2180 O   0  0  0  0  0  0  0  0  0  0  0  0
  191.5630  177.1570  143.5380 C   0  0  0  0  0  1  0  0  0  0  0  0
  192.8720  175.0580  142.9500 C   0  0  0  0  0  2  0  0  0  0  0  0
  190.1110  171.6690  143.1220 C   0  0  0  0  0  2  0  0  0  0  0  0
  191.5180  175.6960  143.1030 C   0  0  1  0  0  0  0  0  0  0  0  0
  192.0770  172.9070  141.1900 C   0  0  0  0  0  2  0  0  0  0  0  0
  191.3160  170.5940  141.5590 C   0  0  0  0  0  2  0  0  0  0  0  0
  186.9150  177.8350  142.9510 C   0  0  1  0  0  3  0  0  0  0  0  0
  186.1150  177.0110  142.1550 O   0  0  0  0  0  0  0  0  0  0  0  0
  185.1050  178.1150  140.3080 C   0  0  0  0  0  1  0  0  0  0  0  0
  186.3490  177.4410  140.8480 C   0  0  0  0  0  2  0  0  0  0  0  0
  186.1050  178.7510  143.6290 O   0  0  0  0  0  0  0  0  0  0  0  0
  184.5260  178.5000  145.3820 C   0  0  0  0  0  2  0  0  0  0  0  0
  184.9830  178.0180  144.0210 C   0  0  0  0  0  3  0  0  0  0  0  0
  183.7950  178.9510  144.1380 C   0  0  0  0  0  2  0  0  0  0  0  0
  189.9450  174.9480  146.6100 C   0  0  0  0  0  2  0  0  0  0  0  0
  190.9570  175.4190  147.6370 C   0  0  0  0  0  2  0  0  0  0  0  0
  193.0300  176.6340  146.9490 C   0  0  0  0  0  3  0  0  0  0  0  0
  192.3160  175.4330  147.0340 C   0  0  0  0  0  0  0  0  0  0  0  0
  192.8690  174.2550  146.5180 C   0  0  0  0  0  3  0  0  0  0  0  0
  194.8410  172.7730  145.2740 S   0  0  0  0  0  1  0  0  0  0  0  0
  194.8510  175.4760  145.8500 C   0  0  0  0  0  3  0  0  0  0  0  0
  194.1360  174.2770  145.9290 C   0  0  0  0  0  0  0  0  0  0  0  0
  194.2970  176.6550  146.3600 C   0  0  0  0  0  3  0  0  0  0  0  0
  1 21  1  6  0  0  0
  1  7  1  0  0  0  0
  3  6  1  6  0  0  0
  3  4  1  0  0  0  0
  4  5  1  0  0  0  0
  4 29  1  1  0  0  0
  5  2  1  1  0  0  0
  6  1  1  0  0  0  0
  7  5  1  0  0  0  0
  8 19  1  0  0  0  0
  8 20  1  0  0  0  0
  9  3  1  6  0  0  0
 10 19  1  1  0  0  0
 10 12  1  0  0  0  0
 10 11  1  0  0  0  0
 11 13  1  1  0  0  0
 11  9  1  0  0  0  0
 12 16  1  1  0  0  0
 12 18  1  0  0  0  0
 13 17  1  0  0  0  0
 14 17  1  0  0  0  0
 16 18  1  0  0  0  0
 18 15  1  1  0  0  0
 18  9  1  0  0  0  0
 20 14  1  0  0  0  0
 21 22  1  1  0  0  0
 21 25  1  0  0  0  0
 23 24  1  0  0  0  0
 24 22  1  0  0  0  0
 25 27  1  0  0  0  0
 27 28  1  0  0  0  0
 27 26  1  0  0  0  0
 28 26  1  0  0  0  0
 29 30  1  0  0  0  0
 31 32  1  0  0  0  0
 32 30  1  0  0  0  0
 33 32  2  0  0  0  0
 34 36  1  0  0  0  0
 35 36  2  0  0  0  0
 35 37  1  0  0  0  0
 36 33  1  0  0  0  0
 37 31  2  0  0  0  0
M  END
>  <MODEL>
2

>  <REMARK>
 VINA RESULT:      -6.9      1.576      2.640
  Name = 
  9 active torsions:
  status: ('A' for Active; 'I' for Inactive)
    1  A    between atoms: C_1  and  C_33
    2  A    between atoms: N_4  and  C_10
    3  A    between atoms: O_5  and  C_23
    4  A    between atoms: O_5  and  C_33
    5  A    between atoms: C_6  and  C_31
    6  A    between atoms: C_14  and  C_37
    7  A    between atoms: O_17  and  C_26
    8  A    between atoms: O_17  and  C_33
    9  A    between atoms: C_31  and  C_37
                            x       y       z     vdW  Elec       q    Type
                         _______ _______ _______ _____ _____    ______ ____

>  <TORSDO>
F 9

$$$$
=
 OpenBabel11052420023D

 37 42  0  0  1  0  0  0  0  0999 V2000
  188.0080  177.2940  143.3930 C   0  0  1  0  0  3  0  0  0  0  0  0
  191.1910  178.7470  143.4140 O   0  0  0  0  0  1  0  0  0  0  0  0
  189.3480  175.5260  143.7970 C   0  0  1  0  0  3  0  0  0  0  0  0
  190.5990  176.4290  143.6300 C   0  0  1  0  0  3  0  0  0  0  0  0
  190.1490  177.8880  143.7700 C   0  0  2  0  0  3  0  0  0  0  0  0
  188.2940  175.9800  142.9820 O   0  0  0  0  0  0  0  0  0  0  0  0
  189.0350  178.1490  142.9500 O   0  0  0  0  0  0  0  0  0  0  0  0
  191.6390  171.2210  140.9470 C   0  0  0  0  0  2  0  0  0  0  0  0
  189.5630  174.0820  143.5490 N   0  0  1  0  0  0  0  0  0  0  0  0
  191.4000  172.5170  143.1300 C   0  0  1  0  0  3  0  0  0  0  0  0
  190.7200  173.8240  142.6900 C   0  0  1  0  0  3  0  0  0  0  0  0
  190.9750  172.3450  144.5900 C   0  0  2  0  0  3  0  0  0  0  0  0
  190.4800  174.1220  141.2060 C   0  0  0  0  0  2  0  0  0  0  0  0
  190.2070  172.5160  139.4930 O   0  0  0  0  0  0  0  0  0  0  0  0
  189.6720  173.9570  146.1690 C   0  0  0  0  0  1  0  0  0  0  0  0
  189.5180  171.8730  144.7200 C   0  0  0  0  0  2  0  0  0  0  0  0
  189.5230  173.1520  140.5360 C   0  0  0  0  0  2  0  0  0  0  0  0
  189.8470  173.3400  144.7860 C   0  0  1  0  0  0  0  0  0  0  0  0
  191.0350  171.2550  142.3390 C   0  0  0  0  0  2  0  0  0  0  0  0
  190.4970  171.2180  139.9350 C   0  0  0  0  0  2  0  0  0  0  0  0
  186.6760  177.7390  142.8040 C   0  0  1  0  0  3  0  0  0  0  0  0
  186.3500  176.9370  141.7080 O   0  0  0  0  0  0  0  0  0  0  0  0
  184.7770  178.2870  140.5460 C   0  0  0  0  0  1  0  0  0  0  0  0
  186.2170  177.8260  140.6410 C   0  0  0  0  0  2  0  0  0  0  0  0
  185.6720  177.6300  143.7720 O   0  0  0  0  0  0  0  0  0  0  0  0
  185.2930  179.9230  144.2520 C   0  0  0  0  0  2  0  0  0  0  0  0
  185.9550  178.6360  144.6990 C   0  0  0  0  0  3  0  0  0  0  0  0
  184.6630  179.0920  145.3470 C   0  0  0  0  0  2  0  0  0  0  0  0
  191.6470  176.1060  144.6830 C   0  0  0  0  0  2  0  0  0  0  0  0
  193.0350  176.2570  144.0920 C   0  0  0  0  0  2  0  0  0  0  0  0
  193.7770  174.3060  145.4680 C   0  0  0  0  0  3  0  0  0  0  0  0
  193.7880  174.9830  144.2430 C   0  0  0  0  0  0  0  0  0  0  0  0
  194.5370  174.4780  143.1740 C   0  0  0  0  0  3  0  0  0  0  0  0
  196.2160  172.6500  141.9610 S   0  0  0  0  0  1  0  0  0  0  0  0
  195.2470  172.6160  144.5490 C   0  0  0  0  0  3  0  0  0  0  0  0
  195.2630  173.2940  143.3270 C   0  0  0  0  0  0  0  0  0  0  0  0
  194.5040  173.1220  145.6200 C   0  0  0  0  0  3  0  0  0  0  0  0
  1 21  1  6  0  0  0
  3  6  1  6  0  0  0
  4  5  1  0  0  0  0
  4  3  1  0  0  0  0
  4 29  1  1  0  0  0
  5  2  1  6  0  0  0
  6  1  1  0  0  0  0
  7  1  1  0  0  0  0
  7  5  1  0  0  0  0
  8 19  1  0  0  0  0
  9  3  1  1  0  0  0
  9 18  1  0  0  0  0
 10 19  1  6  0  0  0
 10 12  1  0  0  0  0
 11 13  1  6  0  0  0
 11 10  1  0  0  0  0
 11  9  1  0  0  0  0
 12 16  1  6  0  0  0
 12 18  1  0  0  0  0
 14 20  1  0  0  0  0
 14 17  1  0  0  0  0
 16 18  1  0  0  0  0
 17 13  1  0  0  0  0
 18 15  1  1  0  0  0
 20  8  1  0  0  0  0
 21 22  1  6  0  0  0
 21 25  1  0  0  0  0
 23 24  1  0  0  0  0
 24 22  1  0  0  0  0
 25 27  1  0  0  0  0
 26 27  1  0  0  0  0
 26 28  1  0  0  0  0
 27 28  1  0  0  0  0
 30 32  1  0  0  0  0
 30 29  1  0  0  0  0
 31 37  1  0  0  0  0
 32 31  2  0  0  0  0
 33 36  2  0  0  0  0
 33 32  1  0  0  0  0
 34 36  1  0  0  0  0
 35 37  2  0  0  0  0
 36 35  1  0  0  0  0
M  END
>  <MODEL>
3

>  <REMARK>
 VINA RESULT:      -6.9      2.217      3.394
  Name = 
  9 active torsions:
  status: ('A' for Active; 'I' for Inactive)
    1  A    between atoms: C_1  and  C_33
    2  A    between atoms: N_4  and  C_10
    3  A    between atoms: O_5  and  C_23
    4  A    between atoms: O_5  and  C_33
    5  A    between atoms: C_6  and  C_31
    6  A    between atoms: C_14  and  C_37
    7  A    between atoms: O_17  and  C_26
    8  A    between atoms: O_17  and  C_33
    9  A    between atoms: C_31  and  C_37
                            x       y       z     vdW  Elec       q    Type
                         _______ _______ _______ _____ _____    ______ ____

>  <TORSDO>
F 9

$$$$
=
 OpenBabel11052420023D

 37 42  0  0  1  0  0  0  0  0999 V2000
  187.1610  177.0590  144.6760 C   0  0  1  0  0  3  0  0  0  0  0  0
  188.5170  178.0190  147.7550 O   0  0  0  0  0  1  0  0  0  0  0  0
  189.0390  175.8170  144.7890 C   0  0  1  0  0  3  0  0  0  0  0  0
  189.4330  176.5230  146.1130 C   0  0  1  0  0  3  0  0  0  0  0  0
  188.1760  177.1910  146.6840 C   0  0  2  0  0  3  0  0  0  0  0  0
  188.3110  176.6880  143.9570 O   0  0  0  0  0  0  0  0  0  0  0  0
  187.5250  177.9560  145.6980 O   0  0  0  0  0  0  0  0  0  0  0  0
  191.1560  172.2720  140.9340 C   0  0  0  0  0  2  0  0  0  0  0  0
  190.1600  175.2350  144.0160 N   0  0  1  0  0  0  0  0  0  0  0  0
  190.7300  174.6660  141.7020 C   0  0  1  0  0  3  0  0  0  0  0  0
  189.7070  174.4940  142.8370 C   0  0  1  0  0  3  0  0  0  0  0  0
  191.4600  175.9660  142.0490 C   0  0  2  0  0  3  0  0  0  0  0  0
  189.1070  173.1190  143.1500 C   0  0  0  0  0  2  0  0  0  0  0  0
  190.1330  171.0290  142.7380 O   0  0  0  0  0  0  0  0  0  0  0  0
  190.9820  177.7260  143.9100 C   0  0  0  0  0  1  0  0  0  0  0  0
  192.4600  175.7820  143.2020 C   0  0  0  0  0  2  0  0  0  0  0  0
  190.1290  172.1050  143.6340 C   0  0  0  0  0  2  0  0  0  0  0  0
  191.0620  176.2640  143.4810 C   0  0  1  0  0  0  0  0  0  0  0  0
  191.7520  173.5360  141.5250 C   0  0  0  0  0  2  0  0  0  0  0  0
  191.2960  171.1560  141.9640 C   0  0  0  0  0  2  0  0  0  0  0  0
  186.1590  177.7220  143.7400 C   0  0  1  0  0  3  0  0  0  0  0  0
  185.6800  178.9010  144.3170 O   0  0  0  0  0  0  0  0  0  0  0  0
  184.0270  178.6330  146.0040 C   0  0  0  0  0  1  0  0  0  0  0  0
  184.3180  178.6720  144.5180 C   0  0  0  0  0  2  0  0  0  0  0  0
  186.7780  178.0220  142.5220 O   0  0  0  0  0  0  0  0  0  0  0  0
  186.1270  177.8460  140.2470 C   0  0  0  0  0  2  0  0  0  0  0  0
  186.1880  177.1600  141.5960 C   0  0  0  0  0  3  0  0  0  0  0  0
  187.1990  176.8160  140.5220 C   0  0  0  0  0  2  0  0  0  0  0  0
  189.9920  175.5270  147.1160 C   0  0  0  0  0  2  0  0  0  0  0  0
  191.2300  176.1000  147.7780 C   0  0  0  0  0  2  0  0  0  0  0  0
  193.5110  176.5350  146.8530 C   0  0  0  0  0  3  0  0  0  0  0  0
  192.4450  175.6490  147.0470 C   0  0  0  0  0  0  0  0  0  0  0  0
  192.5090  174.3540  146.5220 C   0  0  0  0  0  3  0  0  0  0  0  0
  193.7250  172.2880  145.1470 S   0  0  0  0  0  1  0  0  0  0  0  0
  194.7090  174.8250  145.6250 C   0  0  0  0  0  3  0  0  0  0  0  0
  193.6420  173.9420  145.8150 C   0  0  0  0  0  0  0  0  0  0  0  0
  194.6440  176.1230  146.1450 C   0  0  0  0  0  3  0  0  0  0  0  0
  1 21  1  6  0  0  0
  1  7  1  0  0  0  0
  3  6  1  6  0  0  0
  3  4  1  0  0  0  0
  4  5  1  0  0  0  0
  4 29  1  1  0  0  0
  5  2  1  1  0  0  0
  6  1  1  0  0  0  0
  7  5  1  0  0  0  0
  8 19  1  0  0  0  0
  8 20  1  0  0  0  0
  9  3  1  6  0  0  0
 10 19  1  1  0  0  0
 10 12  1  0  0  0  0
 10 11  1  0  0  0  0
 11 13  1  1  0  0  0
 11  9  1  0  0  0  0
 12 16  1  1  0  0  0
 12 18  1  0  0  0  0
 13 17  1  0  0  0  0
 14 17  1  0  0  0  0
 16 18  1  0  0  0  0
 18 15  1  1  0  0  0
 18  9  1  0  0  0  0
 20 14  1  0  0  0  0
 21 25  1  6  0  0  0
 21 22  1  0  0  0  0
 22 24  1  0  0  0  0
 24 23  1  0  0  0  0
 26 28  1  0  0  0  0
 26 27  1  0  0  0  0
 27 25  1  0  0  0  0
 28 27  1  0  0  0  0
 29 30  1  0  0  0  0
 31 32  1  0  0  0  0
 32 30  1  0  0  0  0
 33 32  2  0  0  0  0
 34 36  1  0  0  0  0
 35 36  2  0  0  0  0
 35 37  1  0  0  0  0
 36 33  1  0  0  0  0
 37 31  2  0  0  0  0
M  END
>  <MODEL>
4

>  <REMARK>
 VINA RESULT:      -6.9      1.507      2.051
  Name = 
  9 active torsions:
  status: ('A' for Active; 'I' for Inactive)
    1  A    between atoms: C_1  and  C_33
    2  A    between atoms: N_4  and  C_10
    3  A    between atoms: O_5  and  C_23
    4  A    between atoms: O_5  and  C_33
    5  A    between atoms: C_6  and  C_31
    6  A    between atoms: C_14  and  C_37
    7  A    between atoms: O_17  and  C_26
    8  A    between atoms: O_17  and  C_33
    9  A    between atoms: C_31  and  C_37
                            x       y       z     vdW  Elec       q    Type
                         _______ _______ _______ _____ _____    ______ ____

>  <TORSDO>
F 9

$$$$
=
 OpenBabel11052420023D

 37 42  0  0  1  0  0  0  0  0999 V2000
  193.4520  176.5060  145.6930 C   0  0  1  0  0  3  0  0  0  0  0  0
  191.3160  176.5270  148.4630 O   0  0  0  0  0  1  0  0  0  0  0  0
  191.4140  176.3880  144.7360 C   0  0  1  0  0  3  0  0  0  0  0  0
  190.7550  176.2970  146.1380 C   0  0  1  0  0  3  0  0  0  0  0  0
  191.7760  176.7910  147.1710 C   0  0  2  0  0  3  0  0  0  0  0  0
  192.6910  175.7970  144.7460 O   0  0  0  0  0  0  0  0  0  0  0  0
  193.0200  176.1580  146.9860 O   0  0  0  0  0  0  0  0  0  0  0  0
  188.3320  172.2900  142.3670 C   0  0  0  0  0  2  0  0  0  0  0  0
  190.6260  175.8160  143.6200 N   0  0  1  0  0  0  0  0  0  0  0  0
  188.4890  174.6820  143.2380 C   0  0  1  0  0  3  0  0  0  0  0  0
  189.8040  174.6780  144.0360 C   0  0  1  0  0  3  0  0  0  0  0  0
  188.3230  176.1370  142.7940 C   0  0  2  0  0  3  0  0  0  0  0  0
  190.5880  173.3800  144.2510 C   0  0  0  0  0  2  0  0  0  0  0  0
  190.5670  171.4930  142.8270 O   0  0  0  0  0  0  0  0  0  0  0  0
  189.6920  178.2610  143.4260 C   0  0  0  0  0  1  0  0  0  0  0  0
  189.2660  176.5040  141.6380 C   0  0  0  0  0  2  0  0  0  0  0  0
  191.1220  172.7710  142.9660 C   0  0  0  0  0  2  0  0  0  0  0  0
  189.6690  176.7810  143.0610 C   0  0  1  0  0  0  0  0  0  0  0  0
  188.4310  173.7620  142.0120 C   0  0  0  0  0  2  0  0  0  0  0  0
  189.5790  171.5900  141.8370 C   0  0  0  0  0  2  0  0  0  0  0  0
  194.9270  176.1610  145.5310 C   0  0  1  0  0  3  0  0  0  0  0  0
  195.2800  175.1550  146.4350 O   0  0  0  0  0  0  0  0  0  0  0  0
  196.9440  173.4850  146.1380 C   0  0  0  0  0  1  0  0  0  0  0  0
  195.6380  174.0670  145.6380 C   0  0  0  0  0  2  0  0  0  0  0  0
  195.1680  175.7160  144.2280 O   0  0  0  0  0  0  0  0  0  0  0  0
  197.2020  176.2670  143.1380 C   0  0  0  0  0  2  0  0  0  0  0  0
  195.8520  176.7650  143.6100 C   0  0  0  0  0  3  0  0  0  0  0  0
  196.0690  176.4260  142.1490 C   0  0  0  0  0  2  0  0  0  0  0  0
  189.4970  177.1480  146.2040 C   0  0  0  0  0  2  0  0  0  0  0  0
  188.3220  176.2980  146.6460 C   0  0  0  0  0  2  0  0  0  0  0  0
  186.4050  177.5490  147.6510 C   0  0  0  0  0  3  0  0  0  0  0  0
  187.0600  177.0730  146.5090 C   0  0  0  0  0  0  0  0  0  0  0  0
  186.5060  177.2960  145.2430 C   0  0  0  0  0  3  0  0  0  0  0  0
  184.6020  178.2890  143.5040 S   0  0  0  0  0  1  0  0  0  0  0  0
  184.6560  178.4830  146.2600 C   0  0  0  0  0  3  0  0  0  0  0  0
  185.3070  178.0030  145.1190 C   0  0  0  0  0  0  0  0  0  0  0  0
  185.2060  178.2560  147.5260 C   0  0  0  0  0  3  0  0  0  0  0  0
  1 21  1  1  0  0  0
  1  7  1  0  0  0  0
  3  6  1  1  0  0  0
  3  4  1  0  0  0  0
  4 29  1  6  0  0  0
  4  5  1  0  0  0  0
  5  2  1  1  0  0  0
  6  1  1  0  0  0  0
  7  5  1  0  0  0  0
  9 11  1  0  0  0  0
  9  3  1  1  0  0  0
 10 19  1  6  0  0  0
 10 11  1  0  0  0  0
 11 13  1  6  0  0  0
 12 16  1  6  0  0  0
 12 18  1  0  0  0  0
 12 10  1  0  0  0  0
 14 17  1  0  0  0  0
 16 18  1  0  0  0  0
 17 13  1  0  0  0  0
 18 15  1  1  0  0  0
 18  9  1  0  0  0  0
 19  8  1  0  0  0  0
 20  8  1  0  0  0  0
 20 14  1  0  0  0  0
 21 25  1  6  0  0  0
 21 22  1  0  0  0  0
 24 23  1  0  0  0  0
 24 22  1  0  0  0  0
 26 27  1  0  0  0  0
 27 25  1  0  0  0  0
 28 26  1  0  0  0  0
 28 27  1  0  0  0  0
 29 30  1  0  0  0  0
 32 30  1  0  0  0  0
 32 31  2  0  0  0  0
 33 32  1  0  0  0  0
 34 36  1  0  0  0  0
 35 37  2  0  0  0  0
 36 33  2  0  0  0  0
 36 35  1  0  0  0  0
 37 31  1  0  0  0  0
M  END
>  <MODEL>
5

>  <REMARK>
 VINA RESULT:      -6.8      2.987      6.945
  Name = 
  9 active torsions:
  status: ('A' for Active; 'I' for Inactive)
    1  A    between atoms: C_1  and  C_33
    2  A    between atoms: N_4  and  C_10
    3  A    between atoms: O_5  and  C_23
    4  A    between atoms: O_5  and  C_33
    5  A    between atoms: C_6  and  C_31
    6  A    between atoms: C_14  and  C_37
    7  A    between atoms: O_17  and  C_26
    8  A    between atoms: O_17  and  C_33
    9  A    between atoms: C_31  and  C_37
                            x       y       z     vdW  Elec       q    Type
                         _______ _______ _______ _____ _____    ______ ____

>  <TORSDO>
F 9

$$$$
=
 OpenBabel11052420023D

 37 42  0  0  1  0  0  0  0  0999 V2000
  189.1980  173.6980  139.5530 C   0  0  1  0  0  3  0  0  0  0  0  0
  189.5230  171.2080  141.9890 O   0  0  0  0  0  1  0  0  0  0  0  0
  189.5230  174.8980  141.4350 C   0  0  1  0  0  3  0  0  0  0  0  0
  189.5050  173.5930  142.2760 C   0  0  1  0  0  3  0  0  0  0  0  0
  189.7450  172.4150  141.3230 C   0  0  2  0  0  3  0  0  0  0  0  0
  188.6920  174.7730  140.3050 O   0  0  0  0  0  0  0  0  0  0  0  0
  188.8890  172.4920  140.2080 O   0  0  0  0  0  0  0  0  0  0  0  0
  186.2190  177.8780  144.9140 C   0  0  0  0  0  2  0  0  0  0  0  0
  189.1630  176.1350  142.1650 N   0  0  1  0  0  0  0  0  0  0  0  0
  188.4960  176.8440  144.4130 C   0  0  1  0  0  3  0  0  0  0  0  0
  188.1990  175.8940  143.2400 C   0  0  1  0  0  3  0  0  0  0  0  0
  189.9710  177.2110  144.2340 C   0  0  2  0  0  3  0  0  0  0  0  0
  186.7620  175.6690  142.7570 C   0  0  0  0  0  2  0  0  0  0  0  0
  184.9740  177.2030  142.9560 O   0  0  0  0  0  0  0  0  0  0  0  0
  191.7520  176.2850  142.5740 C   0  0  0  0  0  1  0  0  0  0  0  0
  190.1850  178.2190  143.0940 C   0  0  0  0  0  2  0  0  0  0  0  0
  186.1080  176.9170  142.1880 C   0  0  0  0  0  2  0  0  0  0  0  0
  190.3210  176.7430  142.8360 C   0  0  1  0  0  0  0  0  0  0  0  0
  187.6540  178.1240  144.4860 C   0  0  0  0  0  2  0  0  0  0  0  0
  185.3050  178.2970  143.7680 C   0  0  0  0  0  2  0  0  0  0  0  0
  188.5770  173.7050  138.1630 C   0  0  1  0  0  3  0  0  0  0  0  0
  187.6200  174.7200  138.0760 O   0  0  0  0  0  0  0  0  0  0  0  0
  186.6180  176.1740  136.4860 C   0  0  0  0  0  1  0  0  0  0  0  0
  187.7790  175.2530  136.7960 C   0  0  0  0  0  2  0  0  0  0  0  0
  189.5700  173.9230  137.2030 O   0  0  0  0  0  0  0  0  0  0  0  0
  189.6090  171.9700  135.8550 C   0  0  0  0  0  2  0  0  0  0  0  0
  190.2020  172.6870  137.0510 C   0  0  0  0  0  3  0  0  0  0  0  0
  190.9460  172.6670  135.7310 C   0  0  0  0  0  2  0  0  0  0  0  0
  190.5820  173.6210  143.3470 C   0  0  0  0  0  2  0  0  0  0  0  0
  189.9820  173.2650  144.6930 C   0  0  0  0  0  2  0  0  0  0  0  0
  189.7410  174.5800  146.8060 C   0  0  0  0  0  3  0  0  0  0  0  0
  190.5490  174.1480  145.7470 C   0  0  0  0  0  0  0  0  0  0  0  0
  191.8780  174.5790  145.6630 C   0  0  0  0  0  3  0  0  0  0  0  0
  194.0960  175.9770  146.5350 S   0  0  0  0  0  1  0  0  0  0  0  0
  191.5940  175.8560  147.7010 C   0  0  0  0  0  3  0  0  0  0  0  0
  192.4000  175.4300  146.6410 C   0  0  0  0  0  0  0  0  0  0  0  0
  190.2640  175.4310  147.7830 C   0  0  0  0  0  3  0  0  0  0  0  0
  1 21  1  6  0  0  0
  1  7  1  0  0  0  0
  1  6  1  0  0  0  0
  3  6  1  6  0  0  0
  3  4  1  0  0  0  0
  4 29  1  1  0  0  0
  5  2  1  1  0  0  0
  5  4  1  0  0  0  0
  7  5  1  0  0  0  0
  9  3  1  1  0  0  0
  9 18  1  0  0  0  0
  9 11  1  0  0  0  0
 10 19  1  6  0  0  0
 11 13  1  6  0  0  0
 11 10  1  0  0  0  0
 12 16  1  6  0  0  0
 12 10  1  0  0  0  0
 14 20  1  0  0  0  0
 17 13  1  0  0  0  0
 17 14  1  0  0  0  0
 18 15  1  6  0  0  0
 18 16  1  0  0  0  0
 18 12  1  0  0  0  0
 19  8  1  0  0  0  0
 20  8  1  0  0  0  0
 21 25  1  6  0  0  0
 22 21  1  0  0  0  0
 23 24  1  0  0  0  0
 24 22  1  0  0  0  0
 26 27  1  0  0  0  0
 27 25  1  0  0  0  0
 28 26  1  0  0  0  0
 28 27  1  0  0  0  0
 29 30  1  0  0  0  0
 30 32  1  0  0  0  0
 31 37  1  0  0  0  0
 32 31  2  0  0  0  0
 33 32  1  0  0  0  0
 33 36  2  0  0  0  0
 34 36  1  0  0  0  0
 35 37  2  0  0  0  0
 36 35  1  0  0  0  0
M  END
>  <MODEL>
6

>  <REMARK>
 VINA RESULT:      -6.8      3.361      6.716
  Name = 
  9 active torsions:
  status: ('A' for Active; 'I' for Inactive)
    1  A    between atoms: C_1  and  C_33
    2  A    between atoms: N_4  and  C_10
    3  A    between atoms: O_5  and  C_23
    4  A    between atoms: O_5  and  C_33
    5  A    between atoms: C_6  and  C_31
    6  A    between atoms: C_14  and  C_37
    7  A    between atoms: O_17  and  C_26
    8  A    between atoms: O_17  and  C_33
    9  A    between atoms: C_31  and  C_37
                            x       y       z     vdW  Elec       q    Type
                         _______ _______ _______ _____ _____    ______ ____

>  <TORSDO>
F 9

$$$$
=
 OpenBabel11052420023D

 37 42  0  0  1  0  0  0  0  0999 V2000
  193.2770  175.6780  145.5270 C   0  0  1  0  0  3  0  0  0  0  0  0
  191.1850  175.2240  148.2950 O   0  0  0  0  0  1  0  0  0  0  0  0
  191.4490  174.7330  144.6060 C   0  0  1  0  0  3  0  0  0  0  0  0
  190.8210  174.5610  146.0150 C   0  0  1  0  0  3  0  0  0  0  0  0
  191.5630  175.4960  146.9780 C   0  0  2  0  0  3  0  0  0  0  0  0
  192.8520  174.6460  144.6720 O   0  0  0  0  0  0  0  0  0  0  0  0
  192.9560  175.3380  146.8550 O   0  0  0  0  0  0  0  0  0  0  0  0
  189.7230  173.5350  139.3630 C   0  0  0  0  0  2  0  0  0  0  0  0
  190.9560  173.8000  143.5670 N   0  0  1  0  0  0  0  0  0  0  0  0
  191.4160  173.1920  141.2390 C   0  0  1  0  0  3  0  0  0  0  0  0
  191.0970  174.3390  142.2130 C   0  0  1  0  0  3  0  0  0  0  0  0
  192.0220  172.1020  142.1280 C   0  0  2  0  0  3  0  0  0  0  0  0
  190.0650  175.4110  141.8510 C   0  0  0  0  0  2  0  0  0  0  0  0
  188.2280  175.1330  140.3880 O   0  0  0  0  0  0  0  0  0  0  0  0
  192.6990  172.1590  144.6430 C   0  0  0  0  0  1  0  0  0  0  0  0
  190.9580  171.3740  142.9630 C   0  0  0  0  0  2  0  0  0  0  0  0
  188.6540  174.8700  141.6960 C   0  0  0  0  0  2  0  0  0  0  0  0
  191.7110  172.5400  143.5450 C   0  0  1  0  0  0  0  0  0  0  0  0
  190.2320  172.6120  140.4540 C   0  0  0  0  0  2  0  0  0  0  0  0
  188.2840  173.9150  139.6960 C   0  0  0  0  0  2  0  0  0  0  0  0
  194.7820  175.8720  145.3940 C   0  0  1  0  0  3  0  0  0  0  0  0
  195.4460  175.0830  146.3360 O   0  0  0  0  0  0  0  0  0  0  0  0
  197.1780  173.4620  146.1800 C   0  0  0  0  0  1  0  0  0  0  0  0
  195.8530  173.9490  145.6310 C   0  0  0  0  0  2  0  0  0  0  0  0
  195.1930  175.5030  144.1090 O   0  0  0  0  0  0  0  0  0  0  0  0
  197.1800  176.3800  143.1530 C   0  0  0  0  0  2  0  0  0  0  0  0
  195.7500  176.6610  143.5630 C   0  0  0  0  0  3  0  0  0  0  0  0
  196.0890  176.4110  142.1070 C   0  0  0  0  0  2  0  0  0  0  0  0
  189.3410  174.9040  145.9960 C   0  0  0  0  0  2  0  0  0  0  0  0
  189.1410  176.3020  145.4430 C   0  0  0  0  0  2  0  0  0  0  0  0
  187.1090  176.6310  146.8620 C   0  0  0  0  0  3  0  0  0  0  0  0
  187.7190  176.7080  145.6040 C   0  0  0  0  0  0  0  0  0  0  0  0
  186.9800  177.1330  144.4940 C   0  0  0  0  0  3  0  0  0  0  0  0
  184.6940  178.0340  143.2290 S   0  0  0  0  0  1  0  0  0  0  0  0
  185.0290  177.4180  145.9020 C   0  0  0  0  0  3  0  0  0  0  0  0
  185.6370  177.4900  144.6450 C   0  0  0  0  0  0  0  0  0  0  0  0
  185.7660  176.9880  147.0110 C   0  0  0  0  0  3  0  0  0  0  0  0
  1 21  1  1  0  0  0
  1  7  1  0  0  0  0
  3  6  1  1  0  0  0
  3  4  1  0  0  0  0
  4 29  1  6  0  0  0
  4  5  1  0  0  0  0
  5  2  1  1  0  0  0
  6  1  1  0  0  0  0
  7  5  1  0  0  0  0
  8 20  1  0  0  0  0
  8 19  1  0  0  0  0
  9  3  1  1  0  0  0
 10 19  1  1  0  0  0
 10 12  1  0  0  0  0
 10 11  1  0  0  0  0
 11 13  1  6  0  0  0
 11  9  1  0  0  0  0
 12 16  1  6  0  0  0
 12 18  1  0  0  0  0
 14 17  1  0  0  0  0
 16 18  1  0  0  0  0
 17 13  1  0  0  0  0
 18  9  1  0  0  0  0
 18 15  1  1  0  0  0
 20 14  1  0  0  0  0
 21 25  1  6  0  0  0
 21 22  1  0  0  0  0
 24 23  1  0  0  0  0
 24 22  1  0  0  0  0
 26 27  1  0  0  0  0
 27 25  1  0  0  0  0
 28 26  1  0  0  0  0
 28 27  1  0  0  0  0
 30 32  1  0  0  0  0
 30 29  1  0  0  0  0
 31 37  1  0  0  0  0
 32 31  2  0  0  0  0
 33 36  2  0  0  0  0
 33 32  1  0  0  0  0
 34 36  1  0  0  0  0
 35 37  2  0  0  0  0
 36 35  1  0  0  0  0
M  END
>  <MODEL>
7

>  <REMARK>
 VINA RESULT:      -6.8      3.123      7.101
  Name = 
  9 active torsions:
  status: ('A' for Active; 'I' for Inactive)
    1  A    between atoms: C_1  and  C_33
    2  A    between atoms: N_4  and  C_10
    3  A    between atoms: O_5  and  C_23
    4  A    between atoms: O_5  and  C_33
    5  A    between atoms: C_6  and  C_31
    6  A    between atoms: C_14  and  C_37
    7  A    between atoms: O_17  and  C_26
    8  A    between atoms: O_17  and  C_33
    9  A    between atoms: C_31  and  C_37
                            x       y       z     vdW  Elec       q    Type
                         _______ _______ _______ _____ _____    ______ ____

>  <TORSDO>
F 9

$$$$
=
 OpenBabel11052420023D

 37 42  0  0  1  0  0  0  0  0999 V2000
  188.7680  173.8550  142.5250 C   0  0  1  0  0  3  0  0  0  0  0  0
  187.8420  177.1470  141.7870 O   0  0  0  0  0  1  0  0  0  0  0  0
  189.8050  175.0270  144.1480 C   0  0  1  0  0  3  0  0  0  0  0  0
  189.3260  176.3550  143.5020 C   0  0  1  0  0  3  0  0  0  0  0  0
  188.1660  176.0260  142.5540 C   0  0  2  0  0  3  0  0  0  0  0  0
  190.0060  174.0400  143.1660 O   0  0  0  0  0  0  0  0  0  0  0  0
  188.5070  174.9630  141.6970 O   0  0  0  0  0  0  0  0  0  0  0  0
  194.7420  177.3820  145.5570 C   0  0  0  0  0  2  0  0  0  0  0  0
  191.0190  175.1270  144.9890 N   0  0  1  0  0  0  0  0  0  0  0  0
  192.3320  176.8220  146.1740 C   0  0  1  0  0  3  0  0  0  0  0  0
  191.7130  176.4060  144.8290 C   0  0  1  0  0  3  0  0  0  0  0  0
  191.5010  176.0720  147.2180 C   0  0  2  0  0  3  0  0  0  0  0  0
  192.5100  176.5300  143.5270 C   0  0  0  0  0  2  0  0  0  0  0  0
  194.8650  176.4570  143.3270 O   0  0  0  0  0  0  0  0  0  0  0  0
  189.3360  174.6480  146.9460 C   0  0  0  0  0  1  0  0  0  0  0  0
  191.8560  174.5780  147.2810 C   0  0  0  0  0  2  0  0  0  0  0  0
  193.7390  175.6390  143.4770 C   0  0  0  0  0  2  0  0  0  0  0  0
  190.7120  175.0490  146.4240 C   0  0  1  0  0  0  0  0  0  0  0  0
  193.8180  176.4970  146.3730 C   0  0  0  0  0  2  0  0  0  0  0  0
  195.5020  176.4950  144.5760 C   0  0  0  0  0  2  0  0  0  0  0  0
  188.8050  172.5820  141.6890 C   0  0  1  0  0  3  0  0  0  0  0  0
  189.3730  172.8530  140.4410 O   0  0  0  0  0  0  0  0  0  0  0  0
  188.3210  173.7570  138.5120 C   0  0  0  0  0  1  0  0  0  0  0  0
  188.3450  172.6310  139.5240 C   0  0  0  0  0  2  0  0  0  0  0  0
  189.5670  171.6100  142.3430 O   0  0  0  0  0  0  0  0  0  0  0  0
  191.8070  170.8700  142.0830 C   0  0  0  0  0  2  0  0  0  0  0  0
  190.4950  171.1800  141.3920 C   0  0  0  0  0  3  0  0  0  0  0  0
  190.8790  169.7440  141.6850 C   0  0  0  0  0  2  0  0  0  0  0  0
  188.8650  177.3410  144.5630 C   0  0  0  0  0  2  0  0  0  0  0  0
  187.8640  176.6760  145.4870 C   0  0  0  0  0  2  0  0  0  0  0  0
  186.2160  178.0670  146.7520 C   0  0  0  0  0  3  0  0  0  0  0  0
  186.6160  177.4840  145.5430 C   0  0  0  0  0  0  0  0  0  0  0  0
  185.8220  177.6320  144.4000 C   0  0  0  0  0  3  0  0  0  0  0  0
  183.6260  178.5610  143.0040 S   0  0  0  0  0  1  0  0  0  0  0  0
  184.2410  178.9570  145.6690 C   0  0  0  0  0  3  0  0  0  0  0  0
  184.6370  178.3700  144.4630 C   0  0  0  0  0  0  0  0  0  0  0  0
  185.0300  178.8050  146.8130 C   0  0  0  0  0  3  0  0  0  0  0  0
  1 21  1  6  0  0  0
  1  6  1  0  0  0  0
  3  6  1  6  0  0  0
  4  3  1  0  0  0  0
  4 29  1  1  0  0  0
  5  2  1  6  0  0  0
  5  4  1  0  0  0  0
  7  1  1  0  0  0  0
  7  5  1  0  0  0  0
  8 19  1  0  0  0  0
  9  3  1  6  0  0  0
  9 18  1  0  0  0  0
 10 19  1  6  0  0  0
 10 12  1  0  0  0  0
 11 13  1  6  0  0  0
 11  9  1  0  0  0  0
 11 10  1  0  0  0  0
 12 16  1  1  0  0  0
 14 17  1  0  0  0  0
 14 20  1  0  0  0  0
 17 13  1  0  0  0  0
 18 15  1  1  0  0  0
 18 12  1  0  0  0  0
 18 16  1  0  0  0  0
 20  8  1  0  0  0  0
 21 22  1  6  0  0  0
 21 25  1  0  0  0  0
 23 24  1  0  0  0  0
 24 22  1  0  0  0  0
 27 28  1  0  0  0  0
 27 26  1  0  0  0  0
 27 25  1  0  0  0  0
 28 26  1  0  0  0  0
 29 30  1  0  0  0  0
 30 32  1  0  0  0  0
 31 37  1  0  0  0  0
 32 31  2  0  0  0  0
 33 36  2  0  0  0  0
 33 32  1  0  0  0  0
 34 36  1  0  0  0  0
 35 37  2  0  0  0  0
 36 35  1  0  0  0  0
M  END
>  <MODEL>
8

>  <REMARK>
 VINA RESULT:      -6.7      3.166      7.183
  Name = 
  9 active torsions:
  status: ('A' for Active; 'I' for Inactive)
    1  A    between atoms: C_1  and  C_33
    2  A    between atoms: N_4  and  C_10
    3  A    between atoms: O_5  and  C_23
    4  A    between atoms: O_5  and  C_33
    5  A    between atoms: C_6  and  C_31
    6  A    between atoms: C_14  and  C_37
    7  A    between atoms: O_17  and  C_26
    8  A    between atoms: O_17  and  C_33
    9  A    between atoms: C_31  and  C_37
                            x       y       z     vdW  Elec       q    Type
                         _______ _______ _______ _____ _____    ______ ____

>  <TORSDO>
F 9

$$$$
=
 OpenBabel11052420023D

 37 42  0  0  1  0  0  0  0  0999 V2000
  187.8920  177.4740  144.1070 C   0  0  1  0  0  3  0  0  0  0  0  0
  191.0920  178.8690  143.8850 O   0  0  0  0  0  1  0  0  0  0  0  0
  189.2200  175.6530  144.1490 C   0  0  1  0  0  3  0  0  0  0  0  0
  190.4660  176.5500  143.9250 C   0  0  1  0  0  3  0  0  0  0  0  0
  190.0780  177.9920  144.2750 C   0  0  2  0  0  3  0  0  0  0  0  0
  188.0870  176.2090  143.5260 O   0  0  0  0  0  0  0  0  0  0  0  0
  188.8800  178.3570  143.6330 O   0  0  0  0  0  0  0  0  0  0  0  0
  191.1050  171.6460  140.6440 C   0  0  0  0  0  2  0  0  0  0  0  0
  189.3620  174.2420  143.7240 N   0  0  1  0  0  0  0  0  0  0  0  0
  191.1000  172.6890  142.9700 C   0  0  1  0  0  3  0  0  0  0  0  0
  190.4310  174.0540  142.7410 C   0  0  1  0  0  3  0  0  0  0  0  0
  190.7950  172.3620  144.4340 C   0  0  2  0  0  3  0  0  0  0  0  0
  190.0760  174.5270  141.3280 C   0  0  0  0  0  2  0  0  0  0  0  0
  189.6010  173.1350  139.4760 O   0  0  0  0  0  0  0  0  0  0  0  0
  189.6900  173.8150  146.2930 C   0  0  0  0  0  1  0  0  0  0  0  0
  189.3390  171.9160  144.6390 C   0  0  0  0  0  2  0  0  0  0  0  0
  189.0320  173.6640  140.6410 C   0  0  0  0  0  2  0  0  0  0  0  0
  189.7240  173.3560  144.8390 C   0  0  1  0  0  0  0  0  0  0  0  0
  190.6240  171.5350  142.0780 C   0  0  0  0  0  2  0  0  0  0  0  0
  189.8820  171.7870  139.7430 C   0  0  0  0  0  2  0  0  0  0  0  0
  186.5100  178.0020  143.7420 C   0  0  1  0  0  3  0  0  0  0  0  0
  186.1800  179.0780  144.5700 O   0  0  0  0  0  0  0  0  0  0  0  0
  184.4460  178.3880  146.0420 C   0  0  0  0  0  1  0  0  0  0  0  0
  185.9400  178.5070  145.8200 C   0  0  0  0  0  2  0  0  0  0  0  0
  186.5030  178.4240  142.4090 O   0  0  0  0  0  0  0  0  0  0  0  0
  184.2210  178.2920  141.7720 C   0  0  0  0  0  2  0  0  0  0  0  0
  185.5700  177.6020  141.7760 C   0  0  0  0  0  3  0  0  0  0  0  0
  185.0710  178.2900  140.5210 C   0  0  0  0  0  2  0  0  0  0  0  0
  191.6260  176.0990  144.7960 C   0  0  0  0  0  2  0  0  0  0  0  0
  192.9300  176.2370  144.0350 C   0  0  0  0  0  2  0  0  0  0  0  0
  193.7560  174.2670  145.3320 C   0  0  0  0  0  3  0  0  0  0  0  0
  193.7010  174.9690  144.1220 C   0  0  0  0  0  0  0  0  0  0  0  0
  194.4030  174.4950  143.0080 C   0  0  0  0  0  3  0  0  0  0  0  0
  196.0410  172.7110  141.6780 S   0  0  0  0  0  1  0  0  0  0  0  0
  195.1980  172.6120  144.3080 C   0  0  0  0  0  3  0  0  0  0  0  0
  195.1480  173.3160  143.1010 C   0  0  0  0  0  0  0  0  0  0  0  0
  194.5020  173.0880  145.4240 C   0  0  0  0  0  3  0  0  0  0  0  0
  1 21  1  6  0  0  0
  3  6  1  6  0  0  0
  4  3  1  0  0  0  0
  4  5  1  0  0  0  0
  4 29  1  1  0  0  0
  5  2  1  6  0  0  0
  6  1  1  0  0  0  0
  7  1  1  0  0  0  0
  7  5  1  0  0  0  0
  8 19  1  0  0  0  0
  9  3  1  1  0  0  0
  9 18  1  0  0  0  0
 10 19  1  6  0  0  0
 10 12  1  0  0  0  0
 11 13  1  6  0  0  0
 11 10  1  0  0  0  0
 11  9  1  0  0  0  0
 12 16  1  6  0  0  0
 12 18  1  0  0  0  0
 14 20  1  0  0  0  0
 14 17  1  0  0  0  0
 16 18  1  0  0  0  0
 17 13  1  0  0  0  0
 18 15  1  1  0  0  0
 20  8  1  0  0  0  0
 21 25  1  6  0  0  0
 21 22  1  0  0  0  0
 22 24  1  0  0  0  0
 24 23  1  0  0  0  0
 26 27  1  0  0  0  0
 27 25  1  0  0  0  0
 28 26  1  0  0  0  0
 28 27  1  0  0  0  0
 30 32  1  0  0  0  0
 30 29  1  0  0  0  0
 31 37  1  0  0  0  0
 32 31  2  0  0  0  0
 33 36  2  0  0  0  0
 33 32  1  0  0  0  0
 34 36  1  0  0  0  0
 35 37  2  0  0  0  0
 36 35  1  0  0  0  0
M  END
>  <MODEL>
9

>  <REMARK>
 VINA RESULT:      -6.6      2.138      2.932
  Name = 
  9 active torsions:
  status: ('A' for Active; 'I' for Inactive)
    1  A    between atoms: C_1  and  C_33
    2  A    between atoms: N_4  and  C_10
    3  A    between atoms: O_5  and  C_23
    4  A    between atoms: O_5  and  C_33
    5  A    between atoms: C_6  and  C_31
    6  A    between atoms: C_14  and  C_37
    7  A    between atoms: O_17  and  C_26
    8  A    between atoms: O_17  and  C_33
    9  A    between atoms: C_31  and  C_37
                            x       y       z     vdW  Elec       q    Type
                         _______ _______ _______ _____ _____    ______ ____

>  <TORSDO>
F 9

$$$$
