=
 OpenBabel11052419123D

 32 36  0  0  1  0  0  0  0  0999 V2000
  191.1730  175.8920  144.7040 C   0  0  1  0  0  3  0  0  0  0  0  0
  189.2640  177.6590  144.7350 C   0  0  2  0  0  3  0  0  0  0  0  0
  192.5180  175.6410  145.4010 C   0  0  0  0  0  2  0  0  0  0  0  0
  190.5110  177.0720  145.4180 C   0  0  1  0  0  3  0  0  0  0  0  0
  187.9940  176.9930  145.3020 C   0  0  2  0  0  3  0  0  0  0  0  0
  185.5620  178.0670  140.4370 N   0  0  0  0  0  1  0  0  0  0  0  0
  189.3050  177.5960  143.2400 C   0  0  1  0  0  3  0  0  0  0  0  0
  185.7440  176.7910  142.5080 C   0  0  0  0  0  2  0  0  0  0  0  0
  186.5630  176.3390  143.7280 C   0  0  0  0  0  2  0  0  0  0  0  0
  190.1580  176.5600  146.8150 C   0  0  2  0  0  3  0  0  0  0  0  0
  186.8100  177.3800  144.6400 O   0  0  0  0  0  0  0  0  0  0  0  0
  189.2290  177.4150  147.4350 O   0  0  0  0  0  0  0  0  0  0  0  0
  191.4460  176.3770  147.6020 C   0  0  0  0  0  2  0  0  0  0  0  0
  189.9420  176.4050  142.5790 C   0  0  0  0  0  2  0  0  0  0  0  0
  191.3160  176.1430  143.1980 C   0  0  2  0  0  3  0  0  0  0  0  0
  188.4320  178.3230  142.6410 N   0  0  0  0  0  2  0  0  0  0  0  0
  187.9490  177.1730  146.8540 C   0  0  1  0  0  3  0  0  0  0  0  0
  192.3080  175.3180  146.8920 C   0  0  0  0  0  2  0  0  0  0  0  0
  186.2840  177.9810  141.6920 C   0  0  1  0  0  3  0  0  0  0  0  0
  187.7850  177.9520  141.4160 C   0  0  0  0  0  2  0  0  0  0  0  0
  193.8670  174.0910  141.2580 C   0  0  0  0  0  0  0  0  0  0  0  0
  195.0880  174.2480  140.6920 F   0  0  0  0  0  0  0  0  0  0  0  0
  191.9820  174.9930  142.4950 C   0  0  0  0  0  0  0  0  0  0  0  0
  193.2290  172.8500  141.1900 C   0  0  0  0  0  3  0  0  0  0  0  0
  191.3490  173.7420  142.4210 C   0  0  0  0  0  3  0  0  0  0  0  0
  193.2470  175.1640  141.9100 C   0  0  0  0  0  0  0  0  0  0  0  0
  193.8910  176.3950  141.9750 O   0  0  0  0  0  1  0  0  0  0  0  0
  191.9650  172.6690  141.7700 C   0  0  0  0  0  0  0  0  0  0  0  0
  190.0680  171.2060  142.3830 C   0  0  0  0  0  1  0  0  0  0  0  0
  191.3010  171.4410  141.7180 O   0  0  0  0  0  0  0  0  0  0  0  0
  187.0070  178.2910  147.2810 C   0  0  0  0  0  2  0  0  0  0  0  0
  185.9410  177.7630  148.0100 O   0  0  0  0  0  1  0  0  0  0  0  0
  1  3  1  1  0  0  0
  1  4  1  0  0  0  0
  2  5  1  0  0  0  0
  2  4  1  0  0  0  0
  3 18  1  0  0  0  0
  4 10  1  0  0  0  0
  5 17  1  0  0  0  0
  6 19  1  0  0  0  0
  7  2  1  0  0  0  0
  8  9  1  0  0  0  0
  9 11  1  0  0  0  0
 10 12  1  0  0  0  0
 10 13  1  0  0  0  0
 11  5  1  0  0  0  0
 14 15  1  0  0  0  0
 14  7  1  0  0  0  0
 15  1  1  0  0  0  0
 16  7  1  0  0  0  0
 17 31  1  0  0  0  0
 17 12  1  0  0  0  0
 18 13  1  0  0  0  0
 19  8  1  0  0  0  0
 20 19  1  0  0  0  0
 20 16  1  0  0  0  0
 21 26  1  0  0  0  0
 22 21  1  0  0  0  0
 23 15  1  0  0  0  0
 24 21  2  0  0  0  0
 24 28  1  0  0  0  0
 25 23  1  0  0  0  0
 26 27  1  0  0  0  0
 26 23  2  0  0  0  0
 28 25  2  0  0  0  0
 30 28  1  0  0  0  0
 30 29  1  0  0  0  0
 31 32  1  0  0  0  0
M  END
>  <MODEL>
1

>  <REMARK>
 VINA RESULT:      -7.5      0.000      0.000
  Name = 
  3 active torsions:
  status: ('A' for Active; 'I' for Inactive)
    1  A    between atoms: C_13  and  C_29
    2  A    between atoms: O_15  and  C_26
    3  A    between atoms: C_16  and  C_27
                            x       y       z     vdW  Elec       q    Type
                         _______ _______ _______ _____ _____    ______ ____

>  <TORSDO>
F 3

$$$$
=
 OpenBabel11052419123D

 32 36  0  0  1  0  0  0  0  0999 V2000
  192.0540  175.0540  145.4880 C   0  0  1  0  0  3  0  0  0  0  0  0
  193.1430  172.9410  144.4310 C   0  0  2  0  0  3  0  0  0  0  0  0
  192.2050  175.9160  146.7500 C   0  0  0  0  0  2  0  0  0  0  0  0
  193.2230  174.0680  145.4760 C   0  0  1  0  0  3  0  0  0  0  0  0
  193.8820  173.3650  143.1460 C   0  0  2  0  0  3  0  0  0  0  0  0
  190.4800  169.9770  140.3720 N   0  0  0  0  0  1  0  0  0  0  0  0
  191.7480  172.4780  144.1440 C   0  0  1  0  0  3  0  0  0  0  0  0
  191.9790  171.9000  140.4730 C   0  0  0  0  0  2  0  0  0  0  0  0
  192.7190  172.9720  141.2890 C   0  0  0  0  0  2  0  0  0  0  0  0
  194.4740  174.9160  145.2440 C   0  0  2  0  0  3  0  0  0  0  0  0
  193.7480  172.4420  142.0870 O   0  0  0  0  0  0  0  0  0  0  0  0
  195.5550  174.1060  144.8500 O   0  0  0  0  0  0  0  0  0  0  0  0
  194.7430  175.7320  146.4990 C   0  0  0  0  0  2  0  0  0  0  0  0
  190.6330  173.4860  144.1400 C   0  0  0  0  0  2  0  0  0  0  0  0
  190.7010  174.3380  145.4090 C   0  0  2  0  0  3  0  0  0  0  0  0
  191.6650  171.3650  143.5080 N   0  0  0  0  0  2  0  0  0  0  0  0
  195.3600  173.7430  143.4840 C   0  0  1  0  0  3  0  0  0  0  0  0
  193.5480  176.6710  146.7380 C   0  0  0  0  0  2  0  0  0  0  0  0
  191.3780  170.7090  141.2450 C   0  0  1  0  0  3  0  0  0  0  0  0
  190.6500  171.0730  142.5370 C   0  0  0  0  0  2  0  0  0  0  0  0
  187.6270  176.2510  146.5800 C   0  0  0  0  0  0  0  0  0  0  0  0
  186.8010  176.3020  147.6540 F   0  0  0  0  0  0  0  0  0  0  0  0
  189.5490  175.3040  145.4380 C   0  0  0  0  0  0  0  0  0  0  0  0
  187.4050  177.1070  145.4990 C   0  0  0  0  0  3  0  0  0  0  0  0
  189.3180  176.1670  144.3560 C   0  0  0  0  0  3  0  0  0  0  0  0
  188.6980  175.3490  146.5540 C   0  0  0  0  0  0  0  0  0  0  0  0
  188.9110  174.5030  147.6370 O   0  0  0  0  0  1  0  0  0  0  0  0
  188.2500  177.0690  144.3790 C   0  0  0  0  0  0  0  0  0  0  0  0
  188.9380  177.9430  142.1700 C   0  0  0  0  0  1  0  0  0  0  0  0
  188.0530  177.9120  143.2820 O   0  0  0  0  0  0  0  0  0  0  0  0
  196.3370  172.6280  143.1380 C   0  0  0  0  0  2  0  0  0  0  0  0
  196.5420  171.8120  144.2510 O   0  0  0  0  0  1  0  0  0  0  0  0
  1  3  1  1  0  0  0
  2  4  1  0  0  0  0
  4  1  1  0  0  0  0
  5 17  1  0  0  0  0
  5  2  1  0  0  0  0
  6 19  1  0  0  0  0
  7  2  1  0  0  0  0
  8 19  1  0  0  0  0
  8  9  1  0  0  0  0
  9 11  1  0  0  0  0
 10  4  1  0  0  0  0
 10 13  1  0  0  0  0
 11  5  1  0  0  0  0
 12 10  1  0  0  0  0
 13 18  1  0  0  0  0
 14  7  1  0  0  0  0
 14 15  1  0  0  0  0
 15 23  1  0  0  0  0
 15  1  1  0  0  0  0
 16  7  1  0  0  0  0
 17 12  1  0  0  0  0
 18  3  1  0  0  0  0
 19 20  1  0  0  0  0
 20 16  1  0  0  0  0
 21 22  1  0  0  0  0
 23 26  2  0  0  0  0
 24 21  2  0  0  0  0
 25 28  2  0  0  0  0
 25 23  1  0  0  0  0
 26 21  1  0  0  0  0
 26 27  1  0  0  0  0
 28 24  1  0  0  0  0
 29 30  1  0  0  0  0
 30 28  1  0  0  0  0
 31 17  1  0  0  0  0
 31 32  1  0  0  0  0
M  END
>  <MODEL>
2

>  <REMARK>
 VINA RESULT:      -7.4      3.574      7.202
  Name = 
  3 active torsions:
  status: ('A' for Active; 'I' for Inactive)
    1  A    between atoms: C_13  and  C_29
    2  A    between atoms: O_15  and  C_26
    3  A    between atoms: C_16  and  C_27
                            x       y       z     vdW  Elec       q    Type
                         _______ _______ _______ _____ _____    ______ ____

>  <TORSDO>
F 3

$$$$
=
 OpenBabel11052419123D

 32 36  0  0  1  0  0  0  0  0999 V2000
  189.4860  176.5790  146.1860 C   0  0  1  0  0  3  0  0  0  0  0  0
  190.9500  174.5350  145.5190 C   0  0  2  0  0  3  0  0  0  0  0  0
  189.1150  177.3620  147.4540 C   0  0  0  0  0  2  0  0  0  0  0  0
  190.5920  175.5950  146.5740 C   0  0  1  0  0  3  0  0  0  0  0  0
  192.1200  175.0370  144.6480 C   0  0  2  0  0  3  0  0  0  0  0  0
  190.1420  171.8250  140.5840 N   0  0  0  0  0  1  0  0  0  0  0  0
  189.7880  174.0900  144.6860 C   0  0  1  0  0  3  0  0  0  0  0  0
  191.4390  173.7370  141.3680 C   0  0  0  0  0  2  0  0  0  0  0  0
  191.7780  174.7580  142.4660 C   0  0  0  0  0  2  0  0  0  0  0  0
  191.8140  176.4560  146.8950 C   0  0  2  0  0  3  0  0  0  0  0  0
  192.4290  174.1810  143.5700 O   0  0  0  0  0  0  0  0  0  0  0  0
  192.9820  175.6720  146.9070 O   0  0  0  0  0  0  0  0  0  0  0  0
  191.5550  177.1940  148.1990 C   0  0  0  0  0  2  0  0  0  0  0  0
  188.7370  175.0960  144.3060 C   0  0  0  0  0  2  0  0  0  0  0  0
  188.2870  175.8690  145.5470 C   0  0  2  0  0  3  0  0  0  0  0  0
  189.9840  173.0180  144.0060 N   0  0  0  0  0  2  0  0  0  0  0  0
  193.3410  175.3940  145.5550 C   0  0  1  0  0  3  0  0  0  0  0  0
  190.3390  178.1160  148.0080 C   0  0  0  0  0  2  0  0  0  0  0  0
  190.6140  172.5010  141.7770 C   0  0  1  0  0  3  0  0  0  0  0  0
  189.4330  172.7860  142.7030 C   0  0  0  0  0  2  0  0  0  0  0  0
  185.1350  177.9910  145.7470 C   0  0  0  0  0  0  0  0  0  0  0  0
  184.1290  178.2490  146.6180 F   0  0  0  0  0  0  0  0  0  0  0  0
  187.1920  176.8310  145.1810 C   0  0  0  0  0  0  0  0  0  0  0  0
  185.1510  178.6280  144.5030 C   0  0  0  0  0  3  0  0  0  0  0  0
  187.1990  177.4750  143.9340 C   0  0  0  0  0  3  0  0  0  0  0  0
  186.1530  177.0930  146.0890 C   0  0  0  0  0  0  0  0  0  0  0  0
  186.1290  176.4650  147.3300 O   0  0  0  0  0  1  0  0  0  0  0  0
  186.1840  178.3720  143.5890 C   0  0  0  0  0  0  0  0  0  0  0  0
  186.0090  178.2880  141.1240 C   0  0  0  0  0  1  0  0  0  0  0  0
  186.2280  178.9940  142.3380 O   0  0  0  0  0  0  0  0  0  0  0  0
  194.4020  174.3020  145.5540 C   0  0  0  0  0  2  0  0  0  0  0  0
  195.6020  174.8030  146.0590 O   0  0  0  0  0  1  0  0  0  0  0  0
  1  4  1  0  0  0  0
  1  3  1  1  0  0  0
  2  4  1  0  0  0  0
  3 18  1  0  0  0  0
  4 10  1  0  0  0  0
  5  2  1  0  0  0  0
  5 17  1  0  0  0  0
  6 19  1  0  0  0  0
  7  2  1  0  0  0  0
  8 19  1  0  0  0  0
  8  9  1  0  0  0  0
  9 11  1  0  0  0  0
 10 12  1  0  0  0  0
 10 13  1  0  0  0  0
 11  5  1  0  0  0  0
 14  7  1  0  0  0  0
 14 15  1  0  0  0  0
 15  1  1  0  0  0  0
 16  7  1  0  0  0  0
 17 12  1  0  0  0  0
 18 13  1  0  0  0  0
 19 20  1  0  0  0  0
 20 16  1  0  0  0  0
 21 26  1  0  0  0  0
 21 22  1  0  0  0  0
 23 15  1  0  0  0  0
 23 26  2  0  0  0  0
 24 21  2  0  0  0  0
 25 23  1  0  0  0  0
 26 27  1  0  0  0  0
 28 25  2  0  0  0  0
 28 24  1  0  0  0  0
 29 30  1  0  0  0  0
 30 28  1  0  0  0  0
 31 17  1  0  0  0  0
 31 32  1  0  0  0  0
M  END
>  <MODEL>
3

>  <REMARK>
 VINA RESULT:      -7.4      3.416      6.790
  Name = 
  3 active torsions:
  status: ('A' for Active; 'I' for Inactive)
    1  A    between atoms: C_13  and  C_29
    2  A    between atoms: O_15  and  C_26
    3  A    between atoms: C_16  and  C_27
                            x       y       z     vdW  Elec       q    Type
                         _______ _______ _______ _____ _____    ______ ____

>  <TORSDO>
F 3

$$$$
=
 OpenBabel11052419123D

 32 36  0  0  1  0  0  0  0  0999 V2000
  189.0140  174.8180  142.9060 C   0  0  1  0  0  3  0  0  0  0  0  0
  191.6020  174.5680  142.8580 C   0  0  2  0  0  3  0  0  0  0  0  0
  187.8110  174.4970  142.0070 C   0  0  0  0  0  2  0  0  0  0  0  0
  190.2410  174.1720  142.2610 C   0  0  1  0  0  3  0  0  0  0  0  0
  192.0140  173.5530  143.9440 C   0  0  2  0  0  3  0  0  0  0  0  0
  194.9190  177.6410  146.3090 N   0  0  0  0  0  1  0  0  0  0  0  0
  191.6560  175.9760  143.3640 C   0  0  1  0  0  3  0  0  0  0  0  0
  193.7360  175.5100  146.4170 C   0  0  0  0  0  2  0  0  0  0  0  0
  192.7310  174.5110  145.8200 C   0  0  0  0  0  2  0  0  0  0  0  0
  190.0260  172.6630  142.3900 C   0  0  2  0  0  3  0  0  0  0  0  0
  193.1900  173.9120  144.6350 O   0  0  0  0  0  0  0  0  0  0  0  0
  191.2320  171.9710  142.1720 O   0  0  0  0  0  0  0  0  0  0  0  0
  188.9040  172.2540  141.4490 C   0  0  0  0  0  2  0  0  0  0  0  0
  190.4340  176.5630  144.0150 C   0  0  0  0  0  2  0  0  0  0  0  0
  189.2100  176.3210  143.1300 C   0  0  2  0  0  3  0  0  0  0  0  0
  192.8370  176.4250  143.5980 N   0  0  0  0  0  2  0  0  0  0  0  0
  192.0380  172.1120  143.3400 C   0  0  1  0  0  3  0  0  0  0  0  0
  187.6150  172.9740  141.8800 C   0  0  0  0  0  2  0  0  0  0  0  0
  194.2330  176.6480  145.5050 C   0  0  1  0  0  3  0  0  0  0  0  0
  193.1520  177.3280  144.6670 C   0  0  0  0  0  2  0  0  0  0  0  0
  186.1320  178.5080  143.6010 C   0  0  0  0  0  0  0  0  0  0  0  0
  185.4130  179.4260  142.9080 F   0  0  0  0  0  0  0  0  0  0  0  0
  187.9990  176.9630  143.7480 C   0  0  0  0  0  0  0  0  0  0  0  0
  185.7370  178.1560  144.8940 C   0  0  0  0  0  3  0  0  0  0  0  0
  187.5950  176.6160  145.0470 C   0  0  0  0  0  3  0  0  0  0  0  0
  187.2610  177.9130  143.0250 C   0  0  0  0  0  0  0  0  0  0  0  0
  187.6440  178.2690  141.7360 O   0  0  0  0  0  1  0  0  0  0  0  0
  186.4690  177.2080  145.6250 C   0  0  0  0  0  0  0  0  0  0  0  0
  185.9030  177.7810  147.9630 C   0  0  0  0  0  1  0  0  0  0  0  0
  186.1000  176.8360  146.9200 O   0  0  0  0  0  0  0  0  0  0  0  0
  193.4500  171.6470  143.0090 C   0  0  0  0  0  2  0  0  0  0  0  0
  193.7610  171.9700  141.6880 O   0  0  0  0  0  1  0  0  0  0  0  0
  1  3  1  6  0  0  0
  1 15  1  0  0  0  0
  2  7  1  0  0  0  0
  2  5  1  0  0  0  0
  4 10  1  0  0  0  0
  4  2  1  0  0  0  0
  4  1  1  0  0  0  0
  5 11  1  0  0  0  0
  7 16  1  0  0  0  0
  7 14  1  0  0  0  0
  9  8  1  0  0  0  0
 11  9  1  0  0  0  0
 12 10  1  0  0  0  0
 12 17  1  0  0  0  0
 13 18  1  0  0  0  0
 13 10  1  0  0  0  0
 15 23  1  0  0  0  0
 15 14  1  0  0  0  0
 16 20  1  0  0  0  0
 17  5  1  0  0  0  0
 18  3  1  0  0  0  0
 19  6  1  0  0  0  0
 19  8  1  0  0  0  0
 20 19  1  0  0  0  0
 21 24  1  0  0  0  0
 22 21  1  0  0  0  0
 23 25  2  0  0  0  0
 24 28  2  0  0  0  0
 25 28  1  0  0  0  0
 26 21  2  0  0  0  0
 26 23  1  0  0  0  0
 27 26  1  0  0  0  0
 28 30  1  0  0  0  0
 30 29  1  0  0  0  0
 31 17  1  0  0  0  0
 32 31  1  0  0  0  0
M  END
>  <MODEL>
4

>  <REMARK>
 VINA RESULT:      -7.3      3.146      7.417
  Name = 
  3 active torsions:
  status: ('A' for Active; 'I' for Inactive)
    1  A    between atoms: C_13  and  C_29
    2  A    between atoms: O_15  and  C_26
    3  A    between atoms: C_16  and  C_27
                            x       y       z     vdW  Elec       q    Type
                         _______ _______ _______ _____ _____    ______ ____

>  <TORSDO>
F 3

$$$$
=
 OpenBabel11052419123D

 32 36  0  0  1  0  0  0  0  0999 V2000
  189.6540  176.0960  145.5790 C   0  0  1  0  0  3  0  0  0  0  0  0
  191.0430  174.0320  144.8180 C   0  0  2  0  0  3  0  0  0  0  0  0
  189.2490  176.7900  146.8880 C   0  0  0  0  0  2  0  0  0  0  0  0
  190.6790  175.0190  145.9400 C   0  0  1  0  0  3  0  0  0  0  0  0
  192.2880  174.5350  144.0600 C   0  0  2  0  0  3  0  0  0  0  0  0
  190.3900  171.8000  139.6270 N   0  0  0  0  0  1  0  0  0  0  0  0
  189.9110  173.7290  143.8860 C   0  0  1  0  0  3  0  0  0  0  0  0
  191.7380  173.5590  140.6460 C   0  0  0  0  0  2  0  0  0  0  0  0
  192.0650  174.4620  141.8470 C   0  0  0  0  0  2  0  0  0  0  0  0
  191.9240  175.7760  146.4030 C   0  0  2  0  0  3  0  0  0  0  0  0
  192.6160  173.7560  142.9310 O   0  0  0  0  0  0  0  0  0  0  0  0
  193.0460  174.9260  146.4110 O   0  0  0  0  0  0  0  0  0  0  0  0
  191.6270  176.4160  147.7500 C   0  0  0  0  0  2  0  0  0  0  0  0
  188.9410  174.8240  143.5370 C   0  0  0  0  0  2  0  0  0  0  0  0
  188.4600  175.5140  144.8140 C   0  0  2  0  0  3  0  0  0  0  0  0
  190.0900  172.7080  143.1260 N   0  0  0  0  0  2  0  0  0  0  0  0
  193.4700  174.7420  145.0620 C   0  0  1  0  0  3  0  0  0  0  0  0
  190.4760  177.4210  147.5730 C   0  0  0  0  0  2  0  0  0  0  0  0
  190.8240  172.3440  140.8990 C   0  0  1  0  0  3  0  0  0  0  0  0
  189.6070  172.6190  141.7790 C   0  0  0  0  0  2  0  0  0  0  0  0
  186.6360  178.3100  142.9870 C   0  0  0  0  0  0  0  0  0  0  0  0
  186.7680  179.0530  141.8610 F   0  0  0  0  0  0  0  0  0  0  0  0
  187.4420  176.5670  144.4730 C   0  0  0  0  0  0  0  0  0  0  0  0
  185.5430  178.5260  143.8310 C   0  0  0  0  0  3  0  0  0  0  0  0
  186.3410  176.7910  145.3150 C   0  0  0  0  0  3  0  0  0  0  0  0
  187.5860  177.3320  143.3050 C   0  0  0  0  0  0  0  0  0  0  0  0
  188.6700  177.1250  142.4570 O   0  0  0  0  0  1  0  0  0  0  0  0
  185.3900  177.7660  145.0010 C   0  0  0  0  0  0  0  0  0  0  0  0
  184.4730  178.2910  147.2370 C   0  0  0  0  0  1  0  0  0  0  0  0
  184.3090  177.9580  145.8650 O   0  0  0  0  0  0  0  0  0  0  0  0
  194.4690  173.5930  145.0250 C   0  0  0  0  0  2  0  0  0  0  0  0
  193.9820  172.5140  145.7630 O   0  0  0  0  0  1  0  0  0  0  0  0
  1  4  1  0  0  0  0
  1  3  1  1  0  0  0
  2  4  1  0  0  0  0
  3 18  1  0  0  0  0
  4 10  1  0  0  0  0
  5  2  1  0  0  0  0
  5 17  1  0  0  0  0
  6 19  1  0  0  0  0
  7  2  1  0  0  0  0
  8 19  1  0  0  0  0
  8  9  1  0  0  0  0
  9 11  1  0  0  0  0
 10 12  1  0  0  0  0
 10 13  1  0  0  0  0
 11  5  1  0  0  0  0
 14  7  1  0  0  0  0
 14 15  1  0  0  0  0
 15  1  1  0  0  0  0
 16  7  1  0  0  0  0
 17 12  1  0  0  0  0
 18 13  1  0  0  0  0
 19 20  1  0  0  0  0
 20 16  1  0  0  0  0
 21 26  2  0  0  0  0
 21 24  1  0  0  0  0
 22 21  1  0  0  0  0
 23 15  1  0  0  0  0
 23 25  2  0  0  0  0
 24 28  2  0  0  0  0
 26 23  1  0  0  0  0
 27 26  1  0  0  0  0
 28 25  1  0  0  0  0
 28 30  1  0  0  0  0
 30 29  1  0  0  0  0
 31 17  1  0  0  0  0
 31 32  1  0  0  0  0
M  END
>  <MODEL>
5

>  <REMARK>
 VINA RESULT:      -6.8      3.167      6.528
  Name = 
  3 active torsions:
  status: ('A' for Active; 'I' for Inactive)
    1  A    between atoms: C_13  and  C_29
    2  A    between atoms: O_15  and  C_26
    3  A    between atoms: C_16  and  C_27
                            x       y       z     vdW  Elec       q    Type
                         _______ _______ _______ _____ _____    ______ ____

>  <TORSDO>
F 3

$$$$
=
 OpenBabel11052419123D

 32 36  0  0  1  0  0  0  0  0999 V2000
  191.1810  175.9240  144.6970 C   0  0  1  0  0  3  0  0  0  0  0  0
  189.2610  177.6780  144.7270 C   0  0  2  0  0  3  0  0  0  0  0  0
  192.5270  175.6800  145.3970 C   0  0  0  0  0  2  0  0  0  0  0  0
  190.5100  177.0980  145.4120 C   0  0  1  0  0  3  0  0  0  0  0  0
  187.9940  177.0030  145.2900 C   0  0  2  0  0  3  0  0  0  0  0  0
  185.5670  178.0700  140.4200 N   0  0  0  0  0  1  0  0  0  0  0  0
  189.3060  177.6180  143.2320 C   0  0  1  0  0  3  0  0  0  0  0  0
  185.7520  176.7910  142.4900 C   0  0  0  0  0  2  0  0  0  0  0  0
  186.5710  176.3430  143.7110 C   0  0  0  0  0  2  0  0  0  0  0  0
  190.1560  176.5810  146.8070 C   0  0  2  0  0  3  0  0  0  0  0  0
  186.8090  177.3830  144.6250 O   0  0  0  0  0  0  0  0  0  0  0  0
  189.2200  177.4290  147.4270 O   0  0  0  0  0  0  0  0  0  0  0  0
  191.4440  176.4050  147.5970 C   0  0  0  0  0  2  0  0  0  0  0  0
  189.9520  176.4330  142.5700 C   0  0  0  0  0  2  0  0  0  0  0  0
  191.3260  176.1790  143.1920 C   0  0  2  0  0  3  0  0  0  0  0  0
  188.4300  178.3410  142.6320 N   0  0  0  0  0  2  0  0  0  0  0  0
  187.9440  177.1790  146.8420 C   0  0  1  0  0  3  0  0  0  0  0  0
  192.3150  175.3530  146.8880 C   0  0  0  0  0  2  0  0  0  0  0  0
  186.2860  177.9860  141.6770 C   0  0  1  0  0  3  0  0  0  0  0  0
  187.7880  177.9670  141.4050 C   0  0  0  0  0  2  0  0  0  0  0  0
  192.0520  172.6920  141.8520 C   0  0  0  0  0  0  0  0  0  0  0  0
  191.4990  171.4540  141.8680 F   0  0  0  0  0  0  0  0  0  0  0  0
  192.0020  175.0340  142.4890 C   0  0  0  0  0  0  0  0  0  0  0  0
  193.2560  172.9010  141.1740 C   0  0  0  0  0  3  0  0  0  0  0  0
  193.2110  175.2350  141.8050 C   0  0  0  0  0  3  0  0  0  0  0  0
  191.4230  173.7550  142.5100 C   0  0  0  0  0  0  0  0  0  0  0  0
  190.2240  173.5370  143.1810 O   0  0  0  0  0  1  0  0  0  0  0  0
  193.8420  174.1750  141.1470 C   0  0  0  0  0  0  0  0  0  0  0  0
  195.7190  175.6660  140.5360 C   0  0  0  0  0  1  0  0  0  0  0  0
  195.0450  174.4160  140.4780 O   0  0  0  0  0  0  0  0  0  0  0  0
  186.9940  178.2910  147.2680 C   0  0  0  0  0  2  0  0  0  0  0  0
  185.9410  177.7580  148.0120 O   0  0  0  0  0  1  0  0  0  0  0  0
  1  3  1  1  0  0  0
  1  4  1  0  0  0  0
  2  5  1  0  0  0  0
  2  4  1  0  0  0  0
  3 18  1  0  0  0  0
  4 10  1  0  0  0  0
  5 17  1  0  0  0  0
  6 19  1  0  0  0  0
  7  2  1  0  0  0  0
  8  9  1  0  0  0  0
  9 11  1  0  0  0  0
 10 12  1  0  0  0  0
 10 13  1  0  0  0  0
 11  5  1  0  0  0  0
 14 15  1  0  0  0  0
 14  7  1  0  0  0  0
 15  1  1  0  0  0  0
 16  7  1  0  0  0  0
 17 31  1  0  0  0  0
 17 12  1  0  0  0  0
 18 13  1  0  0  0  0
 19  8  1  0  0  0  0
 20 19  1  0  0  0  0
 20 16  1  0  0  0  0
 21 22  1  0  0  0  0
 21 26  1  0  0  0  0
 23 26  2  0  0  0  0
 23 15  1  0  0  0  0
 24 21  2  0  0  0  0
 25 23  1  0  0  0  0
 26 27  1  0  0  0  0
 28 24  1  0  0  0  0
 28 25  2  0  0  0  0
 30 29  1  0  0  0  0
 30 28  1  0  0  0  0
 31 32  1  0  0  0  0
M  END
>  <MODEL>
6

>  <REMARK>
 VINA RESULT:      -6.8      1.170      2.153
  Name = 
  3 active torsions:
  status: ('A' for Active; 'I' for Inactive)
    1  A    between atoms: C_13  and  C_29
    2  A    between atoms: O_15  and  C_26
    3  A    between atoms: C_16  and  C_27
                            x       y       z     vdW  Elec       q    Type
                         _______ _______ _______ _____ _____    ______ ____

>  <TORSDO>
F 3

$$$$
=
 OpenBabel11052419123D

 32 36  0  0  1  0  0  0  0  0999 V2000
  192.3000  175.3150  145.4430 C   0  0  1  0  0  3  0  0  0  0  0  0
  190.5360  175.8010  143.5940 C   0  0  2  0  0  3  0  0  0  0  0  0
  193.0080  176.0640  146.5820 C   0  0  0  0  0  2  0  0  0  0  0  0
  191.2130  176.2450  144.9020 C   0  0  1  0  0  3  0  0  0  0  0  0
  189.2620  174.9920  143.9120 C   0  0  2  0  0  3  0  0  0  0  0  0
  190.0040  172.3970  139.0680 N   0  0  0  0  0  1  0  0  0  0  0  0
  191.4450  175.0620  142.6610 C   0  0  1  0  0  3  0  0  0  0  0  0
  189.0970  172.4960  141.3310 C   0  0  0  0  0  2  0  0  0  0  0  0
  189.1020  173.1040  142.7430 C   0  0  0  0  0  2  0  0  0  0  0  0
  190.1770  176.3600  146.0210 C   0  0  2  0  0  3  0  0  0  0  0  0
  188.6480  174.4340  142.7700 O   0  0  0  0  0  0  0  0  0  0  0  0
  188.9680  176.8800  145.5240 O   0  0  0  0  0  0  0  0  0  0  0  0
  190.7790  177.1780  147.1530 C   0  0  0  0  0  2  0  0  0  0  0  0
  192.4830  174.1380  143.2350 C   0  0  0  0  0  2  0  0  0  0  0  0
  193.2600  174.8550  144.3390 C   0  0  2  0  0  3  0  0  0  0  0  0
  191.0050  174.9330  141.4610 N   0  0  0  0  0  2  0  0  0  0  0  0
  188.3030  175.8430  144.8050 C   0  0  1  0  0  3  0  0  0  0  0  0
  192.0100  176.4320  147.6960 C   0  0  0  0  0  2  0  0  0  0  0  0
  189.8660  173.2530  140.2310 C   0  0  1  0  0  3  0  0  0  0  0  0
  191.2390  173.7800  140.6420 C   0  0  0  0  0  2  0  0  0  0  0  0
  196.6590  173.5940  145.4960 C   0  0  0  0  0  0  0  0  0  0  0  0
  197.9300  174.0480  145.6230 F   0  0  0  0  0  0  0  0  0  0  0  0
  194.3410  173.9550  144.8710 C   0  0  0  0  0  0  0  0  0  0  0  0
  196.3560  172.2810  145.8670 C   0  0  0  0  0  3  0  0  0  0  0  0
  194.0450  172.6340  145.2450 C   0  0  0  0  0  3  0  0  0  0  0  0
  195.6550  174.4330  144.9990 C   0  0  0  0  0  0  0  0  0  0  0  0
  195.9670  175.7390  144.6350 O   0  0  0  0  0  1  0  0  0  0  0  0
  195.0460  171.7940  145.7420 C   0  0  0  0  0  0  0  0  0  0  0  0
  194.1520  169.5560  145.1860 C   0  0  0  0  0  1  0  0  0  0  0  0
  194.7110  170.4860  146.1030 O   0  0  0  0  0  0  0  0  0  0  0  0
  187.1650  176.4630  144.0060 C   0  0  0  0  0  2  0  0  0  0  0  0
  187.5140  177.7520  143.6040 O   0  0  0  0  0  1  0  0  0  0  0  0
  1  3  1  1  0  0  0
  2  5  1  0  0  0  0
  2  4  1  0  0  0  0
  3 18  1  0  0  0  0
  4  1  1  0  0  0  0
  4 10  1  0  0  0  0
  5 17  1  0  0  0  0
  6 19  1  0  0  0  0
  7 14  1  0  0  0  0
  7  2  1  0  0  0  0
  8  9  1  0  0  0  0
  9 11  1  0  0  0  0
 10 13  1  0  0  0  0
 11  5  1  0  0  0  0
 12 10  1  0  0  0  0
 13 18  1  0  0  0  0
 14 15  1  0  0  0  0
 15 23  1  0  0  0  0
 15  1  1  0  0  0  0
 16  7  1  0  0  0  0
 17 12  1  0  0  0  0
 19 20  1  0  0  0  0
 19  8  1  0  0  0  0
 20 16  1  0  0  0  0
 21 22  1  0  0  0  0
 21 24  1  0  0  0  0
 23 26  1  0  0  0  0
 23 25  2  0  0  0  0
 25 28  1  0  0  0  0
 26 21  2  0  0  0  0
 27 26  1  0  0  0  0
 28 24  2  0  0  0  0
 28 30  1  0  0  0  0
 29 30  1  0  0  0  0
 31 17  1  0  0  0  0
 32 31  1  0  0  0  0
M  END
>  <MODEL>
7

>  <REMARK>
 VINA RESULT:      -6.7      3.185      4.094
  Name = 
  3 active torsions:
  status: ('A' for Active; 'I' for Inactive)
    1  A    between atoms: C_13  and  C_29
    2  A    between atoms: O_15  and  C_26
    3  A    between atoms: C_16  and  C_27
                            x       y       z     vdW  Elec       q    Type
                         _______ _______ _______ _____ _____    ______ ____

>  <TORSDO>
F 3

$$$$
=
 OpenBabel11052419123D

 32 36  0  0  1  0  0  0  0  0999 V2000
  186.7970  177.2980  144.8320 C   0  0  1  0  0  3  0  0  0  0  0  0
  188.9620  176.0350  145.5310 C   0  0  2  0  0  3  0  0  0  0  0  0
  185.3970  177.5780  145.3970 C   0  0  0  0  0  2  0  0  0  0  0  0
  187.6050  176.6290  145.9460 C   0  0  1  0  0  3  0  0  0  0  0  0
  190.0800  177.0730  145.7570 C   0  0  2  0  0  3  0  0  0  0  0  0
  192.8850  174.5710  141.6820 N   0  0  0  0  0  1  0  0  0  0  0  0
  188.9840  175.4890  144.1370 C   0  0  1  0  0  3  0  0  0  0  0  0
  192.4000  176.5170  143.0710 C   0  0  0  0  0  2  0  0  0  0  0  0
  191.4610  177.2740  144.0240 C   0  0  0  0  0  2  0  0  0  0  0  0
  187.8030  177.7070  147.0130 C   0  0  2  0  0  3  0  0  0  0  0  0
  191.3410  176.6580  145.2810 O   0  0  0  0  0  0  0  0  0  0  0  0
  188.8270  177.3370  147.9050 O   0  0  0  0  0  0  0  0  0  0  0  0
  186.4660  177.9710  147.6870 C   0  0  0  0  0  2  0  0  0  0  0  0
  188.1960  176.1930  143.0670 C   0  0  0  0  0  2  0  0  0  0  0  0
  186.7700  176.4470  143.5570 C   0  0  2  0  0  3  0  0  0  0  0  0
  189.9900  174.7400  143.8620 N   0  0  0  0  0  2  0  0  0  0  0  0
  190.0770  177.5380  147.2500 C   0  0  1  0  0  3  0  0  0  0  0  0
  185.4800  178.4990  146.6300 C   0  0  0  0  0  2  0  0  0  0  0  0
  192.0990  175.0280  142.8120 C   0  0  1  0  0  3  0  0  0  0  0  0
  190.6270  174.6940  142.5780 C   0  0  0  0  0  2  0  0  0  0  0  0
  185.7370  177.8040  140.1550 C   0  0  0  0  0  0  0  0  0  0  0  0
  186.2420  177.9140  138.9020 F   0  0  0  0  0  0  0  0  0  0  0  0
  185.9620  177.0930  142.4660 C   0  0  0  0  0  0  0  0  0  0  0  0
  184.4560  178.2900  140.4280 C   0  0  0  0  0  3  0  0  0  0  0  0
  184.6740  177.5850  142.7310 C   0  0  0  0  0  3  0  0  0  0  0  0
  186.4920  177.2040  141.1700 C   0  0  0  0  0  0  0  0  0  0  0  0
  187.7660  176.7210  140.8870 O   0  0  0  0  0  1  0  0  0  0  0  0
  183.9180  178.1840  141.7200 C   0  0  0  0  0  0  0  0  0  0  0  0
  181.4960  178.3410  141.2450 C   0  0  0  0  0  1  0  0  0  0  0  0
  182.6410  178.6620  142.0240 O   0  0  0  0  0  0  0  0  0  0  0  0
  191.1650  176.8570  148.0700 C   0  0  0  0  0  2  0  0  0  0  0  0
  191.5660  177.6890  149.1140 O   0  0  0  0  0  1  0  0  0  0  0  0
  1  3  1  1  0  0  0
  1  4  1  0  0  0  0
  2  5  1  0  0  0  0
  2  4  1  0  0  0  0
  3 18  1  0  0  0  0
  4 10  1  0  0  0  0
  5 17  1  0  0  0  0
  6 19  1  0  0  0  0
  7  2  1  0  0  0  0
  8  9  1  0  0  0  0
  9 11  1  0  0  0  0
 10 13  1  0  0  0  0
 10 12  1  0  0  0  0
 11  5  1  0  0  0  0
 14 15  1  0  0  0  0
 14  7  1  0  0  0  0
 15  1  1  0  0  0  0
 16  7  1  0  0  0  0
 17 12  1  0  0  0  0
 17 31  1  0  0  0  0
 18 13  1  0  0  0  0
 19  8  1  0  0  0  0
 20 19  1  0  0  0  0
 20 16  1  0  0  0  0
 21 24  2  0  0  0  0
 21 26  1  0  0  0  0
 22 21  1  0  0  0  0
 23 25  1  0  0  0  0
 23 15  1  0  0  0  0
 24 28  1  0  0  0  0
 26 23  2  0  0  0  0
 27 26  1  0  0  0  0
 28 30  1  0  0  0  0
 28 25  2  0  0  0  0
 29 30  1  0  0  0  0
 31 32  1  0  0  0  0
M  END
>  <MODEL>
8

>  <REMARK>
 VINA RESULT:      -6.7      3.078      6.448
  Name = 
  3 active torsions:
  status: ('A' for Active; 'I' for Inactive)
    1  A    between atoms: C_13  and  C_29
    2  A    between atoms: O_15  and  C_26
    3  A    between atoms: C_16  and  C_27
                            x       y       z     vdW  Elec       q    Type
                         _______ _______ _______ _____ _____    ______ ____

>  <TORSDO>
F 3

$$$$
=
 OpenBabel11052419123D

 32 36  0  0  1  0  0  0  0  0999 V2000
  188.8510  174.9720  143.0500 C   0  0  1  0  0  3  0  0  0  0  0  0
  191.4300  174.8930  142.7170 C   0  0  2  0  0  3  0  0  0  0  0  0
  187.5780  174.7280  142.2260 C   0  0  0  0  0  2  0  0  0  0  0  0
  190.0330  174.5150  142.1930 C   0  0  1  0  0  3  0  0  0  0  0  0
  191.9960  173.7420  143.5730 C   0  0  2  0  0  3  0  0  0  0  0  0
  194.9420  177.5620  146.3060 N   0  0  0  0  0  1  0  0  0  0  0  0
  191.4720  176.2000  143.4440 C   0  0  1  0  0  3  0  0  0  0  0  0
  193.8740  175.3730  146.1670 C   0  0  0  0  0  2  0  0  0  0  0  0
  192.8590  174.4250  145.5080 C   0  0  0  0  0  2  0  0  0  0  0  0
  189.9010  172.9960  142.0860 C   0  0  2  0  0  3  0  0  0  0  0  0
  193.2200  174.0550  144.2010 O   0  0  0  0  0  0  0  0  0  0  0  0
  191.1080  172.4240  141.6430 O   0  0  0  0  0  0  0  0  0  0  0  0
  188.7070  172.6770  141.2000 C   0  0  0  0  0  2  0  0  0  0  0  0
  190.2980  176.5980  144.2960 C   0  0  0  0  0  2  0  0  0  0  0  0
  189.0020  176.4280  143.5030 C   0  0  2  0  0  3  0  0  0  0  0  0
  192.6490  176.6770  143.6380 N   0  0  0  0  0  2  0  0  0  0  0  0
  192.0230  172.4220  142.7370 C   0  0  1  0  0  3  0  0  0  0  0  0
  187.4380  173.2370  141.8650 C   0  0  0  0  0  2  0  0  0  0  0  0
  194.2220  176.6730  145.4150 C   0  0  1  0  0  3  0  0  0  0  0  0
  193.0320  177.4120  144.8090 C   0  0  0  0  0  2  0  0  0  0  0  0
  186.5920  176.8530  146.4170 C   0  0  0  0  0  0  0  0  0  0  0  0
  186.4380  176.4120  147.6900 F   0  0  0  0  0  0  0  0  0  0  0  0
  187.8330  176.8860  144.3300 C   0  0  0  0  0  0  0  0  0  0  0  0
  185.6590  177.7410  145.8770 C   0  0  0  0  0  3  0  0  0  0  0  0
  186.8900  177.7780  143.7960 C   0  0  0  0  0  3  0  0  0  0  0  0
  187.6800  176.4240  145.6470 C   0  0  0  0  0  0  0  0  0  0  0  0
  188.6050  175.5410  146.1950 O   0  0  0  0  0  1  0  0  0  0  0  0
  185.8020  178.2080  144.5620 C   0  0  0  0  0  0  0  0  0  0  0  0
  183.8240  178.6680  143.1510 C   0  0  0  0  0  1  0  0  0  0  0  0
  184.8850  179.0960  143.9940 O   0  0  0  0  0  0  0  0  0  0  0  0
  193.4120  172.1040  142.2010 C   0  0  0  0  0  2  0  0  0  0  0  0
  193.5790  172.6750  140.9400 O   0  0  0  0  0  1  0  0  0  0  0  0
  1  3  1  6  0  0  0
  1 15  1  0  0  0  0
  2  7  1  0  0  0  0
  2  5  1  0  0  0  0
  4  2  1  0  0  0  0
  4  1  1  0  0  0  0
  5 11  1  0  0  0  0
  7 16  1  0  0  0  0
  7 14  1  0  0  0  0
  9  8  1  0  0  0  0
 10  4  1  0  0  0  0
 11  9  1  0  0  0  0
 12 10  1  0  0  0  0
 12 17  1  0  0  0  0
 13 18  1  0  0  0  0
 13 10  1  0  0  0  0
 15 14  1  0  0  0  0
 15 23  1  0  0  0  0
 16 20  1  0  0  0  0
 17  5  1  0  0  0  0
 18  3  1  0  0  0  0
 19  8  1  0  0  0  0
 19  6  1  0  0  0  0
 20 19  1  0  0  0  0
 21 22  1  0  0  0  0
 23 26  1  0  0  0  0
 24 21  1  0  0  0  0
 25 23  2  0  0  0  0
 25 28  1  0  0  0  0
 26 27  1  0  0  0  0
 26 21  2  0  0  0  0
 28 24  2  0  0  0  0
 29 30  1  0  0  0  0
 30 28  1  0  0  0  0
 31 17  1  0  0  0  0
 32 31  1  0  0  0  0
M  END
>  <MODEL>
9

>  <REMARK>
 VINA RESULT:      -6.6      3.165      7.550
  Name = 
  3 active torsions:
  status: ('A' for Active; 'I' for Inactive)
    1  A    between atoms: C_13  and  C_29
    2  A    between atoms: O_15  and  C_26
    3  A    between atoms: C_16  and  C_27
                            x       y       z     vdW  Elec       q    Type
                         _______ _______ _______ _____ _____    ______ ____

>  <TORSDO>
F 3

$$$$
