=
 OpenBabel11052420043D

 37 40  0  0  1  0  0  0  0  0999 V2000
  192.2710  176.7240  144.7490 C   0  0  0  0  0  3  0  0  0  0  0  0
  194.6820  175.8690  141.1630 C   0  0  0  0  0  3  0  0  0  0  0  0
  191.3080  176.2670  143.9610 C   0  0  0  0  0  0  0  0  0  0  0  0
  193.7830  175.8320  142.2360 C   0  0  0  0  0  0  0  0  0  0  0  0
  194.2800  176.3130  143.3810 C   0  0  0  0  0  3  0  0  0  0  0  0
  192.5480  175.1240  142.0960 C   0  0  0  0  0  0  0  0  0  0  0  0
  193.2850  174.4020  139.8700 C   0  0  0  0  0  3  0  0  0  0  0  0
  193.6240  176.3060  144.6490 N   0  0  0  0  0  0  0  0  0  0  0  0
  192.3640  174.3750  140.9140 C   0  0  0  0  0  3  0  0  0  0  0  0
  191.5220  175.1430  142.9920 C   0  0  0  0  0  0  0  0  0  0  0  0
  194.4380  175.1810  139.9770 C   0  0  0  0  0  0  0  0  0  0  0  0
  195.3680  175.2660  138.9380 O   0  0  0  0  0  0  0  0  0  0  0  0
  195.0290  175.0150  137.5810 C   0  0  0  0  0  1  0  0  0  0  0  0
  195.2210  175.1420  146.0910 C   0  0  0  0  0  1  0  0  0  0  0  0
  194.4560  176.4300  145.8360 C   0  0  0  0  0  2  0  0  0  0  0  0
  190.0010  177.0050  144.0800 C   0  0  1  0  0  3  0  0  0  0  0  0
  188.7900  176.6040  146.1040 O   0  0  0  0  0  1  0  0  0  0  0  0
  189.7060  177.4650  145.5020 C   0  0  0  0  0  2  0  0  0  0  0  0
  189.8650  178.1300  143.0700 C   0  0  0  0  0  2  0  0  0  0  0  0
  189.1230  177.6910  141.9410 O   0  0  0  0  0  0  0  0  0  0  0  0
  187.1610  177.6090  140.6630 C   0  0  0  0  0  3  0  0  0  0  0  0
  187.7510  177.9160  141.8210 C   0  0  0  0  0  0  0  0  0  0  0  0
  186.9620  178.4900  142.9790 C   0  0  0  0  0  2  0  0  0  0  0  0
  184.7350  179.1270  143.5560 O   0  0  0  0  0  0  0  0  0  0  0  0
  184.9700  178.2990  141.3940 N   0  0  0  0  0  0  0  0  0  0  0  0
  185.5010  178.6610  142.6740 C   0  0  0  0  0  0  0  0  0  0  0  0
  185.7200  177.8130  140.4540 C   0  0  0  0  0  3  0  0  0  0  0  0
  190.5450  173.9730  142.9750 C   0  0  1  0  0  3  0  0  0  0  0  0
  190.7360  173.0010  144.1370 C   0  0  0  0  0  0  0  0  0  0  0  0
  192.1010  172.4600  144.5140 C   0  0  0  0  0  1  0  0  0  0  0  0
  189.7960  173.2070  145.3010 C   0  0  0  0  0  2  0  0  0  0  0  0
  189.5960  172.0340  144.3530 C   0  0  0  0  0  2  0  0  0  0  0  0
  189.0870  174.3080  142.6940 C   0  0  0  0  0  2  0  0  0  0  0  0
  188.8100  174.2520  141.2050 C   0  0  0  0  0  2  0  0  0  0  0  0
  188.4730  172.8300  140.8110 C   0  0  0  0  0  2  0  0  0  0  0  0
  190.3810  171.2890  140.5110 C   0  0  0  0  0  1  0  0  0  0  0  0
  189.5080  172.3210  139.8310 C   0  0  0  0  0  2  0  0  0  0  0  0
  2  4  1  0  0  0  0
  3 16  1  0  0  0  0
  3  1  2  0  0  0  0
  4  5  2  0  0  0  0
  5  8  1  0  0  0  0
  6  4  1  0  0  0  0
  6 10  2  0  0  0  0
  7 11  1  0  0  0  0
  7  9  2  0  0  0  0
  8  1  1  0  0  0  0
  8 15  1  0  0  0  0
  9  6  1  0  0  0  0
 10  3  1  0  0  0  0
 11  2  2  0  0  0  0
 12 11  1  0  0  0  0
 13 12  1  0  0  0  0
 15 14  1  0  0  0  0
 16 19  1  6  0  0  0
 16 18  1  0  0  0  0
 18 17  1  0  0  0  0
 20 19  1  0  0  0  0
 21 22  2  0  0  0  0
 22 20  1  0  0  0  0
 22 23  1  0  0  0  0
 25 26  1  0  0  0  0
 26 23  1  0  0  0  0
 26 24  2  0  0  0  0
 27 21  1  0  0  0  0
 27 25  2  0  0  0  0
 28 33  1  1  0  0  0
 28 10  1  0  0  0  0
 28 29  1  0  0  0  0
 29 32  1  0  0  0  0
 29 30  1  0  0  0  0
 29 31  1  0  0  0  0
 32 31  1  0  0  0  0
 34 33  1  0  0  0  0
 35 34  1  0  0  0  0
 37 36  1  0  0  0  0
 37 35  1  0  0  0  0
M  END
>  <MODEL>
1

>  <REMARK>
 VINA RESULT:      -5.9      0.000      0.000
  Name = 
  13 active torsions:
  status: ('A' for Active; 'I' for Inactive)
    1  A    between atoms: C_1  and  C_36
    2  A    between atoms: O_3  and  C_32
    3  A    between atoms: C_6  and  O_31
    4  A    between atoms: C_10  and  C_14
    5  A    between atoms: C_14  and  C_27
    6  A    between atoms: C_14  and  C_37
    7  A    between atoms: C_17  and  C_26
    8  A    between atoms: C_17  and  C_33
    9  A    between atoms: N_24  and  C_28
   10  A    between atoms: C_26  and  C_34
   11  A    between atoms: C_29  and  C_36
   12  A    between atoms: O_31  and  C_37
   13  A    between atoms: C_33  and  C_36
                            x       y       z     vdW  Elec       q    Type
                         _______ _______ _______ _____ _____    ______ ____

>  <TORSDO>
F 13

$$$$
=
 OpenBabel11052420043D

 37 40  0  0  1  0  0  0  0  0999 V2000
  193.7210  173.6780  144.8440 C   0  0  0  0  0  3  0  0  0  0  0  0
  191.0400  172.3690  141.6030 C   0  0  0  0  0  3  0  0  0  0  0  0
  193.0460  174.8060  144.6710 C   0  0  0  0  0  0  0  0  0  0  0  0
  191.6030  172.9170  142.7620 C   0  0  0  0  0  0  0  0  0  0  0  0
  192.5150  172.1330  143.3500 C   0  0  0  0  0  3  0  0  0  0  0  0
  191.0410  174.1070  143.3240 C   0  0  0  0  0  0  0  0  0  0  0  0
  189.2860  174.0120  141.6120 C   0  0  0  0  0  3  0  0  0  0  0  0
  193.1710  172.3950  144.5900 N   0  0  0  0  0  0  0  0  0  0  0  0
  189.8460  174.5890  142.7480 C   0  0  0  0  0  3  0  0  0  0  0  0
  191.5820  174.8300  144.3430 C   0  0  0  0  0  0  0  0  0  0  0  0
  189.9030  172.9130  141.0110 C   0  0  0  0  0  0  0  0  0  0  0  0
  189.3950  172.3280  139.8490 O   0  0  0  0  0  0  0  0  0  0  0  0
  188.2640  172.8440  139.1600 C   0  0  0  0  0  1  0  0  0  0  0  0
  195.2700  171.3820  145.3350 C   0  0  0  0  0  1  0  0  0  0  0  0
  193.7560  171.2620  145.2920 C   0  0  0  0  0  2  0  0  0  0  0  0
  193.8790  176.0550  144.7750 C   0  0  1  0  0  3  0  0  0  0  0  0
  194.3910  177.4260  146.6680 O   0  0  0  0  0  1  0  0  0  0  0  0
  194.6140  176.1700  146.1050 C   0  0  0  0  0  2  0  0  0  0  0  0
  194.8050  176.2470  143.5870 C   0  0  0  0  0  2  0  0  0  0  0  0
  194.0540  176.3030  142.3830 O   0  0  0  0  0  0  0  0  0  0  0  0
  193.6670  174.8800  140.5610 C   0  0  0  0  0  3  0  0  0  0  0  0
  194.4990  175.7060  141.2020 C   0  0  0  0  0  0  0  0  0  0  0  0
  195.8870  175.9940  140.6700 C   0  0  0  0  0  2  0  0  0  0  0  0
  197.3170  175.4280  138.8440 O   0  0  0  0  0  0  0  0  0  0  0  0
  195.2270  174.4050  138.7850 N   0  0  0  0  0  0  0  0  0  0  0  0
  196.1940  175.2710  139.3900 C   0  0  0  0  0  0  0  0  0  0  0  0
  194.0570  174.2130  139.3110 C   0  0  0  0  0  3  0  0  0  0  0  0
  190.6470  175.7160  145.1580 C   0  0  1  0  0  3  0  0  0  0  0  0
  190.3300  175.1580  146.5430 C   0  0  0  0  0  0  0  0  0  0  0  0
  191.2810  175.3220  147.7120 C   0  0  0  0  0  1  0  0  0  0  0  0
  188.8660  175.1700  146.9150 C   0  0  0  0  0  2  0  0  0  0  0  0
  189.5510  173.8630  146.5450 C   0  0  0  0  0  2  0  0  0  0  0  0
  190.9500  177.2070  145.1560 C   0  0  0  0  0  2  0  0  0  0  0  0
  190.1000  177.9180  144.1220 C   0  0  0  0  0  2  0  0  0  0  0  0
  188.6370  177.6620  144.4130 C   0  0  0  0  0  2  0  0  0  0  0  0
  188.7650  178.0560  141.9760 C   0  0  0  0  0  1  0  0  0  0  0  0
  187.8280  177.8870  143.1530 C   0  0  0  0  0  2  0  0  0  0  0  0
  2  4  1  0  0  0  0
  3 16  1  0  0  0  0
  3  1  2  0  0  0  0
  4  6  1  0  0  0  0
  4  5  2  0  0  0  0
  5  8  1  0  0  0  0
  6 10  2  0  0  0  0
  7  9  2  0  0  0  0
  8  1  1  0  0  0  0
  8 15  1  0  0  0  0
  9  6  1  0  0  0  0
 10  3  1  0  0  0  0
 10 28  1  0  0  0  0
 11  2  2  0  0  0  0
 11  7  1  0  0  0  0
 12 11  1  0  0  0  0
 13 12  1  0  0  0  0
 15 14  1  0  0  0  0
 16 19  1  6  0  0  0
 16 18  1  0  0  0  0
 18 17  1  0  0  0  0
 20 19  1  0  0  0  0
 21 22  2  0  0  0  0
 22 20  1  0  0  0  0
 23 22  1  0  0  0  0
 24 26  2  0  0  0  0
 25 27  2  0  0  0  0
 25 26  1  0  0  0  0
 26 23  1  0  0  0  0
 27 21  1  0  0  0  0
 28 33  1  1  0  0  0
 28 29  1  0  0  0  0
 29 32  1  0  0  0  0
 29 31  1  0  0  0  0
 29 30  1  0  0  0  0
 32 31  1  0  0  0  0
 34 35  1  0  0  0  0
 34 33  1  0  0  0  0
 36 37  1  0  0  0  0
 37 35  1  0  0  0  0
M  END
>  <MODEL>
2

>  <REMARK>
 VINA RESULT:      -5.7      3.046      6.117
  Name = 
  13 active torsions:
  status: ('A' for Active; 'I' for Inactive)
    1  A    between atoms: C_1  and  C_36
    2  A    between atoms: O_3  and  C_32
    3  A    between atoms: C_6  and  O_31
    4  A    between atoms: C_10  and  C_14
    5  A    between atoms: C_14  and  C_27
    6  A    between atoms: C_14  and  C_37
    7  A    between atoms: C_17  and  C_26
    8  A    between atoms: C_17  and  C_33
    9  A    between atoms: N_24  and  C_28
   10  A    between atoms: C_26  and  C_34
   11  A    between atoms: C_29  and  C_36
   12  A    between atoms: O_31  and  C_37
   13  A    between atoms: C_33  and  C_36
                            x       y       z     vdW  Elec       q    Type
                         _______ _______ _______ _____ _____    ______ ____

>  <TORSDO>
F 13

$$$$
=
 OpenBabel11052420043D

 37 40  0  0  1  0  0  0  0  0999 V2000
  191.5790  173.1710  141.0590 C   0  0  0  0  0  3  0  0  0  0  0  0
  195.1250  175.4940  142.2580 C   0  0  0  0  0  3  0  0  0  0  0  0
  191.2570  173.3940  142.3260 C   0  0  0  0  0  0  0  0  0  0  0  0
  193.8310  175.0040  142.0450 C   0  0  0  0  0  0  0  0  0  0  0  0
  193.6240  174.5240  140.8130 C   0  0  0  0  0  3  0  0  0  0  0  0
  192.8180  175.2350  143.0290 C   0  0  0  0  0  0  0  0  0  0  0  0
  194.4380  176.5800  144.2890 C   0  0  0  0  0  3  0  0  0  0  0  0
  192.3800  174.0560  140.2920 N   0  0  0  0  0  0  0  0  0  0  0  0
  193.1520  176.0790  144.1100 C   0  0  0  0  0  3  0  0  0  0  0  0
  191.5740  174.6830  143.0260 C   0  0  0  0  0  0  0  0  0  0  0  0
  195.4440  176.2600  143.3760 C   0  0  0  0  0  0  0  0  0  0  0  0
  196.7570  176.7110  143.5380 O   0  0  0  0  0  0  0  0  0  0  0  0
  197.8800  176.0090  143.0230 C   0  0  0  0  0  1  0  0  0  0  0  0
  190.8380  173.5440  138.4630 C   0  0  0  0  0  1  0  0  0  0  0  0
  192.2310  174.0150  138.8450 C   0  0  0  0  0  2  0  0  0  0  0  0
  190.5990  172.2300  143.0180 C   0  0  1  0  0  3  0  0  0  0  0  0
  188.2990  172.4370  142.3900 O   0  0  0  0  0  1  0  0  0  0  0  0
  189.4360  171.6470  142.2240 C   0  0  0  0  0  2  0  0  0  0  0  0
  191.5910  171.1650  143.4520 C   0  0  0  0  0  2  0  0  0  0  0  0
  192.3230  171.6090  144.5860 O   0  0  0  0  0  0  0  0  0  0  0  0
  194.3780  171.5710  143.4590 C   0  0  0  0  0  3  0  0  0  0  0  0
  193.6590  172.0030  144.5000 C   0  0  0  0  0  0  0  0  0  0  0  0
  194.2670  172.8950  145.5600 C   0  0  0  0  0  2  0  0  0  0  0  0
  196.3320  173.9580  146.1140 O   0  0  0  0  0  0  0  0  0  0  0  0
  196.3890  172.7030  144.1550 N   0  0  0  0  0  0  0  0  0  0  0  0
  195.7110  173.2210  145.3050 C   0  0  0  0  0  0  0  0  0  0  0  0
  195.7900  171.9400  143.2930 C   0  0  0  0  0  3  0  0  0  0  0  0
  190.4750  175.4060  143.7950 C   0  0  1  0  0  3  0  0  0  0  0  0
  189.6170  176.3180  142.9210 C   0  0  0  0  0  0  0  0  0  0  0  0
  188.8200  175.7860  141.7460 C   0  0  0  0  0  1  0  0  0  0  0  0
  188.9730  177.4750  143.6480 C   0  0  0  0  0  2  0  0  0  0  0  0
  190.1620  177.7140  142.7280 C   0  0  0  0  0  2  0  0  0  0  0  0
  189.6690  174.5700  144.7790 C   0  0  0  0  0  2  0  0  0  0  0  0
  190.5000  174.2520  146.0060 C   0  0  0  0  0  2  0  0  0  0  0  0
  189.9420  175.0010  147.1970 C   0  0  0  0  0  2  0  0  0  0  0  0
  191.8910  176.5130  147.3430 C   0  0  0  0  0  1  0  0  0  0  0  0
  191.0820  175.4660  148.0780 C   0  0  0  0  0  2  0  0  0  0  0  0
  1  3  2  0  0  0  0
  2 11  2  0  0  0  0
  3 16  1  0  0  0  0
  3 10  1  0  0  0  0
  4  2  1  0  0  0  0
  4  6  1  0  0  0  0
  5  4  2  0  0  0  0
  6  9  1  0  0  0  0
  8  5  1  0  0  0  0
  8  1  1  0  0  0  0
  9  7  2  0  0  0  0
 10  6  2  0  0  0  0
 10 28  1  0  0  0  0
 11 12  1  0  0  0  0
 11  7  1  0  0  0  0
 13 12  1  0  0  0  0
 14 15  1  0  0  0  0
 15  8  1  0  0  0  0
 16 18  1  6  0  0  0
 16 19  1  0  0  0  0
 18 17  1  0  0  0  0
 19 20  1  0  0  0  0
 21 22  2  0  0  0  0
 22 20  1  0  0  0  0
 22 23  1  0  0  0  0
 25 26  1  0  0  0  0
 26 23  1  0  0  0  0
 26 24  2  0  0  0  0
 27 21  1  0  0  0  0
 27 25  2  0  0  0  0
 28 33  1  6  0  0  0
 29 31  1  0  0  0  0
 29 28  1  0  0  0  0
 30 29  1  0  0  0  0
 32 29  1  0  0  0  0
 32 31  1  0  0  0  0
 33 34  1  0  0  0  0
 34 35  1  0  0  0  0
 35 37  1  0  0  0  0
 36 37  1  0  0  0  0
M  END
>  <MODEL>
3

>  <REMARK>
 VINA RESULT:      -5.6      3.082      6.905
  Name = 
  13 active torsions:
  status: ('A' for Active; 'I' for Inactive)
    1  A    between atoms: C_1  and  C_36
    2  A    between atoms: O_3  and  C_32
    3  A    between atoms: C_6  and  O_31
    4  A    between atoms: C_10  and  C_14
    5  A    between atoms: C_14  and  C_27
    6  A    between atoms: C_14  and  C_37
    7  A    between atoms: C_17  and  C_26
    8  A    between atoms: C_17  and  C_33
    9  A    between atoms: N_24  and  C_28
   10  A    between atoms: C_26  and  C_34
   11  A    between atoms: C_29  and  C_36
   12  A    between atoms: O_31  and  C_37
   13  A    between atoms: C_33  and  C_36
                            x       y       z     vdW  Elec       q    Type
                         _______ _______ _______ _____ _____    ______ ____

>  <TORSDO>
F 13

$$$$
=
 OpenBabel11052420043D

 37 40  0  0  1  0  0  0  0  0999 V2000
  191.1110  174.7510  141.9530 C   0  0  0  0  0  3  0  0  0  0  0  0
  192.5350  170.8900  143.5260 C   0  0  0  0  0  3  0  0  0  0  0  0
  191.6710  175.1820  143.0740 C   0  0  0  0  0  0  0  0  0  0  0  0
  192.3960  172.2220  143.1160 C   0  0  0  0  0  0  0  0  0  0  0  0
  191.7510  172.3700  141.9530 C   0  0  0  0  0  3  0  0  0  0  0  0
  193.1010  173.2520  143.8150 C   0  0  0  0  0  0  0  0  0  0  0  0
  194.1640  171.5120  145.1800 C   0  0  0  0  0  3  0  0  0  0  0  0
  191.5570  173.5990  141.2530 N   0  0  0  0  0  0  0  0  0  0  0  0
  194.0200  172.8450  144.8060 C   0  0  0  0  0  3  0  0  0  0  0  0
  192.9330  174.5900  143.6270 C   0  0  0  0  0  0  0  0  0  0  0  0
  193.3930  170.5270  144.5610 C   0  0  0  0  0  0  0  0  0  0  0  0
  193.4790  169.1830  144.9320 O   0  0  0  0  0  0  0  0  0  0  0  0
  194.4230  168.7070  145.8830 C   0  0  0  0  0  1  0  0  0  0  0  0
  192.5280  173.7100  139.0100 C   0  0  0  0  0  1  0  0  0  0  0  0
  191.2630  173.5210  139.8300 C   0  0  0  0  0  2  0  0  0  0  0  0
  190.9080  176.2750  143.7730 C   0  0  1  0  0  3  0  0  0  0  0  0
  191.0210  178.6640  143.6840 O   0  0  0  0  0  1  0  0  0  0  0  0
  190.7500  177.5290  142.9200 C   0  0  0  0  0  2  0  0  0  0  0  0
  189.5840  175.7980  144.3450 C   0  0  0  0  0  2  0  0  0  0  0  0
  188.5050  176.4730  143.7160 O   0  0  0  0  0  0  0  0  0  0  0  0
  187.5070  177.0850  145.7470 C   0  0  0  0  0  3  0  0  0  0  0  0
  187.6160  177.2800  144.4300 C   0  0  0  0  0  0  0  0  0  0  0  0
  186.8060  178.3440  143.7210 C   0  0  0  0  0  2  0  0  0  0  0  0
  185.1820  180.0330  144.1760 O   0  0  0  0  0  0  0  0  0  0  0  0
  185.8660  178.8260  146.0440 N   0  0  0  0  0  0  0  0  0  0  0  0
  185.9070  179.1170  144.6430 C   0  0  0  0  0  0  0  0  0  0  0  0
  186.5960  177.8920  146.5710 C   0  0  0  0  0  3  0  0  0  0  0  0
  194.0790  175.5120  144.0280 C   0  0  1  0  0  3  0  0  0  0  0  0
  195.0230  175.8470  142.8770 C   0  0  0  0  0  0  0  0  0  0  0  0
  194.5100  176.2550  141.5100 C   0  0  0  0  0  1  0  0  0  0  0  0
  196.3180  176.5090  143.2870 C   0  0  0  0  0  2  0  0  0  0  0  0
  196.3070  175.0500  142.8520 C   0  0  0  0  0  2  0  0  0  0  0  0
  193.7170  176.7130  144.8900 C   0  0  0  0  0  2  0  0  0  0  0  0
  194.0870  176.4560  146.3370 C   0  0  0  0  0  2  0  0  0  0  0  0
  193.0520  175.5490  146.9670 C   0  0  0  0  0  2  0  0  0  0  0  0
  190.7190  175.4290  147.7710 C   0  0  0  0  0  1  0  0  0  0  0  0
  191.8260  176.3600  147.3270 C   0  0  0  0  0  2  0  0  0  0  0  0
  1  3  2  0  0  0  0
  2 11  2  0  0  0  0
  3 10  1  0  0  0  0
  3 16  1  0  0  0  0
  4  2  1  0  0  0  0
  4  6  1  0  0  0  0
  5  4  2  0  0  0  0
  6  9  1  0  0  0  0
  8  1  1  0  0  0  0
  8  5  1  0  0  0  0
  9  7  2  0  0  0  0
 10  6  2  0  0  0  0
 10 28  1  0  0  0  0
 11 12  1  0  0  0  0
 11  7  1  0  0  0  0
 12 13  1  0  0  0  0
 14 15  1  0  0  0  0
 15  8  1  0  0  0  0
 16 18  1  6  0  0  0
 16 19  1  0  0  0  0
 18 17  1  0  0  0  0
 20 19  1  0  0  0  0
 20 22  1  0  0  0  0
 21 27  1  0  0  0  0
 22 21  2  0  0  0  0
 23 22  1  0  0  0  0
 23 26  1  0  0  0  0
 24 26  2  0  0  0  0
 25 27  2  0  0  0  0
 26 25  1  0  0  0  0
 28 33  1  6  0  0  0
 29 31  1  0  0  0  0
 29 28  1  0  0  0  0
 30 29  1  0  0  0  0
 32 29  1  0  0  0  0
 32 31  1  0  0  0  0
 33 34  1  0  0  0  0
 34 35  1  0  0  0  0
 35 37  1  0  0  0  0
 37 36  1  0  0  0  0
M  END
>  <MODEL>
4

>  <REMARK>
 VINA RESULT:      -5.5      2.643      5.582
  Name = 
  13 active torsions:
  status: ('A' for Active; 'I' for Inactive)
    1  A    between atoms: C_1  and  C_36
    2  A    between atoms: O_3  and  C_32
    3  A    between atoms: C_6  and  O_31
    4  A    between atoms: C_10  and  C_14
    5  A    between atoms: C_14  and  C_27
    6  A    between atoms: C_14  and  C_37
    7  A    between atoms: C_17  and  C_26
    8  A    between atoms: C_17  and  C_33
    9  A    between atoms: N_24  and  C_28
   10  A    between atoms: C_26  and  C_34
   11  A    between atoms: C_29  and  C_36
   12  A    between atoms: O_31  and  C_37
   13  A    between atoms: C_33  and  C_36
                            x       y       z     vdW  Elec       q    Type
                         _______ _______ _______ _____ _____    ______ ____

>  <TORSDO>
F 13

$$$$
=
 OpenBabel11052420043D

 37 40  0  0  1  0  0  0  0  0999 V2000
  189.9160  175.9710  144.9400 C   0  0  0  0  0  3  0  0  0  0  0  0
  194.2810  176.4990  144.6620 C   0  0  0  0  0  3  0  0  0  0  0  0
  190.0770  175.6630  143.6600 C   0  0  0  0  0  0  0  0  0  0  0  0
  192.9600  176.0430  144.5760 C   0  0  0  0  0  0  0  0  0  0  0  0
  192.2490  176.2150  145.6970 C   0  0  0  0  0  3  0  0  0  0  0  0
  192.5520  175.2740  143.4410 C   0  0  0  0  0  0  0  0  0  0  0  0
  194.8710  175.3340  142.6440 C   0  0  0  0  0  3  0  0  0  0  0  0
  190.9160  175.7570  145.9240 N   0  0  0  0  0  0  0  0  0  0  0  0
  193.5560  174.8940  142.5250 C   0  0  0  0  0  3  0  0  0  0  0  0
  191.2710  174.9090  143.1550 C   0  0  0  0  0  0  0  0  0  0  0  0
  195.2340  176.1710  143.7010 C   0  0  0  0  0  0  0  0  0  0  0  0
  196.5330  176.6660  143.8350 O   0  0  0  0  0  0  0  0  0  0  0  0
  197.6070  176.2410  143.0070 C   0  0  0  0  0  1  0  0  0  0  0  0
  189.2330  174.7530  147.3890 C   0  0  0  0  0  1  0  0  0  0  0  0
  190.4810  175.6160  147.3060 C   0  0  0  0  0  2  0  0  0  0  0  0
  188.9930  176.1790  142.7520 C   0  0  1  0  0  3  0  0  0  0  0  0
  187.3070  174.9800  141.5490 O   0  0  0  0  0  1  0  0  0  0  0  0
  187.7120  175.3570  142.8290 C   0  0  0  0  0  2  0  0  0  0  0  0
  188.7350  177.6650  142.9270 C   0  0  0  0  0  2  0  0  0  0  0  0
  187.3890  177.9720  142.5970 O   0  0  0  0  0  0  0  0  0  0  0  0
  185.2540  178.7640  143.1530 C   0  0  0  0  0  3  0  0  0  0  0  0
  186.4530  178.3440  143.5650 C   0  0  0  0  0  0  0  0  0  0  0  0
  186.7980  178.2680  145.0370 C   0  0  0  0  0  2  0  0  0  0  0  0
  185.8340  178.6840  147.1810 O   0  0  0  0  0  0  0  0  0  0  0  0
  184.4240  179.1370  145.3860 N   0  0  0  0  0  0  0  0  0  0  0  0
  185.6740  178.7030  145.9330 C   0  0  0  0  0  0  0  0  0  0  0  0
  184.2120  179.1730  144.1060 C   0  0  0  0  0  3  0  0  0  0  0  0
  191.0650  173.6950  142.2570 C   0  0  1  0  0  3  0  0  0  0  0  0
  190.3950  172.5190  142.9650 C   0  0  0  0  0  0  0  0  0  0  0  0
  188.9770  172.0910  142.6450 C   0  0  0  0  0  1  0  0  0  0  0  0
  191.3250  171.3890  143.3420 C   0  0  0  0  0  2  0  0  0  0  0  0
  190.7950  172.3350  144.4110 C   0  0  0  0  0  2  0  0  0  0  0  0
  190.5110  173.9640  140.8650 C   0  0  0  0  0  2  0  0  0  0  0  0
  191.2080  173.0910  139.8410 C   0  0  0  0  0  2  0  0  0  0  0  0
  192.3720  173.8510  139.2430 C   0  0  0  0  0  2  0  0  0  0  0  0
  193.4120  171.8270  140.2070 C   0  0  0  0  0  1  0  0  0  0  0  0
  193.5960  172.9600  139.2200 C   0  0  0  0  0  2  0  0  0  0  0  0
  1  8  1  0  0  0  0
  3  1  2  0  0  0  0
  4  2  1  0  0  0  0
  4  5  2  0  0  0  0
  5  8  1  0  0  0  0
  6  4  1  0  0  0  0
  7 11  1  0  0  0  0
  8 15  1  0  0  0  0
  9  7  2  0  0  0  0
  9  6  1  0  0  0  0
 10  6  2  0  0  0  0
 10  3  1  0  0  0  0
 11 12  1  0  0  0  0
 11  2  2  0  0  0  0
 13 12  1  0  0  0  0
 15 14  1  0  0  0  0
 16 18  1  1  0  0  0
 16 19  1  0  0  0  0
 16  3  1  0  0  0  0
 17 18  1  0  0  0  0
 20 19  1  0  0  0  0
 20 22  1  0  0  0  0
 21 22  2  0  0  0  0
 21 27  1  0  0  0  0
 22 23  1  0  0  0  0
 23 26  1  0  0  0  0
 25 26  1  0  0  0  0
 26 24  2  0  0  0  0
 27 25  2  0  0  0  0
 28 33  1  6  0  0  0
 28 29  1  0  0  0  0
 28 10  1  0  0  0  0
 29 31  1  0  0  0  0
 29 32  1  0  0  0  0
 30 29  1  0  0  0  0
 31 32  1  0  0  0  0
 34 33  1  0  0  0  0
 35 34  1  0  0  0  0
 37 35  1  0  0  0  0
 37 36  1  0  0  0  0
M  END
>  <MODEL>
5

>  <REMARK>
 VINA RESULT:      -5.5      2.172      3.356
  Name = 
  13 active torsions:
  status: ('A' for Active; 'I' for Inactive)
    1  A    between atoms: C_1  and  C_36
    2  A    between atoms: O_3  and  C_32
    3  A    between atoms: C_6  and  O_31
    4  A    between atoms: C_10  and  C_14
    5  A    between atoms: C_14  and  C_27
    6  A    between atoms: C_14  and  C_37
    7  A    between atoms: C_17  and  C_26
    8  A    between atoms: C_17  and  C_33
    9  A    between atoms: N_24  and  C_28
   10  A    between atoms: C_26  and  C_34
   11  A    between atoms: C_29  and  C_36
   12  A    between atoms: O_31  and  C_37
   13  A    between atoms: C_33  and  C_36
                            x       y       z     vdW  Elec       q    Type
                         _______ _______ _______ _____ _____    ______ ____

>  <TORSDO>
F 13

$$$$
=
 OpenBabel11052420043D

 37 40  0  0  1  0  0  0  0  0999 V2000
  189.1560  175.7820  143.9180 C   0  0  0  0  0  3  0  0  0  0  0  0
  189.7100  171.8690  141.9700 C   0  0  0  0  0  3  0  0  0  0  0  0
  190.0940  175.2890  144.7150 C   0  0  0  0  0  0  0  0  0  0  0  0
  189.8770  173.1140  142.5900 C   0  0  0  0  0  0  0  0  0  0  0  0
  189.0260  174.0540  142.1640 C   0  0  0  0  0  3  0  0  0  0  0  0
  191.0170  173.3380  143.4250 C   0  0  0  0  0  0  0  0  0  0  0  0
  191.8250  171.1030  142.8170 C   0  0  0  0  0  3  0  0  0  0  0  0
  189.0350  175.4290  142.5480 N   0  0  0  0  0  0  0  0  0  0  0  0
  191.9970  172.3230  143.4650 C   0  0  0  0  0  3  0  0  0  0  0  0
  191.2170  174.4330  144.2090 C   0  0  0  0  0  0  0  0  0  0  0  0
  190.6590  170.8560  142.0910 C   0  0  0  0  0  0  0  0  0  0  0  0
  190.4300  169.6320  141.4580 O   0  0  0  0  0  0  0  0  0  0  0  0
  190.8490  169.3660  140.1260 C   0  0  0  0  0  1  0  0  0  0  0  0
  188.7370  177.8030  142.0370 C   0  0  0  0  0  1  0  0  0  0  0  0
  188.3690  176.3760  141.6660 C   0  0  0  0  0  2  0  0  0  0  0  0
  189.9070  175.6120  146.1730 C   0  0  1  0  0  3  0  0  0  0  0  0
  191.1570  176.7820  147.8450 O   0  0  0  0  0  1  0  0  0  0  0  0
  190.5770  176.9170  146.5840 C   0  0  0  0  0  2  0  0  0  0  0  0
  188.4540  175.5480  146.6100 C   0  0  0  0  0  2  0  0  0  0  0  0
  188.0000  176.8370  146.9970 O   0  0  0  0  0  0  0  0  0  0  0  0
  185.6830  177.1880  147.0340 C   0  0  0  0  0  3  0  0  0  0  0  0
  186.8590  177.4200  146.4430 C   0  0  0  0  0  0  0  0  0  0  0  0
  186.9630  178.2920  145.2100 C   0  0  0  0  0  2  0  0  0  0  0  0
  185.5900  179.5800  143.7420 O   0  0  0  0  0  0  0  0  0  0  0  0
  184.4340  178.5250  145.4640 N   0  0  0  0  0  0  0  0  0  0  0  0
  185.6390  178.8380  144.7570 C   0  0  0  0  0  0  0  0  0  0  0  0
  184.4350  177.7660  146.5160 C   0  0  0  0  0  3  0  0  0  0  0  0
  192.6510  174.7720  144.6010 C   0  0  1  0  0  3  0  0  0  0  0  0
  193.1280  176.1200  144.0650 C   0  0  0  0  0  0  0  0  0  0  0  0
  193.5000  177.2640  144.9870 C   0  0  0  0  0  1  0  0  0  0  0  0
  193.9360  176.0480  142.7910 C   0  0  0  0  0  2  0  0  0  0  0  0
  192.4980  176.5460  142.7590 C   0  0  0  0  0  2  0  0  0  0  0  0
  193.0370  174.5220  146.0520 C   0  0  0  0  0  2  0  0  0  0  0  0
  194.4890  174.0960  146.1460 C   0  0  0  0  0  2  0  0  0  0  0  0
  194.6200  172.6570  145.6960 C   0  0  0  0  0  2  0  0  0  0  0  0
  197.0310  173.1960  145.7390 C   0  0  0  0  0  1  0  0  0  0  0  0
  195.9400  172.4740  144.9790 C   0  0  0  0  0  2  0  0  0  0  0  0
  1  3  2  0  0  0  0
  2 11  2  0  0  0  0
  2  4  1  0  0  0  0
  3 16  1  0  0  0  0
  4  6  1  0  0  0  0
  5  8  1  0  0  0  0
  5  4  2  0  0  0  0
  6  9  1  0  0  0  0
  6 10  2  0  0  0  0
  7  9  2  0  0  0  0
  8  1  1  0  0  0  0
 10 28  1  0  0  0  0
 10  3  1  0  0  0  0
 11  7  1  0  0  0  0
 12 11  1  0  0  0  0
 13 12  1  0  0  0  0
 15 14  1  0  0  0  0
 15  8  1  0  0  0  0
 16 18  1  6  0  0  0
 16 19  1  0  0  0  0
 18 17  1  0  0  0  0
 19 20  1  0  0  0  0
 22 20  1  0  0  0  0
 22 21  2  0  0  0  0
 23 22  1  0  0  0  0
 24 26  2  0  0  0  0
 25 27  2  0  0  0  0
 26 23  1  0  0  0  0
 26 25  1  0  0  0  0
 27 21  1  0  0  0  0
 28 33  1  1  0  0  0
 29 28  1  0  0  0  0
 29 30  1  0  0  0  0
 31 29  1  0  0  0  0
 32 31  1  0  0  0  0
 32 29  1  0  0  0  0
 33 34  1  0  0  0  0
 35 34  1  0  0  0  0
 37 35  1  0  0  0  0
 37 36  1  0  0  0  0
M  END
>  <MODEL>
6

>  <REMARK>
 VINA RESULT:      -5.4      2.642      5.335
  Name = 
  13 active torsions:
  status: ('A' for Active; 'I' for Inactive)
    1  A    between atoms: C_1  and  C_36
    2  A    between atoms: O_3  and  C_32
    3  A    between atoms: C_6  and  O_31
    4  A    between atoms: C_10  and  C_14
    5  A    between atoms: C_14  and  C_27
    6  A    between atoms: C_14  and  C_37
    7  A    between atoms: C_17  and  C_26
    8  A    between atoms: C_17  and  C_33
    9  A    between atoms: N_24  and  C_28
   10  A    between atoms: C_26  and  C_34
   11  A    between atoms: C_29  and  C_36
   12  A    between atoms: O_31  and  C_37
   13  A    between atoms: C_33  and  C_36
                            x       y       z     vdW  Elec       q    Type
                         _______ _______ _______ _____ _____    ______ ____

>  <TORSDO>
F 13

$$$$
=
 OpenBabel11052420043D

 37 40  0  0  1  0  0  0  0  0999 V2000
  194.1560  175.6540  142.5590 C   0  0  0  0  0  3  0  0  0  0  0  0
  191.7300  173.7750  139.3980 C   0  0  0  0  0  3  0  0  0  0  0  0
  193.1120  175.2900  143.2930 C   0  0  0  0  0  0  0  0  0  0  0  0
  192.4140  174.0910  140.5780 C   0  0  0  0  0  0  0  0  0  0  0  0
  193.6230  174.6290  140.3820 C   0  0  0  0  0  3  0  0  0  0  0  0
  191.8970  173.6420  141.8350 C   0  0  0  0  0  0  0  0  0  0  0  0
  190.1350  172.4490  140.6120 C   0  0  0  0  0  3  0  0  0  0  0  0
  194.5730  174.9530  141.3970 N   0  0  0  0  0  0  0  0  0  0  0  0
  190.7840  172.7740  141.8000 C   0  0  0  0  0  3  0  0  0  0  0  0
  192.3670  174.0100  143.0580 C   0  0  0  0  0  0  0  0  0  0  0  0
  190.5880  172.9780  139.4020 C   0  0  0  0  0  0  0  0  0  0  0  0
  189.9430  172.7080  138.1930 O   0  0  0  0  0  0  0  0  0  0  0  0
  189.6710  171.3860  137.7460 C   0  0  0  0  0  1  0  0  0  0  0  0
  196.4700  176.4920  141.2650 C   0  0  0  0  0  1  0  0  0  0  0  0
  195.9660  175.0840  140.9970 C   0  0  0  0  0  2  0  0  0  0  0  0
  192.7060  176.2920  144.3400 C   0  0  1  0  0  3  0  0  0  0  0  0
  193.9330  176.0080  146.3750 O   0  0  0  0  0  1  0  0  0  0  0  0
  193.8740  176.7580  145.2010 C   0  0  0  0  0  2  0  0  0  0  0  0
  191.9120  177.4540  143.7690 C   0  0  0  0  0  2  0  0  0  0  0  0
  191.0090  176.9900  142.7750 O   0  0  0  0  0  0  0  0  0  0  0  0
  188.9540  175.9600  142.3200 C   0  0  0  0  0  3  0  0  0  0  0  0
  189.6380  176.8740  143.0120 C   0  0  0  0  0  0  0  0  0  0  0  0
  188.9570  177.7640  144.0300 C   0  0  0  0  0  2  0  0  0  0  0  0
  186.8020  178.1720  144.9720 O   0  0  0  0  0  0  0  0  0  0  0  0
  186.8470  176.4920  143.3630 N   0  0  0  0  0  0  0  0  0  0  0  0
  187.4830  177.4990  144.1570 C   0  0  0  0  0  0  0  0  0  0  0  0
  187.5090  175.7720  142.5100 C   0  0  0  0  0  3  0  0  0  0  0  0
  192.0880  173.0810  144.2340 C   0  0  1  0  0  3  0  0  0  0  0  0
  193.2680  172.1810  144.5920 C   0  0  0  0  0  0  0  0  0  0  0  0
  194.1800  172.4810  145.7650 C   0  0  0  0  0  1  0  0  0  0  0  0
  193.0530  170.7100  144.3220 C   0  0  0  0  0  2  0  0  0  0  0  0
  193.9560  171.5320  143.4130 C   0  0  0  0  0  2  0  0  0  0  0  0
  191.4040  173.7000  145.4440 C   0  0  0  0  0  2  0  0  0  0  0  0
  189.9190  173.8610  145.1860 C   0  0  0  0  0  2  0  0  0  0  0  0
  189.3400  174.8400  146.1840 C   0  0  0  0  0  2  0  0  0  0  0  0
  190.4330  176.7690  147.2740 C   0  0  0  0  0  1  0  0  0  0  0  0
  190.4180  175.2600  147.1600 C   0  0  0  0  0  2  0  0  0  0  0  0
  1  3  2  0  0  0  0
  2 11  2  0  0  0  0
  2  4  1  0  0  0  0
  3 16  1  0  0  0  0
  4  6  1  0  0  0  0
  5  4  2  0  0  0  0
  5  8  1  0  0  0  0
  6 10  2  0  0  0  0
  7  9  2  0  0  0  0
  8  1  1  0  0  0  0
  9  6  1  0  0  0  0
 10  3  1  0  0  0  0
 10 28  1  0  0  0  0
 11  7  1  0  0  0  0
 12 11  1  0  0  0  0
 13 12  1  0  0  0  0
 15 14  1  0  0  0  0
 15  8  1  0  0  0  0
 16 19  1  6  0  0  0
 16 18  1  0  0  0  0
 18 17  1  0  0  0  0
 20 22  1  0  0  0  0
 20 19  1  0  0  0  0
 21 27  1  0  0  0  0
 21 22  2  0  0  0  0
 22 23  1  0  0  0  0
 23 26  1  0  0  0  0
 25 26  1  0  0  0  0
 26 24  2  0  0  0  0
 27 25  2  0  0  0  0
 28 29  1  0  0  0  0
 28 33  1  1  0  0  0
 29 30  1  0  0  0  0
 31 29  1  0  0  0  0
 32 31  1  0  0  0  0
 32 29  1  0  0  0  0
 34 33  1  0  0  0  0
 34 35  1  0  0  0  0
 35 37  1  0  0  0  0
 37 36  1  0  0  0  0
M  END
>  <MODEL>
7

>  <REMARK>
 VINA RESULT:      -5.4      2.193      4.093
  Name = 
  13 active torsions:
  status: ('A' for Active; 'I' for Inactive)
    1  A    between atoms: C_1  and  C_36
    2  A    between atoms: O_3  and  C_32
    3  A    between atoms: C_6  and  O_31
    4  A    between atoms: C_10  and  C_14
    5  A    between atoms: C_14  and  C_27
    6  A    between atoms: C_14  and  C_37
    7  A    between atoms: C_17  and  C_26
    8  A    between atoms: C_17  and  C_33
    9  A    between atoms: N_24  and  C_28
   10  A    between atoms: C_26  and  C_34
   11  A    between atoms: C_29  and  C_36
   12  A    between atoms: O_31  and  C_37
   13  A    between atoms: C_33  and  C_36
                            x       y       z     vdW  Elec       q    Type
                         _______ _______ _______ _____ _____    ______ ____

>  <TORSDO>
F 13

$$$$
=
 OpenBabel11052420043D

 37 40  0  0  1  0  0  0  0  0999 V2000
  189.0790  173.8900  143.4790 C   0  0  0  0  0  3  0  0  0  0  0  0
  191.9420  170.5700  143.9020 C   0  0  0  0  0  3  0  0  0  0  0  0
  189.8680  174.4190  144.4040 C   0  0  0  0  0  0  0  0  0  0  0  0
  191.3180  171.8150  143.7640 C   0  0  0  0  0  0  0  0  0  0  0  0
  190.2840  171.8160  142.9140 C   0  0  0  0  0  3  0  0  0  0  0  0
  191.9260  172.9770  144.3360 C   0  0  0  0  0  0  0  0  0  0  0  0
  193.8290  171.5770  144.9990 C   0  0  0  0  0  3  0  0  0  0  0  0
  189.5320  172.9590  142.5080 N   0  0  0  0  0  0  0  0  0  0  0  0
  193.2120  172.8200  144.8960 C   0  0  0  0  0  3  0  0  0  0  0  0
  191.3530  174.2090  144.4150 C   0  0  0  0  0  0  0  0  0  0  0  0
  193.1780  170.4350  144.5300 C   0  0  0  0  0  0  0  0  0  0  0  0
  193.7460  169.1630  144.6480 O   0  0  0  0  0  0  0  0  0  0  0  0
  194.5300  168.7730  145.7660 C   0  0  0  0  0  1  0  0  0  0  0  0
  188.5880  174.2360  140.6470 C   0  0  0  0  0  1  0  0  0  0  0  0
  188.7790  172.8620  141.2670 C   0  0  0  0  0  2  0  0  0  0  0  0
  189.1460  175.1990  145.4700 C   0  0  1  0  0  3  0  0  0  0  0  0
  188.5740  174.5440  147.7000 O   0  0  0  0  0  1  0  0  0  0  0  0
  189.6450  174.8860  146.8760 C   0  0  0  0  0  2  0  0  0  0  0  0
  189.1110  176.6910  145.1890 C   0  0  0  0  0  2  0  0  0  0  0  0
  187.8490  177.0600  144.6520 O   0  0  0  0  0  0  0  0  0  0  0  0
  187.0420  177.6870  146.7610 C   0  0  0  0  0  3  0  0  0  0  0  0
  186.8320  177.5960  145.4450 C   0  0  0  0  0  0  0  0  0  0  0  0
  185.5340  178.0590  144.8200 C   0  0  0  0  0  2  0  0  0  0  0  0
  183.4400  179.0310  145.4260 O   0  0  0  0  0  0  0  0  0  0  0  0
  184.8830  178.6620  147.2130 N   0  0  0  0  0  0  0  0  0  0  0  0
  184.5580  178.6100  145.8200 C   0  0  0  0  0  0  0  0  0  0  0  0
  186.0240  178.2410  147.6660 C   0  0  0  0  0  3  0  0  0  0  0  0
  192.2780  175.4140  144.5480 C   0  0  1  0  0  3  0  0  0  0  0  0
  192.3840  176.2450  143.2720 C   0  0  0  0  0  0  0  0  0  0  0  0
  191.7260  177.6040  143.1410 C   0  0  0  0  0  1  0  0  0  0  0  0
  193.6910  176.1040  142.5270 C   0  0  0  0  0  2  0  0  0  0  0  0
  192.4280  175.4440  141.9910 C   0  0  0  0  0  2  0  0  0  0  0  0
  192.1280  176.2510  145.8100 C   0  0  0  0  0  2  0  0  0  0  0  0
  193.2460  175.9400  146.7860 C   0  0  0  0  0  2  0  0  0  0  0  0
  194.5790  176.2220  146.1280 C   0  0  0  0  0  2  0  0  0  0  0  0
  196.2490  174.9080  144.8680 C   0  0  0  0  0  1  0  0  0  0  0  0
  195.4180  174.9620  146.1310 C   0  0  0  0  0  2  0  0  0  0  0  0
  1  3  2  0  0  0  0
  2 11  2  0  0  0  0
  3 10  1  0  0  0  0
  3 16  1  0  0  0  0
  4  2  1  0  0  0  0
  4  6  1  0  0  0  0
  5  4  2  0  0  0  0
  6 10  2  0  0  0  0
  6  9  1  0  0  0  0
  8  5  1  0  0  0  0
  8  1  1  0  0  0  0
  9  7  2  0  0  0  0
 10 28  1  0  0  0  0
 11 12  1  0  0  0  0
 11  7  1  0  0  0  0
 12 13  1  0  0  0  0
 14 15  1  0  0  0  0
 15  8  1  0  0  0  0
 16 19  1  6  0  0  0
 16 18  1  0  0  0  0
 18 17  1  0  0  0  0
 20 19  1  0  0  0  0
 20 22  1  0  0  0  0
 21 27  1  0  0  0  0
 22 21  2  0  0  0  0
 23 22  1  0  0  0  0
 23 26  1  0  0  0  0
 24 26  2  0  0  0  0
 25 27  2  0  0  0  0
 26 25  1  0  0  0  0
 28 33  1  1  0  0  0
 29 28  1  0  0  0  0
 30 29  1  0  0  0  0
 31 29  1  0  0  0  0
 32 31  1  0  0  0  0
 32 29  1  0  0  0  0
 33 34  1  0  0  0  0
 35 37  1  0  0  0  0
 35 34  1  0  0  0  0
 36 37  1  0  0  0  0
M  END
>  <MODEL>
8

>  <REMARK>
 VINA RESULT:      -5.4      2.810      5.689
  Name = 
  13 active torsions:
  status: ('A' for Active; 'I' for Inactive)
    1  A    between atoms: C_1  and  C_36
    2  A    between atoms: O_3  and  C_32
    3  A    between atoms: C_6  and  O_31
    4  A    between atoms: C_10  and  C_14
    5  A    between atoms: C_14  and  C_27
    6  A    between atoms: C_14  and  C_37
    7  A    between atoms: C_17  and  C_26
    8  A    between atoms: C_17  and  C_33
    9  A    between atoms: N_24  and  C_28
   10  A    between atoms: C_26  and  C_34
   11  A    between atoms: C_29  and  C_36
   12  A    between atoms: O_31  and  C_37
   13  A    between atoms: C_33  and  C_36
                            x       y       z     vdW  Elec       q    Type
                         _______ _______ _______ _____ _____    ______ ____

>  <TORSDO>
F 13

$$$$
=
 OpenBabel11052420043D

 37 40  0  0  1  0  0  0  0  0999 V2000
  193.8290  173.3330  145.3500 C   0  0  0  0  0  3  0  0  0  0  0  0
  194.9940  172.8700  141.1270 C   0  0  0  0  0  3  0  0  0  0  0  0
  193.2180  174.3990  144.8530 C   0  0  0  0  0  0  0  0  0  0  0  0
  194.3150  173.0790  142.3330 C   0  0  0  0  0  0  0  0  0  0  0  0
  194.6610  172.2300  143.3080 C   0  0  0  0  0  3  0  0  0  0  0  0
  193.2090  173.9860  142.3730 C   0  0  0  0  0  0  0  0  0  0  0  0
  193.4430  174.2780  139.9480 C   0  0  0  0  0  3  0  0  0  0  0  0
  194.0630  172.1500  144.6020 N   0  0  0  0  0  0  0  0  0  0  0  0
  192.7710  174.5210  141.1420 C   0  0  0  0  0  3  0  0  0  0  0  0
  192.5690  174.4010  143.5000 C   0  0  0  0  0  0  0  0  0  0  0  0
  194.5840  173.4740  139.9400 C   0  0  0  0  0  0  0  0  0  0  0  0
  195.3100  173.2360  138.7710 O   0  0  0  0  0  0  0  0  0  0  0  0
  195.4120  174.1900  137.7220 C   0  0  0  0  0  1  0  0  0  0  0  0
  194.9320  169.8660  144.4880 C   0  0  0  0  0  1  0  0  0  0  0  0
  194.2300  170.9080  145.3430 C   0  0  0  0  0  2  0  0  0  0  0  0
  193.2770  175.6200  145.7310 C   0  0  1  0  0  3  0  0  0  0  0  0
  191.8420  176.5510  147.4050 O   0  0  0  0  0  1  0  0  0  0  0  0
  192.5860  175.4190  147.0750 C   0  0  0  0  0  2  0  0  0  0  0  0
  194.6840  176.1700  145.8830 C   0  0  0  0  0  2  0  0  0  0  0  0
  195.0980  176.8000  144.6800 O   0  0  0  0  0  0  0  0  0  0  0  0
  196.8160  175.2610  144.2620 C   0  0  0  0  0  3  0  0  0  0  0  0
  195.9810  176.1890  143.7870 C   0  0  0  0  0  0  0  0  0  0  0  0
  195.9800  176.5730  142.3230 C   0  0  0  0  0  2  0  0  0  0  0  0
  197.0880  176.0390  140.2760 O   0  0  0  0  0  0  0  0  0  0  0  0
  197.8400  174.8370  142.1210 N   0  0  0  0  0  0  0  0  0  0  0  0
  196.9900  175.8130  141.5100 C   0  0  0  0  0  0  0  0  0  0  0  0
  197.7750  174.5690  143.3880 C   0  0  0  0  0  3  0  0  0  0  0  0
  191.1400  174.9120  143.3570 C   0  0  1  0  0  3  0  0  0  0  0  0
  190.0900  173.9480  143.9050 C   0  0  0  0  0  0  0  0  0  0  0  0
  189.6920  173.9400  145.3670 C   0  0  0  0  0  1  0  0  0  0  0  0
  188.9720  173.6120  142.9460 C   0  0  0  0  0  2  0  0  0  0  0  0
  190.0610  172.5910  143.2400 C   0  0  0  0  0  2  0  0  0  0  0  0
  190.8940  176.3630  143.7410 C   0  0  0  0  0  2  0  0  0  0  0  0
  189.9400  177.0150  142.7600 C   0  0  0  0  0  2  0  0  0  0  0  0
  188.7570  177.5840  143.5120 C   0  0  0  0  0  2  0  0  0  0  0  0
  187.7850  177.1320  145.7390 C   0  0  0  0  0  1  0  0  0  0  0  0
  189.0400  177.5420  144.9990 C   0  0  0  0  0  2  0  0  0  0  0  0
  2  4  1  0  0  0  0
  3  1  2  0  0  0  0
  3 16  1  0  0  0  0
  4  6  1  0  0  0  0
  4  5  2  0  0  0  0
  5  8  1  0  0  0  0
  6 10  2  0  0  0  0
  7  9  2  0  0  0  0
  8 15  1  0  0  0  0
  8  1  1  0  0  0  0
  9  6  1  0  0  0  0
 10  3  1  0  0  0  0
 11  7  1  0  0  0  0
 11  2  2  0  0  0  0
 12 11  1  0  0  0  0
 13 12  1  0  0  0  0
 14 15  1  0  0  0  0
 16 19  1  1  0  0  0
 16 18  1  0  0  0  0
 18 17  1  0  0  0  0
 20 19  1  0  0  0  0
 22 21  2  0  0  0  0
 22 20  1  0  0  0  0
 23 22  1  0  0  0  0
 24 26  2  0  0  0  0
 25 27  2  0  0  0  0
 26 25  1  0  0  0  0
 26 23  1  0  0  0  0
 27 21  1  0  0  0  0
 28 10  1  0  0  0  0
 28 33  1  1  0  0  0
 28 29  1  0  0  0  0
 29 30  1  0  0  0  0
 31 32  1  0  0  0  0
 31 29  1  0  0  0  0
 32 29  1  0  0  0  0
 34 35  1  0  0  0  0
 34 33  1  0  0  0  0
 35 37  1  0  0  0  0
 37 36  1  0  0  0  0
M  END
>  <MODEL>
9

>  <REMARK>
 VINA RESULT:      -5.3      3.233      6.124
  Name = 
  13 active torsions:
  status: ('A' for Active; 'I' for Inactive)
    1  A    between atoms: C_1  and  C_36
    2  A    between atoms: O_3  and  C_32
    3  A    between atoms: C_6  and  O_31
    4  A    between atoms: C_10  and  C_14
    5  A    between atoms: C_14  and  C_27
    6  A    between atoms: C_14  and  C_37
    7  A    between atoms: C_17  and  C_26
    8  A    between atoms: C_17  and  C_33
    9  A    between atoms: N_24  and  C_28
   10  A    between atoms: C_26  and  C_34
   11  A    between atoms: C_29  and  C_36
   12  A    between atoms: O_31  and  C_37
   13  A    between atoms: C_33  and  C_36
                            x       y       z     vdW  Elec       q    Type
                         _______ _______ _______ _____ _____    ______ ____

>  <TORSDO>
F 13

$$$$
