=
 OpenBabel11052419103D

 32 37  0  0  1  0  0  0  0  0999 V2000
  190.0800  175.7400  144.6590 C   0  0  0  0  0  0  0  0  0  0  0  0
  187.7610  176.6400  144.7350 C   0  0  1  0  0  3  0  0  0  0  0  0
  191.3280  175.3320  145.3440 C   0  0  0  0  0  3  0  0  0  0  0  0
  189.0990  176.3480  145.3700 C   0  0  0  0  0  0  0  0  0  0  0  0
  187.0250  177.8150  145.4130 C   0  0  1  0  0  3  0  0  0  0  0  0
  184.5060  178.2510  140.1380 O   0  0  0  0  0  0  0  0  0  0  0  0
  187.8430  176.8430  143.2120 C   0  0  1  0  0  3  0  0  0  0  0  0
  184.8010  178.5860  142.4480 N   0  0  0  0  0  2  0  0  0  0  0  0
  185.9300  178.2020  143.2680 C   0  0  1  0  0  3  0  0  0  0  0  0
  189.1940  176.4010  146.8880 C   0  0  2  0  0  3  0  0  0  0  0  0
  185.6520  178.0420  144.7520 C   0  0  0  0  0  2  0  0  0  0  0  0
  188.3580  177.5380  147.4820 C   0  0  0  0  0  2  0  0  0  0  0  0
  190.6410  176.5860  147.3490 C   0  0  0  0  0  2  0  0  0  0  0  0
  188.5370  175.6240  142.6270 C   0  0  0  0  0  2  0  0  0  0  0  0
  189.9760  175.5460  143.1520 C   0  0  2  0  0  3  0  0  0  0  0  0
  186.4710  176.9580  142.7210 N   0  0  1  0  0  0  0  0  0  0  0  0
  186.9370  177.5770  146.9210 C   0  0  1  0  0  3  0  0  0  0  0  0
  191.5780  175.6810  146.6070 C   0  0  0  0  0  3  0  0  0  0  0  0
  185.1550  178.0320  141.1940 C   0  0  0  0  0  0  0  0  0  0  0  0
  186.3540  177.1660  141.2810 C   0  0  0  0  0  2  0  0  0  0  0  0
  189.9850  173.4090  140.2860 C   0  0  1  0  0  3  0  0  0  0  0  0
  190.4410  170.1480  141.4270 O   0  0  0  0  0  1  0  0  0  0  0  0
  190.5050  173.2290  139.0160 F   0  0  0  0  0  0  0  0  0  0  0  0
  190.7340  171.9930  142.9200 C   0  0  0  0  0  2  0  0  0  0  0  0
  190.6520  174.2530  142.6880 C   0  0  1  0  0  3  0  0  0  0  0  0
  189.5540  172.1730  140.8300 O   0  0  0  0  0  0  0  0  0  0  0  0
  189.9290  173.1260  143.1300 O   0  0  0  0  0  0  0  0  0  0  0  0
  190.9150  174.2890  141.1650 C   0  0  1  0  0  3  0  0  0  0  0  0
  192.2560  173.9880  140.9160 O   0  0  0  0  0  1  0  0  0  0  0  0
  190.6310  171.5290  141.4640 C   0  0  2  0  0  3  0  0  0  0  0  0
  186.1710  178.7040  147.6030 C   0  0  0  0  0  2  0  0  0  0  0  0
  187.0590  179.4160  148.6050 C   0  0  0  0  0  1  0  0  0  0  0  0
  1  3  1  0  0  0  0
  1  4  2  0  0  0  0
  2  4  1  1  0  0  0
  2  5  1  0  0  0  0
  3 18  2  0  0  0  0
  4 10  1  0  0  0  0
  5 11  1  6  0  0  0
  5 17  1  0  0  0  0
  6 19  2  0  0  0  0
  7 14  1  6  0  0  0
  7  2  1  0  0  0  0
  8  9  1  0  0  0  0
  9 11  1  1  0  0  0
 10 13  1  6  0  0  0
 10 12  1  0  0  0  0
 15 14  1  1  0  0  0
 15  1  1  0  0  0  0
 16 20  1  6  0  0  0
 16  7  1  0  0  0  0
 16  9  1  0  0  0  0
 17 12  1  0  0  0  0
 17 31  1  1  0  0  0
 18 13  1  0  0  0  0
 19 20  1  0  0  0  0
 19  8  1  0  0  0  0
 21 23  1  6  0  0  0
 21 26  1  0  0  0  0
 21 28  1  0  0  0  0
 24 27  1  0  0  0  0
 25 27  1  6  0  0  0
 25 15  1  0  0  0  0
 26 30  1  0  0  0  0
 28 29  1  1  0  0  0
 28 25  1  0  0  0  0
 30 22  1  1  0  0  0
 30 24  1  0  0  0  0
 31 32  1  0  0  0  0
M  END
>  <MODEL>
1

>  <REMARK>
 VINA RESULT:      -8.4      0.000      0.000
  Name = 
  2 active torsions:
  status: ('A' for Active; 'I' for Inactive)
    1  A    between atoms: C_13  and  C_29
    2  A    between atoms: C_16  and  C_27
                            x       y       z     vdW  Elec       q    Type
                         _______ _______ _______ _____ _____    ______ ____

>  <TORSDO>
F 2

$$$$
=
 OpenBabel11052419103D

 32 37  0  0  1  0  0  0  0  0999 V2000
  189.2530  176.3810  144.1280 C   0  0  0  0  0  0  0  0  0  0  0  0
  186.8800  177.0020  144.5490 C   0  0  1  0  0  3  0  0  0  0  0  0
  190.6160  176.0810  144.6250 C   0  0  0  0  0  3  0  0  0  0  0  0
  188.3130  176.8300  144.9950 C   0  0  0  0  0  0  0  0  0  0  0  0
  186.1160  178.0440  145.3930 C   0  0  1  0  0  3  0  0  0  0  0  0
  182.9070  178.4860  140.5080 O   0  0  0  0  0  0  0  0  0  0  0  0
  186.7430  177.2990  143.0450 C   0  0  1  0  0  3  0  0  0  0  0  0
  183.4590  178.7220  142.7820 N   0  0  0  0  0  2  0  0  0  0  0  0
  184.7190  178.4240  143.4300 C   0  0  1  0  0  3  0  0  0  0  0  0
  188.5950  176.8080  146.4890 C   0  0  2  0  0  3  0  0  0  0  0  0
  184.6530  178.1490  144.9220 C   0  0  0  0  0  2  0  0  0  0  0  0
  187.7270  177.8050  147.2590 C   0  0  0  0  0  2  0  0  0  0  0  0
  190.0620  177.1320  146.7820 C   0  0  0  0  0  2  0  0  0  0  0  0
  187.4830  176.2040  142.2960 C   0  0  0  0  0  2  0  0  0  0  0  0
  188.9770  176.2630  142.6350 C   0  0  2  0  0  3  0  0  0  0  0  0
  185.3150  177.2830  142.7340 N   0  0  1  0  0  0  0  0  0  0  0  0
  186.2490  177.7120  146.8800 C   0  0  1  0  0  3  0  0  0  0  0  0
  190.9870  176.3840  145.8700 C   0  0  0  0  0  3  0  0  0  0  0  0
  183.7060  178.2840  141.4590 C   0  0  0  0  0  0  0  0  0  0  0  0
  184.9920  177.5580  141.3370 C   0  0  0  0  0  2  0  0  0  0  0  0
  189.6750  172.8320  143.3620 C   0  0  1  0  0  3  0  0  0  0  0  0
  192.8420  172.1270  142.0920 O   0  0  0  0  0  1  0  0  0  0  0  0
  189.1710  171.5440  143.3110 F   0  0  0  0  0  0  0  0  0  0  0  0
  191.7590  174.1860  141.5370 C   0  0  0  0  0  2  0  0  0  0  0  0
  189.7220  175.0840  142.0010 C   0  0  1  0  0  3  0  0  0  0  0  0
  191.0920  172.8140  143.3990 O   0  0  0  0  0  0  0  0  0  0  0  0
  191.0860  175.1060  142.3590 O   0  0  0  0  0  0  0  0  0  0  0  0
  189.0010  173.7520  142.3080 C   0  0  1  0  0  3  0  0  0  0  0  0
  188.7820  173.0560  141.1160 O   0  0  0  0  0  1  0  0  0  0  0  0
  191.6020  172.7660  142.0890 C   0  0  2  0  0  3  0  0  0  0  0  0
  185.4610  178.7030  147.7280 C   0  0  0  0  0  2  0  0  0  0  0  0
  186.3150  179.9110  148.0590 C   0  0  0  0  0  1  0  0  0  0  0  0
  1  3  1  0  0  0  0
  1  4  2  0  0  0  0
  2  4  1  1  0  0  0
  2  5  1  0  0  0  0
  3 18  2  0  0  0  0
  4 10  1  0  0  0  0
  5 11  1  6  0  0  0
  5 17  1  0  0  0  0
  6 19  2  0  0  0  0
  7 14  1  6  0  0  0
  7  2  1  0  0  0  0
  8  9  1  0  0  0  0
  9 11  1  1  0  0  0
 10 13  1  6  0  0  0
 10 12  1  0  0  0  0
 15 14  1  1  0  0  0
 15  1  1  0  0  0  0
 16 20  1  6  0  0  0
 16  7  1  0  0  0  0
 16  9  1  0  0  0  0
 17 12  1  0  0  0  0
 17 31  1  1  0  0  0
 18 13  1  0  0  0  0
 19  8  1  0  0  0  0
 20 19  1  0  0  0  0
 21 23  1  6  0  0  0
 21 26  1  0  0  0  0
 24 30  1  0  0  0  0
 24 27  1  0  0  0  0
 25 28  1  0  0  0  0
 25 27  1  1  0  0  0
 25 15  1  0  0  0  0
 28 29  1  6  0  0  0
 28 21  1  0  0  0  0
 30 22  1  1  0  0  0
 30 26  1  0  0  0  0
 31 32  1  0  0  0  0
M  END
>  <MODEL>
2

>  <REMARK>
 VINA RESULT:      -8.1      1.559      1.923
  Name = 
  2 active torsions:
  status: ('A' for Active; 'I' for Inactive)
    1  A    between atoms: C_13  and  C_29
    2  A    between atoms: C_16  and  C_27
                            x       y       z     vdW  Elec       q    Type
                         _______ _______ _______ _____ _____    ______ ____

>  <TORSDO>
F 2

$$$$
=
 OpenBabel11052419103D

 32 37  0  0  1  0  0  0  0  0999 V2000
  189.9370  176.0740  145.5960 C   0  0  0  0  0  0  0  0  0  0  0  0
  190.9980  175.0020  143.6160 C   0  0  1  0  0  3  0  0  0  0  0  0
  190.0410  176.7020  146.9330 C   0  0  0  0  0  3  0  0  0  0  0  0
  191.0380  175.5150  145.0350 C   0  0  0  0  0  0  0  0  0  0  0  0
  192.0480  173.9020  143.3510 C   0  0  1  0  0  3  0  0  0  0  0  0
  188.2180  172.3440  139.1970 O   0  0  0  0  0  0  0  0  0  0  0  0
  189.5960  174.5470  143.1730 C   0  0  1  0  0  3  0  0  0  0  0  0
  190.2670  172.4390  140.3480 N   0  0  0  0  0  2  0  0  0  0  0  0
  190.5440  173.0560  141.6280 C   0  0  1  0  0  3  0  0  0  0  0  0
  192.4010  175.7330  145.6750 C   0  0  2  0  0  3  0  0  0  0  0  0
  191.9900  173.4460  141.8810 C   0  0  0  0  0  2  0  0  0  0  0  0
  193.4060  174.6480  145.2840 C   0  0  0  0  0  2  0  0  0  0  0  0
  192.3000  175.7570  147.2020 C   0  0  0  0  0  2  0  0  0  0  0  0
  188.6420  175.7020  143.4260 C   0  0  0  0  0  2  0  0  0  0  0  0
  188.5700  175.9950  144.9300 C   0  0  2  0  0  3  0  0  0  0  0  0
  189.6790  174.2300  141.7480 N   0  0  1  0  0  0  0  0  0  0  0  0
  193.4340  174.3880  143.7780 C   0  0  1  0  0  3  0  0  0  0  0  0
  191.1500  176.5990  147.6670 C   0  0  0  0  0  3  0  0  0  0  0  0
  188.9130  172.7970  140.1430 C   0  0  0  0  0  0  0  0  0  0  0  0
  188.4290  173.7670  141.1530 C   0  0  0  0  0  2  0  0  0  0  0  0
  185.2100  176.8050  145.8450 C   0  0  1  0  0  3  0  0  0  0  0  0
  184.3970  179.7980  144.2560 O   0  0  0  0  0  1  0  0  0  0  0  0
  184.3270  176.9190  146.9040 F   0  0  0  0  0  0  0  0  0  0  0  0
  186.6590  179.0210  144.2650 C   0  0  0  0  0  2  0  0  0  0  0  0
  187.7230  177.2420  145.1980 C   0  0  1  0  0  3  0  0  0  0  0  0
  184.7810  177.5950  144.7480 O   0  0  0  0  0  0  0  0  0  0  0  0
  187.1790  177.7430  143.9980 O   0  0  0  0  0  0  0  0  0  0  0  0
  186.6830  176.9690  146.3090 C   0  0  1  0  0  3  0  0  0  0  0  0
  186.7820  177.9560  147.2920 O   0  0  0  0  0  1  0  0  0  0  0  0
  185.2650  178.9080  144.8880 C   0  0  2  0  0  3  0  0  0  0  0  0
  194.4930  173.3340  143.4800 C   0  0  0  0  0  2  0  0  0  0  0  0
  194.8940  172.6150  144.7530 C   0  0  0  0  0  1  0  0  0  0  0  0
  1  3  1  0  0  0  0
  2  4  1  1  0  0  0
  3 18  2  0  0  0  0
  4  1  2  0  0  0  0
  4 10  1  0  0  0  0
  5 11  1  6  0  0  0
  5  2  1  0  0  0  0
  5 17  1  0  0  0  0
  6 19  2  0  0  0  0
  7 14  1  6  0  0  0
  7  2  1  0  0  0  0
  8  9  1  0  0  0  0
  9 16  1  0  0  0  0
  9 11  1  6  0  0  0
 10 12  1  1  0  0  0
 10 13  1  0  0  0  0
 13 18  1  0  0  0  0
 15 14  1  6  0  0  0
 15 25  1  0  0  0  0
 15  1  1  0  0  0  0
 16 20  1  1  0  0  0
 16  7  1  0  0  0  0
 17 31  1  1  0  0  0
 17 12  1  0  0  0  0
 19  8  1  0  0  0  0
 19 20  1  0  0  0  0
 21 28  1  0  0  0  0
 21 23  1  1  0  0  0
 24 30  1  0  0  0  0
 25 27  1  6  0  0  0
 25 28  1  0  0  0  0
 26 30  1  0  0  0  0
 26 21  1  0  0  0  0
 27 24  1  0  0  0  0
 28 29  1  1  0  0  0
 30 22  1  6  0  0  0
 31 32  1  0  0  0  0
M  END
>  <MODEL>
3

>  <REMARK>
 VINA RESULT:      -8.1      3.392      6.844
  Name = 
  2 active torsions:
  status: ('A' for Active; 'I' for Inactive)
    1  A    between atoms: C_13  and  C_29
    2  A    between atoms: C_16  and  C_27
                            x       y       z     vdW  Elec       q    Type
                         _______ _______ _______ _____ _____    ______ ____

>  <TORSDO>
F 2

$$$$
=
 OpenBabel11052419103D

 32 37  0  0  1  0  0  0  0  0999 V2000
  190.5900  176.3280  144.9830 C   0  0  0  0  0  0  0  0  0  0  0  0
  188.1730  176.4820  144.4110 C   0  0  1  0  0  3  0  0  0  0  0  0
  191.6750  176.2380  145.9870 C   0  0  0  0  0  3  0  0  0  0  0  0
  189.3160  176.5340  145.3960 C   0  0  0  0  0  0  0  0  0  0  0  0
  186.9510  177.3020  144.8740 C   0  0  1  0  0  3  0  0  0  0  0  0
  185.9160  177.5400  139.1090 O   0  0  0  0  0  0  0  0  0  0  0  0
  188.5870  176.8640  142.9790 C   0  0  1  0  0  3  0  0  0  0  0  0
  185.4670  177.6950  141.4140 N   0  0  0  0  0  2  0  0  0  0  0  0
  186.3990  177.5770  142.5150 C   0  0  1  0  0  3  0  0  0  0  0  0
  188.9830  176.4480  146.8780 C   0  0  2  0  0  3  0  0  0  0  0  0
  185.8040  177.1800  143.8530 C   0  0  0  0  0  2  0  0  0  0  0  0
  187.7050  177.2110  147.2320 C   0  0  0  0  0  2  0  0  0  0  0  0
  190.1210  177.0040  147.7370 C   0  0  0  0  0  2  0  0  0  0  0  0
  189.7600  175.9800  142.5920 C   0  0  0  0  0  2  0  0  0  0  0  0
  190.9560  176.2780  143.5050 C   0  0  2  0  0  3  0  0  0  0  0  0
  187.4310  176.6180  142.1190 N   0  0  1  0  0  0  0  0  0  0  0  0
  186.5470  176.8860  146.2890 C   0  0  1  0  0  3  0  0  0  0  0  0
  191.4570  176.5060  147.2750 C   0  0  0  0  0  3  0  0  0  0  0  0
  186.2970  177.4110  140.3020 C   0  0  0  0  0  0  0  0  0  0  0  0
  187.6400  176.9380  140.7100 C   0  0  0  0  0  2  0  0  0  0  0  0
  194.0040  176.1940  141.6380 C   0  0  1  0  0  3  0  0  0  0  0  0
  194.4380  172.9260  140.5090 O   0  0  0  0  0  1  0  0  0  0  0  0
  195.3390  176.5610  141.6420 F   0  0  0  0  0  0  0  0  0  0  0  0
  192.7400  173.4230  142.1190 C   0  0  0  0  0  2  0  0  0  0  0  0
  192.1050  175.3040  143.2270 C   0  0  1  0  0  3  0  0  0  0  0  0
  193.7860  175.1070  140.7540 O   0  0  0  0  0  0  0  0  0  0  0  0
  191.7900  174.4580  142.1430 O   0  0  0  0  0  0  0  0  0  0  0  0
  193.4430  176.0630  143.0800 C   0  0  1  0  0  3  0  0  0  0  0  0
  194.3970  175.4950  143.9290 O   0  0  0  0  0  1  0  0  0  0  0  0
  194.0210  173.8930  141.4230 C   0  0  2  0  0  3  0  0  0  0  0  0
  185.3110  177.6510  146.7460 C   0  0  0  0  0  2  0  0  0  0  0  0
  185.6980  179.0330  147.2370 C   0  0  0  0  0  1  0  0  0  0  0  0
  1  4  2  0  0  0  0
  1  3  1  0  0  0  0
  2  5  1  0  0  0  0
  2  4  1  1  0  0  0
  3 18  2  0  0  0  0
  4 10  1  0  0  0  0
  5 11  1  6  0  0  0
  5 17  1  0  0  0  0
  6 19  2  0  0  0  0
  7 14  1  6  0  0  0
  7  2  1  0  0  0  0
  8  9  1  0  0  0  0
  9 11  1  1  0  0  0
 10 12  1  6  0  0  0
 10 13  1  0  0  0  0
 15 14  1  6  0  0  0
 15  1  1  0  0  0  0
 16 20  1  6  0  0  0
 16  9  1  0  0  0  0
 16  7  1  0  0  0  0
 17 31  1  1  0  0  0
 17 12  1  0  0  0  0
 18 13  1  0  0  0  0
 19 20  1  0  0  0  0
 19  8  1  0  0  0  0
 21 23  1  1  0  0  0
 21 28  1  0  0  0  0
 24 27  1  0  0  0  0
 25 27  1  6  0  0  0
 25 15  1  0  0  0  0
 26 30  1  0  0  0  0
 26 21  1  0  0  0  0
 28 25  1  0  0  0  0
 28 29  1  1  0  0  0
 30 22  1  6  0  0  0
 30 24  1  0  0  0  0
 31 32  1  0  0  0  0
M  END
>  <MODEL>
4

>  <REMARK>
 VINA RESULT:      -8.1      2.117      2.574
  Name = 
  2 active torsions:
  status: ('A' for Active; 'I' for Inactive)
    1  A    between atoms: C_13  and  C_29
    2  A    between atoms: C_16  and  C_27
                            x       y       z     vdW  Elec       q    Type
                         _______ _______ _______ _____ _____    ______ ____

>  <TORSDO>
F 2

$$$$
=
 OpenBabel11052419103D

 32 37  0  0  1  0  0  0  0  0999 V2000
  191.4320  175.7440  145.8310 C   0  0  0  0  0  0  0  0  0  0  0  0
  189.4210  175.3820  144.4090 C   0  0  1  0  0  3  0  0  0  0  0  0
  192.0540  176.2240  147.0860 C   0  0  0  0  0  3  0  0  0  0  0  0
  190.1170  175.9850  145.6050 C   0  0  0  0  0  0  0  0  0  0  0  0
  188.1880  176.1960  143.9640 C   0  0  1  0  0  3  0  0  0  0  0  0
  189.3910  173.7100  138.7940 O   0  0  0  0  0  0  0  0  0  0  0  0
  190.3680  175.1180  143.2250 C   0  0  1  0  0  3  0  0  0  0  0  0
  188.1330  174.8390  140.4310 N   0  0  0  0  0  2  0  0  0  0  0  0
  188.5770  175.3230  141.7210 C   0  0  1  0  0  3  0  0  0  0  0  0
  189.2520  176.5430  146.7260 C   0  0  2  0  0  3  0  0  0  0  0  0
  187.4960  175.5140  142.7690 C   0  0  0  0  0  2  0  0  0  0  0  0
  188.0030  177.2520  146.1970 C   0  0  0  0  0  2  0  0  0  0  0  0
  190.0320  177.5370  147.5890 C   0  0  0  0  0  2  0  0  0  0  0  0
  191.5210  174.2750  143.7420 C   0  0  0  0  0  2  0  0  0  0  0  0
  192.3140  175.0700  144.7880 C   0  0  2  0  0  3  0  0  0  0  0  0
  189.5970  174.3970  142.2130 N   0  0  1  0  0  0  0  0  0  0  0  0
  187.2550  176.4240  145.1540 C   0  0  1  0  0  3  0  0  0  0  0  0
  191.3970  177.0190  147.9310 C   0  0  0  0  0  3  0  0  0  0  0  0
  189.2890  174.1700  139.9610 C   0  0  0  0  0  0  0  0  0  0  0  0
  190.3400  174.0670  141.0010 C   0  0  0  0  0  2  0  0  0  0  0  0
  195.7350  174.2010  144.2170 C   0  0  1  0  0  3  0  0  0  0  0  0
  196.1500  170.8980  145.2440 O   0  0  0  0  0  1  0  0  0  0  0  0
  197.0460  174.6090  144.3940 F   0  0  0  0  0  0  0  0  0  0  0  0
  194.1310  172.0690  145.7630 C   0  0  0  0  0  2  0  0  0  0  0  0
  193.3970  174.1950  145.4250 C   0  0  1  0  0  3  0  0  0  0  0  0
  195.6660  172.7940  144.0570 O   0  0  0  0  0  0  0  0  0  0  0  0
  193.3130  172.8710  144.9480 O   0  0  0  0  0  0  0  0  0  0  0  0
  194.7900  174.8460  145.2680 C   0  0  1  0  0  3  0  0  0  0  0  0
  195.4150  174.9150  146.5150 O   0  0  0  0  0  1  0  0  0  0  0  0
  195.5920  172.1730  145.3160 C   0  0  2  0  0  3  0  0  0  0  0  0
  186.0070  177.1860  144.7240 C   0  0  0  0  0  2  0  0  0  0  0  0
  186.3100  178.6660  144.5960 C   0  0  0  0  0  1  0  0  0  0  0  0
  1  3  1  0  0  0  0
  2  4  1  1  0  0  0
  3 18  2  0  0  0  0
  4  1  2  0  0  0  0
  4 10  1  0  0  0  0
  5 11  1  6  0  0  0
  5  2  1  0  0  0  0
  5 17  1  0  0  0  0
  6 19  2  0  0  0  0
  7 14  1  1  0  0  0
  7  2  1  0  0  0  0
  8  9  1  0  0  0  0
  9 16  1  0  0  0  0
  9 11  1  1  0  0  0
 10 12  1  6  0  0  0
 10 13  1  0  0  0  0
 13 18  1  0  0  0  0
 15 14  1  6  0  0  0
 15 25  1  0  0  0  0
 15  1  1  0  0  0  0
 16 20  1  6  0  0  0
 16  7  1  0  0  0  0
 17 31  1  6  0  0  0
 17 12  1  0  0  0  0
 19  8  1  0  0  0  0
 19 20  1  0  0  0  0
 21 23  1  1  0  0  0
 21 28  1  0  0  0  0
 25 27  1  6  0  0  0
 26 21  1  0  0  0  0
 26 30  1  0  0  0  0
 27 24  1  0  0  0  0
 28 25  1  0  0  0  0
 28 29  1  1  0  0  0
 30 22  1  6  0  0  0
 30 24  1  0  0  0  0
 32 31  1  0  0  0  0
M  END
>  <MODEL>
5

>  <REMARK>
 VINA RESULT:      -7.9      3.243      4.518
  Name = 
  2 active torsions:
  status: ('A' for Active; 'I' for Inactive)
    1  A    between atoms: C_13  and  C_29
    2  A    between atoms: C_16  and  C_27
                            x       y       z     vdW  Elec       q    Type
                         _______ _______ _______ _____ _____    ______ ____

>  <TORSDO>
F 2

$$$$
=
 OpenBabel11052419103D

 32 37  0  0  1  0  0  0  0  0999 V2000
  190.2560  176.4340  144.5850 C   0  0  0  0  0  0  0  0  0  0  0  0
  187.7900  176.7550  144.5010 C   0  0  1  0  0  3  0  0  0  0  0  0
  191.5070  176.2450  145.3560 C   0  0  0  0  0  3  0  0  0  0  0  0
  189.1030  176.7050  145.2440 C   0  0  0  0  0  0  0  0  0  0  0  0
  186.7380  177.6340  145.2100 C   0  0  1  0  0  3  0  0  0  0  0  0
  184.6230  178.1210  139.7650 O   0  0  0  0  0  0  0  0  0  0  0  0
  187.9420  177.1570  143.0240 C   0  0  1  0  0  3  0  0  0  0  0  0
  184.6410  178.2290  142.1150 N   0  0  0  0  0  2  0  0  0  0  0  0
  185.7590  178.0190  143.0100 C   0  0  1  0  0  3  0  0  0  0  0  0
  189.0590  176.5920  146.7610 C   0  0  2  0  0  3  0  0  0  0  0  0
  185.4090  177.6170  144.4310 C   0  0  0  0  0  2  0  0  0  0  0  0
  187.9280  177.4210  147.3720 C   0  0  0  0  0  2  0  0  0  0  0  0
  190.3770  177.0490  147.3910 C   0  0  0  0  0  2  0  0  0  0  0  0
  188.9560  176.2140  142.3970 C   0  0  0  0  0  2  0  0  0  0  0  0
  190.3240  176.4080  143.0640 C   0  0  2  0  0  3  0  0  0  0  0  0
  186.6280  177.0110  142.4020 N   0  0  1  0  0  0  0  0  0  0  0  0
  186.5900  177.1990  146.6680 C   0  0  1  0  0  3  0  0  0  0  0  0
  191.5620  176.4840  146.6670 C   0  0  0  0  0  3  0  0  0  0  0  0
  185.2180  177.9300  140.8580 C   0  0  0  0  0  0  0  0  0  0  0  0
  186.5800  177.3620  140.9850 C   0  0  0  0  0  2  0  0  0  0  0  0
  191.3790  173.0810  143.8380 C   0  0  1  0  0  3  0  0  0  0  0  0
  194.7840  172.8820  143.1230 O   0  0  0  0  0  1  0  0  0  0  0  0
  191.0840  171.7380  143.6760 F   0  0  0  0  0  0  0  0  0  0  0  0
  193.5230  174.7910  142.4270 C   0  0  0  0  0  2  0  0  0  0  0  0
  191.3290  175.3740  142.5480 C   0  0  1  0  0  3  0  0  0  0  0  0
  192.7580  173.2600  144.1190 O   0  0  0  0  0  0  0  0  0  0  0  0
  192.5940  175.5710  143.1370 O   0  0  0  0  0  0  0  0  0  0  0  0
  190.7670  173.9420  142.6990 C   0  0  1  0  0  3  0  0  0  0  0  0
  190.8560  173.2740  141.4750 O   0  0  0  0  0  1  0  0  0  0  0  0
  193.4830  173.3400  142.9180 C   0  0  2  0  0  3  0  0  0  0  0  0
  185.5200  178.0250  147.3740 C   0  0  0  0  0  2  0  0  0  0  0  0
  186.0370  179.4200  147.6650 C   0  0  0  0  0  1  0  0  0  0  0  0
  1  4  2  0  0  0  0
  1  3  1  0  0  0  0
  2  5  1  0  0  0  0
  2  4  1  1  0  0  0
  3 18  2  0  0  0  0
  4 10  1  0  0  0  0
  5 11  1  6  0  0  0
  5 17  1  0  0  0  0
  6 19  2  0  0  0  0
  7 14  1  6  0  0  0
  7  2  1  0  0  0  0
  8  9  1  0  0  0  0
  9 11  1  1  0  0  0
 10 12  1  1  0  0  0
 10 13  1  0  0  0  0
 15 14  1  6  0  0  0
 15  1  1  0  0  0  0
 16 20  1  6  0  0  0
 16  9  1  0  0  0  0
 16  7  1  0  0  0  0
 17 12  1  0  0  0  0
 17 31  1  1  0  0  0
 18 13  1  0  0  0  0
 19 20  1  0  0  0  0
 19  8  1  0  0  0  0
 21 23  1  6  0  0  0
 21 26  1  0  0  0  0
 24 30  1  0  0  0  0
 24 27  1  0  0  0  0
 25 28  1  0  0  0  0
 25 15  1  0  0  0  0
 25 27  1  1  0  0  0
 28 29  1  6  0  0  0
 28 21  1  0  0  0  0
 30 22  1  1  0  0  0
 30 26  1  0  0  0  0
 31 32  1  0  0  0  0
M  END
>  <MODEL>
6

>  <REMARK>
 VINA RESULT:      -7.7      1.635      2.158
  Name = 
  2 active torsions:
  status: ('A' for Active; 'I' for Inactive)
    1  A    between atoms: C_13  and  C_29
    2  A    between atoms: C_16  and  C_27
                            x       y       z     vdW  Elec       q    Type
                         _______ _______ _______ _____ _____    ______ ____

>  <TORSDO>
F 2

$$$$
=
 OpenBabel11052419103D

 32 37  0  0  1  0  0  0  0  0999 V2000
  190.2680  173.4980  143.3940 C   0  0  0  0  0  0  0  0  0  0  0  0
  189.7100  175.7180  144.3710 C   0  0  1  0  0  3  0  0  0  0  0  0
  190.0500  172.4460  142.3750 C   0  0  0  0  0  3  0  0  0  0  0  0
  189.4270  174.5600  143.4450 C   0  0  0  0  0  0  0  0  0  0  0  0
  188.4350  176.4960  144.7580 C   0  0  1  0  0  3  0  0  0  0  0  0
  191.6400  177.8500  149.4750 O   0  0  0  0  0  0  0  0  0  0  0  0
  190.5130  175.3130  145.6210 C   0  0  1  0  0  3  0  0  0  0  0  0
  189.8950  178.0100  147.9050 N   0  0  0  0  0  2  0  0  0  0  0  0
  189.5810  177.1010  146.8230 C   0  0  1  0  0  3  0  0  0  0  0  0
  188.4170  174.7730  142.3270 C   0  0  2  0  0  3  0  0  0  0  0  0
  188.7870  177.6860  145.6700 C   0  0  0  0  0  2  0  0  0  0  0  0
  187.2320  175.6330  142.7710 C   0  0  0  0  0  2  0  0  0  0  0  0
  187.8690  173.4410  141.8110 C   0  0  0  0  0  2  0  0  0  0  0  0
  191.7660  174.5980  145.1450 C   0  0  0  0  0  2  0  0  0  0  0  0
  191.3800  173.3050  144.4170 C   0  0  2  0  0  3  0  0  0  0  0  0
  190.8440  176.5450  146.3340 N   0  0  1  0  0  0  0  0  0  0  0  0
  187.6700  176.9040  143.4990 C   0  0  1  0  0  3  0  0  0  0  0  0
  188.9620  172.4360  141.6030 C   0  0  0  0  0  3  0  0  0  0  0  0
  191.0870  177.4470  148.4190 C   0  0  0  0  0  0  0  0  0  0  0  0
  191.6050  176.3520  147.5650 C   0  0  0  0  0  2  0  0  0  0  0  0
  194.6380  172.2560  145.4480 C   0  0  1  0  0  3  0  0  0  0  0  0
  196.7790  172.7090  142.7360 O   0  0  0  0  0  1  0  0  0  0  0  0
  195.3530  171.2480  146.0730 F   0  0  0  0  0  0  0  0  0  0  0  0
  194.4140  172.9130  142.4430 C   0  0  0  0  0  2  0  0  0  0  0  0
  192.6160  172.6380  143.8080 C   0  0  1  0  0  3  0  0  0  0  0  0
  195.4830  173.0140  144.5980 O   0  0  0  0  0  0  0  0  0  0  0  0
  193.4610  173.5990  143.2160 O   0  0  0  0  0  0  0  0  0  0  0  0
  193.3110  171.7230  144.8430 C   0  0  1  0  0  3  0  0  0  0  0  0
  193.4950  170.4530  144.2920 O   0  0  0  0  0  1  0  0  0  0  0  0
  195.5550  172.4070  143.3320 C   0  0  2  0  0  3  0  0  0  0  0  0
  186.4310  177.7160  143.8580 C   0  0  0  0  0  2  0  0  0  0  0  0
  186.2850  178.8990  142.9210 C   0  0  0  0  0  1  0  0  0  0  0  0
  1  4  2  0  0  0  0
  1 15  1  0  0  0  0
  2  4  1  1  0  0  0
  2  5  1  0  0  0  0
  2  7  1  0  0  0  0
  3  1  1  0  0  0  0
  5 11  1  6  0  0  0
  7 14  1  6  0  0  0
  7 16  1  0  0  0  0
  8 19  1  0  0  0  0
  9 11  1  6  0  0  0
  9  8  1  0  0  0  0
 10 13  1  1  0  0  0
 10 12  1  0  0  0  0
 10  4  1  0  0  0  0
 12 17  1  0  0  0  0
 15 14  1  6  0  0  0
 16  9  1  0  0  0  0
 16 20  1  1  0  0  0
 17 31  1  1  0  0  0
 17  5  1  0  0  0  0
 18 13  1  0  0  0  0
 18  3  2  0  0  0  0
 19  6  2  0  0  0  0
 20 19  1  0  0  0  0
 21 23  1  6  0  0  0
 24 27  1  0  0  0  0
 24 30  1  0  0  0  0
 25 27  1  1  0  0  0
 25 15  1  0  0  0  0
 25 28  1  0  0  0  0
 26 21  1  0  0  0  0
 28 29  1  6  0  0  0
 28 21  1  0  0  0  0
 30 22  1  6  0  0  0
 30 26  1  0  0  0  0
 32 31  1  0  0  0  0
M  END
>  <MODEL>
7

>  <REMARK>
 VINA RESULT:      -7.4      3.565      5.717
  Name = 
  2 active torsions:
  status: ('A' for Active; 'I' for Inactive)
    1  A    between atoms: C_13  and  C_29
    2  A    between atoms: C_16  and  C_27
                            x       y       z     vdW  Elec       q    Type
                         _______ _______ _______ _____ _____    ______ ____

>  <TORSDO>
F 2

$$$$
=
 OpenBabel11052419103D

 32 37  0  0  1  0  0  0  0  0999 V2000
  190.2880  175.9160  145.2830 C   0  0  0  0  0  0  0  0  0  0  0  0
  192.2160  175.5540  143.7510 C   0  0  1  0  0  3  0  0  0  0  0  0
  189.7410  176.3680  146.5830 C   0  0  0  0  0  3  0  0  0  0  0  0
  191.6320  175.8660  145.1070 C   0  0  0  0  0  0  0  0  0  0  0  0
  193.6330  174.9490  143.8380 C   0  0  1  0  0  3  0  0  0  0  0  0
  192.1150  172.6420  138.6680 O   0  0  0  0  0  0  0  0  0  0  0  0
  191.2950  174.6830  142.8780 C   0  0  1  0  0  3  0  0  0  0  0  0
  193.5290  173.3270  140.4200 N   0  0  0  0  0  2  0  0  0  0  0  0
  193.1540  173.8390  141.7210 C   0  0  1  0  0  3  0  0  0  0  0  0
  192.5500  176.4800  146.1540 C   0  0  2  0  0  3  0  0  0  0  0  0
  194.1950  174.6890  142.4280 C   0  0  0  0  0  2  0  0  0  0  0  0
  193.9600  175.8890  146.1070 C   0  0  0  0  0  2  0  0  0  0  0  0
  191.9970  176.2760  147.5660 C   0  0  0  0  0  2  0  0  0  0  0  0
  189.9440  175.3740  142.8110 C   0  0  0  0  0  2  0  0  0  0  0  0
  189.3210  175.4320  144.2110 C   0  0  2  0  0  3  0  0  0  0  0  0
  191.9130  174.5960  141.5570 N   0  0  1  0  0  0  0  0  0  0  0  0
  194.5320  175.8460  144.6900 C   0  0  1  0  0  3  0  0  0  0  0  0
  190.5310  176.5820  147.6360 C   0  0  0  0  0  3  0  0  0  0  0  0
  192.2690  173.1950  139.7890 C   0  0  0  0  0  0  0  0  0  0  0  0
  191.1740  173.7910  140.5890 C   0  0  0  0  0  2  0  0  0  0  0  0
  187.3070  177.2090  141.8500 C   0  0  1  0  0  3  0  0  0  0  0  0
  185.9110  179.9290  143.5210 O   0  0  0  0  0  1  0  0  0  0  0  0
  186.3330  177.0780  140.8760 F   0  0  0  0  0  0  0  0  0  0  0  0
  187.0410  178.2190  144.7520 C   0  0  0  0  0  2  0  0  0  0  0  0
  188.0240  176.2460  144.1930 C   0  0  1  0  0  3  0  0  0  0  0  0
  187.3120  178.5240  142.3800 O   0  0  0  0  0  0  0  0  0  0  0  0
  188.2780  177.5960  144.5110 O   0  0  0  0  0  0  0  0  0  0  0  0
  187.2620  176.0330  142.8640 C   0  0  1  0  0  3  0  0  0  0  0  0
  185.9410  175.6690  143.1380 O   0  0  0  0  0  1  0  0  0  0  0  0
  186.3820  178.6200  143.4290 C   0  0  2  0  0  3  0  0  0  0  0  0
  195.9500  175.2900  144.7500 C   0  0  0  0  0  2  0  0  0  0  0  0
  196.0350  174.1660  145.7640 C   0  0  0  0  0  1  0  0  0  0  0  0
  1  3  1  0  0  0  0
  2  5  1  0  0  0  0
  2  4  1  1  0  0  0
  3 18  2  0  0  0  0
  4  1  2  0  0  0  0
  4 10  1  0  0  0  0
  5 11  1  6  0  0  0
  5 17  1  0  0  0  0
  6 19  2  0  0  0  0
  7 14  1  6  0  0  0
  7  2  1  0  0  0  0
  8  9  1  0  0  0  0
  9 11  1  6  0  0  0
 10 12  1  1  0  0  0
 10 13  1  0  0  0  0
 13 18  1  0  0  0  0
 15 14  1  6  0  0  0
 15  1  1  0  0  0  0
 16 20  1  6  0  0  0
 16  9  1  0  0  0  0
 16  7  1  0  0  0  0
 17 31  1  1  0  0  0
 17 12  1  0  0  0  0
 19  8  1  0  0  0  0
 19 20  1  0  0  0  0
 21 23  1  6  0  0  0
 21 26  1  0  0  0  0
 21 28  1  0  0  0  0
 25 15  1  0  0  0  0
 25 27  1  6  0  0  0
 26 30  1  0  0  0  0
 27 24  1  0  0  0  0
 28 29  1  1  0  0  0
 28 25  1  0  0  0  0
 30 22  1  1  0  0  0
 30 24  1  0  0  0  0
 31 32  1  0  0  0  0
M  END
>  <MODEL>
8

>  <REMARK>
 VINA RESULT:      -7.2      3.189      6.685
  Name = 
  2 active torsions:
  status: ('A' for Active; 'I' for Inactive)
    1  A    between atoms: C_13  and  C_29
    2  A    between atoms: C_16  and  C_27
                            x       y       z     vdW  Elec       q    Type
                         _______ _______ _______ _____ _____    ______ ____

>  <TORSDO>
F 2

$$$$
=
 OpenBabel11052419103D

 32 37  0  0  1  0  0  0  0  0999 V2000
  190.3410  175.6940  144.8380 C   0  0  0  0  0  0  0  0  0  0  0  0
  191.8780  174.0710  143.7440 C   0  0  1  0  0  3  0  0  0  0  0  0
  190.0640  176.7050  145.8850 C   0  0  0  0  0  3  0  0  0  0  0  0
  191.5030  174.9970  144.8760 C   0  0  0  0  0  0  0  0  0  0  0  0
  192.8420  172.9500  144.1870 C   0  0  1  0  0  3  0  0  0  0  0  0
  190.4410  170.1590  139.6260 O   0  0  0  0  0  0  0  0  0  0  0  0
  190.6590  173.4920  143.0040 C   0  0  1  0  0  3  0  0  0  0  0  0
  192.0030  170.6190  141.3250 N   0  0  0  0  0  2  0  0  0  0  0  0
  191.9070  171.6030  142.3830 C   0  0  1  0  0  3  0  0  0  0  0  0
  192.5970  175.4110  145.8490 C   0  0  2  0  0  3  0  0  0  0  0  0
  193.2210  172.0620  142.9880 C   0  0  0  0  0  2  0  0  0  0  0  0
  193.5620  174.2660  146.1590 C   0  0  0  0  0  2  0  0  0  0  0  0
  192.0060  175.9050  147.1720 C   0  0  0  0  0  2  0  0  0  0  0  0
  189.7940  174.6620  142.5670 C   0  0  0  0  0  2  0  0  0  0  0  0
  189.2640  175.4040  143.8000 C   0  0  2  0  0  3  0  0  0  0  0  0
  191.1700  172.7510  141.8520 N   0  0  1  0  0  0  0  0  0  0  0  0
  194.0530  173.5540  144.8990 C   0  0  1  0  0  3  0  0  0  0  0  0
  190.8570  176.8420  146.9490 C   0  0  0  0  0  3  0  0  0  0  0  0
  190.8320  170.8870  140.5760 C   0  0  0  0  0  0  0  0  0  0  0  0
  190.1430  172.1180  141.0300 C   0  0  0  0  0  2  0  0  0  0  0  0
  185.8950  176.5980  143.7220 C   0  0  1  0  0  3  0  0  0  0  0  0
  185.5940  178.6660  140.9340 O   0  0  0  0  0  1  0  0  0  0  0  0
  184.8830  177.1660  144.4760 F   0  0  0  0  0  0  0  0  0  0  0  0
  187.7510  177.9140  141.6410 C   0  0  0  0  0  2  0  0  0  0  0  0
  188.5050  176.6670  143.3870 C   0  0  1  0  0  3  0  0  0  0  0  0
  185.7020  176.8650  142.3430 O   0  0  0  0  0  0  0  0  0  0  0  0
  188.1860  176.6310  142.0140 O   0  0  0  0  0  0  0  0  0  0  0  0
  187.2950  176.9090  144.3190 C   0  0  1  0  0  3  0  0  0  0  0  0
  187.3400  178.2150  144.8130 O   0  0  0  0  0  1  0  0  0  0  0  0
  186.2770  178.1040  142.0120 C   0  0  2  0  0  3  0  0  0  0  0  0
  195.0420  172.4670  145.3020 C   0  0  0  0  0  2  0  0  0  0  0  0
  196.3480  173.0840  145.7610 C   0  0  0  0  0  1  0  0  0  0  0  0
  1  4  2  0  0  0  0
  1  3  1  0  0  0  0
  2  5  1  0  0  0  0
  2  4  1  1  0  0  0
  3 18  2  0  0  0  0
  4 10  1  0  0  0  0
  5 11  1  6  0  0  0
  5 17  1  0  0  0  0
  6 19  2  0  0  0  0
  7 14  1  6  0  0  0
  7  2  1  0  0  0  0
  8  9  1  0  0  0  0
  9 11  1  6  0  0  0
 10 12  1  1  0  0  0
 10 13  1  0  0  0  0
 15 14  1  6  0  0  0
 15  1  1  0  0  0  0
 16 20  1  6  0  0  0
 16  9  1  0  0  0  0
 16  7  1  0  0  0  0
 17 31  1  1  0  0  0
 17 12  1  0  0  0  0
 18 13  1  0  0  0  0
 19 20  1  0  0  0  0
 19  8  1  0  0  0  0
 21 28  1  0  0  0  0
 21 23  1  1  0  0  0
 24 30  1  0  0  0  0
 24 27  1  0  0  0  0
 25 27  1  6  0  0  0
 25 15  1  0  0  0  0
 25 28  1  0  0  0  0
 26 21  1  0  0  0  0
 28 29  1  6  0  0  0
 30 22  1  6  0  0  0
 30 26  1  0  0  0  0
 31 32  1  0  0  0  0
M  END
>  <MODEL>
9

>  <REMARK>
 VINA RESULT:      -7.2      3.324      6.927
  Name = 
  2 active torsions:
  status: ('A' for Active; 'I' for Inactive)
    1  A    between atoms: C_13  and  C_29
    2  A    between atoms: C_16  and  C_27
                            x       y       z     vdW  Elec       q    Type
                         _______ _______ _______ _____ _____    ______ ____

>  <TORSDO>
F 2

$$$$
