=
 OpenBabel11052419253D

 55 61  0  0  1  0  0  0  0  0999 V2000
  191.0960  174.4360  144.7160 C   0  0  1  0  0  3  0  0  0  0  0  0
  195.2220  176.3060  143.3760 C   0  0  0  0  0  2  0  0  0  0  0  0
  194.7270  174.9630  139.9840 C   0  0  0  0  0  1  0  0  0  0  0  0
  192.7450  172.5270  139.5790 C   0  0  0  0  0  3  0  0  0  0  0  0
  192.3810  171.8440  138.4150 C   0  0  0  0  0  3  0  0  0  0  0  0
  190.4900  173.4090  139.7750 C   0  0  0  0  0  0  0  0  0  0  0  0
  190.1330  172.7240  138.6070 C   0  0  0  0  0  3  0  0  0  0  0  0
  193.6240  174.1060  141.8660 C   0  0  0  0  0  2  0  0  0  0  0  0
  191.0760  171.9480  137.9270 C   0  0  0  0  0  3  0  0  0  0  0  0
  189.4400  176.0250  145.6940 N   0  0  0  0  0  2  0  0  0  0  0  0
  191.8110  173.3280  140.2720 C   0  0  0  0  0  0  0  0  0  0  0  0
  192.3570  175.8860  146.3970 C   0  0  0  0  0  0  0  0  0  0  0  0
  191.4880  175.3380  143.5350 C   0  0  0  0  0  2  0  0  0  0  0  0
  192.1010  174.4900  145.8710 C   0  0  0  0  0  2  0  0  0  0  0  0
  189.8640  174.8450  141.6340 C   0  0  0  0  0  0  0  0  0  0  0  0
  194.3810  175.5430  144.1860 O   0  0  0  0  0  0  0  0  0  0  0  0
  189.5370  174.1770  140.4520 C   0  0  0  0  0  3  0  0  0  0  0  0
  195.4960  175.5180  142.0960 C   0  0  0  0  0  2  0  0  0  0  0  0
  194.2740  175.2960  141.3210 N   0  0  0  0  0  0  0  0  0  0  0  0
  189.9150  176.0680  147.0700 C   0  0  0  0  0  2  0  0  0  0  0  0
  189.6540  174.6650  145.2020 C   0  0  0  0  0  2  0  0  0  0  0  0
  192.1720  174.0320  141.4400 C   0  0  0  0  0  0  0  0  0  0  0  0
  191.1660  174.7330  142.1820 C   0  0  0  0  0  0  0  0  0  0  0  0
  194.7210  175.8210  145.5170 C   0  0  1  0  0  3  0  0  0  0  0  0
  193.5540  176.4560  146.2340 C   0  0  0  0  0  3  0  0  0  0  0  0
  191.3060  176.6950  147.1170 C   0  0  0  0  0  2  0  0  0  0  0  0
  187.6110  175.1950  142.6530 C   0  0  0  0  0  3  0  0  0  0  0  0
  186.8910  177.3830  143.4290 C   0  0  0  0  0  0  0  0  0  0  0  0
  189.1050  177.0900  142.4540 C   0  0  0  0  0  3  0  0  0  0  0  0
  188.1250  177.9200  143.0290 C   0  0  0  0  0  3  0  0  0  0  0  0
  186.6320  176.0230  143.2160 C   0  0  0  0  0  3  0  0  0  0  0  0
  188.8420  175.7340  142.2460 C   0  0  0  0  0  0  0  0  0  0  0  0
  185.8360  178.2540  143.9810 C   0  0  0  0  0  0  0  0  0  0  0  0
  185.7370  179.5590  143.4900 O   0  0  0  0  0  0  0  0  0  0  0  0
  184.8440  177.7690  144.5870 O   0  0  0  0  0  1  0  0  0  0  0  0
  195.2100  174.5570  146.2260 C   0  0  0  0  0  2  0  0  0  0  0  0
  196.5580  174.1410  145.6390 C   0  0  0  0  0  2  0  0  0  0  0  0
  196.8170  172.6770  145.9780 C   0  0  0  0  0  2  0  0  0  0  0  0
  196.4370  172.5680  143.6070 O   0  0  0  0  0  1  0  0  0  0  0  0
  196.8620  171.8090  144.7040 C   0  0  2  0  0  3  0  0  0  0  0  0
  196.0230  170.5300  144.8850 C   0  0  1  0  0  3  0  0  0  0  0  0
  196.0630  170.0060  146.3410 C   0  0  0  0  0  1  0  0  0  0  0  0
  193.8540  171.6570  144.8040 O   0  0  0  0  0  1  0  0  0  0  0  0
  193.7150  169.3370  144.7480 C   0  0  0  0  0  2  0  0  0  0  0  0
  194.5530  170.5220  144.3410 C   0  0  2  0  0  0  0  0  0  0  0  0
  192.7910  170.0330  142.3710 C   0  0  1  0  0  3  0  0  0  0  0  0
  194.2430  170.2230  142.8470 C   0  0  2  0  0  0  0  0  0  0  0  0
  193.4150  168.9960  143.2990 C   0  0  1  0  0  3  0  0  0  0  0  0
  191.8550  170.9140  143.0610 N   0  0  0  0  0  2  0  0  0  0  0  0
  190.5550  170.7740  142.4190 C   0  0  0  0  0  1  0  0  0  0  0  0
  195.3920  169.7350  141.9080 C   0  0  0  0  0  2  0  0  0  0  0  0
  195.6420  170.5330  140.5880 C   0  0  1  0  0  3  0  0  0  0  0  0
  197.3570  171.1620  140.3960 S   0  0  0  0  0  1  0  0  0  0  0  0
  195.1860  169.8580  139.4070 O   0  0  0  0  0  0  0  0  0  0  0  0
  196.2790  169.6960  138.5380 C   0  0  0  0  0  1  0  0  0  0  0  0
  1 13  1  6  0  0  0
  1 21  1  0  0  0  0
  1 14  1  0  0  0  0
  2 16  1  0  0  0  0
  3 19  1  0  0  0  0
  4 11  1  0  0  0  0
  5  4  2  0  0  0  0
  6 11  2  0  0  0  0
  6 17  1  0  0  0  0
  7  6  1  0  0  0  0
  9  5  1  0  0  0  0
  9  7  2  0  0  0  0
 10 20  1  0  0  0  0
 11 22  1  0  0  0  0
 12 26  1  0  0  0  0
 14 12  1  0  0  0  0
 15 23  1  0  0  0  0
 15 32  1  0  0  0  0
 16 24  1  0  0  0  0
 17 15  2  0  0  0  0
 18  2  1  0  0  0  0
 19  8  1  0  0  0  0
 19 18  1  0  0  0  0
 20 26  1  0  0  0  0
 21 10  1  0  0  0  0
 22  8  1  0  0  0  0
 22 23  2  0  0  0  0
 23 13  1  0  0  0  0
 24 36  1  1  0  0  0
 24 25  1  0  0  0  0
 25 12  2  0  0  0  0
 27 31  1  0  0  0  0
 28 33  1  0  0  0  0
 29 30  2  0  0  0  0
 30 28  1  0  0  0  0
 31 28  2  0  0  0  0
 32 29  1  0  0  0  0
 32 27  2  0  0  0  0
 33 35  1  0  0  0  0
 34 33  2  0  0  0  0
 37 38  1  0  0  0  0
 37 36  1  0  0  0  0
 40 39  1  6  0  0  0
 40 41  1  0  0  0  0
 40 38  1  0  0  0  0
 41 42  1  1  0  0  0
 45 44  1  0  0  0  0
 45 43  1  1  0  0  0
 45 41  1  0  0  0  0
 46 47  1  0  0  0  0
 46 49  1  1  0  0  0
 46 48  1  0  0  0  0
 47 51  1  6  0  0  0
 47 48  1  0  0  0  0
 47 45  1  0  0  0  0
 48 44  1  1  0  0  0
 50 49  1  0  0  0  0
 52 53  1  6  0  0  0
 52 51  1  0  0  0  0
 54 52  1  0  0  0  0
 55 54  1  0  0  0  0
M  END
>  <MODEL>
1

>  <REMARK>
 VINA RESULT:      -7.1      0.000      0.000
  Name = 
  12 active torsions:
  status: ('A' for Active; 'I' for Inactive)
    1  A    between atoms: C_1  and  O_30
    2  A    between atoms: C_1  and  C_53
    3  A    between atoms: C_6  and  C_14
    4  A    between atoms: C_6  and  C_20
    5  A    between atoms: C_8  and  C_22
    6  A    between atoms: C_8  and  C_43
    7  A    between atoms: C_10  and  C_32
    8  A    between atoms: N_11  and  C_29
    9  A    between atoms: C_20  and  C_22
   10  A    between atoms: C_33  and  C_52
   11  A    between atoms: C_38  and  C_53
   12  A    between atoms: C_43  and  C_51
                            x       y       z     vdW  Elec       q    Type
                         _______ _______ _______ _____ _____    ______ ____

>  <TORSDO>
F 12

$$$$
=
 OpenBabel11052419253D

 55 61  0  0  1  0  0  0  0  0999 V2000
  194.2190  175.5270  141.5440 C   0  0  1  0  0  3  0  0  0  0  0  0
  193.9740  171.8060  144.4440 C   0  0  0  0  0  2  0  0  0  0  0  0
  190.8710  170.7200  142.7860 C   0  0  0  0  0  1  0  0  0  0  0  0
  189.1730  172.8530  141.1750 C   0  0  0  0  0  3  0  0  0  0  0  0
  187.9790  172.7040  140.4630 C   0  0  0  0  0  3  0  0  0  0  0  0
  190.3630  173.2880  139.1040 C   0  0  0  0  0  0  0  0  0  0  0  0
  189.1650  173.1350  138.3960 C   0  0  0  0  0  3  0  0  0  0  0  0
  191.6620  172.9250  142.6900 C   0  0  0  0  0  2  0  0  0  0  0  0
  187.9780  172.8400  139.0730 C   0  0  0  0  0  3  0  0  0  0  0  0
  196.3300  175.7580  140.2350 N   0  0  0  0  0  2  0  0  0  0  0  0
  190.3840  173.1370  140.5090 C   0  0  0  0  0  0  0  0  0  0  0  0
  196.1500  175.1460  143.1700 C   0  0  0  0  0  0  0  0  0  0  0  0
  194.0460  174.0230  141.2840 C   0  0  0  0  0  2  0  0  0  0  0  0
  194.8250  175.8320  142.9180 C   0  0  0  0  0  2  0  0  0  0  0  0
  192.7450  173.7760  139.1070 C   0  0  0  0  0  0  0  0  0  0  0  0
  194.0910  173.1590  144.1270 O   0  0  0  0  0  0  0  0  0  0  0  0
  191.5440  173.5910  138.4170 C   0  0  0  0  0  3  0  0  0  0  0  0
  192.5110  171.3990  144.2720 C   0  0  0  0  0  2  0  0  0  0  0  0
  192.0680  171.5340  142.8830 N   0  0  0  0  0  0  0  0  0  0  0  0
  197.1680  176.4210  141.2240 C   0  0  0  0  0  2  0  0  0  0  0  0
  194.9670  176.2570  140.4150 C   0  0  0  0  0  2  0  0  0  0  0  0
  191.5970  173.2750  141.2180 C   0  0  0  0  0  0  0  0  0  0  0  0
  192.7790  173.6850  140.5200 C   0  0  0  0  0  0  0  0  0  0  0  0
  195.0980  173.6910  144.9440 C   0  0  1  0  0  3  0  0  0  0  0  0
  196.2460  174.1930  144.1000 C   0  0  0  0  0  3  0  0  0  0  0  0
  197.4070  175.4870  142.4080 C   0  0  0  0  0  2  0  0  0  0  0  0
  194.1240  175.1460  137.5390 C   0  0  0  0  0  3  0  0  0  0  0  0
  196.3310  174.4230  136.8190 C   0  0  0  0  0  0  0  0  0  0  0  0
  195.0290  173.0570  138.3620 C   0  0  0  0  0  3  0  0  0  0  0  0
  196.1950  173.2640  137.6010 C   0  0  0  0  0  3  0  0  0  0  0  0
  195.2800  175.3480  136.7750 C   0  0  0  0  0  3  0  0  0  0  0  0
  193.9850  173.9840  138.3150 C   0  0  0  0  0  0  0  0  0  0  0  0
  197.5240  174.6250  135.9760 C   0  0  0  0  0  0  0  0  0  0  0  0
  197.9410  173.5670  135.1640 O   0  0  0  0  0  0  0  0  0  0  0  0
  197.9410  175.7820  135.7070 O   0  0  0  0  0  1  0  0  0  0  0  0
  194.5360  174.7850  145.8530 C   0  0  0  0  0  2  0  0  0  0  0  0
  193.0390  174.9410  145.5870 C   0  0  0  0  0  2  0  0  0  0  0  0
  192.3620  175.4710  146.8450 C   0  0  0  0  0  2  0  0  0  0  0  0
  190.6160  176.9210  147.6360 O   0  0  0  0  0  1  0  0  0  0  0  0
  191.0690  176.2370  146.5020 C   0  0  2  0  0  3  0  0  0  0  0  0
  190.0010  175.2810  145.9370 C   0  0  1  0  0  3  0  0  0  0  0  0
  188.8820  174.9820  146.9640 C   0  0  0  0  0  1  0  0  0  0  0  0
  188.9570  174.4140  143.9010 O   0  0  0  0  0  1  0  0  0  0  0  0
  190.3110  176.2710  143.5510 C   0  0  0  0  0  2  0  0  0  0  0  0
  189.3830  175.6020  144.5330 C   0  0  2  0  0  0  0  0  0  0  0  0
  187.9060  177.1790  142.9340 C   0  0  1  0  0  3  0  0  0  0  0  0
  188.3580  176.7560  144.3430 C   0  0  2  0  0  0  0  0  0  0  0  0
  189.3470  177.4300  143.3630 C   0  0  1  0  0  3  0  0  0  0  0  0
  187.7800  176.0470  142.0220 N   0  0  0  0  0  2  0  0  0  0  0  0
  187.5220  176.5750  140.6880 C   0  0  0  0  0  1  0  0  0  0  0  0
  188.0770  177.7350  145.5270 C   0  0  0  0  0  2  0  0  0  0  0  0
  186.5900  177.9520  145.9570 C   0  0  1  0  0  3  0  0  0  0  0  0
  186.3490  178.1740  147.7640 S   0  0  0  0  0  1  0  0  0  0  0  0
  185.9100  178.9630  145.2000 O   0  0  0  0  0  0  0  0  0  0  0  0
  184.5280  178.8210  145.4100 C   0  0  0  0  0  1  0  0  0  0  0  0
  1 21  1  6  0  0  0
  1 14  1  0  0  0  0
  3 19  1  0  0  0  0
  5  4  2  0  0  0  0
  6 11  1  0  0  0  0
  7  9  2  0  0  0  0
  7  6  1  0  0  0  0
  8 19  1  0  0  0  0
  9  5  1  0  0  0  0
 10 21  1  0  0  0  0
 10 20  1  0  0  0  0
 11  4  1  0  0  0  0
 11 22  2  0  0  0  0
 12 25  2  0  0  0  0
 13  1  1  0  0  0  0
 14 12  1  0  0  0  0
 15 23  2  0  0  0  0
 16  2  1  0  0  0  0
 16 24  1  0  0  0  0
 17  6  2  0  0  0  0
 17 15  1  0  0  0  0
 18  2  1  0  0  0  0
 19 18  1  0  0  0  0
 20 26  1  0  0  0  0
 22  8  1  0  0  0  0
 23 22  1  0  0  0  0
 23 13  1  0  0  0  0
 24 36  1  6  0  0  0
 25 24  1  0  0  0  0
 26 12  1  0  0  0  0
 27 32  1  0  0  0  0
 28 30  2  0  0  0  0
 30 29  1  0  0  0  0
 31 28  1  0  0  0  0
 31 27  2  0  0  0  0
 32 29  2  0  0  0  0
 32 15  1  0  0  0  0
 33 28  1  0  0  0  0
 34 33  2  0  0  0  0
 35 33  1  0  0  0  0
 37 36  1  0  0  0  0
 37 38  1  0  0  0  0
 40 38  1  0  0  0  0
 40 39  1  1  0  0  0
 41 40  1  0  0  0  0
 41 42  1  1  0  0  0
 44 45  1  0  0  0  0
 45 43  1  6  0  0  0
 45 41  1  0  0  0  0
 46 49  1  6  0  0  0
 46 48  1  0  0  0  0
 46 47  1  0  0  0  0
 47 45  1  0  0  0  0
 47 51  1  1  0  0  0
 48 44  1  6  0  0  0
 48 47  1  0  0  0  0
 50 49  1  0  0  0  0
 51 52  1  0  0  0  0
 52 53  1  1  0  0  0
 54 55  1  0  0  0  0
 54 52  1  0  0  0  0
M  END
>  <MODEL>
2

>  <REMARK>
 VINA RESULT:      -6.7      3.205      8.142
  Name = 
  12 active torsions:
  status: ('A' for Active; 'I' for Inactive)
    1  A    between atoms: C_1  and  O_30
    2  A    between atoms: C_1  and  C_53
    3  A    between atoms: C_6  and  C_14
    4  A    between atoms: C_6  and  C_20
    5  A    between atoms: C_8  and  C_22
    6  A    between atoms: C_8  and  C_43
    7  A    between atoms: C_10  and  C_32
    8  A    between atoms: N_11  and  C_29
    9  A    between atoms: C_20  and  C_22
   10  A    between atoms: C_33  and  C_52
   11  A    between atoms: C_38  and  C_53
   12  A    between atoms: C_43  and  C_51
                            x       y       z     vdW  Elec       q    Type
                         _______ _______ _______ _____ _____    ______ ____

>  <TORSDO>
F 12

$$$$
=
 OpenBabel11052419253D

 55 61  0  0  1  0  0  0  0  0999 V2000
  191.0080  174.7700  142.1600 C   0  0  1  0  0  3  0  0  0  0  0  0
  190.9820  170.0490  141.9740 C   0  0  0  0  0  2  0  0  0  0  0  0
  193.9500  169.9480  144.1500 C   0  0  0  0  0  1  0  0  0  0  0  0
  195.7970  172.5140  144.3340 C   0  0  0  0  0  3  0  0  0  0  0  0
  196.9610  172.7360  145.0770 C   0  0  0  0  0  3  0  0  0  0  0  0
  194.6120  174.1440  145.6900 C   0  0  0  0  0  0  0  0  0  0  0  0
  195.7800  174.3600  146.4310 C   0  0  0  0  0  3  0  0  0  0  0  0
  193.3510  171.8390  142.9010 C   0  0  0  0  0  2  0  0  0  0  0  0
  196.9490  173.6560  146.1280 C   0  0  0  0  0  3  0  0  0  0  0  0
  188.9020  175.8460  142.9530 N   0  0  0  0  0  2  0  0  0  0  0  0
  194.6030  173.2040  144.6330 C   0  0  0  0  0  0  0  0  0  0  0  0
  189.0810  173.6300  140.9350 C   0  0  0  0  0  0  0  0  0  0  0  0
  191.0460  173.6910  143.2540 C   0  0  0  0  0  2  0  0  0  0  0  0
  190.4560  174.2530  140.8280 C   0  0  0  0  0  2  0  0  0  0  0  0
  192.2820  174.6810  145.2510 C   0  0  0  0  0  0  0  0  0  0  0  0
  190.9770  171.3380  141.4400 O   0  0  0  0  0  0  0  0  0  0  0  0
  193.4500  174.8600  145.9960 C   0  0  0  0  0  3  0  0  0  0  0  0
  192.4010  169.7320  142.4440 C   0  0  0  0  0  2  0  0  0  0  0  0
  192.8300  170.6230  143.5230 N   0  0  0  0  0  0  0  0  0  0  0  0
  188.1430  175.8580  141.7110 C   0  0  0  0  0  2  0  0  0  0  0  0
  190.3060  176.0640  142.6070 C   0  0  0  0  0  2  0  0  0  0  0  0
  193.4200  172.9770  143.8990 C   0  0  0  0  0  0  0  0  0  0  0  0
  192.2650  173.7860  144.1520 C   0  0  0  0  0  0  0  0  0  0  0  0
  190.0340  171.3540  140.4030 C   0  0  1  0  0  3  0  0  0  0  0  0
  188.9200  172.3210  140.7240 C   0  0  0  0  0  3  0  0  0  0  0  0
  187.8450  174.4260  141.2750 C   0  0  0  0  0  2  0  0  0  0  0  0
  189.9550  174.6400  146.1570 C   0  0  0  0  0  3  0  0  0  0  0  0
  188.7100  176.6880  146.5610 C   0  0  0  0  0  0  0  0  0  0  0  0
  190.9830  176.7810  145.6880 C   0  0  0  0  0  3  0  0  0  0  0  0
  189.8090  177.4340  146.1040 C   0  0  0  0  0  3  0  0  0  0  0  0
  188.7830  175.2890  146.5620 C   0  0  0  0  0  3  0  0  0  0  0  0
  191.0510  175.3850  145.6930 C   0  0  0  0  0  0  0  0  0  0  0  0
  187.4540  177.3590  146.9470 C   0  0  0  0  0  0  0  0  0  0  0  0
  186.2530  176.6720  146.7480 O   0  0  0  0  0  0  0  0  0  0  0  0
  187.4570  178.3340  147.7440 O   0  0  0  0  0  1  0  0  0  0  0  0
  190.7050  171.6780  139.0670 C   0  0  0  0  0  2  0  0  0  0  0  0
  192.1860  171.3120  139.1460 C   0  0  0  0  0  2  0  0  0  0  0  0
  192.9550  172.1200  138.1070 C   0  0  0  0  0  2  0  0  0  0  0  0
  192.7060  174.5100  138.0310 O   0  0  0  0  0  1  0  0  0  0  0  0
  193.4020  173.4810  138.6780 C   0  0  2  0  0  3  0  0  0  0  0  0
  194.9290  173.6490  138.5570 C   0  0  1  0  0  3  0  0  0  0  0  0
  195.3340  174.3900  137.2600 C   0  0  0  0  0  1  0  0  0  0  0  0
  194.8370  174.4300  140.8740 O   0  0  0  0  0  1  0  0  0  0  0  0
  196.3880  175.5560  139.5580 C   0  0  0  0  0  2  0  0  0  0  0  0
  195.7130  174.2280  139.7850 C   0  0  2  0  0  0  0  0  0  0  0  0
  197.9140  174.3140  141.3230 C   0  0  1  0  0  3  0  0  0  0  0  0
  197.0690  173.6200  140.2400 C   0  0  2  0  0  0  0  0  0  0  0  0
  197.7370  174.9890  139.9680 C   0  0  1  0  0  3  0  0  0  0  0  0
  197.0980  174.9240  142.3670 N   0  0  0  0  0  2  0  0  0  0  0  0
  197.9380  175.8610  143.1020 C   0  0  0  0  0  1  0  0  0  0  0  0
  197.7620  172.5380  139.3520 C   0  0  0  0  0  2  0  0  0  0  0  0
  197.2550  171.0650  139.4700 C   0  0  1  0  0  3  0  0  0  0  0  0
  196.4690  170.6600  141.0800 S   0  0  0  0  0  1  0  0  0  0  0  0
  196.4500  170.6380  138.3610 O   0  0  0  0  0  0  0  0  0  0  0  0
  197.2060  170.7750  137.1850 C   0  0  0  0  0  1  0  0  0  0  0  0
  1 14  1  6  0  0  0
  1 21  1  0  0  0  0
  1 13  1  0  0  0  0
  2 18  1  0  0  0  0
  4 11  2  0  0  0  0
  4  5  1  0  0  0  0
  5  9  2  0  0  0  0
  6 17  1  0  0  0  0
  6  7  2  0  0  0  0
  8 19  1  0  0  0  0
  8 22  1  0  0  0  0
  9  7  1  0  0  0  0
 11  6  1  0  0  0  0
 12 26  1  0  0  0  0
 13 23  1  0  0  0  0
 14 12  1  0  0  0  0
 15 32  1  0  0  0  0
 15 17  2  0  0  0  0
 16  2  1  0  0  0  0
 18 19  1  0  0  0  0
 19  3  1  0  0  0  0
 20 10  1  0  0  0  0
 21 10  1  0  0  0  0
 22 23  2  0  0  0  0
 22 11  1  0  0  0  0
 23 15  1  0  0  0  0
 24 36  1  6  0  0  0
 24 25  1  0  0  0  0
 24 16  1  0  0  0  0
 25 12  2  0  0  0  0
 26 20  1  0  0  0  0
 27 31  1  0  0  0  0
 28 31  2  0  0  0  0
 28 33  1  0  0  0  0
 29 32  1  0  0  0  0
 29 30  2  0  0  0  0
 30 28  1  0  0  0  0
 32 27  2  0  0  0  0
 33 35  1  0  0  0  0
 34 33  2  0  0  0  0
 36 37  1  0  0  0  0
 38 40  1  0  0  0  0
 38 37  1  0  0  0  0
 40 39  1  6  0  0  0
 41 42  1  6  0  0  0
 41 40  1  0  0  0  0
 41 45  1  0  0  0  0
 44 45  1  0  0  0  0
 45 47  1  0  0  0  0
 45 43  1  1  0  0  0
 46 49  1  1  0  0  0
 47 51  1  6  0  0  0
 47 46  1  0  0  0  0
 48 44  1  1  0  0  0
 48 47  1  0  0  0  0
 48 46  1  0  0  0  0
 49 50  1  0  0  0  0
 51 52  1  0  0  0  0
 52 53  1  1  0  0  0
 54 52  1  0  0  0  0
 55 54  1  0  0  0  0
M  END
>  <MODEL>
3

>  <REMARK>
 VINA RESULT:      -6.6      2.103      6.095
  Name = 
  12 active torsions:
  status: ('A' for Active; 'I' for Inactive)
    1  A    between atoms: C_1  and  O_30
    2  A    between atoms: C_1  and  C_53
    3  A    between atoms: C_6  and  C_14
    4  A    between atoms: C_6  and  C_20
    5  A    between atoms: C_8  and  C_22
    6  A    between atoms: C_8  and  C_43
    7  A    between atoms: C_10  and  C_32
    8  A    between atoms: N_11  and  C_29
    9  A    between atoms: C_20  and  C_22
   10  A    between atoms: C_33  and  C_52
   11  A    between atoms: C_38  and  C_53
   12  A    between atoms: C_43  and  C_51
                            x       y       z     vdW  Elec       q    Type
                         _______ _______ _______ _____ _____    ______ ____

>  <TORSDO>
F 12

$$$$
=
 OpenBabel11052419253D

 55 61  0  0  1  0  0  0  0  0999 V2000
  191.1110  174.7740  142.1050 C   0  0  1  0  0  3  0  0  0  0  0  0
  191.1050  170.0540  141.8880 C   0  0  0  0  0  2  0  0  0  0  0  0
  194.0550  169.9510  144.0870 C   0  0  0  0  0  1  0  0  0  0  0  0
  195.8910  172.5220  144.3040 C   0  0  0  0  0  3  0  0  0  0  0  0
  197.0480  172.7430  145.0570 C   0  0  0  0  0  3  0  0  0  0  0  0
  194.6890  174.1380  145.6600 C   0  0  0  0  0  0  0  0  0  0  0  0
  195.8500  174.3540  146.4120 C   0  0  0  0  0  3  0  0  0  0  0  0
  193.4590  171.8470  142.8460 C   0  0  0  0  0  2  0  0  0  0  0  0
  197.0240  173.6560  146.1140 C   0  0  0  0  0  3  0  0  0  0  0  0
  188.9950  175.8360  142.8890 N   0  0  0  0  0  2  0  0  0  0  0  0
  194.6920  173.2050  144.5970 C   0  0  0  0  0  0  0  0  0  0  0  0
  189.1990  173.6350  140.8570 C   0  0  0  0  0  0  0  0  0  0  0  0
  191.1450  173.6880  143.1920 C   0  0  0  0  0  2  0  0  0  0  0  0
  190.5720  174.2630  140.7650 C   0  0  0  0  0  2  0  0  0  0  0  0
  192.3600  174.6690  145.2050 C   0  0  0  0  0  0  0  0  0  0  0  0
  191.0990  171.3460  141.3620 O   0  0  0  0  0  0  0  0  0  0  0  0
  193.5210  174.8480  145.9610 C   0  0  0  0  0  3  0  0  0  0  0  0
  192.5210  169.7400  142.3670 C   0  0  0  0  0  2  0  0  0  0  0  0
  192.9380  170.6250  143.4560 N   0  0  0  0  0  0  0  0  0  0  0  0
  188.2460  175.8540  141.6410 C   0  0  0  0  0  2  0  0  0  0  0  0
  190.4010  176.0620  142.5550 C   0  0  0  0  0  2  0  0  0  0  0  0
  193.5150  172.9780  143.8520 C   0  0  0  0  0  0  0  0  0  0  0  0
  192.3560  173.7810  144.1010 C   0  0  0  0  0  0  0  0  0  0  0  0
  190.1650  171.3660  140.3180 C   0  0  1  0  0  3  0  0  0  0  0  0
  189.0440  172.3260  140.6360 C   0  0  0  0  0  3  0  0  0  0  0  0
  187.9570  174.4240  141.1920 C   0  0  0  0  0  2  0  0  0  0  0  0
  190.0300  174.6130  146.1030 C   0  0  0  0  0  3  0  0  0  0  0  0
  188.7700  176.6540  146.5010 C   0  0  0  0  0  0  0  0  0  0  0  0
  191.0460  176.7610  145.6370 C   0  0  0  0  0  3  0  0  0  0  0  0
  189.8660  177.4070  146.0470 C   0  0  0  0  0  3  0  0  0  0  0  0
  188.8520  175.2550  146.5030 C   0  0  0  0  0  3  0  0  0  0  0  0
  191.1230  175.3660  145.6430 C   0  0  0  0  0  0  0  0  0  0  0  0
  187.5080  177.3170  146.8810 C   0  0  0  0  0  0  0  0  0  0  0  0
  186.3100  176.6420  146.6340 O   0  0  0  0  0  0  0  0  0  0  0  0
  187.4970  178.2650  147.7100 O   0  0  0  0  0  1  0  0  0  0  0  0
  190.8450  171.7010  138.9890 C   0  0  0  0  0  2  0  0  0  0  0  0
  191.0010  170.4230  138.1680 C   0  0  0  0  0  2  0  0  0  0  0  0
  192.3680  170.4280  137.4920 C   0  0  0  0  0  2  0  0  0  0  0  0
  192.1440  171.9430  135.6400 O   0  0  0  0  0  1  0  0  0  0  0  0
  192.7000  171.8210  136.9190 C   0  0  2  0  0  3  0  0  0  0  0  0
  194.2220  172.0610  136.9150 C   0  0  1  0  0  3  0  0  0  0  0  0
  194.7540  172.4150  135.5050 C   0  0  0  0  0  1  0  0  0  0  0  0
  196.2330  172.9470  137.9900 O   0  0  0  0  0  1  0  0  0  0  0  0
  194.4000  172.7780  139.4100 C   0  0  0  0  0  2  0  0  0  0  0  0
  194.8240  173.0340  137.9860 C   0  0  2  0  0  0  0  0  0  0  0  0
  194.7980  175.3870  139.2840 C   0  0  1  0  0  3  0  0  0  0  0  0
  194.3360  174.5050  138.1110 C   0  0  2  0  0  0  0  0  0  0  0  0
  193.8840  174.1990  139.5590 C   0  0  1  0  0  3  0  0  0  0  0  0
  196.1830  175.1330  139.6660 N   0  0  0  0  0  2  0  0  0  0  0  0
  196.4620  175.9010  140.8720 C   0  0  0  0  0  1  0  0  0  0  0  0
  193.0950  174.9740  137.2860 C   0  0  0  0  0  2  0  0  0  0  0  0
  193.2520  176.2460  136.3920 C   0  0  1  0  0  3  0  0  0  0  0  0
  194.7700  176.2630  135.3580 S   0  0  0  0  0  1  0  0  0  0  0  0
  192.0810  176.5640  135.6260 O   0  0  0  0  0  0  0  0  0  0  0  0
  191.3470  175.3830  135.4250 C   0  0  0  0  0  1  0  0  0  0  0  0
  1 14  1  6  0  0  0
  1 21  1  0  0  0  0
  1 13  1  0  0  0  0
  2 18  1  0  0  0  0
  4 11  2  0  0  0  0
  4  5  1  0  0  0  0
  5  9  2  0  0  0  0
  6 17  1  0  0  0  0
  6  7  2  0  0  0  0
  8 19  1  0  0  0  0
  8 22  1  0  0  0  0
  9  7  1  0  0  0  0
 11  6  1  0  0  0  0
 12 26  1  0  0  0  0
 13 23  1  0  0  0  0
 14 12  1  0  0  0  0
 15 32  1  0  0  0  0
 15 17  2  0  0  0  0
 16  2  1  0  0  0  0
 18 19  1  0  0  0  0
 19  3  1  0  0  0  0
 20 10  1  0  0  0  0
 21 10  1  0  0  0  0
 22 23  2  0  0  0  0
 22 11  1  0  0  0  0
 23 15  1  0  0  0  0
 24 36  1  6  0  0  0
 24 25  1  0  0  0  0
 24 16  1  0  0  0  0
 25 12  2  0  0  0  0
 26 20  1  0  0  0  0
 27 31  1  0  0  0  0
 28 31  2  0  0  0  0
 28 33  1  0  0  0  0
 29 32  1  0  0  0  0
 29 30  2  0  0  0  0
 30 28  1  0  0  0  0
 32 27  2  0  0  0  0
 33 35  1  0  0  0  0
 34 33  2  0  0  0  0
 37 36  1  0  0  0  0
 38 37  1  0  0  0  0
 40 39  1  6  0  0  0
 40 38  1  0  0  0  0
 41 42  1  6  0  0  0
 41 40  1  0  0  0  0
 41 45  1  0  0  0  0
 45 43  1  6  0  0  0
 45 47  1  0  0  0  0
 45 44  1  0  0  0  0
 46 48  1  0  0  0  0
 46 49  1  1  0  0  0
 47 51  1  6  0  0  0
 47 46  1  0  0  0  0
 47 48  1  0  0  0  0
 48 44  1  1  0  0  0
 49 50  1  0  0  0  0
 52 53  1  6  0  0  0
 52 51  1  0  0  0  0
 54 52  1  0  0  0  0
 55 54  1  0  0  0  0
M  END
>  <MODEL>
4

>  <REMARK>
 VINA RESULT:      -6.5      2.635      6.670
  Name = 
  12 active torsions:
  status: ('A' for Active; 'I' for Inactive)
    1  A    between atoms: C_1  and  O_30
    2  A    between atoms: C_1  and  C_53
    3  A    between atoms: C_6  and  C_14
    4  A    between atoms: C_6  and  C_20
    5  A    between atoms: C_8  and  C_22
    6  A    between atoms: C_8  and  C_43
    7  A    between atoms: C_10  and  C_32
    8  A    between atoms: N_11  and  C_29
    9  A    between atoms: C_20  and  C_22
   10  A    between atoms: C_33  and  C_52
   11  A    between atoms: C_38  and  C_53
   12  A    between atoms: C_43  and  C_51
                            x       y       z     vdW  Elec       q    Type
                         _______ _______ _______ _____ _____    ______ ____

>  <TORSDO>
F 12

$$$$
=
 OpenBabel11052419253D

 55 61  0  0  1  0  0  0  0  0999 V2000
  191.8170  175.5570  143.1010 C   0  0  1  0  0  3  0  0  0  0  0  0
  189.8810  171.3060  142.3960 C   0  0  0  0  0  2  0  0  0  0  0  0
  193.0660  169.7050  143.3180 C   0  0  0  0  0  1  0  0  0  0  0  0
  195.7390  171.3900  143.1120 C   0  0  0  0  0  3  0  0  0  0  0  0
  197.0580  171.0280  143.4020 C   0  0  0  0  0  3  0  0  0  0  0  0
  195.7460  172.9380  144.9840 C   0  0  0  0  0  0  0  0  0  0  0  0
  197.0660  172.5700  145.2700 C   0  0  0  0  0  3  0  0  0  0  0  0
  192.9220  171.9310  142.5990 C   0  0  0  0  0  2  0  0  0  0  0  0
  197.7180  171.6150  144.4840 C   0  0  0  0  0  3  0  0  0  0  0  0
  190.6380  177.0410  144.7240 N   0  0  0  0  0  2  0  0  0  0  0  0
  195.0580  172.3410  143.9020 C   0  0  0  0  0  0  0  0  0  0  0  0
  189.3300  175.4520  142.5370 C   0  0  0  0  0  0  0  0  0  0  0  0
  191.7460  174.2950  143.9750 C   0  0  0  0  0  2  0  0  0  0  0  0
  190.7410  175.5920  142.0110 C   0  0  0  0  0  2  0  0  0  0  0  0
  193.7980  174.3040  145.4860 C   0  0  0  0  0  0  0  0  0  0  0  0
  190.2280  172.6130  142.0520 O   0  0  0  0  0  0  0  0  0  0  0  0
  195.1050  173.9010  145.7710 C   0  0  0  0  0  3  0  0  0  0  0  0
  191.1310  170.4340  142.2780 C   0  0  0  0  0  2  0  0  0  0  0  0
  192.1710  170.8430  143.2230 N   0  0  0  0  0  0  0  0  0  0  0  0
  189.6170  177.6050  143.8530 C   0  0  0  0  0  2  0  0  0  0  0  0
  191.8460  176.8610  143.9190 C   0  0  0  0  0  2  0  0  0  0  0  0
  193.7220  172.7030  143.6270 C   0  0  0  0  0  0  0  0  0  0  0  0
  193.1090  173.7600  144.3740 C   0  0  0  0  0  0  0  0  0  0  0  0
  189.1090  173.1910  141.4380 C   0  0  1  0  0  3  0  0  0  0  0  0
  188.6120  174.3630  142.2510 C   0  0  0  0  0  3  0  0  0  0  0  0
  188.6660  176.5030  143.3930 C   0  0  0  0  0  2  0  0  0  0  0  0
  193.6920  176.5140  146.6440 C   0  0  0  0  0  3  0  0  0  0  0  0
  191.8860  177.0630  148.1760 C   0  0  0  0  0  0  0  0  0  0  0  0
  191.9380  174.8970  147.0600 C   0  0  0  0  0  3  0  0  0  0  0  0
  191.3230  175.7960  147.9500 C   0  0  0  0  0  3  0  0  0  0  0  0
  193.0850  177.4050  147.5370 C   0  0  0  0  0  3  0  0  0  0  0  0
  193.1320  175.2450  146.4240 C   0  0  0  0  0  0  0  0  0  0  0  0
  191.2800  177.9920  149.1490 C   0  0  0  0  0  0  0  0  0  0  0  0
  190.1150  178.6680  148.7750 O   0  0  0  0  0  0  0  0  0  0  0  0
  191.5630  177.9240  150.3740 O   0  0  0  0  0  1  0  0  0  0  0  0
  189.4280  173.5900  139.9960 C   0  0  0  0  0  2  0  0  0  0  0  0
  190.2180  172.4660  139.3270 C   0  0  0  0  0  2  0  0  0  0  0  0
  191.6540  172.9280  139.1100 C   0  0  0  0  0  2  0  0  0  0  0  0
  191.8210  170.5980  138.5440 O   0  0  0  0  0  1  0  0  0  0  0  0
  192.5060  171.8170  138.4640 C   0  0  2  0  0  3  0  0  0  0  0  0
  193.8980  171.7430  139.1200 C   0  0  1  0  0  3  0  0  0  0  0  0
  194.2890  170.2950  139.4990 C   0  0  0  0  0  1  0  0  0  0  0  0
  194.7240  172.8550  137.1030 O   0  0  0  0  0  1  0  0  0  0  0  0
  196.3460  171.6390  138.2420 C   0  0  0  0  0  2  0  0  0  0  0  0
  195.0940  172.4640  138.4080 C   0  0  2  0  0  0  0  0  0  0  0  0
  197.2040  174.1270  138.4880 C   0  0  1  0  0  3  0  0  0  0  0  0
  195.9210  173.5660  139.1280 C   0  0  2  0  0  0  0  0  0  0  0  0
  197.1800  172.6810  138.9680 C   0  0  1  0  0  3  0  0  0  0  0  0
  197.1040  174.2400  137.0370 N   0  0  0  0  0  2  0  0  0  0  0  0
  196.9360  175.6500  136.7090 C   0  0  0  0  0  1  0  0  0  0  0  0
  195.6840  173.8330  140.6490 C   0  0  0  0  0  2  0  0  0  0  0  0
  196.4370  175.0360  141.3040 C   0  0  1  0  0  3  0  0  0  0  0  0
  195.3490  176.4300  141.8010 S   0  0  0  0  0  1  0  0  0  0  0  0
  197.3320  174.6550  142.3590 O   0  0  0  0  0  0  0  0  0  0  0  0
  197.6250  175.7950  143.1260 C   0  0  0  0  0  1  0  0  0  0  0  0
  1 14  1  6  0  0  0
  1 21  1  0  0  0  0
  1 13  1  0  0  0  0
  4  5  2  0  0  0  0
  4 11  1  0  0  0  0
  5  9  1  0  0  0  0
  6  7  1  0  0  0  0
  6 17  1  0  0  0  0
  8 19  1  0  0  0  0
  8 22  1  0  0  0  0
  9  7  2  0  0  0  0
 11  6  2  0  0  0  0
 12 26  1  0  0  0  0
 13 23  1  0  0  0  0
 14 12  1  0  0  0  0
 15 17  2  0  0  0  0
 15 32  1  0  0  0  0
 16  2  1  0  0  0  0
 18  2  1  0  0  0  0
 18 19  1  0  0  0  0
 19  3  1  0  0  0  0
 20 10  1  0  0  0  0
 21 10  1  0  0  0  0
 22 11  1  0  0  0  0
 22 23  2  0  0  0  0
 23 15  1  0  0  0  0
 24 36  1  6  0  0  0
 24 16  1  0  0  0  0
 24 25  1  0  0  0  0
 25 12  2  0  0  0  0
 26 20  1  0  0  0  0
 27 31  1  0  0  0  0
 28 33  1  0  0  0  0
 29 30  2  0  0  0  0
 30 28  1  0  0  0  0
 31 28  2  0  0  0  0
 32 27  2  0  0  0  0
 32 29  1  0  0  0  0
 33 35  1  0  0  0  0
 34 33  2  0  0  0  0
 37 36  1  0  0  0  0
 38 37  1  0  0  0  0
 40 39  1  1  0  0  0
 40 38  1  0  0  0  0
 40 41  1  0  0  0  0
 41 42  1  6  0  0  0
 44 45  1  0  0  0  0
 45 43  1  6  0  0  0
 45 41  1  0  0  0  0
 45 47  1  0  0  0  0
 46 49  1  6  0  0  0
 46 48  1  0  0  0  0
 46 47  1  0  0  0  0
 47 51  1  1  0  0  0
 48 44  1  6  0  0  0
 48 47  1  0  0  0  0
 50 49  1  0  0  0  0
 51 52  1  0  0  0  0
 52 53  1  1  0  0  0
 52 54  1  0  0  0  0
 54 55  1  0  0  0  0
M  END
>  <MODEL>
5

>  <REMARK>
 VINA RESULT:      -6.3      2.503      6.532
  Name = 
  12 active torsions:
  status: ('A' for Active; 'I' for Inactive)
    1  A    between atoms: C_1  and  O_30
    2  A    between atoms: C_1  and  C_53
    3  A    between atoms: C_6  and  C_14
    4  A    between atoms: C_6  and  C_20
    5  A    between atoms: C_8  and  C_22
    6  A    between atoms: C_8  and  C_43
    7  A    between atoms: C_10  and  C_32
    8  A    between atoms: N_11  and  C_29
    9  A    between atoms: C_20  and  C_22
   10  A    between atoms: C_33  and  C_52
   11  A    between atoms: C_38  and  C_53
   12  A    between atoms: C_43  and  C_51
                            x       y       z     vdW  Elec       q    Type
                         _______ _______ _______ _____ _____    ______ ____

>  <TORSDO>
F 12

$$$$
=
 OpenBabel11052419253D

 55 61  0  0  1  0  0  0  0  0999 V2000
  190.9740  174.7800  142.1470 C   0  0  1  0  0  3  0  0  0  0  0  0
  190.9980  170.0570  142.0410 C   0  0  0  0  0  2  0  0  0  0  0  0
  193.9360  170.0230  144.2600 C   0  0  0  0  0  1  0  0  0  0  0  0
  195.7540  172.6110  144.4270 C   0  0  0  0  0  3  0  0  0  0  0  0
  196.9050  172.8570  145.1830 C   0  0  0  0  0  3  0  0  0  0  0  0
  194.5340  174.2510  145.7380 C   0  0  0  0  0  0  0  0  0  0  0  0
  195.6880  174.4920  146.4920 C   0  0  0  0  0  3  0  0  0  0  0  0
  193.3360  171.8870  142.9710 C   0  0  0  0  0  2  0  0  0  0  0  0
  196.8690  173.7940  146.2180 C   0  0  0  0  0  3  0  0  0  0  0  0
  188.8460  175.8470  142.8930 N   0  0  0  0  0  2  0  0  0  0  0  0
  194.5490  173.2930  144.6980 C   0  0  0  0  0  0  0  0  0  0  0  0
  189.0760  173.5990  140.9150 C   0  0  0  0  0  0  0  0  0  0  0  0
  191.0070  173.7200  143.2600 C   0  0  0  0  0  2  0  0  0  0  0  0
  190.4460  174.2350  140.8170 C   0  0  0  0  0  2  0  0  0  0  0  0
  192.2040  174.7560  145.2570 C   0  0  0  0  0  0  0  0  0  0  0  0
  190.9880  171.3360  141.4850 O   0  0  0  0  0  0  0  0  0  0  0  0
  193.3600  174.9600  146.0160 C   0  0  0  0  0  3  0  0  0  0  0  0
  192.4140  169.7620  142.5360 C   0  0  0  0  0  2  0  0  0  0  0  0
  192.8180  170.6760  143.6060 N   0  0  0  0  0  0  0  0  0  0  0  0
  188.1040  175.8300  141.6410 C   0  0  0  0  0  2  0  0  0  0  0  0
  190.2530  176.0740  142.5630 C   0  0  0  0  0  2  0  0  0  0  0  0
  193.3780  173.0410  143.9500 C   0  0  0  0  0  0  0  0  0  0  0  0
  192.2120  173.8420  144.1740 C   0  0  0  0  0  0  0  0  0  0  0  0
  190.0600  171.3250  140.4360 C   0  0  1  0  0  3  0  0  0  0  0  0
  188.9310  172.2850  140.7240 C   0  0  0  0  0  3  0  0  0  0  0  0
  187.8280  174.3880  141.2240 C   0  0  0  0  0  2  0  0  0  0  0  0
  189.8750  174.7070  146.1560 C   0  0  0  0  0  3  0  0  0  0  0  0
  188.5940  176.7480  146.4840 C   0  0  0  0  0  0  0  0  0  0  0  0
  190.8690  176.8480  145.6160 C   0  0  0  0  0  3  0  0  0  0  0  0
  189.6820  177.4950  146.0050 C   0  0  0  0  0  3  0  0  0  0  0  0
  188.6900  175.3510  146.5340 C   0  0  0  0  0  3  0  0  0  0  0  0
  190.9600  175.4550  145.6700 C   0  0  0  0  0  0  0  0  0  0  0  0
  187.3260  177.4100  146.8420 C   0  0  0  0  0  0  0  0  0  0  0  0
  186.1310  176.7890  146.4700 O   0  0  0  0  0  0  0  0  0  0  0  0
  187.2840  178.2890  147.7430 O   0  0  0  0  0  1  0  0  0  0  0  0
  190.7460  171.6330  139.1030 C   0  0  0  0  0  2  0  0  0  0  0  0
  189.9140  171.0500  137.9620 C   0  0  0  0  0  2  0  0  0  0  0  0
  189.9520  172.0100  136.7780 C   0  0  0  0  0  2  0  0  0  0  0  0
  189.3190  174.2560  137.3510 O   0  0  0  0  0  1  0  0  0  0  0  0
  190.4260  173.4120  137.2110 C   0  0  2  0  0  3  0  0  0  0  0  0
  191.4600  173.9710  136.2150 C   0  0  1  0  0  3  0  0  0  0  0  0
  190.8200  174.9420  135.1940 C   0  0  0  0  0  1  0  0  0  0  0  0
  192.7780  174.5410  138.1950 O   0  0  0  0  0  1  0  0  0  0  0  0
  193.0640  176.0100  136.4150 C   0  0  0  0  0  2  0  0  0  0  0  0
  192.7900  174.5740  136.7840 C   0  0  2  0  0  0  0  0  0  0  0  0
  195.4540  174.9040  136.6470 C   0  0  1  0  0  3  0  0  0  0  0  0
  194.1760  174.1660  136.2090 C   0  0  2  0  0  0  0  0  0  0  0  0
  194.4120  175.6450  135.8170 C   0  0  1  0  0  3  0  0  0  0  0  0
  195.4260  175.2860  138.0550 N   0  0  0  0  0  2  0  0  0  0  0  0
  196.4460  174.5090  138.7480 C   0  0  0  0  0  1  0  0  0  0  0  0
  194.2430  173.2880  134.9190 C   0  0  0  0  0  2  0  0  0  0  0  0
  194.3910  171.7420  135.0970 C   0  0  1  0  0  3  0  0  0  0  0  0
  195.3020  171.2370  136.6090 S   0  0  0  0  0  1  0  0  0  0  0  0
  193.1580  171.0220  134.9510 O   0  0  0  0  0  0  0  0  0  0  0  0
  193.0090  170.1690  136.0580 C   0  0  0  0  0  1  0  0  0  0  0  0
  1 14  1  6  0  0  0
  1 21  1  0  0  0  0
  1 13  1  0  0  0  0
  2 18  1  0  0  0  0
  4 11  2  0  0  0  0
  4  5  1  0  0  0  0
  5  9  2  0  0  0  0
  6 17  1  0  0  0  0
  6  7  2  0  0  0  0
  8 19  1  0  0  0  0
  8 22  1  0  0  0  0
  9  7  1  0  0  0  0
 11  6  1  0  0  0  0
 12 26  1  0  0  0  0
 13 23  1  0  0  0  0
 14 12  1  0  0  0  0
 15 32  1  0  0  0  0
 15 17  2  0  0  0  0
 16  2  1  0  0  0  0
 18 19  1  0  0  0  0
 19  3  1  0  0  0  0
 20 10  1  0  0  0  0
 21 10  1  0  0  0  0
 22 23  2  0  0  0  0
 22 11  1  0  0  0  0
 23 15  1  0  0  0  0
 24 36  1  6  0  0  0
 24 25  1  0  0  0  0
 24 16  1  0  0  0  0
 25 12  2  0  0  0  0
 26 20  1  0  0  0  0
 27 31  1  0  0  0  0
 28 31  2  0  0  0  0
 28 33  1  0  0  0  0
 29 32  1  0  0  0  0
 29 30  2  0  0  0  0
 30 28  1  0  0  0  0
 32 27  2  0  0  0  0
 33 35  1  0  0  0  0
 34 33  2  0  0  0  0
 37 36  1  0  0  0  0
 38 40  1  0  0  0  0
 38 37  1  0  0  0  0
 40 39  1  6  0  0  0
 41 42  1  1  0  0  0
 41 45  1  0  0  0  0
 41 40  1  0  0  0  0
 44 45  1  0  0  0  0
 45 43  1  1  0  0  0
 46 49  1  1  0  0  0
 47 51  1  6  0  0  0
 47 46  1  0  0  0  0
 47 45  1  0  0  0  0
 48 47  1  0  0  0  0
 48 44  1  1  0  0  0
 48 46  1  0  0  0  0
 49 50  1  0  0  0  0
 51 52  1  0  0  0  0
 52 53  1  1  0  0  0
 54 52  1  0  0  0  0
 54 55  1  0  0  0  0
M  END
>  <MODEL>
6

>  <REMARK>
 VINA RESULT:      -6.3      2.721      6.976
  Name = 
  12 active torsions:
  status: ('A' for Active; 'I' for Inactive)
    1  A    between atoms: C_1  and  O_30
    2  A    between atoms: C_1  and  C_53
    3  A    between atoms: C_6  and  C_14
    4  A    between atoms: C_6  and  C_20
    5  A    between atoms: C_8  and  C_22
    6  A    between atoms: C_8  and  C_43
    7  A    between atoms: C_10  and  C_32
    8  A    between atoms: N_11  and  C_29
    9  A    between atoms: C_20  and  C_22
   10  A    between atoms: C_33  and  C_52
   11  A    between atoms: C_38  and  C_53
   12  A    between atoms: C_43  and  C_51
                            x       y       z     vdW  Elec       q    Type
                         _______ _______ _______ _____ _____    ______ ____

>  <TORSDO>
F 12

$$$$
=
 OpenBabel11052419253D

 55 61  0  0  1  0  0  0  0  0999 V2000
  194.2640  174.6310  141.8460 C   0  0  1  0  0  3  0  0  0  0  0  0
  196.2530  172.1160  145.3150 C   0  0  0  0  0  2  0  0  0  0  0  0
  194.3750  169.1400  144.2320 C   0  0  0  0  0  1  0  0  0  0  0  0
  191.7470  169.5350  142.5100 C   0  0  0  0  0  3  0  0  0  0  0  0
  190.8680  168.5880  141.9770 C   0  0  0  0  0  3  0  0  0  0  0  0
  192.4540  170.1500  140.2700 C   0  0  0  0  0  0  0  0  0  0  0  0
  191.5730  169.1990  139.7420 C   0  0  0  0  0  3  0  0  0  0  0  0
  193.7220  171.3240  143.6890 C   0  0  0  0  0  2  0  0  0  0  0  0
  190.7850  168.4180  140.5930 C   0  0  0  0  0  3  0  0  0  0  0  0
  195.8370  175.7670  140.2770 N   0  0  0  0  0  2  0  0  0  0  0  0
  192.5610  170.3230  141.6690 C   0  0  0  0  0  0  0  0  0  0  0  0
  196.0530  175.7630  143.2720 C   0  0  0  0  0  0  0  0  0  0  0  0
  195.0070  173.2860  141.8530 C   0  0  0  0  0  2  0  0  0  0  0  0
  194.5780  175.4950  143.0720 C   0  0  0  0  0  2  0  0  0  0  0  0
  194.0960  171.9070  139.9130 C   0  0  0  0  0  0  0  0  0  0  0  0
  195.5530  173.1940  144.7740 O   0  0  0  0  0  0  0  0  0  0  0  0
  193.2320  170.9330  139.4090 C   0  0  0  0  0  3  0  0  0  0  0  0
  195.3070  170.9180  145.3850 C   0  0  0  0  0  2  0  0  0  0  0  0
  194.8670  170.4930  144.0550 N   0  0  0  0  0  0  0  0  0  0  0  0
  196.1270  176.9720  141.0410 C   0  0  0  0  0  2  0  0  0  0  0  0
  194.4410  175.4150  140.5330 C   0  0  0  0  0  2  0  0  0  0  0  0
  193.4630  171.2720  142.1980 C   0  0  0  0  0  0  0  0  0  0  0  0
  194.1790  172.1370  141.3090 C   0  0  0  0  0  0  0  0  0  0  0  0
  196.0570  174.3580  145.3690 C   0  0  1  0  0  3  0  0  0  0  0  0
  196.6910  175.2470  144.3260 C   0  0  0  0  0  3  0  0  0  0  0  0
  196.8700  176.6040  142.3220 C   0  0  0  0  0  2  0  0  0  0  0  0
  194.4050  173.4470  137.9710 C   0  0  0  0  0  3  0  0  0  0  0  0
  196.6160  174.0250  137.1440 C   0  0  0  0  0  0  0  0  0  0  0  0
  196.3680  172.5290  139.0510 C   0  0  0  0  0  3  0  0  0  0  0  0
  197.1890  173.2110  138.1360 C   0  0  0  0  0  3  0  0  0  0  0  0
  195.2220  174.1190  137.0530 C   0  0  0  0  0  3  0  0  0  0  0  0
  194.9770  172.6280  138.9580 C   0  0  0  0  0  0  0  0  0  0  0  0
  197.4650  174.7010  136.1440 C   0  0  0  0  0  0  0  0  0  0  0  0
  197.9340  173.9490  135.0640 O   0  0  0  0  0  0  0  0  0  0  0  0
  197.4790  175.9560  136.0470 O   0  0  0  0  0  1  0  0  0  0  0  0
  194.9610  175.0840  146.1500 C   0  0  0  0  0  2  0  0  0  0  0  0
  193.6470  174.3200  146.0020 C   0  0  0  0  0  2  0  0  0  0  0  0
  192.5460  175.0750  146.7380 C   0  0  0  0  0  2  0  0  0  0  0  0
  190.8790  176.7100  146.1690 O   0  0  0  0  0  1  0  0  0  0  0  0
  191.4060  175.4740  145.7790 C   0  0  2  0  0  3  0  0  0  0  0  0
  190.3270  174.3750  145.7260 C   0  0  1  0  0  3  0  0  0  0  0  0
  189.0800  174.7390  146.5680 C   0  0  0  0  0  1  0  0  0  0  0  0
  189.4010  172.5060  144.4470 O   0  0  0  0  0  1  0  0  0  0  0  0
  190.9930  173.7460  143.2900 C   0  0  0  0  0  2  0  0  0  0  0  0
  189.8970  173.8220  144.3230 C   0  0  2  0  0  0  0  0  0  0  0  0
  188.7870  174.1930  141.9040 C   0  0  1  0  0  3  0  0  0  0  0  0
  189.0400  174.6730  143.3440 C   0  0  2  0  0  0  0  0  0  0  0  0
  190.1960  174.6000  142.3190 C   0  0  1  0  0  3  0  0  0  0  0  0
  188.6220  172.7460  141.8150 N   0  0  0  0  0  2  0  0  0  0  0  0
  189.3470  172.2860  140.6380 C   0  0  0  0  0  1  0  0  0  0  0  0
  188.7570  176.1730  143.6770 C   0  0  0  0  0  2  0  0  0  0  0  0
  187.2990  176.7000  143.4860 C   0  0  1  0  0  3  0  0  0  0  0  0
  186.4640  177.2000  145.0440 S   0  0  0  0  0  1  0  0  0  0  0  0
  187.1730  177.7030  142.4680 O   0  0  0  0  0  0  0  0  0  0  0  0
  186.3220  178.7150  142.9430 C   0  0  0  0  0  1  0  0  0  0  0  0
  1 21  1  6  0  0  0
  1 13  1  0  0  0  0
  1 14  1  0  0  0  0
  2 18  1  0  0  0  0
  5  4  1  0  0  0  0
  6 11  1  0  0  0  0
  7  6  2  0  0  0  0
  7  9  1  0  0  0  0
  8 19  1  0  0  0  0
  9  5  2  0  0  0  0
 10 21  1  0  0  0  0
 10 20  1  0  0  0  0
 11 22  1  0  0  0  0
 11  4  2  0  0  0  0
 12 25  2  0  0  0  0
 14 12  1  0  0  0  0
 15 23  1  0  0  0  0
 16  2  1  0  0  0  0
 16 24  1  0  0  0  0
 17 15  2  0  0  0  0
 17  6  1  0  0  0  0
 19  3  1  0  0  0  0
 19 18  1  0  0  0  0
 20 26  1  0  0  0  0
 22  8  1  0  0  0  0
 23 13  1  0  0  0  0
 23 22  2  0  0  0  0
 24 36  1  6  0  0  0
 25 24  1  0  0  0  0
 26 12  1  0  0  0  0
 27 32  1  0  0  0  0
 28 30  2  0  0  0  0
 30 29  1  0  0  0  0
 31 28  1  0  0  0  0
 31 27  2  0  0  0  0
 32 29  2  0  0  0  0
 32 15  1  0  0  0  0
 33 28  1  0  0  0  0
 34 33  2  0  0  0  0
 35 33  1  0  0  0  0
 37 36  1  0  0  0  0
 37 38  1  0  0  0  0
 40 39  1  1  0  0  0
 40 38  1  0  0  0  0
 41 40  1  0  0  0  0
 41 42  1  6  0  0  0
 44 45  1  0  0  0  0
 45 43  1  1  0  0  0
 45 41  1  0  0  0  0
 46 49  1  1  0  0  0
 46 48  1  0  0  0  0
 46 47  1  0  0  0  0
 47 51  1  1  0  0  0
 47 45  1  0  0  0  0
 48 44  1  1  0  0  0
 48 47  1  0  0  0  0
 50 49  1  0  0  0  0
 52 51  1  0  0  0  0
 52 53  1  1  0  0  0
 54 55  1  0  0  0  0
 54 52  1  0  0  0  0
M  END
>  <MODEL>
7

>  <REMARK>
 VINA RESULT:      -6.2      3.049      7.602
  Name = 
  12 active torsions:
  status: ('A' for Active; 'I' for Inactive)
    1  A    between atoms: C_1  and  O_30
    2  A    between atoms: C_1  and  C_53
    3  A    between atoms: C_6  and  C_14
    4  A    between atoms: C_6  and  C_20
    5  A    between atoms: C_8  and  C_22
    6  A    between atoms: C_8  and  C_43
    7  A    between atoms: C_10  and  C_32
    8  A    between atoms: N_11  and  C_29
    9  A    between atoms: C_20  and  C_22
   10  A    between atoms: C_33  and  C_52
   11  A    between atoms: C_38  and  C_53
   12  A    between atoms: C_43  and  C_51
                            x       y       z     vdW  Elec       q    Type
                         _______ _______ _______ _____ _____    ______ ____

>  <TORSDO>
F 12

$$$$
=
 OpenBabel11052419253D

 55 61  0  0  1  0  0  0  0  0999 V2000
  194.5040  175.2710  141.5260 C   0  0  1  0  0  3  0  0  0  0  0  0
  194.2370  171.3610  144.1640 C   0  0  0  0  0  2  0  0  0  0  0  0
  191.0300  170.5060  142.5700 C   0  0  0  0  0  1  0  0  0  0  0  0
  189.3490  172.8070  141.1880 C   0  0  0  0  0  3  0  0  0  0  0  0
  188.1230  172.7510  140.5200 C   0  0  0  0  0  3  0  0  0  0  0  0
  190.4700  173.3480  139.1030 C   0  0  0  0  0  0  0  0  0  0  0  0
  189.2390  173.2880  138.4380 C   0  0  0  0  0  3  0  0  0  0  0  0
  191.8990  172.6830  142.5950 C   0  0  0  0  0  2  0  0  0  0  0  0
  188.0700  172.9870  139.1440 C   0  0  0  0  0  3  0  0  0  0  0  0
  196.5670  175.5230  140.1460 N   0  0  0  0  0  2  0  0  0  0  0  0
  190.5420  173.0960  140.4920 C   0  0  0  0  0  0  0  0  0  0  0  0
  196.4830  174.7070  143.0350 C   0  0  0  0  0  0  0  0  0  0  0  0
  194.2630  173.7960  141.1680 C   0  0  0  0  0  2  0  0  0  0  0  0
  195.1760  175.4550  142.8900 C   0  0  0  0  0  2  0  0  0  0  0  0
  192.8670  173.7520  139.0370 C   0  0  0  0  0  0  0  0  0  0  0  0
  194.3910  172.7290  143.9390 O   0  0  0  0  0  0  0  0  0  0  0  0
  191.6330  173.6590  138.3890 C   0  0  0  0  0  3  0  0  0  0  0  0
  192.7540  171.0190  144.0270 C   0  0  0  0  0  2  0  0  0  0  0  0
  192.2600  171.2680  142.6720 N   0  0  0  0  0  0  0  0  0  0  0  0
  197.4680  176.0830  141.1420 C   0  0  0  0  0  2  0  0  0  0  0  0
  195.2320  176.0540  140.4190 C   0  0  0  0  0  2  0  0  0  0  0  0
  191.7870  173.1410  141.1550 C   0  0  0  0  0  0  0  0  0  0  0  0
  192.9550  173.5580  140.4380 C   0  0  0  0  0  0  0  0  0  0  0  0
  195.4500  173.1650  144.7460 C   0  0  1  0  0  3  0  0  0  0  0  0
  196.5810  173.6860  143.8910 C   0  0  0  0  0  3  0  0  0  0  0  0
  197.7200  175.0590  142.2450 C   0  0  0  0  0  2  0  0  0  0  0  0
  194.1990  175.1540  137.4570 C   0  0  0  0  0  3  0  0  0  0  0  0
  196.3760  174.4380  136.6460 C   0  0  0  0  0  0  0  0  0  0  0  0
  195.1200  173.0400  138.1980 C   0  0  0  0  0  3  0  0  0  0  0  0
  196.2600  173.2610  137.4040 C   0  0  0  0  0  3  0  0  0  0  0  0
  195.3300  175.3690  136.6600 C   0  0  0  0  0  3  0  0  0  0  0  0
  194.0800  173.9740  138.2090 C   0  0  0  0  0  0  0  0  0  0  0  0
  197.5410  174.6550  135.7670 C   0  0  0  0  0  0  0  0  0  0  0  0
  197.9410  173.6060  134.9350 O   0  0  0  0  0  0  0  0  0  0  0  0
  197.9410  175.8170  135.4950 O   0  0  0  0  0  1  0  0  0  0  0  0
  194.9670  174.2100  145.7540 C   0  0  0  0  0  2  0  0  0  0  0  0
  193.4400  174.2450  145.7490 C   0  0  0  0  0  2  0  0  0  0  0  0
  192.9750  175.6970  145.7850 C   0  0  0  0  0  2  0  0  0  0  0  0
  191.7050  175.7770  143.7470 O   0  0  0  0  0  1  0  0  0  0  0  0
  191.5840  175.8530  145.1390 C   0  0  2  0  0  3  0  0  0  0  0  0
  190.9160  177.1660  145.5920 C   0  0  1  0  0  3  0  0  0  0  0  0
  190.9350  178.2440  144.4810 C   0  0  0  0  0  1  0  0  0  0  0  0
  189.4140  177.9890  147.3380 O   0  0  0  0  0  1  0  0  0  0  0  0
  189.1150  175.7430  146.8180 C   0  0  0  0  0  2  0  0  0  0  0  0
  189.4980  177.0880  146.2550 C   0  0  2  0  0  0  0  0  0  0  0  0
  186.8310  176.8280  146.0470 C   0  0  1  0  0  3  0  0  0  0  0  0
  188.2010  177.0940  145.3980 C   0  0  2  0  0  0  0  0  0  0  0  0
  187.8530  175.7000  145.9730 C   0  0  1  0  0  3  0  0  0  0  0  0
  186.7230  177.4010  147.3840 N   0  0  0  0  0  2  0  0  0  0  0  0
  185.9560  178.6360  147.2800 C   0  0  0  0  0  1  0  0  0  0  0  0
  188.3080  176.9840  143.8430 C   0  0  0  0  0  2  0  0  0  0  0  0
  186.9840  176.8130  143.0310 C   0  0  1  0  0  3  0  0  0  0  0  0
  186.2750  178.3840  142.3980 S   0  0  0  0  0  1  0  0  0  0  0  0
  187.0570  175.8090  142.0080 O   0  0  0  0  0  0  0  0  0  0  0  0
  187.4040  176.4340  140.7980 C   0  0  0  0  0  1  0  0  0  0  0  0
  1 21  1  6  0  0  0
  1 14  1  0  0  0  0
  3 19  1  0  0  0  0
  5  4  1  0  0  0  0
  6 11  1  0  0  0  0
  7  6  2  0  0  0  0
  7  9  1  0  0  0  0
  8 19  1  0  0  0  0
  9  5  2  0  0  0  0
 10 21  1  0  0  0  0
 10 20  1  0  0  0  0
 11 22  1  0  0  0  0
 11  4  2  0  0  0  0
 12 25  2  0  0  0  0
 13  1  1  0  0  0  0
 14 12  1  0  0  0  0
 15 23  1  0  0  0  0
 16  2  1  0  0  0  0
 16 24  1  0  0  0  0
 17 15  2  0  0  0  0
 17  6  1  0  0  0  0
 18  2  1  0  0  0  0
 19 18  1  0  0  0  0
 20 26  1  0  0  0  0
 22  8  1  0  0  0  0
 23 22  2  0  0  0  0
 23 13  1  0  0  0  0
 24 36  1  1  0  0  0
 25 24  1  0  0  0  0
 26 12  1  0  0  0  0
 27 32  1  0  0  0  0
 28 31  1  0  0  0  0
 28 30  2  0  0  0  0
 29 32  2  0  0  0  0
 30 29  1  0  0  0  0
 31 27  2  0  0  0  0
 32 15  1  0  0  0  0
 33 28  1  0  0  0  0
 34 33  2  0  0  0  0
 35 33  1  0  0  0  0
 37 36  1  0  0  0  0
 37 38  1  0  0  0  0
 40 39  1  6  0  0  0
 40 41  1  0  0  0  0
 40 38  1  0  0  0  0
 41 42  1  6  0  0  0
 41 45  1  0  0  0  0
 45 44  1  0  0  0  0
 45 43  1  1  0  0  0
 46 49  1  1  0  0  0
 47 51  1  6  0  0  0
 47 48  1  0  0  0  0
 47 46  1  0  0  0  0
 47 45  1  0  0  0  0
 48 46  1  0  0  0  0
 48 44  1  1  0  0  0
 50 49  1  0  0  0  0
 52 53  1  6  0  0  0
 52 51  1  0  0  0  0
 54 52  1  0  0  0  0
 55 54  1  0  0  0  0
M  END
>  <MODEL>
8

>  <REMARK>
 VINA RESULT:      -6.1      3.135      8.011
  Name = 
  12 active torsions:
  status: ('A' for Active; 'I' for Inactive)
    1  A    between atoms: C_1  and  O_30
    2  A    between atoms: C_1  and  C_53
    3  A    between atoms: C_6  and  C_14
    4  A    between atoms: C_6  and  C_20
    5  A    between atoms: C_8  and  C_22
    6  A    between atoms: C_8  and  C_43
    7  A    between atoms: C_10  and  C_32
    8  A    between atoms: N_11  and  C_29
    9  A    between atoms: C_20  and  C_22
   10  A    between atoms: C_33  and  C_52
   11  A    between atoms: C_38  and  C_53
   12  A    between atoms: C_43  and  C_51
                            x       y       z     vdW  Elec       q    Type
                         _______ _______ _______ _____ _____    ______ ____

>  <TORSDO>
F 12

$$$$
=
 OpenBabel11052419253D

 55 61  0  0  1  0  0  0  0  0999 V2000
  194.0810  174.1500  141.3790 C   0  0  1  0  0  3  0  0  0  0  0  0
  190.9850  172.8250  144.6920 C   0  0  0  0  0  2  0  0  0  0  0  0
  188.3140  172.7430  142.1600 C   0  0  0  0  0  1  0  0  0  0  0  0
  188.6840  174.4080  139.4930 C   0  0  0  0  0  3  0  0  0  0  0  0
  187.8380  174.5420  138.3880 C   0  0  0  0  0  3  0  0  0  0  0  0
  190.2910  173.2060  138.1250 C   0  0  0  0  0  0  0  0  0  0  0  0
  189.4390  173.3420  137.0230 C   0  0  0  0  0  3  0  0  0  0  0  0
  190.2950  173.9630  141.8810 C   0  0  0  0  0  2  0  0  0  0  0  0
  188.2140  174.0040  137.1550 C   0  0  0  0  0  3  0  0  0  0  0  0
  196.0990  172.7050  141.1260 N   0  0  0  0  0  2  0  0  0  0  0  0
  189.9180  173.7310  139.3840 C   0  0  0  0  0  0  0  0  0  0  0  0
  194.9660  173.6860  143.7280 C   0  0  0  0  0  0  0  0  0  0  0  0
  193.0760  172.9900  141.4500 C   0  0  0  0  0  2  0  0  0  0  0  0
  194.4380  174.7190  142.7560 C   0  0  0  0  0  2  0  0  0  0  0  0
  192.3970  172.4280  139.0600 C   0  0  0  0  0  0  0  0  0  0  0  0
  191.9760  173.6340  144.1360 O   0  0  0  0  0  0  0  0  0  0  0  0
  191.5180  172.5490  137.9800 C   0  0  0  0  0  3  0  0  0  0  0  0
  189.6620  173.1460  143.9980 C   0  0  0  0  0  2  0  0  0  0  0  0
  189.7020  172.8190  142.5720 N   0  0  0  0  0  0  0  0  0  0  0  0
  196.9350  173.2530  142.1850 C   0  0  0  0  0  2  0  0  0  0  0  0
  195.3370  173.8150  140.5550 C   0  0  0  0  0  2  0  0  0  0  0  0
  190.7730  173.5780  140.4960 C   0  0  0  0  0  0  0  0  0  0  0  0
  192.0680  172.9950  140.3160 C   0  0  0  0  0  0  0  0  0  0  0  0
  192.8960  173.9230  145.1530 C   0  0  1  0  0  3  0  0  0  0  0  0
  194.2530  173.3570  144.8090 C   0  0  0  0  0  3  0  0  0  0  0  0
  196.2890  172.9860  143.5420 C   0  0  0  0  0  2  0  0  0  0  0  0
  194.6150  172.0620  137.9730 C   0  0  0  0  0  3  0  0  0  0  0  0
  195.9950  170.1350  138.5120 C   0  0  0  0  0  0  0  0  0  0  0  0
  193.8430  170.4540  139.6100 C   0  0  0  0  0  3  0  0  0  0  0  0
  195.0140  169.6990  139.4180 C   0  0  0  0  0  3  0  0  0  0  0  0
  195.7770  171.3060  137.7750 C   0  0  0  0  0  3  0  0  0  0  0  0
  193.6320  171.6230  138.8730 C   0  0  0  0  0  0  0  0  0  0  0  0
  197.2010  169.3230  138.2610 C   0  0  0  0  0  0  0  0  0  0  0  0
  197.7310  169.3130  136.9680 O   0  0  0  0  0  0  0  0  0  0  0  0
  197.9390  168.9480  139.2100 O   0  0  0  0  0  1  0  0  0  0  0  0
  192.9540  175.4280  145.4180 C   0  0  0  0  0  2  0  0  0  0  0  0
  192.4930  175.7060  146.8480 C   0  0  0  0  0  2  0  0  0  0  0  0
  191.0370  175.2760  146.9930 C   0  0  0  0  0  2  0  0  0  0  0  0
  190.2320  177.5060  147.3890 O   0  0  0  0  0  1  0  0  0  0  0  0
  190.0780  176.3980  146.5470 C   0  0  2  0  0  3  0  0  0  0  0  0
  188.6230  175.8920  146.5160 C   0  0  1  0  0  3  0  0  0  0  0  0
  188.2700  175.0510  147.7660 C   0  0  0  0  0  1  0  0  0  0  0  0
  187.4100  177.8900  147.2390 O   0  0  0  0  0  1  0  0  0  0  0  0
  186.0950  176.3480  146.1000 C   0  0  0  0  0  2  0  0  0  0  0  0
  187.4830  176.9240  146.2110 C   0  0  2  0  0  0  0  0  0  0  0  0
  186.0940  178.4280  144.4700 C   0  0  1  0  0  3  0  0  0  0  0  0
  187.3240  177.5660  144.8040 C   0  0  2  0  0  0  0  0  0  0  0  0
  185.9150  176.9340  144.7100 C   0  0  1  0  0  3  0  0  0  0  0  0
  185.6520  179.2370  145.6010 N   0  0  0  0  0  2  0  0  0  0  0  0
  184.2040  179.1040  145.7060 C   0  0  0  0  0  1  0  0  0  0  0  0
  188.1930  177.0380  143.6180 C   0  0  0  0  0  2  0  0  0  0  0  0
  189.1070  178.0610  142.8710 C   0  0  1  0  0  3  0  0  0  0  0  0
  190.9060  177.8090  143.1420 S   0  0  0  0  0  1  0  0  0  0  0  0
  188.7930  178.2110  141.4790 O   0  0  0  0  0  0  0  0  0  0  0  0
  187.6060  177.5070  141.2130 C   0  0  0  0  0  1  0  0  0  0  0  0
  1 21  1  1  0  0  0
  1 13  1  0  0  0  0
  1 14  1  0  0  0  0
  3 19  1  0  0  0  0
  5  4  2  0  0  0  0
  6 11  1  0  0  0  0
  7  9  2  0  0  0  0
  7  6  1  0  0  0  0
  8 19  1  0  0  0  0
  9  5  1  0  0  0  0
 10 20  1  0  0  0  0
 11  4  1  0  0  0  0
 11 22  2  0  0  0  0
 12 25  2  0  0  0  0
 14 12  1  0  0  0  0
 15 23  2  0  0  0  0
 16  2  1  0  0  0  0
 16 24  1  0  0  0  0
 17  6  2  0  0  0  0
 17 15  1  0  0  0  0
 18  2  1  0  0  0  0
 19 18  1  0  0  0  0
 20 26  1  0  0  0  0
 21 10  1  0  0  0  0
 22  8  1  0  0  0  0
 23 22  1  0  0  0  0
 23 13  1  0  0  0  0
 24 36  1  6  0  0  0
 25 24  1  0  0  0  0
 26 12  1  0  0  0  0
 27 32  1  0  0  0  0
 28 30  2  0  0  0  0
 30 29  1  0  0  0  0
 31 27  2  0  0  0  0
 31 28  1  0  0  0  0
 32 15  1  0  0  0  0
 32 29  2  0  0  0  0
 33 28  1  0  0  0  0
 33 35  1  0  0  0  0
 34 33  2  0  0  0  0
 36 37  1  0  0  0  0
 37 38  1  0  0  0  0
 40 38  1  0  0  0  0
 40 39  1  1  0  0  0
 41 40  1  0  0  0  0
 41 42  1  1  0  0  0
 44 45  1  0  0  0  0
 45 41  1  0  0  0  0
 45 43  1  1  0  0  0
 46 48  1  0  0  0  0
 46 47  1  0  0  0  0
 46 49  1  1  0  0  0
 47 51  1  6  0  0  0
 47 45  1  0  0  0  0
 48 47  1  0  0  0  0
 48 44  1  1  0  0  0
 49 50  1  0  0  0  0
 52 53  1  6  0  0  0
 52 51  1  0  0  0  0
 54 52  1  0  0  0  0
 55 54  1  0  0  0  0
M  END
>  <MODEL>
9

>  <REMARK>
 VINA RESULT:      -6.0      2.647      8.425
  Name = 
  12 active torsions:
  status: ('A' for Active; 'I' for Inactive)
    1  A    between atoms: C_1  and  O_30
    2  A    between atoms: C_1  and  C_53
    3  A    between atoms: C_6  and  C_14
    4  A    between atoms: C_6  and  C_20
    5  A    between atoms: C_8  and  C_22
    6  A    between atoms: C_8  and  C_43
    7  A    between atoms: C_10  and  C_32
    8  A    between atoms: N_11  and  C_29
    9  A    between atoms: C_20  and  C_22
   10  A    between atoms: C_33  and  C_52
   11  A    between atoms: C_38  and  C_53
   12  A    between atoms: C_43  and  C_51
                            x       y       z     vdW  Elec       q    Type
                         _______ _______ _______ _____ _____    ______ ____

>  <TORSDO>
F 12

$$$$
