=
 OpenBabel11052417333D

 25 29  0  0  0  0  0  0  0  0999 V2000
  186.3330  177.7930  143.8130 N   0  0  0  0  0  0  0  0  0  0  0  0
  185.6510  177.8330  142.6340 C   0  0  0  0  0  0  0  0  0  0  0  0
  188.4160  177.3380  142.7290 C   0  0  0  0  0  3  0  0  0  0  0  0
  185.9210  177.9580  145.0810 C   0  0  0  0  0  0  0  0  0  0  0  0
  185.5590  178.2210  147.8140 C   0  0  0  0  0  3  0  0  0  0  0  0
  187.7490  177.3710  141.4960 C   0  0  0  0  0  3  0  0  0  0  0  0
  186.9910  177.8260  145.9340 C   0  0  0  0  0  0  0  0  0  0  0  0
  186.8450  177.9510  147.3130 C   0  0  0  0  0  3  0  0  0  0  0  0
  185.6530  177.6590  140.2290 C   0  0  0  0  0  0  0  0  0  0  0  0
  186.3300  177.4420  138.9160 C   0  0  0  0  0  1  0  0  0  0  0  0
  184.3130  178.0720  142.5960 N   0  0  0  0  0  0  0  0  0  0  0  0
  184.4610  178.3570  146.9380 C   0  0  0  0  0  3  0  0  0  0  0  0
  187.6640  177.5570  143.8830 C   0  0  0  0  0  0  0  0  0  0  0  0
  188.1360  177.5660  145.1940 C   0  0  0  0  0  3  0  0  0  0  0  0
  184.3160  177.9030  140.2470 N   0  0  0  0  0  0  0  0  0  0  0  0
  184.6340  178.2250  145.5490 C   0  0  0  0  0  3  0  0  0  0  0  0
  183.6410  178.1080  141.4130 C   0  0  0  0  0  0  0  0  0  0  0  0
  186.3630  177.6170  141.4360 C   0  0  0  0  0  0  0  0  0  0  0  0
  180.0240  178.1560  140.3420 C   0  0  0  0  0  0  0  0  0  0  0  0
  182.1900  178.3700  141.3940 C   0  0  0  0  0  0  0  0  0  0  0  0
  181.3960  177.8980  140.3410 C   0  0  0  0  0  3  0  0  0  0  0  0
  179.2120  177.6810  139.2760 N   0  0  0  0  0  1  0  0  0  0  0  0
  181.5860  179.0930  142.4300 C   0  0  0  0  0  3  0  0  0  0  0  0
  179.4640  178.8620  141.3610 N   0  0  0  0  0  0  0  0  0  0  0  0
  180.2100  179.3310  142.3950 C   0  0  0  0  0  3  0  0  0  0  0  0
  1 13  1  0  0  0  0
  1  4  1  0  0  0  0
  2  1  1  0  0  0  0
  3 13  1  0  0  0  0
  4 16  2  0  0  0  0
  4  7  1  0  0  0  0
  6  3  2  0  0  0  0
  7  8  2  0  0  0  0
  8  5  1  0  0  0  0
  9 15  2  0  0  0  0
  9 18  1  0  0  0  0
 10  9  1  0  0  0  0
 11  2  1  0  0  0  0
 12  5  2  0  0  0  0
 13 14  2  0  0  0  0
 14  7  1  0  0  0  0
 15 17  1  0  0  0  0
 16 12  1  0  0  0  0
 17 11  2  0  0  0  0
 18  6  1  0  0  0  0
 18  2  2  0  0  0  0
 19 24  1  0  0  0  0
 20 17  1  0  0  0  0
 20 23  2  0  0  0  0
 21 19  2  0  0  0  0
 21 20  1  0  0  0  0
 22 19  1  0  0  0  0
 24 25  2  0  0  0  0
 25 23  1  0  0  0  0
M  END
>  <MODEL>
1

>  <REMARK>
 VINA RESULT:      -8.3      0.000      0.000
  Name = 
  1 active torsions:
  status: ('A' for Active; 'I' for Inactive)
    1  A    between atoms: C_6  and  C_23
                            x       y       z     vdW  Elec       q    Type
                         _______ _______ _______ _____ _____    ______ ____

>  <TORSDO>
F 1

$$$$
=
 OpenBabel11052417333D

 25 29  0  0  0  0  0  0  0  0999 V2000
  185.7490  178.0450  143.6880 N   0  0  0  0  0  0  0  0  0  0  0  0
  186.5140  177.9400  144.8100 C   0  0  0  0  0  0  0  0  0  0  0  0
  183.8260  178.7540  144.9190 C   0  0  0  0  0  3  0  0  0  0  0  0
  186.0370  177.8180  142.3960 C   0  0  0  0  0  0  0  0  0  0  0  0
  186.1500  177.4850  139.6480 C   0  0  0  0  0  3  0  0  0  0  0  0
  184.5790  178.6580  146.0980 C   0  0  0  0  0  3  0  0  0  0  0  0
  184.9260  178.0660  141.6250 C   0  0  0  0  0  0  0  0  0  0  0  0
  184.9470  177.9080  140.2410 C   0  0  0  0  0  3  0  0  0  0  0  0
  186.7210  178.1390  147.2050 C   0  0  0  0  0  0  0  0  0  0  0  0
  186.1800  178.4480  148.5610 C   0  0  0  0  0  1  0  0  0  0  0  0
  187.8130  177.5450  144.7510 N   0  0  0  0  0  0  0  0  0  0  0  0
  187.2910  177.2310  140.4400 C   0  0  0  0  0  3  0  0  0  0  0  0
  184.4540  178.4350  143.7160 C   0  0  0  0  0  0  0  0  0  0  0  0
  183.8810  178.4670  142.4460 C   0  0  0  0  0  3  0  0  0  0  0  0
  188.0160  177.7400  147.0890 N   0  0  0  0  0  0  0  0  0  0  0  0
  187.2440  177.3960  141.8340 C   0  0  0  0  0  3  0  0  0  0  0  0
  188.5670  177.4430  145.8790 C   0  0  0  0  0  0  0  0  0  0  0  0
  185.9280  178.2510  146.0560 C   0  0  0  0  0  0  0  0  0  0  0  0
  191.9690  176.5820  144.4930 C   0  0  0  0  0  0  0  0  0  0  0  0
  189.9750  177.0130  145.7910 C   0  0  0  0  0  0  0  0  0  0  0  0
  190.6360  176.9920  144.5550 C   0  0  0  0  0  3  0  0  0  0  0  0
  192.6460  176.5580  143.2420 N   0  0  0  0  0  1  0  0  0  0  0  0
  190.6710  176.6200  146.9410 C   0  0  0  0  0  3  0  0  0  0  0  0
  192.6200  176.2050  145.6260 N   0  0  0  0  0  0  0  0  0  0  0  0
  192.0040  176.2170  146.8370 C   0  0  0  0  0  3  0  0  0  0  0  0
  1 13  1  0  0  0  0
  1  2  1  0  0  0  0
  2 18  2  0  0  0  0
  3  6  2  0  0  0  0
  4  1  1  0  0  0  0
  5  8  2  0  0  0  0
  5 12  1  0  0  0  0
  7  4  2  0  0  0  0
  7 14  1  0  0  0  0
  8  7  1  0  0  0  0
  9 10  1  0  0  0  0
 11  2  1  0  0  0  0
 11 17  2  0  0  0  0
 12 16  2  0  0  0  0
 13  3  1  0  0  0  0
 14 13  2  0  0  0  0
 15  9  2  0  0  0  0
 16  4  1  0  0  0  0
 17 15  1  0  0  0  0
 18  6  1  0  0  0  0
 18  9  1  0  0  0  0
 19 21  2  0  0  0  0
 19 24  1  0  0  0  0
 20 17  1  0  0  0  0
 20 23  2  0  0  0  0
 21 20  1  0  0  0  0
 22 19  1  0  0  0  0
 24 25  2  0  0  0  0
 25 23  1  0  0  0  0
M  END
>  <MODEL>
2

>  <REMARK>
 VINA RESULT:      -8.2      2.778      8.095
  Name = 
  1 active torsions:
  status: ('A' for Active; 'I' for Inactive)
    1  A    between atoms: C_6  and  C_23
                            x       y       z     vdW  Elec       q    Type
                         _______ _______ _______ _____ _____    ______ ____

>  <TORSDO>
F 1

$$$$
=
 OpenBabel11052417333D

 25 29  0  0  0  0  0  0  0  0999 V2000
  185.7470  177.5860  143.8530 N   0  0  0  0  0  0  0  0  0  0  0  0
  186.4850  177.0480  142.8420 C   0  0  0  0  0  0  0  0  0  0  0  0
  184.2380  178.6600  142.3410 C   0  0  0  0  0  3  0  0  0  0  0  0
  185.8790  177.5010  145.1870 C   0  0  0  0  0  0  0  0  0  0  0  0
  185.7390  177.6220  147.9500 C   0  0  0  0  0  3  0  0  0  0  0  0
  184.9710  178.1250  141.2720 C   0  0  0  0  0  3  0  0  0  0  0  0
  184.8810  178.2240  145.7960 C   0  0  0  0  0  0  0  0  0  0  0  0
  184.7800  178.3060  147.1820 C   0  0  0  0  0  3  0  0  0  0  0  0
  186.8640  176.7590  140.4780 C   0  0  0  0  0  0  0  0  0  0  0  0
  186.5260  176.9910  139.0430 C   0  0  0  0  0  1  0  0  0  0  0  0
  187.5710  176.2690  143.0910 N   0  0  0  0  0  0  0  0  0  0  0  0
  186.7640  176.8800  147.3250 C   0  0  0  0  0  3  0  0  0  0  0  0
  184.6630  178.3650  143.6360 C   0  0  0  0  0  0  0  0  0  0  0  0
  184.0730  178.7970  144.8230 C   0  0  0  0  0  3  0  0  0  0  0  0
  187.9410  175.9860  140.7820 N   0  0  0  0  0  0  0  0  0  0  0  0
  186.8440  176.8130  145.9240 C   0  0  0  0  0  3  0  0  0  0  0  0
  188.3010  175.7370  142.0730 C   0  0  0  0  0  0  0  0  0  0  0  0
  186.1000  177.3150  141.5110 C   0  0  0  0  0  0  0  0  0  0  0  0
  191.1360  174.0610  143.9130 C   0  0  0  0  0  0  0  0  0  0  0  0
  189.4750  174.8950  142.3660 C   0  0  0  0  0  0  0  0  0  0  0  0
  190.0250  174.8660  143.6550 C   0  0  0  0  0  3  0  0  0  0  0  0
  191.7000  174.0270  145.2170 N   0  0  0  0  0  1  0  0  0  0  0  0
  190.0570  174.1120  141.3610 C   0  0  0  0  0  3  0  0  0  0  0  0
  191.6820  173.3120  142.9170 N   0  0  0  0  0  0  0  0  0  0  0  0
  191.1690  173.3210  141.6580 C   0  0  0  0  0  3  0  0  0  0  0  0
  1  4  1  0  0  0  0
  2 11  1  0  0  0  0
  2  1  1  0  0  0  0
  3 13  1  0  0  0  0
  4  7  2  0  0  0  0
  4 16  1  0  0  0  0
  6 18  1  0  0  0  0
  6  3  2  0  0  0  0
  7  8  1  0  0  0  0
  8  5  2  0  0  0  0
  9 15  2  0  0  0  0
  9 18  1  0  0  0  0
 10  9  1  0  0  0  0
 12  5  1  0  0  0  0
 13  1  1  0  0  0  0
 13 14  2  0  0  0  0
 14  7  1  0  0  0  0
 15 17  1  0  0  0  0
 16 12  2  0  0  0  0
 17 20  1  0  0  0  0
 17 11  2  0  0  0  0
 18  2  2  0  0  0  0
 19 22  1  0  0  0  0
 20 21  2  0  0  0  0
 21 19  1  0  0  0  0
 23 25  2  0  0  0  0
 23 20  1  0  0  0  0
 24 19  2  0  0  0  0
 25 24  1  0  0  0  0
M  END
>  <MODEL>
3

>  <REMARK>
 VINA RESULT:      -8.0      2.919      6.629
  Name = 
  1 active torsions:
  status: ('A' for Active; 'I' for Inactive)
    1  A    between atoms: C_6  and  C_23
                            x       y       z     vdW  Elec       q    Type
                         _______ _______ _______ _____ _____    ______ ____

>  <TORSDO>
F 1

$$$$
=
 OpenBabel11052417333D

 25 29  0  0  0  0  0  0  0  0999 V2000
  186.8630  177.2010  144.8470 N   0  0  0  0  0  0  0  0  0  0  0  0
  187.9100  176.3690  144.5870 C   0  0  0  0  0  0  0  0  0  0  0  0
  187.5580  177.5660  147.1060 C   0  0  0  0  0  3  0  0  0  0  0  0
  185.8490  177.6180  144.0710 C   0  0  0  0  0  0  0  0  0  0  0  0
  183.6130  178.7380  142.8810 C   0  0  0  0  0  3  0  0  0  0  0  0
  188.6500  176.7150  146.8780 C   0  0  0  0  0  3  0  0  0  0  0  0
  185.0340  178.4610  144.7890 C   0  0  0  0  0  0  0  0  0  0  0  0
  183.9020  179.0410  144.2230 C   0  0  0  0  0  3  0  0  0  0  0  0
  189.9090  175.2520  145.3440 C   0  0  0  0  0  0  0  0  0  0  0  0
  190.9340  174.9240  146.3780 C   0  0  0  0  0  1  0  0  0  0  0  0
  188.0740  175.7930  143.3670 N   0  0  0  0  0  0  0  0  0  0  0  0
  184.4500  177.8730  142.1430 C   0  0  0  0  0  3  0  0  0  0  0  0
  186.6740  177.7880  146.0520 C   0  0  0  0  0  0  0  0  0  0  0  0
  185.5370  178.5940  146.0760 C   0  0  0  0  0  3  0  0  0  0  0  0
  190.0260  174.7030  144.1050 N   0  0  0  0  0  0  0  0  0  0  0  0
  185.5870  177.2990  142.7380 C   0  0  0  0  0  3  0  0  0  0  0  0
  189.1230  174.9630  143.1190 C   0  0  0  0  0  0  0  0  0  0  0  0
  188.8360  176.1090  145.6200 C   0  0  0  0  0  0  0  0  0  0  0  0
  188.6370  174.1600  139.4640 C   0  0  0  0  0  0  0  0  0  0  0  0
  189.2820  174.3500  141.7870 C   0  0  0  0  0  0  0  0  0  0  0  0
  188.4710  174.7530  140.7180 C   0  0  0  0  0  3  0  0  0  0  0  0
  187.8170  174.5630  138.3750 N   0  0  0  0  0  1  0  0  0  0  0  0
  190.2450  173.3560  141.5730 C   0  0  0  0  0  3  0  0  0  0  0  0
  189.5800  173.1970  139.2850 N   0  0  0  0  0  0  0  0  0  0  0  0
  190.3810  172.7870  140.3050 C   0  0  0  0  0  3  0  0  0  0  0  0
  1 13  1  0  0  0  0
  2  1  1  0  0  0  0
  2 18  2  0  0  0  0
  4  7  1  0  0  0  0
  4  1  1  0  0  0  0
  5  8  1  0  0  0  0
  6  3  2  0  0  0  0
  7 14  1  0  0  0  0
  8  7  2  0  0  0  0
  9 18  1  0  0  0  0
  9 10  1  0  0  0  0
 11  2  1  0  0  0  0
 12 16  1  0  0  0  0
 12  5  2  0  0  0  0
 13 14  2  0  0  0  0
 13  3  1  0  0  0  0
 15  9  2  0  0  0  0
 16  4  2  0  0  0  0
 17 11  2  0  0  0  0
 17 15  1  0  0  0  0
 18  6  1  0  0  0  0
 19 21  1  0  0  0  0
 20 17  1  0  0  0  0
 21 20  2  0  0  0  0
 22 19  1  0  0  0  0
 23 20  1  0  0  0  0
 24 19  2  0  0  0  0
 24 25  1  0  0  0  0
 25 23  2  0  0  0  0
M  END
>  <MODEL>
4

>  <REMARK>
 VINA RESULT:      -7.7      3.427      6.766
  Name = 
  1 active torsions:
  status: ('A' for Active; 'I' for Inactive)
    1  A    between atoms: C_6  and  C_23
                            x       y       z     vdW  Elec       q    Type
                         _______ _______ _______ _____ _____    ______ ____

>  <TORSDO>
F 1

$$$$
=
 OpenBabel11052417333D

 25 29  0  0  0  0  0  0  0  0999 V2000
  189.0740  175.2850  144.6590 N   0  0  0  0  0  0  0  0  0  0  0  0
  187.9710  176.0780  144.7630 C   0  0  0  0  0  0  0  0  0  0  0  0
  189.4480  175.2900  147.0200 C   0  0  0  0  0  3  0  0  0  0  0  0
  189.6720  174.7370  143.5880 C   0  0  0  0  0  0  0  0  0  0  0  0
  191.2320  173.4140  141.7200 C   0  0  0  0  0  3  0  0  0  0  0  0
  188.3190  176.1090  147.1690 C   0  0  0  0  0  3  0  0  0  0  0  0
  190.7650  174.0080  143.9940 C   0  0  0  0  0  0  0  0  0  0  0  0
  191.5710  173.3310  143.0820 C   0  0  0  0  0  3  0  0  0  0  0  0
  186.4370  177.3270  146.1420 C   0  0  0  0  0  0  0  0  0  0  0  0
  185.9450  177.8280  147.4590 C   0  0  0  0  0  1  0  0  0  0  0  0
  187.2610  176.4560  143.6660 N   0  0  0  0  0  0  0  0  0  0  0  0
  190.1100  174.1630  141.3040 C   0  0  0  0  0  3  0  0  0  0  0  0
  189.8000  174.8930  145.7310 C   0  0  0  0  0  0  0  0  0  0  0  0
  190.8790  174.0860  145.3750 C   0  0  0  0  0  3  0  0  0  0  0  0
  185.7630  177.6750  145.0140 N   0  0  0  0  0  0  0  0  0  0  0  0
  189.3120  174.8380  142.2430 C   0  0  0  0  0  3  0  0  0  0  0  0
  186.1620  177.2500  143.7820 C   0  0  0  0  0  0  0  0  0  0  0  0
  187.5710  176.5100  146.0450 C   0  0  0  0  0  0  0  0  0  0  0  0
  183.3330  178.2670  141.5030 C   0  0  0  0  0  0  0  0  0  0  0  0
  185.4070  177.6480  142.5790 C   0  0  0  0  0  0  0  0  0  0  0  0
  184.0300  177.8910  142.6530 C   0  0  0  0  0  3  0  0  0  0  0  0
  181.9340  178.5150  141.5700 N   0  0  0  0  0  1  0  0  0  0  0  0
  186.0570  177.7870  141.3460 C   0  0  0  0  0  3  0  0  0  0  0  0
  183.9890  178.3940  140.3190 N   0  0  0  0  0  0  0  0  0  0  0  0
  185.3250  178.1640  140.2190 C   0  0  0  0  0  3  0  0  0  0  0  0
  1  2  1  0  0  0  0
  1 13  1  0  0  0  0
  2 18  2  0  0  0  0
  3  6  2  0  0  0  0
  4  7  1  0  0  0  0
  4  1  1  0  0  0  0
  5  8  1  0  0  0  0
  7 14  1  0  0  0  0
  8  7  2  0  0  0  0
  9 10  1  0  0  0  0
 11 17  2  0  0  0  0
 11  2  1  0  0  0  0
 12  5  2  0  0  0  0
 12 16  1  0  0  0  0
 13  3  1  0  0  0  0
 14 13  2  0  0  0  0
 15  9  2  0  0  0  0
 16  4  2  0  0  0  0
 17 15  1  0  0  0  0
 18  9  1  0  0  0  0
 18  6  1  0  0  0  0
 19 22  1  0  0  0  0
 19 21  1  0  0  0  0
 20 21  2  0  0  0  0
 20 17  1  0  0  0  0
 23 20  1  0  0  0  0
 24 19  2  0  0  0  0
 25 24  1  0  0  0  0
 25 23  2  0  0  0  0
M  END
>  <MODEL>
5

>  <REMARK>
 VINA RESULT:      -7.7      2.692      5.546
  Name = 
  1 active torsions:
  status: ('A' for Active; 'I' for Inactive)
    1  A    between atoms: C_6  and  C_23
                            x       y       z     vdW  Elec       q    Type
                         _______ _______ _______ _____ _____    ______ ____

>  <TORSDO>
F 1

$$$$
=
 OpenBabel11052417333D

 25 29  0  0  0  0  0  0  0  0999 V2000
  186.7510  176.9190  144.2230 N   0  0  0  0  0  0  0  0  0  0  0  0
  187.9330  176.2880  144.4710 C   0  0  0  0  0  0  0  0  0  0  0  0
  186.1990  177.0570  146.5450 C   0  0  0  0  0  3  0  0  0  0  0  0
  186.1730  177.2930  143.0700 C   0  0  0  0  0  0  0  0  0  0  0  0
  184.6100  178.2420  140.9890 C   0  0  0  0  0  3  0  0  0  0  0  0
  187.4060  176.4090  146.8430 C   0  0  0  0  0  3  0  0  0  0  0  0
  184.9700  177.9030  143.3340 C   0  0  0  0  0  0  0  0  0  0  0  0
  184.1590  178.3920  142.3130 C   0  0  0  0  0  3  0  0  0  0  0  0
  189.5000  175.3690  146.0580 C   0  0  0  0  0  0  0  0  0  0  0  0
  189.9470  175.0470  147.4450 C   0  0  0  0  0  1  0  0  0  0  0  0
  188.7670  175.9180  143.4640 N   0  0  0  0  0  0  0  0  0  0  0  0
  185.8460  177.6160  140.7180 C   0  0  0  0  0  3  0  0  0  0  0  0
  185.9010  177.2980  145.2040 C   0  0  0  0  0  0  0  0  0  0  0  0
  184.7600  177.9240  144.7060 C   0  0  0  0  0  3  0  0  0  0  0  0
  190.2970  175.0210  145.0130 N   0  0  0  0  0  0  0  0  0  0  0  0
  186.6460  177.1310  141.7660 C   0  0  0  0  0  3  0  0  0  0  0  0
  189.9450  175.2870  143.7240 C   0  0  0  0  0  0  0  0  0  0  0  0
  188.2830  176.0180  145.8110 C   0  0  0  0  0  0  0  0  0  0  0  0
  191.2220  173.7130  140.5420 C   0  0  0  0  0  0  0  0  0  0  0  0
  190.8340  174.8950  142.6150 C   0  0  0  0  0  0  0  0  0  0  0  0
  190.3640  174.0730  141.5830 C   0  0  0  0  0  3  0  0  0  0  0  0
  190.7520  172.8780  139.4920 N   0  0  0  0  0  1  0  0  0  0  0  0
  192.1620  175.3410  142.5780 C   0  0  0  0  0  3  0  0  0  0  0  0
  192.5070  174.1600  140.5320 N   0  0  0  0  0  0  0  0  0  0  0  0
  192.9890  174.9590  141.5200 C   0  0  0  0  0  3  0  0  0  0  0  0
  1  2  1  0  0  0  0
  1 13  1  0  0  0  0
  2 18  2  0  0  0  0
  3  6  2  0  0  0  0
  4  7  1  0  0  0  0
  4  1  1  0  0  0  0
  5  8  1  0  0  0  0
  7 14  1  0  0  0  0
  8  7  2  0  0  0  0
  9 10  1  0  0  0  0
 11 17  2  0  0  0  0
 11  2  1  0  0  0  0
 12  5  2  0  0  0  0
 12 16  1  0  0  0  0
 13  3  1  0  0  0  0
 14 13  2  0  0  0  0
 15  9  2  0  0  0  0
 16  4  2  0  0  0  0
 17 15  1  0  0  0  0
 18  9  1  0  0  0  0
 18  6  1  0  0  0  0
 19 21  1  0  0  0  0
 20 17  1  0  0  0  0
 21 20  2  0  0  0  0
 22 19  1  0  0  0  0
 23 20  1  0  0  0  0
 24 19  2  0  0  0  0
 24 25  1  0  0  0  0
 25 23  2  0  0  0  0
M  END
>  <MODEL>
6

>  <REMARK>
 VINA RESULT:      -7.7      3.489      7.844
  Name = 
  1 active torsions:
  status: ('A' for Active; 'I' for Inactive)
    1  A    between atoms: C_6  and  C_23
                            x       y       z     vdW  Elec       q    Type
                         _______ _______ _______ _____ _____    ______ ____

>  <TORSDO>
F 1

$$$$
=
 OpenBabel11052417333D

 25 29  0  0  0  0  0  0  0  0999 V2000
  190.7590  174.2860  144.4400 N   0  0  0  0  0  0  0  0  0  0  0  0
  190.2770  175.2190  145.3090 C   0  0  0  0  0  0  0  0  0  0  0  0
  192.8460  174.1150  145.5940 C   0  0  0  0  0  3  0  0  0  0  0  0
  190.2070  173.7170  143.3560 C   0  0  0  0  0  0  0  0  0  0  0  0
  189.5070  172.2910  141.0870 C   0  0  0  0  0  3  0  0  0  0  0  0
  192.3870  175.0730  146.5090 C   0  0  0  0  0  3  0  0  0  0  0  0
  191.0930  172.8230  142.8030 C   0  0  0  0  0  0  0  0  0  0  0  0
  190.7740  172.0890  141.6630 C   0  0  0  0  0  3  0  0  0  0  0  0
  190.5990  176.5940  147.2630 C   0  0  0  0  0  0  0  0  0  0  0  0
  191.4040  177.0880  148.4190 C   0  0  0  0  0  1  0  0  0  0  0  0
  189.0340  175.7490  145.1640 N   0  0  0  0  0  0  0  0  0  0  0  0
  188.5980  173.2090  141.6550 C   0  0  0  0  0  3  0  0  0  0  0  0
  191.9920  173.7410  144.5580 C   0  0  0  0  0  0  0  0  0  0  0  0
  192.2600  172.8110  143.5540 C   0  0  0  0  0  3  0  0  0  0  0  0
  189.3470  177.0920  147.0730 N   0  0  0  0  0  0  0  0  0  0  0  0
  188.9430  173.9380  142.8060 C   0  0  0  0  0  3  0  0  0  0  0  0
  188.5640  176.6810  146.0370 C   0  0  0  0  0  0  0  0  0  0  0  0
  191.1020  175.6340  146.3760 C   0  0  0  0  0  0  0  0  0  0  0  0
  185.6930  178.7790  144.7770 C   0  0  0  0  0  0  0  0  0  0  0  0
  187.2110  177.2430  145.8620 C   0  0  0  0  0  0  0  0  0  0  0  0
  186.9810  178.2620  144.9280 C   0  0  0  0  0  3  0  0  0  0  0  0
  185.4510  179.8140  143.8320 N   0  0  0  0  0  1  0  0  0  0  0  0
  186.1390  176.7640  146.6260 C   0  0  0  0  0  3  0  0  0  0  0  0
  184.6700  178.2970  145.5330 N   0  0  0  0  0  0  0  0  0  0  0  0
  184.8660  177.3080  146.4450 C   0  0  0  0  0  3  0  0  0  0  0  0
  1 13  1  0  0  0  0
  1  2  1  0  0  0  0
  2 18  2  0  0  0  0
  3  6  2  0  0  0  0
  4  1  1  0  0  0  0
  5 12  1  0  0  0  0
  5  8  2  0  0  0  0
  7  4  2  0  0  0  0
  7 14  1  0  0  0  0
  8  7  1  0  0  0  0
  9 10  1  0  0  0  0
 11  2  1  0  0  0  0
 11 17  2  0  0  0  0
 12 16  2  0  0  0  0
 13  3  1  0  0  0  0
 14 13  2  0  0  0  0
 15  9  2  0  0  0  0
 16  4  1  0  0  0  0
 17 15  1  0  0  0  0
 18  6  1  0  0  0  0
 18  9  1  0  0  0  0
 19 21  2  0  0  0  0
 19 24  1  0  0  0  0
 20 17  1  0  0  0  0
 20 23  2  0  0  0  0
 21 20  1  0  0  0  0
 22 19  1  0  0  0  0
 24 25  2  0  0  0  0
 25 23  1  0  0  0  0
M  END
>  <MODEL>
7

>  <REMARK>
 VINA RESULT:      -7.6      4.149      7.379
  Name = 
  1 active torsions:
  status: ('A' for Active; 'I' for Inactive)
    1  A    between atoms: C_6  and  C_23
                            x       y       z     vdW  Elec       q    Type
                         _______ _______ _______ _____ _____    ______ ____

>  <TORSDO>
F 1

$$$$
=
 OpenBabel11052417333D

 25 29  0  0  0  0  0  0  0  0999 V2000
  190.4620  175.3480  144.2050 N   0  0  0  0  0  0  0  0  0  0  0  0
  189.4410  175.4620  143.3100 C   0  0  0  0  0  0  0  0  0  0  0  0
  191.7400  173.9460  142.7500 C   0  0  0  0  0  3  0  0  0  0  0  0
  190.6220  175.8630  145.4350 C   0  0  0  0  0  0  0  0  0  0  0  0
  191.3990  176.6820  147.9640 C   0  0  0  0  0  3  0  0  0  0  0  0
  190.7110  174.0380  141.8020 C   0  0  0  0  0  3  0  0  0  0  0  0
  191.8330  175.4610  145.9490 C   0  0  0  0  0  0  0  0  0  0  0  0
  192.2550  175.8530  147.2170 C   0  0  0  0  0  3  0  0  0  0  0  0
  188.4990  174.9170  141.1580 C   0  0  0  0  0  0  0  0  0  0  0  0
  188.5370  174.2450  139.8260 C   0  0  0  0  0  1  0  0  0  0  0  0
  188.3310  176.1970  143.5870 N   0  0  0  0  0  0  0  0  0  0  0  0
  190.1570  177.0950  147.4370 C   0  0  0  0  0  3  0  0  0  0  0  0
  191.5770  174.6240  143.9570 C   0  0  0  0  0  0  0  0  0  0  0  0
  192.4790  174.6570  145.0200 C   0  0  0  0  0  3  0  0  0  0  0  0
  187.4110  175.6660  141.4860 N   0  0  0  0  0  0  0  0  0  0  0  0
  189.7530  176.6850  146.1550 C   0  0  0  0  0  3  0  0  0  0  0  0
  187.3170  176.3030  142.6860 C   0  0  0  0  0  0  0  0  0  0  0  0
  189.5530  174.7950  142.0720 C   0  0  0  0  0  0  0  0  0  0  0  0
  184.6620  178.1540  144.6250 C   0  0  0  0  0  0  0  0  0  0  0  0
  186.1230  177.1060  143.0080 C   0  0  0  0  0  0  0  0  0  0  0  0
  185.7960  177.3910  144.3400 C   0  0  0  0  0  3  0  0  0  0  0  0
  184.3240  178.4470  145.9740 N   0  0  0  0  0  1  0  0  0  0  0  0
  185.2990  177.5950  141.9860 C   0  0  0  0  0  3  0  0  0  0  0  0
  183.8790  178.6150  143.6120 N   0  0  0  0  0  0  0  0  0  0  0  0
  184.1720  178.3540  142.3110 C   0  0  0  0  0  3  0  0  0  0  0  0
  1  4  1  0  0  0  0
  2 11  1  0  0  0  0
  2  1  1  0  0  0  0
  3 13  1  0  0  0  0
  4  7  2  0  0  0  0
  4 16  1  0  0  0  0
  6 18  1  0  0  0  0
  6  3  2  0  0  0  0
  7  8  1  0  0  0  0
  8  5  2  0  0  0  0
  9 15  2  0  0  0  0
  9 18  1  0  0  0  0
 10  9  1  0  0  0  0
 12  5  1  0  0  0  0
 13  1  1  0  0  0  0
 13 14  2  0  0  0  0
 14  7  1  0  0  0  0
 15 17  1  0  0  0  0
 16 12  2  0  0  0  0
 17 20  1  0  0  0  0
 17 11  2  0  0  0  0
 18  2  2  0  0  0  0
 19 22  1  0  0  0  0
 20 21  2  0  0  0  0
 21 19  1  0  0  0  0
 23 25  2  0  0  0  0
 23 20  1  0  0  0  0
 24 19  2  0  0  0  0
 25 24  1  0  0  0  0
M  END
>  <MODEL>
8

>  <REMARK>
 VINA RESULT:      -7.6      3.234      5.126
  Name = 
  1 active torsions:
  status: ('A' for Active; 'I' for Inactive)
    1  A    between atoms: C_6  and  C_23
                            x       y       z     vdW  Elec       q    Type
                         _______ _______ _______ _____ _____    ______ ____

>  <TORSDO>
F 1

$$$$
=
 OpenBabel11052417333D

 25 29  0  0  0  0  0  0  0  0999 V2000
  186.8840  177.2110  144.8720 N   0  0  0  0  0  0  0  0  0  0  0  0
  187.9360  176.3920  144.5930 C   0  0  0  0  0  0  0  0  0  0  0  0
  187.5840  177.5400  147.1340 C   0  0  0  0  0  3  0  0  0  0  0  0
  185.8650  177.6350  144.1060 C   0  0  0  0  0  0  0  0  0  0  0  0
  183.6170  178.7600  142.9430 C   0  0  0  0  0  3  0  0  0  0  0  0
  188.6810  176.7010  146.8880 C   0  0  0  0  0  3  0  0  0  0  0  0
  185.0470  178.4580  144.8420 C   0  0  0  0  0  0  0  0  0  0  0  0
  183.9080  179.0410  144.2900 C   0  0  0  0  0  3  0  0  0  0  0  0
  189.9460  175.2750  145.3230 C   0  0  0  0  0  0  0  0  0  0  0  0
  190.9760  174.9360  146.3480 C   0  0  0  0  0  1  0  0  0  0  0  0
  188.1000  175.8390  143.3620 N   0  0  0  0  0  0  0  0  0  0  0  0
  184.4570  177.9140  142.1880 C   0  0  0  0  0  3  0  0  0  0  0  0
  186.6950  177.7750  146.0870 C   0  0  0  0  0  0  0  0  0  0  0  0
  185.5520  178.5720  146.1300 C   0  0  0  0  0  3  0  0  0  0  0  0
  190.0630  174.7500  144.0740 N   0  0  0  0  0  0  0  0  0  0  0  0
  185.6000  177.3380  142.7680 C   0  0  0  0  0  3  0  0  0  0  0  0
  189.1550  175.0210  143.0950 C   0  0  0  0  0  0  0  0  0  0  0  0
  188.8670  176.1190  145.6180 C   0  0  0  0  0  0  0  0  0  0  0  0
  190.5110  173.0190  140.1990 C   0  0  0  0  0  0  0  0  0  0  0  0
  189.3130  174.4330  141.7520 C   0  0  0  0  0  0  0  0  0  0  0  0
  190.3790  173.5660  141.4770 C   0  0  0  0  0  3  0  0  0  0  0  0
  191.5910  172.1390  139.9120 N   0  0  0  0  0  1  0  0  0  0  0  0
  188.4000  174.7330  140.7340 C   0  0  0  0  0  3  0  0  0  0  0  0
  189.6100  173.3280  139.2290 N   0  0  0  0  0  0  0  0  0  0  0  0
  188.5660  174.1660  139.4680 C   0  0  0  0  0  3  0  0  0  0  0  0
  1 13  1  0  0  0  0
  2  1  1  0  0  0  0
  2 18  2  0  0  0  0
  4  7  1  0  0  0  0
  4  1  1  0  0  0  0
  5  8  1  0  0  0  0
  6  3  2  0  0  0  0
  7 14  1  0  0  0  0
  8  7  2  0  0  0  0
  9 18  1  0  0  0  0
  9 10  1  0  0  0  0
 11  2  1  0  0  0  0
 12 16  1  0  0  0  0
 12  5  2  0  0  0  0
 13 14  2  0  0  0  0
 13  3  1  0  0  0  0
 15  9  2  0  0  0  0
 16  4  2  0  0  0  0
 17 11  2  0  0  0  0
 17 15  1  0  0  0  0
 18  6  1  0  0  0  0
 19 21  1  0  0  0  0
 20 17  1  0  0  0  0
 21 20  2  0  0  0  0
 22 19  1  0  0  0  0
 23 20  1  0  0  0  0
 24 25  1  0  0  0  0
 24 19  2  0  0  0  0
 25 23  2  0  0  0  0
M  END
>  <MODEL>
9

>  <REMARK>
 VINA RESULT:      -7.6      3.480      7.049
  Name = 
  1 active torsions:
  status: ('A' for Active; 'I' for Inactive)
    1  A    between atoms: C_6  and  C_23
                            x       y       z     vdW  Elec       q    Type
                         _______ _______ _______ _____ _____    ______ ____

>  <TORSDO>
F 1

$$$$
