=
 OpenBabel11052419033D

 32 37  0  0  1  0  0  0  0  0999 V2000
  189.0000  175.7780  145.1610 C   0  0  0  0  0  0  0  0  0  0  0  0
  186.9550  177.0070  144.6660 C   0  0  0  0  0  0  0  0  0  0  0  0
  189.8960  175.1350  146.1920 C   0  0  0  0  0  2  0  0  0  0  0  0
  187.7880  176.3540  145.5730 C   0  0  0  0  0  0  0  0  0  0  0  0
  185.7240  177.5880  145.1420 N   0  0  0  0  0  0  0  0  0  0  0  0
  185.5790  177.9450  139.9630 C   0  0  0  0  0  2  0  0  0  0  0  0
  187.3020  177.0510  143.3040 C   0  0  0  0  0  0  0  0  0  0  0  0
  184.0320  178.4830  141.8590 C   0  0  0  0  0  2  0  0  0  0  0  0
  184.9330  177.7020  142.8100 C   0  0  2  0  0  3  0  0  0  0  0  0
  187.3410  176.2070  146.9620 C   0  0  0  0  0  0  0  0  0  0  0  0
  184.8210  178.2760  144.2190 C   0  0  0  0  0  2  0  0  0  0  0  0
  186.2870  176.8360  147.3910 N   0  0  0  0  0  0  0  0  0  0  0  0
  188.0620  175.3270  147.8280 N   0  0  0  0  0  2  0  0  0  0  0  0
  188.5340  176.5180  142.8950 C   0  0  0  0  0  3  0  0  0  0  0  0
  189.3900  175.8860  143.8130 C   0  0  0  0  0  0  0  0  0  0  0  0
  186.3910  177.7570  142.3270 C   0  0  2  0  0  3  0  0  0  0  0  0
  185.5360  177.8090  146.5840 C   0  0  1  0  0  3  0  0  0  0  0  0
  189.0750  174.4290  147.2770 C   0  0  0  0  0  2  0  0  0  0  0  0
  184.1330  177.9030  140.4510 C   0  0  0  0  0  2  0  0  0  0  0  0
  186.4810  177.1660  140.9160 C   0  0  0  0  0  2  0  0  0  0  0  0
  193.0140  175.8830  142.4220 C   0  0  0  0  0  0  0  0  0  0  0  0
  193.3410  172.3050  142.5380 O   0  0  0  0  0  0  0  0  0  0  0  0
  193.7980  176.6810  141.8430 O   0  0  0  0  0  0  0  0  0  0  0  0
  191.3770  173.4170  141.9000 C   0  0  0  0  0  3  0  0  0  0  0  0
  190.7050  175.3140  143.3480 C   0  0  1  0  0  3  0  0  0  0  0  0
  193.4650  174.5850  142.6900 O   0  0  0  0  0  0  0  0  0  0  0  0
  190.4540  174.2920  142.2850 C   0  0  0  0  0  3  0  0  0  0  0  0
  191.6830  176.4060  142.8930 C   0  0  1  0  0  3  0  0  0  0  0  0
  191.9270  177.4030  144.0180 C   0  0  0  0  0  1  0  0  0  0  0  0
  192.7540  173.4110  142.4120 C   0  0  0  0  0  0  0  0  0  0  0  0
  185.9700  179.2210  146.9510 C   0  0  0  0  0  2  0  0  0  0  0  0
  186.5580  179.2230  148.2160 O   0  0  0  0  0  1  0  0  0  0  0  0
  1  4  1  0  0  0  0
  1  3  1  0  0  0  0
  2  5  1  0  0  0  0
  2  4  2  0  0  0  0
  3 18  1  0  0  0  0
  4 10  1  0  0  0  0
  5 17  1  0  0  0  0
  6 19  1  0  0  0  0
  6 20  1  0  0  0  0
  7  2  1  0  0  0  0
  9  8  1  6  0  0  0
  9 11  1  0  0  0  0
 10 12  2  0  0  0  0
 10 13  1  0  0  0  0
 11  5  1  0  0  0  0
 14  7  2  0  0  0  0
 14 15  1  0  0  0  0
 15  1  2  0  0  0  0
 16 20  1  6  0  0  0
 16  9  1  0  0  0  0
 16  7  1  0  0  0  0
 17 31  1  1  0  0  0
 17 12  1  0  0  0  0
 18 13  1  0  0  0  0
 19  8  1  0  0  0  0
 21 26  1  0  0  0  0
 21 28  1  0  0  0  0
 23 21  2  0  0  0  0
 24 27  2  0  0  0  0
 24 30  1  0  0  0  0
 25 15  1  6  0  0  0
 27 25  1  0  0  0  0
 28 25  1  0  0  0  0
 28 29  1  1  0  0  0
 30 22  2  0  0  0  0
 30 26  1  0  0  0  0
 31 32  1  0  0  0  0
M  END
>  <MODEL>
1

>  <REMARK>
 VINA RESULT:      -8.2      0.000      0.000
  Name = 
  2 active torsions:
  status: ('A' for Active; 'I' for Inactive)
    1  A    between atoms: C_13  and  C_29
    2  A    between atoms: C_16  and  C_27
                            x       y       z     vdW  Elec       q    Type
                         _______ _______ _______ _____ _____    ______ ____

>  <TORSDO>
F 2

$$$$
=
 OpenBabel11052419033D

 32 37  0  0  1  0  0  0  0  0999 V2000
  188.9060  174.8260  142.8810 C   0  0  0  0  0  0  0  0  0  0  0  0
  191.3330  174.5970  142.8900 C   0  0  0  0  0  0  0  0  0  0  0  0
  187.5830  174.4590  142.2540 C   0  0  0  0  0  2  0  0  0  0  0  0
  190.0840  174.2480  142.3800 C   0  0  0  0  0  0  0  0  0  0  0  0
  192.5110  173.9800  142.3340 N   0  0  0  0  0  0  0  0  0  0  0  0
  194.1100  176.6660  146.4820 C   0  0  0  0  0  2  0  0  0  0  0  0
  191.4230  175.5060  143.9590 C   0  0  0  0  0  0  0  0  0  0  0  0
  195.1610  175.1300  144.8040 C   0  0  0  0  0  2  0  0  0  0  0  0
  193.7740  174.7200  144.3170 C   0  0  2  0  0  3  0  0  0  0  0  0
  190.0070  173.2010  141.3550 C   0  0  0  0  0  0  0  0  0  0  0  0
  193.8390  174.3170  142.8480 C   0  0  0  0  0  2  0  0  0  0  0  0
  191.0860  172.7430  140.7910 N   0  0  0  0  0  0  0  0  0  0  0  0
  188.7270  172.6620  141.0150 N   0  0  0  0  0  2  0  0  0  0  0  0
  190.2530  176.1220  144.4320 C   0  0  0  0  0  3  0  0  0  0  0  0
  188.9950  175.7940  143.8990 C   0  0  0  0  0  0  0  0  0  0  0  0
  192.7800  175.8770  144.5080 C   0  0  2  0  0  3  0  0  0  0  0  0
  192.4280  173.2930  141.0360 C   0  0  1  0  0  3  0  0  0  0  0  0
  187.5580  172.9860  141.8310 C   0  0  0  0  0  2  0  0  0  0  0  0
  195.1000  175.5230  146.2770 C   0  0  0  0  0  2  0  0  0  0  0  0
  192.7230  176.2560  145.9920 C   0  0  0  0  0  2  0  0  0  0  0  0
  186.3210  178.5740  144.3370 C   0  0  0  0  0  0  0  0  0  0  0  0
  184.3770  176.7020  146.7120 O   0  0  0  0  0  0  0  0  0  0  0  0
  186.1870  179.7970  144.0680 O   0  0  0  0  0  0  0  0  0  0  0  0
  186.7220  176.7210  146.6700 C   0  0  0  0  0  3  0  0  0  0  0  0
  187.7530  176.4630  144.4290 C   0  0  1  0  0  3  0  0  0  0  0  0
  185.2720  177.9170  144.9910 O   0  0  0  0  0  0  0  0  0  0  0  0
  187.7940  176.4730  145.9250 C   0  0  0  0  0  3  0  0  0  0  0  0
  187.5530  177.8660  143.8390 C   0  0  1  0  0  3  0  0  0  0  0  0
  187.4890  177.7980  142.3190 C   0  0  0  0  0  1  0  0  0  0  0  0
  185.4140  177.0900  146.1120 C   0  0  0  0  0  0  0  0  0  0  0  0
  192.7960  174.2570  139.9170 C   0  0  0  0  0  2  0  0  0  0  0  0
  192.1760  173.8670  138.7310 O   0  0  0  0  0  1  0  0  0  0  0  0
  1 15  1  0  0  0  0
  2  7  2  0  0  0  0
  3  1  1  0  0  0  0
  4  1  2  0  0  0  0
  4  2  1  0  0  0  0
  5 11  1  0  0  0  0
  5  2  1  0  0  0  0
  7 14  1  0  0  0  0
  7 16  1  0  0  0  0
  8 19  1  0  0  0  0
  9 11  1  6  0  0  0
  9 16  1  0  0  0  0
  9  8  1  0  0  0  0
 10  4  1  0  0  0  0
 12 17  1  0  0  0  0
 12 10  2  0  0  0  0
 13 10  1  0  0  0  0
 13 18  1  0  0  0  0
 15 14  2  0  0  0  0
 16 20  1  1  0  0  0
 17 31  1  6  0  0  0
 17  5  1  0  0  0  0
 18  3  1  0  0  0  0
 19  6  1  0  0  0  0
 20  6  1  0  0  0  0
 21 26  1  0  0  0  0
 23 21  2  0  0  0  0
 25 15  1  6  0  0  0
 25 27  1  0  0  0  0
 26 30  1  0  0  0  0
 27 24  2  0  0  0  0
 28 29  1  6  0  0  0
 28 21  1  0  0  0  0
 28 25  1  0  0  0  0
 30 24  1  0  0  0  0
 30 22  2  0  0  0  0
 32 31  1  0  0  0  0
M  END
>  <MODEL>
2

>  <REMARK>
 VINA RESULT:      -8.0      3.199      7.953
  Name = 
  2 active torsions:
  status: ('A' for Active; 'I' for Inactive)
    1  A    between atoms: C_13  and  C_29
    2  A    between atoms: C_16  and  C_27
                            x       y       z     vdW  Elec       q    Type
                         _______ _______ _______ _____ _____    ______ ____

>  <TORSDO>
F 2

$$$$
=
 OpenBabel11052419033D

 32 37  0  0  1  0  0  0  0  0999 V2000
  188.2630  175.9040  142.2600 C   0  0  0  0  0  0  0  0  0  0  0  0
  188.2130  176.8510  144.5040 C   0  0  0  0  0  0  0  0  0  0  0  0
  187.6450  175.8230  140.8840 C   0  0  0  0  0  2  0  0  0  0  0  0
  187.7120  176.7830  143.2060 C   0  0  0  0  0  0  0  0  0  0  0  0
  187.6070  177.7660  145.4390 N   0  0  0  0  0  0  0  0  0  0  0  0
  191.8430  175.8980  147.7910 C   0  0  0  0  0  2  0  0  0  0  0  0
  189.3220  176.0670  144.8690 C   0  0  0  0  0  0  0  0  0  0  0  0
  190.0750  177.5920  148.3230 C   0  0  0  0  0  2  0  0  0  0  0  0
  189.5960  177.5410  146.8750 C   0  0  2  0  0  3  0  0  0  0  0  0
  186.6410  177.7050  142.8120 C   0  0  0  0  0  0  0  0  0  0  0  0
  188.1090  177.8700  146.8090 C   0  0  0  0  0  2  0  0  0  0  0  0
  186.0350  178.4370  143.7010 N   0  0  0  0  0  0  0  0  0  0  0  0
  186.3010  177.8170  141.4280 N   0  0  0  0  0  2  0  0  0  0  0  0
  189.8460  175.1530  143.9410 C   0  0  0  0  0  3  0  0  0  0  0  0
  189.3230  175.0600  142.6400 C   0  0  0  0  0  0  0  0  0  0  0  0
  189.8610  176.1500  146.2770 C   0  0  2  0  0  3  0  0  0  0  0  0
  186.2790  178.3290  145.1470 C   0  0  1  0  0  3  0  0  0  0  0  0
  187.1530  177.1970  140.4150 C   0  0  0  0  0  2  0  0  0  0  0  0
  191.5660  177.2740  148.3910 C   0  0  0  0  0  2  0  0  0  0  0  0
  191.3620  175.8460  146.3440 C   0  0  0  0  0  2  0  0  0  0  0  0
  190.3310  171.6030  141.1900 C   0  0  0  0  0  0  0  0  0  0  0  0
  191.8050  172.9820  138.2150 O   0  0  0  0  0  0  0  0  0  0  0  0
  190.4410  170.4140  141.5890 O   0  0  0  0  0  0  0  0  0  0  0  0
  192.0040  173.9520  140.3410 C   0  0  0  0  0  3  0  0  0  0  0  0
  189.9070  174.0760  141.6600 C   0  0  1  0  0  3  0  0  0  0  0  0
  190.6430  171.8880  139.8550 O   0  0  0  0  0  0  0  0  0  0  0  0
  191.3290  174.4450  141.3740 C   0  0  0  0  0  3  0  0  0  0  0  0
  189.7630  172.6240  142.1400 C   0  0  1  0  0  3  0  0  0  0  0  0
  188.2980  172.2910  142.3880 C   0  0  0  0  0  1  0  0  0  0  0  0
  191.4610  172.9400  139.4250 C   0  0  0  0  0  0  0  0  0  0  0  0
  185.2000  177.4650  145.7840 C   0  0  0  0  0  2  0  0  0  0  0  0
  184.1080  178.2560  146.1400 O   0  0  0  0  0  1  0  0  0  0  0  0
  1 15  2  0  0  0  0
  1  4  1  0  0  0  0
  2  7  1  0  0  0  0
  2  5  1  0  0  0  0
  3  1  1  0  0  0  0
  4  2  2  0  0  0  0
  5 11  1  0  0  0  0
  6 19  1  0  0  0  0
  7 16  1  0  0  0  0
  8 19  1  0  0  0  0
  9 11  1  1  0  0  0
  9  8  1  0  0  0  0
 10  4  1  0  0  0  0
 10 12  2  0  0  0  0
 12 17  1  0  0  0  0
 13 10  1  0  0  0  0
 14  7  2  0  0  0  0
 15 14  1  0  0  0  0
 16 20  1  6  0  0  0
 16  9  1  0  0  0  0
 17  5  1  0  0  0  0
 17 31  1  6  0  0  0
 18  3  1  0  0  0  0
 18 13  1  0  0  0  0
 20  6  1  0  0  0  0
 21 23  2  0  0  0  0
 21 28  1  0  0  0  0
 22 30  2  0  0  0  0
 24 27  2  0  0  0  0
 25 28  1  0  0  0  0
 25 15  1  1  0  0  0
 26 21  1  0  0  0  0
 27 25  1  0  0  0  0
 28 29  1  6  0  0  0
 30 26  1  0  0  0  0
 30 24  1  0  0  0  0
 31 32  1  0  0  0  0
M  END
>  <MODEL>
3

>  <REMARK>
 VINA RESULT:      -7.4      2.335      5.242
  Name = 
  2 active torsions:
  status: ('A' for Active; 'I' for Inactive)
    1  A    between atoms: C_13  and  C_29
    2  A    between atoms: C_16  and  C_27
                            x       y       z     vdW  Elec       q    Type
                         _______ _______ _______ _____ _____    ______ ____

>  <TORSDO>
F 2

$$$$
=
 OpenBabel11052419033D

 32 37  0  0  1  0  0  0  0  0999 V2000
  189.2320  175.0160  142.0470 C   0  0  0  0  0  0  0  0  0  0  0  0
  190.0580  175.8620  144.1780 C   0  0  0  0  0  0  0  0  0  0  0  0
  188.1260  174.9810  141.0180 C   0  0  0  0  0  2  0  0  0  0  0  0
  189.0890  175.8400  143.1750 C   0  0  0  0  0  0  0  0  0  0  0  0
  189.8600  176.7210  145.3180 N   0  0  0  0  0  0  0  0  0  0  0  0
  194.6860  174.8490  145.7400 C   0  0  0  0  0  2  0  0  0  0  0  0
  191.2230  175.0880  144.0420 C   0  0  0  0  0  0  0  0  0  0  0  0
  193.2590  176.4770  147.0020 C   0  0  0  0  0  2  0  0  0  0  0  0
  192.2530  176.4780  145.8540 C   0  0  2  0  0  3  0  0  0  0  0  0
  187.9460  176.7530  143.2760 C   0  0  0  0  0  0  0  0  0  0  0  0
  190.8570  176.7760  146.3880 C   0  0  0  0  0  2  0  0  0  0  0  0
  187.7320  177.4310  144.3650 N   0  0  0  0  0  0  0  0  0  0  0  0
  187.0930  176.9180  142.1410 N   0  0  0  0  0  2  0  0  0  0  0  0
  191.3480  174.2280  142.9390 C   0  0  0  0  0  3  0  0  0  0  0  0
  190.3590  174.1810  141.9420 C   0  0  0  0  0  0  0  0  0  0  0  0
  192.2690  175.1220  145.1310 C   0  0  2  0  0  3  0  0  0  0  0  0
  188.5220  177.2660  145.5950 C   0  0  1  0  0  3  0  0  0  0  0  0
  187.4850  176.3630  140.8460 C   0  0  0  0  0  2  0  0  0  0  0  0
  194.6590  176.1910  146.4670 C   0  0  0  0  0  2  0  0  0  0  0  0
  193.6780  174.8500  144.5940 C   0  0  0  0  0  2  0  0  0  0  0  0
  191.1080  170.8760  140.0470 C   0  0  0  0  0  0  0  0  0  0  0  0
  190.4860  172.2860  136.7990 O   0  0  0  0  0  0  0  0  0  0  0  0
  191.6440  169.7610  140.2810 O   0  0  0  0  0  0  0  0  0  0  0  0
  191.5810  173.4280  138.5300 C   0  0  0  0  0  3  0  0  0  0  0  0
  190.5200  173.2550  140.7650 C   0  0  1  0  0  3  0  0  0  0  0  0
  190.6060  171.1170  138.7630 O   0  0  0  0  0  0  0  0  0  0  0  0
  191.4710  173.8600  139.7820 C   0  0  0  0  0  3  0  0  0  0  0  0
  190.9390  171.8400  141.1920 C   0  0  1  0  0  3  0  0  0  0  0  0
  189.9240  171.2580  142.1670 C   0  0  0  0  0  1  0  0  0  0  0  0
  190.8480  172.2690  138.0050 C   0  0  0  0  0  0  0  0  0  0  0  0
  187.7800  176.3500  146.5580 C   0  0  0  0  0  2  0  0  0  0  0  0
  186.4140  176.6320  146.5250 O   0  0  0  0  0  1  0  0  0  0  0  0
  1  4  1  0  0  0  0
  2  5  1  0  0  0  0
  3  1  1  0  0  0  0
  4 10  1  0  0  0  0
  4  2  2  0  0  0  0
  5 17  1  0  0  0  0
  5 11  1  0  0  0  0
  6 19  1  0  0  0  0
  7  2  1  0  0  0  0
  7 16  1  0  0  0  0
  9 11  1  1  0  0  0
  9  8  1  0  0  0  0
 10 12  2  0  0  0  0
 12 17  1  0  0  0  0
 13 10  1  0  0  0  0
 14  7  2  0  0  0  0
 15  1  2  0  0  0  0
 15 14  1  0  0  0  0
 16 20  1  6  0  0  0
 16  9  1  0  0  0  0
 17 31  1  1  0  0  0
 18  3  1  0  0  0  0
 18 13  1  0  0  0  0
 19  8  1  0  0  0  0
 20  6  1  0  0  0  0
 21 23  2  0  0  0  0
 21 28  1  0  0  0  0
 22 30  2  0  0  0  0
 24 27  2  0  0  0  0
 25 28  1  0  0  0  0
 25 15  1  1  0  0  0
 26 21  1  0  0  0  0
 27 25  1  0  0  0  0
 28 29  1  1  0  0  0
 30 24  1  0  0  0  0
 30 26  1  0  0  0  0
 32 31  1  0  0  0  0
M  END
>  <MODEL>
4

>  <REMARK>
 VINA RESULT:      -7.2      2.836      6.039
  Name = 
  2 active torsions:
  status: ('A' for Active; 'I' for Inactive)
    1  A    between atoms: C_13  and  C_29
    2  A    between atoms: C_16  and  C_27
                            x       y       z     vdW  Elec       q    Type
                         _______ _______ _______ _____ _____    ______ ____

>  <TORSDO>
F 2

$$$$
=
 OpenBabel11052419033D

 32 37  0  0  1  0  0  0  0  0999 V2000
  191.6250  175.0920  145.2490 C   0  0  0  0  0  0  0  0  0  0  0  0
  189.8630  175.1110  143.5660 C   0  0  0  0  0  0  0  0  0  0  0  0
  192.0740  175.4560  146.6440 C   0  0  0  0  0  2  0  0  0  0  0  0
  190.3060  175.3780  144.8600 C   0  0  0  0  0  0  0  0  0  0  0  0
  188.5010  175.4300  143.2160 N   0  0  0  0  0  0  0  0  0  0  0  0
  190.4440  172.7820  139.1920 C   0  0  0  0  0  2  0  0  0  0  0  0
  190.7280  174.4990  142.6420 C   0  0  0  0  0  0  0  0  0  0  0  0
  188.2210  173.7570  139.8150 C   0  0  0  0  0  2  0  0  0  0  0  0
  188.7190  173.9720  141.2410 C   0  0  2  0  0  3  0  0  0  0  0  0
  189.3480  175.8940  145.8430 C   0  0  0  0  0  0  0  0  0  0  0  0
  187.9980  175.1590  141.8690 C   0  0  0  0  0  2  0  0  0  0  0  0
  188.1620  176.2800  145.4750 N   0  0  0  0  0  0  0  0  0  0  0  0
  189.7250  175.9280  147.2220 N   0  0  0  0  0  2  0  0  0  0  0  0
  192.0600  174.2540  143.0120 C   0  0  0  0  0  3  0  0  0  0  0  0
  192.5190  174.5510  144.3060 C   0  0  0  0  0  0  0  0  0  0  0  0
  190.2380  174.2100  141.2430 C   0  0  2  0  0  3  0  0  0  0  0  0
  187.7250  176.3410  144.0710 C   0  0  1  0  0  3  0  0  0  0  0  0
  190.9460  175.2540  147.6610 C   0  0  0  0  0  2  0  0  0  0  0  0
  188.9330  172.5610  139.1890 C   0  0  0  0  0  2  0  0  0  0  0  0
  190.9420  173.0000  140.6180 C   0  0  0  0  0  2  0  0  0  0  0  0
  196.3730  175.0130  144.3580 C   0  0  0  0  0  0  0  0  0  0  0  0
  196.9410  172.2520  146.5900 O   0  0  0  0  0  0  0  0  0  0  0  0
  197.2530  175.6280  143.7010 O   0  0  0  0  0  0  0  0  0  0  0  0
  195.3490  172.2320  144.8680 C   0  0  0  0  0  3  0  0  0  0  0  0
  193.9510  174.2720  144.6810 C   0  0  1  0  0  3  0  0  0  0  0  0
  196.7810  174.2250  145.4420 O   0  0  0  0  0  0  0  0  0  0  0  0
  194.2750  172.8430  144.3790 C   0  0  0  0  0  3  0  0  0  0  0  0
  194.9270  175.2500  144.0100 C   0  0  1  0  0  3  0  0  0  0  0  0
  194.5730  176.6860  144.3730 C   0  0  0  0  0  1  0  0  0  0  0  0
  196.3670  172.9090  145.6830 C   0  0  0  0  0  0  0  0  0  0  0  0
  187.8540  177.7670  143.5580 C   0  0  0  0  0  2  0  0  0  0  0  0
  186.6100  178.2350  143.1360 O   0  0  0  0  0  1  0  0  0  0  0  0
  1  3  1  0  0  0  0
  2  4  2  0  0  0  0
  3 18  1  0  0  0  0
  4  1  1  0  0  0  0
  4 10  1  0  0  0  0
  5  2  1  0  0  0  0
  5 17  1  0  0  0  0
  6 20  1  0  0  0  0
  7 14  2  0  0  0  0
  7  2  1  0  0  0  0
  9  8  1  6  0  0  0
  9 16  1  0  0  0  0
  9 11  1  0  0  0  0
 10 13  1  0  0  0  0
 11  5  1  0  0  0  0
 12 10  2  0  0  0  0
 13 18  1  0  0  0  0
 14 15  1  0  0  0  0
 15  1  2  0  0  0  0
 16 20  1  1  0  0  0
 16  7  1  0  0  0  0
 17 31  1  6  0  0  0
 17 12  1  0  0  0  0
 19  6  1  0  0  0  0
 19  8  1  0  0  0  0
 21 26  1  0  0  0  0
 23 21  2  0  0  0  0
 24 30  1  0  0  0  0
 25 15  1  6  0  0  0
 26 30  1  0  0  0  0
 27 25  1  0  0  0  0
 27 24  2  0  0  0  0
 28 21  1  0  0  0  0
 28 29  1  1  0  0  0
 28 25  1  0  0  0  0
 30 22  2  0  0  0  0
 32 31  1  0  0  0  0
M  END
>  <MODEL>
5

>  <REMARK>
 VINA RESULT:      -7.2      2.891      4.441
  Name = 
  2 active torsions:
  status: ('A' for Active; 'I' for Inactive)
    1  A    between atoms: C_13  and  C_29
    2  A    between atoms: C_16  and  C_27
                            x       y       z     vdW  Elec       q    Type
                         _______ _______ _______ _____ _____    ______ ____

>  <TORSDO>
F 2

$$$$
=
 OpenBabel11052419033D

 32 37  0  0  1  0  0  0  0  0999 V2000
  190.1910  176.3210  144.3460 C   0  0  0  0  0  0  0  0  0  0  0  0
  190.9820  174.4320  143.0240 C   0  0  0  0  0  0  0  0  0  0  0  0
  190.4760  177.3550  145.4090 C   0  0  0  0  0  2  0  0  0  0  0  0
  191.2130  175.4380  143.9610 C   0  0  0  0  0  0  0  0  0  0  0  0
  192.0630  173.5480  142.6690 N   0  0  0  0  0  0  0  0  0  0  0  0
  188.1830  172.4730  139.3890 C   0  0  0  0  0  2  0  0  0  0  0  0
  189.7210  174.3230  142.4130 C   0  0  0  0  0  0  0  0  0  0  0  0
  190.5500  171.7140  139.7040 C   0  0  0  0  0  2  0  0  0  0  0  0
  190.7860  172.8680  140.6740 C   0  0  2  0  0  3  0  0  0  0  0  0
  192.5710  175.6140  144.4870 C   0  0  0  0  0  0  0  0  0  0  0  0
  191.8600  172.4830  141.6850 C   0  0  0  0  0  2  0  0  0  0  0  0
  193.4980  174.7370  144.2400 N   0  0  0  0  0  0  0  0  0  0  0  0
  192.8700  176.7900  145.2430 N   0  0  0  0  0  2  0  0  0  0  0  0
  188.6840  175.1730  142.8280 C   0  0  0  0  0  3  0  0  0  0  0  0
  188.9060  176.1680  143.7950 C   0  0  0  0  0  0  0  0  0  0  0  0
  189.4790  173.2320  141.3960 C   0  0  2  0  0  3  0  0  0  0  0  0
  193.2520  173.4710  143.5310 C   0  0  1  0  0  3  0  0  0  0  0  0
  191.9080  177.8900  145.2940 C   0  0  0  0  0  2  0  0  0  0  0  0
  189.4850  172.1010  138.6830 C   0  0  0  0  0  2  0  0  0  0  0  0
  188.4210  173.6260  140.3600 C   0  0  0  0  0  2  0  0  0  0  0  0
  185.7480  177.2970  145.7510 C   0  0  0  0  0  0  0  0  0  0  0  0
  185.5670  180.5030  144.1340 O   0  0  0  0  0  0  0  0  0  0  0  0
  184.8560  176.7780  146.4710 O   0  0  0  0  0  0  0  0  0  0  0  0
  186.1480  178.5160  143.0320 C   0  0  0  0  0  3  0  0  0  0  0  0
  187.7780  177.0730  144.2190 C   0  0  1  0  0  3  0  0  0  0  0  0
  185.6880  178.6740  145.5050 O   0  0  0  0  0  0  0  0  0  0  0  0
  187.0010  177.4980  143.0130 C   0  0  0  0  0  3  0  0  0  0  0  0
  186.8890  176.4270  145.2920 C   0  0  1  0  0  3  0  0  0  0  0  0
  187.7200  176.0400  146.5080 C   0  0  0  0  0  1  0  0  0  0  0  0
  185.8160  179.2740  144.2460 C   0  0  0  0  0  0  0  0  0  0  0  0
  193.0880  172.3440  144.5410 C   0  0  0  0  0  2  0  0  0  0  0  0
  193.8610  172.6030  145.6720 O   0  0  0  0  0  1  0  0  0  0  0  0
  1  3  1  0  0  0  0
  2  4  2  0  0  0  0
  4  1  1  0  0  0  0
  4 10  1  0  0  0  0
  5  2  1  0  0  0  0
  5 17  1  0  0  0  0
  6 20  1  0  0  0  0
  7 14  2  0  0  0  0
  7  2  1  0  0  0  0
  9  8  1  6  0  0  0
  9 16  1  0  0  0  0
  9 11  1  0  0  0  0
 10 13  1  0  0  0  0
 11  5  1  0  0  0  0
 12 10  2  0  0  0  0
 13 18  1  0  0  0  0
 14 15  1  0  0  0  0
 15  1  2  0  0  0  0
 16 20  1  6  0  0  0
 16  7  1  0  0  0  0
 17 12  1  0  0  0  0
 17 31  1  1  0  0  0
 18  3  1  0  0  0  0
 19  6  1  0  0  0  0
 19  8  1  0  0  0  0
 21 23  2  0  0  0  0
 22 30  2  0  0  0  0
 24 30  1  0  0  0  0
 25 15  1  6  0  0  0
 25 28  1  0  0  0  0
 26 21  1  0  0  0  0
 27 24  2  0  0  0  0
 27 25  1  0  0  0  0
 28 21  1  0  0  0  0
 28 29  1  1  0  0  0
 30 26  1  0  0  0  0
 31 32  1  0  0  0  0
M  END
>  <MODEL>
6

>  <REMARK>
 VINA RESULT:      -7.0      2.882      7.041
  Name = 
  2 active torsions:
  status: ('A' for Active; 'I' for Inactive)
    1  A    between atoms: C_13  and  C_29
    2  A    between atoms: C_16  and  C_27
                            x       y       z     vdW  Elec       q    Type
                         _______ _______ _______ _____ _____    ______ ____

>  <TORSDO>
F 2

$$$$
=
 OpenBabel11052419033D

 32 37  0  0  1  0  0  0  0  0999 V2000
  189.4080  174.6010  142.4570 C   0  0  0  0  0  0  0  0  0  0  0  0
  190.9550  175.5410  144.0880 C   0  0  0  0  0  0  0  0  0  0  0  0
  187.9800  174.3850  142.0160 C   0  0  0  0  0  2  0  0  0  0  0  0
  189.6580  175.3610  143.6110 C   0  0  0  0  0  0  0  0  0  0  0  0
  191.1570  176.3240  145.2810 N   0  0  0  0  0  0  0  0  0  0  0  0
  195.8890  175.3660  143.3660 C   0  0  0  0  0  2  0  0  0  0  0  0
  192.0430  174.9980  143.3810 C   0  0  0  0  0  0  0  0  0  0  0  0
  194.9420  176.6760  145.2800 C   0  0  0  0  0  2  0  0  0  0  0  0
  193.5430  176.5160  144.6920 C   0  0  2  0  0  3  0  0  0  0  0  0
  188.5540  176.0460  144.2920 C   0  0  0  0  0  0  0  0  0  0  0  0
  192.5050  176.5400  145.8090 C   0  0  0  0  0  2  0  0  0  0  0  0
  188.7460  176.6500  145.4270 N   0  0  0  0  0  0  0  0  0  0  0  0
  187.2690  176.0740  143.6650 N   0  0  0  0  0  2  0  0  0  0  0  0
  191.7940  174.1990  142.2530 C   0  0  0  0  0  3  0  0  0  0  0  0
  190.4840  173.9910  141.7880 C   0  0  0  0  0  0  0  0  0  0  0  0
  193.4450  175.2010  143.9020 C   0  0  2  0  0  3  0  0  0  0  0  0
  190.0170  176.6070  146.1670 C   0  0  1  0  0  3  0  0  0  0  0  0
  187.1230  175.6280  142.2800 C   0  0  0  0  0  2  0  0  0  0  0  0
  195.9810  176.6650  144.1630 C   0  0  0  0  0  2  0  0  0  0  0  0
  194.4890  175.2050  142.7800 C   0  0  0  0  0  2  0  0  0  0  0  0
  190.5160  170.7990  139.5780 C   0  0  0  0  0  0  0  0  0  0  0  0
  188.9440  172.4040  136.7710 O   0  0  0  0  0  0  0  0  0  0  0  0
  191.0690  169.6680  139.5720 O   0  0  0  0  0  0  0  0  0  0  0  0
  190.5560  173.4330  138.1290 C   0  0  0  0  0  3  0  0  0  0  0  0
  190.2440  173.1350  140.5720 C   0  0  1  0  0  3  0  0  0  0  0  0
  189.6430  171.1190  138.5320 O   0  0  0  0  0  0  0  0  0  0  0  0
  190.8550  173.7910  139.3730 C   0  0  0  0  0  3  0  0  0  0  0  0
  190.7390  171.6950  140.7680 C   0  0  1  0  0  3  0  0  0  0  0  0
  190.0660  171.0630  141.9800 C   0  0  0  0  0  1  0  0  0  0  0  0
  189.6660  172.3120  137.7990 C   0  0  0  0  0  0  0  0  0  0  0  0
  189.9370  175.5500  147.2590 C   0  0  0  0  0  2  0  0  0  0  0  0
  188.6450  175.0290  147.3210 O   0  0  0  0  0  1  0  0  0  0  0  0
  1  4  1  0  0  0  0
  2  5  1  0  0  0  0
  3 18  1  0  0  0  0
  3  1  1  0  0  0  0
  4  2  2  0  0  0  0
  4 10  1  0  0  0  0
  5 11  1  0  0  0  0
  5 17  1  0  0  0  0
  6 19  1  0  0  0  0
  7 16  1  0  0  0  0
  7  2  1  0  0  0  0
  9  8  1  1  0  0  0
  9 11  1  0  0  0  0
 10 12  2  0  0  0  0
 12 17  1  0  0  0  0
 13 10  1  0  0  0  0
 14  7  2  0  0  0  0
 15 14  1  0  0  0  0
 15  1  2  0  0  0  0
 16 20  1  6  0  0  0
 16  9  1  0  0  0  0
 17 31  1  1  0  0  0
 18 13  1  0  0  0  0
 19  8  1  0  0  0  0
 20  6  1  0  0  0  0
 21 28  1  0  0  0  0
 22 30  2  0  0  0  0
 23 21  2  0  0  0  0
 24 27  2  0  0  0  0
 25 28  1  0  0  0  0
 25 15  1  1  0  0  0
 26 21  1  0  0  0  0
 27 25  1  0  0  0  0
 28 29  1  1  0  0  0
 30 24  1  0  0  0  0
 30 26  1  0  0  0  0
 31 32  1  0  0  0  0
M  END
>  <MODEL>
7

>  <REMARK>
 VINA RESULT:      -6.8      3.200      6.403
  Name = 
  2 active torsions:
  status: ('A' for Active; 'I' for Inactive)
    1  A    between atoms: C_13  and  C_29
    2  A    between atoms: C_16  and  C_27
                            x       y       z     vdW  Elec       q    Type
                         _______ _______ _______ _____ _____    ______ ____

>  <TORSDO>
F 2

$$$$
=
 OpenBabel11052419033D

 32 37  0  0  1  0  0  0  0  0999 V2000
  189.2360  174.7130  142.9660 C   0  0  0  0  0  0  0  0  0  0  0  0
  188.4580  175.9050  144.9450 C   0  0  0  0  0  0  0  0  0  0  0  0
  190.2230  173.7500  142.3510 C   0  0  0  0  0  2  0  0  0  0  0  0
  189.3110  174.9820  144.3430 C   0  0  0  0  0  0  0  0  0  0  0  0
  188.5820  176.1500  146.3600 N   0  0  0  0  0  0  0  0  0  0  0  0
  184.3040  178.6660  144.8290 C   0  0  0  0  0  2  0  0  0  0  0  0
  187.4680  176.5460  144.1790 C   0  0  0  0  0  0  0  0  0  0  0  0
  185.4790  178.2480  147.0030 C   0  0  0  0  0  2  0  0  0  0  0  0
  186.3500  177.1950  146.3240 C   0  0  2  0  0  3  0  0  0  0  0  0
  190.2470  174.2300  145.1860 C   0  0  0  0  0  0  0  0  0  0  0  0
  187.7000  177.1070  147.0280 C   0  0  0  0  0  2  0  0  0  0  0  0
  190.4190  174.5500  146.4350 N   0  0  0  0  0  0  0  0  0  0  0  0
  190.9370  173.1130  144.6230 N   0  0  0  0  0  2  0  0  0  0  0  0
  187.4190  176.3150  142.7950 C   0  0  0  0  0  3  0  0  0  0  0  0
  188.2990  175.4080  142.1800 C   0  0  0  0  0  0  0  0  0  0  0  0
  186.5450  177.5420  144.8400 C   0  0  2  0  0  3  0  0  0  0  0  0
  189.7990  175.7250  147.0670 C   0  0  1  0  0  3  0  0  0  0  0  0
  190.5480  172.6000  143.3110 C   0  0  0  0  0  2  0  0  0  0  0  0
  184.1230  178.3300  146.3070 C   0  0  0  0  0  2  0  0  0  0  0  0
  185.1780  177.6130  144.1520 C   0  0  0  0  0  2  0  0  0  0  0  0
  187.0480  175.8560  138.5320 C   0  0  0  0  0  0  0  0  0  0  0  0
  189.2920  173.3950  137.1780 O   0  0  0  0  0  0  0  0  0  0  0  0
  186.0730  176.3800  137.9330 O   0  0  0  0  0  0  0  0  0  0  0  0
  188.1910  173.1660  139.2370 C   0  0  0  0  0  3  0  0  0  0  0  0
  188.2220  175.1730  140.6940 C   0  0  1  0  0  3  0  0  0  0  0  0
  188.0290  175.2090  137.7700 O   0  0  0  0  0  0  0  0  0  0  0  0
  188.0050  173.7150  140.4320 C   0  0  0  0  0  3  0  0  0  0  0  0
  187.1590  176.0540  140.0210 C   0  0  1  0  0  3  0  0  0  0  0  0
  187.4410  177.5250  140.2920 C   0  0  0  0  0  1  0  0  0  0  0  0
  188.5460  173.9350  138.0370 C   0  0  0  0  0  0  0  0  0  0  0  0
  190.8010  176.8700  147.1060 C   0  0  0  0  0  2  0  0  0  0  0  0
  191.1910  177.1140  148.4230 O   0  0  0  0  0  1  0  0  0  0  0  0
  1  4  1  0  0  0  0
  2  5  1  0  0  0  0
  3  1  1  0  0  0  0
  3 18  1  0  0  0  0
  4  2  2  0  0  0  0
  4 10  1  0  0  0  0
  5 11  1  0  0  0  0
  5 17  1  0  0  0  0
  6 19  1  0  0  0  0
  7 16  1  0  0  0  0
  7  2  1  0  0  0  0
  9  8  1  1  0  0  0
  9 11  1  0  0  0  0
 10 12  2  0  0  0  0
 12 17  1  0  0  0  0
 13 10  1  0  0  0  0
 14  7  2  0  0  0  0
 15 14  1  0  0  0  0
 15  1  2  0  0  0  0
 16 20  1  6  0  0  0
 16  9  1  0  0  0  0
 17 31  1  6  0  0  0
 18 13  1  0  0  0  0
 19  8  1  0  0  0  0
 20  6  1  0  0  0  0
 21 28  1  0  0  0  0
 22 30  2  0  0  0  0
 23 21  2  0  0  0  0
 24 27  2  0  0  0  0
 25 15  1  1  0  0  0
 26 30  1  0  0  0  0
 26 21  1  0  0  0  0
 27 25  1  0  0  0  0
 28 29  1  6  0  0  0
 28 25  1  0  0  0  0
 30 24  1  0  0  0  0
 31 32  1  0  0  0  0
M  END
>  <MODEL>
8

>  <REMARK>
 VINA RESULT:      -6.8      3.185      4.735
  Name = 
  2 active torsions:
  status: ('A' for Active; 'I' for Inactive)
    1  A    between atoms: C_13  and  C_29
    2  A    between atoms: C_16  and  C_27
                            x       y       z     vdW  Elec       q    Type
                         _______ _______ _______ _____ _____    ______ ____

>  <TORSDO>
F 2

$$$$
=
 OpenBabel11052419033D

 32 37  0  0  1  0  0  0  0  0999 V2000
  190.0290  175.0980  142.9430 C   0  0  0  0  0  0  0  0  0  0  0  0
  190.0890  173.1620  141.4630 C   0  0  0  0  0  0  0  0  0  0  0  0
  189.4990  176.4830  143.2260 C   0  0  0  0  0  2  0  0  0  0  0  0
  189.5870  174.4190  141.7950 C   0  0  0  0  0  0  0  0  0  0  0  0
  189.6080  172.5120  140.2710 N   0  0  0  0  0  0  0  0  0  0  0  0
  192.5190  169.0000  142.7530 C   0  0  0  0  0  2  0  0  0  0  0  0
  191.0160  172.5320  142.3120 C   0  0  0  0  0  0  0  0  0  0  0  0
  191.0960  169.0400  140.6900 C   0  0  0  0  0  2  0  0  0  0  0  0
  190.5190  170.3860  141.1200 C   0  0  2  0  0  3  0  0  0  0  0  0
  188.5250  174.9980  140.9650 C   0  0  0  0  0  0  0  0  0  0  0  0
  190.1070  171.1890  139.8920 C   0  0  0  0  0  2  0  0  0  0  0  0
  188.1910  174.4470  139.8360 N   0  0  0  0  0  0  0  0  0  0  0  0
  187.8340  176.1560  141.4390 N   0  0  0  0  0  2  0  0  0  0  0  0
  191.4950  173.2250  143.4350 C   0  0  0  0  0  3  0  0  0  0  0  0
  191.0130  174.5060  143.7560 C   0  0  0  0  0  0  0  0  0  0  0  0
  191.5520  171.1680  141.9470 C   0  0  2  0  0  3  0  0  0  0  0  0
  188.8990  173.2990  139.2490 C   0  0  1  0  0  3  0  0  0  0  0  0
  188.0290  176.6110  142.8150 C   0  0  0  0  0  2  0  0  0  0  0  0
  191.4990  168.2290  141.9190 C   0  0  0  0  0  2  0  0  0  0  0  0
  191.9420  170.3470  143.1800 C   0  0  0  0  0  2  0  0  0  0  0  0
  193.6430  175.9040  146.2460 C   0  0  0  0  0  0  0  0  0  0  0  0
  191.1890  177.3650  148.4310 O   0  0  0  0  0  0  0  0  0  0  0  0
  194.8670  175.7540  146.5010 O   0  0  0  0  0  0  0  0  0  0  0  0
  190.9250  175.2880  147.3730 C   0  0  0  0  0  3  0  0  0  0  0  0
  191.5380  175.2270  144.9700 C   0  0  1  0  0  3  0  0  0  0  0  0
  192.9060  176.8050  147.0250 O   0  0  0  0  0  0  0  0  0  0  0  0
  190.8900  174.6680  146.1980 C   0  0  0  0  0  3  0  0  0  0  0  0
  193.0710  175.1930  145.0490 C   0  0  1  0  0  3  0  0  0  0  0  0
  193.6800  175.7980  143.7910 C   0  0  0  0  0  1  0  0  0  0  0  0
  191.6630  176.5360  147.6100 C   0  0  0  0  0  0  0  0  0  0  0  0
  189.8850  173.7900  138.1990 C   0  0  0  0  0  2  0  0  0  0  0  0
  189.2000  174.1650  137.0430 O   0  0  0  0  0  1  0  0  0  0  0  0
  1  3  1  0  0  0  0
  1 15  1  0  0  0  0
  2  4  1  0  0  0  0
  2  7  2  0  0  0  0
  4  1  2  0  0  0  0
  5  2  1  0  0  0  0
  6 20  1  0  0  0  0
  7 14  1  0  0  0  0
  8  9  1  0  0  0  0
  8 19  1  0  0  0  0
  9 11  1  6  0  0  0
  9 16  1  0  0  0  0
 10 13  1  0  0  0  0
 10  4  1  0  0  0  0
 11  5  1  0  0  0  0
 12 10  2  0  0  0  0
 13 18  1  0  0  0  0
 14 15  2  0  0  0  0
 16  7  1  0  0  0  0
 16 20  1  1  0  0  0
 17 31  1  6  0  0  0
 17 12  1  0  0  0  0
 17  5  1  0  0  0  0
 18  3  1  0  0  0  0
 19  6  1  0  0  0  0
 21 23  2  0  0  0  0
 21 26  1  0  0  0  0
 24 30  1  0  0  0  0
 25 15  1  6  0  0  0
 25 28  1  0  0  0  0
 25 27  1  0  0  0  0
 26 30  1  0  0  0  0
 27 24  2  0  0  0  0
 28 29  1  6  0  0  0
 28 21  1  0  0  0  0
 30 22  2  0  0  0  0
 32 31  1  0  0  0  0
M  END
>  <MODEL>
9

>  <REMARK>
 VINA RESULT:      -6.6      3.655      7.350
  Name = 
  2 active torsions:
  status: ('A' for Active; 'I' for Inactive)
    1  A    between atoms: C_13  and  C_29
    2  A    between atoms: C_16  and  C_27
                            x       y       z     vdW  Elec       q    Type
                         _______ _______ _______ _____ _____    ______ ____

>  <TORSDO>
F 2

$$$$
