=
 OpenBabel11052421253D

 32 37  0  0  1  0  0  0  0  0999 V2000
  192.8150  175.8140  146.6790 C   0  0  0  0  0  3  0  0  0  0  0  0
  188.3270  176.2560  144.0650 C   0  0  0  0  0  0  0  0  0  0  0  0
  185.6120  177.9030  147.9070 C   0  0  0  0  0  3  0  0  0  0  0  0
  184.7170  178.3420  147.0270 C   0  0  0  0  0  3  0  0  0  0  0  0
  187.4000  176.4700  141.7230 N   0  0  0  0  0  0  0  0  0  0  0  0
  186.3780  177.0630  140.9220 C   0  0  0  0  0  0  0  0  0  0  0  0
  190.4830  175.0480  144.6160 C   0  0  2  0  0  3  0  0  0  0  0  0
  189.2000  175.8810  146.4070 C   0  0  0  0  0  2  0  0  0  0  0  0
  184.4820  178.1250  140.5600 N   0  0  0  0  0  0  0  0  0  0  0  0
  191.4160  175.2730  146.7980 C   0  0  0  0  0  2  0  0  0  0  0  0
  186.8560  177.1800  147.4780 C   0  0  0  0  0  3  0  0  0  0  0  0
  188.1660  176.4370  145.4570 C   0  0  0  0  0  0  0  0  0  0  0  0
  187.0090  177.0430  145.9740 C   0  0  0  0  0  0  0  0  0  0  0  0
  186.1570  177.3590  143.7020 C   0  0  0  0  0  0  0  0  0  0  0  0
  184.9750  177.7210  139.3670 C   0  0  0  0  0  3  0  0  0  0  0  0
  192.8150  175.9260  144.1590 C   0  0  0  0  0  2  0  0  0  0  0  0
  190.5330  175.8930  145.8180 N   0  0  1  0  0  0  0  0  0  0  0  0
  186.1830  177.0330  139.5520 C   0  0  0  0  0  3  0  0  0  0  0  0
  191.8750  174.7310  144.0470 C   0  0  0  0  0  2  0  0  0  0  0  0
  193.4630  176.0380  145.5190 C   0  0  0  0  0  0  0  0  0  0  0  0
  184.9230  178.1370  145.5880 C   0  0  0  0  0  3  0  0  0  0  0  0
  186.0120  177.5220  145.0960 C   0  0  2  0  0  3  0  0  0  0  0  0
  185.2320  177.8420  142.9040 N   0  0  0  0  0  0  0  0  0  0  0  0
  189.6520  175.7490  143.5470 C   0  0  0  0  0  2  0  0  0  0  0  0
  188.3020  175.5180  141.0880 C   0  0  0  0  0  1  0  0  0  0  0  0
  183.2390  178.8420  140.7800 C   0  0  0  0  0  1  0  0  0  0  0  0
  187.3100  176.6810  143.1700 C   0  0  0  0  0  0  0  0  0  0  0  0
  185.3500  177.7130  141.4890 C   0  0  0  0  0  0  0  0  0  0  0  0
  194.8680  176.5430  145.5850 C   0  0  0  0  0  2  0  0  0  0  0  0
  195.6590  176.1200  144.3570 C   0  0  2  0  0  3  0  0  0  0  0  0
  196.4980  174.9840  144.6930 N   0  0  0  0  0  1  0  0  0  0  0  0
  196.4620  177.1740  143.9220 O   0  0  0  0  0  1  0  0  0  0  0  0
  1 10  1  0  0  0  0
  2 12  1  0  0  0  0
  4  3  1  0  0  0  0
  5 27  1  0  0  0  0
  6 28  2  0  0  0  0
  6  5  1  0  0  0  0
  7 24  1  6  0  0  0
  7 17  1  0  0  0  0
  9 26  1  0  0  0  0
  9 28  1  0  0  0  0
 11  3  2  0  0  0  0
 12 13  2  0  0  0  0
 12  8  1  0  0  0  0
 13 11  1  0  0  0  0
 14 22  1  0  0  0  0
 15 18  2  0  0  0  0
 15  9  1  0  0  0  0
 16 20  1  0  0  0  0
 17  8  1  1  0  0  0
 17 10  1  0  0  0  0
 18  6  1  0  0  0  0
 19 16  1  0  0  0  0
 19  7  1  0  0  0  0
 20 29  1  0  0  0  0
 20  1  2  0  0  0  0
 21  4  2  0  0  0  0
 22 21  1  6  0  0  0
 22 13  1  0  0  0  0
 23 14  2  0  0  0  0
 24  2  1  0  0  0  0
 25  5  1  0  0  0  0
 27 14  1  0  0  0  0
 27  2  2  0  0  0  0
 28 23  1  0  0  0  0
 30 32  1  1  0  0  0
 30 31  1  0  0  0  0
 30 29  1  0  0  0  0
M  END
>  <MODEL>
1

>  <REMARK>
 VINA RESULT:      -8.7      0.000      0.000
  Name = 
  2 active torsions:
  status: ('A' for Active; 'I' for Inactive)
    1  A    between atoms: C_1  and  C_10
    2  A    between atoms: C_10  and  C_24
                            x       y       z     vdW  Elec       q    Type
                         _______ _______ _______ _____ _____    ______ ____

>  <TORSDO>
F 2

$$$$
=
 OpenBabel11052421253D

 32 37  0  0  1  0  0  0  0  0999 V2000
  192.7630  175.3200  146.7550 C   0  0  0  0  0  3  0  0  0  0  0  0
  189.4470  174.9000  142.7550 C   0  0  0  0  0  0  0  0  0  0  0  0
  186.4230  178.6070  144.1550 C   0  0  0  0  0  3  0  0  0  0  0  0
  185.9580  178.6360  142.9100 C   0  0  0  0  0  3  0  0  0  0  0  0
  189.2690  173.9900  140.4030 N   0  0  0  0  0  0  0  0  0  0  0  0
  188.7130  174.2070  139.1070 C   0  0  0  0  0  0  0  0  0  0  0  0
  190.9350  173.8940  144.5400 C   0  0  2  0  0  3  0  0  0  0  0  0
  189.5270  175.6790  145.1580 C   0  0  0  0  0  2  0  0  0  0  0  0
  187.3720  175.1540  137.6370 N   0  0  0  0  0  0  0  0  0  0  0  0
  191.2870  175.0930  146.5700 C   0  0  0  0  0  2  0  0  0  0  0  0
  187.4700  177.6200  144.5870 C   0  0  0  0  0  3  0  0  0  0  0  0
  188.9870  175.7890  143.7520 C   0  0  0  0  0  0  0  0  0  0  0  0
  187.9640  176.7110  143.4760 C   0  0  0  0  0  0  0  0  0  0  0  0
  187.8670  175.9150  141.1640 C   0  0  0  0  0  0  0  0  0  0  0  0
  188.0210  174.1370  137.0250 C   0  0  0  0  0  3  0  0  0  0  0  0
  193.4560  174.1190  144.6470 C   0  0  0  0  0  2  0  0  0  0  0  0
  190.9120  175.2240  145.1670 N   0  0  1  0  0  0  0  0  0  0  0  0
  188.8830  173.5000  137.9290 C   0  0  0  0  0  3  0  0  0  0  0  0
  192.2720  173.1620  144.7340 C   0  0  0  0  0  2  0  0  0  0  0  0
  193.7280  174.8340  145.9500 C   0  0  0  0  0  0  0  0  0  0  0  0
  186.4650  177.6970  141.9020 C   0  0  0  0  0  3  0  0  0  0  0  0
  187.4170  176.7880  142.1770 C   0  0  2  0  0  3  0  0  0  0  0  0
  187.3660  176.0270  139.9550 N   0  0  0  0  0  0  0  0  0  0  0  0
  190.6540  174.0410  143.0490 C   0  0  0  0  0  2  0  0  0  0  0  0
  189.9890  172.7450  140.6410 C   0  0  0  0  0  1  0  0  0  0  0  0
  186.3800  176.0280  137.0370 C   0  0  0  0  0  1  0  0  0  0  0  0
  188.8690  174.9240  141.4580 C   0  0  0  0  0  0  0  0  0  0  0  0
  187.8070  175.1760  138.9000 C   0  0  0  0  0  0  0  0  0  0  0  0
  195.1510  175.1250  146.3040 C   0  0  0  0  0  2  0  0  0  0  0  0
  196.1020  174.2380  145.5160 C   0  0  2  0  0  3  0  0  0  0  0  0
  197.0210  173.5860  146.4310 N   0  0  0  0  0  1  0  0  0  0  0  0
  196.8270  175.0070  144.6050 O   0  0  0  0  0  1  0  0  0  0  0  0
  2 24  1  0  0  0  0
  2 12  1  0  0  0  0
  3 11  2  0  0  0  0
  4  3  1  0  0  0  0
  5 25  1  0  0  0  0
  5 27  1  0  0  0  0
  6  5  1  0  0  0  0
  7 24  1  6  0  0  0
  7 19  1  0  0  0  0
  7 17  1  0  0  0  0
  9 28  1  0  0  0  0
 10  1  1  0  0  0  0
 12  8  1  0  0  0  0
 13 12  2  0  0  0  0
 13 11  1  0  0  0  0
 14 27  1  0  0  0  0
 14 22  1  0  0  0  0
 15  9  1  0  0  0  0
 15 18  2  0  0  0  0
 16 19  1  0  0  0  0
 16 20  1  0  0  0  0
 17  8  1  1  0  0  0
 17 10  1  0  0  0  0
 18  6  1  0  0  0  0
 20 29  1  0  0  0  0
 20  1  2  0  0  0  0
 21  4  2  0  0  0  0
 22 21  1  6  0  0  0
 22 13  1  0  0  0  0
 23 14  2  0  0  0  0
 26  9  1  0  0  0  0
 27  2  2  0  0  0  0
 28  6  2  0  0  0  0
 28 23  1  0  0  0  0
 30 32  1  6  0  0  0
 30 29  1  0  0  0  0
 30 31  1  0  0  0  0
M  END
>  <MODEL>
2

>  <REMARK>
 VINA RESULT:      -7.9      2.114      3.182
  Name = 
  2 active torsions:
  status: ('A' for Active; 'I' for Inactive)
    1  A    between atoms: C_1  and  C_10
    2  A    between atoms: C_10  and  C_24
                            x       y       z     vdW  Elec       q    Type
                         _______ _______ _______ _____ _____    ______ ____

>  <TORSDO>
F 2

$$$$
=
 OpenBabel11052421253D

 32 37  0  0  1  0  0  0  0  0999 V2000
  187.2360  178.2680  143.8730 C   0  0  0  0  0  3  0  0  0  0  0  0
  190.6530  174.3930  143.1760 C   0  0  0  0  0  0  0  0  0  0  0  0
  194.1830  176.2250  146.1810 C   0  0  0  0  0  3  0  0  0  0  0  0
  194.7160  175.0080  146.2200 C   0  0  0  0  0  3  0  0  0  0  0  0
  190.8050  171.9840  142.4260 N   0  0  0  0  0  0  0  0  0  0  0  0
  191.4640  170.7350  142.6370 C   0  0  0  0  0  0  0  0  0  0  0  0
  188.9160  176.0240  142.3170 C   0  0  2  0  0  3  0  0  0  0  0  0
  190.5710  176.8470  143.7770 C   0  0  0  0  0  2  0  0  0  0  0  0
  193.0280  169.4090  143.4410 N   0  0  0  0  0  0  0  0  0  0  0  0
  188.6590  178.1290  143.4060 C   0  0  0  0  0  2  0  0  0  0  0  0
  192.9600  176.5280  145.3630 C   0  0  0  0  0  3  0  0  0  0  0  0
  191.2010  175.4800  143.8940 C   0  0  0  0  0  0  0  0  0  0  0  0
  192.3810  175.3250  144.6410 C   0  0  0  0  0  0  0  0  0  0  0  0
  192.4720  172.9620  144.0140 C   0  0  0  0  0  0  0  0  0  0  0  0
  192.2510  168.6870  142.6020 C   0  0  0  0  0  3  0  0  0  0  0  0
  186.4690  176.0410  142.9720 C   0  0  0  0  0  2  0  0  0  0  0  0
  189.1310  176.7590  143.5720 N   0  0  1  0  0  0  0  0  0  0  0  0
  191.2420  169.4970  142.0610 C   0  0  0  0  0  3  0  0  0  0  0  0
  187.4640  176.0980  141.8180 C   0  0  0  0  0  2  0  0  0  0  0  0
  186.2500  177.3850  143.6260 C   0  0  0  0  0  0  0  0  0  0  0  0
  194.1140  173.9040  145.4620 C   0  0  0  0  0  3  0  0  0  0  0  0
  193.0070  174.0620  144.7170 C   0  0  2  0  0  3  0  0  0  0  0  0
  193.0520  171.7890  144.1260 N   0  0  0  0  0  0  0  0  0  0  0  0
  189.3020  174.5630  142.5220 C   0  0  0  0  0  2  0  0  0  0  0  0
  189.8710  172.0870  141.3120 C   0  0  0  0  0  1  0  0  0  0  0  0
  194.1880  168.9270  144.1700 C   0  0  0  0  0  1  0  0  0  0  0  0
  191.2990  173.1290  143.1950 C   0  0  0  0  0  0  0  0  0  0  0  0
  192.5320  170.6490  143.4450 C   0  0  0  0  0  0  0  0  0  0  0  0
  184.8800  177.7000  144.1340 C   0  0  0  0  0  2  0  0  0  0  0  0
  184.9150  178.0670  145.6090 C   0  0  2  0  0  3  0  0  0  0  0  0
  184.9970  176.8550  146.4040 N   0  0  0  0  0  1  0  0  0  0  0  0
  183.7590  178.7680  145.9540 O   0  0  0  0  0  1  0  0  0  0  0  0
  2 27  2  0  0  0  0
  2 12  1  0  0  0  0
  3  4  1  0  0  0  0
  5  6  1  0  0  0  0
  5 27  1  0  0  0  0
  6 28  2  0  0  0  0
  7 19  1  1  0  0  0
  7 24  1  0  0  0  0
  7 17  1  0  0  0  0
  8 12  1  0  0  0  0
  9 28  1  0  0  0  0
  9 26  1  0  0  0  0
 10  1  1  0  0  0  0
 11  3  2  0  0  0  0
 12 13  2  0  0  0  0
 13 22  1  0  0  0  0
 13 11  1  0  0  0  0
 14 23  2  0  0  0  0
 14 22  1  0  0  0  0
 15  9  1  0  0  0  0
 16 20  1  0  0  0  0
 17 10  1  6  0  0  0
 17  8  1  0  0  0  0
 18 15  2  0  0  0  0
 18  6  1  0  0  0  0
 19 16  1  0  0  0  0
 20  1  2  0  0  0  0
 20 29  1  0  0  0  0
 21  4  2  0  0  0  0
 22 21  1  1  0  0  0
 24  2  1  0  0  0  0
 25  5  1  0  0  0  0
 27 14  1  0  0  0  0
 28 23  1  0  0  0  0
 29 30  1  0  0  0  0
 30 32  1  1  0  0  0
 30 31  1  0  0  0  0
M  END
>  <MODEL>
3

>  <REMARK>
 VINA RESULT:      -7.8      3.878      8.363
  Name = 
  2 active torsions:
  status: ('A' for Active; 'I' for Inactive)
    1  A    between atoms: C_1  and  C_10
    2  A    between atoms: C_10  and  C_24
                            x       y       z     vdW  Elec       q    Type
                         _______ _______ _______ _____ _____    ______ ____

>  <TORSDO>
F 2

$$$$
=
 OpenBabel11052421253D

 32 37  0  0  1  0  0  0  0  0999 V2000
  187.3970  177.3440  146.3330 C   0  0  0  0  0  3  0  0  0  0  0  0
  189.8500  174.4470  142.7590 C   0  0  0  0  0  0  0  0  0  0  0  0
  193.7040  173.1580  145.6460 C   0  0  0  0  0  3  0  0  0  0  0  0
  193.9480  172.1650  144.7970 C   0  0  0  0  0  3  0  0  0  0  0  0
  189.4530  173.1880  140.6040 N   0  0  0  0  0  0  0  0  0  0  0  0
  189.8130  172.0350  139.8420 C   0  0  0  0  0  0  0  0  0  0  0  0
  188.5260  176.4910  143.4550 C   0  0  2  0  0  3  0  0  0  0  0  0
  190.3250  175.8260  144.8240 C   0  0  0  0  0  2  0  0  0  0  0  0
  191.0370  170.2770  139.3300 N   0  0  0  0  0  0  0  0  0  0  0  0
  188.7520  177.3200  145.6790 C   0  0  0  0  0  2  0  0  0  0  0  0
  192.5810  174.1310  145.4260 C   0  0  0  0  0  3  0  0  0  0  0  0
  190.6300  174.6560  143.9190 C   0  0  0  0  0  0  0  0  0  0  0  0
  191.7440  173.8460  144.1910 C   0  0  0  0  0  0  0  0  0  0  0  0
  191.2980  172.5480  142.1660 C   0  0  0  0  0  0  0  0  0  0  0  0
  190.1160  170.4500  138.3550 C   0  0  0  0  0  3  0  0  0  0  0  0
  186.1460  176.4710  144.3240 C   0  0  0  0  0  2  0  0  0  0  0  0
  188.9020  176.1420  144.8330 N   0  0  1  0  0  0  0  0  0  0  0  0
  189.3170  171.5660  138.6380 C   0  0  0  0  0  3  0  0  0  0  0  0
  187.1280  177.1220  143.3560 C   0  0  0  0  0  2  0  0  0  0  0  0
  186.2370  177.0380  145.7210 C   0  0  0  0  0  0  0  0  0  0  0  0
  193.1120  171.9790  143.6050 C   0  0  0  0  0  3  0  0  0  0  0  0
  192.0680  172.7790  143.3250 C   0  0  2  0  0  3  0  0  0  0  0  0
  191.5990  171.5290  141.3920 N   0  0  0  0  0  0  0  0  0  0  0  0
  188.5720  175.2340  142.5920 C   0  0  0  0  0  2  0  0  0  0  0  0
  188.5660  174.1660  139.9880 C   0  0  0  0  0  1  0  0  0  0  0  0
  192.0580  169.2450  139.3780 C   0  0  0  0  0  1  0  0  0  0  0  0
  190.1930  173.4140  141.8470 C   0  0  0  0  0  0  0  0  0  0  0  0
  190.8340  171.2510  140.2220 C   0  0  0  0  0  0  0  0  0  0  0  0
  184.9740  177.1520  146.5120 C   0  0  0  0  0  2  0  0  0  0  0  0
  184.4880  178.5930  146.5610 C   0  0  2  0  0  3  0  0  0  0  0  0
  184.1510  179.0320  145.2190 N   0  0  0  0  0  1  0  0  0  0  0  0
  185.4880  179.4160  147.0780 O   0  0  0  0  0  1  0  0  0  0  0  0
  2 12  1  0  0  0  0
  4  3  1  0  0  0  0
  5 27  1  0  0  0  0
  6 28  2  0  0  0  0
  6  5  1  0  0  0  0
  7 24  1  6  0  0  0
  7 17  1  0  0  0  0
  9 26  1  0  0  0  0
  9 28  1  0  0  0  0
 10  1  1  0  0  0  0
 11  3  2  0  0  0  0
 12 13  2  0  0  0  0
 12  8  1  0  0  0  0
 13 11  1  0  0  0  0
 14 22  1  0  0  0  0
 15 18  2  0  0  0  0
 15  9  1  0  0  0  0
 16 20  1  0  0  0  0
 17  8  1  6  0  0  0
 17 10  1  0  0  0  0
 18  6  1  0  0  0  0
 19  7  1  0  0  0  0
 19 16  1  0  0  0  0
 20  1  2  0  0  0  0
 20 29  1  0  0  0  0
 21  4  2  0  0  0  0
 22 21  1  1  0  0  0
 22 13  1  0  0  0  0
 23 14  2  0  0  0  0
 24  2  1  0  0  0  0
 25  5  1  0  0  0  0
 27 14  1  0  0  0  0
 27  2  2  0  0  0  0
 28 23  1  0  0  0  0
 29 30  1  0  0  0  0
 30 31  1  6  0  0  0
 30 32  1  0  0  0  0
M  END
>  <MODEL>
4

>  <REMARK>
 VINA RESULT:      -7.6      3.882      7.719
  Name = 
  2 active torsions:
  status: ('A' for Active; 'I' for Inactive)
    1  A    between atoms: C_1  and  C_10
    2  A    between atoms: C_10  and  C_24
                            x       y       z     vdW  Elec       q    Type
                         _______ _______ _______ _____ _____    ______ ____

>  <TORSDO>
F 2

$$$$
=
 OpenBabel11052421253D

 32 37  0  0  1  0  0  0  0  0999 V2000
  185.8380  177.4350  143.1530 C   0  0  0  0  0  3  0  0  0  0  0  0
  190.4670  175.0860  143.6350 C   0  0  0  0  0  0  0  0  0  0  0  0
  190.6250  173.2280  139.0130 C   0  0  0  0  0  3  0  0  0  0  0  0
  191.9360  173.0710  139.1700 C   0  0  0  0  0  3  0  0  0  0  0  0
  192.5810  175.1190  145.0200 N   0  0  0  0  0  0  0  0  0  0  0  0
  193.9980  174.9510  144.9910 C   0  0  0  0  0  0  0  0  0  0  0  0
  188.1920  175.7490  144.5300 C   0  0  2  0  0  3  0  0  0  0  0  0
  188.3080  174.9110  142.3310 C   0  0  0  0  0  2  0  0  0  0  0  0
  195.9230  174.3380  144.1120 N   0  0  0  0  0  0  0  0  0  0  0  0
  186.3830  176.0410  143.0050 C   0  0  0  0  0  2  0  0  0  0  0  0
  189.7550  173.7750  140.1080 C   0  0  0  0  0  2  0  0  0  0  0  0
  189.8060  174.7460  142.4340 C   0  0  0  0  0  0  0  0  0  0  0  0
  190.5100  174.1660  141.3660 C   0  0  0  0  0  0  0  0  0  0  0  0
  192.5840  174.3010  142.6570 C   0  0  0  0  0  0  0  0  0  0  0  0
  196.1460  174.7290  145.3880 C   0  0  0  0  0  3  0  0  0  0  0  0
  187.4290  178.1210  144.9860 C   0  0  0  0  0  2  0  0  0  0  0  0
  187.8350  176.0340  143.1320 N   0  0  1  0  0  0  0  0  0  0  0  0
  194.9420  175.1230  145.9890 C   0  0  0  0  0  3  0  0  0  0  0  0
  187.5110  176.6980  145.5290 C   0  0  0  0  0  2  0  0  0  0  0  0
  186.2460  178.3330  144.0710 C   0  0  0  0  0  0  0  0  0  0  0  0
  192.5850  173.4420  140.4340 C   0  0  0  0  0  3  0  0  0  0  0  0
  191.9040  173.9610  141.4690 C   0  0  0  0  0  0  0  0  0  0  0  0
  193.8860  174.1320  142.7190 N   0  0  0  0  0  0  0  0  0  0  0  0
  189.7050  175.8530  144.6910 C   0  0  0  0  0  2  0  0  0  0  0  0
  191.9410  175.3210  146.3140 C   0  0  0  0  0  1  0  0  0  0  0  0
  196.9170  173.8390  143.1780 C   0  0  0  0  0  1  0  0  0  0  0  0
  191.8570  174.8360  143.7790 C   0  0  0  0  0  0  0  0  0  0  0  0
  194.6120  174.4800  143.8940 C   0  0  0  0  0  0  0  0  0  0  0  0
  185.5660  179.6630  144.1030 C   0  0  0  0  0  2  0  0  0  0  0  0
  184.1480  179.5400  144.6380 C   0  0  2  0  0  3  0  0  0  0  0  0
  184.1400  178.6380  145.7750 N   0  0  0  0  0  1  0  0  0  0  0  0
  183.3060  179.0380  143.6450 O   0  0  0  0  0  1  0  0  0  0  0  0
  1 20  2  0  0  0  0
  2 27  2  0  0  0  0
  2 24  1  0  0  0  0
  3  4  2  0  0  0  0
  3 11  1  0  0  0  0
  4 21  1  0  0  0  0
  5 25  1  0  0  0  0
  6  5  1  0  0  0  0
  6 18  1  0  0  0  0
  7 24  1  6  0  0  0
  7 19  1  0  0  0  0
  8 12  1  0  0  0  0
  9 15  1  0  0  0  0
 10 17  1  0  0  0  0
 10  1  1  0  0  0  0
 11 13  1  0  0  0  0
 12  2  1  0  0  0  0
 13 22  1  0  0  0  0
 13 12  2  0  0  0  0
 14 23  2  0  0  0  0
 14 27  1  0  0  0  0
 15 18  2  0  0  0  0
 16 19  1  0  0  0  0
 17  8  1  6  0  0  0
 17  7  1  0  0  0  0
 20 29  1  0  0  0  0
 20 16  1  0  0  0  0
 21 22  2  0  0  0  0
 22 14  1  0  0  0  0
 23 28  1  0  0  0  0
 26  9  1  0  0  0  0
 27  5  1  0  0  0  0
 28  9  1  0  0  0  0
 28  6  2  0  0  0  0
 29 30  1  0  0  0  0
 30 32  1  6  0  0  0
 30 31  1  0  0  0  0
M  END
>  <MODEL>
5

>  <REMARK>
 VINA RESULT:      -7.6      3.180      8.867
  Name = 
  2 active torsions:
  status: ('A' for Active; 'I' for Inactive)
    1  A    between atoms: C_1  and  C_10
    2  A    between atoms: C_10  and  C_24
                            x       y       z     vdW  Elec       q    Type
                         _______ _______ _______ _____ _____    ______ ____

>  <TORSDO>
F 2

$$$$
=
 OpenBabel11052421253D

 32 37  0  0  1  0  0  0  0  0999 V2000
  195.0450  173.3350  142.1590 C   0  0  0  0  0  3  0  0  0  0  0  0
  190.3770  175.3380  143.3280 C   0  0  0  0  0  0  0  0  0  0  0  0
  191.4940  176.6480  148.0060 C   0  0  0  0  0  3  0  0  0  0  0  0
  190.4420  177.4600  147.9810 C   0  0  0  0  0  3  0  0  0  0  0  0
  188.2860  176.2710  142.2560 N   0  0  0  0  0  0  0  0  0  0  0  0
  187.2450  177.2410  142.3770 C   0  0  0  0  0  0  0  0  0  0  0  0
  191.8500  173.5890  142.2410 C   0  0  2  0  0  3  0  0  0  0  0  0
  192.3790  174.2650  144.4350 C   0  0  0  0  0  2  0  0  0  0  0  0
  186.0290  178.7510  143.4220 N   0  0  0  0  0  0  0  0  0  0  0  0
  193.9800  173.1070  143.1970 C   0  0  0  0  0  2  0  0  0  0  0  0
  191.8540  175.7800  146.8330 C   0  0  0  0  0  3  0  0  0  0  0  0
  191.2220  175.2350  144.4550 C   0  0  0  0  0  0  0  0  0  0  0  0
  190.9440  175.9520  145.6300 C   0  0  0  0  0  0  0  0  0  0  0  0
  188.9830  176.9500  144.5600 C   0  0  0  0  0  0  0  0  0  0  0  0
  185.4730  178.5250  142.2100 C   0  0  0  0  0  3  0  0  0  0  0  0
  193.4510  174.0050  140.3230 C   0  0  0  0  0  2  0  0  0  0  0  0
  192.9280  174.1110  143.0930 N   0  0  1  0  0  0  0  0  0  0  0  0
  186.2140  177.5620  141.5110 C   0  0  0  0  0  3  0  0  0  0  0  0
  192.3490  173.1050  140.8700 C   0  0  0  0  0  2  0  0  0  0  0  0
  194.8160  173.6630  140.8730 C   0  0  0  0  0  0  0  0  0  0  0  0
  189.5910  177.5420  146.7880 C   0  0  0  0  0  3  0  0  0  0  0  0
  189.8350  176.8250  145.6770 C   0  0  2  0  0  3  0  0  0  0  0  0
  187.9760  177.7920  144.6150 N   0  0  0  0  0  0  0  0  0  0  0  0
  190.8020  174.6780  142.0380 C   0  0  0  0  0  2  0  0  0  0  0  0
  188.2020  175.3080  141.1650 C   0  0  0  0  0  1  0  0  0  0  0  0
  185.5340  179.6600  144.4410 C   0  0  0  0  0  1  0  0  0  0  0  0
  189.2250  176.1680  143.3750 C   0  0  0  0  0  0  0  0  0  0  0  0
  187.1030  177.9600  143.5010 C   0  0  0  0  0  0  0  0  0  0  0  0
  195.9940  173.8140  139.9660 C   0  0  0  0  0  2  0  0  0  0  0  0
  196.1410  175.2530  139.4950 C   0  0  2  0  0  3  0  0  0  0  0  0
  197.0310  175.2960  138.3490 N   0  0  0  0  0  1  0  0  0  0  0  0
  196.6700  176.0380  140.5200 O   0  0  0  0  0  1  0  0  0  0  0  0
  1 10  1  0  0  0  0
  2 27  2  0  0  0  0
  2 12  1  0  0  0  0
  4  3  1  0  0  0  0
  5  6  1  0  0  0  0
  5 27  1  0  0  0  0
  6 28  2  0  0  0  0
  7 19  1  6  0  0  0
  7 17  1  0  0  0  0
  8 12  1  0  0  0  0
  9 28  1  0  0  0  0
  9 26  1  0  0  0  0
 11  3  2  0  0  0  0
 12 13  2  0  0  0  0
 13 22  1  0  0  0  0
 13 11  1  0  0  0  0
 14 23  2  0  0  0  0
 14 22  1  0  0  0  0
 15  9  1  0  0  0  0
 16 19  1  0  0  0  0
 16 20  1  0  0  0  0
 17 10  1  1  0  0  0
 17  8  1  0  0  0  0
 18 15  2  0  0  0  0
 18  6  1  0  0  0  0
 20  1  2  0  0  0  0
 21  4  2  0  0  0  0
 22 21  1  6  0  0  0
 24  7  1  0  0  0  0
 24  2  1  0  0  0  0
 25  5  1  0  0  0  0
 27 14  1  0  0  0  0
 28 23  1  0  0  0  0
 29 20  1  0  0  0  0
 30 31  1  6  0  0  0
 30 29  1  0  0  0  0
 30 32  1  0  0  0  0
M  END
>  <MODEL>
6

>  <REMARK>
 VINA RESULT:      -7.5      2.738      4.076
  Name = 
  2 active torsions:
  status: ('A' for Active; 'I' for Inactive)
    1  A    between atoms: C_1  and  C_10
    2  A    between atoms: C_10  and  C_24
                            x       y       z     vdW  Elec       q    Type
                         _______ _______ _______ _____ _____    ______ ____

>  <TORSDO>
F 2

$$$$
=
 OpenBabel11052421253D

 32 37  0  0  1  0  0  0  0  0999 V2000
  186.4260  176.4070  142.7110 C   0  0  0  0  0  3  0  0  0  0  0  0
  191.4880  175.1720  142.5430 C   0  0  0  0  0  0  0  0  0  0  0  0
  191.2320  172.3570  138.4370 C   0  0  0  0  0  3  0  0  0  0  0  0
  192.5480  172.4970  138.3150 C   0  0  0  0  0  3  0  0  0  0  0  0
  193.7510  175.9320  143.3730 N   0  0  0  0  0  0  0  0  0  0  0  0
  195.1370  176.0380  143.0510 C   0  0  0  0  0  0  0  0  0  0  0  0
  189.3250  175.5730  143.7980 C   0  0  2  0  0  3  0  0  0  0  0  0
  189.2310  174.2860  141.8270 C   0  0  0  0  0  2  0  0  0  0  0  0
  196.9580  175.6200  141.8820 N   0  0  0  0  0  0  0  0  0  0  0  0
  187.2500  175.1490  142.7030 C   0  0  0  0  0  2  0  0  0  0  0  0
  190.4730  172.9660  139.5820 C   0  0  0  0  0  2  0  0  0  0  0  0
  190.7180  174.4410  141.6110 C   0  0  0  0  0  0  0  0  0  0  0  0
  191.3320  173.7760  140.5370 C   0  0  0  0  0  0  0  0  0  0  0  0
  193.5150  174.6040  141.2680 C   0  0  0  0  0  0  0  0  0  0  0  0
  197.3110  176.3320  142.9770 C   0  0  0  0  0  3  0  0  0  0  0  0
  188.1170  177.7940  143.9680 C   0  0  0  0  0  2  0  0  0  0  0  0
  188.6610  175.4510  142.4920 N   0  0  1  0  0  0  0  0  0  0  0  0
  196.1800  176.6150  143.7550 C   0  0  0  0  0  3  0  0  0  0  0  0
  188.6330  176.5790  144.7320 C   0  0  0  0  0  2  0  0  0  0  0  0
  186.7710  177.5550  143.3260 C   0  0  0  0  0  0  0  0  0  0  0  0
  193.3110  173.2690  139.3030 C   0  0  0  0  0  3  0  0  0  0  0  0
  192.7280  173.8720  140.3530 C   0  0  0  0  0  0  0  0  0  0  0  0
  194.8070  174.7080  141.0580 N   0  0  0  0  0  0  0  0  0  0  0  0
  190.7730  176.0010  143.5840 C   0  0  0  0  0  2  0  0  0  0  0  0
  193.3300  176.3020  144.7190 C   0  0  0  0  0  1  0  0  0  0  0  0
  197.8530  175.1190  140.8550 C   0  0  0  0  0  1  0  0  0  0  0  0
  192.9000  175.2340  142.4070 C   0  0  0  0  0  0  0  0  0  0  0  0
  195.6340  175.4520  141.9500 C   0  0  0  0  0  0  0  0  0  0  0  0
  185.8120  178.7000  143.2660 C   0  0  0  0  0  2  0  0  0  0  0  0
  184.4310  178.2830  143.7460 C   0  0  2  0  0  3  0  0  0  0  0  0
  183.4790  178.4340  142.6610 N   0  0  0  0  0  1  0  0  0  0  0  0
  184.0380  179.0820  144.8190 O   0  0  0  0  0  1  0  0  0  0  0  0
  1 20  2  0  0  0  0
  2 24  1  0  0  0  0
  3 11  1  0  0  0  0
  4  3  2  0  0  0  0
  4 21  1  0  0  0  0
  5 25  1  0  0  0  0
  6  5  1  0  0  0  0
  6 18  1  0  0  0  0
  7 24  1  6  0  0  0
  7 19  1  0  0  0  0
  9 28  1  0  0  0  0
  9 15  1  0  0  0  0
 10  1  1  0  0  0  0
 11 13  1  0  0  0  0
 12  8  1  0  0  0  0
 12  2  1  0  0  0  0
 13 12  2  0  0  0  0
 14 27  1  0  0  0  0
 15 18  2  0  0  0  0
 16 19  1  0  0  0  0
 17  8  1  6  0  0  0
 17 10  1  0  0  0  0
 17  7  1  0  0  0  0
 20 16  1  0  0  0  0
 21 22  2  0  0  0  0
 22 13  1  0  0  0  0
 22 14  1  0  0  0  0
 23 14  2  0  0  0  0
 23 28  1  0  0  0  0
 26  9  1  0  0  0  0
 27  2  2  0  0  0  0
 27  5  1  0  0  0  0
 28  6  2  0  0  0  0
 29 20  1  0  0  0  0
 29 30  1  0  0  0  0
 30 31  1  6  0  0  0
 30 32  1  0  0  0  0
M  END
>  <MODEL>
7

>  <REMARK>
 VINA RESULT:      -7.4      3.544      9.150
  Name = 
  2 active torsions:
  status: ('A' for Active; 'I' for Inactive)
    1  A    between atoms: C_1  and  C_10
    2  A    between atoms: C_10  and  C_24
                            x       y       z     vdW  Elec       q    Type
                         _______ _______ _______ _____ _____    ______ ____

>  <TORSDO>
F 2

$$$$
=
 OpenBabel11052421253D

 32 37  0  0  1  0  0  0  0  0999 V2000
  187.5810  176.0930  146.8920 C   0  0  0  0  0  3  0  0  0  0  0  0
  192.3290  175.0270  145.0220 C   0  0  0  0  0  0  0  0  0  0  0  0
  191.0710  170.7950  142.7070 C   0  0  0  0  0  3  0  0  0  0  0  0
  192.1870  170.9090  141.9920 C   0  0  0  0  0  3  0  0  0  0  0  0
  194.5440  176.1150  144.4760 N   0  0  0  0  0  0  0  0  0  0  0  0
  195.6530  176.1190  143.5770 C   0  0  0  0  0  0  0  0  0  0  0  0
  190.7770  175.8420  146.8500 C   0  0  2  0  0  3  0  0  0  0  0  0
  190.1880  173.8700  145.7040 C   0  0  0  0  0  2  0  0  0  0  0  0
  196.9310  175.3150  141.9730 N   0  0  0  0  0  0  0  0  0  0  0  0
  188.5660  174.9600  146.9760 C   0  0  0  0  0  2  0  0  0  0  0  0
  190.7060  171.7920  143.7690 C   0  0  0  0  0  3  0  0  0  0  0  0
  191.4180  173.9630  144.8330 C   0  0  0  0  0  0  0  0  0  0  0  0
  191.6900  172.9390  143.9110 C   0  0  0  0  0  0  0  0  0  0  0  0
  193.7820  174.0480  143.2930 C   0  0  0  0  0  0  0  0  0  0  0  0
  197.5320  176.4160  142.4810 C   0  0  0  0  0  3  0  0  0  0  0  0
  189.3220  177.9110  146.7250 C   0  0  0  0  0  2  0  0  0  0  0  0
  189.7010  175.1890  146.0900 N   0  0  1  0  0  0  0  0  0  0  0  0
  196.7520  176.9580  143.5130 C   0  0  0  0  0  3  0  0  0  0  0  0
  190.3150  177.1190  147.5680 C   0  0  0  0  0  2  0  0  0  0  0  0
  187.9060  177.4000  146.8510 C   0  0  0  0  0  0  0  0  0  0  0  0
  193.1050  172.0320  142.2160 C   0  0  0  0  0  3  0  0  0  0  0  0
  192.8630  172.9910  143.1260 C   0  0  2  0  0  3  0  0  0  0  0  0
  194.8500  174.0930  142.5290 N   0  0  0  0  0  0  0  0  0  0  0  0
  191.9210  176.1850  145.9010 C   0  0  0  0  0  2  0  0  0  0  0  0
  194.6070  176.9830  145.6450 C   0  0  0  0  0  1  0  0  0  0  0  0
  197.4440  174.4670  140.9120 C   0  0  0  0  0  1  0  0  0  0  0  0
  193.5400  175.0670  144.2820 C   0  0  0  0  0  0  0  0  0  0  0  0
  195.7930  175.1540  142.6550 C   0  0  0  0  0  0  0  0  0  0  0  0
  186.7950  178.3990  146.8070 C   0  0  0  0  0  2  0  0  0  0  0  0
  185.4690  177.7290  146.4850 C   0  0  2  0  0  3  0  0  0  0  0  0
  185.1640  177.9160  145.0790 N   0  0  0  0  0  1  0  0  0  0  0  0
  184.4510  178.2910  147.2560 O   0  0  0  0  0  1  0  0  0  0  0  0
  1 10  1  0  0  0  0
  2 24  1  0  0  0  0
  3 11  2  0  0  0  0
  4 21  2  0  0  0  0
  4  3  1  0  0  0  0
  5 25  1  0  0  0  0
  6  5  1  0  0  0  0
  7 24  1  6  0  0  0
  7 19  1  0  0  0  0
  9 15  1  0  0  0  0
  9 28  1  0  0  0  0
 11 13  1  0  0  0  0
 12  2  1  0  0  0  0
 12  8  1  0  0  0  0
 13 12  2  0  0  0  0
 14 27  1  0  0  0  0
 15 18  2  0  0  0  0
 16 20  1  0  0  0  0
 16 19  1  0  0  0  0
 17  8  1  1  0  0  0
 17  7  1  0  0  0  0
 17 10  1  0  0  0  0
 18  6  1  0  0  0  0
 20  1  2  0  0  0  0
 22 21  1  6  0  0  0
 22 14  1  0  0  0  0
 22 13  1  0  0  0  0
 23 28  1  0  0  0  0
 23 14  2  0  0  0  0
 26  9  1  0  0  0  0
 27  5  1  0  0  0  0
 27  2  2  0  0  0  0
 28  6  2  0  0  0  0
 29 20  1  0  0  0  0
 30 31  1  6  0  0  0
 30 29  1  0  0  0  0
 30 32  1  0  0  0  0
M  END
>  <MODEL>
8

>  <REMARK>
 VINA RESULT:      -7.2      3.923      8.682
  Name = 
  2 active torsions:
  status: ('A' for Active; 'I' for Inactive)
    1  A    between atoms: C_1  and  C_10
    2  A    between atoms: C_10  and  C_24
                            x       y       z     vdW  Elec       q    Type
                         _______ _______ _______ _____ _____    ______ ____

>  <TORSDO>
F 2

$$$$
=
 OpenBabel11052421253D

 32 37  0  0  1  0  0  0  0  0999 V2000
  191.4480  172.9330  139.7860 C   0  0  0  0  0  3  0  0  0  0  0  0
  188.7180  175.1610  143.6270 C   0  0  0  0  0  0  0  0  0  0  0  0
  192.4050  175.1830  146.9820 C   0  0  0  0  0  3  0  0  0  0  0  0
  191.7220  176.1000  147.6590 C   0  0  0  0  0  3  0  0  0  0  0  0
  186.6620  176.5690  144.0510 N   0  0  0  0  0  0  0  0  0  0  0  0
  186.1020  177.6030  144.8600 C   0  0  0  0  0  0  0  0  0  0  0  0
  188.9400  173.5500  141.6860 C   0  0  2  0  0  3  0  0  0  0  0  0
  190.6880  173.6190  143.2640 C   0  0  0  0  0  2  0  0  0  0  0  0
  186.0120  178.9620  146.5920 N   0  0  0  0  0  0  0  0  0  0  0  0
  191.0730  172.5990  141.2040 C   0  0  0  0  0  2  0  0  0  0  0  0
  191.8780  174.5780  145.7120 C   0  0  0  0  0  2  0  0  0  0  0  0
  189.9800  174.6910  144.0570 C   0  0  0  0  0  0  0  0  0  0  0  0
  190.5400  175.1400  145.2650 C   0  0  0  0  0  0  0  0  0  0  0  0
  188.6050  176.5940  145.6250 C   0  0  0  0  0  0  0  0  0  0  0  0
  184.8650  179.0980  145.8870 C   0  0  0  0  0  3  0  0  0  0  0  0
  189.3330  174.2070  139.2710 C   0  0  0  0  0  2  0  0  0  0  0  0
  190.3930  173.7200  141.8400 N   0  0  1  0  0  0  0  0  0  0  0  0
  184.8780  178.2430  144.7760 C   0  0  0  0  0  3  0  0  0  0  0  0
  188.5120  173.3460  140.2240 C   0  0  0  0  0  2  0  0  0  0  0  0
  190.6590  173.5810  138.9070 C   0  0  0  0  0  0  0  0  0  0  0  0
  190.4160  176.5650  147.1760 C   0  0  0  0  0  3  0  0  0  0  0  0
  189.8620  176.1060  146.0400 C   0  0  0  0  0  0  0  0  0  0  0  0
  188.0090  177.5170  146.3450 N   0  0  0  0  0  0  0  0  0  0  0  0
  188.2310  174.7760  142.2500 C   0  0  0  0  0  2  0  0  0  0  0  0
  185.7940  175.9090  143.0840 C   0  0  0  0  0  1  0  0  0  0  0  0
  186.3570  179.6580  147.8180 C   0  0  0  0  0  1  0  0  0  0  0  0
  187.9960  176.0910  144.4210 C   0  0  0  0  0  0  0  0  0  0  0  0
  186.7470  178.0480  145.9500 C   0  0  0  0  0  0  0  0  0  0  0  0
  191.1770  173.7960  137.5220 C   0  0  0  0  0  2  0  0  0  0  0  0
  190.0490  174.1430  136.5640 C   0  0  2  0  0  3  0  0  0  0  0  0
  189.7190  172.9750  135.7670 N   0  0  0  0  0  1  0  0  0  0  0  0
  190.4420  175.1810  135.7200 O   0  0  0  0  0  1  0  0  0  0  0  0
  1 10  1  0  0  0  0
  2 12  1  0  0  0  0
  2 27  2  0  0  0  0
  3  4  2  0  0  0  0
  5 27  1  0  0  0  0
  5  6  1  0  0  0  0
  6 28  2  0  0  0  0
  7 19  1  6  0  0  0
  7 17  1  0  0  0  0
  7 24  1  0  0  0  0
  8 12  1  0  0  0  0
  9 26  1  0  0  0  0
 11  3  1  0  0  0  0
 12 13  2  0  0  0  0
 13 11  1  0  0  0  0
 13 22  1  0  0  0  0
 14 22  1  0  0  0  0
 14 23  2  0  0  0  0
 15  9  1  0  0  0  0
 16 19  1  0  0  0  0
 17 10  1  6  0  0  0
 17  8  1  0  0  0  0
 18  6  1  0  0  0  0
 18 15  2  0  0  0  0
 20 16  1  0  0  0  0
 20  1  2  0  0  0  0
 21  4  1  0  0  0  0
 22 21  2  0  0  0  0
 24  2  1  0  0  0  0
 25  5  1  0  0  0  0
 27 14  1  0  0  0  0
 28 23  1  0  0  0  0
 28  9  1  0  0  0  0
 29 20  1  0  0  0  0
 30 32  1  6  0  0  0
 30 29  1  0  0  0  0
 31 30  1  0  0  0  0
M  END
>  <MODEL>
9

>  <REMARK>
 VINA RESULT:      -7.1      3.271      6.072
  Name = 
  2 active torsions:
  status: ('A' for Active; 'I' for Inactive)
    1  A    between atoms: C_1  and  C_10
    2  A    between atoms: C_10  and  C_24
                            x       y       z     vdW  Elec       q    Type
                         _______ _______ _______ _____ _____    ______ ____

>  <TORSDO>
F 2

$$$$
