=
 OpenBabel11052417323D

 25 28  0  0  1  0  0  0  0  0999 V2000
  187.4120  177.8930  144.0770 C   0  0  0  0  0  0  0  0  0  0  0  0
  188.7490  177.6530  144.4000 C   0  0  0  0  0  0  0  0  0  0  0  0
  187.9380  178.2460  141.7470 C   0  0  0  0  0  3  0  0  0  0  0  0
  186.2170  178.1620  144.9170 C   0  0  1  0  0  3  0  0  0  0  0  0
  183.7860  178.8130  145.9650 C   0  0  0  0  0  2  0  0  0  0  0  0
  189.2860  177.9600  142.0260 C   0  0  0  0  0  3  0  0  0  0  0  0
  185.0880  178.1170  143.9860 N   0  0  1  0  0  0  0  0  0  0  0  0
  184.0990  179.0740  144.4660 C   0  0  0  0  0  2  0  0  0  0  0  0
  191.0530  177.4100  143.6350 C   0  0  0  0  0  0  0  0  0  0  0  0
  192.0090  177.4090  142.6250 O   0  0  0  0  0  1  0  0  0  0  0  0
  189.1590  177.4070  145.7130 C   0  0  0  0  0  3  0  0  0  0  0  0
  184.4110  177.4970  146.5090 C   0  0  0  0  0  2  0  0  0  0  0  0
  187.0310  178.2070  142.8020 C   0  0  0  0  0  0  0  0  0  0  0  0
  185.6450  178.4980  142.7520 N   0  0  0  0  0  2  0  0  0  0  0  0
  191.4470  177.1570  144.9520 C   0  0  0  0  0  3  0  0  0  0  0  0
  185.8980  177.2960  146.1230 C   0  0  0  0  0  2  0  0  0  0  0  0
  190.5060  177.1570  145.9870 C   0  0  0  0  0  0  0  0  0  0  0  0
  189.7020  177.6640  143.3450 C   0  0  0  0  0  0  0  0  0  0  0  0
  191.0290  176.8450  147.6680 S   0  0  0  0  0  0  0  0  0  0  0  0
  191.0290  175.0430  147.4180 C   0  0  0  0  0  2  0  0  0  0  0  0
  189.6300  174.5560  147.0730 C   0  0  0  0  0  2  0  0  0  0  0  0
  189.6380  173.7330  145.7950 C   0  0  0  0  0  2  0  0  0  0  0  0
  190.9800  173.6850  145.2400 N   0  0  0  0  0  2  0  0  0  0  0  0
  190.8350  173.6660  143.7960 C   0  0  0  0  0  2  0  0  0  0  0  0
  189.4080  174.0150  143.4290 C   0  0  0  0  0  1  0  0  0  0  0  0
  1  2  1  0  0  0  0
  1  4  1  0  0  0  0
  2 11  1  0  0  0  0
  3  6  2  0  0  0  0
  3 13  1  0  0  0  0
  4 16  1  1  0  0  0
  5 12  1  0  0  0  0
  6 18  1  0  0  0  0
  7  8  1  1  0  0  0
  7  4  1  0  0  0  0
  8  5  1  0  0  0  0
  9 15  2  0  0  0  0
 10  9  1  0  0  0  0
 11 17  2  0  0  0  0
 13  1  2  0  0  0  0
 14 13  1  0  0  0  0
 14  7  1  0  0  0  0
 15 17  1  0  0  0  0
 16 12  1  0  0  0  0
 17 19  1  0  0  0  0
 18  9  1  0  0  0  0
 18  2  2  0  0  0  0
 20 19  1  0  0  0  0
 21 20  1  0  0  0  0
 22 21  1  0  0  0  0
 23 22  1  0  0  0  0
 24 23  1  0  0  0  0
 25 24  1  0  0  0  0
M  END
>  <MODEL>
1

>  <REMARK>
 VINA RESULT:      -6.6      0.000      0.000
  Name = 
  6 active torsions:
  status: ('A' for Active; 'I' for Inactive)
    1  A    between atoms: C_2  and  N_12
    2  A    between atoms: S_6  and  C_15
    3  A    between atoms: S_6  and  C_23
    4  A    between atoms: N_12  and  C_25
    5  A    between atoms: C_15  and  C_21
    6  A    between atoms: C_21  and  C_25
                            x       y       z     vdW  Elec       q    Type
                         _______ _______ _______ _____ _____    ______ ____

>  <TORSDO>
F 6

$$$$
=
 OpenBabel11052417323D

 25 28  0  0  1  0  0  0  0  0999 V2000
  185.8290  177.7800  143.7060 C   0  0  0  0  0  0  0  0  0  0  0  0
  186.4410  177.2730  144.8540 C   0  0  0  0  0  0  0  0  0  0  0  0
  184.0300  178.7620  144.9830 C   0  0  0  0  0  3  0  0  0  0  0  0
  186.0380  177.5060  142.2610 C   0  0  1  0  0  3  0  0  0  0  0  0
  185.9270  177.2800  139.5470 C   0  0  0  0  0  2  0  0  0  0  0  0
  184.6450  178.3110  146.1640 C   0  0  0  0  0  3  0  0  0  0  0  0
  185.2280  178.5110  141.5690 N   0  0  1  0  0  0  0  0  0  0  0  0
  184.7430  177.8970  140.3400 C   0  0  0  0  0  2  0  0  0  0  0  0
  186.4480  177.0850  147.2860 C   0  0  0  0  0  0  0  0  0  0  0  0
  185.8940  177.3570  148.5320 O   0  0  0  0  0  1  0  0  0  0  0  0
  187.6020  176.4980  144.7900 C   0  0  0  0  0  3  0  0  0  0  0  0
  187.3220  177.6530  140.1240 C   0  0  0  0  0  2  0  0  0  0  0  0
  184.6510  178.4710  143.7720 C   0  0  0  0  0  0  0  0  0  0  0  0
  184.1880  178.7940  142.4720 N   0  0  0  0  0  2  0  0  0  0  0  0
  187.6150  176.3180  147.2070 C   0  0  0  0  0  3  0  0  0  0  0  0
  187.4330  177.4980  141.6620 C   0  0  0  0  0  2  0  0  0  0  0  0
  188.1890  176.0250  145.9660 C   0  0  0  0  0  0  0  0  0  0  0  0
  185.8460  177.5660  146.1120 C   0  0  0  0  0  0  0  0  0  0  0  0
  189.6740  175.0330  145.8830 S   0  0  0  0  0  0  0  0  0  0  0  0
  190.4810  175.9850  147.2070 C   0  0  0  0  0  2  0  0  0  0  0  0
  191.9160  176.3120  146.8250 C   0  0  0  0  0  2  0  0  0  0  0  0
  192.2070  175.8990  145.3910 C   0  0  0  0  0  2  0  0  0  0  0  0
  192.6820  177.0410  144.6280 N   0  0  0  0  0  2  0  0  0  0  0  0
  191.7930  177.1820  143.4900 C   0  0  0  0  0  2  0  0  0  0  0  0
  190.7360  178.2200  143.8030 C   0  0  0  0  0  1  0  0  0  0  0  0
  1 13  2  0  0  0  0
  1  2  1  0  0  0  0
  2 18  1  0  0  0  0
  3  6  2  0  0  0  0
  4 16  1  6  0  0  0
  4  1  1  0  0  0  0
  5 12  1  0  0  0  0
  5  8  1  0  0  0  0
  7  8  1  6  0  0  0
  7  4  1  0  0  0  0
  7 14  1  0  0  0  0
  9 10  1  0  0  0  0
 11  2  2  0  0  0  0
 11 17  1  0  0  0  0
 12 16  1  0  0  0  0
 13  3  1  0  0  0  0
 14 13  1  0  0  0  0
 15  9  1  0  0  0  0
 17 15  2  0  0  0  0
 18  6  1  0  0  0  0
 18  9  2  0  0  0  0
 19 17  1  0  0  0  0
 19 20  1  0  0  0  0
 21 20  1  0  0  0  0
 22 21  1  0  0  0  0
 23 22  1  0  0  0  0
 24 25  1  0  0  0  0
 24 23  1  0  0  0  0
M  END
>  <MODEL>
2

>  <REMARK>
 VINA RESULT:      -6.4      2.505      4.344
  Name = 
  6 active torsions:
  status: ('A' for Active; 'I' for Inactive)
    1  A    between atoms: C_2  and  N_12
    2  A    between atoms: S_6  and  C_15
    3  A    between atoms: S_6  and  C_23
    4  A    between atoms: N_12  and  C_25
    5  A    between atoms: C_15  and  C_21
    6  A    between atoms: C_21  and  C_25
                            x       y       z     vdW  Elec       q    Type
                         _______ _______ _______ _____ _____    ______ ____

>  <TORSDO>
F 6

$$$$
=
 OpenBabel11052417323D

 25 28  0  0  1  0  0  0  0  0999 V2000
  186.2420  177.2220  144.0530 C   0  0  0  0  0  0  0  0  0  0  0  0
  187.3720  176.4660  144.3720 C   0  0  0  0  0  0  0  0  0  0  0  0
  185.6580  177.5020  146.3790 C   0  0  0  0  0  3  0  0  0  0  0  0
  185.5220  177.4470  142.7740 C   0  0  1  0  0  3  0  0  0  0  0  0
  183.7920  178.0740  140.7630 C   0  0  0  0  0  2  0  0  0  0  0  0
  186.8140  176.7880  146.7380 C   0  0  0  0  0  3  0  0  0  0  0  0
  184.5510  178.5010  143.0730 N   0  0  1  0  0  0  0  0  0  0  0  0
  183.3760  178.2460  142.2490 C   0  0  0  0  0  2  0  0  0  0  0  0
  188.8150  175.5240  146.0990 C   0  0  0  0  0  0  0  0  0  0  0  0
  189.1420  175.3140  147.4340 O   0  0  0  0  0  1  0  0  0  0  0  0
  188.1930  175.9130  143.3840 C   0  0  0  0  0  3  0  0  0  0  0  0
  185.2820  178.4300  140.4910 C   0  0  0  0  0  2  0  0  0  0  0  0
  185.4030  177.6930  145.0240 C   0  0  0  0  0  0  0  0  0  0  0  0
  184.2850  178.3430  144.4450 N   0  0  0  0  0  2  0  0  0  0  0  0
  189.6320  174.9850  145.1000 C   0  0  0  0  0  3  0  0  0  0  0  0
  186.2750  177.8140  141.5080 C   0  0  0  0  0  2  0  0  0  0  0  0
  189.3230  175.1770  143.7490 C   0  0  0  0  0  0  0  0  0  0  0  0
  187.6750  176.2650  145.7460 C   0  0  0  0  0  0  0  0  0  0  0  0
  190.3700  174.4690  142.4860 S   0  0  0  0  0  0  0  0  0  0  0  0
  191.8390  174.5280  143.5570 C   0  0  0  0  0  2  0  0  0  0  0  0
  192.7580  175.6630  143.1340 C   0  0  0  0  0  2  0  0  0  0  0  0
  193.0040  176.6260  144.2850 C   0  0  0  0  0  2  0  0  0  0  0  0
  194.1920  176.2300  145.0220 N   0  0  0  0  0  2  0  0  0  0  0  0
  194.0050  176.6800  146.3890 C   0  0  0  0  0  2  0  0  0  0  0  0
  192.6590  176.2070  146.8950 C   0  0  0  0  0  1  0  0  0  0  0  0
  1  2  2  0  0  0  0
  1 13  1  0  0  0  0
  2 18  1  0  0  0  0
  3  6  1  0  0  0  0
  4 16  1  6  0  0  0
  4  7  1  0  0  0  0
  4  1  1  0  0  0  0
  5  8  1  0  0  0  0
  7  8  1  6  0  0  0
  7 14  1  0  0  0  0
  9 10  1  0  0  0  0
 11 17  2  0  0  0  0
 11  2  1  0  0  0  0
 12  5  1  0  0  0  0
 12 16  1  0  0  0  0
 13  3  2  0  0  0  0
 14 13  1  0  0  0  0
 15  9  2  0  0  0  0
 17 15  1  0  0  0  0
 18  9  1  0  0  0  0
 18  6  2  0  0  0  0
 19 20  1  0  0  0  0
 19 17  1  0  0  0  0
 21 20  1  0  0  0  0
 21 22  1  0  0  0  0
 22 23  1  0  0  0  0
 23 24  1  0  0  0  0
 24 25  1  0  0  0  0
M  END
>  <MODEL>
3

>  <REMARK>
 VINA RESULT:      -6.4      2.582      4.153
  Name = 
  6 active torsions:
  status: ('A' for Active; 'I' for Inactive)
    1  A    between atoms: C_2  and  N_12
    2  A    between atoms: S_6  and  C_15
    3  A    between atoms: S_6  and  C_23
    4  A    between atoms: N_12  and  C_25
    5  A    between atoms: C_15  and  C_21
    6  A    between atoms: C_21  and  C_25
                            x       y       z     vdW  Elec       q    Type
                         _______ _______ _______ _____ _____    ______ ____

>  <TORSDO>
F 6

$$$$
=
 OpenBabel11052417323D

 25 28  0  0  1  0  0  0  0  0999 V2000
  186.8940  177.0130  144.1880 C   0  0  0  0  0  0  0  0  0  0  0  0
  187.9050  176.1170  144.5420 C   0  0  0  0  0  0  0  0  0  0  0  0
  186.5000  177.6250  146.4900 C   0  0  0  0  0  3  0  0  0  0  0  0
  186.1450  177.2210  142.9220 C   0  0  1  0  0  3  0  0  0  0  0  0
  184.4230  177.9160  140.9270 C   0  0  0  0  0  2  0  0  0  0  0  0
  187.5460  176.7700  146.8790 C   0  0  0  0  0  3  0  0  0  0  0  0
  185.3750  178.4470  143.1420 N   0  0  1  0  0  0  0  0  0  0  0  0
  184.1280  178.3070  142.4000 C   0  0  0  0  0  2  0  0  0  0  0  0
  189.2770  175.1320  146.3020 C   0  0  0  0  0  0  0  0  0  0  0  0
  189.6440  175.0090  147.6380 O   0  0  0  0  0  1  0  0  0  0  0  0
  188.5670  175.3370  143.5890 C   0  0  0  0  0  3  0  0  0  0  0  0
  185.9320  177.9900  140.5560 C   0  0  0  0  0  2  0  0  0  0  0  0
  186.2000  177.7150  145.1340 C   0  0  0  0  0  0  0  0  0  0  0  0
  185.1690  178.4780  144.5330 N   0  0  0  0  0  2  0  0  0  0  0  0
  189.9360  174.3650  145.3370 C   0  0  0  0  0  3  0  0  0  0  0  0
  186.8720  177.3270  141.5930 C   0  0  0  0  0  2  0  0  0  0  0  0
  189.5830  174.4650  143.9870 C   0  0  0  0  0  0  0  0  0  0  0  0
  188.2530  176.0120  145.9160 C   0  0  0  0  0  0  0  0  0  0  0  0
  190.4270  173.4680  142.7680 S   0  0  0  0  0  0  0  0  0  0  0  0
  192.0340  173.6700  143.5970 C   0  0  0  0  0  2  0  0  0  0  0  0
  192.7180  174.9430  143.1230 C   0  0  0  0  0  2  0  0  0  0  0  0
  193.3670  175.6800  144.2840 C   0  0  0  0  0  2  0  0  0  0  0  0
  192.5270  176.7890  144.7020 N   0  0  0  0  0  2  0  0  0  0  0  0
  191.9130  177.3250  143.5020 C   0  0  0  0  0  2  0  0  0  0  0  0
  190.8130  178.2910  143.8870 C   0  0  0  0  0  1  0  0  0  0  0  0
  1  2  2  0  0  0  0
  1 13  1  0  0  0  0
  2 18  1  0  0  0  0
  3  6  1  0  0  0  0
  4 16  1  6  0  0  0
  4  7  1  0  0  0  0
  4  1  1  0  0  0  0
  5  8  1  0  0  0  0
  7  8  1  6  0  0  0
  7 14  1  0  0  0  0
  9 10  1  0  0  0  0
 11 17  2  0  0  0  0
 11  2  1  0  0  0  0
 12  5  1  0  0  0  0
 12 16  1  0  0  0  0
 13  3  2  0  0  0  0
 14 13  1  0  0  0  0
 15  9  2  0  0  0  0
 17 15  1  0  0  0  0
 18  9  1  0  0  0  0
 18  6  2  0  0  0  0
 19 20  1  0  0  0  0
 19 17  1  0  0  0  0
 21 20  1  0  0  0  0
 21 22  1  0  0  0  0
 22 23  1  0  0  0  0
 24 25  1  0  0  0  0
 24 23  1  0  0  0  0
M  END
>  <MODEL>
4

>  <REMARK>
 VINA RESULT:      -6.4      2.375      4.022
  Name = 
  6 active torsions:
  status: ('A' for Active; 'I' for Inactive)
    1  A    between atoms: C_2  and  N_12
    2  A    between atoms: S_6  and  C_15
    3  A    between atoms: S_6  and  C_23
    4  A    between atoms: N_12  and  C_25
    5  A    between atoms: C_15  and  C_21
    6  A    between atoms: C_21  and  C_25
                            x       y       z     vdW  Elec       q    Type
                         _______ _______ _______ _____ _____    ______ ____

>  <TORSDO>
F 6

$$$$
=
 OpenBabel11052417323D

 25 28  0  0  1  0  0  0  0  0999 V2000
  187.6110  176.3590  144.4530 C   0  0  0  0  0  0  0  0  0  0  0  0
  186.4370  177.0700  144.1980 C   0  0  0  0  0  0  0  0  0  0  0  0
  187.4460  176.7490  146.8300 C   0  0  0  0  0  3  0  0  0  0  0  0
  188.6930  175.8710  143.5600 C   0  0  1  0  0  3  0  0  0  0  0  0
  190.9630  174.8930  142.4100 C   0  0  0  0  0  2  0  0  0  0  0  0
  186.2330  177.4280  146.6160 C   0  0  0  0  0  3  0  0  0  0  0  0
  189.5260  175.0210  144.4140 N   0  0  1  0  0  0  0  0  0  0  0  0
  190.8980  175.1530  143.9400 C   0  0  0  0  0  2  0  0  0  0  0  0
  184.5270  178.3010  145.0870 C   0  0  0  0  0  0  0  0  0  0  0  0
  183.8010  178.8240  146.1520 O   0  0  0  0  0  1  0  0  0  0  0  0
  185.9620  177.2710  142.8990 C   0  0  0  0  0  3  0  0  0  0  0  0
  189.6320  174.3490  141.8160 C   0  0  0  0  0  2  0  0  0  0  0  0
  188.1090  176.2330  145.7200 C   0  0  0  0  0  0  0  0  0  0  0  0
  189.3520  175.5550  145.7030 N   0  0  0  0  0  2  0  0  0  0  0  0
  184.0600  178.4870  143.7830 C   0  0  0  0  0  3  0  0  0  0  0  0
  188.3710  175.1200  142.2800 C   0  0  0  0  0  2  0  0  0  0  0  0
  184.7730  177.9760  142.6930 C   0  0  0  0  0  0  0  0  0  0  0  0
  185.7210  177.5960  145.3090 C   0  0  0  0  0  0  0  0  0  0  0  0
  184.1680  178.2330  141.0310 S   0  0  0  0  0  0  0  0  0  0  0  0
  182.4440  178.3730  141.5950 C   0  0  0  0  0  2  0  0  0  0  0  0
  181.4870  178.1020  140.4440 C   0  0  0  0  0  2  0  0  0  0  0  0
  180.1510  178.7900  140.6700 C   0  0  0  0  0  2  0  0  0  0  0  0
  179.0790  177.8080  140.6820 N   0  0  0  0  0  2  0  0  0  0  0  0
  178.2550  178.1030  141.8390 C   0  0  0  0  0  2  0  0  0  0  0  0
  178.2930  176.9310  142.7970 C   0  0  0  0  0  1  0  0  0  0  0  0
  1 13  1  0  0  0  0
  2  1  2  0  0  0  0
  2 18  1  0  0  0  0
  4 16  1  6  0  0  0
  4  7  1  0  0  0  0
  4  1  1  0  0  0  0
  5  8  1  0  0  0  0
  6  3  1  0  0  0  0
  7  8  1  6  0  0  0
  7 14  1  0  0  0  0
  9 18  1  0  0  0  0
  9 10  1  0  0  0  0
 11  2  1  0  0  0  0
 12 16  1  0  0  0  0
 12  5  1  0  0  0  0
 13  3  2  0  0  0  0
 14 13  1  0  0  0  0
 15  9  2  0  0  0  0
 17 11  2  0  0  0  0
 17 15  1  0  0  0  0
 18  6  2  0  0  0  0
 19 20  1  0  0  0  0
 19 17  1  0  0  0  0
 21 22  1  0  0  0  0
 21 20  1  0  0  0  0
 22 23  1  0  0  0  0
 23 24  1  0  0  0  0
 24 25  1  0  0  0  0
M  END
>  <MODEL>
5

>  <REMARK>
 VINA RESULT:      -6.4      4.085      8.045
  Name = 
  6 active torsions:
  status: ('A' for Active; 'I' for Inactive)
    1  A    between atoms: C_2  and  N_12
    2  A    between atoms: S_6  and  C_15
    3  A    between atoms: S_6  and  C_23
    4  A    between atoms: N_12  and  C_25
    5  A    between atoms: C_15  and  C_21
    6  A    between atoms: C_21  and  C_25
                            x       y       z     vdW  Elec       q    Type
                         _______ _______ _______ _____ _____    ______ ____

>  <TORSDO>
F 6

$$$$
=
 OpenBabel11052417323D

 25 28  0  0  1  0  0  0  0  0999 V2000
  187.0500  176.6480  143.8100 C   0  0  0  0  0  0  0  0  0  0  0  0
  188.3200  176.1160  144.0420 C   0  0  0  0  0  0  0  0  0  0  0  0
  187.2410  176.3150  141.4260 C   0  0  0  0  0  3  0  0  0  0  0  0
  186.1220  177.4230  144.6720 C   0  0  1  0  0  3  0  0  0  0  0  0
  184.1460  178.9510  145.7650 C   0  0  0  0  0  2  0  0  0  0  0  0
  188.5030  175.7270  141.6270 C   0  0  0  0  0  3  0  0  0  0  0  0
  184.8750  177.4960  143.9080 N   0  0  1  0  0  0  0  0  0  0  0  0
  184.2530  178.7760  144.2250 C   0  0  0  0  0  2  0  0  0  0  0  0
  190.3240  175.0670  143.1290 C   0  0  0  0  0  0  0  0  0  0  0  0
  191.0640  174.5730  142.0590 O   0  0  0  0  0  1  0  0  0  0  0  0
  188.8740  176.0590  145.3240 C   0  0  0  0  0  3  0  0  0  0  0  0
  184.5070  177.6650  146.5620 C   0  0  0  0  0  2  0  0  0  0  0  0
  186.5480  176.7690  142.5440 C   0  0  0  0  0  0  0  0  0  0  0  0
  185.2910  177.4220  142.5660 N   0  0  0  0  0  2  0  0  0  0  0  0
  190.8620  175.0090  144.4180 C   0  0  0  0  0  3  0  0  0  0  0  0
  185.8080  176.9700  146.0870 C   0  0  0  0  0  2  0  0  0  0  0  0
  190.1420  175.5040  145.5110 C   0  0  0  0  0  0  0  0  0  0  0  0
  189.0510  175.6240  142.9260 C   0  0  0  0  0  0  0  0  0  0  0  0
  190.8500  175.4340  147.1500 S   0  0  0  0  0  0  0  0  0  0  0  0
  192.5300  175.1730  146.5010 C   0  0  0  0  0  2  0  0  0  0  0  0
  193.3880  176.4050  146.7410 C   0  0  0  0  0  2  0  0  0  0  0  0
  194.3380  176.6440  145.5790 C   0  0  0  0  0  2  0  0  0  0  0  0
  194.5020  175.4230  144.8080 N   0  0  0  0  0  2  0  0  0  0  0  0
  195.9240  175.1340  144.7790 C   0  0  0  0  0  2  0  0  0  0  0  0
  196.2590  174.1450  145.8750 C   0  0  0  0  0  1  0  0  0  0  0  0
  1  2  1  0  0  0  0
  1  4  1  0  0  0  0
  2 11  1  0  0  0  0
  3  6  2  0  0  0  0
  3 13  1  0  0  0  0
  4 16  1  1  0  0  0
  5 12  1  0  0  0  0
  6 18  1  0  0  0  0
  7  8  1  6  0  0  0
  7  4  1  0  0  0  0
  8  5  1  0  0  0  0
  9 15  2  0  0  0  0
 10  9  1  0  0  0  0
 11 17  2  0  0  0  0
 13 14  1  0  0  0  0
 13  1  2  0  0  0  0
 14  7  1  0  0  0  0
 15 17  1  0  0  0  0
 16 12  1  0  0  0  0
 17 19  1  0  0  0  0
 18  9  1  0  0  0  0
 18  2  2  0  0  0  0
 20 21  1  0  0  0  0
 20 19  1  0  0  0  0
 22 21  1  0  0  0  0
 23 22  1  0  0  0  0
 24 23  1  0  0  0  0
 24 25  1  0  0  0  0
M  END
>  <MODEL>
6

>  <REMARK>
 VINA RESULT:      -6.4      2.312      2.840
  Name = 
  6 active torsions:
  status: ('A' for Active; 'I' for Inactive)
    1  A    between atoms: C_2  and  N_12
    2  A    between atoms: S_6  and  C_15
    3  A    between atoms: S_6  and  C_23
    4  A    between atoms: N_12  and  C_25
    5  A    between atoms: C_15  and  C_21
    6  A    between atoms: C_21  and  C_25
                            x       y       z     vdW  Elec       q    Type
                         _______ _______ _______ _____ _____    ______ ____

>  <TORSDO>
F 6

$$$$
=
 OpenBabel11052417323D

 25 28  0  0  1  0  0  0  0  0999 V2000
  192.1550  176.4490  144.9820 C   0  0  0  0  0  0  0  0  0  0  0  0
  190.8280  176.8670  144.8730 C   0  0  0  0  0  0  0  0  0  0  0  0
  192.0270  176.3530  147.3910 C   0  0  0  0  0  3  0  0  0  0  0  0
  193.2750  176.4230  144.0070 C   0  0  1  0  0  3  0  0  0  0  0  0
  195.6510  176.2840  142.6790 C   0  0  0  0  0  2  0  0  0  0  0  0
  190.6730  176.7240  147.3170 C   0  0  0  0  0  3  0  0  0  0  0  0
  194.3400  175.6780  144.6810 N   0  0  1  0  0  0  0  0  0  0  0  0
  195.6070  176.2420  144.2300 C   0  0  0  0  0  2  0  0  0  0  0  0
  188.7210  177.3860  145.9890 C   0  0  0  0  0  0  0  0  0  0  0  0
  187.9460  177.5060  147.1380 O   0  0  0  0  0  1  0  0  0  0  0  0
  190.2470  177.1670  143.6370 C   0  0  0  0  0  3  0  0  0  0  0  0
  194.4700  175.5310  142.0030 C   0  0  0  0  0  2  0  0  0  0  0  0
  192.7370  176.2320  146.2000 C   0  0  0  0  0  0  0  0  0  0  0  0
  194.1080  175.9110  146.0480 N   0  0  0  0  0  2  0  0  0  0  0  0
  188.1520  177.6750  144.7450 C   0  0  0  0  0  3  0  0  0  0  0  0
  193.0820  175.8550  142.6110 C   0  0  0  0  0  2  0  0  0  0  0  0
  188.9100  177.5670  143.5750 C   0  0  0  0  0  0  0  0  0  0  0  0
  190.0650  176.9840  146.0670 C   0  0  0  0  0  0  0  0  0  0  0  0
  188.1700  177.9520  141.9940 S   0  0  0  0  0  0  0  0  0  0  0  0
  186.5580  177.2710  142.4920 C   0  0  0  0  0  2  0  0  0  0  0  0
  185.4500  178.2760  142.2190 C   0  0  0  0  0  2  0  0  0  0  0  0
  184.4500  178.3130  143.3630 C   0  0  0  0  0  2  0  0  0  0  0  0
  184.8760  179.2730  144.3670 N   0  0  0  0  0  2  0  0  0  0  0  0
  184.1830  178.9290  145.5950 C   0  0  0  0  0  2  0  0  0  0  0  0
  184.6750  177.5860  146.0910 C   0  0  0  0  0  1  0  0  0  0  0  0
  1 13  1  0  0  0  0
  2  1  2  0  0  0  0
  2 18  1  0  0  0  0
  4 16  1  6  0  0  0
  4  7  1  0  0  0  0
  4  1  1  0  0  0  0
  5  8  1  0  0  0  0
  6  3  1  0  0  0  0
  7  8  1  6  0  0  0
  7 14  1  0  0  0  0
  9 18  1  0  0  0  0
  9 10  1  0  0  0  0
 11  2  1  0  0  0  0
 12 16  1  0  0  0  0
 12  5  1  0  0  0  0
 13  3  2  0  0  0  0
 14 13  1  0  0  0  0
 15  9  2  0  0  0  0
 17 11  2  0  0  0  0
 17 15  1  0  0  0  0
 18  6  2  0  0  0  0
 19 20  1  0  0  0  0
 19 17  1  0  0  0  0
 21 20  1  0  0  0  0
 21 22  1  0  0  0  0
 22 23  1  0  0  0  0
 23 24  1  0  0  0  0
 24 25  1  0  0  0  0
M  END
>  <MODEL>
7

>  <REMARK>
 VINA RESULT:      -6.3      2.844      7.360
  Name = 
  6 active torsions:
  status: ('A' for Active; 'I' for Inactive)
    1  A    between atoms: C_2  and  N_12
    2  A    between atoms: S_6  and  C_15
    3  A    between atoms: S_6  and  C_23
    4  A    between atoms: N_12  and  C_25
    5  A    between atoms: C_15  and  C_21
    6  A    between atoms: C_21  and  C_25
                            x       y       z     vdW  Elec       q    Type
                         _______ _______ _______ _____ _____    ______ ____

>  <TORSDO>
F 6

$$$$
=
 OpenBabel11052417323D

 25 28  0  0  1  0  0  0  0  0999 V2000
  185.8800  177.5580  143.8730 C   0  0  0  0  0  0  0  0  0  0  0  0
  186.6570  177.0020  142.8540 C   0  0  0  0  0  0  0  0  0  0  0  0
  184.4160  178.6480  142.2910 C   0  0  0  0  0  3  0  0  0  0  0  0
  186.1020  177.6920  145.3350 C   0  0  1  0  0  3  0  0  0  0  0  0
  186.0710  178.3020  147.9910 C   0  0  0  0  0  2  0  0  0  0  0  0
  185.1450  178.0640  141.2410 C   0  0  0  0  0  3  0  0  0  0  0  0
  184.8250  178.1750  145.8640 N   0  0  1  0  0  0  0  0  0  0  0  0
  185.1310  179.0380  146.9980 C   0  0  0  0  0  2  0  0  0  0  0  0
  187.0160  176.6830  140.4620 C   0  0  0  0  0  0  0  0  0  0  0  0
  186.6570  176.8960  139.1360 O   0  0  0  0  0  1  0  0  0  0  0  0
  187.7890  176.2300  143.1270 C   0  0  0  0  0  3  0  0  0  0  0  0
  186.2670  176.7950  147.6600 C   0  0  0  0  0  2  0  0  0  0  0  0
  184.8190  178.3750  143.5960 C   0  0  0  0  0  0  0  0  0  0  0  0
  184.2570  178.8850  144.7910 N   0  0  0  0  0  2  0  0  0  0  0  0
  188.1410  175.9060  140.7510 C   0  0  0  0  0  3  0  0  0  0  0  0
  186.5660  176.5090  146.1670 C   0  0  0  0  0  2  0  0  0  0  0  0
  188.5280  175.6800  142.0760 C   0  0  0  0  0  0  0  0  0  0  0  0
  186.2650  177.2430  141.5090 C   0  0  0  0  0  0  0  0  0  0  0  0
  189.9770  174.6950  142.4270 S   0  0  0  0  0  0  0  0  0  0  0  0
  190.8360  176.0930  143.2130 C   0  0  0  0  0  2  0  0  0  0  0  0
  191.6790  175.6070  144.3820 C   0  0  0  0  0  2  0  0  0  0  0  0
  191.5800  176.5600  145.5610 C   0  0  0  0  0  2  0  0  0  0  0  0
  190.2210  176.5790  146.0760 N   0  0  0  0  0  2  0  0  0  0  0  0
  190.2120  175.7460  147.2630 C   0  0  0  0  0  2  0  0  0  0  0  0
  189.3170  174.5470  147.0310 C   0  0  0  0  0  1  0  0  0  0  0  0
  1  4  1  0  0  0  0
  2 11  1  0  0  0  0
  2  1  2  0  0  0  0
  3 13  2  0  0  0  0
  4  7  1  0  0  0  0
  4 16  1  1  0  0  0
  6 18  2  0  0  0  0
  6  3  1  0  0  0  0
  7  8  1  1  0  0  0
  8  5  1  0  0  0  0
  9 15  2  0  0  0  0
  9 18  1  0  0  0  0
 10  9  1  0  0  0  0
 12  5  1  0  0  0  0
 13  1  1  0  0  0  0
 13 14  1  0  0  0  0
 14  7  1  0  0  0  0
 15 17  1  0  0  0  0
 16 12  1  0  0  0  0
 17 19  1  0  0  0  0
 17 11  2  0  0  0  0
 18  2  1  0  0  0  0
 19 20  1  0  0  0  0
 20 21  1  0  0  0  0
 21 22  1  0  0  0  0
 22 23  1  0  0  0  0
 23 24  1  0  0  0  0
 25 24  1  0  0  0  0
M  END
>  <MODEL>
8

>  <REMARK>
 VINA RESULT:      -6.3      2.431      3.690
  Name = 
  6 active torsions:
  status: ('A' for Active; 'I' for Inactive)
    1  A    between atoms: C_2  and  N_12
    2  A    between atoms: S_6  and  C_15
    3  A    between atoms: S_6  and  C_23
    4  A    between atoms: N_12  and  C_25
    5  A    between atoms: C_15  and  C_21
    6  A    between atoms: C_21  and  C_25
                            x       y       z     vdW  Elec       q    Type
                         _______ _______ _______ _____ _____    ______ ____

>  <TORSDO>
F 6

$$$$
=
 OpenBabel11052417323D

 25 28  0  0  1  0  0  0  0  0999 V2000
  186.2350  177.4820  143.8660 C   0  0  0  0  0  0  0  0  0  0  0  0
  186.9680  176.6870  142.9830 C   0  0  0  0  0  0  0  0  0  0  0  0
  185.1130  178.6230  142.0580 C   0  0  0  0  0  3  0  0  0  0  0  0
  186.3730  177.7420  145.3220 C   0  0  1  0  0  3  0  0  0  0  0  0
  186.2630  178.6470  147.8910 C   0  0  0  0  0  2  0  0  0  0  0  0
  185.7960  177.8050  141.1410 C   0  0  0  0  0  3  0  0  0  0  0  0
  185.1710  178.4980  145.6820 N   0  0  1  0  0  0  0  0  0  0  0  0
  185.5480  179.4180  146.7480 C   0  0  0  0  0  2  0  0  0  0  0  0
  187.4330  176.0400  140.6780 C   0  0  0  0  0  0  0  0  0  0  0  0
  187.2150  176.1590  139.3090 O   0  0  0  0  0  1  0  0  0  0  0  0
  187.9170  175.7650  143.4340 C   0  0  0  0  0  3  0  0  0  0  0  0
  186.2020  177.1010  147.7300 C   0  0  0  0  0  2  0  0  0  0  0  0
  185.3650  178.4350  143.4140 C   0  0  0  0  0  0  0  0  0  0  0  0
  184.8210  179.1690  144.4970 N   0  0  0  0  0  2  0  0  0  0  0  0
  188.3740  175.1160  141.1440 C   0  0  0  0  0  3  0  0  0  0  0  0
  186.5500  176.5990  146.3060 C   0  0  0  0  0  2  0  0  0  0  0  0
  188.6160  174.9790  142.5150 C   0  0  0  0  0  0  0  0  0  0  0  0
  186.7240  176.8380  141.5910 C   0  0  0  0  0  0  0  0  0  0  0  0
  189.8310  173.8030  143.0920 S   0  0  0  0  0  0  0  0  0  0  0  0
  190.2910  174.8510  144.5070 C   0  0  0  0  0  2  0  0  0  0  0  0
  190.0040  174.1300  145.8150 C   0  0  0  0  0  2  0  0  0  0  0  0
  189.8110  175.1200  146.9530 C   0  0  0  0  0  2  0  0  0  0  0  0
  191.0600  175.3030  147.6730 N   0  0  0  0  0  2  0  0  0  0  0  0
  191.1900  176.7250  147.9300 C   0  0  0  0  0  2  0  0  0  0  0  0
  190.0500  177.4630  147.2630 C   0  0  0  0  0  1  0  0  0  0  0  0
  1  4  1  0  0  0  0
  2 11  1  0  0  0  0
  2  1  2  0  0  0  0
  3 13  2  0  0  0  0
  4  7  1  0  0  0  0
  4 16  1  1  0  0  0
  6 18  2  0  0  0  0
  6  3  1  0  0  0  0
  7  8  1  1  0  0  0
  8  5  1  0  0  0  0
  9 15  2  0  0  0  0
  9 18  1  0  0  0  0
 10  9  1  0  0  0  0
 12  5  1  0  0  0  0
 13  1  1  0  0  0  0
 13 14  1  0  0  0  0
 14  7  1  0  0  0  0
 15 17  1  0  0  0  0
 16 12  1  0  0  0  0
 17 19  1  0  0  0  0
 17 11  2  0  0  0  0
 18  2  1  0  0  0  0
 19 20  1  0  0  0  0
 20 21  1  0  0  0  0
 21 22  1  0  0  0  0
 22 23  1  0  0  0  0
 23 24  1  0  0  0  0
 25 24  1  0  0  0  0
M  END
>  <MODEL>
9

>  <REMARK>
 VINA RESULT:      -6.2      2.439      3.467
  Name = 
  6 active torsions:
  status: ('A' for Active; 'I' for Inactive)
    1  A    between atoms: C_2  and  N_12
    2  A    between atoms: S_6  and  C_15
    3  A    between atoms: S_6  and  C_23
    4  A    between atoms: N_12  and  C_25
    5  A    between atoms: C_15  and  C_21
    6  A    between atoms: C_21  and  C_25
                            x       y       z     vdW  Elec       q    Type
                         _______ _______ _______ _____ _____    ______ ____

>  <TORSDO>
F 6

$$$$
