=
 OpenBabel11052421163D

 43 48  0  0  1  0  0  0  0  0999 V2000
  185.5540  177.8390  146.8270 C   0  0  0  0  0  0  0  0  0  0  0  0
  190.2460  176.8110  145.1870 C   0  0  1  0  0  3  0  0  0  0  0  0
  188.8800  176.5760  143.1120 C   0  0  0  0  0  2  0  0  0  0  0  0
  187.9360  177.4390  146.6480 C   0  0  0  0  0  0  0  0  0  0  0  0
  185.3590  177.2670  145.5660 C   0  0  0  0  0  3  0  0  0  0  0  0
  184.4680  178.3190  147.5450 O   0  0  0  0  0  1  0  0  0  0  0  0
  187.7500  176.8980  145.3570 C   0  0  0  0  0  0  0  0  0  0  0  0
  186.8400  177.9250  147.3650 C   0  0  0  0  0  3  0  0  0  0  0  0
  186.4520  176.7900  144.8380 C   0  0  0  0  0  3  0  0  0  0  0  0
  190.0310  175.9830  142.4040 N   0  0  0  0  0  0  0  0  0  0  0  0
  188.9220  176.3040  144.6170 C   0  0  2  0  0  3  0  0  0  0  0  0
  190.2440  176.6080  146.6340 N   0  0  0  0  0  2  0  0  0  0  0  0
  191.3930  176.0640  144.5100 C   0  0  1  0  0  3  0  0  0  0  0  0
  191.3340  176.3180  143.0000 C   0  0  0  0  0  2  0  0  0  0  0  0
  189.3200  177.5770  147.2250 C   0  0  0  0  0  2  0  0  0  0  0  0
  189.9040  174.5450  142.1070 C   0  0  1  0  0  3  0  0  0  0  0  0
  188.6040  174.1750  141.4030 C   0  0  0  0  0  1  0  0  0  0  0  0
  191.0910  174.0470  141.2930 C   0  0  0  0  0  2  0  0  0  0  0  0
  190.9900  171.4260  140.7390 O   0  0  0  0  0  0  0  0  0  0  0  0
  191.5430  172.3810  141.7610 S   0  0  0  0  0  0  0  0  0  0  0  0
  190.9430  172.0530  143.1010 O   0  0  0  0  0  0  0  0  0  0  0  0
  193.2830  172.1980  141.8240 N   0  0  0  0  0  0  0  0  0  0  0  0
  194.9020  170.4520  142.3380 C   0  0  0  0  0  2  0  0  0  0  0  0
  193.6300  170.7990  141.5840 C   0  0  0  0  0  3  0  0  0  0  0  0
  193.5610  170.0270  142.8890 C   0  0  0  0  0  2  0  0  0  0  0  0
  193.9930  173.0480  140.8480 C   0  0  1  0  0  3  0  0  0  0  0  0
  193.5080  172.8930  139.4100 C   0  0  0  0  0  1  0  0  0  0  0  0
  193.9910  174.5130  141.2680 C   0  0  0  0  0  2  0  0  0  0  0  0
  195.3170  174.9110  141.8220 C   0  0  0  0  0  0  0  0  0  0  0  0
  197.5330  174.3150  142.6000 C   0  0  0  0  0  3  0  0  0  0  0  0
  196.8010  176.6230  142.6850 C   0  0  0  0  0  3  0  0  0  0  0  0
  197.7830  175.6550  142.9130 C   0  0  0  0  0  3  0  0  0  0  0  0
  195.5660  176.2510  142.1410 C   0  0  0  0  0  3  0  0  0  0  0  0
  196.3000  173.9430  142.0560 C   0  0  0  0  0  3  0  0  0  0  0  0
  192.7500  176.5400  145.0180 C   0  0  0  0  0  2  0  0  0  0  0  0
  195.8530  174.5440  145.8980 C   0  0  0  0  0  3  0  0  0  0  0  0
  195.4470  173.2470  145.5680 C   0  0  0  0  0  0  0  0  0  0  0  0
  193.2810  174.0980  144.8930 C   0  0  0  0  0  3  0  0  0  0  0  0
  194.9770  175.6190  145.7170 C   0  0  0  0  0  3  0  0  0  0  0  0
  193.6910  175.3980  145.2080 C   0  0  0  0  0  0  0  0  0  0  0  0
  194.1570  173.0240  145.0730 C   0  0  0  0  0  3  0  0  0  0  0  0
  195.6110  170.8690  145.8930 N   0  0  0  0  0  1  0  0  0  0  0  0
  196.3720  172.1000  145.7790 C   0  0  0  0  0  2  0  0  0  0  0  0
  1  8  1  0  0  0  0
  1  6  1  0  0  0  0
  2 12  1  1  0  0  0
  4 15  1  0  0  0  0
  4  8  2  0  0  0  0
  5  1  2  0  0  0  0
  7  4  1  0  0  0  0
  9  7  2  0  0  0  0
  9  5  1  0  0  0  0
 10 14  1  0  0  0  0
 10  3  1  0  0  0  0
 11  3  1  6  0  0  0
 11  2  1  0  0  0  0
 11  7  1  0  0  0  0
 12 15  1  0  0  0  0
 13 35  1  1  0  0  0
 13  2  1  0  0  0  0
 14 13  1  0  0  0  0
 16 17  1  6  0  0  0
 16 10  1  0  0  0  0
 18 20  1  0  0  0  0
 18 16  1  0  0  0  0
 19 20  2  0  0  0  0
 20 22  1  0  0  0  0
 20 21  2  0  0  0  0
 23 25  1  0  0  0  0
 24 22  1  0  0  0  0
 24 23  1  0  0  0  0
 24 25  1  0  0  0  0
 26 27  1  6  0  0  0
 26 28  1  0  0  0  0
 26 22  1  0  0  0  0
 28 29  1  0  0  0  0
 29 34  2  0  0  0  0
 29 33  1  0  0  0  0
 30 32  2  0  0  0  0
 31 32  1  0  0  0  0
 33 31  2  0  0  0  0
 34 30  1  0  0  0  0
 35 40  1  0  0  0  0
 37 43  1  0  0  0  0
 37 36  2  0  0  0  0
 38 41  2  0  0  0  0
 38 40  1  0  0  0  0
 39 36  1  0  0  0  0
 40 39  2  0  0  0  0
 41 37  1  0  0  0  0
 43 42  1  0  0  0  0
M  END
>  <MODEL>
1

>  <REMARK>
 VINA RESULT:      -6.8      0.000      0.000
  Name = 
  11 active torsions:
  status: ('A' for Active; 'I' for Inactive)
    1  A    between atoms: C_1  and  C_34
    2  A    between atoms: C_1  and  C_35
    3  A    between atoms: C_2  and  C_6
    4  A    between atoms: C_2  and  N_27
    5  A    between atoms: N_4  and  S_12
    6  A    between atoms: N_4  and  C_15
    7  A    between atoms: N_4  and  C_22
    8  A    between atoms: C_6  and  S_12
    9  A    between atoms: C_11  and  C_14
   10  A    between atoms: C_14  and  C_22
   11  A    between atoms: C_19  and  C_37
                            x       y       z     vdW  Elec       q    Type
                         _______ _______ _______ _____ _____    ______ ____

>  <TORSDO>
F 11

$$$$
=
 OpenBabel11052421163D

 43 48  0  0  1  0  0  0  0  0999 V2000
  184.8850  178.2730  145.6460 C   0  0  0  0  0  0  0  0  0  0  0  0
  188.6290  175.2310  144.0680 C   0  0  1  0  0  3  0  0  0  0  0  0
  189.0770  175.4210  146.5150 C   0  0  0  0  0  2  0  0  0  0  0  0
  186.4040  176.9160  144.3350 C   0  0  0  0  0  0  0  0  0  0  0  0
  185.7850  178.2540  146.7150 C   0  0  0  0  0  3  0  0  0  0  0  0
  183.6850  178.9590  145.7630 O   0  0  0  0  0  1  0  0  0  0  0  0
  187.2980  176.8590  145.4250 C   0  0  0  0  0  0  0  0  0  0  0  0
  185.1940  177.6040  144.4590 C   0  0  0  0  0  3  0  0  0  0  0  0
  186.9910  177.5570  146.6020 C   0  0  0  0  0  3  0  0  0  0  0  0
  190.3890  174.7710  146.3410 N   0  0  0  0  0  0  0  0  0  0  0  0
  188.6360  176.1820  145.2640 C   0  0  2  0  0  3  0  0  0  0  0  0
  188.1400  175.9510  142.8940 N   0  0  0  0  0  2  0  0  0  0  0  0
  190.0430  174.6940  143.8570 C   0  0  1  0  0  3  0  0  0  0  0  0
  190.4910  173.9540  145.1210 C   0  0  0  0  0  2  0  0  0  0  0  0
  186.7030  176.1660  143.0630 C   0  0  0  0  0  2  0  0  0  0  0  0
  191.5520  175.6580  146.5200 C   0  0  1  0  0  3  0  0  0  0  0  0
  191.6170  176.3190  147.8910 C   0  0  0  0  0  1  0  0  0  0  0  0
  192.8540  174.9180  146.2420 C   0  0  0  0  0  2  0  0  0  0  0  0
  194.8830  176.6490  146.5130 O   0  0  0  0  0  0  0  0  0  0  0  0
  194.0500  175.9870  145.4510 S   0  0  0  0  0  0  0  0  0  0  0  0
  193.3330  177.0530  144.6680 O   0  0  0  0  0  0  0  0  0  0  0  0
  195.1040  175.0740  144.3940 N   0  0  0  0  0  0  0  0  0  0  0  0
  196.9660  175.4640  142.8720 C   0  0  0  0  0  2  0  0  0  0  0  0
  196.3640  175.7950  144.2270 C   0  0  0  0  0  3  0  0  0  0  0  0
  196.2410  176.7740  143.0730 C   0  0  0  0  0  2  0  0  0  0  0  0
  195.3870  173.7120  144.8890 C   0  0  1  0  0  3  0  0  0  0  0  0
  196.2610  173.6670  146.1380 C   0  0  0  0  0  1  0  0  0  0  0  0
  194.1090  172.9070  145.0900 C   0  0  0  0  0  2  0  0  0  0  0  0
  193.8120  172.0690  143.8920 C   0  0  0  0  0  0  0  0  0  0  0  0
  192.3980  170.4700  142.7460 C   0  0  0  0  0  3  0  0  0  0  0  0
  194.4400  171.2470  141.7000 C   0  0  0  0  0  3  0  0  0  0  0  0
  193.2870  170.4570  141.6660 C   0  0  0  0  0  3  0  0  0  0  0  0
  194.7040  172.0520  142.8130 C   0  0  0  0  0  3  0  0  0  0  0  0
  192.6610  171.2740  143.8590 C   0  0  0  0  0  3  0  0  0  0  0  0
  190.1030  173.7160  142.6890 C   0  0  0  0  0  2  0  0  0  0  0  0
  193.3500  175.1590  141.3590 C   0  0  0  0  0  3  0  0  0  0  0  0
  193.4320  174.5390  140.1070 C   0  0  0  0  0  0  0  0  0  0  0  0
  191.3520  173.3770  140.5480 C   0  0  0  0  0  3  0  0  0  0  0  0
  192.2650  174.8940  142.2010 C   0  0  0  0  0  3  0  0  0  0  0  0
  191.2600  174.0070  141.7930 C   0  0  0  0  0  0  0  0  0  0  0  0
  192.4360  173.6410  139.7060 C   0  0  0  0  0  3  0  0  0  0  0  0
  195.7650  174.1020  139.7160 N   0  0  0  0  0  1  0  0  0  0  0  0
  194.5960  174.8050  139.2190 C   0  0  0  0  0  2  0  0  0  0  0  0
  1  6  1  0  0  0  0
  1  5  1  0  0  0  0
  2 12  1  6  0  0  0
  2 11  1  0  0  0  0
  4  8  1  0  0  0  0
  4  7  2  0  0  0  0
  7  9  1  0  0  0  0
  8  1  2  0  0  0  0
  9  5  2  0  0  0  0
 10  3  1  0  0  0  0
 10 16  1  0  0  0  0
 11  7  1  0  0  0  0
 11  3  1  1  0  0  0
 12 15  1  0  0  0  0
 13 35  1  6  0  0  0
 13  2  1  0  0  0  0
 13 14  1  0  0  0  0
 14 10  1  0  0  0  0
 15  4  1  0  0  0  0
 16 17  1  1  0  0  0
 18 16  1  0  0  0  0
 20 18  1  0  0  0  0
 20 19  2  0  0  0  0
 21 20  2  0  0  0  0
 22 26  1  0  0  0  0
 22 20  1  0  0  0  0
 23 25  1  0  0  0  0
 23 24  1  0  0  0  0
 24 22  1  0  0  0  0
 25 24  1  0  0  0  0
 26 28  1  0  0  0  0
 26 27  1  1  0  0  0
 29 28  1  0  0  0  0
 30 34  2  0  0  0  0
 31 33  1  0  0  0  0
 32 31  2  0  0  0  0
 32 30  1  0  0  0  0
 33 29  2  0  0  0  0
 34 29  1  0  0  0  0
 36 39  1  0  0  0  0
 37 36  2  0  0  0  0
 38 40  1  0  0  0  0
 40 39  2  0  0  0  0
 40 35  1  0  0  0  0
 41 37  1  0  0  0  0
 41 38  2  0  0  0  0
 43 42  1  0  0  0  0
 43 37  1  0  0  0  0
M  END
>  <MODEL>
2

>  <REMARK>
 VINA RESULT:      -6.7      2.315      4.990
  Name = 
  11 active torsions:
  status: ('A' for Active; 'I' for Inactive)
    1  A    between atoms: C_1  and  C_34
    2  A    between atoms: C_1  and  C_35
    3  A    between atoms: C_2  and  C_6
    4  A    between atoms: C_2  and  N_27
    5  A    between atoms: N_4  and  S_12
    6  A    between atoms: N_4  and  C_15
    7  A    between atoms: N_4  and  C_22
    8  A    between atoms: C_6  and  S_12
    9  A    between atoms: C_11  and  C_14
   10  A    between atoms: C_14  and  C_22
   11  A    between atoms: C_19  and  C_37
                            x       y       z     vdW  Elec       q    Type
                         _______ _______ _______ _____ _____    ______ ____

>  <TORSDO>
F 11

$$$$
=
 OpenBabel11052421163D

 43 48  0  0  1  0  0  0  0  0999 V2000
  185.6220  177.9070  146.8590 C   0  0  0  0  0  0  0  0  0  0  0  0
  190.2560  176.7730  145.1280 C   0  0  1  0  0  3  0  0  0  0  0  0
  188.8170  176.3830  143.1270 C   0  0  0  0  0  2  0  0  0  0  0  0
  187.9980  177.5000  146.6220 C   0  0  0  0  0  0  0  0  0  0  0  0
  185.3840  177.2440  145.6520 C   0  0  0  0  0  3  0  0  0  0  0  0
  184.5600  178.4360  147.5790 O   0  0  0  0  0  1  0  0  0  0  0  0
  187.7680  176.8660  145.3820 C   0  0  0  0  0  0  0  0  0  0  0  0
  186.9260  178.0350  147.3420 C   0  0  0  0  0  3  0  0  0  0  0  0
  186.4520  176.7180  144.9200 C   0  0  0  0  0  3  0  0  0  0  0  0
  189.9440  175.7420  142.4230 N   0  0  0  0  0  0  0  0  0  0  0  0
  188.9150  176.2220  144.6450 C   0  0  2  0  0  3  0  0  0  0  0  0
  190.3080  176.6770  146.5860 N   0  0  0  0  0  2  0  0  0  0  0  0
  191.3810  175.9810  144.4660 C   0  0  1  0  0  3  0  0  0  0  0  0
  191.2660  176.1240  142.9450 C   0  0  0  0  0  2  0  0  0  0  0  0
  189.4010  177.6840  147.1370 C   0  0  0  0  0  2  0  0  0  0  0  0
  189.8140  174.2860  142.2370 C   0  0  1  0  0  3  0  0  0  0  0  0
  188.4150  173.8410  141.8300 C   0  0  0  0  0  1  0  0  0  0  0  0
  190.8330  173.7700  141.2300 C   0  0  0  0  0  2  0  0  0  0  0  0
  190.0790  171.2040  141.0440 O   0  0  0  0  0  0  0  0  0  0  0  0
  191.2230  172.0500  141.5280 S   0  0  0  0  0  0  0  0  0  0  0  0
  191.4000  171.8220  143.0040 O   0  0  0  0  0  0  0  0  0  0  0  0
  192.6760  171.5800  140.6720 N   0  0  0  0  0  0  0  0  0  0  0  0
  192.9830  171.1600  138.2920 C   0  0  0  0  0  2  0  0  0  0  0  0
  192.6840  172.2060  139.3530 C   0  0  0  0  0  3  0  0  0  0  0  0
  191.5620  171.6270  138.5080 C   0  0  0  0  0  2  0  0  0  0  0  0
  193.9160  171.9420  141.3880 C   0  0  1  0  0  3  0  0  0  0  0  0
  194.6540  170.7570  142.0020 C   0  0  0  0  0  1  0  0  0  0  0  0
  194.8500  172.7720  140.5160 C   0  0  0  0  0  2  0  0  0  0  0  0
  195.2730  174.0160  141.2220 C   0  0  0  0  0  0  0  0  0  0  0  0
  194.8870  176.3370  141.8020 C   0  0  0  0  0  3  0  0  0  0  0  0
  196.8970  175.2180  142.5610 C   0  0  0  0  0  3  0  0  0  0  0  0
  196.0970  176.3630  142.5030 C   0  0  0  0  0  3  0  0  0  0  0  0
  196.4860  174.0440  141.9200 C   0  0  0  0  0  3  0  0  0  0  0  0
  194.4760  175.1640  141.1600 C   0  0  0  0  0  3  0  0  0  0  0  0
  192.7530  176.4960  144.8880 C   0  0  0  0  0  2  0  0  0  0  0  0
  194.3180  173.0400  144.8660 C   0  0  0  0  0  3  0  0  0  0  0  0
  195.5160  173.2780  145.5490 C   0  0  0  0  0  0  0  0  0  0  0  0
  194.9150  175.6130  145.7860 C   0  0  0  0  0  3  0  0  0  0  0  0
  193.4150  174.0870  144.6520 C   0  0  0  0  0  3  0  0  0  0  0  0
  193.7100  175.3740  145.1180 C   0  0  0  0  0  0  0  0  0  0  0  0
  195.8170  174.5680  146.0010 C   0  0  0  0  0  3  0  0  0  0  0  0
  195.7930  170.8940  145.7150 N   0  0  0  0  0  1  0  0  0  0  0  0
  196.4860  172.1700  145.7600 C   0  0  0  0  0  2  0  0  0  0  0  0
  1  8  1  0  0  0  0
  1  6  1  0  0  0  0
  2 12  1  1  0  0  0
  4 15  1  0  0  0  0
  4  8  2  0  0  0  0
  5  1  2  0  0  0  0
  7  4  1  0  0  0  0
  9  7  2  0  0  0  0
  9  5  1  0  0  0  0
 10 14  1  0  0  0  0
 10  3  1  0  0  0  0
 11  3  1  6  0  0  0
 11  2  1  0  0  0  0
 11  7  1  0  0  0  0
 12 15  1  0  0  0  0
 13 35  1  1  0  0  0
 13  2  1  0  0  0  0
 14 13  1  0  0  0  0
 16 17  1  6  0  0  0
 16 10  1  0  0  0  0
 18 20  1  0  0  0  0
 18 16  1  0  0  0  0
 19 20  2  0  0  0  0
 20 21  2  0  0  0  0
 22 26  1  0  0  0  0
 22 20  1  0  0  0  0
 23 25  1  0  0  0  0
 23 24  1  0  0  0  0
 24 22  1  0  0  0  0
 25 24  1  0  0  0  0
 26 27  1  6  0  0  0
 28 29  1  0  0  0  0
 28 26  1  0  0  0  0
 29 33  1  0  0  0  0
 30 32  2  0  0  0  0
 32 31  1  0  0  0  0
 33 31  2  0  0  0  0
 34 29  2  0  0  0  0
 34 30  1  0  0  0  0
 35 40  1  0  0  0  0
 36 37  1  0  0  0  0
 37 43  1  0  0  0  0
 37 41  2  0  0  0  0
 38 41  1  0  0  0  0
 39 36  2  0  0  0  0
 39 40  1  0  0  0  0
 40 38  2  0  0  0  0
 42 43  1  0  0  0  0
M  END
>  <MODEL>
3

>  <REMARK>
 VINA RESULT:      -6.6      0.735      1.741
  Name = 
  11 active torsions:
  status: ('A' for Active; 'I' for Inactive)
    1  A    between atoms: C_1  and  C_34
    2  A    between atoms: C_1  and  C_35
    3  A    between atoms: C_2  and  C_6
    4  A    between atoms: C_2  and  N_27
    5  A    between atoms: N_4  and  S_12
    6  A    between atoms: N_4  and  C_15
    7  A    between atoms: N_4  and  C_22
    8  A    between atoms: C_6  and  S_12
    9  A    between atoms: C_11  and  C_14
   10  A    between atoms: C_14  and  C_22
   11  A    between atoms: C_19  and  C_37
                            x       y       z     vdW  Elec       q    Type
                         _______ _______ _______ _____ _____    ______ ____

>  <TORSDO>
F 11

$$$$
=
 OpenBabel11052421163D

 43 48  0  0  1  0  0  0  0  0999 V2000
  184.9300  178.2100  145.7630 C   0  0  0  0  0  0  0  0  0  0  0  0
  188.5220  175.1870  143.8350 C   0  0  1  0  0  3  0  0  0  0  0  0
  189.0080  175.1190  146.2820 C   0  0  0  0  0  2  0  0  0  0  0  0
  186.3740  176.9270  144.3010 C   0  0  0  0  0  0  0  0  0  0  0  0
  185.8410  178.0500  146.8100 C   0  0  0  0  0  3  0  0  0  0  0  0
  183.7600  178.9290  145.9650 O   0  0  0  0  0  1  0  0  0  0  0  0
  187.2790  176.7280  145.3660 C   0  0  0  0  0  0  0  0  0  0  0  0
  185.1960  177.6490  144.5120 C   0  0  0  0  0  3  0  0  0  0  0  0
  187.0150  177.3190  146.6100 C   0  0  0  0  0  3  0  0  0  0  0  0
  190.2900  174.4360  146.0240 N   0  0  0  0  0  0  0  0  0  0  0  0
  188.5840  176.0160  145.1180 C   0  0  2  0  0  3  0  0  0  0  0  0
  188.0500  176.0390  142.7460 N   0  0  0  0  0  2  0  0  0  0  0  0
  189.9100  174.6170  143.5500 C   0  0  1  0  0  3  0  0  0  0  0  0
  190.3430  173.7390  144.7290 C   0  0  0  0  0  2  0  0  0  0  0  0
  186.6250  176.2940  142.9580 C   0  0  0  0  0  2  0  0  0  0  0  0
  191.4920  175.2540  146.2690 C   0  0  1  0  0  3  0  0  0  0  0  0
  191.5920  175.7870  147.6930 C   0  0  0  0  0  1  0  0  0  0  0  0
  192.7580  174.4870  145.9150 C   0  0  0  0  0  2  0  0  0  0  0  0
  194.8530  176.0620  146.4770 O   0  0  0  0  0  0  0  0  0  0  0  0
  194.0330  175.5860  145.3110 S   0  0  0  0  0  0  0  0  0  0  0  0
  193.3980  176.7800  144.6500 O   0  0  0  0  0  0  0  0  0  0  0  0
  195.0840  174.7650  144.1770 N   0  0  0  0  0  0  0  0  0  0  0  0
  196.9740  175.4850  142.8190 C   0  0  0  0  0  2  0  0  0  0  0  0
  196.4130  175.3690  144.2260 C   0  0  0  0  0  3  0  0  0  0  0  0
  196.3930  176.7020  143.5000 C   0  0  0  0  0  2  0  0  0  0  0  0
  195.2000  173.3160  144.4360 C   0  0  1  0  0  3  0  0  0  0  0  0
  195.2360  172.4550  143.1780 C   0  0  0  0  0  1  0  0  0  0  0  0
  196.3780  172.9970  145.3480 C   0  0  0  0  0  2  0  0  0  0  0  0
  196.5790  171.5240  145.4660 C   0  0  0  0  0  0  0  0  0  0  0  0
  197.9370  169.5530  145.0920 C   0  0  0  0  0  3  0  0  0  0  0  0
  195.7440  169.3380  146.0980 C   0  0  0  0  0  3  0  0  0  0  0  0
  196.9290  168.7540  145.6400 C   0  0  0  0  0  3  0  0  0  0  0  0
  195.5680  170.7230  146.0090 C   0  0  0  0  0  3  0  0  0  0  0  0
  197.7620  170.9370  145.0040 C   0  0  0  0  0  3  0  0  0  0  0  0
  189.9150  173.7570  142.2910 C   0  0  0  0  0  2  0  0  0  0  0  0
  192.3590  173.7320  139.3900 C   0  0  0  0  0  3  0  0  0  0  0  0
  193.4000  174.5140  139.9030 C   0  0  0  0  0  0  0  0  0  0  0  0
  192.1610  174.8100  141.9640 C   0  0  0  0  0  3  0  0  0  0  0  0
  191.2240  173.4820  140.1670 C   0  0  0  0  0  3  0  0  0  0  0  0
  191.1260  174.0150  141.4590 C   0  0  0  0  0  0  0  0  0  0  0  0
  193.2960  175.0600  141.1880 C   0  0  0  0  0  3  0  0  0  0  0  0
  195.7730  174.1930  139.6740 N   0  0  0  0  0  1  0  0  0  0  0  0
  194.5990  174.7980  139.0690 C   0  0  0  0  0  2  0  0  0  0  0  0
  1  6  1  0  0  0  0
  1  5  1  0  0  0  0
  2 12  1  6  0  0  0
  2 11  1  0  0  0  0
  4  8  1  0  0  0  0
  4  7  2  0  0  0  0
  7  9  1  0  0  0  0
  8  1  2  0  0  0  0
  9  5  2  0  0  0  0
 10 16  1  0  0  0  0
 10  3  1  0  0  0  0
 11  7  1  0  0  0  0
 11  3  1  1  0  0  0
 12 15  1  0  0  0  0
 13 35  1  6  0  0  0
 13  2  1  0  0  0  0
 13 14  1  0  0  0  0
 14 10  1  0  0  0  0
 15  4  1  0  0  0  0
 16 17  1  1  0  0  0
 18 16  1  0  0  0  0
 20 18  1  0  0  0  0
 20 19  2  0  0  0  0
 21 20  2  0  0  0  0
 22 24  1  0  0  0  0
 22 26  1  0  0  0  0
 22 20  1  0  0  0  0
 23 25  1  0  0  0  0
 23 24  1  0  0  0  0
 25 24  1  0  0  0  0
 26 27  1  6  0  0  0
 26 28  1  0  0  0  0
 28 29  1  0  0  0  0
 29 33  1  0  0  0  0
 30 32  2  0  0  0  0
 32 31  1  0  0  0  0
 33 31  2  0  0  0  0
 34 30  1  0  0  0  0
 34 29  2  0  0  0  0
 36 37  2  0  0  0  0
 36 39  1  0  0  0  0
 37 41  1  0  0  0  0
 39 40  2  0  0  0  0
 40 38  1  0  0  0  0
 40 35  1  0  0  0  0
 41 38  2  0  0  0  0
 43 42  1  0  0  0  0
 43 37  1  0  0  0  0
M  END
>  <MODEL>
4

>  <REMARK>
 VINA RESULT:      -6.5      2.386      5.083
  Name = 
  11 active torsions:
  status: ('A' for Active; 'I' for Inactive)
    1  A    between atoms: C_1  and  C_34
    2  A    between atoms: C_1  and  C_35
    3  A    between atoms: C_2  and  C_6
    4  A    between atoms: C_2  and  N_27
    5  A    between atoms: N_4  and  S_12
    6  A    between atoms: N_4  and  C_15
    7  A    between atoms: N_4  and  C_22
    8  A    between atoms: C_6  and  S_12
    9  A    between atoms: C_11  and  C_14
   10  A    between atoms: C_14  and  C_22
   11  A    between atoms: C_19  and  C_37
                            x       y       z     vdW  Elec       q    Type
                         _______ _______ _______ _____ _____    ______ ____

>  <TORSDO>
F 11

$$$$
=
 OpenBabel11052421163D

 43 48  0  0  1  0  0  0  0  0999 V2000
  196.2070  173.3910  145.5360 C   0  0  0  0  0  0  0  0  0  0  0  0
  191.6250  175.5700  145.6530 C   0  0  1  0  0  3  0  0  0  0  0  0
  191.1030  173.2420  144.9220 C   0  0  0  0  0  2  0  0  0  0  0  0
  194.3540  174.9340  145.7590 C   0  0  0  0  0  0  0  0  0  0  0  0
  195.3850  172.4970  144.8450 C   0  0  0  0  0  3  0  0  0  0  0  0
  197.5380  173.0720  145.7670 O   0  0  0  0  0  1  0  0  0  0  0  0
  193.5080  174.0170  145.0970 C   0  0  0  0  0  0  0  0  0  0  0  0
  195.6920  174.6060  145.9930 C   0  0  0  0  0  3  0  0  0  0  0  0
  194.0430  172.8130  144.6190 C   0  0  0  0  0  3  0  0  0  0  0  0
  189.7180  173.6380  144.6000 N   0  0  0  0  0  0  0  0  0  0  0  0
  192.0860  174.4040  144.7780 C   0  0  2  0  0  3  0  0  0  0  0  0
  192.6080  176.6470  145.5600 N   0  0  0  0  0  2  0  0  0  0  0  0
  190.2430  176.0210  145.1830 C   0  0  1  0  0  3  0  0  0  0  0  0
  189.2660  174.8470  145.3050 C   0  0  0  0  0  2  0  0  0  0  0  0
  193.8040  176.2300  146.2940 C   0  0  0  0  0  2  0  0  0  0  0  0
  189.4010  173.6760  143.1610 C   0  0  1  0  0  3  0  0  0  0  0  0
  188.5390  174.8640  142.7530 C   0  0  0  0  0  1  0  0  0  0  0  0
  190.6690  173.6450  142.3190 C   0  0  0  0  0  2  0  0  0  0  0  0
  190.3740  173.7950  139.6590 O   0  0  0  0  0  0  0  0  0  0  0  0
  190.3980  172.7870  140.7730 S   0  0  0  0  0  0  0  0  0  0  0  0
  189.0700  172.0810  140.8140 O   0  0  0  0  0  0  0  0  0  0  0  0
  191.6790  171.6330  140.4650 N   0  0  0  0  0  0  0  0  0  0  0  0
  192.0760  170.1100  138.6050 C   0  0  0  0  0  2  0  0  0  0  0  0
  191.9290  171.5620  139.0270 C   0  0  0  0  0  3  0  0  0  0  0  0
  190.7790  170.8410  138.3460 C   0  0  0  0  0  2  0  0  0  0  0  0
  192.9390  171.9620  141.1600 C   0  0  1  0  0  3  0  0  0  0  0  0
  193.6620  170.7570  141.7520 C   0  0  0  0  0  1  0  0  0  0  0  0
  193.8750  172.7800  140.2780 C   0  0  0  0  0  2  0  0  0  0  0  0
  194.4660  173.9180  141.0380 C   0  0  0  0  0  0  0  0  0  0  0  0
  196.3500  174.9330  142.1730 C   0  0  0  0  0  3  0  0  0  0  0  0
  194.2150  176.0750  142.1150 C   0  0  0  0  0  3  0  0  0  0  0  0
  195.5550  176.0330  142.5100 C   0  0  0  0  0  3  0  0  0  0  0  0
  193.6690  175.0180  141.3800 C   0  0  0  0  0  3  0  0  0  0  0  0
  195.8060  173.8750  141.4390 C   0  0  0  0  0  3  0  0  0  0  0  0
  189.7110  177.1710  146.0320 C   0  0  0  0  0  2  0  0  0  0  0  0
  185.9850  177.8640  146.2100 C   0  0  0  0  0  3  0  0  0  0  0  0
  185.7140  178.2400  144.8900 C   0  0  0  0  0  0  0  0  0  0  0  0
  188.0490  177.9310  144.3230 C   0  0  0  0  0  3  0  0  0  0  0  0
  187.2860  177.5130  146.5830 C   0  0  0  0  0  3  0  0  0  0  0  0
  188.3190  177.5390  145.6380 C   0  0  0  0  0  0  0  0  0  0  0  0
  186.7490  178.2820  143.9490 C   0  0  0  0  0  3  0  0  0  0  0  0
  184.0970  178.2750  143.1090 N   0  0  0  0  0  1  0  0  0  0  0  0
  184.3340  178.6340  144.4960 C   0  0  0  0  0  2  0  0  0  0  0  0
  1  6  1  0  0  0  0
  1  8  1  0  0  0  0
  2 12  1  6  0  0  0
  4  8  2  0  0  0  0
  4 15  1  0  0  0  0
  5  1  2  0  0  0  0
  7  4  1  0  0  0  0
  9  5  1  0  0  0  0
  9  7  2  0  0  0  0
 10  3  1  0  0  0  0
 10 14  1  0  0  0  0
 11  3  1  1  0  0  0
 11  7  1  0  0  0  0
 11  2  1  0  0  0  0
 12 15  1  0  0  0  0
 13 14  1  0  0  0  0
 13  2  1  0  0  0  0
 13 35  1  1  0  0  0
 16 17  1  1  0  0  0
 16 10  1  0  0  0  0
 18 16  1  0  0  0  0
 19 20  2  0  0  0  0
 20 21  2  0  0  0  0
 20 18  1  0  0  0  0
 22 20  1  0  0  0  0
 22 26  1  0  0  0  0
 23 24  1  0  0  0  0
 24 22  1  0  0  0  0
 25 23  1  0  0  0  0
 25 24  1  0  0  0  0
 26 27  1  6  0  0  0
 28 29  1  0  0  0  0
 28 26  1  0  0  0  0
 29 33  2  0  0  0  0
 29 34  1  0  0  0  0
 30 32  1  0  0  0  0
 31 32  2  0  0  0  0
 33 31  1  0  0  0  0
 34 30  2  0  0  0  0
 36 39  1  0  0  0  0
 37 36  2  0  0  0  0
 38 40  1  0  0  0  0
 40 35  1  0  0  0  0
 40 39  2  0  0  0  0
 41 38  2  0  0  0  0
 41 37  1  0  0  0  0
 42 43  1  0  0  0  0
 43 37  1  0  0  0  0
M  END
>  <MODEL>
5

>  <REMARK>
 VINA RESULT:      -6.3      2.332      6.437
  Name = 
  11 active torsions:
  status: ('A' for Active; 'I' for Inactive)
    1  A    between atoms: C_1  and  C_34
    2  A    between atoms: C_1  and  C_35
    3  A    between atoms: C_2  and  C_6
    4  A    between atoms: C_2  and  N_27
    5  A    between atoms: N_4  and  S_12
    6  A    between atoms: N_4  and  C_15
    7  A    between atoms: N_4  and  C_22
    8  A    between atoms: C_6  and  S_12
    9  A    between atoms: C_11  and  C_14
   10  A    between atoms: C_14  and  C_22
   11  A    between atoms: C_19  and  C_37
                            x       y       z     vdW  Elec       q    Type
                         _______ _______ _______ _____ _____    ______ ____

>  <TORSDO>
F 11

$$$$
=
 OpenBabel11052421163D

 43 48  0  0  1  0  0  0  0  0999 V2000
  185.7890  177.7950  146.4960 C   0  0  0  0  0  0  0  0  0  0  0  0
  190.5630  176.6210  145.2370 C   0  0  1  0  0  3  0  0  0  0  0  0
  189.3710  176.4710  143.0500 C   0  0  0  0  0  2  0  0  0  0  0  0
  188.1620  177.3090  146.5100 C   0  0  0  0  0  0  0  0  0  0  0  0
  185.6810  177.2520  145.2120 C   0  0  0  0  0  3  0  0  0  0  0  0
  184.6640  178.3030  147.1300 O   0  0  0  0  0  1  0  0  0  0  0  0
  188.0670  176.7970  145.1980 C   0  0  0  0  0  0  0  0  0  0  0  0
  187.0260  177.8240  147.1420 C   0  0  0  0  0  3  0  0  0  0  0  0
  186.8140  176.7470  144.5690 C   0  0  0  0  0  3  0  0  0  0  0  0
  190.5550  175.8470  142.4300 N   0  0  0  0  0  0  0  0  0  0  0  0
  189.2750  176.1730  144.5470 C   0  0  2  0  0  3  0  0  0  0  0  0
  190.4310  176.3940  146.6750 N   0  0  0  0  0  2  0  0  0  0  0  0
  191.7360  175.8420  144.6450 C   0  0  1  0  0  3  0  0  0  0  0  0
  191.8140  176.1240  143.1400 C   0  0  0  0  0  2  0  0  0  0  0  0
  189.4950  177.3860  147.2040 C   0  0  0  0  0  2  0  0  0  0  0  0
  190.4030  174.4200  142.0950 C   0  0  1  0  0  3  0  0  0  0  0  0
  189.0170  174.0540  141.5800 C   0  0  0  0  0  1  0  0  0  0  0  0
  191.4590  173.9770  141.0910 C   0  0  0  0  0  2  0  0  0  0  0  0
  192.0060  171.4090  140.5540 O   0  0  0  0  0  0  0  0  0  0  0  0
  192.2440  172.4550  141.6070 S   0  0  0  0  0  0  0  0  0  0  0  0
  191.6320  171.9860  142.8990 O   0  0  0  0  0  0  0  0  0  0  0  0
  193.9690  172.6750  141.8060 N   0  0  0  0  0  0  0  0  0  0  0  0
  195.7640  171.1280  142.3700 C   0  0  0  0  0  2  0  0  0  0  0  0
  194.6630  171.4630  141.3790 C   0  0  0  0  0  3  0  0  0  0  0  0
  194.4590  170.3690  142.4110 C   0  0  0  0  0  2  0  0  0  0  0  0
  194.4990  173.8290  141.0530 C   0  0  1  0  0  3  0  0  0  0  0  0
  195.2230  174.8600  141.9130 C   0  0  0  0  0  1  0  0  0  0  0  0
  195.3710  173.3870  139.8830 C   0  0  0  0  0  2  0  0  0  0  0  0
  195.0550  174.1750  138.6560 C   0  0  0  0  0  0  0  0  0  0  0  0
  195.7910  175.3890  136.6930 C   0  0  0  0  0  3  0  0  0  0  0  0
  193.4290  175.2460  137.2130 C   0  0  0  0  0  3  0  0  0  0  0  0
  194.4620  175.6970  136.3850 C   0  0  0  0  0  3  0  0  0  0  0  0
  193.7250  174.4870  138.3500 C   0  0  0  0  0  3  0  0  0  0  0  0
  196.0880  174.6300  137.8290 C   0  0  0  0  0  3  0  0  0  0  0  0
  193.0610  176.2580  145.2740 C   0  0  0  0  0  2  0  0  0  0  0  0
  196.2000  174.2060  145.8420 C   0  0  0  0  0  3  0  0  0  0  0  0
  195.7050  172.9050  145.7010 C   0  0  0  0  0  0  0  0  0  0  0  0
  193.4880  173.7930  145.2950 C   0  0  0  0  0  3  0  0  0  0  0  0
  195.3410  175.3000  145.7010 C   0  0  0  0  0  3  0  0  0  0  0  0
  193.9840  175.0960  145.4200 C   0  0  0  0  0  0  0  0  0  0  0  0
  194.3460  172.6990  145.4350 C   0  0  0  0  0  3  0  0  0  0  0  0
  195.8340  170.5290  146.0530 N   0  0  0  0  0  1  0  0  0  0  0  0
  196.6150  171.7390  145.8700 C   0  0  0  0  0  2  0  0  0  0  0  0
  1  6  1  0  0  0  0
  1  8  1  0  0  0  0
  2 12  1  1  0  0  0
  4  8  2  0  0  0  0
  4 15  1  0  0  0  0
  5  1  2  0  0  0  0
  7  4  1  0  0  0  0
  9  7  2  0  0  0  0
  9  5  1  0  0  0  0
 10  3  1  0  0  0  0
 10 14  1  0  0  0  0
 11  3  1  6  0  0  0
 11  7  1  0  0  0  0
 11  2  1  0  0  0  0
 12 15  1  0  0  0  0
 13  2  1  0  0  0  0
 13 35  1  1  0  0  0
 14 13  1  0  0  0  0
 16 17  1  6  0  0  0
 16 10  1  0  0  0  0
 18 20  1  0  0  0  0
 18 16  1  0  0  0  0
 19 20  2  0  0  0  0
 20 22  1  0  0  0  0
 20 21  2  0  0  0  0
 23 25  1  0  0  0  0
 24 22  1  0  0  0  0
 24 23  1  0  0  0  0
 24 25  1  0  0  0  0
 26 22  1  0  0  0  0
 26 27  1  1  0  0  0
 28 26  1  0  0  0  0
 29 28  1  0  0  0  0
 30 34  1  0  0  0  0
 31 33  2  0  0  0  0
 32 30  2  0  0  0  0
 32 31  1  0  0  0  0
 33 29  1  0  0  0  0
 34 29  2  0  0  0  0
 35 40  1  0  0  0  0
 37 36  2  0  0  0  0
 37 43  1  0  0  0  0
 38 40  1  0  0  0  0
 38 41  2  0  0  0  0
 39 36  1  0  0  0  0
 40 39  2  0  0  0  0
 41 37  1  0  0  0  0
 43 42  1  0  0  0  0
M  END
>  <MODEL>
6

>  <REMARK>
 VINA RESULT:      -6.0      1.385      2.246
  Name = 
  11 active torsions:
  status: ('A' for Active; 'I' for Inactive)
    1  A    between atoms: C_1  and  C_34
    2  A    between atoms: C_1  and  C_35
    3  A    between atoms: C_2  and  C_6
    4  A    between atoms: C_2  and  N_27
    5  A    between atoms: N_4  and  S_12
    6  A    between atoms: N_4  and  C_15
    7  A    between atoms: N_4  and  C_22
    8  A    between atoms: C_6  and  S_12
    9  A    between atoms: C_11  and  C_14
   10  A    between atoms: C_14  and  C_22
   11  A    between atoms: C_19  and  C_37
                            x       y       z     vdW  Elec       q    Type
                         _______ _______ _______ _____ _____    ______ ____

>  <TORSDO>
F 11

$$$$
=
 OpenBabel11052421163D

 43 48  0  0  1  0  0  0  0  0999 V2000
  187.0530  176.7140  145.8560 C   0  0  0  0  0  0  0  0  0  0  0  0
  191.9600  175.6060  145.1840 C   0  0  1  0  0  3  0  0  0  0  0  0
  191.2510  176.3430  142.9080 C   0  0  0  0  0  2  0  0  0  0  0  0
  189.3590  176.0310  146.1420 C   0  0  0  0  0  0  0  0  0  0  0  0
  187.2060  176.6660  144.4680 C   0  0  0  0  0  3  0  0  0  0  0  0
  185.8300  177.0730  146.4060 O   0  0  0  0  0  1  0  0  0  0  0  0
  189.5320  176.0210  144.7410 C   0  0  0  0  0  0  0  0  0  0  0  0
  188.1270  176.3980  146.6910 C   0  0  0  0  0  3  0  0  0  0  0  0
  188.4380  176.3120  143.9120 C   0  0  0  0  0  3  0  0  0  0  0  0
  192.5260  175.8660  142.3400 N   0  0  0  0  0  0  0  0  0  0  0  0
  190.8370  175.5520  144.1490 C   0  0  2  0  0  3  0  0  0  0  0  0
  191.5240  174.9050  146.3900 N   0  0  0  0  0  2  0  0  0  0  0  0
  193.2150  174.9770  144.5840 C   0  0  1  0  0  3  0  0  0  0  0  0
  193.6130  175.7570  143.3260 C   0  0  0  0  0  2  0  0  0  0  0  0
  190.5190  175.7340  147.0550 C   0  0  0  0  0  2  0  0  0  0  0  0
  192.4190  174.6670  141.4900 C   0  0  1  0  0  3  0  0  0  0  0  0
  191.0530  174.4960  140.8370 C   0  0  0  0  0  1  0  0  0  0  0  0
  193.5060  174.6520  140.4230 C   0  0  0  0  0  2  0  0  0  0  0  0
  194.6030  173.1290  138.5100 O   0  0  0  0  0  0  0  0  0  0  0  0
  193.6520  173.0370  139.6700 S   0  0  0  0  0  0  0  0  0  0  0  0
  192.3080  172.5960  139.1570 O   0  0  0  0  0  0  0  0  0  0  0  0
  194.2680  171.8650  140.8150 N   0  0  0  0  0  0  0  0  0  0  0  0
  196.1990  171.9700  142.2980 C   0  0  0  0  0  2  0  0  0  0  0  0
  194.8420  172.5660  141.9620 C   0  0  0  0  0  3  0  0  0  0  0  0
  196.1170  173.2740  141.5390 C   0  0  0  0  0  2  0  0  0  0  0  0
  193.2390  170.9190  141.2910 C   0  0  1  0  0  3  0  0  0  0  0  0
  193.5150  169.4620  140.9350 C   0  0  0  0  0  1  0  0  0  0  0  0
  192.9750  171.0740  142.7840 C   0  0  0  0  0  2  0  0  0  0  0  0
  191.5510  171.4340  143.0390 C   0  0  0  0  0  0  0  0  0  0  0  0
  189.2830  171.7280  142.2380 C   0  0  0  0  0  3  0  0  0  0  0  0
  189.8270  172.2350  144.5440 C   0  0  0  0  0  3  0  0  0  0  0  0
  188.8900  172.1610  143.5090 C   0  0  0  0  0  3  0  0  0  0  0  0
  191.1580  171.8730  144.3090 C   0  0  0  0  0  3  0  0  0  0  0  0
  190.6130  171.3650  142.0030 C   0  0  0  0  0  3  0  0  0  0  0  0
  194.3860  175.0200  145.5590 C   0  0  0  0  0  2  0  0  0  0  0  0
  197.0630  172.3520  145.8860 C   0  0  0  0  0  3  0  0  0  0  0  0
  196.2880  171.1870  145.8880 C   0  0  0  0  0  0  0  0  0  0  0  0
  194.2780  172.5240  145.6890 C   0  0  0  0  0  3  0  0  0  0  0  0
  196.4450  173.6020  145.7760 C   0  0  0  0  0  3  0  0  0  0  0  0
  195.0510  173.6890  145.6710 C   0  0  0  0  0  0  0  0  0  0  0  0
  194.8940  171.2740  145.7980 C   0  0  0  0  0  3  0  0  0  0  0  0
  196.6680  169.3060  147.3400 N   0  0  0  0  0  1  0  0  0  0  0  0
  196.9430  169.8570  146.0250 C   0  0  0  0  0  2  0  0  0  0  0  0
  1  6  1  0  0  0  0
  1  8  1  0  0  0  0
  2 12  1  1  0  0  0
  4  8  2  0  0  0  0
  4 15  1  0  0  0  0
  5  1  2  0  0  0  0
  7  4  1  0  0  0  0
  9  5  1  0  0  0  0
  9  7  2  0  0  0  0
 10  3  1  0  0  0  0
 10 14  1  0  0  0  0
 11  3  1  6  0  0  0
 11  7  1  0  0  0  0
 11  2  1  0  0  0  0
 12 15  1  0  0  0  0
 13  2  1  0  0  0  0
 13 35  1  1  0  0  0
 14 13  1  0  0  0  0
 16 17  1  6  0  0  0
 16 10  1  0  0  0  0
 18 16  1  0  0  0  0
 19 20  2  0  0  0  0
 20 18  1  0  0  0  0
 20 22  1  0  0  0  0
 21 20  2  0  0  0  0
 22 26  1  0  0  0  0
 22 24  1  0  0  0  0
 24 23  1  0  0  0  0
 25 24  1  0  0  0  0
 25 23  1  0  0  0  0
 26 27  1  1  0  0  0
 26 28  1  0  0  0  0
 28 29  1  0  0  0  0
 29 33  1  0  0  0  0
 30 32  2  0  0  0  0
 32 31  1  0  0  0  0
 33 31  2  0  0  0  0
 34 30  1  0  0  0  0
 34 29  2  0  0  0  0
 35 40  1  0  0  0  0
 36 37  1  0  0  0  0
 37 43  1  0  0  0  0
 38 41  1  0  0  0  0
 39 36  2  0  0  0  0
 40 38  2  0  0  0  0
 40 39  1  0  0  0  0
 41 37  2  0  0  0  0
 43 42  1  0  0  0  0
M  END
>  <MODEL>
7

>  <REMARK>
 VINA RESULT:      -6.0      1.891      3.735
  Name = 
  11 active torsions:
  status: ('A' for Active; 'I' for Inactive)
    1  A    between atoms: C_1  and  C_34
    2  A    between atoms: C_1  and  C_35
    3  A    between atoms: C_2  and  C_6
    4  A    between atoms: C_2  and  N_27
    5  A    between atoms: N_4  and  S_12
    6  A    between atoms: N_4  and  C_15
    7  A    between atoms: N_4  and  C_22
    8  A    between atoms: C_6  and  S_12
    9  A    between atoms: C_11  and  C_14
   10  A    between atoms: C_14  and  C_22
   11  A    between atoms: C_19  and  C_37
                            x       y       z     vdW  Elec       q    Type
                         _______ _______ _______ _____ _____    ______ ____

>  <TORSDO>
F 11

$$$$
=
 OpenBabel11052421163D

 43 48  0  0  1  0  0  0  0  0999 V2000
  196.5720  173.6990  145.2430 C   0  0  0  0  0  0  0  0  0  0  0  0
  191.8190  175.3850  145.8100 C   0  0  1  0  0  3  0  0  0  0  0  0
  191.4760  173.0610  144.9700 C   0  0  0  0  0  2  0  0  0  0  0  0
  194.5980  175.0280  145.6890 C   0  0  0  0  0  0  0  0  0  0  0  0
  195.7930  172.7650  144.5540 C   0  0  0  0  0  3  0  0  0  0  0  0
  197.9410  173.5060  145.3620 O   0  0  0  0  0  1  0  0  0  0  0  0
  193.8000  174.0680  145.0300 C   0  0  0  0  0  0  0  0  0  0  0  0
  195.9750  174.8270  145.8100 C   0  0  0  0  0  3  0  0  0  0  0  0
  194.4130  172.9540  144.4410 C   0  0  0  0  0  3  0  0  0  0  0  0
  190.0390  173.3300  144.7690 N   0  0  0  0  0  0  0  0  0  0  0  0
  192.3270  174.3240  144.8340 C   0  0  2  0  0  3  0  0  0  0  0  0
  192.6820  176.5610  145.7190 N   0  0  0  0  0  2  0  0  0  0  0  0
  190.3690  175.7180  145.4660 C   0  0  1  0  0  3  0  0  0  0  0  0
  189.5230  174.4450  145.5790 C   0  0  0  0  0  2  0  0  0  0  0  0
  193.9640  176.2290  146.3420 C   0  0  0  0  0  2  0  0  0  0  0  0
  189.6130  173.4160  143.3610 C   0  0  1  0  0  3  0  0  0  0  0  0
  188.6120  174.5320  143.0880 C   0  0  0  0  0  1  0  0  0  0  0  0
  190.8120  173.5610  142.4340 C   0  0  0  0  0  2  0  0  0  0  0  0
  190.0660  171.0430  141.8990 O   0  0  0  0  0  0  0  0  0  0  0  0
  191.1340  172.0410  141.5490 S   0  0  0  0  0  0  0  0  0  0  0  0
  192.4680  171.4860  141.9690 O   0  0  0  0  0  0  0  0  0  0  0  0
  191.1150  172.3060  139.8190 N   0  0  0  0  0  0  0  0  0  0  0  0
  189.3870  173.0780  138.2860 C   0  0  0  0  0  2  0  0  0  0  0  0
  190.2180  173.4170  139.5100 C   0  0  0  0  0  3  0  0  0  0  0  0
  188.7770  172.9650  139.6630 C   0  0  0  0  0  2  0  0  0  0  0  0
  192.4520  172.5920  139.2590 C   0  0  1  0  0  3  0  0  0  0  0  0
  192.7110  171.9550  137.8980 C   0  0  0  0  0  1  0  0  0  0  0  0
  192.7410  174.0880  139.2240 C   0  0  0  0  0  2  0  0  0  0  0  0
  193.8960  174.4290  140.1030 C   0  0  0  0  0  0  0  0  0  0  0  0
  196.1910  174.0660  140.7910 C   0  0  0  0  0  3  0  0  0  0  0  0
  194.8240  175.6960  141.9500 C   0  0  0  0  0  3  0  0  0  0  0  0
  196.0450  175.0330  141.7900 C   0  0  0  0  0  3  0  0  0  0  0  0
  193.7490  175.3930  141.1080 C   0  0  0  0  0  3  0  0  0  0  0  0
  195.1170  173.7630  139.9480 C   0  0  0  0  0  3  0  0  0  0  0  0
  189.7900  176.7570  146.4190 C   0  0  0  0  0  2  0  0  0  0  0  0
  186.9040  178.1680  144.4030 C   0  0  0  0  0  3  0  0  0  0  0  0
  185.8250  177.9150  145.2560 C   0  0  0  0  0  0  0  0  0  0  0  0
  187.3310  176.8980  146.8570 C   0  0  0  0  0  3  0  0  0  0  0  0
  188.1970  177.7940  144.7800 C   0  0  0  0  0  3  0  0  0  0  0  0
  188.4140  177.1640  146.0120 C   0  0  0  0  0  0  0  0  0  0  0  0
  186.0380  177.2720  146.4800 C   0  0  0  0  0  3  0  0  0  0  0  0
  184.3450  178.2920  143.3970 N   0  0  0  0  0  1  0  0  0  0  0  0
  184.4450  178.2950  144.8450 C   0  0  0  0  0  2  0  0  0  0  0  0
  1  6  1  0  0  0  0
  1  8  1  0  0  0  0
  2 12  1  6  0  0  0
  4  8  2  0  0  0  0
  4 15  1  0  0  0  0
  5  1  2  0  0  0  0
  7  4  1  0  0  0  0
  9  5  1  0  0  0  0
  9  7  2  0  0  0  0
 10  3  1  0  0  0  0
 10 14  1  0  0  0  0
 11  3  1  1  0  0  0
 11  7  1  0  0  0  0
 11  2  1  0  0  0  0
 12 15  1  0  0  0  0
 13 14  1  0  0  0  0
 13  2  1  0  0  0  0
 13 35  1  1  0  0  0
 16 17  1  1  0  0  0
 16 10  1  0  0  0  0
 18 16  1  0  0  0  0
 20 19  2  0  0  0  0
 20 21  2  0  0  0  0
 20 18  1  0  0  0  0
 22 20  1  0  0  0  0
 23 24  1  0  0  0  0
 23 25  1  0  0  0  0
 24 25  1  0  0  0  0
 24 22  1  0  0  0  0
 26 27  1  6  0  0  0
 26 22  1  0  0  0  0
 28 26  1  0  0  0  0
 28 29  1  0  0  0  0
 29 33  1  0  0  0  0
 30 32  2  0  0  0  0
 32 31  1  0  0  0  0
 33 31  2  0  0  0  0
 34 29  2  0  0  0  0
 34 30  1  0  0  0  0
 36 39  2  0  0  0  0
 36 37  1  0  0  0  0
 37 41  2  0  0  0  0
 39 40  1  0  0  0  0
 40 35  1  0  0  0  0
 40 38  2  0  0  0  0
 41 38  1  0  0  0  0
 42 43  1  0  0  0  0
 43 37  1  0  0  0  0
M  END
>  <MODEL>
8

>  <REMARK>
 VINA RESULT:      -5.9      2.560      6.553
  Name = 
  11 active torsions:
  status: ('A' for Active; 'I' for Inactive)
    1  A    between atoms: C_1  and  C_34
    2  A    between atoms: C_1  and  C_35
    3  A    between atoms: C_2  and  C_6
    4  A    between atoms: C_2  and  N_27
    5  A    between atoms: N_4  and  S_12
    6  A    between atoms: N_4  and  C_15
    7  A    between atoms: N_4  and  C_22
    8  A    between atoms: C_6  and  S_12
    9  A    between atoms: C_11  and  C_14
   10  A    between atoms: C_14  and  C_22
   11  A    between atoms: C_19  and  C_37
                            x       y       z     vdW  Elec       q    Type
                         _______ _______ _______ _____ _____    ______ ____

>  <TORSDO>
F 11

$$$$
=
 OpenBabel11052421163D

 43 48  0  0  1  0  0  0  0  0999 V2000
  191.1810  176.6400  148.0110 C   0  0  0  0  0  0  0  0  0  0  0  0
  188.9950  176.1040  143.4620 C   0  0  1  0  0  3  0  0  0  0  0  0
  189.5030  173.7460  144.1030 C   0  0  0  0  0  2  0  0  0  0  0  0
  190.1160  177.0090  145.8670 C   0  0  0  0  0  0  0  0  0  0  0  0
  191.4730  175.3230  147.6440 C   0  0  0  0  0  3  0  0  0  0  0  0
  191.5670  177.1140  149.2570 O   0  0  0  0  0  1  0  0  0  0  0  0
  190.3720  175.6690  145.5070 C   0  0  0  0  0  0  0  0  0  0  0  0
  190.5030  177.4800  147.1250 C   0  0  0  0  0  3  0  0  0  0  0  0
  191.0780  174.8420  146.3930 C   0  0  0  0  0  3  0  0  0  0  0  0
  189.1730  173.2890  142.7400 N   0  0  0  0  0  0  0  0  0  0  0  0
  190.0230  175.1850  144.1220 C   0  0  2  0  0  3  0  0  0  0  0  0
  189.4710  177.4830  143.5480 N   0  0  0  0  0  2  0  0  0  0  0  0
  188.7960  175.6610  142.0140 C   0  0  1  0  0  3  0  0  0  0  0  0
  188.3000  174.2110  141.9980 C   0  0  0  0  0  2  0  0  0  0  0  0
  189.3500  177.9160  144.9400 C   0  0  0  0  0  2  0  0  0  0  0  0
  190.3250  172.8400  141.9380 C   0  0  1  0  0  3  0  0  0  0  0  0
  190.4710  173.5710  140.6090 C   0  0  0  0  0  1  0  0  0  0  0  0
  191.6210  172.9490  142.7310 C   0  0  0  0  0  2  0  0  0  0  0  0
  193.6640  172.7330  141.0100 O   0  0  0  0  0  0  0  0  0  0  0  0
  192.9020  171.9230  142.0210 S   0  0  0  0  0  0  0  0  0  0  0  0
  192.2770  170.7460  141.3230 O   0  0  0  0  0  0  0  0  0  0  0  0
  194.0140  171.3660  143.2530 N   0  0  0  0  0  0  0  0  0  0  0  0
  195.9850  169.9390  143.1520 C   0  0  0  0  0  2  0  0  0  0  0  0
  195.3480  171.2330  142.6760 C   0  0  0  0  0  3  0  0  0  0  0  0
  195.3900  170.0180  141.7660 C   0  0  0  0  0  2  0  0  0  0  0  0
  194.0800  172.2610  144.4260 C   0  0  1  0  0  3  0  0  0  0  0  0
  194.1920  171.5370  145.7630 C   0  0  0  0  0  1  0  0  0  0  0  0
  195.1800  173.3060  144.2780 C   0  0  0  0  0  2  0  0  0  0  0  0
  194.6880  174.6580  144.6690 C   0  0  0  0  0  0  0  0  0  0  0  0
  193.4960  176.6970  144.1280 C   0  0  0  0  0  3  0  0  0  0  0  0
  194.5680  176.4590  146.2870 C   0  0  0  0  0  3  0  0  0  0  0  0
  193.8120  177.2160  145.3870 C   0  0  0  0  0  3  0  0  0  0  0  0
  195.0070  175.1800  145.9280 C   0  0  0  0  0  3  0  0  0  0  0  0
  193.9350  175.4190  143.7680 C   0  0  0  0  0  3  0  0  0  0  0  0
  187.7610  176.5240  141.3010 C   0  0  0  0  0  2  0  0  0  0  0  0
  185.2280  176.9980  144.0840 C   0  0  0  0  0  3  0  0  0  0  0  0
  185.0840  178.3890  144.0890 C   0  0  0  0  0  0  0  0  0  0  0  0
  186.6940  178.5610  142.2860 C   0  0  0  0  0  3  0  0  0  0  0  0
  186.0980  176.3880  143.1750 C   0  0  0  0  0  3  0  0  0  0  0  0
  186.8270  177.1680  142.2690 C   0  0  0  0  0  0  0  0  0  0  0  0
  185.8240  179.1710  143.1940 C   0  0  0  0  0  3  0  0  0  0  0  0
  184.1020  178.2420  146.2800 N   0  0  0  0  0  1  0  0  0  0  0  0
  184.1730  179.0410  145.0690 C   0  0  0  0  0  2  0  0  0  0  0  0
  1  6  1  0  0  0  0
  2 12  1  6  0  0  0
  2 11  1  0  0  0  0
  4  8  1  0  0  0  0
  5  1  1  0  0  0  0
  7  4  2  0  0  0  0
  7  9  1  0  0  0  0
  8  1  2  0  0  0  0
  9  5  2  0  0  0  0
 10  3  1  0  0  0  0
 11  3  1  1  0  0  0
 11  7  1  0  0  0  0
 12 15  1  0  0  0  0
 13 35  1  1  0  0  0
 13  2  1  0  0  0  0
 14 13  1  0  0  0  0
 14 10  1  0  0  0  0
 15  4  1  0  0  0  0
 16 17  1  6  0  0  0
 16 18  1  0  0  0  0
 16 10  1  0  0  0  0
 19 20  2  0  0  0  0
 20 18  1  0  0  0  0
 20 22  1  0  0  0  0
 21 20  2  0  0  0  0
 22 26  1  0  0  0  0
 24 23  1  0  0  0  0
 24 22  1  0  0  0  0
 25 24  1  0  0  0  0
 25 23  1  0  0  0  0
 26 27  1  1  0  0  0
 28 26  1  0  0  0  0
 28 29  1  0  0  0  0
 29 33  1  0  0  0  0
 30 32  2  0  0  0  0
 32 31  1  0  0  0  0
 33 31  2  0  0  0  0
 34 30  1  0  0  0  0
 34 29  2  0  0  0  0
 35 40  1  0  0  0  0
 36 37  1  0  0  0  0
 37 43  1  0  0  0  0
 38 41  1  0  0  0  0
 39 36  2  0  0  0  0
 40 38  2  0  0  0  0
 40 39  1  0  0  0  0
 41 37  2  0  0  0  0
 43 42  1  0  0  0  0
M  END
>  <MODEL>
9

>  <REMARK>
 VINA RESULT:      -5.8      2.376      5.865
  Name = 
  11 active torsions:
  status: ('A' for Active; 'I' for Inactive)
    1  A    between atoms: C_1  and  C_34
    2  A    between atoms: C_1  and  C_35
    3  A    between atoms: C_2  and  C_6
    4  A    between atoms: C_2  and  N_27
    5  A    between atoms: N_4  and  S_12
    6  A    between atoms: N_4  and  C_15
    7  A    between atoms: N_4  and  C_22
    8  A    between atoms: C_6  and  S_12
    9  A    between atoms: C_11  and  C_14
   10  A    between atoms: C_14  and  C_22
   11  A    between atoms: C_19  and  C_37
                            x       y       z     vdW  Elec       q    Type
                         _______ _______ _______ _____ _____    ______ ____

>  <TORSDO>
F 11

$$$$
