=
 OpenBabel11052421283D

 32 36  0  0  1  0  0  0  0  0999 V2000
  186.5700  178.6750  144.0460 C   0  0  0  0  0  2  0  0  0  0  0  0
  189.3410  174.5120  146.2860 C   0  0  0  0  0  2  0  0  0  0  0  0
  193.0880  176.2310  142.1000 O   0  0  0  0  0  0  0  0  0  0  0  0
  194.1690  175.9170  142.9670 C   0  0  0  0  0  2  0  0  0  0  0  0
  187.6760  176.3520  145.8830 C   0  0  2  0  0  3  0  0  0  0  0  0
  189.9610  177.5090  145.3640 C   0  0  0  0  0  2  0  0  0  0  0  0
  187.9470  178.0270  144.0070 C   0  0  0  0  0  2  0  0  0  0  0  0
  192.0580  176.9120  142.8180 C   0  0  0  0  0  2  0  0  0  0  0  0
  190.4320  176.2120  144.7250 C   0  0  1  0  0  3  0  0  0  0  0  0
  191.8310  176.3260  144.2180 C   0  0  1  0  0  3  0  0  0  0  0  0
  191.7590  174.2810  145.4290 N   0  0  0  0  0  0  0  0  0  0  0  0
  185.3590  177.2940  145.7480 C   0  0  0  0  0  3  0  0  0  0  0  0
  188.4300  177.6160  145.3950 C   0  0  1  0  0  3  0  0  0  0  0  0
  186.3410  176.7250  146.4570 C   0  0  0  0  0  3  0  0  0  0  0  0
  185.4830  177.6320  144.2890 C   0  0  1  0  0  3  0  0  0  0  0  0
  193.7700  174.8410  144.0060 C   0  0  0  0  0  2  0  0  0  0  0  0
  192.2610  174.8940  144.2050 C   0  0  2  0  0  3  0  0  0  0  0  0
  188.4260  175.5420  146.9380 C   0  0  0  0  0  2  0  0  0  0  0  0
  190.6420  175.1750  145.8220 C   0  0  2  0  0  3  0  0  0  0  0  0
  183.8500  178.1170  142.3750 C   0  0  0  0  0  0  0  0  0  0  0  0
  184.2020  178.0980  143.7630 N   0  0  0  0  0  2  0  0  0  0  0  0
  184.6670  177.7320  141.4980 O   0  0  0  0  0  0  0  0  0  0  0  0
  182.5660  178.5850  141.9830 N   0  0  0  0  0  1  0  0  0  0  0  0
  191.2850  172.9480  145.0560 C   0  0  0  0  0  2  0  0  0  0  0  0
  192.6620  171.1190  143.4600 O   0  0  0  0  0  0  0  0  0  0  0  0
  191.3840  171.3160  141.4890 C   0  0  2  0  0  3  0  0  0  0  0  0
  191.0410  172.8690  143.5520 C   0  0  2  0  0  3  0  0  0  0  0  0
  189.1610  172.4900  141.8280 C   0  0  0  0  0  2  0  0  0  0  0  0
  190.3670  172.2970  140.9010 C   0  0  0  0  0  2  0  0  0  0  0  0
  190.8600  170.0230  141.4800 O   0  0  0  0  0  1  0  0  0  0  0  0
  189.5350  172.7750  143.2930 C   0  0  0  0  0  2  0  0  0  0  0  0
  191.7560  171.7100  142.8920 C   0  0  0  0  0  0  0  0  0  0  0  0
  1 15  1  0  0  0  0
  2 18  1  0  0  0  0
  3  8  1  0  0  0  0
  3  4  1  0  0  0  0
  4 16  1  0  0  0  0
  5 14  1  1  0  0  0
  5 18  1  0  0  0  0
  6 13  1  0  0  0  0
  7  1  1  0  0  0  0
  9  6  1  1  0  0  0
  9 19  1  0  0  0  0
 10  8  1  6  0  0  0
 10  9  1  0  0  0  0
 11 19  1  0  0  0  0
 12 14  2  0  0  0  0
 13  7  1  6  0  0  0
 13  5  1  0  0  0  0
 15 21  1  1  0  0  0
 15 12  1  0  0  0  0
 17 16  1  1  0  0  0
 17 10  1  0  0  0  0
 17 11  1  0  0  0  0
 19  2  1  6  0  0  0
 20 21  1  0  0  0  0
 22 20  2  0  0  0  0
 23 20  1  0  0  0  0
 24 11  1  0  0  0  0
 26 30  1  1  0  0  0
 26 32  1  0  0  0  0
 27 24  1  1  0  0  0
 28 31  1  0  0  0  0
 29 26  1  0  0  0  0
 29 28  1  0  0  0  0
 31 27  1  0  0  0  0
 32 25  2  0  0  0  0
 32 27  1  0  0  0  0
M  END
>  <MODEL>
1

>  <REMARK>
 VINA RESULT:      -8.2      0.000      0.000
  Name = 
  3 active torsions:
  status: ('A' for Active; 'I' for Inactive)
    1  A    between atoms: N_10  and  C_24
    2  A    between atoms: C_11  and  C_27
    3  A    between atoms: N_16  and  C_27
                            x       y       z     vdW  Elec       q    Type
                         _______ _______ _______ _____ _____    ______ ____

>  <TORSDO>
F 3

$$$$
=
 OpenBabel11052421283D

 32 36  0  0  1  0  0  0  0  0999 V2000
  191.5540  172.4230  140.4320 C   0  0  0  0  0  2  0  0  0  0  0  0
  187.6850  175.6350  142.6080 C   0  0  0  0  0  2  0  0  0  0  0  0
  191.4480  175.2140  147.0990 O   0  0  0  0  0  0  0  0  0  0  0  0
  191.1470  176.5580  147.4510 C   0  0  0  0  0  2  0  0  0  0  0  0
  189.1090  174.3500  140.9840 C   0  0  2  0  0  3  0  0  0  0  0  0
  190.8770  175.5950  142.4520 C   0  0  0  0  0  2  0  0  0  0  0  0
  191.2960  173.2770  141.6660 C   0  0  0  0  0  2  0  0  0  0  0  0
  191.6090  175.0970  145.6850 C   0  0  0  0  0  2  0  0  0  0  0  0
  189.9910  175.3490  143.6640 C   0  0  1  0  0  3  0  0  0  0  0  0
  190.5830  175.9290  144.9050 C   0  0  1  0  0  3  0  0  0  0  0  0
  188.3090  176.6210  144.9040 N   0  0  0  0  0  0  0  0  0  0  0  0
  189.4700  172.7550  139.0860 C   0  0  0  0  0  3  0  0  0  0  0  0
  190.6030  174.5920  141.3230 C   0  0  1  0  0  3  0  0  0  0  0  0
  188.9600  173.8970  139.5610 C   0  0  0  0  0  3  0  0  0  0  0  0
  190.2610  171.7930  139.9240 C   0  0  1  0  0  3  0  0  0  0  0  0
  189.7410  176.9740  146.9550 C   0  0  0  0  0  2  0  0  0  0  0  0
  189.3700  176.1050  145.7600 C   0  0  2  0  0  3  0  0  0  0  0  0
  188.2150  175.5720  141.1800 C   0  0  0  0  0  2  0  0  0  0  0  0
  188.7460  176.2210  143.5440 C   0  0  2  0  0  3  0  0  0  0  0  0
  190.7440  169.2820  139.7520 C   0  0  0  0  0  0  0  0  0  0  0  0
  190.5500  170.5760  139.1690 N   0  0  0  0  0  2  0  0  0  0  0  0
  190.6880  169.1230  140.9990 O   0  0  0  0  0  0  0  0  0  0  0  0
  191.0100  168.1660  138.9110 N   0  0  0  0  0  1  0  0  0  0  0  0
  187.0840  175.9290  145.3070 C   0  0  0  0  0  2  0  0  0  0  0  0
  186.2940  176.7210  147.8650 O   0  0  0  0  0  0  0  0  0  0  0  0
  184.9190  178.5430  147.2750 C   0  0  2  0  0  3  0  0  0  0  0  0
  185.9480  176.9270  145.5110 C   0  0  2  0  0  3  0  0  0  0  0  0
  185.2260  179.3210  144.8810 C   0  0  0  0  0  2  0  0  0  0  0  0
  184.2270  179.0700  146.0170 C   0  0  0  0  0  2  0  0  0  0  0  0
  185.6930  179.5510  147.8520 O   0  0  0  0  0  1  0  0  0  0  0  0
  186.1920  178.1510  144.6250 C   0  0  0  0  0  2  0  0  0  0  0  0
  185.7800  177.3540  146.9540 C   0  0  0  0  0  0  0  0  0  0  0  0
  1  7  1  0  0  0  0
  3  4  1  0  0  0  0
  5 14  1  6  0  0  0
  5 18  1  0  0  0  0
  5 13  1  0  0  0  0
  8  3  1  0  0  0  0
  9  6  1  6  0  0  0
  9 10  1  0  0  0  0
 10  8  1  1  0  0  0
 10 17  1  0  0  0  0
 11 24  1  0  0  0  0
 11 17  1  0  0  0  0
 12 14  2  0  0  0  0
 12 15  1  0  0  0  0
 13  7  1  1  0  0  0
 13  6  1  0  0  0  0
 15 21  1  6  0  0  0
 15  1  1  0  0  0  0
 16  4  1  0  0  0  0
 17 16  1  1  0  0  0
 18  2  1  0  0  0  0
 19  2  1  1  0  0  0
 19  9  1  0  0  0  0
 19 11  1  0  0  0  0
 20 22  2  0  0  0  0
 21 20  1  0  0  0  0
 23 20  1  0  0  0  0
 26 30  1  6  0  0  0
 27 24  1  1  0  0  0
 27 32  1  0  0  0  0
 28 29  1  0  0  0  0
 29 26  1  0  0  0  0
 31 28  1  0  0  0  0
 31 27  1  0  0  0  0
 32 26  1  0  0  0  0
 32 25  2  0  0  0  0
M  END
>  <MODEL>
2

>  <REMARK>
 VINA RESULT:      -7.5      3.345      7.729
  Name = 
  3 active torsions:
  status: ('A' for Active; 'I' for Inactive)
    1  A    between atoms: N_10  and  C_24
    2  A    between atoms: C_11  and  C_27
    3  A    between atoms: N_16  and  C_27
                            x       y       z     vdW  Elec       q    Type
                         _______ _______ _______ _____ _____    ______ ____

>  <TORSDO>
F 3

$$$$
=
 OpenBabel11052421283D

 32 36  0  0  1  0  0  0  0  0999 V2000
  187.8580  178.0070  142.6810 C   0  0  0  0  0  2  0  0  0  0  0  0
  191.0820  175.7590  146.4980 C   0  0  0  0  0  2  0  0  0  0  0  0
  194.5080  175.3340  141.7450 O   0  0  0  0  0  0  0  0  0  0  0  0
  195.6420  175.5770  142.5650 C   0  0  0  0  0  2  0  0  0  0  0  0
  189.2390  177.0240  145.3490 C   0  0  2  0  0  3  0  0  0  0  0  0
  191.3860  177.8970  144.1420 C   0  0  0  0  0  2  0  0  0  0  0  0
  189.2870  177.5200  142.8690 C   0  0  0  0  0  2  0  0  0  0  0  0
  193.4430  176.2190  142.0960 C   0  0  0  0  0  2  0  0  0  0  0  0
  191.9560  176.4890  144.2130 C   0  0  1  0  0  3  0  0  0  0  0  0
  193.3200  176.4170  143.6130 C   0  0  1  0  0  3  0  0  0  0  0  0
  193.4810  175.2780  145.6930 N   0  0  0  0  0  0  0  0  0  0  0  0
  186.8400  177.6150  144.9340 C   0  0  0  0  0  3  0  0  0  0  0  0
  189.8540  177.9060  144.2320 C   0  0  1  0  0  3  0  0  0  0  0  0
  187.8940  177.5520  145.7560 C   0  0  0  0  0  3  0  0  0  0  0  0
  186.8820  177.1680  143.5010 C   0  0  1  0  0  3  0  0  0  0  0  0
  195.3820  175.1600  144.0330 C   0  0  0  0  0  2  0  0  0  0  0  0
  193.8810  175.2100  144.2930 C   0  0  2  0  0  3  0  0  0  0  0  0
  190.0970  176.9160  146.6080 C   0  0  0  0  0  2  0  0  0  0  0  0
  192.2990  176.1730  145.6640 C   0  0  2  0  0  3  0  0  0  0  0  0
  184.6840  178.3590  142.9410 C   0  0  0  0  0  0  0  0  0  0  0  0
  185.5470  177.2160  142.9110 N   0  0  0  0  0  2  0  0  0  0  0  0
  185.0420  179.4220  143.5140 O   0  0  0  0  0  0  0  0  0  0  0  0
  183.4050  178.2900  142.3220 N   0  0  0  0  0  1  0  0  0  0  0  0
  193.1220  173.9140  146.0840 C   0  0  0  0  0  2  0  0  0  0  0  0
  194.6830  171.6220  145.7670 O   0  0  0  0  0  0  0  0  0  0  0  0
  193.5300  170.6400  143.9610 C   0  0  2  0  0  3  0  0  0  0  0  0
  192.9810  173.0240  144.8520 C   0  0  2  0  0  3  0  0  0  0  0  0
  191.2380  171.6450  143.5460 C   0  0  0  0  0  2  0  0  0  0  0  0
  192.5100  171.0750  142.9060 C   0  0  0  0  0  2  0  0  0  0  0  0
  193.0680  169.5080  144.6330 O   0  0  0  0  0  1  0  0  0  0  0  0
  191.5020  172.6960  144.6380 C   0  0  0  0  0  2  0  0  0  0  0  0
  193.7910  171.7490  144.9410 C   0  0  0  0  0  0  0  0  0  0  0  0
  1  7  1  0  0  0  0
  1 15  1  0  0  0  0
  2 18  1  0  0  0  0
  3  8  1  0  0  0  0
  3  4  1  0  0  0  0
  4 16  1  0  0  0  0
  5 14  1  1  0  0  0
  5 18  1  0  0  0  0
  6 13  1  0  0  0  0
  9  6  1  1  0  0  0
  9 19  1  0  0  0  0
 10  8  1  6  0  0  0
 10  9  1  0  0  0  0
 10 17  1  0  0  0  0
 11 24  1  0  0  0  0
 12 14  2  0  0  0  0
 13  7  1  6  0  0  0
 13  5  1  0  0  0  0
 15 21  1  6  0  0  0
 15 12  1  0  0  0  0
 17 16  1  1  0  0  0
 17 11  1  0  0  0  0
 19 11  1  0  0  0  0
 19  2  1  6  0  0  0
 20 22  2  0  0  0  0
 21 20  1  0  0  0  0
 23 20  1  0  0  0  0
 26 30  1  1  0  0  0
 26 32  1  0  0  0  0
 27 32  1  0  0  0  0
 27 24  1  1  0  0  0
 28 31  1  0  0  0  0
 29 28  1  0  0  0  0
 29 26  1  0  0  0  0
 31 27  1  0  0  0  0
 32 25  2  0  0  0  0
M  END
>  <MODEL>
3

>  <REMARK>
 VINA RESULT:      -7.5      1.754      2.197
  Name = 
  3 active torsions:
  status: ('A' for Active; 'I' for Inactive)
    1  A    between atoms: N_10  and  C_24
    2  A    between atoms: C_11  and  C_27
    3  A    between atoms: N_16  and  C_27
                            x       y       z     vdW  Elec       q    Type
                         _______ _______ _______ _____ _____    ______ ____

>  <TORSDO>
F 3

$$$$
=
 OpenBabel11052421283D

 32 36  0  0  1  0  0  0  0  0999 V2000
  188.5270  177.8310  144.8530 C   0  0  0  0  0  2  0  0  0  0  0  0
  192.6340  174.4870  146.2590 C   0  0  0  0  0  2  0  0  0  0  0  0
  192.0240  173.1800  140.5650 O   0  0  0  0  0  0  0  0  0  0  0  0
  193.4310  173.0040  140.4750 C   0  0  0  0  0  2  0  0  0  0  0  0
  190.9280  176.3340  146.2630 C   0  0  2  0  0  3  0  0  0  0  0  0
  191.9770  176.5120  143.8760 C   0  0  0  0  0  2  0  0  0  0  0  0
  189.5470  176.8960  144.2190 C   0  0  0  0  0  2  0  0  0  0  0  0
  191.7190  174.3470  141.3290 C   0  0  0  0  0  2  0  0  0  0  0  0
  192.0410  174.9930  143.8290 C   0  0  1  0  0  3  0  0  0  0  0  0
  192.6350  174.5070  142.5490 C   0  0  1  0  0  3  0  0  0  0  0  0
  193.7380  173.2860  144.2660 N   0  0  0  0  0  0  0  0  0  0  0  0
  189.0900  177.6920  147.2880 C   0  0  0  0  0  3  0  0  0  0  0  0
  190.9220  177.0160  144.8700 C   0  0  1  0  0  3  0  0  0  0  0  0
  190.3540  177.2530  147.3010 C   0  0  0  0  0  3  0  0  0  0  0  0
  188.0970  177.3200  146.2250 C   0  0  1  0  0  3  0  0  0  0  0  0
  194.0450  172.6290  141.8460 C   0  0  0  0  0  2  0  0  0  0  0  0
  193.1320  173.1540  142.9470 C   0  0  2  0  0  3  0  0  0  0  0  0
  192.3110  175.8960  146.7410 C   0  0  0  0  0  2  0  0  0  0  0  0
  193.1110  174.5190  144.8040 C   0  0  2  0  0  3  0  0  0  0  0  0
  185.5430  177.3360  146.0130 C   0  0  0  0  0  0  0  0  0  0  0  0
  186.7700  177.8270  146.5660 N   0  0  0  0  0  2  0  0  0  0  0  0
  185.5460  176.4130  145.1580 O   0  0  0  0  0  0  0  0  0  0  0  0
  184.3080  177.9040  146.4310 N   0  0  0  0  0  1  0  0  0  0  0  0
  193.3390  172.0980  145.0220 C   0  0  0  0  0  2  0  0  0  0  0  0
  193.7120  169.3470  144.7380 O   0  0  0  0  0  0  0  0  0  0  0  0
  195.9560  169.2070  145.4490 C   0  0  2  0  0  3  0  0  0  0  0  0
  194.5630  171.4010  145.6080 C   0  0  2  0  0  3  0  0  0  0  0  0
  197.1400  171.4480  145.5380 C   0  0  0  0  0  2  0  0  0  0  0  0
  196.9510  170.0830  146.2110 C   0  0  0  0  0  2  0  0  0  0  0  0
  196.5080  168.8040  144.2320 O   0  0  0  0  0  1  0  0  0  0  0  0
  195.8220  172.1580  145.1800 C   0  0  0  0  0  2  0  0  0  0  0  0
  194.6690  169.9450  145.2090 C   0  0  0  0  0  0  0  0  0  0  0  0
  1 15  1  0  0  0  0
  2 18  1  0  0  0  0
  3  8  1  0  0  0  0
  4  3  1  0  0  0  0
  4 16  1  0  0  0  0
  5 18  1  1  0  0  0
  5 14  1  0  0  0  0
  7  1  1  0  0  0  0
  7 13  1  0  0  0  0
  9  6  1  6  0  0  0
  9 19  1  0  0  0  0
 10  8  1  6  0  0  0
 10 17  1  0  0  0  0
 10  9  1  0  0  0  0
 11 19  1  0  0  0  0
 11 24  1  0  0  0  0
 12 14  2  0  0  0  0
 13  6  1  6  0  0  0
 13  5  1  0  0  0  0
 15 21  1  1  0  0  0
 15 12  1  0  0  0  0
 17 16  1  6  0  0  0
 17 11  1  0  0  0  0
 19  2  1  1  0  0  0
 20 23  1  0  0  0  0
 20 21  1  0  0  0  0
 22 20  2  0  0  0  0
 25 32  2  0  0  0  0
 26 30  1  6  0  0  0
 26 29  1  0  0  0  0
 27 24  1  6  0  0  0
 28 29  1  0  0  0  0
 31 28  1  0  0  0  0
 31 27  1  0  0  0  0
 32 26  1  0  0  0  0
 32 27  1  0  0  0  0
M  END
>  <MODEL>
4

>  <REMARK>
 VINA RESULT:      -7.3      2.937      4.254
  Name = 
  3 active torsions:
  status: ('A' for Active; 'I' for Inactive)
    1  A    between atoms: N_10  and  C_24
    2  A    between atoms: C_11  and  C_27
    3  A    between atoms: N_16  and  C_27
                            x       y       z     vdW  Elec       q    Type
                         _______ _______ _______ _____ _____    ______ ____

>  <TORSDO>
F 3

$$$$
=
 OpenBabel11052421283D

 32 36  0  0  1  0  0  0  0  0999 V2000
  196.5740  173.3200  146.0030 C   0  0  0  0  0  2  0  0  0  0  0  0
  193.2210  176.0160  142.6110 C   0  0  0  0  0  2  0  0  0  0  0  0
  190.1680  176.2490  147.6250 O   0  0  0  0  0  0  0  0  0  0  0  0
  189.7140  177.5470  147.2640 C   0  0  0  0  0  2  0  0  0  0  0  0
  195.2370  174.8990  143.6130 C   0  0  2  0  0  3  0  0  0  0  0  0
  194.3850  176.4190  145.5600 C   0  0  0  0  0  2  0  0  0  0  0  0
  195.3060  174.1620  146.0320 C   0  0  0  0  0  2  0  0  0  0  0  0
  191.5620  176.1170  147.3440 C   0  0  0  0  0  2  0  0  0  0  0  0
  192.9580  176.0850  145.1490 C   0  0  1  0  0  3  0  0  0  0  0  0
  191.9600  176.7750  146.0160 C   0  0  1  0  0  3  0  0  0  0  0  0
  191.2240  177.1420  143.7850 N   0  0  0  0  0  0  0  0  0  0  0  0
  197.1810  173.3200  143.5750 C   0  0  0  0  0  3  0  0  0  0  0  0
  195.3860  175.3580  145.0870 C   0  0  1  0  0  3  0  0  0  0  0  0
  196.5470  174.3910  143.0850 C   0  0  0  0  0  3  0  0  0  0  0  0
  196.6570  172.5000  144.7190 C   0  0  1  0  0  3  0  0  0  0  0  0
  189.7280  177.7470  145.7290 C   0  0  0  0  0  2  0  0  0  0  0  0
  190.7600  176.8030  145.1250 C   0  0  2  0  0  3  0  0  0  0  0  0
  194.7430  175.9890  142.6640 C   0  0  0  0  0  2  0  0  0  0  0  0
  192.6600  176.7700  143.8210 C   0  0  2  0  0  3  0  0  0  0  0  0
  197.0410  170.1050  145.5420 C   0  0  0  0  0  0  0  0  0  0  0  0
  197.4870  171.3160  144.9220 N   0  0  0  0  0  2  0  0  0  0  0  0
  195.8640  169.9990  145.9760 O   0  0  0  0  0  0  0  0  0  0  0  0
  197.9410  169.0110  145.6750 N   0  0  0  0  0  1  0  0  0  0  0  0
  190.4650  176.2970  142.8630 C   0  0  0  0  0  2  0  0  0  0  0  0
  189.1860  178.4490  141.6290 O   0  0  0  0  0  0  0  0  0  0  0  0
  186.9480  177.7970  141.9820 C   0  0  2  0  0  3  0  0  0  0  0  0
  188.9670  176.5300  143.0330 C   0  0  2  0  0  3  0  0  0  0  0  0
  186.6900  175.3720  142.6800 C   0  0  0  0  0  2  0  0  0  0  0  0
  186.1910  176.8090  142.8730 C   0  0  0  0  0  2  0  0  0  0  0  0
  186.6030  177.5960  140.6450 O   0  0  0  0  0  1  0  0  0  0  0  0
  188.2210  175.2260  142.7390 C   0  0  0  0  0  2  0  0  0  0  0  0
  188.4340  177.6440  142.1580 C   0  0  0  0  0  0  0  0  0  0  0  0
  1  7  1  0  0  0  0
  2 18  1  0  0  0  0
  4  3  1  0  0  0  0
  5 18  1  6  0  0  0
  5 13  1  0  0  0  0
  8  3  1  0  0  0  0
  9  6  1  1  0  0  0
  9 10  1  0  0  0  0
 10  8  1  1  0  0  0
 11 19  1  0  0  0  0
 11 17  1  0  0  0  0
 12 15  1  0  0  0  0
 13  6  1  1  0  0  0
 13  7  1  0  0  0  0
 14 12  2  0  0  0  0
 14  5  1  0  0  0  0
 15 21  1  1  0  0  0
 15  1  1  0  0  0  0
 16  4  1  0  0  0  0
 17 16  1  1  0  0  0
 17 10  1  0  0  0  0
 19  2  1  6  0  0  0
 19  9  1  0  0  0  0
 20 23  1  0  0  0  0
 20 22  2  0  0  0  0
 21 20  1  0  0  0  0
 24 11  1  0  0  0  0
 25 32  2  0  0  0  0
 26 30  1  6  0  0  0
 26 32  1  0  0  0  0
 26 29  1  0  0  0  0
 27 24  1  6  0  0  0
 28 31  1  0  0  0  0
 28 29  1  0  0  0  0
 31 27  1  0  0  0  0
 32 27  1  0  0  0  0
M  END
>  <MODEL>
5

>  <REMARK>
 VINA RESULT:      -7.2      3.587      8.672
  Name = 
  3 active torsions:
  status: ('A' for Active; 'I' for Inactive)
    1  A    between atoms: N_10  and  C_24
    2  A    between atoms: C_11  and  C_27
    3  A    between atoms: N_16  and  C_27
                            x       y       z     vdW  Elec       q    Type
                         _______ _______ _______ _____ _____    ______ ____

>  <TORSDO>
F 3

$$$$
=
 OpenBabel11052421283D

 32 36  0  0  1  0  0  0  0  0999 V2000
  186.7630  176.1630  142.9840 C   0  0  0  0  0  2  0  0  0  0  0  0
  192.0480  175.2110  144.0770 C   0  0  0  0  0  2  0  0  0  0  0  0
  190.4410  170.0660  141.7400 O   0  0  0  0  0  0  0  0  0  0  0  0
  191.7270  169.9580  141.1440 C   0  0  0  0  0  2  0  0  0  0  0  0
  189.8400  176.3480  143.6850 C   0  0  2  0  0  3  0  0  0  0  0  0
  190.0430  174.7460  141.6310 C   0  0  0  0  0  2  0  0  0  0  0  0
  187.8460  175.1240  142.7240 C   0  0  0  0  0  2  0  0  0  0  0  0
  189.9390  171.3950  141.5960 C   0  0  0  0  0  2  0  0  0  0  0  0
  190.6640  173.7040  142.5500 C   0  0  1  0  0  3  0  0  0  0  0  0
  191.0220  172.4600  141.8080 C   0  0  1  0  0  3  0  0  0  0  0  0
  192.9320  172.9870  143.1230 N   0  0  0  0  0  0  0  0  0  0  0  0
  187.9820  177.9160  144.2910 C   0  0  0  0  0  3  0  0  0  0  0  0
  189.1930  175.7640  142.4020 C   0  0  1  0  0  3  0  0  0  0  0  0
  189.2690  177.7010  143.9930 C   0  0  0  0  0  3  0  0  0  0  0  0
  186.9540  176.8220  144.3470 C   0  0  1  0  0  3  0  0  0  0  0  0
  192.7880  170.7640  141.9320 C   0  0  0  0  0  2  0  0  0  0  0  0
  192.0840  171.8840  142.6890 C   0  0  2  0  0  3  0  0  0  0  0  0
  191.3590  176.4890  143.6130 C   0  0  0  0  0  2  0  0  0  0  0  0
  192.0580  174.1740  142.9490 C   0  0  2  0  0  3  0  0  0  0  0  0
  185.3260  177.4300  146.2290 C   0  0  0  0  0  0  0  0  0  0  0  0
  185.6830  177.3410  144.8450 N   0  0  0  0  0  2  0  0  0  0  0  0
  186.1170  177.0350  147.1250 O   0  0  0  0  0  0  0  0  0  0  0  0
  184.0600  177.9640  146.5950 N   0  0  0  0  0  1  0  0  0  0  0  0
  193.2380  172.7390  144.5330 C   0  0  0  0  0  2  0  0  0  0  0  0
  195.3420  174.5280  144.9370 O   0  0  0  0  0  0  0  0  0  0  0  0
  197.0200  172.9880  145.5460 C   0  0  2  0  0  3  0  0  0  0  0  0
  194.6750  172.2490  144.6890 C   0  0  2  0  0  3  0  0  0  0  0  0
  196.1290  170.6880  146.1380 C   0  0  0  0  0  2  0  0  0  0  0  0
  197.2500  171.4780  145.4520 C   0  0  0  0  0  2  0  0  0  0  0  0
  197.1910  173.4160  146.8630 O   0  0  0  0  0  1  0  0  0  0  0  0
  194.7110  171.1350  145.7380 C   0  0  0  0  0  2  0  0  0  0  0  0
  195.6430  173.3500  145.0640 C   0  0  0  0  0  0  0  0  0  0  0  0
  1 15  1  0  0  0  0
  4  3  1  0  0  0  0
  4 16  1  0  0  0  0
  5 18  1  6  0  0  0
  5 14  1  0  0  0  0
  7  1  1  0  0  0  0
  8  3  1  0  0  0  0
  9  6  1  6  0  0  0
  9 19  1  0  0  0  0
 10  8  1  1  0  0  0
 10  9  1  0  0  0  0
 10 17  1  0  0  0  0
 11 24  1  0  0  0  0
 12 15  1  0  0  0  0
 13  6  1  1  0  0  0
 13  7  1  0  0  0  0
 13  5  1  0  0  0  0
 14 12  2  0  0  0  0
 15 21  1  6  0  0  0
 17 16  1  6  0  0  0
 17 11  1  0  0  0  0
 18  2  1  0  0  0  0
 19 11  1  0  0  0  0
 19  2  1  1  0  0  0
 20 23  1  0  0  0  0
 20 22  2  0  0  0  0
 21 20  1  0  0  0  0
 25 32  2  0  0  0  0
 26 30  1  1  0  0  0
 27 24  1  1  0  0  0
 27 32  1  0  0  0  0
 27 31  1  0  0  0  0
 29 26  1  0  0  0  0
 29 28  1  0  0  0  0
 31 28  1  0  0  0  0
 32 26  1  0  0  0  0
M  END
>  <MODEL>
6

>  <REMARK>
 VINA RESULT:      -7.2      2.838      4.946
  Name = 
  3 active torsions:
  status: ('A' for Active; 'I' for Inactive)
    1  A    between atoms: N_10  and  C_24
    2  A    between atoms: C_11  and  C_27
    3  A    between atoms: N_16  and  C_27
                            x       y       z     vdW  Elec       q    Type
                         _______ _______ _______ _____ _____    ______ ____

>  <TORSDO>
F 3

$$$$
=
 OpenBabel11052421283D

 32 36  0  0  1  0  0  0  0  0999 V2000
  192.0010  172.9660  140.0690 C   0  0  0  0  0  2  0  0  0  0  0  0
  189.2160  175.2580  144.1950 C   0  0  0  0  0  2  0  0  0  0  0  0
  186.6270  177.7740  139.5610 O   0  0  0  0  0  0  0  0  0  0  0  0
  185.3900  177.7390  140.2590 C   0  0  0  0  0  2  0  0  0  0  0  0
  190.7010  173.7440  142.8440 C   0  0  2  0  0  3  0  0  0  0  0  0
  188.5360  173.8890  141.3880 C   0  0  0  0  0  2  0  0  0  0  0  0
  190.7760  173.8360  140.3170 C   0  0  0  0  0  2  0  0  0  0  0  0
  187.3260  176.5390  139.7290 C   0  0  0  0  0  2  0  0  0  0  0  0
  188.4190  175.3570  141.7720 C   0  0  1  0  0  3  0  0  0  0  0  0
  187.2160  175.9920  141.1580 C   0  0  1  0  0  3  0  0  0  0  0  0
  187.1820  176.6470  143.4430 N   0  0  0  0  0  0  0  0  0  0  0  0
  192.8360  172.5160  142.3860 C   0  0  0  0  0  3  0  0  0  0  0  0
  189.9730  173.3690  141.5270 C   0  0  1  0  0  3  0  0  0  0  0  0
  191.7670  172.7370  143.1600 C   0  0  0  0  0  3  0  0  0  0  0  0
  193.0900  173.2500  141.1000 C   0  0  1  0  0  3  0  0  0  0  0  0
  185.6020  177.7240  141.7920 C   0  0  0  0  0  2  0  0  0  0  0  0
  186.9780  177.1390  142.0860 C   0  0  2  0  0  3  0  0  0  0  0  0
  189.7840  173.8500  144.0600 C   0  0  0  0  0  2  0  0  0  0  0  0
  188.0310  175.4460  143.2440 C   0  0  2  0  0  3  0  0  0  0  0  0
  195.5900  173.6820  140.7440 C   0  0  0  0  0  0  0  0  0  0  0  0
  194.4030  172.9010  140.5640 N   0  0  0  0  0  2  0  0  0  0  0  0
  195.5580  174.7640  141.3890 O   0  0  0  0  0  0  0  0  0  0  0  0
  196.8170  173.2350  140.1820 N   0  0  0  0  0  1  0  0  0  0  0  0
  187.8950  177.7050  144.1600 C   0  0  0  0  0  2  0  0  0  0  0  0
  185.8890  179.6390  144.3130 O   0  0  0  0  0  0  0  0  0  0  0  0
  185.0670  179.1440  146.4670 C   0  0  2  0  0  3  0  0  0  0  0  0
  187.1990  178.0200  145.4800 C   0  0  2  0  0  3  0  0  0  0  0  0
  185.8380  176.9000  147.3630 C   0  0  0  0  0  2  0  0  0  0  0  0
  185.5340  178.3650  147.6980 C   0  0  0  0  0  2  0  0  0  0  0  0
  183.7960  178.7140  146.0840 O   0  0  0  0  0  1  0  0  0  0  0  0
  186.7300  176.7120  146.1230 C   0  0  0  0  0  2  0  0  0  0  0  0
  186.0330  178.9720  145.3280 C   0  0  0  0  0  0  0  0  0  0  0  0
  1  7  1  0  0  0  0
  1 15  1  0  0  0  0
  3  8  1  0  0  0  0
  3  4  1  0  0  0  0
  4 16  1  0  0  0  0
  5 14  1  1  0  0  0
  5 18  1  0  0  0  0
  6 13  1  0  0  0  0
  9  6  1  6  0  0  0
  9 19  1  0  0  0  0
 10  8  1  6  0  0  0
 10  9  1  0  0  0  0
 10 17  1  0  0  0  0
 11 24  1  0  0  0  0
 12 14  2  0  0  0  0
 13  7  1  6  0  0  0
 13  5  1  0  0  0  0
 15 21  1  6  0  0  0
 15 12  1  0  0  0  0
 17 16  1  1  0  0  0
 17 11  1  0  0  0  0
 18  2  1  0  0  0  0
 19 11  1  0  0  0  0
 19  2  1  1  0  0  0
 20 22  2  0  0  0  0
 21 20  1  0  0  0  0
 23 20  1  0  0  0  0
 25 32  2  0  0  0  0
 26 30  1  6  0  0  0
 26 29  1  0  0  0  0
 27 24  1  6  0  0  0
 27 31  1  0  0  0  0
 28 29  1  0  0  0  0
 31 28  1  0  0  0  0
 32 27  1  0  0  0  0
 32 26  1  0  0  0  0
M  END
>  <MODEL>
7

>  <REMARK>
 VINA RESULT:      -7.1      2.894      8.407
  Name = 
  3 active torsions:
  status: ('A' for Active; 'I' for Inactive)
    1  A    between atoms: N_10  and  C_24
    2  A    between atoms: C_11  and  C_27
    3  A    between atoms: N_16  and  C_27
                            x       y       z     vdW  Elec       q    Type
                         _______ _______ _______ _____ _____    ______ ____

>  <TORSDO>
F 3

$$$$
=
 OpenBabel11052421283D

 32 36  0  0  1  0  0  0  0  0999 V2000
  188.9360  178.2130  142.8180 C   0  0  0  0  0  2  0  0  0  0  0  0
  191.6920  174.2140  145.3560 C   0  0  0  0  0  2  0  0  0  0  0  0
  195.5040  175.7030  141.1420 O   0  0  0  0  0  0  0  0  0  0  0  0
  196.5710  175.4500  142.0460 C   0  0  0  0  0  2  0  0  0  0  0  0
  190.0230  176.0130  144.8130 C   0  0  2  0  0  3  0  0  0  0  0  0
  192.3090  177.1540  144.2660 C   0  0  0  0  0  2  0  0  0  0  0  0
  190.3170  177.5740  142.8430 C   0  0  0  0  0  2  0  0  0  0  0  0
  194.4570  176.4190  141.7990 C   0  0  0  0  0  2  0  0  0  0  0  0
  192.8010  175.8240  143.7150 C   0  0  1  0  0  3  0  0  0  0  0  0
  194.2080  175.9170  143.2270 C   0  0  1  0  0  3  0  0  0  0  0  0
  194.1260  173.9490  144.5590 N   0  0  0  0  0  0  0  0  0  0  0  0
  187.7030  176.9290  144.5780 C   0  0  0  0  0  3  0  0  0  0  0  0
  190.7780  177.2510  144.2620 C   0  0  1  0  0  3  0  0  0  0  0  0
  188.6750  176.4110  145.3380 C   0  0  0  0  0  3  0  0  0  0  0  0
  187.8510  177.1790  143.1050 C   0  0  1  0  0  3  0  0  0  0  0  0
  196.1600  174.4370  143.1410 C   0  0  0  0  0  2  0  0  0  0  0  0
  194.6470  174.4900  143.3090 C   0  0  2  0  0  3  0  0  0  0  0  0
  190.7590  175.2740  145.9280 C   0  0  0  0  0  2  0  0  0  0  0  0
  192.9960  174.8570  144.8770 C   0  0  2  0  0  3  0  0  0  0  0  0
  186.2470  177.5240  141.1370 C   0  0  0  0  0  0  0  0  0  0  0  0
  186.5770  177.6020  142.5280 N   0  0  0  0  0  2  0  0  0  0  0  0
  187.0780  177.0810  140.3010 O   0  0  0  0  0  0  0  0  0  0  0  0
  184.9670  177.9580  140.6940 N   0  0  0  0  0  1  0  0  0  0  0  0
  193.6670  172.5920  144.2590 C   0  0  0  0  0  2  0  0  0  0  0  0
  192.8920  169.9110  144.2430 O   0  0  0  0  0  0  0  0  0  0  0  0
  194.5160  169.0520  145.7200 C   0  0  2  0  0  3  0  0  0  0  0  0
  194.2250  171.6010  145.2760 C   0  0  2  0  0  3  0  0  0  0  0  0
  196.4540  170.6330  146.1390 C   0  0  0  0  0  2  0  0  0  0  0  0
  195.5000  169.6020  146.7540 C   0  0  0  0  0  2  0  0  0  0  0  0
  195.1890  168.2440  144.8030 O   0  0  0  0  0  1  0  0  0  0  0  0
  195.7510  171.7160  145.3010 C   0  0  0  0  0  2  0  0  0  0  0  0
  193.8140  170.1710  145.0020 C   0  0  0  0  0  0  0  0  0  0  0  0
  1  7  1  0  0  0  0
  1 15  1  0  0  0  0
  2 18  1  0  0  0  0
  3  8  1  0  0  0  0
  3  4  1  0  0  0  0
  4 16  1  0  0  0  0
  5 14  1  1  0  0  0
  5 18  1  0  0  0  0
  9  6  1  1  0  0  0
  9 19  1  0  0  0  0
 10  8  1  6  0  0  0
 10 17  1  0  0  0  0
 10  9  1  0  0  0  0
 11 19  1  0  0  0  0
 12 14  2  0  0  0  0
 13  7  1  6  0  0  0
 13  6  1  0  0  0  0
 13  5  1  0  0  0  0
 15 21  1  1  0  0  0
 15 12  1  0  0  0  0
 17 16  1  1  0  0  0
 17 11  1  0  0  0  0
 19  2  1  6  0  0  0
 20 21  1  0  0  0  0
 22 20  2  0  0  0  0
 23 20  1  0  0  0  0
 24 11  1  0  0  0  0
 25 32  2  0  0  0  0
 26 30  1  6  0  0  0
 26 29  1  0  0  0  0
 27 24  1  6  0  0  0
 27 31  1  0  0  0  0
 28 29  1  0  0  0  0
 31 28  1  0  0  0  0
 32 27  1  0  0  0  0
 32 26  1  0  0  0  0
M  END
>  <MODEL>
8

>  <REMARK>
 VINA RESULT:      -7.0      2.634      3.739
  Name = 
  3 active torsions:
  status: ('A' for Active; 'I' for Inactive)
    1  A    between atoms: N_10  and  C_24
    2  A    between atoms: C_11  and  C_27
    3  A    between atoms: N_16  and  C_27
                            x       y       z     vdW  Elec       q    Type
                         _______ _______ _______ _____ _____    ______ ____

>  <TORSDO>
F 3

$$$$
=
 OpenBabel11052421283D

 32 36  0  0  1  0  0  0  0  0999 V2000
  187.7860  176.4000  145.6740 C   0  0  0  0  0  2  0  0  0  0  0  0
  191.4040  174.7640  141.8980 C   0  0  0  0  0  2  0  0  0  0  0  0
  194.9270  175.6620  146.5130 O   0  0  0  0  0  0  0  0  0  0  0  0
  195.7200  174.5590  146.0970 C   0  0  0  0  0  2  0  0  0  0  0  0
  189.2670  175.2330  143.1370 C   0  0  2  0  0  3  0  0  0  0  0  0
  190.7680  174.1210  144.9640 C   0  0  0  0  0  2  0  0  0  0  0  0
  189.2480  175.9950  145.5490 C   0  0  0  0  0  2  0  0  0  0  0  0
  193.5390  175.3460  146.4000 C   0  0  0  0  0  2  0  0  0  0  0  0
  191.9620  174.8670  144.3870 C   0  0  1  0  0  3  0  0  0  0  0  0
  193.2180  174.5510  145.1270 C   0  0  1  0  0  3  0  0  0  0  0  0
  193.7730  174.3550  142.8240 N   0  0  0  0  0  0  0  0  0  0  0  0
  186.9360  176.1280  143.3350 C   0  0  0  0  0  3  0  0  0  0  0  0
  189.4380  174.8020  144.6170 C   0  0  1  0  0  3  0  0  0  0  0  0
  187.8140  175.2910  142.7700 C   0  0  0  0  0  3  0  0  0  0  0  0
  187.3050  177.1090  144.4110 C   0  0  1  0  0  3  0  0  0  0  0  0
  195.5940  174.3110  144.5740 C   0  0  0  0  0  2  0  0  0  0  0  0
  194.2570  174.8670  144.1000 C   0  0  2  0  0  3  0  0  0  0  0  0
  189.9660  174.3190  142.1320 C   0  0  0  0  0  2  0  0  0  0  0  0
  192.3060  174.2640  143.0310 C   0  0  2  0  0  3  0  0  0  0  0  0
  185.7030  179.0310  143.8600 C   0  0  0  0  0  0  0  0  0  0  0  0
  186.1750  177.9830  144.7150 N   0  0  0  0  0  2  0  0  0  0  0  0
  186.2720  179.2730  142.7630 O   0  0  0  0  0  0  0  0  0  0  0  0
  184.5840  179.8130  144.2600 N   0  0  0  0  0  1  0  0  0  0  0  0
  194.1190  175.3620  141.8200 C   0  0  0  0  0  2  0  0  0  0  0  0
  193.6740  174.3640  139.2520 O   0  0  0  0  0  0  0  0  0  0  0  0
  195.9020  174.3250  138.4830 C   0  0  2  0  0  3  0  0  0  0  0  0
  195.2730  174.8750  140.9490 C   0  0  2  0  0  3  0  0  0  0  0  0
  197.5030  175.6660  139.9230 C   0  0  0  0  0  2  0  0  0  0  0  0
  197.3040  174.3930  139.0910 C   0  0  0  0  0  2  0  0  0  0  0  0
  195.7680  175.2910  137.4840 O   0  0  0  0  0  1  0  0  0  0  0  0
  196.3680  175.9440  140.9240 C   0  0  0  0  0  2  0  0  0  0  0  0
  194.8510  174.5280  139.5380 C   0  0  0  0  0  0  0  0  0  0  0  0
  2 18  1  0  0  0  0
  4  3  1  0  0  0  0
  5 18  1  6  0  0  0
  5 13  1  0  0  0  0
  7  1  1  0  0  0  0
  8  3  1  0  0  0  0
  9  6  1  1  0  0  0
  9 10  1  0  0  0  0
 10  8  1  1  0  0  0
 11 19  1  0  0  0  0
 11 17  1  0  0  0  0
 12 15  1  0  0  0  0
 13  6  1  6  0  0  0
 13  7  1  0  0  0  0
 14  5  1  0  0  0  0
 14 12  2  0  0  0  0
 15 21  1  1  0  0  0
 15  1  1  0  0  0  0
 16  4  1  0  0  0  0
 17 16  1  1  0  0  0
 17 10  1  0  0  0  0
 19  2  1  6  0  0  0
 19  9  1  0  0  0  0
 20 23  1  0  0  0  0
 20 21  1  0  0  0  0
 22 20  2  0  0  0  0
 24 11  1  0  0  0  0
 25 32  2  0  0  0  0
 26 30  1  6  0  0  0
 26 29  1  0  0  0  0
 26 32  1  0  0  0  0
 27 24  1  1  0  0  0
 28 31  1  0  0  0  0
 29 28  1  0  0  0  0
 31 27  1  0  0  0  0
 32 27  1  0  0  0  0
M  END
>  <MODEL>
9

>  <REMARK>
 VINA RESULT:      -7.0      2.819      4.592
  Name = 
  3 active torsions:
  status: ('A' for Active; 'I' for Inactive)
    1  A    between atoms: N_10  and  C_24
    2  A    between atoms: C_11  and  C_27
    3  A    between atoms: N_16  and  C_27
                            x       y       z     vdW  Elec       q    Type
                         _______ _______ _______ _____ _____    ______ ____

>  <TORSDO>
F 3

$$$$
