=
 OpenBabel11052417273D

 25 28  0  0  1  0  0  0  0  0999 V2000
  187.1990  177.3890  143.7830 C   0  0  0  0  0  0  0  0  0  0  0  0
  188.4340  176.7350  143.7760 C   0  0  0  0  0  0  0  0  0  0  0  0
  186.7820  176.7730  141.5040 C   0  0  0  0  0  3  0  0  0  0  0  0
  186.5420  178.2150  144.8310 C   0  0  1  0  0  3  0  0  0  0  0  0
  184.0080  178.5800  146.1550 C   0  0  0  0  0  3  0  0  0  0  0  0
  187.9820  176.1280  141.4850 N   0  0  0  0  0  0  0  0  0  0  0  0
  185.2640  178.5610  144.1110 C   0  0  0  0  0  0  0  0  0  0  0  0
  184.0850  178.9750  144.8770 C   0  0  0  0  0  3  0  0  0  0  0  0
  190.1970  175.4790  142.3860 C   0  0  2  0  0  3  0  0  0  0  0  0
  190.1240  174.1710  141.6200 C   0  0  0  0  0  1  0  0  0  0  0  0
  189.4560  176.7420  145.2620 S   0  0  0  0  0  0  0  0  0  0  0  0
  185.0600  177.7120  146.7490 C   0  0  0  0  0  3  0  0  0  0  0  0
  186.4050  177.4240  142.6690 C   0  0  0  0  0  0  0  0  0  0  0  0
  185.1900  178.1200  142.8940 N   0  0  0  0  0  0  0  0  0  0  0  0
  190.9080  175.2520  143.6410 N   0  0  0  0  0  2  0  0  0  0  0  0
  186.2190  177.4830  146.1090 C   0  0  0  0  0  3  0  0  0  0  0  0
  191.0020  176.5160  144.3530 C   0  0  2  0  0  3  0  0  0  0  0  0
  188.8140  176.0730  142.5750 C   0  0  0  0  0  0  0  0  0  0  0  0
  192.1100  176.4680  145.2940 N   0  0  0  0  0  2  0  0  0  0  0  0
  193.4760  176.4440  144.8720 C   0  0  0  0  0  0  0  0  0  0  0  0
  193.7630  176.5160  143.6460 O   0  0  0  0  0  0  0  0  0  0  0  0
  195.6960  175.8130  145.3520 F   0  0  0  0  0  0  0  0  0  0  0  0
  194.5670  176.4010  145.8930 C   0  0  0  0  0  0  0  0  0  0  0  0
  194.1470  175.6620  146.9820 F   0  0  0  0  0  0  0  0  0  0  0  0
  194.8840  177.6830  146.3060 F   0  0  0  0  0  0  0  0  0  0  0  0
  1  4  1  0  0  0  0
  2  1  1  0  0  0  0
  2 11  1  0  0  0  0
  3 13  1  0  0  0  0
  4 16  1  1  0  0  0
  5 12  1  0  0  0  0
  6  3  2  0  0  0  0
  6 18  1  0  0  0  0
  7  4  1  0  0  0  0
  7  8  1  0  0  0  0
  8  5  2  0  0  0  0
  9 10  1  1  0  0  0
  9 18  1  0  0  0  0
  9 15  1  0  0  0  0
 13 14  1  0  0  0  0
 13  1  2  0  0  0  0
 14  7  2  0  0  0  0
 15 17  1  0  0  0  0
 16 12  2  0  0  0  0
 17 11  1  0  0  0  0
 17 19  1  1  0  0  0
 18  2  2  0  0  0  0
 20 19  1  0  0  0  0
 20 23  1  0  0  0  0
 21 20  2  0  0  0  0
 22 23  1  0  0  0  0
 23 25  1  0  0  0  0
 23 24  1  0  0  0  0
M  END
>  <MODEL>
1

>  <REMARK>
 VINA RESULT:      -8.0      0.000      0.000
  Name = 
  2 active torsions:
  status: ('A' for Active; 'I' for Inactive)
    1  A    between atoms: N_6  and  C_23
    2  A    between atoms: C_7  and  C_15
                            x       y       z     vdW  Elec       q    Type
                         _______ _______ _______ _____ _____    ______ ____

>  <TORSDO>
F 2

$$$$
=
 OpenBabel11052417273D

 25 28  0  0  1  0  0  0  0  0999 V2000
  187.4190  177.0630  143.9640 C   0  0  0  0  0  0  0  0  0  0  0  0
  188.4730  176.1950  143.6680 C   0  0  0  0  0  0  0  0  0  0  0  0
  186.6290  176.9870  141.7020 C   0  0  0  0  0  3  0  0  0  0  0  0
  187.0770  177.7860  145.2190 C   0  0  1  0  0  3  0  0  0  0  0  0
  184.8460  178.3790  146.9430 C   0  0  0  0  0  3  0  0  0  0  0  0
  187.6500  176.1360  141.4010 N   0  0  0  0  0  0  0  0  0  0  0  0
  185.8350  178.5060  144.7610 C   0  0  0  0  0  0  0  0  0  0  0  0
  184.8660  178.9870  145.7500 C   0  0  0  0  0  3  0  0  0  0  0  0
  189.7550  174.9080  141.8470 C   0  0  2  0  0  3  0  0  0  0  0  0
  189.3140  173.8100  140.8960 C   0  0  0  0  0  1  0  0  0  0  0  0
  189.6290  175.7180  144.9680 S   0  0  0  0  0  0  0  0  0  0  0  0
  185.7410  177.2250  147.2250 C   0  0  0  0  0  3  0  0  0  0  0  0
  186.5330  177.4640  143.0000 C   0  0  0  0  0  0  0  0  0  0  0  0
  185.5320  178.3290  143.5130 N   0  0  0  0  0  0  0  0  0  0  0  0
  190.5330  174.3110  142.9280 N   0  0  0  0  0  2  0  0  0  0  0  0
  186.7450  176.9010  146.3930 C   0  0  0  0  0  3  0  0  0  0  0  0
  190.9790  175.3730  143.8160 C   0  0  2  0  0  3  0  0  0  0  0  0
  188.5640  175.7130  142.3320 C   0  0  0  0  0  0  0  0  0  0  0  0
  192.1460  174.9310  144.5620 N   0  0  0  0  0  2  0  0  0  0  0  0
  193.1890  175.8260  144.9560 C   0  0  0  0  0  0  0  0  0  0  0  0
  193.0980  177.0580  144.7040 O   0  0  0  0  0  0  0  0  0  0  0  0
  194.1840  173.9610  146.0030 F   0  0  0  0  0  0  0  0  0  0  0  0
  194.3590  175.3060  145.7300 C   0  0  0  0  0  0  0  0  0  0  0  0
  194.4660  176.0010  146.9190 F   0  0  0  0  0  0  0  0  0  0  0  0
  195.5230  175.4680  145.0000 F   0  0  0  0  0  0  0  0  0  0  0  0
  1  4  1  0  0  0  0
  2  1  1  0  0  0  0
  2 11  1  0  0  0  0
  3 13  1  0  0  0  0
  4 16  1  1  0  0  0
  5 12  1  0  0  0  0
  6  3  2  0  0  0  0
  6 18  1  0  0  0  0
  7  4  1  0  0  0  0
  7  8  1  0  0  0  0
  8  5  2  0  0  0  0
  9 10  1  6  0  0  0
  9 18  1  0  0  0  0
  9 15  1  0  0  0  0
 13 14  1  0  0  0  0
 13  1  2  0  0  0  0
 14  7  2  0  0  0  0
 15 17  1  0  0  0  0
 16 12  2  0  0  0  0
 17 19  1  1  0  0  0
 17 11  1  0  0  0  0
 18  2  2  0  0  0  0
 19 20  1  0  0  0  0
 20 23  1  0  0  0  0
 21 20  2  0  0  0  0
 23 22  1  0  0  0  0
 23 24  1  0  0  0  0
 25 23  1  0  0  0  0
M  END
>  <MODEL>
2

>  <REMARK>
 VINA RESULT:      -7.9      0.956      1.160
  Name = 
  2 active torsions:
  status: ('A' for Active; 'I' for Inactive)
    1  A    between atoms: N_6  and  C_23
    2  A    between atoms: C_7  and  C_15
                            x       y       z     vdW  Elec       q    Type
                         _______ _______ _______ _____ _____    ______ ____

>  <TORSDO>
F 2

$$$$
=
 OpenBabel11052417273D

 25 28  0  0  1  0  0  0  0  0999 V2000
  187.5970  177.0810  145.4410 C   0  0  0  0  0  0  0  0  0  0  0  0
  188.5860  176.6840  144.5380 C   0  0  0  0  0  0  0  0  0  0  0  0
  189.2290  177.5370  147.1370 C   0  0  0  0  0  3  0  0  0  0  0  0
  186.1130  177.0770  145.3230 C   0  0  1  0  0  3  0  0  0  0  0  0
  183.8080  178.7360  145.8080 C   0  0  0  0  0  3  0  0  0  0  0  0
  190.2040  177.1570  146.2640 N   0  0  0  0  0  0  0  0  0  0  0  0
  185.7540  177.6340  146.6760 C   0  0  0  0  0  0  0  0  0  0  0  0
  184.4420  178.2520  146.8850 C   0  0  0  0  0  3  0  0  0  0  0  0
  191.0800  176.1840  144.1610 C   0  0  2  0  0  3  0  0  0  0  0  0
  192.3080  177.0710  144.2630 C   0  0  0  0  0  1  0  0  0  0  0  0
  188.1180  176.1450  142.8810 S   0  0  0  0  0  0  0  0  0  0  0  0
  184.4450  178.6910  144.4650 C   0  0  0  0  0  3  0  0  0  0  0  0
  187.9100  177.4760  146.7140 C   0  0  0  0  0  0  0  0  0  0  0  0
  186.7630  177.8540  147.4590 N   0  0  0  0  0  0  0  0  0  0  0  0
  190.7480  175.9990  142.7510 N   0  0  0  0  0  2  0  0  0  0  0  0
  185.5580  177.9720  144.2440 C   0  0  0  0  0  3  0  0  0  0  0  0
  189.5920  175.1220  142.6610 C   0  0  2  0  0  3  0  0  0  0  0  0
  189.9370  176.7470  144.9820 C   0  0  0  0  0  0  0  0  0  0  0  0
  189.5510  174.4980  141.3490 N   0  0  0  0  0  2  0  0  0  0  0  0
  188.8830  173.2560  141.1100 C   0  0  0  0  0  0  0  0  0  0  0  0
  188.2560  172.6830  142.0410 O   0  0  0  0  0  0  0  0  0  0  0  0
  187.5880  172.2910  139.3920 F   0  0  0  0  0  0  0  0  0  0  0  0
  188.8730  172.6730  139.7330 C   0  0  0  0  0  0  0  0  0  0  0  0
  189.7000  171.5670  139.6980 F   0  0  0  0  0  0  0  0  0  0  0  0
  189.3210  173.6070  138.8160 F   0  0  0  0  0  0  0  0  0  0  0  0
  1 13  1  0  0  0  0
  2 18  1  0  0  0  0
  2  1  2  0  0  0  0
  4 16  1  6  0  0  0
  4  1  1  0  0  0  0
  4  7  1  0  0  0  0
  5  8  2  0  0  0  0
  6  3  1  0  0  0  0
  7  8  1  0  0  0  0
  7 14  2  0  0  0  0
  9 10  1  6  0  0  0
  9 18  1  0  0  0  0
 11  2  1  0  0  0  0
 12  5  1  0  0  0  0
 13  3  2  0  0  0  0
 13 14  1  0  0  0  0
 15  9  1  0  0  0  0
 16 12  2  0  0  0  0
 17 19  1  6  0  0  0
 17 15  1  0  0  0  0
 17 11  1  0  0  0  0
 18  6  2  0  0  0  0
 20 19  1  0  0  0  0
 20 21  2  0  0  0  0
 22 23  1  0  0  0  0
 23 20  1  0  0  0  0
 24 23  1  0  0  0  0
 25 23  1  0  0  0  0
M  END
>  <MODEL>
3

>  <REMARK>
 VINA RESULT:      -7.8      4.051      5.276
  Name = 
  2 active torsions:
  status: ('A' for Active; 'I' for Inactive)
    1  A    between atoms: N_6  and  C_23
    2  A    between atoms: C_7  and  C_15
                            x       y       z     vdW  Elec       q    Type
                         _______ _______ _______ _____ _____    ______ ____

>  <TORSDO>
F 2

$$$$
=
 OpenBabel11052417273D

 25 28  0  0  1  0  0  0  0  0999 V2000
  191.2130  175.1450  144.3560 C   0  0  0  0  0  0  0  0  0  0  0  0
  190.0320  175.8140  144.0230 C   0  0  0  0  0  0  0  0  0  0  0  0
  190.9640  173.6390  142.5080 C   0  0  0  0  0  3  0  0  0  0  0  0
  192.1380  175.3200  145.5090 C   0  0  1  0  0  3  0  0  0  0  0  0
  194.9420  175.5350  146.1380 C   0  0  0  0  0  3  0  0  0  0  0  0
  189.8130  174.2850  142.1690 N   0  0  0  0  0  0  0  0  0  0  0  0
  193.1530  174.2570  145.1770 C   0  0  0  0  0  0  0  0  0  0  0  0
  194.4990  174.3310  145.7510 C   0  0  0  0  0  3  0  0  0  0  0  0
  187.9530  175.8870  142.5110 C   0  0  2  0  0  3  0  0  0  0  0  0
  187.8130  176.0410  141.0070 C   0  0  0  0  0  1  0  0  0  0  0  0
  189.4790  177.2040  145.0310 S   0  0  0  0  0  0  0  0  0  0  0  0
  194.1100  176.7520  145.9390 C   0  0  0  0  0  3  0  0  0  0  0  0
  191.6550  174.0730  143.6290 C   0  0  0  0  0  0  0  0  0  0  0  0
  192.8790  173.5540  144.1230 N   0  0  0  0  0  0  0  0  0  0  0  0
  187.6330  177.1610  143.1470 N   0  0  0  0  0  2  0  0  0  0  0  0
  192.8180  176.6640  145.5820 C   0  0  0  0  0  3  0  0  0  0  0  0
  187.7380  176.9950  144.5880 C   0  0  2  0  0  3  0  0  0  0  0  0
  189.3280  175.3590  142.8730 C   0  0  0  0  0  0  0  0  0  0  0  0
  186.9470  178.0140  145.2580 N   0  0  0  0  0  2  0  0  0  0  0  0
  185.7510  177.7070  145.9790 C   0  0  0  0  0  0  0  0  0  0  0  0
  185.3700  176.5110  146.0970 O   0  0  0  0  0  0  0  0  0  0  0  0
  184.1430  179.4160  145.7440 F   0  0  0  0  0  0  0  0  0  0  0  0
  184.9880  178.8040  146.6520 C   0  0  0  0  0  0  0  0  0  0  0  0
  185.8750  179.7390  147.1490 F   0  0  0  0  0  0  0  0  0  0  0  0
  184.2340  178.2910  147.6920 F   0  0  0  0  0  0  0  0  0  0  0  0
  1  4  1  0  0  0  0
  2  1  1  0  0  0  0
  2 11  1  0  0  0  0
  3 13  1  0  0  0  0
  4 16  1  6  0  0  0
  6  3  2  0  0  0  0
  6 18  1  0  0  0  0
  7  4  1  0  0  0  0
  7  8  1  0  0  0  0
  8  5  2  0  0  0  0
  9 10  1  6  0  0  0
  9 18  1  0  0  0  0
  9 15  1  0  0  0  0
 12  5  1  0  0  0  0
 13 14  1  0  0  0  0
 13  1  2  0  0  0  0
 14  7  2  0  0  0  0
 15 17  1  0  0  0  0
 16 12  2  0  0  0  0
 17 11  1  0  0  0  0
 17 19  1  1  0  0  0
 18  2  2  0  0  0  0
 19 20  1  0  0  0  0
 20 21  2  0  0  0  0
 20 23  1  0  0  0  0
 22 23  1  0  0  0  0
 23 24  1  0  0  0  0
 23 25  1  0  0  0  0
M  END
>  <MODEL>
4

>  <REMARK>
 VINA RESULT:      -7.5      4.191      7.337
  Name = 
  2 active torsions:
  status: ('A' for Active; 'I' for Inactive)
    1  A    between atoms: N_6  and  C_23
    2  A    between atoms: C_7  and  C_15
                            x       y       z     vdW  Elec       q    Type
                         _______ _______ _______ _____ _____    ______ ____

>  <TORSDO>
F 2

$$$$
=
 OpenBabel11052417273D

 25 28  0  0  1  0  0  0  0  0999 V2000
  187.5390  176.4540  145.2560 C   0  0  0  0  0  0  0  0  0  0  0  0
  188.5650  176.0230  144.4110 C   0  0  0  0  0  0  0  0  0  0  0  0
  188.8330  175.9350  147.2070 C   0  0  0  0  0  3  0  0  0  0  0  0
  186.1640  176.9330  144.9510 C   0  0  1  0  0  3  0  0  0  0  0  0
  184.3060  179.0320  145.6220 C   0  0  0  0  0  3  0  0  0  0  0  0
  189.8430  175.5160  146.3940 N   0  0  0  0  0  0  0  0  0  0  0  0
  185.6770  177.2030  146.3510 C   0  0  0  0  0  0  0  0  0  0  0  0
  184.5510  178.1150  146.5680 C   0  0  0  0  0  3  0  0  0  0  0  0
  190.8720  174.9020  144.2250 C   0  0  2  0  0  3  0  0  0  0  0  0
  192.2330  175.3140  144.7560 C   0  0  0  0  0  1  0  0  0  0  0  0
  188.3400  176.1010  142.6230 S   0  0  0  0  0  0  0  0  0  0  0  0
  185.1820  179.1440  144.4260 C   0  0  0  0  0  3  0  0  0  0  0  0
  187.6630  176.3910  146.6180 C   0  0  0  0  0  0  0  0  0  0  0  0
  186.5180  176.8940  147.2880 N   0  0  0  0  0  0  0  0  0  0  0  0
  190.8130  175.1990  142.7970 N   0  0  0  0  0  2  0  0  0  0  0  0
  186.0970  178.2020  144.1390 C   0  0  0  0  0  3  0  0  0  0  0  0
  189.5190  174.7710  142.2910 C   0  0  2  0  0  3  0  0  0  0  0  0
  189.7600  175.5540  145.0250 C   0  0  0  0  0  0  0  0  0  0  0  0
  189.6020  174.5520  140.8560 N   0  0  0  0  0  2  0  0  0  0  0  0
  188.8390  173.5430  140.1880 C   0  0  0  0  0  0  0  0  0  0  0  0
  188.0190  172.8360  140.8330 O   0  0  0  0  0  0  0  0  0  0  0  0
  190.2860  173.1300  138.3720 F   0  0  0  0  0  0  0  0  0  0  0  0
  188.9670  173.3760  138.7070 C   0  0  0  0  0  0  0  0  0  0  0  0
  188.5470  174.5320  138.0780 F   0  0  0  0  0  0  0  0  0  0  0  0
  188.1900  172.3140  138.2790 F   0  0  0  0  0  0  0  0  0  0  0  0
  1 13  1  0  0  0  0
  2 18  1  0  0  0  0
  2  1  2  0  0  0  0
  4 16  1  6  0  0  0
  4  1  1  0  0  0  0
  4  7  1  0  0  0  0
  5  8  2  0  0  0  0
  6  3  1  0  0  0  0
  7  8  1  0  0  0  0
  7 14  2  0  0  0  0
  9 10  1  1  0  0  0
  9 18  1  0  0  0  0
 11  2  1  0  0  0  0
 12  5  1  0  0  0  0
 13  3  2  0  0  0  0
 13 14  1  0  0  0  0
 15  9  1  0  0  0  0
 16 12  2  0  0  0  0
 17 19  1  6  0  0  0
 17 11  1  0  0  0  0
 17 15  1  0  0  0  0
 18  6  2  0  0  0  0
 20 21  2  0  0  0  0
 20 19  1  0  0  0  0
 22 23  1  0  0  0  0
 23 20  1  0  0  0  0
 24 23  1  0  0  0  0
 25 23  1  0  0  0  0
M  END
>  <MODEL>
5

>  <REMARK>
 VINA RESULT:      -7.3      4.265      5.457
  Name = 
  2 active torsions:
  status: ('A' for Active; 'I' for Inactive)
    1  A    between atoms: N_6  and  C_23
    2  A    between atoms: C_7  and  C_15
                            x       y       z     vdW  Elec       q    Type
                         _______ _______ _______ _____ _____    ______ ____

>  <TORSDO>
F 2

$$$$
=
 OpenBabel11052417273D

 25 28  0  0  1  0  0  0  0  0999 V2000
  186.6800  176.9680  144.0310 C   0  0  0  0  0  0  0  0  0  0  0  0
  187.8990  176.4350  144.4600 C   0  0  0  0  0  0  0  0  0  0  0  0
  186.3080  178.0120  146.1570 C   0  0  0  0  0  3  0  0  0  0  0  0
  185.9400  176.7960  142.7510 C   0  0  1  0  0  3  0  0  0  0  0  0
  184.5390  178.3050  140.7360 C   0  0  0  0  0  3  0  0  0  0  0  0
  187.4960  177.5030  146.5860 N   0  0  0  0  0  0  0  0  0  0  0  0
  184.7410  177.6620  143.0380 C   0  0  0  0  0  0  0  0  0  0  0  0
  183.9410  178.1890  141.9300 C   0  0  0  0  0  3  0  0  0  0  0  0
  189.5210  176.0830  146.4250 C   0  0  2  0  0  3  0  0  0  0  0  0
  190.2820  177.0750  147.2870 C   0  0  0  0  0  1  0  0  0  0  0  0
  188.8810  175.4290  143.3310 S   0  0  0  0  0  0  0  0  0  0  0  0
  185.9750  177.9590  140.5670 C   0  0  0  0  0  3  0  0  0  0  0  0
  185.8960  177.7190  144.8650 C   0  0  0  0  0  0  0  0  0  0  0  0
  184.7140  178.1760  144.2280 N   0  0  0  0  0  0  0  0  0  0  0  0
  190.4410  175.4960  145.4560 N   0  0  0  0  0  2  0  0  0  0  0  0
  186.6550  177.3120  141.5280 C   0  0  0  0  0  3  0  0  0  0  0  0
  189.7110  174.5250  144.6580 C   0  0  2  0  0  3  0  0  0  0  0  0
  188.3110  176.7400  145.7880 C   0  0  0  0  0  0  0  0  0  0  0  0
  190.6410  173.5690  144.0780 N   0  0  0  0  0  2  0  0  0  0  0  0
  190.2570  172.2340  143.7380 C   0  0  0  0  0  0  0  0  0  0  0  0
  189.0630  171.8580  143.8900 O   0  0  0  0  0  0  0  0  0  0  0  0
  191.9690  170.6620  144.1390 F   0  0  0  0  0  0  0  0  0  0  0  0
  191.2620  171.3030  143.1370 C   0  0  0  0  0  0  0  0  0  0  0  0
  192.1410  172.0240  142.3510 F   0  0  0  0  0  0  0  0  0  0  0  0
  190.6260  170.3530  142.3580 F   0  0  0  0  0  0  0  0  0  0  0  0
  1  2  2  0  0  0  0
  1 13  1  0  0  0  0
  2 18  1  0  0  0  0
  3  6  1  0  0  0  0
  4 16  1  6  0  0  0
  4  7  1  0  0  0  0
  4  1  1  0  0  0  0
  5  8  2  0  0  0  0
  7 14  2  0  0  0  0
  8  7  1  0  0  0  0
  9 10  1  6  0  0  0
 11  2  1  0  0  0  0
 11 17  1  0  0  0  0
 12  5  1  0  0  0  0
 12 16  2  0  0  0  0
 13  3  2  0  0  0  0
 14 13  1  0  0  0  0
 15  9  1  0  0  0  0
 17 19  1  6  0  0  0
 17 15  1  0  0  0  0
 18  9  1  0  0  0  0
 18  6  2  0  0  0  0
 20 21  2  0  0  0  0
 20 19  1  0  0  0  0
 23 20  1  0  0  0  0
 23 22  1  0  0  0  0
 24 23  1  0  0  0  0
 25 23  1  0  0  0  0
M  END
>  <MODEL>
6

>  <REMARK>
 VINA RESULT:      -7.2      3.390      4.690
  Name = 
  2 active torsions:
  status: ('A' for Active; 'I' for Inactive)
    1  A    between atoms: N_6  and  C_23
    2  A    between atoms: C_7  and  C_15
                            x       y       z     vdW  Elec       q    Type
                         _______ _______ _______ _____ _____    ______ ____

>  <TORSDO>
F 2

$$$$
=
 OpenBabel11052417273D

 25 28  0  0  1  0  0  0  0  0999 V2000
  192.6940  176.2170  144.6840 C   0  0  0  0  0  0  0  0  0  0  0  0
  191.3110  176.2040  144.8840 C   0  0  0  0  0  0  0  0  0  0  0  0
  193.0940  175.4220  146.9100 C   0  0  0  0  0  3  0  0  0  0  0  0
  193.5050  176.6750  143.5230 C   0  0  1  0  0  3  0  0  0  0  0  0
  195.7130  175.8680  141.8570 C   0  0  0  0  0  3  0  0  0  0  0  0
  191.7470  175.4000  147.1170 N   0  0  0  0  0  0  0  0  0  0  0  0
  194.8850  176.3770  144.0500 C   0  0  0  0  0  0  0  0  0  0  0  0
  196.0030  176.2210  143.1160 C   0  0  0  0  0  3  0  0  0  0  0  0
  189.3800  175.8650  146.5490 C   0  0  2  0  0  3  0  0  0  0  0  0
  188.9510  174.6510  147.3520 C   0  0  0  0  0  1  0  0  0  0  0  0
  190.2120  176.7170  143.5490 S   0  0  0  0  0  0  0  0  0  0  0  0
  194.3100  175.5950  141.4470 C   0  0  0  0  0  3  0  0  0  0  0  0
  193.5620  175.8550  145.6790 C   0  0  0  0  0  0  0  0  0  0  0  0
  194.9170  175.9210  145.2630 N   0  0  0  0  0  0  0  0  0  0  0  0
  188.4780  176.0220  145.4120 N   0  0  0  0  0  2  0  0  0  0  0  0
  193.2760  175.9080  142.2450 C   0  0  0  0  0  3  0  0  0  0  0  0
  188.8770  177.2050  144.6670 C   0  0  2  0  0  3  0  0  0  0  0  0
  190.8410  175.7610  146.1520 C   0  0  0  0  0  0  0  0  0  0  0  0
  187.7520  177.6950  143.8860 N   0  0  0  0  0  2  0  0  0  0  0  0
  186.6480  178.3840  144.4790 C   0  0  0  0  0  0  0  0  0  0  0  0
  186.6450  178.6340  145.7150 O   0  0  0  0  0  0  0  0  0  0  0  0
  184.4680  177.9790  143.6760 F   0  0  0  0  0  0  0  0  0  0  0  0
  185.5260  178.8680  143.6160 C   0  0  0  0  0  0  0  0  0  0  0  0
  185.9640  178.9660  142.3100 F   0  0  0  0  0  0  0  0  0  0  0  0
  185.0950  180.1090  144.0480 F   0  0  0  0  0  0  0  0  0  0  0  0
  1  2  2  0  0  0  0
  1 13  1  0  0  0  0
  2 18  1  0  0  0  0
  3  6  1  0  0  0  0
  4 16  1  6  0  0  0
  4  7  1  0  0  0  0
  4  1  1  0  0  0  0
  5  8  2  0  0  0  0
  7 14  2  0  0  0  0
  8  7  1  0  0  0  0
  9 10  1  6  0  0  0
 11 17  1  0  0  0  0
 11  2  1  0  0  0  0
 12  5  1  0  0  0  0
 12 16  2  0  0  0  0
 13  3  2  0  0  0  0
 14 13  1  0  0  0  0
 15  9  1  0  0  0  0
 17 19  1  6  0  0  0
 17 15  1  0  0  0  0
 18  9  1  0  0  0  0
 18  6  2  0  0  0  0
 19 20  1  0  0  0  0
 20 21  2  0  0  0  0
 23 22  1  0  0  0  0
 23 25  1  0  0  0  0
 23 20  1  0  0  0  0
 24 23  1  0  0  0  0
M  END
>  <MODEL>
7

>  <REMARK>
 VINA RESULT:      -6.9      4.438      8.078
  Name = 
  2 active torsions:
  status: ('A' for Active; 'I' for Inactive)
    1  A    between atoms: N_6  and  C_23
    2  A    between atoms: C_7  and  C_15
                            x       y       z     vdW  Elec       q    Type
                         _______ _______ _______ _____ _____    ______ ____

>  <TORSDO>
F 2

$$$$
=
 OpenBabel11052417273D

 25 28  0  0  1  0  0  0  0  0999 V2000
  189.6630  174.1410  143.2850 C   0  0  0  0  0  0  0  0  0  0  0  0
  188.8480  175.2730  143.2090 C   0  0  0  0  0  0  0  0  0  0  0  0
  188.9890  173.4230  141.0990 C   0  0  0  0  0  3  0  0  0  0  0  0
  190.5050  173.6210  144.3960 C   0  0  1  0  0  3  0  0  0  0  0  0
  193.1330  172.5670  144.9310 C   0  0  0  0  0  3  0  0  0  0  0  0
  188.1930  174.5260  141.0110 N   0  0  0  0  0  0  0  0  0  0  0  0
  191.0640  172.3890  143.7310 C   0  0  0  0  0  0  0  0  0  0  0  0
  192.2960  171.7820  144.2400 C   0  0  0  0  0  3  0  0  0  0  0  0
  187.0580  176.5510  141.8760 C   0  0  2  0  0  3  0  0  0  0  0  0
  187.0880  177.1600  140.4860 C   0  0  0  0  0  1  0  0  0  0  0  0
  188.7940  176.4290  144.5940 S   0  0  0  0  0  0  0  0  0  0  0  0
  192.8390  174.0120  145.1220 C   0  0  0  0  0  3  0  0  0  0  0  0
  189.7150  173.2300  142.2640 C   0  0  0  0  0  0  0  0  0  0  0  0
  190.6160  172.1680  142.5350 N   0  0  0  0  0  0  0  0  0  0  0  0
  187.2000  177.6190  142.8620 N   0  0  0  0  0  2  0  0  0  0  0  0
  191.6360  174.5260  144.8150 C   0  0  0  0  0  3  0  0  0  0  0  0
  187.1380  177.0310  144.1900 C   0  0  2  0  0  3  0  0  0  0  0  0
  188.1040  175.4610  142.0110 C   0  0  0  0  0  0  0  0  0  0  0  0
  186.7480  178.0450  145.1570 N   0  0  0  0  0  2  0  0  0  0  0  0
  186.1350  177.7180  146.4070 C   0  0  0  0  0  0  0  0  0  0  0  0
  185.9590  176.5120  146.7320 O   0  0  0  0  0  0  0  0  0  0  0  0
  186.5630  178.7420  148.4880 F   0  0  0  0  0  0  0  0  0  0  0  0
  185.7650  178.8100  147.3600 C   0  0  0  0  0  0  0  0  0  0  0  0
  184.4420  178.6660  147.7290 F   0  0  0  0  0  0  0  0  0  0  0  0
  185.9400  180.0450  146.7610 F   0  0  0  0  0  0  0  0  0  0  0  0
  1  4  1  0  0  0  0
  2  1  1  0  0  0  0
  2 11  1  0  0  0  0
  3 13  1  0  0  0  0
  4 16  1  6  0  0  0
  5 12  1  0  0  0  0
  6  3  2  0  0  0  0
  6 18  1  0  0  0  0
  7  8  1  0  0  0  0
  7  4  1  0  0  0  0
  8  5  2  0  0  0  0
  9 10  1  6  0  0  0
  9 18  1  0  0  0  0
  9 15  1  0  0  0  0
 13 14  1  0  0  0  0
 13  1  2  0  0  0  0
 14  7  2  0  0  0  0
 15 17  1  0  0  0  0
 16 12  2  0  0  0  0
 17 11  1  0  0  0  0
 17 19  1  1  0  0  0
 18  2  2  0  0  0  0
 19 20  1  0  0  0  0
 20 21  2  0  0  0  0
 20 23  1  0  0  0  0
 23 24  1  0  0  0  0
 23 22  1  0  0  0  0
 25 23  1  0  0  0  0
M  END
>  <MODEL>
8

>  <REMARK>
 VINA RESULT:      -6.9      4.138      6.936
  Name = 
  2 active torsions:
  status: ('A' for Active; 'I' for Inactive)
    1  A    between atoms: N_6  and  C_23
    2  A    between atoms: C_7  and  C_15
                            x       y       z     vdW  Elec       q    Type
                         _______ _______ _______ _____ _____    ______ ____

>  <TORSDO>
F 2

$$$$
=
 OpenBabel11052417273D

 25 28  0  0  1  0  0  0  0  0999 V2000
  187.8100  176.8220  144.4350 C   0  0  0  0  0  0  0  0  0  0  0  0
  188.8610  176.2720  143.6970 C   0  0  0  0  0  0  0  0  0  0  0  0
  189.2680  177.3260  146.2690 C   0  0  0  0  0  3  0  0  0  0  0  0
  186.3540  176.9100  144.1370 C   0  0  1  0  0  3  0  0  0  0  0  0
  184.1500  178.7650  144.1900 C   0  0  0  0  0  3  0  0  0  0  0  0
  190.3040  176.7960  145.5580 N   0  0  0  0  0  0  0  0  0  0  0  0
  185.8880  177.6190  145.3830 C   0  0  0  0  0  0  0  0  0  0  0  0
  184.6150  178.3440  145.3740 C   0  0  0  0  0  3  0  0  0  0  0  0
  191.3340  175.5650  143.6710 C   0  0  2  0  0  3  0  0  0  0  0  0
  192.6090  176.3710  143.8440 C   0  0  0  0  0  1  0  0  0  0  0  0
  188.5440  175.6090  142.0500 S   0  0  0  0  0  0  0  0  0  0  0  0
  184.9310  178.5450  142.9440 C   0  0  0  0  0  3  0  0  0  0  0  0
  188.0060  177.3160  145.6960 C   0  0  0  0  0  0  0  0  0  0  0  0
  186.8150  177.8440  146.2600 N   0  0  0  0  0  0  0  0  0  0  0  0
  191.1520  175.2680  142.2540 N   0  0  0  0  0  2  0  0  0  0  0  0
  186.0000  177.7320  142.9240 C   0  0  0  0  0  3  0  0  0  0  0  0
  189.9470  174.4690  142.1010 C   0  0  2  0  0  3  0  0  0  0  0  0
  190.1530  176.2840  144.2950 C   0  0  0  0  0  0  0  0  0  0  0  0
  190.0060  173.7250  140.8540 N   0  0  0  0  0  2  0  0  0  0  0  0
  189.9680  172.2960  140.8090 C   0  0  0  0  0  0  0  0  0  0  0  0
  189.8280  171.6310  141.8710 O   0  0  0  0  0  0  0  0  0  0  0  0
  188.7960  171.6690  138.8610 F   0  0  0  0  0  0  0  0  0  0  0  0
  190.0260  171.5930  139.4900 C   0  0  0  0  0  0  0  0  0  0  0  0
  190.3510  170.2660  139.6930 F   0  0  0  0  0  0  0  0  0  0  0  0
  190.9810  172.1790  138.6800 F   0  0  0  0  0  0  0  0  0  0  0  0
  1 13  1  0  0  0  0
  2 18  1  0  0  0  0
  2  1  2  0  0  0  0
  4 16  1  6  0  0  0
  4  1  1  0  0  0  0
  4  7  1  0  0  0  0
  5  8  2  0  0  0  0
  6  3  1  0  0  0  0
  7 14  2  0  0  0  0
  8  7  1  0  0  0  0
  9 10  1  6  0  0  0
  9 18  1  0  0  0  0
 11 17  1  0  0  0  0
 11  2  1  0  0  0  0
 12  5  1  0  0  0  0
 13 14  1  0  0  0  0
 13  3  2  0  0  0  0
 15  9  1  0  0  0  0
 16 12  2  0  0  0  0
 17 19  1  6  0  0  0
 17 15  1  0  0  0  0
 18  6  2  0  0  0  0
 20 19  1  0  0  0  0
 20 21  2  0  0  0  0
 22 23  1  0  0  0  0
 23 24  1  0  0  0  0
 23 20  1  0  0  0  0
 25 23  1  0  0  0  0
M  END
>  <MODEL>
9

>  <REMARK>
 VINA RESULT:      -6.8      3.998      5.196
  Name = 
  2 active torsions:
  status: ('A' for Active; 'I' for Inactive)
    1  A    between atoms: N_6  and  C_23
    2  A    between atoms: C_7  and  C_15
                            x       y       z     vdW  Elec       q    Type
                         _______ _______ _______ _____ _____    ______ ____

>  <TORSDO>
F 2

$$$$
