=
 OpenBabel11052417163D

 30 32  0  0  1  0  0  0  0  0999 V2000
  187.8260  177.7160  143.5970 C   0  0  0  0  0  3  0  0  0  0  0  0
  185.6590  178.8580  144.0820 C   0  0  1  0  0  3  0  0  0  0  0  0
  187.8180  175.6660  147.2680 C   0  0  0  0  0  3  0  0  0  0  0  0
  188.8710  176.8340  143.8890 C   0  0  0  0  0  0  0  0  0  0  0  0
  188.8620  174.7960  147.5860 C   0  0  0  0  0  3  0  0  0  0  0  0
  184.7660  179.2740  145.2460 C   0  0  0  0  0  2  0  0  0  0  0  0
  186.1530  179.9930  143.4620 F   0  0  0  0  0  0  0  0  0  0  0  0
  187.8060  176.3540  146.0430 C   0  0  0  0  0  0  0  0  0  0  0  0
  184.3980  178.0570  146.0760 C   0  0  0  0  0  2  0  0  0  0  0  0
  186.7890  177.9480  144.5020 C   0  0  0  0  0  0  0  0  0  0  0  0
  188.8680  176.1500  145.1230 C   0  0  0  0  0  0  0  0  0  0  0  0
  189.9100  174.6050  146.6860 C   0  0  0  0  0  3  0  0  0  0  0  0
  189.9130  175.2780  145.4650 C   0  0  0  0  0  3  0  0  0  0  0  0
  185.6580  177.5040  146.7280 C   0  0  0  0  0  2  0  0  0  0  0  0
  186.7560  177.2410  145.7250 C   0  0  0  0  0  0  0  0  0  0  0  0
  191.1490  174.9800  141.8050 O   0  0  0  0  0  0  0  0  0  0  0  0
  190.0140  175.3870  142.1790 C   0  0  0  0  0  0  0  0  0  0  0  0
  189.9070  176.6250  142.9100 N   0  0  0  0  0  0  0  0  0  0  0  0
  188.1620  174.8780  140.7950 O   0  0  0  0  0  0  0  0  0  0  0  0
  188.8230  174.5900  141.8300 C   0  0  0  0  0  0  0  0  0  0  0  0
  188.4130  173.5400  142.6580 O   0  0  0  0  0  0  0  0  0  0  0  0
  189.6630  171.9900  144.0120 C   0  0  0  0  0  1  0  0  0  0  0  0
  189.0490  172.2700  142.6530 C   0  0  0  0  0  2  0  0  0  0  0  0
  191.0030  177.5870  142.8330 C   0  0  0  0  0  2  0  0  0  0  0  0
  191.6640  177.7370  144.1940 C   0  0  0  0  0  2  0  0  0  0  0  0
  192.9100  176.8700  144.2770 C   0  0  0  0  0  2  0  0  0  0  0  0
  193.2930  176.5720  145.7230 C   0  0  0  0  0  2  0  0  0  0  0  0
  195.2790  175.0860  145.9800 C   0  0  0  0  0  1  0  0  0  0  0  0
  193.7660  175.1360  145.8910 C   0  0  2  0  0  3  0  0  0  0  0  0
  193.3320  174.3520  144.7500 N   0  0  0  0  0  1  0  0  0  0  0  0
  1  4  2  0  0  0  0
  1 10  1  0  0  0  0
  2  7  1  1  0  0  0
  2 10  1  0  0  0  0
  2  6  1  0  0  0  0
  3  5  1  0  0  0  0
  4 11  1  0  0  0  0
  6  9  1  0  0  0  0
  8  3  2  0  0  0  0
  9 14  1  0  0  0  0
 10 15  2  0  0  0  0
 11 13  2  0  0  0  0
 11  8  1  0  0  0  0
 12  5  2  0  0  0  0
 13 12  1  0  0  0  0
 15  8  1  0  0  0  0
 15 14  1  0  0  0  0
 16 17  2  0  0  0  0
 17 18  1  0  0  0  0
 18  4  1  0  0  0  0
 19 20  2  0  0  0  0
 20 17  1  0  0  0  0
 20 21  1  0  0  0  0
 23 21  1  0  0  0  0
 23 22  1  0  0  0  0
 24 18  1  0  0  0  0
 24 25  1  0  0  0  0
 25 26  1  0  0  0  0
 26 27  1  0  0  0  0
 27 29  1  0  0  0  0
 29 28  1  6  0  0  0
 30 29  1  0  0  0  0
M  END
>  <MODEL>
1

>  <REMARK>
 VINA RESULT:      -7.1      0.000      0.000
  Name = 
  9 active torsions:
  status: ('A' for Active; 'I' for Inactive)
    1  A    between atoms: C_4  and  N_13
    2  A    between atoms: O_5  and  C_12
    3  A    between atoms: O_5  and  C_21
    4  A    between atoms: C_7  and  C_15
    5  A    between atoms: C_7  and  C_16
    6  A    between atoms: C_8  and  C_12
    7  A    between atoms: N_13  and  C_27
    8  A    between atoms: C_16  and  C_30
    9  A    between atoms: C_27  and  C_30
                            x       y       z     vdW  Elec       q    Type
                         _______ _______ _______ _____ _____    ______ ____

>  <TORSDO>
F 9

$$$$
=
 OpenBabel11052417163D

 30 32  0  0  1  0  0  0  0  0999 V2000
  188.4880  176.5640  144.7140 C   0  0  0  0  0  3  0  0  0  0  0  0
  187.2990  176.7580  146.9010 C   0  0  1  0  0  3  0  0  0  0  0  0
  185.1970  178.0290  142.5450 C   0  0  0  0  0  3  0  0  0  0  0  0
  188.5950  176.7120  143.3270 C   0  0  0  0  0  0  0  0  0  0  0  0
  185.2780  178.1640  141.1580 C   0  0  0  0  0  3  0  0  0  0  0  0
  185.8940  176.8170  147.4920 C   0  0  0  0  0  2  0  0  0  0  0  0
  187.9100  175.5830  147.3030 F   0  0  0  0  0  0  0  0  0  0  0  0
  186.2920  177.5450  143.2820 C   0  0  0  0  0  0  0  0  0  0  0  0
  185.1260  177.9770  146.8830 C   0  0  0  0  0  2  0  0  0  0  0  0
  187.3100  176.8730  145.3940 C   0  0  0  0  0  0  0  0  0  0  0  0
  187.4890  177.2000  142.6020 C   0  0  0  0  0  0  0  0  0  0  0  0
  186.4500  177.8150  140.4890 C   0  0  0  0  0  3  0  0  0  0  0  0
  187.5460  177.3350  141.2060 C   0  0  0  0  0  3  0  0  0  0  0  0
  184.9150  177.7080  145.4000 C   0  0  0  0  0  2  0  0  0  0  0  0
  186.2070  177.3970  144.6830 C   0  0  0  0  0  0  0  0  0  0  0  0
  191.3610  174.6570  142.2780 O   0  0  0  0  0  0  0  0  0  0  0  0
  190.1580  175.0390  142.2840 C   0  0  0  0  0  0  0  0  0  0  0  0
  189.8420  176.3890  142.6810 N   0  0  0  0  0  0  0  0  0  0  0  0
  188.6940  174.1190  140.6670 O   0  0  0  0  0  0  0  0  0  0  0  0
  189.1090  174.0930  141.8570 C   0  0  0  0  0  0  0  0  0  0  0  0
  188.5590  173.1940  142.7760 O   0  0  0  0  0  0  0  0  0  0  0  0
  189.6990  172.2910  144.6950 C   0  0  0  0  0  1  0  0  0  0  0  0
  189.2710  172.0630  143.2580 C   0  0  0  0  0  2  0  0  0  0  0  0
  190.8950  177.3990  142.6450 C   0  0  0  0  0  2  0  0  0  0  0  0
  191.2640  177.8210  144.0590 C   0  0  0  0  0  2  0  0  0  0  0  0
  192.4770  177.0440  144.5440 C   0  0  0  0  0  2  0  0  0  0  0  0
  192.0730  175.8410  145.3900 C   0  0  0  0  0  2  0  0  0  0  0  0
  191.4980  176.5720  147.7050 C   0  0  0  0  0  1  0  0  0  0  0  0
  192.5740  175.9710  146.8210 C   0  0  2  0  0  3  0  0  0  0  0  0
  193.7410  176.8320  146.8430 N   0  0  0  0  0  1  0  0  0  0  0  0
  1 10  1  0  0  0  0
  2  7  1  6  0  0  0
  2  6  1  0  0  0  0
  3  8  1  0  0  0  0
  4  1  2  0  0  0  0
  5  3  2  0  0  0  0
  8 15  1  0  0  0  0
  9  6  1  0  0  0  0
 10  2  1  0  0  0  0
 11  8  2  0  0  0  0
 11  4  1  0  0  0  0
 12  5  1  0  0  0  0
 12 13  2  0  0  0  0
 13 11  1  0  0  0  0
 14  9  1  0  0  0  0
 15 10  2  0  0  0  0
 15 14  1  0  0  0  0
 16 17  2  0  0  0  0
 17 18  1  0  0  0  0
 18  4  1  0  0  0  0
 19 20  2  0  0  0  0
 20 17  1  0  0  0  0
 20 21  1  0  0  0  0
 21 23  1  0  0  0  0
 23 22  1  0  0  0  0
 24 18  1  0  0  0  0
 24 25  1  0  0  0  0
 25 26  1  0  0  0  0
 26 27  1  0  0  0  0
 27 29  1  0  0  0  0
 29 30  1  0  0  0  0
 29 28  1  1  0  0  0
M  END
>  <MODEL>
2

>  <REMARK>
 VINA RESULT:      -7.1      1.843      3.285
  Name = 
  9 active torsions:
  status: ('A' for Active; 'I' for Inactive)
    1  A    between atoms: C_4  and  N_13
    2  A    between atoms: O_5  and  C_12
    3  A    between atoms: O_5  and  C_21
    4  A    between atoms: C_7  and  C_15
    5  A    between atoms: C_7  and  C_16
    6  A    between atoms: C_8  and  C_12
    7  A    between atoms: N_13  and  C_27
    8  A    between atoms: C_16  and  C_30
    9  A    between atoms: C_27  and  C_30
                            x       y       z     vdW  Elec       q    Type
                         _______ _______ _______ _____ _____    ______ ____

>  <TORSDO>
F 9

$$$$
=
 OpenBabel11052417163D

 30 32  0  0  1  0  0  0  0  0999 V2000
  187.8530  177.6530  143.5460 C   0  0  0  0  0  3  0  0  0  0  0  0
  185.6870  178.8100  143.9950 C   0  0  1  0  0  3  0  0  0  0  0  0
  187.8100  175.6630  147.2500 C   0  0  0  0  0  3  0  0  0  0  0  0
  188.8930  176.7720  143.8610 C   0  0  0  0  0  0  0  0  0  0  0  0
  188.8490  174.7950  147.5900 C   0  0  0  0  0  3  0  0  0  0  0  0
  184.7860  179.2480  145.1450 C   0  0  0  0  0  2  0  0  0  0  0  0
  186.1890  179.9320  143.3610 F   0  0  0  0  0  0  0  0  0  0  0  0
  187.8100  176.3310  146.0130 C   0  0  0  0  0  0  0  0  0  0  0  0
  184.4080  178.0450  145.9930 C   0  0  0  0  0  2  0  0  0  0  0  0
  186.8110  177.9030  144.4390 C   0  0  0  0  0  0  0  0  0  0  0  0
  188.8780  176.1090  145.1050 C   0  0  0  0  0  0  0  0  0  0  0  0
  189.9030  174.5860  146.7020 C   0  0  0  0  0  3  0  0  0  0  0  0
  189.9180  175.2390  145.4700 C   0  0  0  0  0  3  0  0  0  0  0  0
  185.6610  177.4990  146.6640 C   0  0  0  0  0  2  0  0  0  0  0  0
  186.7660  177.2160  145.6730 C   0  0  0  0  0  0  0  0  0  0  0  0
  191.2350  174.8820  141.8820 O   0  0  0  0  0  0  0  0  0  0  0  0
  190.0870  175.2700  142.2340 C   0  0  0  0  0  0  0  0  0  0  0  0
  189.9360  176.5430  142.8930 N   0  0  0  0  0  0  0  0  0  0  0  0
  188.6660  173.4290  142.6810 O   0  0  0  0  0  0  0  0  0  0  0  0
  188.9240  174.4120  141.9340 C   0  0  0  0  0  0  0  0  0  0  0  0
  188.1310  174.6720  140.8120 O   0  0  0  0  0  0  0  0  0  0  0  0
  188.2350  172.7480  139.3680 C   0  0  0  0  0  1  0  0  0  0  0  0
  188.4870  174.2380  139.5070 C   0  0  0  0  0  2  0  0  0  0  0  0
  190.9970  177.5370  142.7570 C   0  0  0  0  0  2  0  0  0  0  0  0
  191.6800  177.7590  144.0980 C   0  0  0  0  0  2  0  0  0  0  0  0
  192.9100  176.8740  144.2190 C   0  0  0  0  0  2  0  0  0  0  0  0
  193.2460  176.5760  145.6770 C   0  0  0  0  0  2  0  0  0  0  0  0
  195.2610  175.1340  145.9670 C   0  0  0  0  0  1  0  0  0  0  0  0
  193.7490  175.1510  145.8540 C   0  0  2  0  0  3  0  0  0  0  0  0
  193.3510  174.3570  144.7060 N   0  0  0  0  0  1  0  0  0  0  0  0
  1  4  2  0  0  0  0
  1 10  1  0  0  0  0
  2  7  1  1  0  0  0
  2 10  1  0  0  0  0
  2  6  1  0  0  0  0
  3  5  1  0  0  0  0
  4 11  1  0  0  0  0
  6  9  1  0  0  0  0
  8  3  2  0  0  0  0
  9 14  1  0  0  0  0
 10 15  2  0  0  0  0
 11 13  2  0  0  0  0
 11  8  1  0  0  0  0
 12  5  2  0  0  0  0
 13 12  1  0  0  0  0
 15  8  1  0  0  0  0
 15 14  1  0  0  0  0
 16 17  2  0  0  0  0
 17 18  1  0  0  0  0
 18  4  1  0  0  0  0
 20 17  1  0  0  0  0
 20 19  2  0  0  0  0
 21 20  1  0  0  0  0
 22 23  1  0  0  0  0
 23 21  1  0  0  0  0
 24 18  1  0  0  0  0
 24 25  1  0  0  0  0
 25 26  1  0  0  0  0
 26 27  1  0  0  0  0
 27 29  1  0  0  0  0
 29 28  1  6  0  0  0
 30 29  1  0  0  0  0
M  END
>  <MODEL>
3

>  <REMARK>
 VINA RESULT:      -7.0      0.735      1.280
  Name = 
  9 active torsions:
  status: ('A' for Active; 'I' for Inactive)
    1  A    between atoms: C_4  and  N_13
    2  A    between atoms: O_5  and  C_12
    3  A    between atoms: O_5  and  C_21
    4  A    between atoms: C_7  and  C_15
    5  A    between atoms: C_7  and  C_16
    6  A    between atoms: C_8  and  C_12
    7  A    between atoms: N_13  and  C_27
    8  A    between atoms: C_16  and  C_30
    9  A    between atoms: C_27  and  C_30
                            x       y       z     vdW  Elec       q    Type
                         _______ _______ _______ _____ _____    ______ ____

>  <TORSDO>
F 9

$$$$
=
 OpenBabel11052417163D

 30 32  0  0  1  0  0  0  0  0999 V2000
  187.8460  176.3940  144.7810 C   0  0  0  0  0  3  0  0  0  0  0  0
  186.5680  177.4660  146.6380 C   0  0  1  0  0  3  0  0  0  0  0  0
  185.5060  178.2380  141.8130 C   0  0  0  0  0  3  0  0  0  0  0  0
  188.1430  176.1630  143.4340 C   0  0  0  0  0  0  0  0  0  0  0  0
  185.7750  178.0040  140.4640 C   0  0  0  0  0  3  0  0  0  0  0  0
  185.2140  178.0970  146.9440 C   0  0  0  0  0  2  0  0  0  0  0  0
  186.6940  176.2930  147.3620 F   0  0  0  0  0  0  0  0  0  0  0  0
  186.2830  177.6310  142.8150 C   0  0  0  0  0  0  0  0  0  0  0  0
  184.9580  179.2560  145.9960 C   0  0  0  0  0  2  0  0  0  0  0  0
  186.7790  177.2060  145.1650 C   0  0  0  0  0  0  0  0  0  0  0  0
  187.3550  176.7800  142.4400 C   0  0  0  0  0  0  0  0  0  0  0  0
  186.8220  177.1590  140.0970 C   0  0  0  0  0  3  0  0  0  0  0  0
  187.6040  176.5500  141.0780 C   0  0  0  0  0  3  0  0  0  0  0  0
  184.8270  178.7170  144.5780 C   0  0  0  0  0  2  0  0  0  0  0  0
  186.0040  177.8590  144.1790 C   0  0  0  0  0  0  0  0  0  0  0  0
  191.3020  175.2770  141.9460 O   0  0  0  0  0  0  0  0  0  0  0  0
  190.5510  175.8850  142.7570 C   0  0  0  0  0  0  0  0  0  0  0  0
  189.2660  175.3250  143.0970 N   0  0  0  0  0  0  0  0  0  0  0  0
  190.6970  178.2470  142.8310 O   0  0  0  0  0  0  0  0  0  0  0  0
  191.0250  177.1480  143.3550 C   0  0  0  0  0  0  0  0  0  0  0  0
  191.8580  177.1230  144.4780 O   0  0  0  0  0  0  0  0  0  0  0  0
  194.0370  177.1230  145.5030 C   0  0  0  0  0  1  0  0  0  0  0  0
  193.1240  176.4790  144.4760 C   0  0  0  0  0  2  0  0  0  0  0  0
  189.0350  173.9020  142.8640 C   0  0  0  0  0  2  0  0  0  0  0  0
  189.9880  173.0720  143.7100 C   0  0  0  0  0  2  0  0  0  0  0  0
  189.6940  173.2710  145.1880 C   0  0  0  0  0  2  0  0  0  0  0  0
  190.8010  174.0600  145.8810 C   0  0  0  0  0  2  0  0  0  0  0  0
  191.2930  175.4800  147.8710 C   0  0  0  0  0  1  0  0  0  0  0  0
  190.2340  175.0710  146.8650 C   0  0  2  0  0  3  0  0  0  0  0  0
  189.1140  174.4770  147.5700 N   0  0  0  0  0  1  0  0  0  0  0  0
  1 10  1  0  0  0  0
  2  6  1  0  0  0  0
  2  7  1  1  0  0  0
  3  8  1  0  0  0  0
  4  1  2  0  0  0  0
  5  3  2  0  0  0  0
  8 15  1  0  0  0  0
  9  6  1  0  0  0  0
 10  2  1  0  0  0  0
 11  8  2  0  0  0  0
 11  4  1  0  0  0  0
 12  5  1  0  0  0  0
 12 13  2  0  0  0  0
 13 11  1  0  0  0  0
 14  9  1  0  0  0  0
 15 14  1  0  0  0  0
 15 10  2  0  0  0  0
 16 17  2  0  0  0  0
 17 18  1  0  0  0  0
 17 20  1  0  0  0  0
 18  4  1  0  0  0  0
 19 20  2  0  0  0  0
 20 21  1  0  0  0  0
 23 21  1  0  0  0  0
 23 22  1  0  0  0  0
 24 18  1  0  0  0  0
 24 25  1  0  0  0  0
 25 26  1  0  0  0  0
 26 27  1  0  0  0  0
 27 29  1  0  0  0  0
 29 30  1  0  0  0  0
 29 28  1  1  0  0  0
M  END
>  <MODEL>
4

>  <REMARK>
 VINA RESULT:      -6.8      2.210      4.367
  Name = 
  9 active torsions:
  status: ('A' for Active; 'I' for Inactive)
    1  A    between atoms: C_4  and  N_13
    2  A    between atoms: O_5  and  C_12
    3  A    between atoms: O_5  and  C_21
    4  A    between atoms: C_7  and  C_15
    5  A    between atoms: C_7  and  C_16
    6  A    between atoms: C_8  and  C_12
    7  A    between atoms: N_13  and  C_27
    8  A    between atoms: C_16  and  C_30
    9  A    between atoms: C_27  and  C_30
                            x       y       z     vdW  Elec       q    Type
                         _______ _______ _______ _____ _____    ______ ____

>  <TORSDO>
F 9

$$$$
=
 OpenBabel11052417163D

 30 32  0  0  1  0  0  0  0  0999 V2000
  190.5970  175.8330  143.2620 C   0  0  0  0  0  3  0  0  0  0  0  0
  192.8550  175.7120  144.3180 C   0  0  1  0  0  3  0  0  0  0  0  0
  188.6640  176.4380  146.9480 C   0  0  0  0  0  3  0  0  0  0  0  0
  189.2090  176.0090  143.2860 C   0  0  0  0  0  0  0  0  0  0  0  0
  187.2780  176.5960  146.9930 C   0  0  0  0  0  3  0  0  0  0  0  0
  193.5330  175.4150  145.6520 C   0  0  0  0  0  2  0  0  0  0  0  0
  193.1950  174.7260  143.4090 F   0  0  0  0  0  0  0  0  0  0  0  0
  189.3230  176.2400  145.7220 C   0  0  0  0  0  0  0  0  0  0  0  0
  192.9970  176.3500  146.7230 C   0  0  0  0  0  2  0  0  0  0  0  0
  191.3540  175.8340  144.4340 C   0  0  0  0  0  0  0  0  0  0  0  0
  188.5630  176.2080  144.5230 C   0  0  0  0  0  0  0  0  0  0  0  0
  186.5310  176.5550  145.8170 C   0  0  0  0  0  3  0  0  0  0  0  0
  187.1690  176.3600  144.5920 C   0  0  0  0  0  3  0  0  0  0  0  0
  191.5240  176.0430  146.9560 C   0  0  0  0  0  2  0  0  0  0  0  0
  190.7230  176.0690  145.6760 C   0  0  0  0  0  0  0  0  0  0  0  0
  188.2330  174.8930  140.0030 O   0  0  0  0  0  0  0  0  0  0  0  0
  188.3220  174.8110  141.2590 C   0  0  0  0  0  0  0  0  0  0  0  0
  188.4810  176.0110  142.0430 N   0  0  0  0  0  0  0  0  0  0  0  0
  187.1110  172.9200  142.0090 O   0  0  0  0  0  0  0  0  0  0  0  0
  188.2340  173.4820  141.8930 C   0  0  0  0  0  0  0  0  0  0  0  0
  189.3870  172.8610  142.3860 O   0  0  0  0  0  0  0  0  0  0  0  0
  190.3790  172.5300  144.5550 C   0  0  0  0  0  1  0  0  0  0  0  0
  189.3730  172.0280  143.5360 C   0  0  0  0  0  2  0  0  0  0  0  0
  188.1060  177.2930  141.4520 C   0  0  0  0  0  2  0  0  0  0  0  0
  186.5920  177.4120  141.3790 C   0  0  0  0  0  2  0  0  0  0  0  0
  186.1140  178.6010  142.1970 C   0  0  0  0  0  2  0  0  0  0  0  0
  184.7110  178.3750  142.7520 C   0  0  0  0  0  2  0  0  0  0  0  0
  185.6940  179.9460  144.4220 C   0  0  0  0  0  1  0  0  0  0  0  0
  184.4140  179.3100  143.9150 C   0  0  2  0  0  3  0  0  0  0  0  0
  183.8010  178.5550  144.9920 N   0  0  0  0  0  1  0  0  0  0  0  0
  1  4  2  0  0  0  0
  1 10  1  0  0  0  0
  2  7  1  6  0  0  0
  2 10  1  0  0  0  0
  2  6  1  0  0  0  0
  3  5  1  0  0  0  0
  4 11  1  0  0  0  0
  6  9  1  0  0  0  0
  8  3  2  0  0  0  0
  9 14  1  0  0  0  0
 10 15  2  0  0  0  0
 11 13  2  0  0  0  0
 11  8  1  0  0  0  0
 12  5  2  0  0  0  0
 13 12  1  0  0  0  0
 15  8  1  0  0  0  0
 15 14  1  0  0  0  0
 16 17  2  0  0  0  0
 17 20  1  0  0  0  0
 17 18  1  0  0  0  0
 18  4  1  0  0  0  0
 20 19  2  0  0  0  0
 20 21  1  0  0  0  0
 21 23  1  0  0  0  0
 23 22  1  0  0  0  0
 24 18  1  0  0  0  0
 25 24  1  0  0  0  0
 25 26  1  0  0  0  0
 26 27  1  0  0  0  0
 27 29  1  0  0  0  0
 29 28  1  1  0  0  0
 29 30  1  0  0  0  0
M  END
>  <MODEL>
5

>  <REMARK>
 VINA RESULT:      -6.7      2.428      5.729
  Name = 
  9 active torsions:
  status: ('A' for Active; 'I' for Inactive)
    1  A    between atoms: C_4  and  N_13
    2  A    between atoms: O_5  and  C_12
    3  A    between atoms: O_5  and  C_21
    4  A    between atoms: C_7  and  C_15
    5  A    between atoms: C_7  and  C_16
    6  A    between atoms: C_8  and  C_12
    7  A    between atoms: N_13  and  C_27
    8  A    between atoms: C_16  and  C_30
    9  A    between atoms: C_27  and  C_30
                            x       y       z     vdW  Elec       q    Type
                         _______ _______ _______ _____ _____    ______ ____

>  <TORSDO>
F 9

$$$$
=
 OpenBabel11052417163D

 30 32  0  0  1  0  0  0  0  0999 V2000
  188.6200  177.4040  143.9260 C   0  0  0  0  0  3  0  0  0  0  0  0
  187.3730  178.3460  141.9800 C   0  0  1  0  0  3  0  0  0  0  0  0
  188.6330  173.5190  142.3170 C   0  0  0  0  0  3  0  0  0  0  0  0
  189.2570  176.3760  144.6280 C   0  0  0  0  0  0  0  0  0  0  0  0
  189.2460  172.4760  143.0130 C   0  0  0  0  0  3  0  0  0  0  0  0
  186.4380  177.9300  140.8480 C   0  0  0  0  0  2  0  0  0  0  0  0
  186.6840  179.1670  142.8560 F   0  0  0  0  0  0  0  0  0  0  0  0
  188.6250  174.8230  142.8420 C   0  0  0  0  0  0  0  0  0  0  0  0
  187.0980  176.8540  140.0030 C   0  0  0  0  0  2  0  0  0  0  0  0
  187.9720  177.1700  142.7130 C   0  0  0  0  0  0  0  0  0  0  0  0
  189.2570  175.0730  144.0880 C   0  0  0  0  0  0  0  0  0  0  0  0
  189.8570  172.7200  144.2420 C   0  0  0  0  0  3  0  0  0  0  0  0
  189.8600  174.0090  144.7760 C   0  0  0  0  0  3  0  0  0  0  0  0
  187.2730  175.5990  140.8470 C   0  0  0  0  0  2  0  0  0  0  0  0
  187.9960  175.8760  142.1440 C   0  0  0  0  0  0  0  0  0  0  0  0
  191.8440  176.2510  147.1310 O   0  0  0  0  0  0  0  0  0  0  0  0
  191.3520  176.5550  146.0100 C   0  0  0  0  0  0  0  0  0  0  0  0
  189.9220  176.6810  145.8700 N   0  0  0  0  0  0  0  0  0  0  0  0
  192.0340  177.7570  144.0870 O   0  0  0  0  0  0  0  0  0  0  0  0
  192.2640  176.8000  144.8760 C   0  0  0  0  0  0  0  0  0  0  0  0
  193.3590  175.9580  144.6620 O   0  0  0  0  0  0  0  0  0  0  0  0
  195.2030  175.1720  145.9980 C   0  0  0  0  0  1  0  0  0  0  0  0
  194.6690  176.2800  145.1090 C   0  0  0  0  0  2  0  0  0  0  0  0
  189.1120  176.8870  147.0670 C   0  0  0  0  0  2  0  0  0  0  0  0
  187.8340  176.0670  146.9820 C   0  0  0  0  0  2  0  0  0  0  0  0
  186.6240  176.9420  147.2620 C   0  0  0  0  0  2  0  0  0  0  0  0
  185.5950  176.8560  146.1390 C   0  0  0  0  0  2  0  0  0  0  0  0
  184.2390  178.7030  145.1530 C   0  0  0  0  0  1  0  0  0  0  0  0
  184.4370  177.8170  146.3680 C   0  0  2  0  0  3  0  0  0  0  0  0
  184.7260  178.6500  147.5200 N   0  0  0  0  0  1  0  0  0  0  0  0
  1  4  1  0  0  0  0
  2 10  1  0  0  0  0
  2  7  1  1  0  0  0
  3  8  1  0  0  0  0
  3  5  2  0  0  0  0
  4 18  1  0  0  0  0
  5 12  1  0  0  0  0
  6  2  1  0  0  0  0
  8 11  1  0  0  0  0
  9 14  1  0  0  0  0
  9  6  1  0  0  0  0
 10  1  2  0  0  0  0
 11  4  2  0  0  0  0
 11 13  1  0  0  0  0
 12 13  2  0  0  0  0
 14 15  1  0  0  0  0
 15 10  1  0  0  0  0
 15  8  2  0  0  0  0
 17 16  2  0  0  0  0
 18 17  1  0  0  0  0
 18 24  1  0  0  0  0
 19 20  2  0  0  0  0
 20 17  1  0  0  0  0
 21 20  1  0  0  0  0
 21 23  1  0  0  0  0
 23 22  1  0  0  0  0
 25 24  1  0  0  0  0
 25 26  1  0  0  0  0
 27 29  1  0  0  0  0
 27 26  1  0  0  0  0
 29 28  1  6  0  0  0
 29 30  1  0  0  0  0
M  END
>  <MODEL>
6

>  <REMARK>
 VINA RESULT:      -6.6      2.412      5.661
  Name = 
  9 active torsions:
  status: ('A' for Active; 'I' for Inactive)
    1  A    between atoms: C_4  and  N_13
    2  A    between atoms: O_5  and  C_12
    3  A    between atoms: O_5  and  C_21
    4  A    between atoms: C_7  and  C_15
    5  A    between atoms: C_7  and  C_16
    6  A    between atoms: C_8  and  C_12
    7  A    between atoms: N_13  and  C_27
    8  A    between atoms: C_16  and  C_30
    9  A    between atoms: C_27  and  C_30
                            x       y       z     vdW  Elec       q    Type
                         _______ _______ _______ _____ _____    ______ ____

>  <TORSDO>
F 9

$$$$
=
 OpenBabel11052417163D

 30 32  0  0  1  0  0  0  0  0999 V2000
  187.9420  176.3510  145.1300 C   0  0  0  0  0  3  0  0  0  0  0  0
  186.4720  177.3830  146.8650 C   0  0  1  0  0  3  0  0  0  0  0  0
  185.6490  177.8890  141.9580 C   0  0  0  0  0  3  0  0  0  0  0  0
  188.3390  176.0970  143.8130 C   0  0  0  0  0  0  0  0  0  0  0  0
  186.0180  177.6290  140.6380 C   0  0  0  0  0  3  0  0  0  0  0  0
  185.0560  177.9120  147.0650 C   0  0  0  0  0  2  0  0  0  0  0  0
  186.6460  176.2510  147.6420 F   0  0  0  0  0  0  0  0  0  0  0  0
  186.4090  177.3850  143.0280 C   0  0  0  0  0  0  0  0  0  0  0  0
  184.7670  179.0110  146.0570 C   0  0  0  0  0  2  0  0  0  0  0  0
  186.7920  177.0880  145.4180 C   0  0  0  0  0  0  0  0  0  0  0  0
  187.5660  176.6100  142.7520 C   0  0  0  0  0  0  0  0  0  0  0  0
  187.1490  176.8590  140.3670 C   0  0  0  0  0  3  0  0  0  0  0  0
  187.9150  176.3530  141.4170 C   0  0  0  0  0  3  0  0  0  0  0  0
  184.7660  178.4110  144.6570 C   0  0  0  0  0  2  0  0  0  0  0  0
  186.0300  177.6390  144.3630 C   0  0  0  0  0  0  0  0  0  0  0  0
  191.6840  175.4550  142.6440 O   0  0  0  0  0  0  0  0  0  0  0  0
  190.8160  175.9920  143.3850 C   0  0  0  0  0  0  0  0  0  0  0  0
  189.5430  175.3410  143.5770 N   0  0  0  0  0  0  0  0  0  0  0  0
  191.2210  178.3240  143.3780 O   0  0  0  0  0  0  0  0  0  0  0  0
  191.1420  177.2640  144.0570 C   0  0  0  0  0  0  0  0  0  0  0  0
  191.3910  177.2880  145.4330 O   0  0  0  0  0  0  0  0  0  0  0  0
  190.9840  175.7080  147.2030 C   0  0  0  0  0  1  0  0  0  0  0  0
  191.9450  176.1790  146.1280 C   0  0  0  0  0  2  0  0  0  0  0  0
  189.4310  173.9140  143.2910 C   0  0  0  0  0  2  0  0  0  0  0  0
  189.7180  173.1050  144.5460 C   0  0  0  0  0  2  0  0  0  0  0  0
  190.8650  172.1380  144.3010 C   0  0  0  0  0  2  0  0  0  0  0  0
  192.2060  172.7410  144.7080 C   0  0  0  0  0  2  0  0  0  0  0  0
  194.3190  171.6670  145.4850 C   0  0  0  0  0  1  0  0  0  0  0  0
  193.3660  171.8380  144.3170 C   0  0  2  0  0  3  0  0  0  0  0  0
  194.0820  172.4330  143.2040 N   0  0  0  0  0  1  0  0  0  0  0  0
  1 10  1  0  0  0  0
  2  6  1  0  0  0  0
  2  7  1  1  0  0  0
  3  8  1  0  0  0  0
  4  1  2  0  0  0  0
  5  3  2  0  0  0  0
  8 15  1  0  0  0  0
  9  6  1  0  0  0  0
 10  2  1  0  0  0  0
 11  8  2  0  0  0  0
 11  4  1  0  0  0  0
 12  5  1  0  0  0  0
 12 13  2  0  0  0  0
 13 11  1  0  0  0  0
 14  9  1  0  0  0  0
 15 14  1  0  0  0  0
 15 10  2  0  0  0  0
 16 17  2  0  0  0  0
 17 18  1  0  0  0  0
 17 20  1  0  0  0  0
 18  4  1  0  0  0  0
 19 20  2  0  0  0  0
 20 21  1  0  0  0  0
 21 23  1  0  0  0  0
 23 22  1  0  0  0  0
 24 18  1  0  0  0  0
 24 25  1  0  0  0  0
 26 25  1  0  0  0  0
 26 27  1  0  0  0  0
 29 27  1  0  0  0  0
 29 28  1  1  0  0  0
 30 29  1  0  0  0  0
M  END
>  <MODEL>
7

>  <REMARK>
 VINA RESULT:      -6.5      2.332      4.168
  Name = 
  9 active torsions:
  status: ('A' for Active; 'I' for Inactive)
    1  A    between atoms: C_4  and  N_13
    2  A    between atoms: O_5  and  C_12
    3  A    between atoms: O_5  and  C_21
    4  A    between atoms: C_7  and  C_15
    5  A    between atoms: C_7  and  C_16
    6  A    between atoms: C_8  and  C_12
    7  A    between atoms: N_13  and  C_27
    8  A    between atoms: C_16  and  C_30
    9  A    between atoms: C_27  and  C_30
                            x       y       z     vdW  Elec       q    Type
                         _______ _______ _______ _____ _____    ______ ____

>  <TORSDO>
F 9

$$$$
=
 OpenBabel11052417163D

 30 32  0  0  1  0  0  0  0  0999 V2000
  187.9990  176.1960  142.2340 C   0  0  0  0  0  3  0  0  0  0  0  0
  186.2620  177.3150  140.8320 C   0  0  1  0  0  3  0  0  0  0  0  0
  186.0940  177.2600  145.8290 C   0  0  0  0  0  3  0  0  0  0  0  0
  188.5520  175.7820  143.4500 C   0  0  0  0  0  0  0  0  0  0  0  0
  186.6430  176.8720  147.0530 C   0  0  0  0  0  3  0  0  0  0  0  0
  185.1970  178.4040  140.8980 C   0  0  0  0  0  2  0  0  0  0  0  0
  187.2640  177.7130  139.9630 F   0  0  0  0  0  0  0  0  0  0  0  0
  186.7180  176.9070  144.6200 C   0  0  0  0  0  0  0  0  0  0  0  0
  184.2100  178.0940  142.0100 C   0  0  0  0  0  2  0  0  0  0  0  0
  186.8390  176.9700  142.1850 C   0  0  0  0  0  0  0  0  0  0  0  0
  187.9140  176.1430  144.6540 C   0  0  0  0  0  0  0  0  0  0  0  0
  187.8230  176.1310  147.0860 C   0  0  0  0  0  3  0  0  0  0  0  0
  188.4540  175.7710  145.8950 C   0  0  0  0  0  3  0  0  0  0  0  0
  184.9310  178.1710  143.3490 C   0  0  0  0  0  2  0  0  0  0  0  0
  186.1700  177.3080  143.3830 C   0  0  0  0  0  0  0  0  0  0  0  0
  191.9430  174.8690  142.6470 O   0  0  0  0  0  0  0  0  0  0  0  0
  191.0470  175.5500  143.2170 C   0  0  0  0  0  0  0  0  0  0  0  0
  189.7450  174.9720  143.4380 N   0  0  0  0  0  0  0  0  0  0  0  0
  191.4060  177.8570  142.8230 O   0  0  0  0  0  0  0  0  0  0  0  0
  191.3710  176.9180  143.6640 C   0  0  0  0  0  0  0  0  0  0  0  0
  191.6650  177.1660  145.0090 O   0  0  0  0  0  0  0  0  0  0  0  0
  192.0680  175.6540  146.8390 C   0  0  0  0  0  1  0  0  0  0  0  0
  192.6800  176.4620  145.7110 C   0  0  0  0  0  2  0  0  0  0  0  0
  189.6050  173.5190  143.4110 C   0  0  0  0  0  2  0  0  0  0  0  0
  188.7080  173.1010  142.2570 C   0  0  0  0  0  2  0  0  0  0  0  0
  189.5460  172.6570  141.0690 C   0  0  0  0  0  2  0  0  0  0  0  0
  189.7170  173.7790  140.0500 C   0  0  0  0  0  2  0  0  0  0  0  0
  188.2370  174.1290  138.0730 C   0  0  0  0  0  1  0  0  0  0  0  0
  189.3800  173.3110  138.6420 C   0  0  2  0  0  3  0  0  0  0  0  0
  188.9900  171.9140  138.6820 N   0  0  0  0  0  1  0  0  0  0  0  0
  1  4  1  0  0  0  0
  2  7  1  6  0  0  0
  2  6  1  0  0  0  0
  2 10  1  0  0  0  0
  3  5  2  0  0  0  0
  4 11  2  0  0  0  0
  5 12  1  0  0  0  0
  6  9  1  0  0  0  0
  8 11  1  0  0  0  0
  8  3  1  0  0  0  0
  9 14  1  0  0  0  0
 10  1  2  0  0  0  0
 10 15  1  0  0  0  0
 11 13  1  0  0  0  0
 13 12  2  0  0  0  0
 14 15  1  0  0  0  0
 15  8  2  0  0  0  0
 16 17  2  0  0  0  0
 17 18  1  0  0  0  0
 17 20  1  0  0  0  0
 18  4  1  0  0  0  0
 19 20  2  0  0  0  0
 20 21  1  0  0  0  0
 21 23  1  0  0  0  0
 23 22  1  0  0  0  0
 24 18  1  0  0  0  0
 25 24  1  0  0  0  0
 26 25  1  0  0  0  0
 27 26  1  0  0  0  0
 29 28  1  1  0  0  0
 29 30  1  0  0  0  0
 29 27  1  0  0  0  0
M  END
>  <MODEL>
8

>  <REMARK>
 VINA RESULT:      -6.5      2.439      4.713
  Name = 
  9 active torsions:
  status: ('A' for Active; 'I' for Inactive)
    1  A    between atoms: C_4  and  N_13
    2  A    between atoms: O_5  and  C_12
    3  A    between atoms: O_5  and  C_21
    4  A    between atoms: C_7  and  C_15
    5  A    between atoms: C_7  and  C_16
    6  A    between atoms: C_8  and  C_12
    7  A    between atoms: N_13  and  C_27
    8  A    between atoms: C_16  and  C_30
    9  A    between atoms: C_27  and  C_30
                            x       y       z     vdW  Elec       q    Type
                         _______ _______ _______ _____ _____    ______ ____

>  <TORSDO>
F 9

$$$$
=
 OpenBabel11052417163D

 30 32  0  0  1  0  0  0  0  0999 V2000
  187.5900  176.4290  144.9030 C   0  0  0  0  0  3  0  0  0  0  0  0
  186.0420  177.4420  146.5790 C   0  0  1  0  0  3  0  0  0  0  0  0
  185.4160  177.9580  141.6440 C   0  0  0  0  0  3  0  0  0  0  0  0
  188.0430  176.1820  143.6030 C   0  0  0  0  0  0  0  0  0  0  0  0
  185.8420  177.7050  140.3390 C   0  0  0  0  0  3  0  0  0  0  0  0
  184.6150  177.9590  146.7230 C   0  0  0  0  0  2  0  0  0  0  0  0
  186.1940  176.3090  147.3590 F   0  0  0  0  0  0  0  0  0  0  0  0
  186.1360  177.4570  142.7420 C   0  0  0  0  0  0  0  0  0  0  0  0
  184.3590  179.0590  145.7060 C   0  0  0  0  0  2  0  0  0  0  0  0
  186.4240  177.1550  145.1460 C   0  0  0  0  0  0  0  0  0  0  0  0
  187.3100  176.6930  142.5120 C   0  0  0  0  0  0  0  0  0  0  0  0
  186.9890  176.9460  140.1130 C   0  0  0  0  0  3  0  0  0  0  0  0
  187.7160  176.4420  141.1920 C   0  0  0  0  0  3  0  0  0  0  0  0
  184.4200  178.4650  144.3070 C   0  0  0  0  0  2  0  0  0  0  0  0
  185.7010  177.7030  144.0620 C   0  0  0  0  0  0  0  0  0  0  0  0
  191.3940  175.5270  142.4570 O   0  0  0  0  0  0  0  0  0  0  0  0
  190.5190  176.0980  143.1630 C   0  0  0  0  0  0  0  0  0  0  0  0
  189.2620  175.4370  143.4140 N   0  0  0  0  0  0  0  0  0  0  0  0
  190.6040  178.4610  143.0520 O   0  0  0  0  0  0  0  0  0  0  0  0
  190.8210  177.4240  143.7350 C   0  0  0  0  0  0  0  0  0  0  0  0
  191.3720  177.5270  145.0170 O   0  0  0  0  0  0  0  0  0  0  0  0
  190.4820  176.8730  147.1560 C   0  0  0  0  0  1  0  0  0  0  0  0
  191.3190  176.4650  145.9580 C   0  0  0  0  0  2  0  0  0  0  0  0
  189.1800  173.9900  143.2360 C   0  0  0  0  0  2  0  0  0  0  0  0
  189.7600  173.2800  144.4490 C   0  0  0  0  0  2  0  0  0  0  0  0
  190.2850  171.9080  144.0590 C   0  0  0  0  0  2  0  0  0  0  0  0
  189.8120  171.4990  142.6670 C   0  0  0  0  0  2  0  0  0  0  0  0
  191.0110  171.9050  140.5180 C   0  0  0  0  0  1  0  0  0  0  0  0
  190.9750  171.0720  141.7850 C   0  0  2  0  0  3  0  0  0  0  0  0
  190.8180  169.6740  141.4290 N   0  0  0  0  0  1  0  0  0  0  0  0
  1 10  1  0  0  0  0
  2  6  1  0  0  0  0
  2  7  1  1  0  0  0
  3  8  1  0  0  0  0
  4  1  2  0  0  0  0
  5  3  2  0  0  0  0
  8 15  1  0  0  0  0
  9  6  1  0  0  0  0
 10  2  1  0  0  0  0
 11  8  2  0  0  0  0
 11  4  1  0  0  0  0
 12  5  1  0  0  0  0
 12 13  2  0  0  0  0
 13 11  1  0  0  0  0
 14  9  1  0  0  0  0
 15 14  1  0  0  0  0
 15 10  2  0  0  0  0
 16 17  2  0  0  0  0
 17 18  1  0  0  0  0
 17 20  1  0  0  0  0
 18  4  1  0  0  0  0
 19 20  2  0  0  0  0
 20 21  1  0  0  0  0
 21 23  1  0  0  0  0
 23 22  1  0  0  0  0
 24 18  1  0  0  0  0
 24 25  1  0  0  0  0
 26 25  1  0  0  0  0
 27 26  1  0  0  0  0
 29 28  1  6  0  0  0
 29 27  1  0  0  0  0
 30 29  1  0  0  0  0
M  END
>  <MODEL>
9

>  <REMARK>
 VINA RESULT:      -6.4      2.486      4.757
  Name = 
  9 active torsions:
  status: ('A' for Active; 'I' for Inactive)
    1  A    between atoms: C_4  and  N_13
    2  A    between atoms: O_5  and  C_12
    3  A    between atoms: O_5  and  C_21
    4  A    between atoms: C_7  and  C_15
    5  A    between atoms: C_7  and  C_16
    6  A    between atoms: C_8  and  C_12
    7  A    between atoms: N_13  and  C_27
    8  A    between atoms: C_16  and  C_30
    9  A    between atoms: C_27  and  C_30
                            x       y       z     vdW  Elec       q    Type
                         _______ _______ _______ _____ _____    ______ ____

>  <TORSDO>
F 9

$$$$
