=
 OpenBabel11052418513D

 34 39  0  0  1  0  0  0  0  0999 V2000
  190.8260  176.3080  143.8140 C   0  0  0  0  0  0  0  0  0  0  0  0
  188.6860  177.2900  142.9430 N   0  0  0  0  0  0  0  0  0  0  0  0
  190.9100  172.0310  142.0080 C   0  0  0  0  0  0  0  0  0  0  0  0
  189.6420  171.5160  142.4120 N   0  0  0  0  0  2  0  0  0  0  0  0
  190.3020  178.6270  144.0100 O   0  0  0  0  0  0  0  0  0  0  0  0
  189.7120  174.1250  141.0820 C   0  0  1  0  0  3  0  0  0  0  0  0
  188.4680  172.3730  142.4120 C   0  0  0  0  0  2  0  0  0  0  0  0
  190.6900  175.3610  142.8760 C   0  0  0  0  0  0  0  0  0  0  0  0
  191.0490  173.4580  141.5570 C   0  0  1  0  0  3  0  0  0  0  0  0
  188.6160  176.2180  141.9900 C   0  0  0  0  0  3  0  0  0  0  0  0
  188.4720  173.2170  141.1450 C   0  0  0  0  0  2  0  0  0  0  0  0
  189.5770  175.3040  141.9800 C   0  0  0  0  0  0  0  0  0  0  0  0
  191.9230  171.2870  142.0380 O   0  0  0  0  0  0  0  0  0  0  0  0
  189.7320  177.3510  143.9850 C   0  0  0  0  0  0  0  0  0  0  0  0
  191.5660  174.2710  142.6590 N   0  0  0  0  0  2  0  0  0  0  0  0
  191.8460  175.6990  146.0480 C   0  0  0  0  0  0  0  0  0  0  0  0
  193.1830  176.8350  144.3700 C   0  0  0  0  0  3  0  0  0  0  0  0
  194.1590  176.2610  146.5080 C   0  0  0  0  0  3  0  0  0  0  0  0
  195.4580  177.3650  144.8450 F   0  0  0  0  0  0  0  0  0  0  0  0
  191.9570  176.2850  144.7690 C   0  0  0  0  0  0  0  0  0  0  0  0
  192.9480  175.6950  146.9100 C   0  0  0  0  0  3  0  0  0  0  0  0
  190.6380  175.0690  146.4670 N   0  0  0  0  0  1  0  0  0  0  0  0
  194.2780  176.8270  145.2380 C   0  0  0  0  0  0  0  0  0  0  0  0
  187.5810  178.2360  143.0070 C   0  0  0  0  0  2  0  0  0  0  0  0
  185.2510  177.3340  143.7040 C   0  0  1  0  0  3  0  0  0  0  0  0
  185.1190  178.5300  142.7740 C   0  0  0  0  0  2  0  0  0  0  0  0
  186.2720  177.5690  142.5770 C   0  0  1  0  0  3  0  0  0  0  0  0
  187.0580  175.7380  145.2330 F   0  0  0  0  0  0  0  0  0  0  0  0
  185.7210  177.7250  145.0840 C   0  0  0  0  0  0  0  0  0  0  0  0
  186.5970  176.8840  145.7930 C   0  0  0  0  0  0  0  0  0  0  0  0
  186.5390  178.3980  147.6840 C   0  0  0  0  0  3  0  0  0  0  0  0
  185.6580  179.2310  146.9930 C   0  0  0  0  0  3  0  0  0  0  0  0
  185.2450  178.8930  145.7010 C   0  0  0  0  0  3  0  0  0  0  0  0
  187.0050  177.2250  147.0850 C   0  0  0  0  0  3  0  0  0  0  0  0
  1 14  1  0  0  0  0
  1 20  1  0  0  0  0
  2 24  1  0  0  0  0
  2 14  1  0  0  0  0
  3 13  2  0  0  0  0
  3  4  1  0  0  0  0
  4  7  1  0  0  0  0
  6 11  1  1  0  0  0
  6  9  1  0  0  0  0
  6 12  1  0  0  0  0
  8  1  2  0  0  0  0
  9  3  1  1  0  0  0
  9 15  1  0  0  0  0
 10  2  1  0  0  0  0
 11  7  1  0  0  0  0
 12 10  2  0  0  0  0
 12  8  1  0  0  0  0
 14  5  2  0  0  0  0
 15  8  1  0  0  0  0
 16 22  1  0  0  0  0
 16 21  1  0  0  0  0
 17 20  1  0  0  0  0
 17 23  2  0  0  0  0
 18 21  2  0  0  0  0
 19 23  1  0  0  0  0
 20 16  2  0  0  0  0
 23 18  1  0  0  0  0
 25 29  1  1  0  0  0
 26 25  1  0  0  0  0
 27 26  1  0  0  0  0
 27 24  1  1  0  0  0
 27 25  1  0  0  0  0
 28 30  1  0  0  0  0
 29 33  2  0  0  0  0
 29 30  1  0  0  0  0
 30 34  2  0  0  0  0
 32 31  2  0  0  0  0
 33 32  1  0  0  0  0
 34 31  1  0  0  0  0
M  END
>  <MODEL>
1

>  <REMARK>
 VINA RESULT:      -8.6      0.000      0.000
  Name = 
  4 active torsions:
  status: ('A' for Active; 'I' for Inactive)
    1  A    between atoms: C_3  and  C_13
    2  A    between atoms: C_4  and  C_15
    3  A    between atoms: N_5  and  C_18
    4  A    between atoms: C_18  and  C_29
                            x       y       z     vdW  Elec       q    Type
                         _______ _______ _______ _____ _____    ______ ____

>  <TORSDO>
F 4

$$$$
=
 OpenBabel11052418513D

 34 39  0  0  1  0  0  0  0  0999 V2000
  190.8990  174.5980  143.6120 C   0  0  0  0  0  0  0  0  0  0  0  0
  189.9560  176.4740  144.9900 N   0  0  0  0  0  0  0  0  0  0  0  0
  195.2950  174.2440  145.0660 C   0  0  0  0  0  0  0  0  0  0  0  0
  195.7650  175.5830  144.9120 N   0  0  0  0  0  2  0  0  0  0  0  0
  188.5660  175.0890  143.6910 O   0  0  0  0  0  0  0  0  0  0  0  0
  193.2590  175.1580  146.3670 C   0  0  1  0  0  3  0  0  0  0  0  0
  194.8960  176.7060  145.2230 C   0  0  0  0  0  2  0  0  0  0  0  0
  191.9090  174.5550  144.4920 C   0  0  0  0  0  0  0  0  0  0  0  0
  193.9050  173.9730  145.5710 C   0  0  1  0  0  3  0  0  0  0  0  0
  191.0920  176.3670  145.8610 C   0  0  0  0  0  3  0  0  0  0  0  0
  194.1450  176.4070  146.5130 C   0  0  0  0  0  2  0  0  0  0  0  0
  192.0160  175.4510  145.6020 C   0  0  0  0  0  0  0  0  0  0  0  0
  196.0470  173.2810  144.7680 O   0  0  0  0  0  0  0  0  0  0  0  0
  189.8330  175.6740  143.7530 C   0  0  0  0  0  0  0  0  0  0  0  0
  193.0220  173.6820  144.4410 N   0  0  0  0  0  2  0  0  0  0  0  0
  190.3030  172.4070  142.4970 C   0  0  0  0  0  0  0  0  0  0  0  0
  191.3870  174.1660  141.2210 C   0  0  0  0  0  3  0  0  0  0  0  0
  190.8250  172.0690  140.1530 C   0  0  0  0  0  3  0  0  0  0  0  0
  191.8780  173.8110  138.9160 F   0  0  0  0  0  0  0  0  0  0  0  0
  190.8680  173.7000  142.4370 C   0  0  0  0  0  0  0  0  0  0  0  0
  190.2890  171.6000  141.3540 C   0  0  0  0  0  3  0  0  0  0  0  0
  189.7040  171.9200  143.6940 N   0  0  0  0  0  1  0  0  0  0  0  0
  191.3700  173.3530  140.0850 C   0  0  0  0  0  0  0  0  0  0  0  0
  188.9950  177.5410  145.2300 C   0  0  0  0  0  2  0  0  0  0  0  0
  186.8400  177.5410  146.6730 C   0  0  1  0  0  3  0  0  0  0  0  0
  187.4970  176.1690  146.6710 C   0  0  0  0  0  2  0  0  0  0  0  0
  188.3720  177.4040  146.6210 C   0  0  1  0  0  3  0  0  0  0  0  0
  185.9410  180.1660  146.0000 F   0  0  0  0  0  0  0  0  0  0  0  0
  186.1820  177.8670  145.3540 C   0  0  0  0  0  0  0  0  0  0  0  0
  185.7440  179.1770  145.0930 C   0  0  0  0  0  0  0  0  0  0  0  0
  184.8820  178.4720  142.9400 C   0  0  0  0  0  3  0  0  0  0  0  0
  185.3010  177.1660  143.1980 C   0  0  0  0  0  3  0  0  0  0  0  0
  185.9410  176.8630  144.4030 C   0  0  0  0  0  3  0  0  0  0  0  0
  185.1010  179.4750  143.8880 C   0  0  0  0  0  3  0  0  0  0  0  0
  1 14  1  0  0  0  0
  1  8  2  0  0  0  0
  2 24  1  0  0  0  0
  2 10  1  0  0  0  0
  3  9  1  0  0  0  0
  4  3  1  0  0  0  0
  4  7  1  0  0  0  0
  5 14  2  0  0  0  0
  6 11  1  6  0  0  0
  7 11  1  0  0  0  0
  8 12  1  0  0  0  0
  9 15  1  6  0  0  0
  9  6  1  0  0  0  0
 12 10  2  0  0  0  0
 12  6  1  0  0  0  0
 13  3  2  0  0  0  0
 14  2  1  0  0  0  0
 15  8  1  0  0  0  0
 16 22  1  0  0  0  0
 17 20  2  0  0  0  0
 18 21  1  0  0  0  0
 19 23  1  0  0  0  0
 20 16  1  0  0  0  0
 20  1  1  0  0  0  0
 21 16  2  0  0  0  0
 23 18  2  0  0  0  0
 23 17  1  0  0  0  0
 25 29  1  6  0  0  0
 26 25  1  0  0  0  0
 27 24  1  6  0  0  0
 27 26  1  0  0  0  0
 27 25  1  0  0  0  0
 30 29  1  0  0  0  0
 30 28  1  0  0  0  0
 31 32  2  0  0  0  0
 31 34  1  0  0  0  0
 32 33  1  0  0  0  0
 33 29  2  0  0  0  0
 34 30  2  0  0  0  0
M  END
>  <MODEL>
2

>  <REMARK>
 VINA RESULT:      -8.2      2.447      5.084
  Name = 
  4 active torsions:
  status: ('A' for Active; 'I' for Inactive)
    1  A    between atoms: C_3  and  C_13
    2  A    between atoms: C_4  and  C_15
    3  A    between atoms: N_5  and  C_18
    4  A    between atoms: C_18  and  C_29
                            x       y       z     vdW  Elec       q    Type
                         _______ _______ _______ _____ _____    ______ ____

>  <TORSDO>
F 4

$$$$
=
 OpenBabel11052418513D

 34 39  0  0  1  0  0  0  0  0999 V2000
  192.2010  175.6290  143.6160 C   0  0  0  0  0  0  0  0  0  0  0  0
  190.0030  176.8210  143.8520 N   0  0  0  0  0  0  0  0  0  0  0  0
  191.1030  171.6820  141.4310 C   0  0  0  0  0  0  0  0  0  0  0  0
  190.0670  171.1630  142.2640 N   0  0  0  0  0  2  0  0  0  0  0  0
  192.0400  177.9100  144.2970 O   0  0  0  0  0  0  0  0  0  0  0  0
  189.8500  173.9400  141.3590 C   0  0  1  0  0  3  0  0  0  0  0  0
  189.0890  172.0570  142.8620 C   0  0  0  0  0  2  0  0  0  0  0  0
  191.5970  174.8450  142.7130 C   0  0  0  0  0  0  0  0  0  0  0  0
  191.1890  173.1540  141.1430 C   0  0  1  0  0  3  0  0  0  0  0  0
  189.4400  175.9120  142.8930 C   0  0  0  0  0  3  0  0  0  0  0  0
  188.6600  173.0850  141.8250 C   0  0  0  0  0  2  0  0  0  0  0  0
  190.2150  174.9720  142.3680 C   0  0  0  0  0  0  0  0  0  0  0  0
  191.9590  170.9010  140.9420 O   0  0  0  0  0  0  0  0  0  0  0  0
  191.3840  176.6780  144.3570 C   0  0  0  0  0  0  0  0  0  0  0  0
  192.1920  173.7660  142.0170 N   0  0  0  0  0  2  0  0  0  0  0  0
  193.9840  174.5410  145.0430 C   0  0  0  0  0  0  0  0  0  0  0  0
  194.6140  176.0750  143.2700 C   0  0  0  0  0  3  0  0  0  0  0  0
  196.3210  175.0420  144.6380 C   0  0  0  0  0  3  0  0  0  0  0  0
  196.9190  176.5400  142.8860 F   0  0  0  0  0  0  0  0  0  0  0  0
  193.6140  175.4130  143.9970 C   0  0  0  0  0  0  0  0  0  0  0  0
  195.3350  174.3640  145.3570 C   0  0  0  0  0  3  0  0  0  0  0  0
  193.0040  173.7980  145.7630 N   0  0  0  0  0  1  0  0  0  0  0  0
  195.9610  175.8930  143.5920 C   0  0  0  0  0  0  0  0  0  0  0  0
  189.1230  177.7900  144.4900 C   0  0  0  0  0  2  0  0  0  0  0  0
  187.3390  177.3000  146.3080 C   0  0  1  0  0  3  0  0  0  0  0  0
  188.1260  176.0450  145.9600 C   0  0  0  0  0  2  0  0  0  0  0  0
  188.8300  177.3850  145.9360 C   0  0  1  0  0  3  0  0  0  0  0  0
  185.9420  179.7900  146.3120 F   0  0  0  0  0  0  0  0  0  0  0  0
  186.3830  177.7040  145.2110 C   0  0  0  0  0  0  0  0  0  0  0  0
  185.7120  178.9370  145.2840 C   0  0  0  0  0  0  0  0  0  0  0  0
  184.5410  178.4340  143.2230 C   0  0  0  0  0  3  0  0  0  0  0  0
  185.1930  177.2010  143.1510 C   0  0  0  0  0  3  0  0  0  0  0  0
  186.1040  176.8340  144.1440 C   0  0  0  0  0  3  0  0  0  0  0  0
  184.7980  179.2990  144.2890 C   0  0  0  0  0  3  0  0  0  0  0  0
  1 20  1  0  0  0  0
  1 14  1  0  0  0  0
  2 14  1  0  0  0  0
  2 24  1  0  0  0  0
  3  4  1  0  0  0  0
  4  7  1  0  0  0  0
  5 14  2  0  0  0  0
  6 11  1  1  0  0  0
  6 12  1  0  0  0  0
  8  1  2  0  0  0  0
  9  6  1  0  0  0  0
  9  3  1  1  0  0  0
  9 15  1  0  0  0  0
 10  2  1  0  0  0  0
 11  7  1  0  0  0  0
 12  8  1  0  0  0  0
 12 10  2  0  0  0  0
 13  3  2  0  0  0  0
 15  8  1  0  0  0  0
 16 21  1  0  0  0  0
 16 22  1  0  0  0  0
 17 23  2  0  0  0  0
 17 20  1  0  0  0  0
 18 21  2  0  0  0  0
 19 23  1  0  0  0  0
 20 16  2  0  0  0  0
 23 18  1  0  0  0  0
 25 29  1  6  0  0  0
 26 25  1  0  0  0  0
 27 24  1  6  0  0  0
 27 26  1  0  0  0  0
 27 25  1  0  0  0  0
 29 30  1  0  0  0  0
 30 28  1  0  0  0  0
 31 34  1  0  0  0  0
 32 31  2  0  0  0  0
 32 33  1  0  0  0  0
 33 29  2  0  0  0  0
 34 30  2  0  0  0  0
M  END
>  <MODEL>
3

>  <REMARK>
 VINA RESULT:      -8.0      1.681      2.581
  Name = 
  4 active torsions:
  status: ('A' for Active; 'I' for Inactive)
    1  A    between atoms: C_3  and  C_13
    2  A    between atoms: C_4  and  C_15
    3  A    between atoms: N_5  and  C_18
    4  A    between atoms: C_18  and  C_29
                            x       y       z     vdW  Elec       q    Type
                         _______ _______ _______ _____ _____    ______ ____

>  <TORSDO>
F 4

$$$$
=
 OpenBabel11052418513D

 34 39  0  0  1  0  0  0  0  0999 V2000
  192.1810  175.7400  143.4800 C   0  0  0  0  0  0  0  0  0  0  0  0
  189.9620  176.8510  143.8670 N   0  0  0  0  0  0  0  0  0  0  0  0
  191.0750  171.7060  141.4660 C   0  0  0  0  0  0  0  0  0  0  0  0
  190.1290  171.1660  142.3880 N   0  0  0  0  0  2  0  0  0  0  0  0
  191.9830  178.0280  144.1280 O   0  0  0  0  0  0  0  0  0  0  0  0
  189.7300  173.9120  141.4500 C   0  0  1  0  0  3  0  0  0  0  0  0
  189.1660  172.0340  143.0450 C   0  0  0  0  0  2  0  0  0  0  0  0
  191.5400  174.9130  142.6430 C   0  0  0  0  0  0  0  0  0  0  0  0
  191.0780  173.1740  141.1440 C   0  0  1  0  0  3  0  0  0  0  0  0
  189.3630  175.9000  142.9740 C   0  0  0  0  0  3  0  0  0  0  0  0
  188.6160  173.0210  142.0260 C   0  0  0  0  0  2  0  0  0  0  0  0
  190.1310  174.9790  142.4070 C   0  0  0  0  0  0  0  0  0  0  0  0
  191.9200  170.9490  140.9240 O   0  0  0  0  0  0  0  0  0  0  0  0
  191.3840  176.7730  144.2630 C   0  0  0  0  0  0  0  0  0  0  0  0
  192.1210  173.8430  141.9220 N   0  0  0  0  0  2  0  0  0  0  0  0
  194.6090  175.9500  142.8040 C   0  0  0  0  0  0  0  0  0  0  0  0
  194.0290  175.0980  145.0020 C   0  0  0  0  0  3  0  0  0  0  0  0
  196.3520  175.2900  144.3560 C   0  0  0  0  0  3  0  0  0  0  0  0
  195.7610  174.4690  146.5120 F   0  0  0  0  0  0  0  0  0  0  0  0
  193.6270  175.5880  143.7510 C   0  0  0  0  0  0  0  0  0  0  0  0
  195.9650  175.7960  143.1130 C   0  0  0  0  0  3  0  0  0  0  0  0
  194.2470  176.5140  141.5470 N   0  0  0  0  0  1  0  0  0  0  0  0
  195.3850  174.9460  145.3020 C   0  0  0  0  0  0  0  0  0  0  0  0
  189.0970  177.8000  144.5540 C   0  0  0  0  0  2  0  0  0  0  0  0
  187.3870  177.3020  146.4410 C   0  0  1  0  0  3  0  0  0  0  0  0
  188.1290  176.0410  146.0270 C   0  0  0  0  0  2  0  0  0  0  0  0
  188.8610  177.3660  146.0030 C   0  0  1  0  0  3  0  0  0  0  0  0
  185.9420  179.7560  146.6420 F   0  0  0  0  0  0  0  0  0  0  0  0
  186.3920  177.7540  145.3990 C   0  0  0  0  0  0  0  0  0  0  0  0
  185.6980  178.9640  145.5680 C   0  0  0  0  0  0  0  0  0  0  0  0
  184.4770  178.5660  143.5130 C   0  0  0  0  0  3  0  0  0  0  0  0
  185.1510  177.3550  143.3450 C   0  0  0  0  0  3  0  0  0  0  0  0
  186.0990  176.9470  144.2880 C   0  0  0  0  0  3  0  0  0  0  0  0
  184.7490  179.3680  144.6250 C   0  0  0  0  0  3  0  0  0  0  0  0
  1 20  1  0  0  0  0
  1 14  1  0  0  0  0
  2 14  1  0  0  0  0
  2 24  1  0  0  0  0
  3  4  1  0  0  0  0
  4  7  1  0  0  0  0
  5 14  2  0  0  0  0
  6 11  1  1  0  0  0
  6 12  1  0  0  0  0
  8  1  2  0  0  0  0
  9  6  1  0  0  0  0
  9  3  1  1  0  0  0
  9 15  1  0  0  0  0
 10  2  1  0  0  0  0
 11  7  1  0  0  0  0
 12  8  1  0  0  0  0
 12 10  2  0  0  0  0
 13  3  2  0  0  0  0
 15  8  1  0  0  0  0
 16 21  2  0  0  0  0
 16 20  1  0  0  0  0
 17 23  1  0  0  0  0
 18 23  2  0  0  0  0
 20 17  2  0  0  0  0
 21 18  1  0  0  0  0
 22 16  1  0  0  0  0
 23 19  1  0  0  0  0
 25 29  1  6  0  0  0
 26 25  1  0  0  0  0
 27 24  1  6  0  0  0
 27 26  1  0  0  0  0
 27 25  1  0  0  0  0
 29 30  1  0  0  0  0
 30 28  1  0  0  0  0
 31 34  1  0  0  0  0
 32 31  2  0  0  0  0
 32 33  1  0  0  0  0
 33 29  2  0  0  0  0
 34 30  2  0  0  0  0
M  END
>  <MODEL>
4

>  <REMARK>
 VINA RESULT:      -7.9      1.765      2.886
  Name = 
  4 active torsions:
  status: ('A' for Active; 'I' for Inactive)
    1  A    between atoms: C_3  and  C_13
    2  A    between atoms: C_4  and  C_15
    3  A    between atoms: N_5  and  C_18
    4  A    between atoms: C_18  and  C_29
                            x       y       z     vdW  Elec       q    Type
                         _______ _______ _______ _____ _____    ______ ____

>  <TORSDO>
F 4

$$$$
=
 OpenBabel11052418513D

 34 39  0  0  1  0  0  0  0  0999 V2000
  192.1130  175.7350  143.3020 C   0  0  0  0  0  0  0  0  0  0  0  0
  189.8490  176.7930  143.5450 N   0  0  0  0  0  0  0  0  0  0  0  0
  191.2000  171.5230  141.5760 C   0  0  0  0  0  0  0  0  0  0  0  0
  190.2470  171.0210  142.5130 N   0  0  0  0  0  2  0  0  0  0  0  0
  191.8210  178.0580  143.7660 O   0  0  0  0  0  0  0  0  0  0  0  0
  189.7830  173.6720  141.3570 C   0  0  1  0  0  3  0  0  0  0  0  0
  189.2370  171.9030  143.0760 C   0  0  0  0  0  2  0  0  0  0  0  0
  191.5240  174.8250  142.5150 C   0  0  0  0  0  0  0  0  0  0  0  0
  191.1630  172.9610  141.1420 C   0  0  1  0  0  3  0  0  0  0  0  0
  189.3070  175.7560  142.7120 C   0  0  0  0  0  3  0  0  0  0  0  0
  188.6830  172.7890  141.9700 C   0  0  0  0  0  2  0  0  0  0  0  0
  190.1210  174.8230  142.2380 C   0  0  0  0  0  0  0  0  0  0  0  0
  192.0850  170.7570  141.1170 O   0  0  0  0  0  0  0  0  0  0  0  0
  191.2600  176.7960  143.9820 C   0  0  0  0  0  0  0  0  0  0  0  0
  192.1610  173.7250  141.8940 N   0  0  0  0  0  2  0  0  0  0  0  0
  194.5510  176.0150  142.6860 C   0  0  0  0  0  0  0  0  0  0  0  0
  193.9380  175.2400  144.9040 C   0  0  0  0  0  3  0  0  0  0  0  0
  196.2700  175.4980  144.3170 C   0  0  0  0  0  3  0  0  0  0  0  0
  195.6480  174.7520  146.4910 F   0  0  0  0  0  0  0  0  0  0  0  0
  193.5560  175.6560  143.6210 C   0  0  0  0  0  0  0  0  0  0  0  0
  195.9010  175.9300  143.0410 C   0  0  0  0  0  3  0  0  0  0  0  0
  194.2050  176.5050  141.3940 N   0  0  0  0  0  1  0  0  0  0  0  0
  195.2890  175.1580  145.2490 C   0  0  0  0  0  0  0  0  0  0  0  0
  188.9330  177.7600  144.1350 C   0  0  0  0  0  2  0  0  0  0  0  0
  187.6090  176.3880  145.8930 C   0  0  1  0  0  3  0  0  0  0  0  0
  187.0240  177.7820  145.7330 C   0  0  0  0  0  2  0  0  0  0  0  0
  187.6140  177.0890  144.5230 C   0  0  1  0  0  3  0  0  0  0  0  0
  189.2230  174.0530  146.2050 F   0  0  0  0  0  0  0  0  0  0  0  0
  188.9330  176.3980  146.6200 C   0  0  0  0  0  0  0  0  0  0  0  0
  189.6690  175.2090  146.7560 C   0  0  0  0  0  0  0  0  0  0  0  0
  191.3540  176.3850  148.0410 C   0  0  0  0  0  3  0  0  0  0  0  0
  190.6210  177.5670  147.9230 C   0  0  0  0  0  3  0  0  0  0  0  0
  189.4120  177.5730  147.2220 C   0  0  0  0  0  3  0  0  0  0  0  0
  190.8760  175.2070  147.4610 C   0  0  0  0  0  3  0  0  0  0  0  0
  1 20  1  0  0  0  0
  1 14  1  0  0  0  0
  2 14  1  0  0  0  0
  2 24  1  0  0  0  0
  3  4  1  0  0  0  0
  4  7  1  0  0  0  0
  5 14  2  0  0  0  0
  6 11  1  1  0  0  0
  6 12  1  0  0  0  0
  8  1  2  0  0  0  0
  9  6  1  0  0  0  0
  9  3  1  1  0  0  0
  9 15  1  0  0  0  0
 10  2  1  0  0  0  0
 11  7  1  0  0  0  0
 12  8  1  0  0  0  0
 12 10  2  0  0  0  0
 13  3  2  0  0  0  0
 15  8  1  0  0  0  0
 16 21  2  0  0  0  0
 16 20  1  0  0  0  0
 17 23  1  0  0  0  0
 18 23  2  0  0  0  0
 20 17  2  0  0  0  0
 21 18  1  0  0  0  0
 22 16  1  0  0  0  0
 23 19  1  0  0  0  0
 25 29  1  1  0  0  0
 26 25  1  0  0  0  0
 27 24  1  1  0  0  0
 27 26  1  0  0  0  0
 27 25  1  0  0  0  0
 28 30  1  0  0  0  0
 29 30  2  0  0  0  0
 29 33  1  0  0  0  0
 30 34  1  0  0  0  0
 32 31  1  0  0  0  0
 33 32  2  0  0  0  0
 34 31  2  0  0  0  0
M  END
>  <MODEL>
5

>  <REMARK>
 VINA RESULT:      -7.8      1.832      2.963
  Name = 
  4 active torsions:
  status: ('A' for Active; 'I' for Inactive)
    1  A    between atoms: C_3  and  C_13
    2  A    between atoms: C_4  and  C_15
    3  A    between atoms: N_5  and  C_18
    4  A    between atoms: C_18  and  C_29
                            x       y       z     vdW  Elec       q    Type
                         _______ _______ _______ _____ _____    ______ ____

>  <TORSDO>
F 4

$$$$
=
 OpenBabel11052418513D

 34 39  0  0  1  0  0  0  0  0999 V2000
  189.8570  173.4040  142.6520 C   0  0  0  0  0  0  0  0  0  0  0  0
  188.0750  175.1310  143.0340 N   0  0  0  0  0  0  0  0  0  0  0  0
  193.3990  174.8510  145.2830 C   0  0  0  0  0  0  0  0  0  0  0  0
  193.5670  176.1960  144.8360 N   0  0  0  0  0  2  0  0  0  0  0  0
  187.6030  173.1090  141.9280 O   0  0  0  0  0  0  0  0  0  0  0  0
  190.8800  175.3220  145.6090 C   0  0  1  0  0  3  0  0  0  0  0  0
  192.4080  177.0130  144.5170 C   0  0  0  0  0  2  0  0  0  0  0  0
  190.4670  173.8970  143.7380 C   0  0  0  0  0  0  0  0  0  0  0  0
  192.0250  174.2640  145.4490 C   0  0  1  0  0  3  0  0  0  0  0  0
  188.8180  175.6050  144.1670 C   0  0  0  0  0  3  0  0  0  0  0  0
  191.3390  176.7900  145.5770 C   0  0  0  0  0  2  0  0  0  0  0  0
  189.9600  175.0080  144.4820 C   0  0  0  0  0  0  0  0  0  0  0  0
  194.4100  174.1460  145.5300 O   0  0  0  0  0  0  0  0  0  0  0  0
  188.5910  174.0740  142.1400 C   0  0  0  0  0  0  0  0  0  0  0  0
  191.6960  173.4490  144.2780 N   0  0  0  0  0  2  0  0  0  0  0  0
  191.2630  172.5360  140.7360 C   0  0  0  0  0  0  0  0  0  0  0  0
  190.2390  170.9810  142.2940 C   0  0  0  0  0  3  0  0  0  0  0  0
  191.5760  170.1480  140.4590 C   0  0  0  0  0  3  0  0  0  0  0  0
  190.5730  168.6400  142.0050 F   0  0  0  0  0  0  0  0  0  0  0  0
  190.4570  172.3000  141.8700 C   0  0  0  0  0  0  0  0  0  0  0  0
  191.8140  171.4570  140.0370 C   0  0  0  0  0  3  0  0  0  0  0  0
  191.5640  173.8620  140.3110 N   0  0  0  0  0  1  0  0  0  0  0  0
  190.7930  169.9100  141.5890 C   0  0  0  0  0  0  0  0  0  0  0  0
  186.8710  175.8500  142.6430 C   0  0  0  0  0  2  0  0  0  0  0  0
  186.6640  178.2530  141.6880 C   0  0  1  0  0  3  0  0  0  0  0  0
  188.1170  177.8930  141.9540 C   0  0  0  0  0  2  0  0  0  0  0  0
  187.1650  176.8120  141.4890 C   0  0  1  0  0  3  0  0  0  0  0  0
  183.8110  178.2100  141.7860 F   0  0  0  0  0  0  0  0  0  0  0  0
  185.8850  178.4890  142.9600 C   0  0  0  0  0  0  0  0  0  0  0  0
  184.4790  178.4740  142.9360 C   0  0  0  0  0  0  0  0  0  0  0  0
  184.4220  179.0080  145.2990 C   0  0  0  0  0  3  0  0  0  0  0  0
  185.8170  179.0390  145.3280 C   0  0  0  0  0  3  0  0  0  0  0  0
  186.5460  178.7880  144.1620 C   0  0  0  0  0  3  0  0  0  0  0  0
  183.7550  178.7280  144.1040 C   0  0  0  0  0  3  0  0  0  0  0  0
  1  8  2  0  0  0  0
  2 10  1  0  0  0  0
  3  9  1  0  0  0  0
  3 13  2  0  0  0  0
  4  3  1  0  0  0  0
  5 14  2  0  0  0  0
  6 11  1  6  0  0  0
  7  4  1  0  0  0  0
  7 11  1  0  0  0  0
  8 15  1  0  0  0  0
  8 12  1  0  0  0  0
  9 15  1  6  0  0  0
  9  6  1  0  0  0  0
 10 12  2  0  0  0  0
 12  6  1  0  0  0  0
 14  1  1  0  0  0  0
 14  2  1  0  0  0  0
 16 20  1  0  0  0  0
 18 23  2  0  0  0  0
 20 17  2  0  0  0  0
 20  1  1  0  0  0  0
 21 18  1  0  0  0  0
 21 16  2  0  0  0  0
 22 16  1  0  0  0  0
 23 19  1  0  0  0  0
 23 17  1  0  0  0  0
 24  2  1  0  0  0  0
 25 26  1  0  0  0  0
 25 29  1  1  0  0  0
 27 25  1  0  0  0  0
 27 26  1  0  0  0  0
 27 24  1  1  0  0  0
 28 30  1  0  0  0  0
 29 33  1  0  0  0  0
 30 29  2  0  0  0  0
 30 34  1  0  0  0  0
 31 32  1  0  0  0  0
 33 32  2  0  0  0  0
 34 31  2  0  0  0  0
M  END
>  <MODEL>
6

>  <REMARK>
 VINA RESULT:      -7.8      2.944      5.153
  Name = 
  4 active torsions:
  status: ('A' for Active; 'I' for Inactive)
    1  A    between atoms: C_3  and  C_13
    2  A    between atoms: C_4  and  C_15
    3  A    between atoms: N_5  and  C_18
    4  A    between atoms: C_18  and  C_29
                            x       y       z     vdW  Elec       q    Type
                         _______ _______ _______ _____ _____    ______ ____

>  <TORSDO>
F 4

$$$$
=
 OpenBabel11052418513D

 34 39  0  0  1  0  0  0  0  0999 V2000
  189.1430  176.4580  143.8270 C   0  0  0  0  0  0  0  0  0  0  0  0
  191.5890  176.3770  144.3940 N   0  0  0  0  0  0  0  0  0  0  0  0
  188.5800  172.9750  140.8090 C   0  0  0  0  0  0  0  0  0  0  0  0
  189.5760  173.2700  139.8290 N   0  0  0  0  0  2  0  0  0  0  0  0
  190.0890  177.7080  145.6260 O   0  0  0  0  0  0  0  0  0  0  0  0
  190.3820  173.2120  142.6440 C   0  0  1  0  0  3  0  0  0  0  0  0
  190.8720  173.7900  140.2340 C   0  0  0  0  0  2  0  0  0  0  0  0
  189.2940  175.2260  143.3210 C   0  0  0  0  0  0  0  0  0  0  0  0
  188.8610  173.1770  142.2710 C   0  0  1  0  0  3  0  0  0  0  0  0
  191.6520  175.0700  143.8030 C   0  0  0  0  0  3  0  0  0  0  0  0
  191.3480  173.0280  141.4620 C   0  0  0  0  0  2  0  0  0  0  0  0
  190.5490  174.5420  143.2900 C   0  0  0  0  0  0  0  0  0  0  0  0
  187.4540  172.5500  140.4440 O   0  0  0  0  0  0  0  0  0  0  0  0
  190.3620  177.2010  144.3520 C   0  0  0  0  0  0  0  0  0  0  0  0
  188.2820  174.4490  142.7090 N   0  0  0  0  0  2  0  0  0  0  0  0
  187.5070  178.0370  142.7180 C   0  0  0  0  0  0  0  0  0  0  0  0
  186.9000  176.9070  144.7800 C   0  0  0  0  0  3  0  0  0  0  0  0
  185.3360  178.4220  143.7270 C   0  0  0  0  0  3  0  0  0  0  0  0
  184.7560  177.2950  145.7430 F   0  0  0  0  0  0  0  0  0  0  0  0
  187.8410  177.1570  143.7700 C   0  0  0  0  0  0  0  0  0  0  0  0
  186.2570  178.6660  142.7070 C   0  0  0  0  0  3  0  0  0  0  0  0
  188.4060  178.2670  141.6380 N   0  0  0  0  0  1  0  0  0  0  0  0
  185.6550  177.5410  144.7610 C   0  0  0  0  0  0  0  0  0  0  0  0
  192.8220  176.9850  144.8720 C   0  0  0  0  0  2  0  0  0  0  0  0
  194.6830  175.6060  146.0390 C   0  0  1  0  0  3  0  0  0  0  0  0
  194.5500  176.9850  146.6660 C   0  0  0  0  0  2  0  0  0  0  0  0
  193.3090  176.2900  146.1460 C   0  0  1  0  0  3  0  0  0  0  0  0
  194.5130  173.4450  144.1810 F   0  0  0  0  0  0  0  0  0  0  0  0
  195.3160  175.6530  144.6690 C   0  0  0  0  0  0  0  0  0  0  0  0
  195.2120  174.5460  143.8090 C   0  0  0  0  0  0  0  0  0  0  0  0
  196.5570  175.6930  142.1520 C   0  0  0  0  0  3  0  0  0  0  0  0
  196.6780  176.7900  143.0060 C   0  0  0  0  0  3  0  0  0  0  0  0
  196.0660  176.7680  144.2620 C   0  0  0  0  0  3  0  0  0  0  0  0
  195.8280  174.5720  142.5540 C   0  0  0  0  0  3  0  0  0  0  0  0
  1 14  1  0  0  0  0
  2 24  1  0  0  0  0
  4  7  1  0  0  0  0
  4  3  1  0  0  0  0
  6 11  1  6  0  0  0
  6 12  1  0  0  0  0
  7 11  1  0  0  0  0
  8  1  2  0  0  0  0
  9  3  1  6  0  0  0
  9  6  1  0  0  0  0
  9 15  1  0  0  0  0
 10  2  1  0  0  0  0
 12  8  1  0  0  0  0
 12 10  2  0  0  0  0
 13  3  2  0  0  0  0
 14  2  1  0  0  0  0
 14  5  2  0  0  0  0
 15  8  1  0  0  0  0
 16 20  1  0  0  0  0
 18 23  2  0  0  0  0
 20  1  1  0  0  0  0
 20 17  2  0  0  0  0
 21 16  2  0  0  0  0
 21 18  1  0  0  0  0
 22 16  1  0  0  0  0
 23 17  1  0  0  0  0
 23 19  1  0  0  0  0
 25 29  1  6  0  0  0
 25 27  1  0  0  0  0
 25 26  1  0  0  0  0
 27 24  1  6  0  0  0
 27 26  1  0  0  0  0
 30 28  1  0  0  0  0
 30 29  2  0  0  0  0
 31 34  2  0  0  0  0
 31 32  1  0  0  0  0
 32 33  2  0  0  0  0
 33 29  1  0  0  0  0
 34 30  1  0  0  0  0
M  END
>  <MODEL>
7

>  <REMARK>
 VINA RESULT:      -7.8      2.142      6.982
  Name = 
  4 active torsions:
  status: ('A' for Active; 'I' for Inactive)
    1  A    between atoms: C_3  and  C_13
    2  A    between atoms: C_4  and  C_15
    3  A    between atoms: N_5  and  C_18
    4  A    between atoms: C_18  and  C_29
                            x       y       z     vdW  Elec       q    Type
                         _______ _______ _______ _____ _____    ______ ____

>  <TORSDO>
F 4

$$$$
=
 OpenBabel11052418513D

 34 39  0  0  1  0  0  0  0  0999 V2000
  187.7980  176.4800  143.3740 C   0  0  0  0  0  0  0  0  0  0  0  0
  189.7110  176.3590  144.9960 N   0  0  0  0  0  0  0  0  0  0  0  0
  188.6540  173.0380  140.3770 C   0  0  0  0  0  0  0  0  0  0  0  0
  189.9900  173.3310  139.9670 N   0  0  0  0  0  2  0  0  0  0  0  0
  187.8240  177.6960  145.4260 O   0  0  0  0  0  0  0  0  0  0  0  0
  189.4170  173.2300  142.8370 C   0  0  1  0  0  3  0  0  0  0  0  0
  190.9600  173.8280  140.9280 C   0  0  0  0  0  2  0  0  0  0  0  0
  188.1540  175.2520  142.9730 C   0  0  0  0  0  0  0  0  0  0  0  0
  188.2350  173.2210  141.8090 C   0  0  1  0  0  3  0  0  0  0  0  0
  190.0290  175.0580  144.4790 C   0  0  0  0  0  3  0  0  0  0  0  0
  190.8160  173.0460  142.2250 C   0  0  0  0  0  2  0  0  0  0  0  0
  189.2790  174.5510  143.5090 C   0  0  0  0  0  0  0  0  0  0  0  0
  187.8170  172.6340  139.5310 O   0  0  0  0  0  0  0  0  0  0  0  0
  188.6460  177.2010  144.4110 C   0  0  0  0  0  0  0  0  0  0  0  0
  187.5290  174.4950  141.9540 N   0  0  0  0  0  2  0  0  0  0  0  0
  186.7160  177.6250  141.3940 C   0  0  0  0  0  0  0  0  0  0  0  0
  185.5110  177.4280  143.4930 C   0  0  0  0  0  3  0  0  0  0  0  0
  184.4760  178.5300  141.6040 C   0  0  0  0  0  3  0  0  0  0  0  0
  183.3060  178.3160  143.6680 F   0  0  0  0  0  0  0  0  0  0  0  0
  186.6700  177.1970  142.7390 C   0  0  0  0  0  0  0  0  0  0  0  0
  185.6190  178.2910  140.8380 C   0  0  0  0  0  3  0  0  0  0  0  0
  187.8480  177.3520  140.5730 N   0  0  0  0  0  1  0  0  0  0  0  0
  184.4200  178.0950  142.9290 C   0  0  0  0  0  0  0  0  0  0  0  0
  190.5940  176.9450  145.9950 C   0  0  0  0  0  2  0  0  0  0  0  0
  191.9510  175.4210  147.5970 C   0  0  1  0  0  3  0  0  0  0  0  0
  191.5420  176.7140  148.2860 C   0  0  0  0  0  2  0  0  0  0  0  0
  190.6070  176.0950  147.2680 C   0  0  1  0  0  3  0  0  0  0  0  0
  192.6370  173.4590  145.6400 F   0  0  0  0  0  0  0  0  0  0  0  0
  193.0390  175.6330  146.5720 C   0  0  0  0  0  0  0  0  0  0  0  0
  193.3410  174.6180  145.6480 C   0  0  0  0  0  0  0  0  0  0  0  0
  195.1160  175.9790  144.7150 C   0  0  0  0  0  3  0  0  0  0  0  0
  194.8310  176.9870  145.6400 C   0  0  0  0  0  3  0  0  0  0  0  0
  193.8030  176.8120  146.5690 C   0  0  0  0  0  3  0  0  0  0  0  0
  194.3730  174.7960  144.7220 C   0  0  0  0  0  3  0  0  0  0  0  0
  1 14  1  0  0  0  0
  2 24  1  0  0  0  0
  4  3  1  0  0  0  0
  4  7  1  0  0  0  0
  6 11  1  6  0  0  0
  6 12  1  0  0  0  0
  7 11  1  0  0  0  0
  8  1  2  0  0  0  0
  8 12  1  0  0  0  0
  9  3  1  6  0  0  0
  9 15  1  0  0  0  0
  9  6  1  0  0  0  0
 10  2  1  0  0  0  0
 12 10  2  0  0  0  0
 13  3  2  0  0  0  0
 14  2  1  0  0  0  0
 14  5  2  0  0  0  0
 15  8  1  0  0  0  0
 16 20  1  0  0  0  0
 18 23  2  0  0  0  0
 20  1  1  0  0  0  0
 20 17  2  0  0  0  0
 21 16  2  0  0  0  0
 21 18  1  0  0  0  0
 22 16  1  0  0  0  0
 23 17  1  0  0  0  0
 23 19  1  0  0  0  0
 25 29  1  6  0  0  0
 25 26  1  0  0  0  0
 27 24  1  6  0  0  0
 27 25  1  0  0  0  0
 27 26  1  0  0  0  0
 28 30  1  0  0  0  0
 30 29  2  0  0  0  0
 31 34  2  0  0  0  0
 31 32  1  0  0  0  0
 32 33  2  0  0  0  0
 33 29  1  0  0  0  0
 34 30  1  0  0  0  0
M  END
>  <MODEL>
8

>  <REMARK>
 VINA RESULT:      -7.7      2.431      6.581
  Name = 
  4 active torsions:
  status: ('A' for Active; 'I' for Inactive)
    1  A    between atoms: C_3  and  C_13
    2  A    between atoms: C_4  and  C_15
    3  A    between atoms: N_5  and  C_18
    4  A    between atoms: C_18  and  C_29
                            x       y       z     vdW  Elec       q    Type
                         _______ _______ _______ _____ _____    ______ ____

>  <TORSDO>
F 4

$$$$
=
 OpenBabel11052418513D

 34 39  0  0  1  0  0  0  0  0999 V2000
  190.4980  176.1760  144.0100 C   0  0  0  0  0  0  0  0  0  0  0  0
  188.5440  177.3000  142.9030 N   0  0  0  0  0  0  0  0  0  0  0  0
  190.6500  171.9830  142.0210 C   0  0  0  0  0  0  0  0  0  0  0  0
  189.3170  171.5140  142.2220 N   0  0  0  0  0  2  0  0  0  0  0  0
  190.0510  178.5080  144.2460 O   0  0  0  0  0  0  0  0  0  0  0  0
  189.6830  174.1710  141.0460 C   0  0  1  0  0  3  0  0  0  0  0  0
  188.1920  172.4270  142.1030 C   0  0  0  0  0  2  0  0  0  0  0  0
  190.4530  175.2800  143.0150 C   0  0  0  0  0  0  0  0  0  0  0  0
  190.9100  173.4200  141.6660 C   0  0  1  0  0  3  0  0  0  0  0  0
  188.5610  176.2750  141.8980 C   0  0  0  0  0  3  0  0  0  0  0  0
  188.4090  173.3230  140.8930 C   0  0  0  0  0  2  0  0  0  0  0  0
  189.4740  175.3160  141.9740 C   0  0  0  0  0  0  0  0  0  0  0  0
  191.6160  171.1900  142.1530 O   0  0  0  0  0  0  0  0  0  0  0  0
  189.4370  177.2640  144.0800 C   0  0  0  0  0  0  0  0  0  0  0  0
  191.3040  174.1580  142.8670 N   0  0  0  0  0  2  0  0  0  0  0  0
  192.8270  176.4600  144.9560 C   0  0  0  0  0  0  0  0  0  0  0  0
  191.0520  175.5560  146.3450 C   0  0  0  0  0  3  0  0  0  0  0  0
  193.2800  175.8190  147.2500 C   0  0  0  0  0  3  0  0  0  0  0  0
  191.5220  174.9460  148.5990 F   0  0  0  0  0  0  0  0  0  0  0  0
  191.4830  176.0570  145.1080 C   0  0  0  0  0  0  0  0  0  0  0  0
  193.7160  176.3350  146.0280 C   0  0  0  0  0  3  0  0  0  0  0  0
  193.2900  177.0360  143.7380 N   0  0  0  0  0  1  0  0  0  0  0  0
  191.9480  175.4340  147.4100 C   0  0  0  0  0  0  0  0  0  0  0  0
  187.4820  178.2960  142.8620 C   0  0  0  0  0  2  0  0  0  0  0  0
  185.1050  177.3610  143.3160 C   0  0  1  0  0  3  0  0  0  0  0  0
  185.0420  178.6460  142.5060 C   0  0  0  0  0  2  0  0  0  0  0  0
  186.1980  177.6940  142.2850 C   0  0  1  0  0  3  0  0  0  0  0  0
  184.5610  179.8140  144.6710 F   0  0  0  0  0  0  0  0  0  0  0  0
  185.4900  177.6040  144.7560 C   0  0  0  0  0  0  0  0  0  0  0  0
  185.2110  178.8430  145.3580 C   0  0  0  0  0  0  0  0  0  0  0  0
  186.2740  178.1010  147.4050 C   0  0  0  0  0  3  0  0  0  0  0  0
  186.5680  176.8730  146.8100 C   0  0  0  0  0  3  0  0  0  0  0  0
  186.1850  176.6280  145.4890 C   0  0  0  0  0  3  0  0  0  0  0  0
  185.5990  179.0850  146.6790 C   0  0  0  0  0  3  0  0  0  0  0  0
  1 14  1  0  0  0  0
  1 20  1  0  0  0  0
  2 14  1  0  0  0  0
  3 13  2  0  0  0  0
  3  4  1  0  0  0  0
  6 11  1  1  0  0  0
  6  9  1  0  0  0  0
  6 12  1  0  0  0  0
  7  4  1  0  0  0  0
  8  1  2  0  0  0  0
  9  3  1  1  0  0  0
  9 15  1  0  0  0  0
 10 12  2  0  0  0  0
 10  2  1  0  0  0  0
 11  7  1  0  0  0  0
 12  8  1  0  0  0  0
 14  5  2  0  0  0  0
 15  8  1  0  0  0  0
 16 20  2  0  0  0  0
 16 21  1  0  0  0  0
 17 23  2  0  0  0  0
 18 23  1  0  0  0  0
 20 17  1  0  0  0  0
 21 18  2  0  0  0  0
 22 16  1  0  0  0  0
 23 19  1  0  0  0  0
 24  2  1  0  0  0  0
 25 29  1  1  0  0  0
 26 25  1  0  0  0  0
 27 26  1  0  0  0  0
 27 24  1  1  0  0  0
 27 25  1  0  0  0  0
 28 30  1  0  0  0  0
 29 30  2  0  0  0  0
 29 33  1  0  0  0  0
 30 34  1  0  0  0  0
 32 31  1  0  0  0  0
 33 32  2  0  0  0  0
 34 31  2  0  0  0  0
M  END
>  <MODEL>
9

>  <REMARK>
 VINA RESULT:      -7.6      1.529      1.968
  Name = 
  4 active torsions:
  status: ('A' for Active; 'I' for Inactive)
    1  A    between atoms: C_3  and  C_13
    2  A    between atoms: C_4  and  C_15
    3  A    between atoms: N_5  and  C_18
    4  A    between atoms: C_18  and  C_29
                            x       y       z     vdW  Elec       q    Type
                         _______ _______ _______ _____ _____    ______ ____

>  <TORSDO>
F 4

$$$$
