=
 OpenBabel11052420183D

 34 38  0  0  1  0  0  0  0  0999 V2000
  189.6690  175.5090  145.3760 C   0  0  1  0  0  3  0  0  0  0  0  0
  189.7980  172.2970  143.0920 C   0  0  0  0  0  2  0  0  0  0  0  0
  188.5990  173.5030  140.3380 C   0  0  0  0  0  0  0  0  0  0  0  0
  191.5680  173.3910  144.4800 C   0  0  0  0  0  2  0  0  0  0  0  0
  191.3080  174.8850  148.4090 F   0  0  0  0  0  0  0  0  0  0  0  0
  191.5140  175.4390  147.1600 C   0  0  2  0  0  0  0  0  0  0  0  0
  189.2090  172.3840  139.7820 O   0  0  0  0  0  1  0  0  0  0  0  0
  191.4010  176.9630  147.1990 C   0  0  0  0  0  1  0  0  0  0  0  0
  191.7790  174.6520  145.2600 C   0  0  1  0  0  3  0  0  0  0  0  0
  190.6670  174.7900  146.1590 N   0  0  2  0  0  0  0  0  0  0  0  0
  193.1200  174.9040  146.4540 S   0  0  0  0  0  0  0  0  0  0  0  0
  188.3710  172.3140  142.5430 C   0  0  0  0  0  2  0  0  0  0  0  0
  188.4460  174.5360  139.6340 O   0  0  0  0  0  0  0  0  0  0  0  0
  188.1440  173.4780  141.6970 N   0  0  0  0  0  0  0  0  0  0  0  0
  187.5420  174.6530  142.3120 C   0  0  0  0  0  2  0  0  0  0  0  0
  190.3180  173.6470  143.6050 C   0  0  2  0  0  3  0  0  0  0  0  0
  188.5780  175.4250  143.1200 C   0  0  0  0  0  2  0  0  0  0  0  0
  189.1980  174.5710  144.2250 C   0  0  2  0  0  3  0  0  0  0  0  0
  188.0930  177.1630  146.3350 C   0  0  0  0  0  3  0  0  0  0  0  0
  188.4960  175.8950  146.2330 C   0  0  0  0  0  3  0  0  0  0  0  0
  186.9530  177.5240  147.2350 C   0  0  1  0  0  3  0  0  0  0  0  0
  185.9370  178.4840  146.6040 C   0  0  2  0  0  3  0  0  0  0  0  0
  185.6610  176.9950  146.6470 C   0  0  0  0  0  2  0  0  0  0  0  0
  186.3000  178.8800  145.2480 N   0  0  0  0  0  2  0  0  0  0  0  0
  187.5660  178.3890  142.5310 C   0  0  0  0  0  1  0  0  0  0  0  0
  183.8670  178.2860  141.8050 C   0  0  0  0  0  0  0  0  0  0  0  0
  185.2610  178.2600  141.6700 C   0  0  0  0  0  3  0  0  0  0  0  0
  186.0980  178.4490  142.7730 C   0  0  0  0  0  0  0  0  0  0  0  0
  184.1380  178.6940  144.1810 C   0  0  0  0  0  3  0  0  0  0  0  0
  185.5300  178.6730  144.0540 C   0  0  0  0  0  0  0  0  0  0  0  0
  183.3120  178.5040  143.0720 C   0  0  0  0  0  3  0  0  0  0  0  0
  183.0290  178.0900  140.6560 N   0  0  0  0  0  0  0  0  0  0  0  0
  181.6320  178.5010  140.6560 C   0  0  0  0  0  1  0  0  0  0  0  0
  183.5300  177.5110  139.5390 O   0  0  0  0  0  1  0  0  0  0  0  0
  1 10  1  0  0  0  0
  1 20  1  1  0  0  0
  2 16  1  0  0  0  0
  3 14  1  0  0  0  0
  6  8  1  1  0  0  0
  6  5  1  0  0  0  0
  7  3  1  0  0  0  0
  9  4  1  1  0  0  0
  9 10  1  0  0  0  0
  9 11  1  0  0  0  0
 10  6  1  0  0  0  0
 11  6  1  0  0  0  0
 12  2  1  0  0  0  0
 13  3  2  0  0  0  0
 14 15  1  0  0  0  0
 14 12  1  0  0  0  0
 15 17  1  0  0  0  0
 16 18  1  0  0  0  0
 16  4  1  0  0  0  0
 17 18  1  0  0  0  0
 18  1  1  0  0  0  0
 19 21  1  0  0  0  0
 20 19  2  0  0  0  0
 22 23  1  0  0  0  0
 22 21  1  0  0  0  0
 23 21  1  0  0  0  0
 24 22  1  0  0  0  0
 25 28  1  0  0  0  0
 26 31  1  0  0  0  0
 27 26  2  0  0  0  0
 27 28  1  0  0  0  0
 28 30  2  0  0  0  0
 30 29  1  0  0  0  0
 30 24  1  0  0  0  0
 31 29  2  0  0  0  0
 32 26  1  0  0  0  0
 33 32  1  0  0  0  0
 34 32  1  0  0  0  0
M  END
>  <MODEL>
1

>  <REMARK>
 VINA RESULT:      -8.5      0.000      0.000
  Name = 
  5 active torsions:
  status: ('A' for Active; 'I' for Inactive)
    1  A    between atoms: C_1  and  C_9
    2  A    between atoms: N_6  and  C_28
    3  A    between atoms: N_6  and  C_30
    4  A    between atoms: C_7  and  N_11
    5  A    between atoms: C_8  and  C_18
                            x       y       z     vdW  Elec       q    Type
                         _______ _______ _______ _____ _____    ______ ____

>  <TORSDO>
F 5

$$$$
=
 OpenBabel11052420183D

 34 38  0  0  1  0  0  0  0  0999 V2000
  191.5570  173.7710  144.1950 C   0  0  1  0  0  3  0  0  0  0  0  0
  194.5100  175.9460  142.7490 C   0  0  0  0  0  2  0  0  0  0  0  0
  196.9920  174.7420  144.4420 C   0  0  0  0  0  0  0  0  0  0  0  0
  192.7690  174.5730  141.5910 C   0  0  0  0  0  2  0  0  0  0  0  0
  188.6330  174.3490  142.3530 F   0  0  0  0  0  0  0  0  0  0  0  0
  189.6980  173.4730  142.4490 C   0  0  2  0  0  0  0  0  0  0  0  0
  197.7440  175.3150  143.4230 O   0  0  0  0  0  0  0  0  0  0  0  0
  189.3120  172.2080  143.2150 C   0  0  0  0  0  1  0  0  0  0  0  0
  191.7020  173.5780  141.9280 C   0  0  1  0  0  3  0  0  0  0  0  0
  190.8860  174.1560  142.9600 N   0  0  2  0  0  0  0  0  0  0  0  0
  190.3800  173.0730  140.7940 S   0  0  0  0  0  0  0  0  0  0  0  0
  195.1510  176.4120  144.0570 C   0  0  0  0  0  2  0  0  0  0  0  0
  197.4450  173.7380  145.0530 O   0  0  0  0  0  1  0  0  0  0  0  0
  195.7170  175.2920  144.7960 N   0  0  0  0  0  0  0  0  0  0  0  0
  194.8940  174.6820  145.8310 C   0  0  0  0  0  2  0  0  0  0  0  0
  193.6560  174.6750  142.8550 C   0  0  2  0  0  3  0  0  0  0  0  0
  193.8490  173.7620  145.2110 C   0  0  0  0  0  2  0  0  0  0  0  0
  192.9280  174.5080  144.2460 C   0  0  2  0  0  3  0  0  0  0  0  0
  190.8440  175.3470  145.9690 C   0  0  0  0  0  3  0  0  0  0  0  0
  190.7280  174.1510  145.3910 C   0  0  0  0  0  3  0  0  0  0  0  0
  190.0420  175.6790  147.1880 C   0  0  1  0  0  3  0  0  0  0  0  0
  189.1330  176.9040  147.0270 C   0  0  2  0  0  3  0  0  0  0  0  0
  188.5680  175.5060  146.8840 C   0  0  0  0  0  2  0  0  0  0  0  0
  189.2520  177.5250  145.7120 N   0  0  0  0  0  2  0  0  0  0  0  0
  189.7660  177.4670  142.7190 C   0  0  0  0  0  1  0  0  0  0  0  0
  186.0440  178.0230  142.9580 C   0  0  0  0  0  0  0  0  0  0  0  0
  187.3430  177.8400  142.4680 C   0  0  0  0  0  3  0  0  0  0  0  0
  188.4260  177.6710  143.3360 C   0  0  0  0  0  0  0  0  0  0  0  0
  186.9100  177.8670  145.2190 C   0  0  0  0  0  3  0  0  0  0  0  0
  188.2090  177.6870  144.7380 C   0  0  0  0  0  0  0  0  0  0  0  0
  185.8360  178.0340  144.3430 C   0  0  0  0  0  3  0  0  0  0  0  0
  184.9480  178.1950  142.0460 N   0  0  0  0  0  0  0  0  0  0  0  0
  185.1620  178.2870  140.6090 C   0  0  0  0  0  1  0  0  0  0  0  0
  183.6800  178.2760  142.5140 O   0  0  0  0  0  1  0  0  0  0  0  0
  1 18  1  0  0  0  0
  1 20  1  1  0  0  0
  2 16  1  0  0  0  0
  2 12  1  0  0  0  0
  3 14  1  0  0  0  0
  3 13  1  0  0  0  0
  4 16  1  0  0  0  0
  5  6  1  0  0  0  0
  6 10  1  0  0  0  0
  6  8  1  1  0  0  0
  7  3  2  0  0  0  0
  9  4  1  6  0  0  0
  9 10  1  0  0  0  0
 10  1  1  0  0  0  0
 11  9  1  0  0  0  0
 11  6  1  0  0  0  0
 12 14  1  0  0  0  0
 14 15  1  0  0  0  0
 16 18  1  0  0  0  0
 17 15  1  0  0  0  0
 18 17  1  0  0  0  0
 19 21  1  0  0  0  0
 20 19  2  0  0  0  0
 22 21  1  0  0  0  0
 23 22  1  0  0  0  0
 23 21  1  0  0  0  0
 24 22  1  0  0  0  0
 25 28  1  0  0  0  0
 26 31  1  0  0  0  0
 27 26  2  0  0  0  0
 27 28  1  0  0  0  0
 28 30  2  0  0  0  0
 30 29  1  0  0  0  0
 30 24  1  0  0  0  0
 31 29  2  0  0  0  0
 32 34  1  0  0  0  0
 32 26  1  0  0  0  0
 33 32  1  0  0  0  0
M  END
>  <MODEL>
2

>  <REMARK>
 VINA RESULT:      -8.3      3.709      5.255
  Name = 
  5 active torsions:
  status: ('A' for Active; 'I' for Inactive)
    1  A    between atoms: C_1  and  C_9
    2  A    between atoms: N_6  and  C_28
    3  A    between atoms: N_6  and  C_30
    4  A    between atoms: C_7  and  N_11
    5  A    between atoms: C_8  and  C_18
                            x       y       z     vdW  Elec       q    Type
                         _______ _______ _______ _____ _____    ______ ____

>  <TORSDO>
F 5

$$$$
=
 OpenBabel11052420183D

 34 38  0  0  1  0  0  0  0  0999 V2000
  191.6140  175.3960  144.8610 C   0  0  1  0  0  3  0  0  0  0  0  0
  195.5170  175.0320  145.2760 C   0  0  0  0  0  2  0  0  0  0  0  0
  196.5100  176.2400  142.4410 C   0  0  0  0  0  0  0  0  0  0  0  0
  193.8060  176.0920  146.7590 C   0  0  0  0  0  2  0  0  0  0  0  0
  190.0150  174.6420  147.8860 F   0  0  0  0  0  0  0  0  0  0  0  0
  190.4760  175.7110  147.1410 C   0  0  2  0  0  0  0  0  0  0  0  0
  197.7170  176.3800  143.1170 O   0  0  0  0  0  1  0  0  0  0  0  0
  189.3400  176.3870  146.3730 C   0  0  0  0  0  1  0  0  0  0  0  0
  192.3580  176.4750  146.7270 C   0  0  1  0  0  3  0  0  0  0  0  0
  191.6170  175.3140  146.3160 N   0  0  2  0  0  0  0  0  0  0  0  0
  191.3820  176.9100  148.1910 S   0  0  0  0  0  0  0  0  0  0  0  0
  195.8530  174.3400  143.9530 C   0  0  0  0  0  2  0  0  0  0  0  0
  196.2410  177.0240  141.4920 O   0  0  0  0  0  0  0  0  0  0  0  0
  195.5860  175.2130  142.8180 N   0  0  0  0  0  0  0  0  0  0  0  0
  194.2970  175.0770  142.1520 C   0  0  0  0  0  2  0  0  0  0  0  0
  194.1950  175.8120  145.2890 C   0  0  2  0  0  3  0  0  0  0  0  0
  193.2030  175.7660  142.9570 C   0  0  0  0  0  2  0  0  0  0  0  0
  193.0760  175.1880  144.3660 C   0  0  2  0  0  3  0  0  0  0  0  0
  190.5140  174.2570  142.9560 C   0  0  0  0  0  3  0  0  0  0  0  0
  190.7200  174.3410  144.2710 C   0  0  0  0  0  3  0  0  0  0  0  0
  189.5800  173.2270  142.4010 C   0  0  1  0  0  3  0  0  0  0  0  0
  188.4350  173.8070  141.5600 C   0  0  2  0  0  3  0  0  0  0  0  0
  189.6660  173.2320  140.8890 C   0  0  0  0  0  2  0  0  0  0  0  0
  188.4700  175.2640  141.4880 N   0  0  0  0  0  2  0  0  0  0  0  0
  189.7470  177.7990  142.5660 C   0  0  0  0  0  1  0  0  0  0  0  0
  186.2630  177.8920  144.0080 C   0  0  0  0  0  0  0  0  0  0  0  0
  187.5900  178.2060  143.6870 C   0  0  0  0  0  3  0  0  0  0  0  0
  188.3510  177.3720  142.8620 C   0  0  0  0  0  0  0  0  0  0  0  0
  186.4490  175.8810  142.6630 C   0  0  0  0  0  3  0  0  0  0  0  0
  187.7740  176.1860  142.3400 C   0  0  0  0  0  0  0  0  0  0  0  0
  185.6980  176.7210  143.4870 C   0  0  0  0  0  3  0  0  0  0  0  0
  185.5020  178.7640  144.8570 N   0  0  0  0  0  0  0  0  0  0  0  0
  184.6350  178.2400  145.9020 C   0  0  0  0  0  1  0  0  0  0  0  0
  185.5800  180.1060  144.6980 O   0  0  0  0  0  1  0  0  0  0  0  0
  1 20  1  6  0  0  0
  1 10  1  0  0  0  0
  2 16  1  0  0  0  0
  3 14  1  0  0  0  0
  3  7  1  0  0  0  0
  6  8  1  6  0  0  0
  6  5  1  0  0  0  0
  6 11  1  0  0  0  0
  9  4  1  1  0  0  0
  9 11  1  0  0  0  0
 10  9  1  0  0  0  0
 10  6  1  0  0  0  0
 12  2  1  0  0  0  0
 13  3  2  0  0  0  0
 14 12  1  0  0  0  0
 15 14  1  0  0  0  0
 15 17  1  0  0  0  0
 16  4  1  0  0  0  0
 17 18  1  0  0  0  0
 18  1  1  0  0  0  0
 18 16  1  0  0  0  0
 19 20  2  0  0  0  0
 21 19  1  0  0  0  0
 22 21  1  0  0  0  0
 23 22  1  0  0  0  0
 23 21  1  0  0  0  0
 24 22  1  0  0  0  0
 24 30  1  0  0  0  0
 25 28  1  0  0  0  0
 26 32  1  0  0  0  0
 27 26  1  0  0  0  0
 28 27  2  0  0  0  0
 29 31  1  0  0  0  0
 30 29  2  0  0  0  0
 30 28  1  0  0  0  0
 31 26  2  0  0  0  0
 32 33  1  0  0  0  0
 34 32  1  0  0  0  0
M  END
>  <MODEL>
3

>  <REMARK>
 VINA RESULT:      -8.2      3.415      5.332
  Name = 
  5 active torsions:
  status: ('A' for Active; 'I' for Inactive)
    1  A    between atoms: C_1  and  C_9
    2  A    between atoms: N_6  and  C_28
    3  A    between atoms: N_6  and  C_30
    4  A    between atoms: C_7  and  N_11
    5  A    between atoms: C_8  and  C_18
                            x       y       z     vdW  Elec       q    Type
                         _______ _______ _______ _____ _____    ______ ____

>  <TORSDO>
F 5

$$$$
=
 OpenBabel11052420183D

 34 38  0  0  1  0  0  0  0  0999 V2000
  192.3740  173.8750  144.0660 C   0  0  1  0  0  3  0  0  0  0  0  0
  194.1710  175.5230  140.9670 C   0  0  0  0  0  2  0  0  0  0  0  0
  197.1930  174.4590  141.4240 C   0  0  0  0  0  0  0  0  0  0  0  0
  192.1190  174.0990  141.1030 C   0  0  0  0  0  2  0  0  0  0  0  0
  188.9090  174.3310  143.8200 F   0  0  0  0  0  0  0  0  0  0  0  0
  189.9030  173.4090  143.5510 C   0  0  2  0  0  0  0  0  0  0  0  0
  197.3280  174.7800  140.0780 O   0  0  0  0  0  0  0  0  0  0  0  0
  189.9770  172.3360  144.6370 C   0  0  0  0  0  1  0  0  0  0  0  0
  191.3830  173.2650  142.1060 C   0  0  1  0  0  3  0  0  0  0  0  0
  191.1710  174.0810  143.2690 N   0  0  2  0  0  0  0  0  0  0  0  0
  189.6850  172.6660  141.8880 S   0  0  0  0  0  0  0  0  0  0  0  0
  195.3640  176.1680  141.6740 C   0  0  0  0  0  2  0  0  0  0  0  0
  197.9140  173.5510  141.9170 O   0  0  0  0  0  1  0  0  0  0  0  0
  196.2480  175.1600  142.2430 N   0  0  0  0  0  0  0  0  0  0  0  0
  196.0610  174.8100  143.6440 C   0  0  0  0  0  2  0  0  0  0  0  0
  193.5120  174.3610  141.7230 C   0  0  2  0  0  3  0  0  0  0  0  0
  194.8680  173.8760  143.8080 C   0  0  0  0  0  2  0  0  0  0  0  0
  193.5730  174.5030  143.2940 C   0  0  2  0  0  3  0  0  0  0  0  0
  191.8530  175.7970  145.5400 C   0  0  0  0  0  3  0  0  0  0  0  0
  192.2380  174.5270  145.4140 C   0  0  0  0  0  3  0  0  0  0  0  0
  191.7740  176.4330  146.8930 C   0  0  1  0  0  3  0  0  0  0  0  0
  190.3540  176.5040  147.4700 C   0  0  2  0  0  3  0  0  0  0  0  0
  191.3060  175.4070  147.9040 C   0  0  0  0  0  2  0  0  0  0  0  0
  189.3490  175.9550  146.5660 N   0  0  0  0  0  2  0  0  0  0  0  0
  189.3370  177.7440  144.1120 C   0  0  0  0  0  1  0  0  0  0  0  0
  185.7530  177.8400  145.2850 C   0  0  0  0  0  0  0  0  0  0  0  0
  186.9350  178.0600  144.5650 C   0  0  0  0  0  3  0  0  0  0  0  0
  188.1380  177.4610  144.9500 C   0  0  0  0  0  0  0  0  0  0  0  0
  186.9840  176.3980  146.7990 C   0  0  0  0  0  3  0  0  0  0  0  0
  188.1670  176.6160  146.0880 C   0  0  0  0  0  0  0  0  0  0  0  0
  185.7880  177.0010  146.4060 C   0  0  0  0  0  3  0  0  0  0  0  0
  184.5300  178.4670  144.8700 N   0  0  0  0  0  0  0  0  0  0  0  0
  184.1280  178.4980  143.4720 C   0  0  0  0  0  1  0  0  0  0  0  0
  183.7210  179.0500  145.7860 O   0  0  0  0  0  1  0  0  0  0  0  0
  1 20  1  1  0  0  0
  2 12  1  0  0  0  0
  2 16  1  0  0  0  0
  3 13  1  0  0  0  0
  3 14  1  0  0  0  0
  4 16  1  0  0  0  0
  6  5  1  0  0  0  0
  6  8  1  1  0  0  0
  7  3  2  0  0  0  0
  9  4  1  6  0  0  0
  9 10  1  0  0  0  0
 10  6  1  0  0  0  0
 10  1  1  0  0  0  0
 11  9  1  0  0  0  0
 11  6  1  0  0  0  0
 12 14  1  0  0  0  0
 14 15  1  0  0  0  0
 15 17  1  0  0  0  0
 16 18  1  0  0  0  0
 18 17  1  0  0  0  0
 18  1  1  0  0  0  0
 19 21  1  0  0  0  0
 20 19  2  0  0  0  0
 21 22  1  0  0  0  0
 21 23  1  0  0  0  0
 22 23  1  0  0  0  0
 24 22  1  0  0  0  0
 25 28  1  0  0  0  0
 26 31  1  0  0  0  0
 27 28  1  0  0  0  0
 27 26  2  0  0  0  0
 28 30  2  0  0  0  0
 30 24  1  0  0  0  0
 30 29  1  0  0  0  0
 31 29  2  0  0  0  0
 32 26  1  0  0  0  0
 32 34  1  0  0  0  0
 33 32  1  0  0  0  0
M  END
>  <MODEL>
4

>  <REMARK>
 VINA RESULT:      -8.1      3.849      5.511
  Name = 
  5 active torsions:
  status: ('A' for Active; 'I' for Inactive)
    1  A    between atoms: C_1  and  C_9
    2  A    between atoms: N_6  and  C_28
    3  A    between atoms: N_6  and  C_30
    4  A    between atoms: C_7  and  N_11
    5  A    between atoms: C_8  and  C_18
                            x       y       z     vdW  Elec       q    Type
                         _______ _______ _______ _____ _____    ______ ____

>  <TORSDO>
F 5

$$$$
=
 OpenBabel11052420183D

 34 38  0  0  1  0  0  0  0  0999 V2000
  193.7510  175.4180  143.6710 C   0  0  1  0  0  3  0  0  0  0  0  0
  192.2070  172.0030  142.4470 C   0  0  0  0  0  2  0  0  0  0  0  0
  189.6150  173.0880  140.8400 C   0  0  0  0  0  0  0  0  0  0  0  0
  194.5190  172.9290  142.2210 C   0  0  0  0  0  2  0  0  0  0  0  0
  196.8940  174.8600  145.1130 F   0  0  0  0  0  0  0  0  0  0  0  0
  196.2990  175.2340  143.9230 C   0  0  2  0  0  0  0  0  0  0  0  0
  189.6650  171.8300  140.2510 O   0  0  0  0  0  1  0  0  0  0  0  0
  196.3320  176.7500  143.7340 C   0  0  0  0  0  1  0  0  0  0  0  0
  195.2530  174.2130  142.4520 C   0  0  1  0  0  3  0  0  0  0  0  0
  194.9710  174.6320  143.7970 N   0  0  2  0  0  0  0  0  0  0  0  0
  197.0600  174.3640  142.4990 S   0  0  0  0  0  0  0  0  0  0  0  0
  190.7580  172.2000  142.8970 C   0  0  0  0  0  2  0  0  0  0  0  0
  189.1160  174.0500  140.1970 O   0  0  0  0  0  0  0  0  0  0  0  0
  190.1210  173.2870  142.1660 N   0  0  0  0  0  0  0  0  0  0  0  0
  190.1180  174.6050  142.7850 C   0  0  0  0  0  2  0  0  0  0  0  0
  193.0170  173.2940  142.2670 C   0  0  2  0  0  3  0  0  0  0  0  0
  191.4770  175.2760  142.6230 C   0  0  0  0  0  2  0  0  0  0  0  0
  192.6000  174.4540  143.2540 C   0  0  2  0  0  3  0  0  0  0  0  0
  192.6970  175.4620  145.9130 C   0  0  0  0  0  3  0  0  0  0  0  0
  193.4100  176.0860  144.9740 C   0  0  0  0  0  3  0  0  0  0  0  0
  192.3310  176.1700  147.1800 C   0  0  1  0  0  3  0  0  0  0  0  0
  190.8610  176.6000  147.2560 C   0  0  2  0  0  3  0  0  0  0  0  0
  191.3290  175.3370  147.9510 C   0  0  0  0  0  2  0  0  0  0  0  0
  190.1080  176.2520  146.0560 N   0  0  0  0  0  2  0  0  0  0  0  0
  189.6920  178.1140  143.6930 C   0  0  0  0  0  1  0  0  0  0  0  0
  186.2080  177.6380  145.0570 C   0  0  0  0  0  0  0  0  0  0  0  0
  187.3010  178.0570  144.2870 C   0  0  0  0  0  3  0  0  0  0  0  0
  188.5990  177.6260  144.5790 C   0  0  0  0  0  0  0  0  0  0  0  0
  187.7210  176.3340  146.4340 C   0  0  0  0  0  3  0  0  0  0  0  0
  188.8170  176.7500  145.6730 C   0  0  0  0  0  0  0  0  0  0  0  0
  186.4300  176.7700  146.1340 C   0  0  0  0  0  3  0  0  0  0  0  0
  184.8850  178.0950  144.7380 N   0  0  0  0  0  0  0  0  0  0  0  0
  184.0190  178.6810  145.7510 C   0  0  0  0  0  1  0  0  0  0  0  0
  184.4150  177.9870  143.4730 O   0  0  0  0  0  1  0  0  0  0  0  0
  1 10  1  0  0  0  0
  1 20  1  1  0  0  0
  2 12  1  0  0  0  0
  3 14  1  0  0  0  0
  4 16  1  0  0  0  0
  6  8  1  6  0  0  0
  6  5  1  0  0  0  0
  7  3  1  0  0  0  0
  9  4  1  1  0  0  0
  9 11  1  0  0  0  0
  9 10  1  0  0  0  0
 10  6  1  0  0  0  0
 11  6  1  0  0  0  0
 13  3  2  0  0  0  0
 14 15  1  0  0  0  0
 14 12  1  0  0  0  0
 16  2  1  0  0  0  0
 16 18  1  0  0  0  0
 17 15  1  0  0  0  0
 17 18  1  0  0  0  0
 18  1  1  0  0  0  0
 19 21  1  0  0  0  0
 20 19  2  0  0  0  0
 21 22  1  0  0  0  0
 21 23  1  0  0  0  0
 22 23  1  0  0  0  0
 24 22  1  0  0  0  0
 25 28  1  0  0  0  0
 26 31  1  0  0  0  0
 27 28  1  0  0  0  0
 27 26  2  0  0  0  0
 28 30  2  0  0  0  0
 30 24  1  0  0  0  0
 30 29  1  0  0  0  0
 31 29  2  0  0  0  0
 32 26  1  0  0  0  0
 32 33  1  0  0  0  0
 34 32  1  0  0  0  0
M  END
>  <MODEL>
5

>  <REMARK>
 VINA RESULT:      -8.0      2.821      4.271
  Name = 
  5 active torsions:
  status: ('A' for Active; 'I' for Inactive)
    1  A    between atoms: C_1  and  C_9
    2  A    between atoms: N_6  and  C_28
    3  A    between atoms: N_6  and  C_30
    4  A    between atoms: C_7  and  N_11
    5  A    between atoms: C_8  and  C_18
                            x       y       z     vdW  Elec       q    Type
                         _______ _______ _______ _____ _____    ______ ____

>  <TORSDO>
F 5

$$$$
=
 OpenBabel11052420183D

 34 38  0  0  1  0  0  0  0  0999 V2000
  192.8890  173.7190  143.7790 C   0  0  1  0  0  3  0  0  0  0  0  0
  189.6810  171.6580  142.7750 C   0  0  0  0  0  2  0  0  0  0  0  0
  188.5800  173.4660  140.3270 C   0  0  0  0  0  0  0  0  0  0  0  0
  192.0610  170.9440  143.0670 C   0  0  0  0  0  2  0  0  0  0  0  0
  194.7660  171.9350  146.1390 F   0  0  0  0  0  0  0  0  0  0  0  0
  194.6870  172.1850  144.7820 C   0  0  2  0  0  0  0  0  0  0  0  0
  187.8860  172.3060  140.0060 O   0  0  0  0  0  1  0  0  0  0  0  0
  195.6980  173.2470  144.3510 C   0  0  0  0  0  1  0  0  0  0  0  0
  193.4110  171.5580  143.2730 C   0  0  1  0  0  3  0  0  0  0  0  0
  193.3060  172.4610  144.3850 N   0  0  2  0  0  0  0  0  0  0  0  0
  194.8800  170.6410  143.8110 S   0  0  0  0  0  0  0  0  0  0  0  0
  188.6490  172.7860  142.7480 C   0  0  0  0  0  2  0  0  0  0  0  0
  188.8860  174.2760  139.4110 O   0  0  0  0  0  0  0  0  0  0  0  0
  188.9380  173.7410  141.6870 N   0  0  0  0  0  0  0  0  0  0  0  0
  189.7020  174.9300  142.0400 C   0  0  0  0  0  2  0  0  0  0  0  0
  191.1410  172.1030  142.6140 C   0  0  2  0  0  3  0  0  0  0  0  0
  191.1840  174.5970  142.1630 C   0  0  0  0  0  2  0  0  0  0  0  0
  191.4460  173.5280  143.2230 C   0  0  2  0  0  3  0  0  0  0  0  0
  192.0550  174.8440  145.8230 C   0  0  0  0  0  3  0  0  0  0  0  0
  192.9020  174.8290  144.7930 C   0  0  0  0  0  3  0  0  0  0  0  0
  192.0600  175.9880  146.7880 C   0  0  1  0  0  3  0  0  0  0  0  0
  190.7000  176.6810  146.9450 C   0  0  2  0  0  3  0  0  0  0  0  0
  191.1630  175.6580  147.9630 C   0  0  0  0  0  2  0  0  0  0  0  0
  189.6680  176.0970  146.0950 N   0  0  0  0  0  2  0  0  0  0  0  0
  189.3530  177.9150  143.6830 C   0  0  0  0  0  1  0  0  0  0  0  0
  185.8780  177.7880  145.1420 C   0  0  0  0  0  0  0  0  0  0  0  0
  186.9820  178.0860  144.3340 C   0  0  0  0  0  3  0  0  0  0  0  0
  188.2450  177.5520  144.6090 C   0  0  0  0  0  0  0  0  0  0  0  0
  187.3080  176.3990  146.5260 C   0  0  0  0  0  3  0  0  0  0  0  0
  188.4150  176.6940  145.7260 C   0  0  0  0  0  0  0  0  0  0  0  0
  186.0520  176.9370  146.2420 C   0  0  0  0  0  3  0  0  0  0  0  0
  184.5920  178.3490  144.8390 N   0  0  0  0  0  0  0  0  0  0  0  0
  184.1720  178.5900  143.4670 C   0  0  0  0  0  1  0  0  0  0  0  0
  183.7360  178.6670  145.8400 O   0  0  0  0  0  1  0  0  0  0  0  0
  1 10  1  0  0  0  0
  1 20  1  1  0  0  0
  3 14  1  0  0  0  0
  6  8  1  6  0  0  0
  6  5  1  0  0  0  0
  7  3  1  0  0  0  0
  9  4  1  1  0  0  0
  9 11  1  0  0  0  0
  9 10  1  0  0  0  0
 10  6  1  0  0  0  0
 11  6  1  0  0  0  0
 12  2  1  0  0  0  0
 13  3  2  0  0  0  0
 14 15  1  0  0  0  0
 14 12  1  0  0  0  0
 15 17  1  0  0  0  0
 16  2  1  0  0  0  0
 16  4  1  0  0  0  0
 16 18  1  0  0  0  0
 17 18  1  0  0  0  0
 18  1  1  0  0  0  0
 19 21  1  0  0  0  0
 20 19  2  0  0  0  0
 21 22  1  0  0  0  0
 21 23  1  0  0  0  0
 22 23  1  0  0  0  0
 24 22  1  0  0  0  0
 25 28  1  0  0  0  0
 26 31  1  0  0  0  0
 27 28  1  0  0  0  0
 27 26  2  0  0  0  0
 28 30  2  0  0  0  0
 30 24  1  0  0  0  0
 30 29  1  0  0  0  0
 31 29  2  0  0  0  0
 32 26  1  0  0  0  0
 32 34  1  0  0  0  0
 33 32  1  0  0  0  0
M  END
>  <MODEL>
6

>  <REMARK>
 VINA RESULT:      -7.9      2.399      3.939
  Name = 
  5 active torsions:
  status: ('A' for Active; 'I' for Inactive)
    1  A    between atoms: C_1  and  C_9
    2  A    between atoms: N_6  and  C_28
    3  A    between atoms: N_6  and  C_30
    4  A    between atoms: C_7  and  N_11
    5  A    between atoms: C_8  and  C_18
                            x       y       z     vdW  Elec       q    Type
                         _______ _______ _______ _____ _____    ______ ____

>  <TORSDO>
F 5

$$$$
=
 OpenBabel11052420183D

 34 38  0  0  1  0  0  0  0  0999 V2000
  191.2920  175.2420  143.8410 C   0  0  1  0  0  3  0  0  0  0  0  0
  191.0400  172.3820  141.1390 C   0  0  0  0  0  2  0  0  0  0  0  0
  188.7130  173.5900  139.2400 C   0  0  0  0  0  0  0  0  0  0  0  0
  193.0120  173.6700  141.9790 C   0  0  0  0  0  2  0  0  0  0  0  0
  194.0350  174.6620  145.9420 F   0  0  0  0  0  0  0  0  0  0  0  0
  193.6630  175.3740  144.8170 C   0  0  2  0  0  0  0  0  0  0  0  0
  189.2320  172.6860  138.3200 O   0  0  0  0  0  0  0  0  0  0  0  0
  193.3390  176.8280  145.1580 C   0  0  0  0  0  1  0  0  0  0  0  0
  193.3050  174.8600  142.8410 C   0  0  1  0  0  3  0  0  0  0  0  0
  192.6110  174.6700  144.0840 N   0  0  2  0  0  0  0  0  0  0  0  0
  194.9430  175.2600  143.5080 S   0  0  0  0  0  0  0  0  0  0  0  0
  189.5270  172.1580  141.1420 C   0  0  0  0  0  2  0  0  0  0  0  0
  188.1470  174.6360  138.8260 O   0  0  0  0  0  1  0  0  0  0  0  0
  188.8190  173.3300  140.6460 N   0  0  0  0  0  0  0  0  0  0  0  0
  188.3210  174.2830  141.6280 C   0  0  0  0  0  2  0  0  0  0  0  0
  191.5000  173.7500  141.6610 C   0  0  2  0  0  3  0  0  0  0  0  0
  189.4530  175.1670  142.1380 C   0  0  0  0  0  2  0  0  0  0  0  0
  190.5700  174.3500  142.7870 C   0  0  2  0  0  3  0  0  0  0  0  0
  189.8120  176.3760  145.4720 C   0  0  0  0  0  3  0  0  0  0  0  0
  190.4880  175.2840  145.1110 C   0  0  0  0  0  3  0  0  0  0  0  0
  189.0600  176.4060  146.7670 C   0  0  1  0  0  3  0  0  0  0  0  0
  187.9330  177.4450  146.8130 C   0  0  2  0  0  3  0  0  0  0  0  0
  187.6240  175.9900  146.5240 C   0  0  0  0  0  2  0  0  0  0  0  0
  187.8330  178.2240  145.5840 N   0  0  0  0  0  2  0  0  0  0  0  0
  185.0220  179.0250  146.4090 C   0  0  0  0  0  1  0  0  0  0  0  0
  184.6670  178.2450  142.7370 C   0  0  0  0  0  0  0  0  0  0  0  0
  184.3970  178.6050  144.0630 C   0  0  0  0  0  3  0  0  0  0  0  0
  185.4060  178.6130  145.0310 C   0  0  0  0  0  0  0  0  0  0  0  0
  186.9910  177.8950  143.3410 C   0  0  0  0  0  3  0  0  0  0  0  0
  186.7280  178.2500  144.6670 C   0  0  0  0  0  0  0  0  0  0  0  0
  185.9760  177.8900  142.3830 C   0  0  0  0  0  3  0  0  0  0  0  0
  183.6140  178.2430  141.7610 N   0  0  0  0  0  0  0  0  0  0  0  0
  183.8980  178.1640  140.3360 C   0  0  0  0  0  1  0  0  0  0  0  0
  182.3210  178.3180  142.1570 O   0  0  0  0  0  1  0  0  0  0  0  0
  1 10  1  0  0  0  0
  1 20  1  1  0  0  0
  2 12  1  0  0  0  0
  2 16  1  0  0  0  0
  3 14  1  0  0  0  0
  6  8  1  1  0  0  0
  6  5  1  0  0  0  0
  7  3  2  0  0  0  0
  9  4  1  6  0  0  0
  9 11  1  0  0  0  0
  9 10  1  0  0  0  0
 10  6  1  0  0  0  0
 11  6  1  0  0  0  0
 13  3  1  0  0  0  0
 14 12  1  0  0  0  0
 14 15  1  0  0  0  0
 15 17  1  0  0  0  0
 16  4  1  0  0  0  0
 16 18  1  0  0  0  0
 17 18  1  0  0  0  0
 18  1  1  0  0  0  0
 19 21  1  0  0  0  0
 20 19  2  0  0  0  0
 21 22  1  0  0  0  0
 23 21  1  0  0  0  0
 23 22  1  0  0  0  0
 24 22  1  0  0  0  0
 26 27  1  0  0  0  0
 27 28  2  0  0  0  0
 28 25  1  0  0  0  0
 29 30  2  0  0  0  0
 30 28  1  0  0  0  0
 30 24  1  0  0  0  0
 31 26  2  0  0  0  0
 31 29  1  0  0  0  0
 32 34  1  0  0  0  0
 32 26  1  0  0  0  0
 33 32  1  0  0  0  0
M  END
>  <MODEL>
7

>  <REMARK>
 VINA RESULT:      -7.8      1.836      2.425
  Name = 
  5 active torsions:
  status: ('A' for Active; 'I' for Inactive)
    1  A    between atoms: C_1  and  C_9
    2  A    between atoms: N_6  and  C_28
    3  A    between atoms: N_6  and  C_30
    4  A    between atoms: C_7  and  N_11
    5  A    between atoms: C_8  and  C_18
                            x       y       z     vdW  Elec       q    Type
                         _______ _______ _______ _____ _____    ______ ____

>  <TORSDO>
F 5

$$$$
=
 OpenBabel11052420183D

 34 38  0  0  1  0  0  0  0  0999 V2000
  187.5140  178.2900  144.5420 C   0  0  1  0  0  3  0  0  0  0  0  0
  188.6440  175.1620  146.6590 C   0  0  0  0  0  2  0  0  0  0  0  0
  191.6970  176.0000  147.3370 C   0  0  0  0  0  0  0  0  0  0  0  0
  186.6630  176.6690  146.8960 C   0  0  0  0  0  2  0  0  0  0  0  0
  184.0710  178.1260  143.9130 F   0  0  0  0  0  0  0  0  0  0  0  0
  184.9890  178.6920  144.7770 C   0  0  2  0  0  0  0  0  0  0  0  0
  191.5550  175.0490  148.3400 O   0  0  0  0  0  1  0  0  0  0  0  0
  185.2830  180.1450  144.4080 C   0  0  0  0  0  1  0  0  0  0  0  0
  186.1450  177.9570  146.3350 C   0  0  1  0  0  3  0  0  0  0  0  0
  186.1740  177.8430  144.9030 N   0  0  2  0  0  0  0  0  0  0  0  0
  184.4380  178.5410  146.5200 S   0  0  0  0  0  0  0  0  0  0  0  0
  189.9570  174.8300  145.9470 C   0  0  0  0  0  2  0  0  0  0  0  0
  192.5020  176.9550  147.5010 O   0  0  0  0  0  0  0  0  0  0  0  0
  190.9380  175.8910  146.1260 N   0  0  0  0  0  0  0  0  0  0  0  0
  191.0380  176.9000  145.0800 C   0  0  0  0  0  2  0  0  0  0  0  0
  188.1530  176.6060  146.4850 C   0  0  2  0  0  3  0  0  0  0  0  0
  189.9040  177.9100  145.1990 C   0  0  0  0  0  2  0  0  0  0  0  0
  188.5310  177.2470  145.0930 C   0  0  2  0  0  3  0  0  0  0  0  0
  187.2420  177.4290  142.2350 C   0  0  0  0  0  3  0  0  0  0  0  0
  187.6550  178.4010  143.0490 C   0  0  0  0  0  3  0  0  0  0  0  0
  187.4410  177.5470  140.7560 C   0  0  1  0  0  3  0  0  0  0  0  0
  187.7010  176.2100  140.0500 C   0  0  2  0  0  3  0  0  0  0  0  0
  186.3170  176.8270  140.0390 C   0  0  0  0  0  2  0  0  0  0  0  0
  187.7290  175.0800  140.9730 N   0  0  0  0  0  2  0  0  0  0  0  0
  188.2240  172.6660  139.1990 C   0  0  0  0  0  1  0  0  0  0  0  0
  191.0010  172.4680  141.7420 C   0  0  0  0  0  0  0  0  0  0  0  0
  190.1490  172.1970  140.6640 C   0  0  0  0  0  3  0  0  0  0  0  0
  189.0630  173.0280  140.3750 C   0  0  0  0  0  0  0  0  0  0  0  0
  189.6730  174.4320  142.2570 C   0  0  0  0  0  3  0  0  0  0  0  0
  188.8160  174.1660  141.1850 C   0  0  0  0  0  0  0  0  0  0  0  0
  190.7540  173.5950  142.5360 C   0  0  0  0  0  3  0  0  0  0  0  0
  192.1100  171.5990  142.0200 N   0  0  0  0  0  0  0  0  0  0  0  0
  191.9360  170.3590  142.7620 C   0  0  0  0  0  1  0  0  0  0  0  0
  193.3520  171.9230  141.5900 O   0  0  0  0  0  1  0  0  0  0  0  0
  1 20  1  6  0  0  0
  1 10  1  0  0  0  0
  1 18  1  0  0  0  0
  3 13  2  0  0  0  0
  3  7  1  0  0  0  0
  5  6  1  0  0  0  0
  6  8  1  6  0  0  0
  6 10  1  0  0  0  0
  6 11  1  0  0  0  0
  9 11  1  0  0  0  0
  9  4  1  1  0  0  0
 10  9  1  0  0  0  0
 12 14  1  0  0  0  0
 12  2  1  0  0  0  0
 14  3  1  0  0  0  0
 15 17  1  0  0  0  0
 15 14  1  0  0  0  0
 16  2  1  0  0  0  0
 16  4  1  0  0  0  0
 18 17  1  0  0  0  0
 18 16  1  0  0  0  0
 19 20  2  0  0  0  0
 21 19  1  0  0  0  0
 22 21  1  0  0  0  0
 22 24  1  0  0  0  0
 23 22  1  0  0  0  0
 23 21  1  0  0  0  0
 24 30  1  0  0  0  0
 25 28  1  0  0  0  0
 26 32  1  0  0  0  0
 26 31  1  0  0  0  0
 27 26  2  0  0  0  0
 28 27  1  0  0  0  0
 28 30  2  0  0  0  0
 29 31  2  0  0  0  0
 30 29  1  0  0  0  0
 32 33  1  0  0  0  0
 34 32  1  0  0  0  0
M  END
>  <MODEL>
8

>  <REMARK>
 VINA RESULT:      -7.6      3.747      7.359
  Name = 
  5 active torsions:
  status: ('A' for Active; 'I' for Inactive)
    1  A    between atoms: C_1  and  C_9
    2  A    between atoms: N_6  and  C_28
    3  A    between atoms: N_6  and  C_30
    4  A    between atoms: C_7  and  N_11
    5  A    between atoms: C_8  and  C_18
                            x       y       z     vdW  Elec       q    Type
                         _______ _______ _______ _____ _____    ______ ____

>  <TORSDO>
F 5

$$$$
=
 OpenBabel11052420183D

 34 38  0  0  1  0  0  0  0  0999 V2000
  187.8300  177.3330  143.8230 C   0  0  1  0  0  3  0  0  0  0  0  0
  188.5650  175.4000  147.1790 C   0  0  0  0  0  2  0  0  0  0  0  0
  191.7550  175.8860  147.4350 C   0  0  0  0  0  0  0  0  0  0  0  0
  186.8870  177.1760  146.6480 C   0  0  0  0  0  2  0  0  0  0  0  0
  184.3730  177.5240  143.2870 F   0  0  0  0  0  0  0  0  0  0  0  0
  185.4320  178.2490  143.8000 C   0  0  2  0  0  0  0  0  0  0  0  0
  191.5270  175.5540  148.7650 O   0  0  0  0  0  1  0  0  0  0  0  0
  185.9380  179.2840  142.7960 C   0  0  0  0  0  1  0  0  0  0  0  0
  186.5540  178.1260  145.5390 C   0  0  1  0  0  3  0  0  0  0  0  0
  186.4630  177.3570  144.3290 N   0  0  2  0  0  0  0  0  0  0  0  0
  184.9880  179.0290  145.4000 S   0  0  0  0  0  0  0  0  0  0  0  0
  189.7490  174.5430  146.7290 C   0  0  0  0  0  2  0  0  0  0  0  0
  192.7190  176.6440  147.1450 O   0  0  0  0  0  0  0  0  0  0  0  0
  190.9050  175.3680  146.4040 N   0  0  0  0  0  0  0  0  0  0  0  0
  191.0990  175.7370  145.0090 C   0  0  0  0  0  2  0  0  0  0  0  0
  188.3120  176.6600  146.3400 C   0  0  2  0  0  3  0  0  0  0  0  0
  190.1620  176.8750  144.6210 C   0  0  0  0  0  2  0  0  0  0  0  0
  188.6930  176.5000  144.8160 C   0  0  2  0  0  3  0  0  0  0  0  0
  188.0910  175.4040  142.2900 C   0  0  0  0  0  3  0  0  0  0  0  0
  187.8810  176.7110  142.4550 C   0  0  0  0  0  3  0  0  0  0  0  0
  188.1860  174.8210  140.9150 C   0  0  1  0  0  3  0  0  0  0  0  0
  189.4960  174.0710  140.6410 C   0  0  2  0  0  3  0  0  0  0  0  0
  188.2390  173.3100  141.0110 C   0  0  0  0  0  2  0  0  0  0  0  0
  190.4090  174.0970  141.7790 N   0  0  0  0  0  2  0  0  0  0  0  0
  189.6470  172.3480  144.1420 C   0  0  0  0  0  1  0  0  0  0  0  0
  192.9670  170.9370  143.0430 C   0  0  0  0  0  0  0  0  0  0  0  0
  191.7710  171.1670  143.7350 C   0  0  0  0  0  3  0  0  0  0  0  0
  190.9010  172.1930  143.3540 C   0  0  0  0  0  0  0  0  0  0  0  0
  192.4260  172.7800  141.5610 C   0  0  0  0  0  3  0  0  0  0  0  0
  191.2320  173.0180  142.2480 C   0  0  0  0  0  0  0  0  0  0  0  0
  193.2870  171.7530  141.9500 C   0  0  0  0  0  3  0  0  0  0  0  0
  193.8450  169.8780  143.4540 N   0  0  0  0  0  0  0  0  0  0  0  0
  193.5320  169.0330  144.5970 C   0  0  0  0  0  1  0  0  0  0  0  0
  194.9940  169.6450  142.7770 O   0  0  0  0  0  1  0  0  0  0  0  0
  1 20  1  6  0  0  0
  1 10  1  0  0  0  0
  1 18  1  0  0  0  0
  3  7  1  0  0  0  0
  5  6  1  0  0  0  0
  6  8  1  6  0  0  0
  6 10  1  0  0  0  0
  6 11  1  0  0  0  0
  9  4  1  1  0  0  0
 10  9  1  0  0  0  0
 11  9  1  0  0  0  0
 12  2  1  0  0  0  0
 13  3  2  0  0  0  0
 14 12  1  0  0  0  0
 14  3  1  0  0  0  0
 15 14  1  0  0  0  0
 16  4  1  0  0  0  0
 16  2  1  0  0  0  0
 17 18  1  0  0  0  0
 17 15  1  0  0  0  0
 18 16  1  0  0  0  0
 19 20  2  0  0  0  0
 21 23  1  0  0  0  0
 21 19  1  0  0  0  0
 22 21  1  0  0  0  0
 22 23  1  0  0  0  0
 22 24  1  0  0  0  0
 24 30  1  0  0  0  0
 26 32  1  0  0  0  0
 26 27  1  0  0  0  0
 28 27  2  0  0  0  0
 28 25  1  0  0  0  0
 29 31  1  0  0  0  0
 29 30  2  0  0  0  0
 30 28  1  0  0  0  0
 31 26  2  0  0  0  0
 32 33  1  0  0  0  0
 34 32  1  0  0  0  0
M  END
>  <MODEL>
9

>  <REMARK>
 VINA RESULT:      -7.6      3.988      8.290
  Name = 
  5 active torsions:
  status: ('A' for Active; 'I' for Inactive)
    1  A    between atoms: C_1  and  C_9
    2  A    between atoms: N_6  and  C_28
    3  A    between atoms: N_6  and  C_30
    4  A    between atoms: C_7  and  N_11
    5  A    between atoms: C_8  and  C_18
                            x       y       z     vdW  Elec       q    Type
                         _______ _______ _______ _____ _____    ______ ____

>  <TORSDO>
F 5

$$$$
