=
 OpenBabel11052421373D

 32 37  0  0  1  0  0  0  0  0999 V2000
  182.9790  178.3350  141.6090 C   0  0  0  0  0  0  0  0  0  0  0  0
  187.9300  177.8220  142.4180 C   0  0  0  0  0  0  0  0  0  0  0  0
  188.4280  177.5190  147.2460 C   0  0  0  0  0  3  0  0  0  0  0  0
  189.8090  177.3960  147.0830 C   0  0  0  0  0  3  0  0  0  0  0  0
  185.7580  178.0840  141.3790 C   0  0  0  0  0  0  0  0  0  0  0  0
  185.9310  177.9350  143.8000 C   0  0  0  0  0  3  0  0  0  0  0  0
  183.7600  178.1940  142.7610 C   0  0  0  0  0  3  0  0  0  0  0  0
  187.6020  177.6570  146.1290 C   0  0  0  0  0  3  0  0  0  0  0  0
  187.3280  177.8110  143.6970 C   0  0  0  0  0  0  0  0  0  0  0  0
  188.1460  177.6730  144.8340 C   0  0  0  0  0  0  0  0  0  0  0  0
  190.0950  177.5650  143.3730 C   0  0  0  0  0  0  0  0  0  0  0  0
  183.5840  178.3430  140.3470 C   0  0  0  0  0  3  0  0  0  0  0  0
  185.1480  178.0710  142.6530 C   0  0  0  0  0  0  0  0  0  0  0  0
  184.9720  178.2200  140.2320 C   0  0  0  0  0  3  0  0  0  0  0  0
  190.3660  177.4110  145.8030 C   0  0  0  0  0  3  0  0  0  0  0  0
  189.5480  177.5490  144.6710 C   0  0  0  0  0  0  0  0  0  0  0  0
  187.1450  177.9590  141.2710 C   0  0  0  0  0  3  0  0  0  0  0  0
  189.2770  177.7030  142.2970 N   0  0  0  0  0  0  0  0  0  0  0  0
  181.4980  178.4410  141.7250 C   0  0  0  0  0  2  0  0  0  0  0  0
  180.9470  178.9800  140.4930 N   0  0  0  0  0  2  0  0  0  0  0  0
  179.9100  179.9200  140.8740 C   0  0  1  0  0  3  0  0  0  0  0  0
  180.0550  181.0960  140.1170 O   0  0  0  0  0  0  0  0  0  0  0  0
  179.0460  180.2070  139.7090 C   0  0  0  0  0  2  0  0  0  0  0  0
  191.5720  177.4690  143.1430 C   0  0  0  0  0  2  0  0  0  0  0  0
  192.0850  176.0680  143.4750 C   0  0  1  0  0  3  0  0  0  0  0  0
  192.0000  175.1330  142.2710 C   0  0  0  0  0  2  0  0  0  0  0  0
  191.0410  174.1380  142.4690 O   0  0  0  0  0  0  0  0  0  0  0  0
  190.3140  174.1130  141.2800 C   0  0  0  0  0  1  0  0  0  0  0  0
  193.4700  176.0650  144.1300 C   0  0  0  0  0  2  0  0  0  0  0  0
  194.8720  175.4260  146.0640 C   0  0  0  0  0  2  0  0  0  0  0  0
  194.0210  176.6050  146.4760 C   0  0  0  0  0  2  0  0  0  0  0  0
  193.4490  175.5450  145.5590 C   0  0  0  0  0  3  0  0  0  0  0  0
  1 19  1  0  0  0  0
  1  7  1  0  0  0  0
  2  9  1  0  0  0  0
  4  3  1  0  0  0  0
  5 13  1  0  0  0  0
  8  3  2  0  0  0  0
  9  6  2  0  0  0  0
  9 10  1  0  0  0  0
 10  8  1  0  0  0  0
 11 16  1  0  0  0  0
 12  1  2  0  0  0  0
 13  7  2  0  0  0  0
 13  6  1  0  0  0  0
 14 12  1  0  0  0  0
 14  5  2  0  0  0  0
 15  4  2  0  0  0  0
 16 10  2  0  0  0  0
 16 15  1  0  0  0  0
 17  5  1  0  0  0  0
 17  2  2  0  0  0  0
 18  2  1  0  0  0  0
 18 11  2  0  0  0  0
 20 19  1  0  0  0  0
 21 20  1  6  0  0  0
 22 21  1  0  0  0  0
 23 22  1  0  0  0  0
 23 21  1  0  0  0  0
 24 11  1  0  0  0  0
 24 25  1  0  0  0  0
 25 26  1  6  0  0  0
 25 29  1  0  0  0  0
 26 27  1  0  0  0  0
 28 27  1  0  0  0  0
 29 32  1  0  0  0  0
 30 31  1  0  0  0  0
 32 30  1  0  0  0  0
 32 31  1  0  0  0  0
M  END
>  <MODEL>
1

>  <REMARK>
 VINA RESULT:      -7.7      0.000      0.000
  Name = 
  9 active torsions:
  status: ('A' for Active; 'I' for Inactive)
    1  A    between atoms: C_1  and  N_10
    2  A    between atoms: C_2  and  C_24
    3  A    between atoms: O_6  and  C_7
    4  A    between atoms: C_7  and  C_32
    5  A    between atoms: N_10  and  C_24
    6  A    between atoms: C_16  and  C_27
    7  A    between atoms: C_22  and  C_30
    8  A    between atoms: C_22  and  C_32
    9  A    between atoms: C_27  and  C_32
                            x       y       z     vdW  Elec       q    Type
                         _______ _______ _______ _____ _____    ______ ____

>  <TORSDO>
F 9

$$$$
=
 OpenBabel11052421373D

 32 37  0  0  1  0  0  0  0  0999 V2000
  182.9560  178.2890  141.5910 C   0  0  0  0  0  0  0  0  0  0  0  0
  187.9050  177.7790  142.4180 C   0  0  0  0  0  0  0  0  0  0  0  0
  188.3910  177.5420  147.2520 C   0  0  0  0  0  3  0  0  0  0  0  0
  189.7710  177.4150  147.0930 C   0  0  0  0  0  3  0  0  0  0  0  0
  185.7350  178.0300  141.3710 C   0  0  0  0  0  0  0  0  0  0  0  0
  185.9030  177.9140  143.7950 C   0  0  0  0  0  3  0  0  0  0  0  0
  183.7340  178.1620  142.7460 C   0  0  0  0  0  3  0  0  0  0  0  0
  187.5670  177.6650  146.1310 C   0  0  0  0  0  3  0  0  0  0  0  0
  187.2990  177.7860  143.6960 C   0  0  0  0  0  0  0  0  0  0  0  0
  188.1140  177.6630  144.8370 C   0  0  0  0  0  0  0  0  0  0  0  0
  190.0660  177.5320  143.3820 C   0  0  0  0  0  0  0  0  0  0  0  0
  183.5640  178.2780  140.3300 C   0  0  0  0  0  3  0  0  0  0  0  0
  185.1220  178.0360  142.6440 C   0  0  0  0  0  0  0  0  0  0  0  0
  184.9520  178.1510  140.2210 C   0  0  0  0  0  3  0  0  0  0  0  0
  190.3320  177.4110  145.8150 C   0  0  0  0  0  3  0  0  0  0  0  0
  189.5170  177.5350  144.6790 C   0  0  0  0  0  0  0  0  0  0  0  0
  187.1220  177.9020  141.2670 C   0  0  0  0  0  3  0  0  0  0  0  0
  189.2520  177.6560  142.3030 N   0  0  0  0  0  0  0  0  0  0  0  0
  181.4750  178.3980  141.7010 C   0  0  0  0  0  2  0  0  0  0  0  0
  180.9400  179.0410  140.5140 N   0  0  0  0  0  2  0  0  0  0  0  0
  179.9330  179.9830  140.9640 C   0  0  1  0  0  3  0  0  0  0  0  0
  179.9430  181.1070  140.1180 O   0  0  0  0  0  0  0  0  0  0  0  0
  178.9180  180.1690  139.9060 C   0  0  0  0  0  2  0  0  0  0  0  0
  191.5440  177.4300  143.1570 C   0  0  0  0  0  2  0  0  0  0  0  0
  191.9710  175.9720  142.9970 C   0  0  1  0  0  3  0  0  0  0  0  0
  193.2190  175.6530  143.8160 C   0  0  0  0  0  2  0  0  0  0  0  0
  193.5610  176.7170  144.6540 O   0  0  0  0  0  0  0  0  0  0  0  0
  194.1550  176.1130  145.7610 C   0  0  0  0  0  1  0  0  0  0  0  0
  190.8350  174.9730  143.2390 C   0  0  0  0  0  2  0  0  0  0  0  0
  189.8150  173.9080  145.2240 C   0  0  0  0  0  2  0  0  0  0  0  0
  190.2450  172.8110  144.2780 C   0  0  0  0  0  2  0  0  0  0  0  0
  191.0930  174.0560  144.4250 C   0  0  0  0  0  3  0  0  0  0  0  0
  1 19  1  0  0  0  0
  1  7  1  0  0  0  0
  2  9  1  0  0  0  0
  4  3  1  0  0  0  0
  5 13  1  0  0  0  0
  8  3  2  0  0  0  0
  9  6  2  0  0  0  0
  9 10  1  0  0  0  0
 10  8  1  0  0  0  0
 11 16  1  0  0  0  0
 12  1  2  0  0  0  0
 13  7  2  0  0  0  0
 13  6  1  0  0  0  0
 14 12  1  0  0  0  0
 14  5  2  0  0  0  0
 15  4  2  0  0  0  0
 16 10  2  0  0  0  0
 16 15  1  0  0  0  0
 17  5  1  0  0  0  0
 17  2  2  0  0  0  0
 18  2  1  0  0  0  0
 18 11  2  0  0  0  0
 20 19  1  0  0  0  0
 21 20  1  6  0  0  0
 22 21  1  0  0  0  0
 23 22  1  0  0  0  0
 23 21  1  0  0  0  0
 24 11  1  0  0  0  0
 25 24  1  1  0  0  0
 25 29  1  0  0  0  0
 25 26  1  0  0  0  0
 26 27  1  0  0  0  0
 27 28  1  0  0  0  0
 29 32  1  0  0  0  0
 31 32  1  0  0  0  0
 31 30  1  0  0  0  0
 32 30  1  0  0  0  0
M  END
>  <MODEL>
2

>  <REMARK>
 VINA RESULT:      -7.6      1.263      2.100
  Name = 
  9 active torsions:
  status: ('A' for Active; 'I' for Inactive)
    1  A    between atoms: C_1  and  N_10
    2  A    between atoms: C_2  and  C_24
    3  A    between atoms: O_6  and  C_7
    4  A    between atoms: C_7  and  C_32
    5  A    between atoms: N_10  and  C_24
    6  A    between atoms: C_16  and  C_27
    7  A    between atoms: C_22  and  C_30
    8  A    between atoms: C_22  and  C_32
    9  A    between atoms: C_27  and  C_32
                            x       y       z     vdW  Elec       q    Type
                         _______ _______ _______ _____ _____    ______ ____

>  <TORSDO>
F 9

$$$$
=
 OpenBabel11052421373D

 32 37  0  0  1  0  0  0  0  0999 V2000
  181.2210  178.9220  141.5310 C   0  0  0  0  0  0  0  0  0  0  0  0
  185.8690  177.7450  143.0940 C   0  0  0  0  0  0  0  0  0  0  0  0
  185.9390  178.7860  147.8440 C   0  0  0  0  0  3  0  0  0  0  0  0
  187.2670  178.3620  147.9040 C   0  0  0  0  0  3  0  0  0  0  0  0
  183.8870  178.0950  141.7460 C   0  0  0  0  0  0  0  0  0  0  0  0
  183.8480  178.6340  144.1180 C   0  0  0  0  0  3  0  0  0  0  0  0
  181.8660  178.9800  142.7700 C   0  0  0  0  0  3  0  0  0  0  0  0
  185.2450  178.7420  146.6330 C   0  0  0  0  0  3  0  0  0  0  0  0
  185.1870  178.2240  144.2370 C   0  0  0  0  0  0  0  0  0  0  0  0
  185.8710  178.2750  145.4660 C   0  0  0  0  0  0  0  0  0  0  0  0
  187.8500  177.3770  144.3600 C   0  0  0  0  0  0  0  0  0  0  0  0
  181.9020  178.4440  140.4060 C   0  0  0  0  0  3  0  0  0  0  0  0
  183.1980  178.5720  142.8840 C   0  0  0  0  0  0  0  0  0  0  0  0
  183.2350  178.0330  140.5130 C   0  0  0  0  0  3  0  0  0  0  0  0
  187.9050  177.8950  146.7540 C   0  0  0  0  0  3  0  0  0  0  0  0
  187.2210  177.8460  145.5290 C   0  0  0  0  0  0  0  0  0  0  0  0
  185.2170  177.6850  141.8600 C   0  0  0  0  0  3  0  0  0  0  0  0
  187.1620  177.3440  143.1890 N   0  0  0  0  0  0  0  0  0  0  0  0
  179.7940  179.3340  141.4170 C   0  0  0  0  0  2  0  0  0  0  0  0
  179.0590  178.8860  142.5870 N   0  0  0  0  0  2  0  0  0  0  0  0
  177.9140  178.1380  142.1030 C   0  0  1  0  0  3  0  0  0  0  0  0
  178.3670  177.0090  141.3980 O   0  0  0  0  0  0  0  0  0  0  0  0
  177.9080  176.7900  142.7080 C   0  0  0  0  0  2  0  0  0  0  0  0
  189.2830  176.9410  144.3620 C   0  0  0  0  0  2  0  0  0  0  0  0
  189.3890  175.4170  144.4200 C   0  0  1  0  0  3  0  0  0  0  0  0
  190.1200  174.8520  143.2040 C   0  0  0  0  0  2  0  0  0  0  0  0
  189.5460  173.6520  142.7810 O   0  0  0  0  0  0  0  0  0  0  0  0
  188.3290  174.0270  142.2130 C   0  0  0  0  0  1  0  0  0  0  0  0
  189.9540  174.8950  145.7450 C   0  0  0  0  0  2  0  0  0  0  0  0
  191.0990  175.4900  147.8540 C   0  0  0  0  0  2  0  0  0  0  0  0
  192.1550  175.1010  146.8460 C   0  0  0  0  0  2  0  0  0  0  0  0
  190.9280  175.8650  146.3960 C   0  0  0  0  0  3  0  0  0  0  0  0
  1  7  1  0  0  0  0
  2 18  1  0  0  0  0
  2  9  1  0  0  0  0
  3  4  1  0  0  0  0
  5 17  1  0  0  0  0
  5 13  1  0  0  0  0
  6  9  2  0  0  0  0
  7 13  2  0  0  0  0
  8  3  2  0  0  0  0
  9 10  1  0  0  0  0
 10 16  2  0  0  0  0
 10  8  1  0  0  0  0
 11 24  1  0  0  0  0
 11 16  1  0  0  0  0
 12 14  1  0  0  0  0
 12  1  2  0  0  0  0
 13  6  1  0  0  0  0
 14  5  2  0  0  0  0
 15  4  2  0  0  0  0
 16 15  1  0  0  0  0
 17  2  2  0  0  0  0
 18 11  2  0  0  0  0
 19  1  1  0  0  0  0
 19 20  1  0  0  0  0
 21 20  1  1  0  0  0
 21 23  1  0  0  0  0
 22 21  1  0  0  0  0
 22 23  1  0  0  0  0
 24 25  1  0  0  0  0
 25 26  1  6  0  0  0
 25 29  1  0  0  0  0
 27 26  1  0  0  0  0
 28 27  1  0  0  0  0
 29 32  1  0  0  0  0
 31 30  1  0  0  0  0
 32 31  1  0  0  0  0
 32 30  1  0  0  0  0
M  END
>  <MODEL>
3

>  <REMARK>
 VINA RESULT:      -7.3      1.989      2.693
  Name = 
  9 active torsions:
  status: ('A' for Active; 'I' for Inactive)
    1  A    between atoms: C_1  and  N_10
    2  A    between atoms: C_2  and  C_24
    3  A    between atoms: O_6  and  C_7
    4  A    between atoms: C_7  and  C_32
    5  A    between atoms: N_10  and  C_24
    6  A    between atoms: C_16  and  C_27
    7  A    between atoms: C_22  and  C_30
    8  A    between atoms: C_22  and  C_32
    9  A    between atoms: C_27  and  C_32
                            x       y       z     vdW  Elec       q    Type
                         _______ _______ _______ _____ _____    ______ ____

>  <TORSDO>
F 9

$$$$
=
 OpenBabel11052421373D

 32 37  0  0  1  0  0  0  0  0999 V2000
  185.0760  178.1210  142.5380 C   0  0  0  0  0  0  0  0  0  0  0  0
  190.0010  177.2010  143.1170 C   0  0  0  0  0  0  0  0  0  0  0  0
  190.6540  176.6080  147.8990 C   0  0  0  0  0  3  0  0  0  0  0  0
  192.0140  176.3920  147.6730 C   0  0  0  0  0  3  0  0  0  0  0  0
  187.8180  177.6780  142.1820 C   0  0  0  0  0  0  0  0  0  0  0  0
  188.0690  177.3890  144.5840 C   0  0  0  0  0  3  0  0  0  0  0  0
  185.8860  177.8620  143.6490 C   0  0  0  0  0  3  0  0  0  0  0  0
  189.7990  176.8650  146.8250 C   0  0  0  0  0  3  0  0  0  0  0  0
  189.4470  177.1670  144.4170 C   0  0  0  0  0  0  0  0  0  0  0  0
  190.2940  176.9100  145.5110 C   0  0  0  0  0  0  0  0  0  0  0  0
  192.1740  176.7350  143.9690 C   0  0  0  0  0  0  0  0  0  0  0  0
  185.6330  178.1510  141.2550 C   0  0  0  0  0  3  0  0  0  0  0  0
  187.2560  177.6430  143.4780 C   0  0  0  0  0  0  0  0  0  0  0  0
  187.0020  177.9310  141.0770 C   0  0  0  0  0  3  0  0  0  0  0  0
  192.5230  176.4330  146.3750 C   0  0  0  0  0  3  0  0  0  0  0  0
  191.6760  176.6910  145.2850 C   0  0  0  0  0  0  0  0  0  0  0  0
  189.1860  177.4570  142.0110 C   0  0  0  0  0  3  0  0  0  0  0  0
  191.3300  176.9900  142.9350 N   0  0  0  0  0  0  0  0  0  0  0  0
  183.6130  178.3300  142.7200 C   0  0  0  0  0  2  0  0  0  0  0  0
  182.9520  178.3220  141.4260 N   0  0  0  0  0  2  0  0  0  0  0  0
  181.5350  178.1440  141.6800 C   0  0  1  0  0  3  0  0  0  0  0  0
  180.9060  179.4020  141.6800 O   0  0  0  0  0  0  0  0  0  0  0  0
  180.7580  178.6260  140.5180 C   0  0  0  0  0  2  0  0  0  0  0  0
  193.6290  176.5420  143.6740 C   0  0  0  0  0  2  0  0  0  0  0  0
  193.8920  175.1440  143.1140 C   0  0  1  0  0  3  0  0  0  0  0  0
  194.5360  175.1980  141.7310 C   0  0  0  0  0  2  0  0  0  0  0  0
  195.0130  176.4790  141.4440 O   0  0  0  0  0  0  0  0  0  0  0  0
  196.3690  176.2950  141.1780 C   0  0  0  0  0  1  0  0  0  0  0  0
  194.6490  174.2310  144.0840 C   0  0  0  0  0  2  0  0  0  0  0  0
  196.4130  173.9910  145.8010 C   0  0  0  0  0  2  0  0  0  0  0  0
  197.0550  174.5420  144.5490 C   0  0  0  0  0  2  0  0  0  0  0  0
  195.6600  174.9820  144.9370 C   0  0  0  0  0  3  0  0  0  0  0  0
  1 19  1  0  0  0  0
  1  7  1  0  0  0  0
  2  9  1  0  0  0  0
  4  3  1  0  0  0  0
  5 13  1  0  0  0  0
  8  3  2  0  0  0  0
  9  6  2  0  0  0  0
  9 10  1  0  0  0  0
 10  8  1  0  0  0  0
 11 16  1  0  0  0  0
 12  1  2  0  0  0  0
 13  7  2  0  0  0  0
 13  6  1  0  0  0  0
 14 12  1  0  0  0  0
 14  5  2  0  0  0  0
 15  4  2  0  0  0  0
 16 10  2  0  0  0  0
 16 15  1  0  0  0  0
 17  5  1  0  0  0  0
 17  2  2  0  0  0  0
 18  2  1  0  0  0  0
 18 11  2  0  0  0  0
 20 19  1  0  0  0  0
 21 20  1  6  0  0  0
 22 21  1  0  0  0  0
 23 22  1  0  0  0  0
 23 21  1  0  0  0  0
 24 11  1  0  0  0  0
 25 26  1  6  0  0  0
 25 24  1  0  0  0  0
 25 29  1  0  0  0  0
 27 26  1  0  0  0  0
 28 27  1  0  0  0  0
 29 32  1  0  0  0  0
 31 32  1  0  0  0  0
 31 30  1  0  0  0  0
 32 30  1  0  0  0  0
M  END
>  <MODEL>
4

>  <REMARK>
 VINA RESULT:      -6.9      1.794      2.737
  Name = 
  9 active torsions:
  status: ('A' for Active; 'I' for Inactive)
    1  A    between atoms: C_1  and  N_10
    2  A    between atoms: C_2  and  C_24
    3  A    between atoms: O_6  and  C_7
    4  A    between atoms: C_7  and  C_32
    5  A    between atoms: N_10  and  C_24
    6  A    between atoms: C_16  and  C_27
    7  A    between atoms: C_22  and  C_30
    8  A    between atoms: C_22  and  C_32
    9  A    between atoms: C_27  and  C_32
                            x       y       z     vdW  Elec       q    Type
                         _______ _______ _______ _____ _____    ______ ____

>  <TORSDO>
F 9

$$$$
=
 OpenBabel11052421373D

 32 37  0  0  1  0  0  0  0  0999 V2000
  195.2830  174.7110  145.6310 C   0  0  0  0  0  0  0  0  0  0  0  0
  190.4580  175.7310  144.5770 C   0  0  0  0  0  0  0  0  0  0  0  0
  189.2070  172.5950  141.0760 C   0  0  0  0  0  3  0  0  0  0  0  0
  187.9250  173.1450  141.0610 C   0  0  0  0  0  3  0  0  0  0  0  0
  192.6850  175.7510  145.5280 C   0  0  0  0  0  0  0  0  0  0  0  0
  192.1290  174.1510  143.7820 C   0  0  0  0  0  3  0  0  0  0  0  0
  194.3550  174.1690  144.7360 C   0  0  0  0  0  3  0  0  0  0  0  0
  190.1710  173.0950  141.9540 C   0  0  0  0  0  3  0  0  0  0  0  0
  190.8230  174.6670  143.7210 C   0  0  0  0  0  0  0  0  0  0  0  0
  189.8640  174.1510  142.8290 C   0  0  0  0  0  0  0  0  0  0  0  0
  188.2520  175.7660  143.6860 C   0  0  0  0  0  0  0  0  0  0  0  0
  194.9120  175.7630  146.4760 C   0  0  0  0  0  3  0  0  0  0  0  0
  193.0570  174.6850  144.6770 C   0  0  0  0  0  0  0  0  0  0  0  0
  193.6150  176.2830  146.4240 C   0  0  0  0  0  3  0  0  0  0  0  0
  187.6020  174.1940  141.9220 C   0  0  0  0  0  3  0  0  0  0  0  0
  188.5610  174.7080  142.8100 C   0  0  0  0  0  0  0  0  0  0  0  0
  191.3890  176.2660  145.4720 C   0  0  0  0  0  3  0  0  0  0  0  0
  189.2010  176.2430  144.5320 N   0  0  0  0  0  0  0  0  0  0  0  0
  196.6570  174.1430  145.7090 C   0  0  0  0  0  2  0  0  0  0  0  0
  196.6960  172.8580  145.0330 N   0  0  0  0  0  2  0  0  0  0  0  0
  196.8030  171.8430  146.0640 C   0  0  1  0  0  3  0  0  0  0  0  0
  195.7790  170.8960  145.8860 O   0  0  0  0  0  0  0  0  0  0  0  0
  197.0600  170.5270  145.4410 C   0  0  0  0  0  2  0  0  0  0  0  0
  186.9010  176.4130  143.6880 C   0  0  0  0  0  2  0  0  0  0  0  0
  187.0260  177.9360  143.6840 C   0  0  1  0  0  3  0  0  0  0  0  0
  186.5260  178.5440  142.3760 C   0  0  0  0  0  2  0  0  0  0  0  0
  185.7560  177.6290  141.6550 O   0  0  0  0  0  0  0  0  0  0  0  0
  184.5090  178.2410  141.5340 C   0  0  0  0  0  1  0  0  0  0  0  0
  186.4080  178.6020  144.9190 C   0  0  0  0  0  2  0  0  0  0  0  0
  184.8320  178.4220  146.8160 C   0  0  0  0  0  2  0  0  0  0  0  0
  184.0330  178.7590  145.5780 C   0  0  0  0  0  2  0  0  0  0  0  0
  185.2240  177.8290  145.4780 C   0  0  0  0  0  3  0  0  0  0  0  0
  1 19  1  0  0  0  0
  1 12  1  0  0  0  0
  2 17  1  0  0  0  0
  3  8  1  0  0  0  0
  4  3  2  0  0  0  0
  4 15  1  0  0  0  0
  5 14  1  0  0  0  0
  6 13  2  0  0  0  0
  7  1  2  0  0  0  0
  8 10  2  0  0  0  0
  9  6  1  0  0  0  0
  9  2  2  0  0  0  0
 10  9  1  0  0  0  0
 11 24  1  0  0  0  0
 11 18  2  0  0  0  0
 13  7  1  0  0  0  0
 13  5  1  0  0  0  0
 14 12  2  0  0  0  0
 15 16  2  0  0  0  0
 16 10  1  0  0  0  0
 16 11  1  0  0  0  0
 17  5  2  0  0  0  0
 18  2  1  0  0  0  0
 20 19  1  0  0  0  0
 21 20  1  6  0  0  0
 22 21  1  0  0  0  0
 23 22  1  0  0  0  0
 23 21  1  0  0  0  0
 25 26  1  6  0  0  0
 25 24  1  0  0  0  0
 25 29  1  0  0  0  0
 27 26  1  0  0  0  0
 28 27  1  0  0  0  0
 29 32  1  0  0  0  0
 31 30  1  0  0  0  0
 32 31  1  0  0  0  0
 32 30  1  0  0  0  0
M  END
>  <MODEL>
5

>  <REMARK>
 VINA RESULT:      -6.9      3.203     10.366
  Name = 
  9 active torsions:
  status: ('A' for Active; 'I' for Inactive)
    1  A    between atoms: C_1  and  N_10
    2  A    between atoms: C_2  and  C_24
    3  A    between atoms: O_6  and  C_7
    4  A    between atoms: C_7  and  C_32
    5  A    between atoms: N_10  and  C_24
    6  A    between atoms: C_16  and  C_27
    7  A    between atoms: C_22  and  C_30
    8  A    between atoms: C_22  and  C_32
    9  A    between atoms: C_27  and  C_32
                            x       y       z     vdW  Elec       q    Type
                         _______ _______ _______ _____ _____    ______ ____

>  <TORSDO>
F 9

$$$$
=
 OpenBabel11052421373D

 32 37  0  0  1  0  0  0  0  0999 V2000
  196.0620  174.4160  145.2450 C   0  0  0  0  0  0  0  0  0  0  0  0
  191.7920  176.5360  143.5990 C   0  0  0  0  0  0  0  0  0  0  0  0
  188.4890  175.6460  147.0570 C   0  0  0  0  0  3  0  0  0  0  0  0
  187.5340  176.3280  146.3010 C   0  0  0  0  0  3  0  0  0  0  0  0
  194.0790  175.7640  143.7990 C   0  0  0  0  0  0  0  0  0  0  0  0
  192.4810  175.2860  145.5700 C   0  0  0  0  0  3  0  0  0  0  0  0
  194.7690  174.5180  145.7700 C   0  0  0  0  0  3  0  0  0  0  0  0
  189.7960  175.5210  146.5820 C   0  0  0  0  0  3  0  0  0  0  0  0
  191.4780  175.9590  144.8510 C   0  0  0  0  0  0  0  0  0  0  0  0
  190.1650  176.0760  145.3450 C   0  0  0  0  0  0  0  0  0  0  0  0
  189.5610  177.3240  143.3400 C   0  0  0  0  0  0  0  0  0  0  0  0
  196.3640  174.9920  144.0060 C   0  0  0  0  0  3  0  0  0  0  0  0
  193.7740  175.1860  145.0520 C   0  0  0  0  0  0  0  0  0  0  0  0
  195.3730  175.6640  143.2830 C   0  0  0  0  0  3  0  0  0  0  0  0
  187.8830  176.8860  145.0710 C   0  0  0  0  0  3  0  0  0  0  0  0
  189.1930  176.7670  144.5790 C   0  0  0  0  0  0  0  0  0  0  0  0
  193.0860  176.4350  143.0820 C   0  0  0  0  0  3  0  0  0  0  0  0
  190.8360  177.1900  142.8910 N   0  0  0  0  0  0  0  0  0  0  0  0
  197.1260  173.7240  146.0230 C   0  0  0  0  0  2  0  0  0  0  0  0
  196.8040  172.3130  146.1490 N   0  0  0  0  0  2  0  0  0  0  0  0
  197.4290  171.6380  145.0280 C   0  0  1  0  0  3  0  0  0  0  0  0
  197.7050  170.3070  145.3880 O   0  0  0  0  0  0  0  0  0  0  0  0
  196.5730  170.5180  144.5820 C   0  0  0  0  0  2  0  0  0  0  0  0
  188.5680  178.0380  142.4750 C   0  0  0  0  0  2  0  0  0  0  0  0
  187.5150  177.0680  141.9400 C   0  0  1  0  0  3  0  0  0  0  0  0
  186.5160  177.7650  141.0210 C   0  0  0  0  0  2  0  0  0  0  0  0
  185.6060  178.5330  141.7510 O   0  0  0  0  0  0  0  0  0  0  0  0
  184.9600  177.6170  142.5790 C   0  0  0  0  0  1  0  0  0  0  0  0
  188.1120  175.8040  141.3130 C   0  0  0  0  0  2  0  0  0  0  0  0
  188.2560  173.3350  141.3010 C   0  0  0  0  0  2  0  0  0  0  0  0
  189.0070  173.8380  142.5120 C   0  0  0  0  0  2  0  0  0  0  0  0
  187.7400  174.5360  142.0670 C   0  0  0  0  0  3  0  0  0  0  0  0
  1  7  1  0  0  0  0
  1 19  1  0  0  0  0
  2  9  1  0  0  0  0
  4  3  2  0  0  0  0
  5 13  1  0  0  0  0
  8  3  1  0  0  0  0
  9 10  1  0  0  0  0
  9  6  2  0  0  0  0
 10  8  2  0  0  0  0
 11 16  1  0  0  0  0
 12  1  2  0  0  0  0
 13  6  1  0  0  0  0
 13  7  2  0  0  0  0
 14  5  2  0  0  0  0
 14 12  1  0  0  0  0
 15  4  1  0  0  0  0
 16 15  2  0  0  0  0
 16 10  1  0  0  0  0
 17  2  2  0  0  0  0
 17  5  1  0  0  0  0
 18 11  2  0  0  0  0
 18  2  1  0  0  0  0
 19 20  1  0  0  0  0
 21 22  1  0  0  0  0
 21 20  1  1  0  0  0
 23 21  1  0  0  0  0
 23 22  1  0  0  0  0
 24 11  1  0  0  0  0
 25 26  1  6  0  0  0
 25 24  1  0  0  0  0
 26 27  1  0  0  0  0
 27 28  1  0  0  0  0
 29 25  1  0  0  0  0
 29 32  1  0  0  0  0
 30 32  1  0  0  0  0
 30 31  1  0  0  0  0
 32 31  1  0  0  0  0
M  END
>  <MODEL>
6

>  <REMARK>
 VINA RESULT:      -6.9      3.300     10.076
  Name = 
  9 active torsions:
  status: ('A' for Active; 'I' for Inactive)
    1  A    between atoms: C_1  and  N_10
    2  A    between atoms: C_2  and  C_24
    3  A    between atoms: O_6  and  C_7
    4  A    between atoms: C_7  and  C_32
    5  A    between atoms: N_10  and  C_24
    6  A    between atoms: C_16  and  C_27
    7  A    between atoms: C_22  and  C_30
    8  A    between atoms: C_22  and  C_32
    9  A    between atoms: C_27  and  C_32
                            x       y       z     vdW  Elec       q    Type
                         _______ _______ _______ _____ _____    ______ ____

>  <TORSDO>
F 9

$$$$
=
 OpenBabel11052421373D

 32 37  0  0  1  0  0  0  0  0999 V2000
  186.8110  177.8050  143.5100 C   0  0  0  0  0  0  0  0  0  0  0  0
  190.7250  174.6250  143.5630 C   0  0  0  0  0  0  0  0  0  0  0  0
  194.0910  176.7630  146.3480 C   0  0  0  0  0  3  0  0  0  0  0  0
  194.9390  175.6750  146.1350 C   0  0  0  0  0  3  0  0  0  0  0  0
  188.5810  175.6670  143.1380 C   0  0  0  0  0  0  0  0  0  0  0  0
  190.2150  176.7920  144.5450 C   0  0  0  0  0  3  0  0  0  0  0  0
  188.0680  177.8310  144.1230 C   0  0  0  0  0  3  0  0  0  0  0  0
  192.8230  176.7850  145.7640 C   0  0  0  0  0  3  0  0  0  0  0  0
  191.1110  175.7250  144.3640 C   0  0  0  0  0  0  0  0  0  0  0  0
  192.3860  175.7190  144.9590 C   0  0  0  0  0  0  0  0  0  0  0  0
  192.8130  173.5470  143.9390 C   0  0  0  0  0  0  0  0  0  0  0  0
  186.4370  176.7120  142.7210 C   0  0  0  0  0  3  0  0  0  0  0  0
  188.9570  176.7680  143.9390 C   0  0  0  0  0  0  0  0  0  0  0  0
  187.3220  175.6440  142.5340 C   0  0  0  0  0  3  0  0  0  0  0  0
  194.5220  174.6070  145.3390 C   0  0  0  0  0  3  0  0  0  0  0  0
  193.2500  174.6160  144.7440 C   0  0  0  0  0  0  0  0  0  0  0  0
  189.4670  174.6030  142.9560 C   0  0  0  0  0  3  0  0  0  0  0  0
  191.5780  173.5860  143.3760 N   0  0  0  0  0  0  0  0  0  0  0  0
  185.8570  178.9270  143.7270 C   0  0  0  0  0  2  0  0  0  0  0  0
  185.6780  179.1500  145.1520 N   0  0  0  0  0  2  0  0  0  0  0  0
  184.4950  178.4090  145.5470 C   0  0  1  0  0  3  0  0  0  0  0  0
  184.8890  177.2310  146.2080 O   0  0  0  0  0  0  0  0  0  0  0  0
  184.4510  178.2910  147.0200 C   0  0  0  0  0  2  0  0  0  0  0  0
  193.6950  172.3700  143.6530 C   0  0  0  0  0  2  0  0  0  0  0  0
  193.4110  171.2270  144.6260 C   0  0  1  0  0  3  0  0  0  0  0  0
  192.9140  169.9770  143.9040 C   0  0  0  0  0  2  0  0  0  0  0  0
  193.4520  169.8870  142.6190 O   0  0  0  0  0  0  0  0  0  0  0  0
  194.0890  168.6470  142.5920 C   0  0  0  0  0  1  0  0  0  0  0  0
  194.5730  170.9350  145.5810 C   0  0  0  0  0  2  0  0  0  0  0  0
  196.8170  171.9120  145.9360 C   0  0  0  0  0  2  0  0  0  0  0  0
  196.9850  170.4240  145.7350 C   0  0  0  0  0  2  0  0  0  0  0  0
  195.9350  171.1780  144.9470 C   0  0  0  0  0  3  0  0  0  0  0  0
  1 19  1  0  0  0  0
  1  7  1  0  0  0  0
  2  9  1  0  0  0  0
  4  3  1  0  0  0  0
  5 13  1  0  0  0  0
  8  3  2  0  0  0  0
  9  6  2  0  0  0  0
  9 10  1  0  0  0  0
 10  8  1  0  0  0  0
 11 16  1  0  0  0  0
 12  1  2  0  0  0  0
 13  7  2  0  0  0  0
 13  6  1  0  0  0  0
 14 12  1  0  0  0  0
 14  5  2  0  0  0  0
 15  4  2  0  0  0  0
 16 10  2  0  0  0  0
 16 15  1  0  0  0  0
 17  5  1  0  0  0  0
 17  2  2  0  0  0  0
 18  2  1  0  0  0  0
 18 11  2  0  0  0  0
 19 20  1  0  0  0  0
 21 20  1  1  0  0  0
 21 22  1  0  0  0  0
 21 23  1  0  0  0  0
 22 23  1  0  0  0  0
 24 11  1  0  0  0  0
 25 24  1  6  0  0  0
 25 29  1  0  0  0  0
 26 25  1  0  0  0  0
 27 26  1  0  0  0  0
 28 27  1  0  0  0  0
 31 30  1  0  0  0  0
 32 29  1  0  0  0  0
 32 31  1  0  0  0  0
 32 30  1  0  0  0  0
M  END
>  <MODEL>
7

>  <REMARK>
 VINA RESULT:      -6.8      3.547      5.434
  Name = 
  9 active torsions:
  status: ('A' for Active; 'I' for Inactive)
    1  A    between atoms: C_1  and  N_10
    2  A    between atoms: C_2  and  C_24
    3  A    between atoms: O_6  and  C_7
    4  A    between atoms: C_7  and  C_32
    5  A    between atoms: N_10  and  C_24
    6  A    between atoms: C_16  and  C_27
    7  A    between atoms: C_22  and  C_30
    8  A    between atoms: C_22  and  C_32
    9  A    between atoms: C_27  and  C_32
                            x       y       z     vdW  Elec       q    Type
                         _______ _______ _______ _____ _____    ______ ____

>  <TORSDO>
F 9

$$$$
=
 OpenBabel11052421373D

 32 37  0  0  1  0  0  0  0  0999 V2000
  196.0610  174.5580  145.2080 C   0  0  0  0  0  0  0  0  0  0  0  0
  191.7570  176.7480  143.7540 C   0  0  0  0  0  0  0  0  0  0  0  0
  188.5190  175.6650  147.2180 C   0  0  0  0  0  3  0  0  0  0  0  0
  187.5490  176.3830  146.5170 C   0  0  0  0  0  3  0  0  0  0  0  0
  194.0490  175.9740  143.8720 C   0  0  0  0  0  0  0  0  0  0  0  0
  192.4850  175.3970  145.6430 C   0  0  0  0  0  3  0  0  0  0  0  0
  194.7780  174.6270  145.7610 C   0  0  0  0  0  3  0  0  0  0  0  0
  189.8180  175.5690  146.7130 C   0  0  0  0  0  3  0  0  0  0  0  0
  191.4670  176.1040  144.9790 C   0  0  0  0  0  0  0  0  0  0  0  0
  190.1630  176.1900  145.5010 C   0  0  0  0  0  0  0  0  0  0  0  0
  189.5200  177.5410  143.5770 C   0  0  0  0  0  0  0  0  0  0  0  0
  196.3390  175.2000  143.9970 C   0  0  0  0  0  3  0  0  0  0  0  0
  193.7680  175.3300  145.0970 C   0  0  0  0  0  0  0  0  0  0  0  0
  195.3340  175.9060  143.3280 C   0  0  0  0  0  3  0  0  0  0  0  0
  187.8740  177.0060  145.3110 C   0  0  0  0  0  3  0  0  0  0  0  0
  189.1760  176.9180  144.7910 C   0  0  0  0  0  0  0  0  0  0  0  0
  193.0420  176.6790  143.2090 C   0  0  0  0  0  3  0  0  0  0  0  0
  190.7870  177.4350  143.0980 N   0  0  0  0  0  0  0  0  0  0  0  0
  197.1410  173.8300  145.9290 C   0  0  0  0  0  2  0  0  0  0  0  0
  196.7680  172.4350  146.0930 N   0  0  0  0  0  2  0  0  0  0  0  0
  197.4040  171.7010  145.0140 C   0  0  1  0  0  3  0  0  0  0  0  0
  197.3980  170.3300  145.3250 O   0  0  0  0  0  0  0  0  0  0  0  0
  196.4310  170.7710  144.4050 C   0  0  0  0  0  2  0  0  0  0  0  0
  188.5100  178.2960  142.7690 C   0  0  0  0  0  2  0  0  0  0  0  0
  187.7560  177.3590  141.8250 C   0  0  1  0  0  3  0  0  0  0  0  0
  188.4940  176.0380  141.6280 C   0  0  0  0  0  2  0  0  0  0  0  0
  187.7480  174.9630  142.1150 O   0  0  0  0  0  0  0  0  0  0  0  0
  188.6960  173.9880  142.4200 C   0  0  0  0  0  1  0  0  0  0  0  0
  186.2850  177.1640  142.2070 C   0  0  0  0  0  2  0  0  0  0  0  0
  184.1000  178.2930  142.4550 C   0  0  0  0  0  2  0  0  0  0  0  0
  184.7380  178.2120  143.8220 C   0  0  0  0  0  2  0  0  0  0  0  0
  185.5980  178.4620  142.6010 C   0  0  0  0  0  3  0  0  0  0  0  0
  1  7  1  0  0  0  0
  1 19  1  0  0  0  0
  2  9  1  0  0  0  0
  4  3  2  0  0  0  0
  5 13  1  0  0  0  0
  8  3  1  0  0  0  0
  9 10  1  0  0  0  0
  9  6  2  0  0  0  0
 10  8  2  0  0  0  0
 11 16  1  0  0  0  0
 12  1  2  0  0  0  0
 13  6  1  0  0  0  0
 13  7  2  0  0  0  0
 14  5  2  0  0  0  0
 14 12  1  0  0  0  0
 15  4  1  0  0  0  0
 16 15  2  0  0  0  0
 16 10  1  0  0  0  0
 17  2  2  0  0  0  0
 17  5  1  0  0  0  0
 18 11  2  0  0  0  0
 18  2  1  0  0  0  0
 19 20  1  0  0  0  0
 21 22  1  0  0  0  0
 21 20  1  1  0  0  0
 23 21  1  0  0  0  0
 23 22  1  0  0  0  0
 24 11  1  0  0  0  0
 25 26  1  1  0  0  0
 25 29  1  0  0  0  0
 25 24  1  0  0  0  0
 26 27  1  0  0  0  0
 27 28  1  0  0  0  0
 29 32  1  0  0  0  0
 30 32  1  0  0  0  0
 30 31  1  0  0  0  0
 32 31  1  0  0  0  0
M  END
>  <MODEL>
8

>  <REMARK>
 VINA RESULT:      -6.6      3.231     10.113
  Name = 
  9 active torsions:
  status: ('A' for Active; 'I' for Inactive)
    1  A    between atoms: C_1  and  N_10
    2  A    between atoms: C_2  and  C_24
    3  A    between atoms: O_6  and  C_7
    4  A    between atoms: C_7  and  C_32
    5  A    between atoms: N_10  and  C_24
    6  A    between atoms: C_16  and  C_27
    7  A    between atoms: C_22  and  C_30
    8  A    between atoms: C_22  and  C_32
    9  A    between atoms: C_27  and  C_32
                            x       y       z     vdW  Elec       q    Type
                         _______ _______ _______ _____ _____    ______ ____

>  <TORSDO>
F 9

$$$$
=
 OpenBabel11052421373D

 32 37  0  0  1  0  0  0  0  0999 V2000
  196.0120  173.7230  144.7600 C   0  0  0  0  0  0  0  0  0  0  0  0
  191.5020  175.9780  144.8860 C   0  0  0  0  0  0  0  0  0  0  0  0
  189.1300  174.3480  140.9650 C   0  0  0  0  0  3  0  0  0  0  0  0
  188.0300  175.1280  141.3230 C   0  0  0  0  0  3  0  0  0  0  0  0
  193.7570  175.2570  145.3970 C   0  0  0  0  0  0  0  0  0  0  0  0
  192.6300  174.3970  143.4210 C   0  0  0  0  0  3  0  0  0  0  0  0
  194.8830  173.6740  143.9340 C   0  0  0  0  0  3  0  0  0  0  0  0
  190.2800  174.3560  141.7580 C   0  0  0  0  0  3  0  0  0  0  0  0
  191.4940  175.1640  143.7300 C   0  0  0  0  0  0  0  0  0  0  0  0
  190.3440  175.1440  142.9190 C   0  0  0  0  0  0  0  0  0  0  0  0
  189.2870  176.7270  144.4430 C   0  0  0  0  0  0  0  0  0  0  0  0
  196.0100  174.5300  145.9030 C   0  0  0  0  0  3  0  0  0  0  0  0
  193.7560  174.4390  144.2450 C   0  0  0  0  0  0  0  0  0  0  0  0
  194.8840  175.2970  146.2210 C   0  0  0  0  0  3  0  0  0  0  0  0
  188.0760  175.9180  142.4730 C   0  0  0  0  0  3  0  0  0  0  0  0
  189.2250  175.9370  143.2800 C   0  0  0  0  0  0  0  0  0  0  0  0
  192.6300  176.0200  145.7090 C   0  0  0  0  0  3  0  0  0  0  0  0
  190.4140  176.7260  145.2010 N   0  0  0  0  0  0  0  0  0  0  0  0
  197.2020  172.8880  144.4410 C   0  0  0  0  0  2  0  0  0  0  0  0
  196.8230  171.4860  144.4060 N   0  0  0  0  0  2  0  0  0  0  0  0
  197.0290  170.9620  145.7430 C   0  0  1  0  0  3  0  0  0  0  0  0
  195.8740  170.2690  146.1470 O   0  0  0  0  0  0  0  0  0  0  0  0
  196.9580  169.4860  145.7140 C   0  0  0  0  0  2  0  0  0  0  0  0
  188.1470  177.6070  144.8550 C   0  0  0  0  0  2  0  0  0  0  0  0
  187.0340  176.7870  145.5070 C   0  0  1  0  0  3  0  0  0  0  0  0
  187.0970  176.8560  147.0310 C   0  0  0  0  0  2  0  0  0  0  0  0
  185.9180  177.3810  147.5630 O   0  0  0  0  0  0  0  0  0  0  0  0
  186.2740  178.6500  148.0170 C   0  0  0  0  0  1  0  0  0  0  0  0
  185.6400  177.1070  144.9580 C   0  0  0  0  0  2  0  0  0  0  0  0
  184.5140  178.1750  143.0330 C   0  0  0  0  0  2  0  0  0  0  0  0
  184.3180  179.0660  144.2380 C   0  0  0  0  0  2  0  0  0  0  0  0
  185.6260  178.3270  144.0500 C   0  0  0  0  0  3  0  0  0  0  0  0
  1 12  1  0  0  0  0
  2 18  1  0  0  0  0
  2 17  1  0  0  0  0
  3  4  2  0  0  0  0
  3  8  1  0  0  0  0
  4 15  1  0  0  0  0
  5 17  2  0  0  0  0
  5 14  1  0  0  0  0
  6  9  1  0  0  0  0
  6 13  2  0  0  0  0
  7 13  1  0  0  0  0
  7  1  2  0  0  0  0
  8 10  2  0  0  0  0
  9  2  2  0  0  0  0
 10 16  1  0  0  0  0
 10  9  1  0  0  0  0
 11 24  1  0  0  0  0
 11 18  2  0  0  0  0
 12 14  2  0  0  0  0
 13  5  1  0  0  0  0
 15 16  2  0  0  0  0
 16 11  1  0  0  0  0
 19  1  1  0  0  0  0
 20 19  1  0  0  0  0
 21 20  1  6  0  0  0
 21 22  1  0  0  0  0
 23 21  1  0  0  0  0
 23 22  1  0  0  0  0
 25 24  1  6  0  0  0
 25 26  1  0  0  0  0
 26 27  1  0  0  0  0
 27 28  1  0  0  0  0
 29 25  1  0  0  0  0
 30 32  1  0  0  0  0
 30 31  1  0  0  0  0
 32 31  1  0  0  0  0
 32 29  1  0  0  0  0
M  END
>  <MODEL>
9

>  <REMARK>
 VINA RESULT:      -6.6      3.703     10.736
  Name = 
  9 active torsions:
  status: ('A' for Active; 'I' for Inactive)
    1  A    between atoms: C_1  and  N_10
    2  A    between atoms: C_2  and  C_24
    3  A    between atoms: O_6  and  C_7
    4  A    between atoms: C_7  and  C_32
    5  A    between atoms: N_10  and  C_24
    6  A    between atoms: C_16  and  C_27
    7  A    between atoms: C_22  and  C_30
    8  A    between atoms: C_22  and  C_32
    9  A    between atoms: C_27  and  C_32
                            x       y       z     vdW  Elec       q    Type
                         _______ _______ _______ _____ _____    ______ ____

>  <TORSDO>
F 9

$$$$
