=
 OpenBabel11052417513D

 31 35  0  0  0  0  0  0  0  0999 V2000
  185.0500  178.0580  146.4910 C   0  0  0  0  0  0  0  0  0  0  0  0
  187.5050  176.9800  143.8460 C   0  0  0  0  0  0  0  0  0  0  0  0
  186.8840  177.2020  142.5780 C   0  0  0  0  0  0  0  0  0  0  0  0
  191.1790  175.5580  147.3430 O   0  0  0  0  0  0  0  0  0  0  0  0
  191.6230  175.3470  146.1810 C   0  0  0  0  0  0  0  0  0  0  0  0
  185.0120  177.9370  141.1880 C   0  0  0  0  0  0  0  0  0  0  0  0
  186.9000  177.2610  145.1090 C   0  0  0  0  0  0  0  0  0  0  0  0
  185.7800  177.7870  147.6470 C   0  0  0  0  0  3  0  0  0  0  0  0
  185.5880  177.7320  142.4440 C   0  0  0  0  0  3  0  0  0  0  0  0
  189.4890  176.1950  145.0530 C   0  0  0  0  0  0  0  0  0  0  0  0
  183.6800  178.6230  146.5920 C   0  0  0  0  0  1  0  0  0  0  0  0
  188.8710  176.3570  141.4690 C   0  0  0  0  0  3  0  0  0  0  0  0
  183.7300  178.4600  141.0890 O   0  0  0  0  0  1  0  0  0  0  0  0
  188.8780  176.4760  146.2320 N   0  0  0  0  0  0  0  0  0  0  0  0
  188.8210  176.4380  143.8460 C   0  0  0  0  0  0  0  0  0  0  0  0
  190.8160  175.6490  145.0340 N   0  0  0  0  0  2  0  0  0  0  0  0
  185.6060  177.7960  145.2370 C   0  0  0  0  0  3  0  0  0  0  0  0
  185.7240  177.6130  140.0330 C   0  0  0  0  0  3  0  0  0  0  0  0
  187.6270  176.9920  146.2950 C   0  0  0  0  0  0  0  0  0  0  0  0
  187.0660  177.2560  147.5490 C   0  0  0  0  0  3  0  0  0  0  0  0
  189.4500  176.1490  142.6750 N   0  0  0  0  0  0  0  0  0  0  0  0
  187.5890  176.8810  141.3910 C   0  0  0  0  0  0  0  0  0  0  0  0
  187.0110  177.0870  140.1350 C   0  0  0  0  0  3  0  0  0  0  0  0
  195.5210  173.6460  145.6040 C   0  0  0  0  0  0  0  0  0  0  0  0
  193.1100  173.4740  145.5070 C   0  0  0  0  0  3  0  0  0  0  0  0
  194.0780  176.7940  146.7540 F   0  0  0  0  0  0  0  0  0  0  0  0
  196.7450  173.0980  145.4170 F   0  0  0  0  0  0  0  0  0  0  0  0
  194.3730  172.9080  145.3130 C   0  0  0  0  0  3  0  0  0  0  0  0
  194.1460  175.5250  146.2830 C   0  0  0  0  0  0  0  0  0  0  0  0
  192.9790  174.7850  145.9910 C   0  0  0  0  0  0  0  0  0  0  0  0
  195.4060  174.9510  146.0870 C   0  0  0  0  0  3  0  0  0  0  0  0
  1 11  1  0  0  0  0
  1  8  1  0  0  0  0
  2 15  1  0  0  0  0
  2  7  1  0  0  0  0
  3  2  2  0  0  0  0
  5  4  2  0  0  0  0
  6  9  2  0  0  0  0
  7 17  1  0  0  0  0
  7 19  2  0  0  0  0
  9  3  1  0  0  0  0
 10 14  2  0  0  0  0
 12 21  1  0  0  0  0
 13  6  1  0  0  0  0
 14 19  1  0  0  0  0
 15 10  1  0  0  0  0
 16 10  1  0  0  0  0
 16  5  1  0  0  0  0
 17  1  2  0  0  0  0
 18 23  2  0  0  0  0
 18  6  1  0  0  0  0
 19 20  1  0  0  0  0
 20  8  2  0  0  0  0
 21 15  2  0  0  0  0
 22 12  2  0  0  0  0
 22  3  1  0  0  0  0
 23 22  1  0  0  0  0
 24 31  1  0  0  0  0
 25 30  2  0  0  0  0
 27 24  1  0  0  0  0
 28 25  1  0  0  0  0
 28 24  2  0  0  0  0
 29 26  1  0  0  0  0
 30  5  1  0  0  0  0
 30 29  1  0  0  0  0
 31 29  2  0  0  0  0
M  END
>  <MODEL>
1

>  <REMARK>
 VINA RESULT:      -9.5      0.000      0.000
  Name = 
  1 active torsions:
  status: ('A' for Active; 'I' for Inactive)
    1  A    between atoms: C_9  and  C_22
                            x       y       z     vdW  Elec       q    Type
                         _______ _______ _______ _____ _____    ______ ____

>  <TORSDO>
F 1

$$$$
=
 OpenBabel11052417513D

 31 35  0  0  0  0  0  0  0  0999 V2000
  185.7200  177.8290  141.1210 C   0  0  0  0  0  0  0  0  0  0  0  0
  187.4920  177.4100  144.4180 C   0  0  0  0  0  0  0  0  0  0  0  0
  186.5740  177.7970  145.4420 C   0  0  0  0  0  0  0  0  0  0  0  0
  191.9530  175.7020  142.1990 O   0  0  0  0  0  0  0  0  0  0  0  0
  192.1070  175.7240  143.4500 C   0  0  0  0  0  0  0  0  0  0  0  0
  184.3960  178.6110  146.1980 C   0  0  0  0  0  0  0  0  0  0  0  0
  187.2040  177.4250  143.0200 C   0  0  0  0  0  0  0  0  0  0  0  0
  186.7190  177.4220  140.2370 C   0  0  0  0  0  3  0  0  0  0  0  0
  185.2670  178.2410  145.1710 C   0  0  0  0  0  3  0  0  0  0  0  0
  189.7350  176.5860  143.8730 C   0  0  0  0  0  0  0  0  0  0  0  0
  184.3980  178.2630  140.6010 C   0  0  0  0  0  1  0  0  0  0  0  0
  188.2580  177.3080  147.1220 C   0  0  0  0  0  3  0  0  0  0  0  0
  183.1120  179.0450  145.8970 O   0  0  0  0  0  1  0  0  0  0  0  0
  189.4210  176.6150  142.5530 N   0  0  0  0  0  0  0  0  0  0  0  0
  188.7860  176.9800  144.8250 C   0  0  0  0  0  0  0  0  0  0  0  0
  191.0360  176.1550  144.3020 N   0  0  0  0  0  2  0  0  0  0  0  0
  185.9630  177.8300  142.4960 C   0  0  0  0  0  3  0  0  0  0  0  0
  184.8160  178.5460  147.5270 C   0  0  0  0  0  3  0  0  0  0  0  0
  188.2070  177.0150  142.1060 C   0  0  0  0  0  0  0  0  0  0  0  0
  187.9590  177.0160  140.7300 C   0  0  0  0  0  3  0  0  0  0  0  0
  189.1210  176.9450  146.1430 N   0  0  0  0  0  0  0  0  0  0  0  0
  186.9800  177.7390  146.8000 C   0  0  0  0  0  0  0  0  0  0  0  0
  186.1060  178.1110  147.8270 C   0  0  0  0  0  3  0  0  0  0  0  0
  195.8750  174.5820  145.1590 C   0  0  0  0  0  0  0  0  0  0  0  0
  194.5420  176.0770  143.8030 C   0  0  0  0  0  3  0  0  0  0  0  0
  192.4290  173.3810  145.1400 F   0  0  0  0  0  0  0  0  0  0  0  0
  197.0700  174.2330  145.6920 F   0  0  0  0  0  0  0  0  0  0  0  0
  195.7750  175.7180  144.3540 C   0  0  0  0  0  3  0  0  0  0  0  0
  193.5050  174.1610  144.8680 C   0  0  0  0  0  0  0  0  0  0  0  0
  193.3940  175.3080  144.0520 C   0  0  0  0  0  0  0  0  0  0  0  0
  194.7430  173.8070  145.4140 C   0  0  0  0  0  3  0  0  0  0  0  0
  1 17  1  0  0  0  0
  2 15  2  0  0  0  0
  2  3  1  0  0  0  0
  3 22  1  0  0  0  0
  4  5  2  0  0  0  0
  5 30  1  0  0  0  0
  5 16  1  0  0  0  0
  6 18  2  0  0  0  0
  7  2  1  0  0  0  0
  8 20  1  0  0  0  0
  8  1  2  0  0  0  0
  9  3  2  0  0  0  0
  9  6  1  0  0  0  0
 10 16  1  0  0  0  0
 10 15  1  0  0  0  0
 11  1  1  0  0  0  0
 13  6  1  0  0  0  0
 14 10  2  0  0  0  0
 15 21  1  0  0  0  0
 17  7  2  0  0  0  0
 18 23  1  0  0  0  0
 19 14  1  0  0  0  0
 19  7  1  0  0  0  0
 20 19  2  0  0  0  0
 21 12  2  0  0  0  0
 22 12  1  0  0  0  0
 22 23  2  0  0  0  0
 24 31  1  0  0  0  0
 24 27  1  0  0  0  0
 25 30  2  0  0  0  0
 25 28  1  0  0  0  0
 28 24  2  0  0  0  0
 29 26  1  0  0  0  0
 29 31  2  0  0  0  0
 30 29  1  0  0  0  0
M  END
>  <MODEL>
2

>  <REMARK>
 VINA RESULT:      -9.1      1.859      4.275
  Name = 
  1 active torsions:
  status: ('A' for Active; 'I' for Inactive)
    1  A    between atoms: C_9  and  C_22
                            x       y       z     vdW  Elec       q    Type
                         _______ _______ _______ _____ _____    ______ ____

>  <TORSDO>
F 1

$$$$
=
 OpenBabel11052417513D

 31 35  0  0  0  0  0  0  0  0999 V2000
  195.0470  174.4670  145.7620 C   0  0  0  0  0  0  0  0  0  0  0  0
  191.6610  173.5710  144.3760 C   0  0  0  0  0  0  0  0  0  0  0  0
  191.8120  172.3470  143.6540 C   0  0  0  0  0  0  0  0  0  0  0  0
  189.3130  177.8150  146.4300 O   0  0  0  0  0  0  0  0  0  0  0  0
  188.4520  177.1410  145.8020 C   0  0  0  0  0  0  0  0  0  0  0  0
  193.1510  170.4770  142.8230 C   0  0  0  0  0  0  0  0  0  0  0  0
  192.7180  174.2500  145.0550 C   0  0  0  0  0  0  0  0  0  0  0  0
  194.7480  175.6560  146.4250 C   0  0  0  0  0  3  0  0  0  0  0  0
  193.0410  171.6730  143.5370 C   0  0  0  0  0  3  0  0  0  0  0  0
  190.1450  175.3530  145.1080 C   0  0  0  0  0  0  0  0  0  0  0  0
  196.4350  173.9360  145.7730 C   0  0  0  0  0  1  0  0  0  0  0  0
  189.4470  172.3950  143.1030 C   0  0  0  0  0  3  0  0  0  0  0  0
  194.3780  169.8370  142.7270 O   0  0  0  0  0  1  0  0  0  0  0  0
  191.1780  175.9650  145.7410 N   0  0  0  0  0  0  0  0  0  0  0  0
  190.3630  174.1530  144.4180 C   0  0  0  0  0  0  0  0  0  0  0  0
  188.8290  175.9250  145.1400 N   0  0  0  0  0  2  0  0  0  0  0  0
  194.0410  173.7740  145.0840 C   0  0  0  0  0  3  0  0  0  0  0  0
  192.0260  169.9280  142.2060 C   0  0  0  0  0  3  0  0  0  0  0  0
  192.4340  175.4600  145.7360 C   0  0  0  0  0  0  0  0  0  0  0  0
  193.4450  176.1500  146.4120 C   0  0  0  0  0  3  0  0  0  0  0  0
  189.3160  173.5540  143.7890 N   0  0  0  0  0  0  0  0  0  0  0  0
  190.6830  171.7700  143.0190 C   0  0  0  0  0  0  0  0  0  0  0  0
  190.7940  170.5730  142.3040 C   0  0  0  0  0  3  0  0  0  0  0  0
  184.3920  178.5110  145.5560 C   0  0  0  0  0  0  0  0  0  0  0  0
  186.6570  178.4690  144.7100 C   0  0  0  0  0  3  0  0  0  0  0  0
  186.4010  176.3490  147.7030 F   0  0  0  0  0  0  0  0  0  0  0  0
  183.1140  178.9500  145.4680 F   0  0  0  0  0  0  0  0  0  0  0  0
  185.3390  178.9220  144.6170 C   0  0  0  0  0  3  0  0  0  0  0  0
  186.0810  177.1870  146.6860 C   0  0  0  0  0  0  0  0  0  0  0  0
  187.0460  177.5980  145.7400 C   0  0  0  0  0  0  0  0  0  0  0  0
  184.7630  177.6460  146.5880 C   0  0  0  0  0  3  0  0  0  0  0  0
  1 11  1  0  0  0  0
  1  8  1  0  0  0  0
  2 15  1  0  0  0  0
  2  7  1  0  0  0  0
  3  2  2  0  0  0  0
  5  4  2  0  0  0  0
  6  9  2  0  0  0  0
  7 17  1  0  0  0  0
  7 19  2  0  0  0  0
  9  3  1  0  0  0  0
 10 16  1  0  0  0  0
 10 14  2  0  0  0  0
 12 21  1  0  0  0  0
 13  6  1  0  0  0  0
 15 10  1  0  0  0  0
 16  5  1  0  0  0  0
 17  1  2  0  0  0  0
 18 23  2  0  0  0  0
 18  6  1  0  0  0  0
 19 14  1  0  0  0  0
 19 20  1  0  0  0  0
 20  8  2  0  0  0  0
 21 15  2  0  0  0  0
 22 12  2  0  0  0  0
 22  3  1  0  0  0  0
 23 22  1  0  0  0  0
 24 31  1  0  0  0  0
 25 30  2  0  0  0  0
 27 24  1  0  0  0  0
 28 25  1  0  0  0  0
 28 24  2  0  0  0  0
 29 26  1  0  0  0  0
 30  5  1  0  0  0  0
 30 29  1  0  0  0  0
 31 29  2  0  0  0  0
M  END
>  <MODEL>
3

>  <REMARK>
 VINA RESULT:      -9.1      3.594      8.401
  Name = 
  1 active torsions:
  status: ('A' for Active; 'I' for Inactive)
    1  A    between atoms: C_9  and  C_22
                            x       y       z     vdW  Elec       q    Type
                         _______ _______ _______ _____ _____    ______ ____

>  <TORSDO>
F 1

$$$$
=
 OpenBabel11052417513D

 31 35  0  0  0  0  0  0  0  0999 V2000
  190.9340  176.7980  147.3620 C   0  0  0  0  0  0  0  0  0  0  0  0
  188.2710  176.4420  144.7210 C   0  0  0  0  0  0  0  0  0  0  0  0
  187.1310  177.1750  145.1710 C   0  0  0  0  0  0  0  0  0  0  0  0
  191.2710  173.4310  141.6100 O   0  0  0  0  0  0  0  0  0  0  0  0
  190.1500  173.5940  141.0550 C   0  0  0  0  0  0  0  0  0  0  0  0
  185.9680  178.5790  146.8010 C   0  0  0  0  0  0  0  0  0  0  0  0
  189.5000  176.3260  145.4410 C   0  0  0  0  0  0  0  0  0  0  0  0
  191.9620  176.0460  146.7950 C   0  0  0  0  0  3  0  0  0  0  0  0
  187.1020  177.8720  146.3930 C   0  0  0  0  0  3  0  0  0  0  0  0
  189.2540  175.0420  142.9650 C   0  0  0  0  0  0  0  0  0  0  0  0
  191.1300  177.4530  148.6810 C   0  0  0  0  0  1  0  0  0  0  0  0
  185.9420  176.5440  143.1500 C   0  0  0  0  0  3  0  0  0  0  0  0
  185.9720  179.2560  148.0130 O   0  0  0  0  0  1  0  0  0  0  0  0
  190.4030  174.9580  143.6800 N   0  0  0  0  0  0  0  0  0  0  0  0
  188.1730  175.7790  143.4650 C   0  0  0  0  0  0  0  0  0  0  0  0
  189.1360  174.3810  141.6960 N   0  0  0  0  0  2  0  0  0  0  0  0
  189.7170  176.9340  146.6900 C   0  0  0  0  0  3  0  0  0  0  0  0
  184.8330  178.6040  145.9910 C   0  0  0  0  0  3  0  0  0  0  0  0
  190.5560  175.5660  144.8810 C   0  0  0  0  0  0  0  0  0  0  0  0
  191.7730  175.4320  145.5580 C   0  0  0  0  0  3  0  0  0  0  0  0
  187.0280  175.8520  142.7340 N   0  0  0  0  0  0  0  0  0  0  0  0
  185.9650  177.2150  144.3640 C   0  0  0  0  0  0  0  0  0  0  0  0
  184.8320  177.9230  144.7740 C   0  0  0  0  0  3  0  0  0  0  0  0
  189.3180  171.8740  137.2120 C   0  0  0  0  0  0  0  0  0  0  0  0
  189.4360  173.7910  138.6830 C   0  0  0  0  0  3  0  0  0  0  0  0
  190.4410  170.7560  140.5000 F   0  0  0  0  0  0  0  0  0  0  0  0
  189.0520  171.3440  135.9950 F   0  0  0  0  0  0  0  0  0  0  0  0
  189.1620  173.2440  137.4270 C   0  0  0  0  0  3  0  0  0  0  0  0
  190.0250  171.5900  139.5140 C   0  0  0  0  0  0  0  0  0  0  0  0
  189.8700  172.9760  139.7410 C   0  0  0  0  0  0  0  0  0  0  0  0
  189.7480  171.0510  138.2540 C   0  0  0  0  0  3  0  0  0  0  0  0
  1 11  1  0  0  0  0
  2  3  1  0  0  0  0
  2  7  1  0  0  0  0
  3  9  1  0  0  0  0
  5  4  2  0  0  0  0
  5 16  1  0  0  0  0
  6 13  1  0  0  0  0
  7 17  1  0  0  0  0
  8  1  1  0  0  0  0
  9  6  2  0  0  0  0
 10 15  1  0  0  0  0
 10 14  2  0  0  0  0
 12 22  1  0  0  0  0
 14 19  1  0  0  0  0
 15  2  2  0  0  0  0
 16 10  1  0  0  0  0
 17  1  2  0  0  0  0
 18  6  1  0  0  0  0
 19  7  2  0  0  0  0
 19 20  1  0  0  0  0
 20  8  2  0  0  0  0
 21 12  2  0  0  0  0
 21 15  1  0  0  0  0
 22 23  1  0  0  0  0
 22  3  2  0  0  0  0
 23 18  2  0  0  0  0
 24 28  2  0  0  0  0
 24 31  1  0  0  0  0
 25 30  2  0  0  0  0
 27 24  1  0  0  0  0
 28 25  1  0  0  0  0
 29 30  1  0  0  0  0
 29 26  1  0  0  0  0
 30  5  1  0  0  0  0
 31 29  2  0  0  0  0
M  END
>  <MODEL>
4

>  <REMARK>
 VINA RESULT:      -8.9      4.079      6.372
  Name = 
  1 active torsions:
  status: ('A' for Active; 'I' for Inactive)
    1  A    between atoms: C_9  and  C_22
                            x       y       z     vdW  Elec       q    Type
                         _______ _______ _______ _____ _____    ______ ____

>  <TORSDO>
F 1

$$$$
=
 OpenBabel11052417513D

 31 35  0  0  0  0  0  0  0  0999 V2000
  195.0150  174.8160  145.4300 C   0  0  0  0  0  0  0  0  0  0  0  0
  191.8610  174.6050  143.3820 C   0  0  0  0  0  0  0  0  0  0  0  0
  192.1540  173.7990  142.2380 C   0  0  0  0  0  0  0  0  0  0  0  0
  189.0860  177.6000  146.7100 O   0  0  0  0  0  0  0  0  0  0  0  0
  188.3370  177.2580  145.7540 C   0  0  0  0  0  0  0  0  0  0  0  0
  193.6700  172.4470  140.8780 C   0  0  0  0  0  0  0  0  0  0  0  0
  192.7970  174.9290  144.4100 C   0  0  0  0  0  0  0  0  0  0  0  0
  194.5830  175.6160  146.4870 C   0  0  0  0  0  3  0  0  0  0  0  0
  193.4200  173.2310  142.0070 C   0  0  0  0  0  3  0  0  0  0  0  0
  190.1850  175.9200  144.5950 C   0  0  0  0  0  0  0  0  0  0  0  0
  196.4160  174.3240  145.3930 C   0  0  0  0  0  1  0  0  0  0  0  0
  189.8700  174.0860  141.4650 C   0  0  0  0  0  3  0  0  0  0  0  0
  194.9310  171.9010  140.6780 O   0  0  0  0  0  1  0  0  0  0  0  0
  191.1060  176.2030  145.5510 N   0  0  0  0  0  0  0  0  0  0  0  0
  190.5400  175.1220  143.4990 C   0  0  0  0  0  0  0  0  0  0  0  0
  188.8480  176.4320  144.6970 N   0  0  0  0  0  2  0  0  0  0  0  0
  194.1300  174.4780  144.4040 C   0  0  0  0  0  3  0  0  0  0  0  0
  192.6540  172.2140  139.9510 C   0  0  0  0  0  3  0  0  0  0  0  0
  192.3770  175.7410  145.4930 C   0  0  0  0  0  0  0  0  0  0  0  0
  193.2670  176.0770  146.5180 C   0  0  0  0  0  3  0  0  0  0  0  0
  189.6040  174.8490  142.5510 N   0  0  0  0  0  0  0  0  0  0  0  0
  191.1360  173.5490  141.2830 C   0  0  0  0  0  0  0  0  0  0  0  0
  191.3890  172.7650  140.1540 C   0  0  0  0  0  3  0  0  0  0  0  0
  184.2660  178.6020  145.5680 C   0  0  0  0  0  0  0  0  0  0  0  0
  186.5260  178.5990  144.7070 C   0  0  0  0  0  3  0  0  0  0  0  0
  186.3040  176.4000  147.6450 F   0  0  0  0  0  0  0  0  0  0  0  0
  182.9840  179.0330  145.4980 F   0  0  0  0  0  0  0  0  0  0  0  0
  185.2040  179.0450  144.6340 C   0  0  0  0  0  3  0  0  0  0  0  0
  185.9710  177.2620  146.6530 C   0  0  0  0  0  0  0  0  0  0  0  0
  186.9280  177.7050  145.7120 C   0  0  0  0  0  0  0  0  0  0  0  0
  184.6500  177.7130  146.5730 C   0  0  0  0  0  3  0  0  0  0  0  0
  1  8  1  0  0  0  0
  2 15  1  0  0  0  0
  2  7  1  0  0  0  0
  3  2  2  0  0  0  0
  5  4  2  0  0  0  0
  6  9  2  0  0  0  0
  7 19  2  0  0  0  0
  8 20  2  0  0  0  0
  9  3  1  0  0  0  0
 10 16  1  0  0  0  0
 10 14  2  0  0  0  0
 11  1  1  0  0  0  0
 12 21  1  0  0  0  0
 13  6  1  0  0  0  0
 15 10  1  0  0  0  0
 16  5  1  0  0  0  0
 17  7  1  0  0  0  0
 17  1  2  0  0  0  0
 18 23  2  0  0  0  0
 18  6  1  0  0  0  0
 19 14  1  0  0  0  0
 19 20  1  0  0  0  0
 21 15  2  0  0  0  0
 22 12  2  0  0  0  0
 22  3  1  0  0  0  0
 23 22  1  0  0  0  0
 24 31  1  0  0  0  0
 25 30  2  0  0  0  0
 27 24  1  0  0  0  0
 28 25  1  0  0  0  0
 28 24  2  0  0  0  0
 29 26  1  0  0  0  0
 30  5  1  0  0  0  0
 30 29  1  0  0  0  0
 31 29  2  0  0  0  0
M  END
>  <MODEL>
5

>  <REMARK>
 VINA RESULT:      -8.8      3.700      8.115
  Name = 
  1 active torsions:
  status: ('A' for Active; 'I' for Inactive)
    1  A    between atoms: C_9  and  C_22
                            x       y       z     vdW  Elec       q    Type
                         _______ _______ _______ _____ _____    ______ ____

>  <TORSDO>
F 1

$$$$
=
 OpenBabel11052417513D

 31 35  0  0  0  0  0  0  0  0999 V2000
  186.1410  178.7450  143.3780 C   0  0  0  0  0  0  0  0  0  0  0  0
  188.8730  176.1520  143.4270 C   0  0  0  0  0  0  0  0  0  0  0  0
  189.5180  176.2440  144.6980 C   0  0  0  0  0  0  0  0  0  0  0  0
  187.8160  174.4460  138.5560 O   0  0  0  0  0  0  0  0  0  0  0  0
  188.7810  173.7770  139.0180 C   0  0  0  0  0  0  0  0  0  0  0  0
  189.7870  177.2270  146.9210 C   0  0  0  0  0  0  0  0  0  0  0  0
  187.7780  176.9690  143.0090 C   0  0  0  0  0  0  0  0  0  0  0  0
  185.6130  178.5400  142.1040 C   0  0  0  0  0  3  0  0  0  0  0  0
  189.1330  177.1660  145.6880 C   0  0  0  0  0  3  0  0  0  0  0  0
  188.7720  175.0320  141.2480 C   0  0  0  0  0  0  0  0  0  0  0  0
  185.5660  179.7910  144.2630 C   0  0  0  0  0  1  0  0  0  0  0  0
  191.0180  174.4450  144.0540 C   0  0  0  0  0  3  0  0  0  0  0  0
  189.3820  178.1490  147.8760 O   0  0  0  0  0  1  0  0  0  0  0  0
  187.7330  175.8290  140.8910 N   0  0  0  0  0  0  0  0  0  0  0  0
  189.3590  175.1750  142.5120 C   0  0  0  0  0  0  0  0  0  0  0  0
  189.2750  174.0420  140.3390 N   0  0  0  0  0  2  0  0  0  0  0  0
  187.2120  177.9670  143.8230 C   0  0  0  0  0  3  0  0  0  0  0  0
  190.8470  176.3620  147.1910 C   0  0  0  0  0  3  0  0  0  0  0  0
  187.2280  176.7750  141.7180 C   0  0  0  0  0  0  0  0  0  0  0  0
  186.1550  177.5570  141.2770 C   0  0  0  0  0  3  0  0  0  0  0  0
  190.4000  174.3680  142.8520 N   0  0  0  0  0  0  0  0  0  0  0  0
  190.5980  175.3740  144.9950 C   0  0  0  0  0  0  0  0  0  0  0  0
  191.2520  175.4370  146.2290 C   0  0  0  0  0  3  0  0  0  0  0  0
  190.5870  170.6430  136.7080 C   0  0  0  0  0  0  0  0  0  0  0  0
  189.3160  171.3820  138.6290 C   0  0  0  0  0  3  0  0  0  0  0  0
  190.2360  174.2720  136.5510 F   0  0  0  0  0  0  0  0  0  0  0  0
  191.1520  169.6460  135.9880 F   0  0  0  0  0  0  0  0  0  0  0  0
  189.8990  170.3520  137.8870 C   0  0  0  0  0  3  0  0  0  0  0  0
  190.1110  173.0020  137.0090 C   0  0  0  0  0  0  0  0  0  0  0  0
  189.4120  172.7160  138.2030 C   0  0  0  0  0  0  0  0  0  0  0  0
  190.6920  171.9650  136.2720 C   0  0  0  0  0  3  0  0  0  0  0  0
  1 17  1  0  0  0  0
  1 11  1  0  0  0  0
  2  3  1  0  0  0  0
  3 22  2  0  0  0  0
  3  9  1  0  0  0  0
  4  5  2  0  0  0  0
  5 16  1  0  0  0  0
  6 18  1  0  0  0  0
  6 13  1  0  0  0  0
  7  2  1  0  0  0  0
  7 17  2  0  0  0  0
  8  1  2  0  0  0  0
  9  6  2  0  0  0  0
 10 15  1  0  0  0  0
 12 22  1  0  0  0  0
 14 10  2  0  0  0  0
 14 19  1  0  0  0  0
 15 21  1  0  0  0  0
 15  2  2  0  0  0  0
 16 10  1  0  0  0  0
 19  7  1  0  0  0  0
 20 19  2  0  0  0  0
 20  8  1  0  0  0  0
 21 12  2  0  0  0  0
 22 23  1  0  0  0  0
 23 18  2  0  0  0  0
 24 28  1  0  0  0  0
 26 29  1  0  0  0  0
 27 24  1  0  0  0  0
 28 25  2  0  0  0  0
 29 30  2  0  0  0  0
 30 25  1  0  0  0  0
 30  5  1  0  0  0  0
 31 24  2  0  0  0  0
 31 29  1  0  0  0  0
M  END
>  <MODEL>
6

>  <REMARK>
 VINA RESULT:      -8.5      4.463      7.043
  Name = 
  1 active torsions:
  status: ('A' for Active; 'I' for Inactive)
    1  A    between atoms: C_9  and  C_22
                            x       y       z     vdW  Elec       q    Type
                         _______ _______ _______ _____ _____    ______ ____

>  <TORSDO>
F 1

$$$$
=
 OpenBabel11052417513D

 31 35  0  0  0  0  0  0  0  0999 V2000
  192.5780  172.6840  140.4920 C   0  0  0  0  0  0  0  0  0  0  0  0
  192.0480  174.8070  143.5580 C   0  0  0  0  0  0  0  0  0  0  0  0
  193.2830  174.8270  144.2760 C   0  0  0  0  0  0  0  0  0  0  0  0
  187.0150  175.8390  142.3970 O   0  0  0  0  0  0  0  0  0  0  0  0
  187.3070  176.4210  143.4780 C   0  0  0  0  0  0  0  0  0  0  0  0
  195.6260  174.1880  144.5660 C   0  0  0  0  0  0  0  0  0  0  0  0
  191.8310  174.1080  142.3310 C   0  0  0  0  0  0  0  0  0  0  0  0
  191.3150  172.7570  139.9060 C   0  0  0  0  0  3  0  0  0  0  0  0
  194.4340  174.1470  143.8380 C   0  0  0  0  0  3  0  0  0  0  0  0
  189.7170  175.5600  143.4560 C   0  0  0  0  0  0  0  0  0  0  0  0
  193.6560  171.8950  139.8420 C   0  0  0  0  0  1  0  0  0  0  0  0
  192.2670  176.2490  145.9620 C   0  0  0  0  0  3  0  0  0  0  0  0
  196.7430  173.5050  144.1070 O   0  0  0  0  0  1  0  0  0  0  0  0
  189.5530  174.8820  142.2920 N   0  0  0  0  0  0  0  0  0  0  0  0
  190.9570  175.5370  144.1080 C   0  0  0  0  0  0  0  0  0  0  0  0
  188.6280  176.3020  144.0250 N   0  0  0  0  0  2  0  0  0  0  0  0
  192.8300  173.3530  141.6920 C   0  0  0  0  0  3  0  0  0  0  0  0
  195.6910  174.9160  145.7540 C   0  0  0  0  0  3  0  0  0  0  0  0
  190.5530  174.1710  141.7200 C   0  0  0  0  0  0  0  0  0  0  0  0
  190.3060  173.4990  140.5190 C   0  0  0  0  0  3  0  0  0  0  0  0
  191.1020  176.2230  145.2740 N   0  0  0  0  0  0  0  0  0  0  0  0
  193.3740  175.5600  145.4860 C   0  0  0  0  0  0  0  0  0  0  0  0
  194.5670  175.6000  146.2130 C   0  0  0  0  0  3  0  0  0  0  0  0
  184.3620  178.7040  145.6060 C   0  0  0  0  0  0  0  0  0  0  0  0
  185.8050  176.7710  145.4260 C   0  0  0  0  0  3  0  0  0  0  0  0
  186.2310  178.9290  142.4790 F   0  0  0  0  0  0  0  0  0  0  0  0
  183.4330  179.4160  146.2870 F   0  0  0  0  0  0  0  0  0  0  0  0
  184.8460  177.5050  146.1300 C   0  0  0  0  0  3  0  0  0  0  0  0
  185.7970  178.4420  143.6680 C   0  0  0  0  0  0  0  0  0  0  0  0
  186.2930  177.2270  144.1910 C   0  0  0  0  0  0  0  0  0  0  0  0
  184.8370  179.1700  144.3780 C   0  0  0  0  0  3  0  0  0  0  0  0
  1 17  1  0  0  0  0
  2 15  2  0  0  0  0
  2  3  1  0  0  0  0
  3 22  1  0  0  0  0
  4  5  2  0  0  0  0
  5 16  1  0  0  0  0
  5 30  1  0  0  0  0
  6 18  2  0  0  0  0
  7  2  1  0  0  0  0
  8  1  2  0  0  0  0
  8 20  1  0  0  0  0
  9  3  2  0  0  0  0
  9  6  1  0  0  0  0
 10 16  1  0  0  0  0
 10 15  1  0  0  0  0
 11  1  1  0  0  0  0
 13  6  1  0  0  0  0
 14 10  2  0  0  0  0
 15 21  1  0  0  0  0
 17  7  2  0  0  0  0
 18 23  1  0  0  0  0
 19 14  1  0  0  0  0
 19  7  1  0  0  0  0
 20 19  2  0  0  0  0
 21 12  2  0  0  0  0
 22 12  1  0  0  0  0
 22 23  2  0  0  0  0
 24 28  1  0  0  0  0
 24 27  1  0  0  0  0
 25 28  2  0  0  0  0
 26 29  1  0  0  0  0
 29 30  2  0  0  0  0
 29 31  1  0  0  0  0
 30 25  1  0  0  0  0
 31 24  2  0  0  0  0
M  END
>  <MODEL>
7

>  <REMARK>
 VINA RESULT:      -8.4      3.732      8.992
  Name = 
  1 active torsions:
  status: ('A' for Active; 'I' for Inactive)
    1  A    between atoms: C_9  and  C_22
                            x       y       z     vdW  Elec       q    Type
                         _______ _______ _______ _____ _____    ______ ____

>  <TORSDO>
F 1

$$$$
=
 OpenBabel11052417513D

 31 35  0  0  0  0  0  0  0  0999 V2000
  192.2290  170.3060  142.5430 C   0  0  0  0  0  0  0  0  0  0  0  0
  192.3240  173.6790  144.2190 C   0  0  0  0  0  0  0  0  0  0  0  0
  193.6110  173.8120  144.8250 C   0  0  0  0  0  0  0  0  0  0  0  0
  187.4170  174.9250  142.7640 O   0  0  0  0  0  0  0  0  0  0  0  0
  187.8970  175.8830  143.4290 C   0  0  0  0  0  0  0  0  0  0  0  0
  195.8470  172.9780  145.3580 C   0  0  0  0  0  0  0  0  0  0  0  0
  191.8870  172.5360  143.4820 C   0  0  0  0  0  0  0  0  0  0  0  0
  190.9420  170.3190  142.0090 C   0  0  0  0  0  3  0  0  0  0  0  0
  194.5980  172.8120  144.7540 C   0  0  0  0  0  3  0  0  0  0  0  0
  190.1360  174.6980  143.7950 C   0  0  0  0  0  0  0  0  0  0  0  0
  193.1070  169.1260  142.3400 C   0  0  0  0  0  1  0  0  0  0  0  0
  192.9900  176.0160  145.6330 C   0  0  0  0  0  3  0  0  0  0  0  0
  196.7990  171.9710  145.2710 O   0  0  0  0  0  1  0  0  0  0  0  0
  189.7600  173.5940  143.1020 N   0  0  0  0  0  0  0  0  0  0  0  0
  191.4140  174.7640  144.3640 C   0  0  0  0  0  0  0  0  0  0  0  0
  189.2320  175.8020  143.9510 N   0  0  0  0  0  2  0  0  0  0  0  0
  192.6940  171.4040  143.2720 C   0  0  0  0  0  3  0  0  0  0  0  0
  196.1360  174.1540  146.0510 C   0  0  0  0  0  3  0  0  0  0  0  0
  190.5810  172.5310  142.9310 C   0  0  0  0  0  0  0  0  0  0  0  0
  190.1200  171.4290  142.2030 C   0  0  0  0  0  3  0  0  0  0  0  0
  191.7730  175.8790  145.0560 N   0  0  0  0  0  0  0  0  0  0  0  0
  193.9280  174.9990  145.5330 C   0  0  0  0  0  0  0  0  0  0  0  0
  195.1780  175.1630  146.1380 C   0  0  0  0  0  3  0  0  0  0  0  0
  185.5560  179.4220  144.0730 C   0  0  0  0  0  0  0  0  0  0  0  0
  186.7200  177.9050  142.5920 C   0  0  0  0  0  3  0  0  0  0  0  0
  187.0090  176.7310  146.0640 F   0  0  0  0  0  0  0  0  0  0  0  0
  184.8170  180.5410  144.2630 F   0  0  0  0  0  0  0  0  0  0  0  0
  185.9570  179.0600  142.7870 C   0  0  0  0  0  3  0  0  0  0  0  0
  186.6790  177.4730  144.9780 C   0  0  0  0  0  0  0  0  0  0  0  0
  187.0900  177.0980  143.6790 C   0  0  0  0  0  0  0  0  0  0  0  0
  185.9160  178.6300  145.1640 C   0  0  0  0  0  3  0  0  0  0  0  0
  1 17  1  0  0  0  0
  2 15  2  0  0  0  0
  2  3  1  0  0  0  0
  3 22  1  0  0  0  0
  4  5  2  0  0  0  0
  5 30  1  0  0  0  0
  5 16  1  0  0  0  0
  6 18  2  0  0  0  0
  7  2  1  0  0  0  0
  8 20  1  0  0  0  0
  8  1  2  0  0  0  0
  9  3  2  0  0  0  0
  9  6  1  0  0  0  0
 10 16  1  0  0  0  0
 10 15  1  0  0  0  0
 11  1  1  0  0  0  0
 13  6  1  0  0  0  0
 14 10  2  0  0  0  0
 15 21  1  0  0  0  0
 17  7  2  0  0  0  0
 18 23  1  0  0  0  0
 19 14  1  0  0  0  0
 19  7  1  0  0  0  0
 20 19  2  0  0  0  0
 21 12  2  0  0  0  0
 22 12  1  0  0  0  0
 22 23  2  0  0  0  0
 24 27  1  0  0  0  0
 24 31  1  0  0  0  0
 25 28  1  0  0  0  0
 25 30  2  0  0  0  0
 28 24  2  0  0  0  0
 29 31  2  0  0  0  0
 29 26  1  0  0  0  0
 30 29  1  0  0  0  0
M  END
>  <MODEL>
8

>  <REMARK>
 VINA RESULT:      -8.1      3.558      9.042
  Name = 
  1 active torsions:
  status: ('A' for Active; 'I' for Inactive)
    1  A    between atoms: C_9  and  C_22
                            x       y       z     vdW  Elec       q    Type
                         _______ _______ _______ _____ _____    ______ ____

>  <TORSDO>
F 1

$$$$
=
 OpenBabel11052417513D

 31 35  0  0  0  0  0  0  0  0999 V2000
  194.3020  172.7290  144.3480 C   0  0  0  0  0  0  0  0  0  0  0  0
  190.9920  173.1720  142.6050 C   0  0  0  0  0  0  0  0  0  0  0  0
  191.0180  172.3500  141.4370 C   0  0  0  0  0  0  0  0  0  0  0  0
  189.1650  176.5700  146.1920 O   0  0  0  0  0  0  0  0  0  0  0  0
  188.2800  176.3990  145.3100 C   0  0  0  0  0  0  0  0  0  0  0  0
  192.1130  170.7630  139.9340 C   0  0  0  0  0  0  0  0  0  0  0  0
  192.0640  173.2880  143.5420 C   0  0  0  0  0  0  0  0  0  0  0  0
  194.1320  173.5740  145.4440 C   0  0  0  0  0  3  0  0  0  0  0  0
  192.1240  171.5550  141.0840 C   0  0  0  0  0  3  0  0  0  0  0  0
  189.7210  174.7570  143.9760 C   0  0  0  0  0  0  0  0  0  0  0  0
  195.5720  171.9780  144.1770 C   0  0  0  0  0  1  0  0  0  0  0  0
  188.7710  173.0870  140.8830 C   0  0  0  0  0  3  0  0  0  0  0  0
  193.2210  169.9900  139.6140 O   0  0  0  0  0  1  0  0  0  0  0  0
  190.7620  174.8380  144.8420 N   0  0  0  0  0  0  0  0  0  0  0  0
  189.8130  173.9300  142.8490 C   0  0  0  0  0  0  0  0  0  0  0  0
  188.5230  175.5140  144.2070 N   0  0  0  0  0  2  0  0  0  0  0  0
  193.2780  172.5900  143.4090 C   0  0  0  0  0  3  0  0  0  0  0  0
  190.9910  170.7500  139.1060 C   0  0  0  0  0  3  0  0  0  0  0  0
  191.9100  174.1410  144.6630 C   0  0  0  0  0  0  0  0  0  0  0  0
  192.9380  174.2770  145.6010 C   0  0  0  0  0  3  0  0  0  0  0  0
  188.7580  173.8630  141.9920 N   0  0  0  0  0  0  0  0  0  0  0  0
  189.8880  172.3210  140.5810 C   0  0  0  0  0  0  0  0  0  0  0  0
  189.8800  171.5280  139.4290 C   0  0  0  0  0  3  0  0  0  0  0  0
  184.5060  178.4140  145.6480 C   0  0  0  0  0  0  0  0  0  0  0  0
  186.1080  176.7910  146.4520 C   0  0  0  0  0  3  0  0  0  0  0  0
  187.4090  178.4430  143.4360 F   0  0  0  0  0  0  0  0  0  0  0  0
  183.3130  179.0430  145.7650 F   0  0  0  0  0  0  0  0  0  0  0  0
  184.8770  177.4400  146.5750 C   0  0  0  0  0  3  0  0  0  0  0  0
  186.6020  178.0970  144.4700 C   0  0  0  0  0  0  0  0  0  0  0  0
  186.9850  177.1090  145.4030 C   0  0  0  0  0  0  0  0  0  0  0  0
  185.3670  178.7410  144.5990 C   0  0  0  0  0  3  0  0  0  0  0  0
  1  8  1  0  0  0  0
  2 15  1  0  0  0  0
  2  7  1  0  0  0  0
  3  2  2  0  0  0  0
  5 30  1  0  0  0  0
  5  4  2  0  0  0  0
  6  9  2  0  0  0  0
  7 19  2  0  0  0  0
  8 20  2  0  0  0  0
  9  3  1  0  0  0  0
 10 16  1  0  0  0  0
 10 14  2  0  0  0  0
 11  1  1  0  0  0  0
 12 21  1  0  0  0  0
 13  6  1  0  0  0  0
 15 10  1  0  0  0  0
 16  5  1  0  0  0  0
 17  7  1  0  0  0  0
 17  1  2  0  0  0  0
 18 23  2  0  0  0  0
 18  6  1  0  0  0  0
 19 14  1  0  0  0  0
 19 20  1  0  0  0  0
 21 15  2  0  0  0  0
 22 12  2  0  0  0  0
 22  3  1  0  0  0  0
 23 22  1  0  0  0  0
 24 27  1  0  0  0  0
 24 28  1  0  0  0  0
 25 28  2  0  0  0  0
 26 29  1  0  0  0  0
 29 31  1  0  0  0  0
 29 30  2  0  0  0  0
 30 25  1  0  0  0  0
 31 24  2  0  0  0  0
M  END
>  <MODEL>
9

>  <REMARK>
 VINA RESULT:      -8.1      4.116      8.141
  Name = 
  1 active torsions:
  status: ('A' for Active; 'I' for Inactive)
    1  A    between atoms: C_9  and  C_22
                            x       y       z     vdW  Elec       q    Type
                         _______ _______ _______ _____ _____    ______ ____

>  <TORSDO>
F 1

$$$$
