=
 OpenBabel11052417193D

 30 34  0  0  1  0  0  0  0  0999 V2000
  188.0920  175.9550  142.9250 C   0  0  1  0  0  3  0  0  0  0  0  0
  185.9340  176.7870  142.5740 C   0  0  0  0  0  2  0  0  0  0  0  0
  189.4770  176.7840  146.8110 C   0  0  0  0  0  0  0  0  0  0  0  0
  190.5010  175.2280  142.6750 C   0  0  2  0  0  3  0  0  0  0  0  0
  189.0410  174.8120  142.5490 C   0  0  2  0  0  3  0  0  0  0  0  0
  190.7250  173.1000  139.8510 C   0  0  0  0  0  2  0  0  0  0  0  0
  192.8180  176.8190  143.9420 C   0  0  0  0  0  2  0  0  0  0  0  0
  190.3870  174.3790  140.6210 C   0  0  1  0  0  3  0  0  0  0  0  0
  188.2040  173.1050  140.9630 C   0  0  0  0  0  2  0  0  0  0  0  0
  191.7990  176.2880  146.2020 C   0  0  1  0  0  3  0  0  0  0  0  0
  190.5620  176.0930  147.0440 C   0  0  0  0  0  0  0  0  0  0  0  0
  188.9280  174.4430  141.0990 C   0  0  1  0  0  3  0  0  0  0  0  0
  191.2430  174.5080  141.7290 O   0  0  0  0  0  0  0  0  0  0  0  0
  185.4640  177.3090  143.9260 C   0  0  0  0  0  2  0  0  0  0  0  0
  192.7970  175.3640  146.5400 O   0  0  0  0  0  0  0  0  0  0  0  0
  194.7990  175.9650  145.3150 C   0  0  0  0  0  2  0  0  0  0  0  0
  188.2510  172.5970  139.5190 C   0  0  0  0  0  2  0  0  0  0  0  0
  186.7020  175.5620  142.7450 N   0  0  0  0  0  2  0  0  0  0  0  0
  188.3750  177.4130  146.4680 C   0  0  0  0  0  3  0  0  0  0  0  0
  186.4270  179.1230  145.1210 O   0  0  0  0  0  0  0  0  0  0  0  0
  189.6200  172.7810  138.8460 C   0  0  0  0  0  2  0  0  0  0  0  0
  188.3520  176.2730  144.3550 C   0  0  0  0  0  3  0  0  0  0  0  0
  191.0550  174.9960  144.0840 C   0  0  0  0  0  2  0  0  0  0  0  0
  190.5740  175.1910  148.1000 O   0  0  0  0  0  1  0  0  0  0  0  0
  191.5640  176.3200  144.6730 C   0  0  2  0  0  3  0  0  0  0  0  0
  193.9710  176.1250  146.5940 C   0  0  0  0  0  2  0  0  0  0  0  0
  194.8040  175.9620  142.9280 O   0  0  0  0  0  1  0  0  0  0  0  0
  186.5710  177.9380  144.7230 C   0  0  0  0  0  0  0  0  0  0  0  0
  187.7600  177.1690  145.1440 C   0  0  0  0  0  0  0  0  0  0  0  0
  193.9690  175.8170  144.0360 C   0  0  2  0  0  3  0  0  0  0  0  0
  1 22  1  1  0  0  0
  2 18  1  0  0  0  0
  2 14  1  0  0  0  0
  3 11  2  0  0  0  0
  4 23  1  1  0  0  0
  5  4  1  0  0  0  0
  5  1  1  0  0  0  0
  6  8  1  0  0  0  0
  7 30  1  0  0  0  0
  7 25  1  0  0  0  0
  8 12  1  0  0  0  0
  8 13  1  0  0  0  0
  9 12  1  0  0  0  0
 10 15  1  0  0  0  0
 10 11  1  0  0  0  0
 11 24  1  0  0  0  0
 12  5  1  0  0  0  0
 13  4  1  0  0  0  0
 14 28  1  0  0  0  0
 15 26  1  0  0  0  0
 16 26  1  0  0  0  0
 17  9  1  0  0  0  0
 18  1  1  0  0  0  0
 19  3  2  0  0  0  0
 21 17  1  0  0  0  0
 21  6  1  0  0  0  0
 22 29  2  0  0  0  0
 23 25  1  0  0  0  0
 25 10  1  0  0  0  0
 27 30  1  0  0  0  0
 28 20  2  0  0  0  0
 28 29  1  0  0  0  0
 29 19  1  0  0  0  0
 30 16  1  0  0  0  0
M  END
>  <MODEL>
1

>  <REMARK>
 VINA RESULT:      -8.6      0.000      0.000
  Name = 
  0 active torsions:
  status: ('A' for Active; 'I' for Inactive)
                            x       y       z     vdW  Elec       q    Type
                         _______ _______ _______ _____ _____    ______ ____

>  <TORSDO>
F 0

$$$$
=
 OpenBabel11052417193D

 30 34  0  0  1  0  0  0  0  0999 V2000
  189.5580  176.1960  145.5080 C   0  0  1  0  0  3  0  0  0  0  0  0
  188.6850  177.2480  147.4070 C   0  0  0  0  0  2  0  0  0  0  0  0
  186.8060  176.1770  142.3250 C   0  0  0  0  0  0  0  0  0  0  0  0
  190.7830  174.6720  143.9050 C   0  0  2  0  0  3  0  0  0  0  0  0
  190.8560  175.9500  144.7310 C   0  0  2  0  0  3  0  0  0  0  0  0
  194.1930  174.5730  144.8620 C   0  0  0  0  0  2  0  0  0  0  0  0
  189.3020  172.5500  142.2290 C   0  0  0  0  0  2  0  0  0  0  0  0
  192.6800  174.4360  145.0450 C   0  0  1  0  0  3  0  0  0  0  0  0
  192.9450  176.8960  145.6650 C   0  0  0  0  0  2  0  0  0  0  0  0
  188.0640  174.4590  141.1110 C   0  0  1  0  0  3  0  0  0  0  0  0
  187.4140  175.8160  141.2260 C   0  0  0  0  0  0  0  0  0  0  0  0
  192.0150  175.6830  145.6470 C   0  0  1  0  0  3  0  0  0  0  0  0
  192.0750  174.1400  143.8110 O   0  0  0  0  0  0  0  0  0  0  0  0
  187.3460  177.8350  146.9790 C   0  0  0  0  0  2  0  0  0  0  0  0
  188.7620  174.3290  139.9020 O   0  0  0  0  0  0  0  0  0  0  0  0
  189.5130  172.0310  139.7340 C   0  0  0  0  0  2  0  0  0  0  0  0
  194.2400  176.5850  146.4230 C   0  0  0  0  0  2  0  0  0  0  0  0
  189.6620  177.3880  146.3370 N   0  0  0  0  0  2  0  0  0  0  0  0
  186.3100  176.5430  143.4860 C   0  0  0  0  0  3  0  0  0  0  0  0
  185.4480  176.5880  146.2770 O   0  0  0  0  0  0  0  0  0  0  0  0
  194.8200  175.1980  146.1060 C   0  0  0  0  0  2  0  0  0  0  0  0
  188.4810  176.3710  144.4960 C   0  0  0  0  0  3  0  0  0  0  0  0
  190.1950  174.9110  142.5110 C   0  0  0  0  0  2  0  0  0  0  0  0
  187.4320  176.6900  140.1460 O   0  0  0  0  0  1  0  0  0  0  0  0
  188.9450  174.0410  142.3110 C   0  0  2  0  0  3  0  0  0  0  0  0
  188.4130  173.0550  139.4360 C   0  0  0  0  0  2  0  0  0  0  0  0
  191.0100  171.1250  141.3580 O   0  0  0  0  0  1  0  0  0  0  0  0
  186.6170  176.9640  145.9960 C   0  0  0  0  0  0  0  0  0  0  0  0
  187.1870  176.6370  144.6740 C   0  0  0  0  0  0  0  0  0  0  0  0
  190.2440  172.2520  141.0620 C   0  0  2  0  0  3  0  0  0  0  0  0
  1 22  1  6  0  0  0
  1 18  1  0  0  0  0
  3 19  2  0  0  0  0
  4 23  1  6  0  0  0
  4  5  1  0  0  0  0
  5  1  1  0  0  0  0
  5 12  1  0  0  0  0
  6  8  1  0  0  0  0
  6 21  1  0  0  0  0
  7 25  1  0  0  0  0
  8 12  1  0  0  0  0
  9 17  1  0  0  0  0
 10 11  1  0  0  0  0
 10 25  1  0  0  0  0
 11  3  2  0  0  0  0
 12  9  1  0  0  0  0
 13  4  1  0  0  0  0
 13  8  1  0  0  0  0
 14  2  1  0  0  0  0
 15 10  1  0  0  0  0
 16 30  1  0  0  0  0
 18  2  1  0  0  0  0
 19 29  1  0  0  0  0
 21 17  1  0  0  0  0
 22 29  2  0  0  0  0
 24 11  1  0  0  0  0
 25 23  1  0  0  0  0
 26 16  1  0  0  0  0
 26 15  1  0  0  0  0
 28 20  2  0  0  0  0
 28 14  1  0  0  0  0
 29 28  1  0  0  0  0
 30 27  1  0  0  0  0
 30  7  1  0  0  0  0
M  END
>  <MODEL>
2

>  <REMARK>
 VINA RESULT:      -8.6      1.957      5.797
  Name = 
  0 active torsions:
  status: ('A' for Active; 'I' for Inactive)
                            x       y       z     vdW  Elec       q    Type
                         _______ _______ _______ _____ _____    ______ ____

>  <TORSDO>
F 0

$$$$
=
 OpenBabel11052417193D

 30 34  0  0  1  0  0  0  0  0999 V2000
  188.6470  174.3660  141.0150 C   0  0  1  0  0  3  0  0  0  0  0  0
  188.2060  173.2200  139.0230 C   0  0  0  0  0  2  0  0  0  0  0  0
  192.4970  173.5240  142.4880 C   0  0  0  0  0  0  0  0  0  0  0  0
  188.4850  175.4900  143.2750 C   0  0  2  0  0  3  0  0  0  0  0  0
  188.3600  175.6710  141.7670 C   0  0  2  0  0  3  0  0  0  0  0  0
  185.8040  177.8040  143.1700 C   0  0  0  0  0  2  0  0  0  0  0  0
  189.6910  174.2160  145.8100 C   0  0  0  0  0  2  0  0  0  0  0  0
  186.4870  176.4400  143.0390 C   0  0  1  0  0  3  0  0  0  0  0  0
  186.8690  177.3180  140.6740 C   0  0  0  0  0  2  0  0  0  0  0  0
  191.9620  174.4290  144.7020 C   0  0  1  0  0  3  0  0  0  0  0  0
  192.7920  174.3650  143.4440 C   0  0  0  0  0  0  0  0  0  0  0  0
  186.9340  176.1090  141.6060 C   0  0  1  0  0  3  0  0  0  0  0  0
  187.6000  176.3800  143.8960 O   0  0  0  0  0  0  0  0  0  0  0  0
  189.5140  172.5420  138.6360 C   0  0  0  0  0  2  0  0  0  0  0  0
  192.3750  175.4790  145.5330 O   0  0  0  0  0  0  0  0  0  0  0  0
  191.1510  175.2910  147.6160 C   0  0  0  0  0  2  0  0  0  0  0  0
  185.4600  177.9190  140.6490 C   0  0  0  0  0  2  0  0  0  0  0  0
  188.4670  174.5390  139.5810 N   0  0  0  0  0  2  0  0  0  0  0  0
  192.0960  172.7480  141.5060 C   0  0  0  0  0  3  0  0  0  0  0  0
  190.6100  170.8350  139.8730 O   0  0  0  0  0  0  0  0  0  0  0  0
  184.8020  178.0030  142.0350 C   0  0  0  0  0  2  0  0  0  0  0  0
  190.0590  174.0030  141.3130 C   0  0  0  0  0  3  0  0  0  0  0  0
  189.9160  175.7170  143.7730 C   0  0  0  0  0  2  0  0  0  0  0  0
  193.9020  175.1870  143.3010 O   0  0  0  0  0  1  0  0  0  0  0  0
  190.4300  174.4570  144.4870 C   0  0  2  0  0  3  0  0  0  0  0  0
  192.4020  174.9160  146.8150 C   0  0  0  0  0  2  0  0  0  0  0  0
  188.7690  175.4480  147.6380 O   0  0  0  0  0  1  0  0  0  0  0  0
  190.2900  172.0520  139.8240 C   0  0  0  0  0  0  0  0  0  0  0  0
  190.7790  172.9740  140.8680 C   0  0  0  0  0  0  0  0  0  0  0  0
  189.8680  175.3840  146.7830 C   0  0  2  0  0  3  0  0  0  0  0  0
  1 22  1  6  0  0  0
  1  5  1  0  0  0  0
  2 18  1  0  0  0  0
  3 11  2  0  0  0  0
  4 23  1  1  0  0  0
  4 13  1  0  0  0  0
  5  4  1  0  0  0  0
  7 30  1  0  0  0  0
  8  6  1  0  0  0  0
  8 13  1  0  0  0  0
  9 12  1  0  0  0  0
 10 15  1  0  0  0  0
 11 10  1  0  0  0  0
 12  5  1  0  0  0  0
 12  8  1  0  0  0  0
 14  2  1  0  0  0  0
 14 28  1  0  0  0  0
 15 26  1  0  0  0  0
 17  9  1  0  0  0  0
 17 21  1  0  0  0  0
 18  1  1  0  0  0  0
 19  3  2  0  0  0  0
 21  6  1  0  0  0  0
 23 25  1  0  0  0  0
 24 11  1  0  0  0  0
 25 10  1  0  0  0  0
 25  7  1  0  0  0  0
 26 16  1  0  0  0  0
 28 20  2  0  0  0  0
 28 29  1  0  0  0  0
 29 22  2  0  0  0  0
 29 19  1  0  0  0  0
 30 16  1  0  0  0  0
 30 27  1  0  0  0  0
M  END
>  <MODEL>
3

>  <REMARK>
 VINA RESULT:      -8.1      1.842      5.464
  Name = 
  0 active torsions:
  status: ('A' for Active; 'I' for Inactive)
                            x       y       z     vdW  Elec       q    Type
                         _______ _______ _______ _____ _____    ______ ____

>  <TORSDO>
F 0

$$$$
=
 OpenBabel11052417193D

 30 34  0  0  1  0  0  0  0  0999 V2000
  189.1750  174.4320  141.9120 C   0  0  1  0  0  3  0  0  0  0  0  0
  188.2020  172.9680  140.3680 C   0  0  0  0  0  2  0  0  0  0  0  0
  193.3760  174.3890  141.6780 C   0  0  0  0  0  0  0  0  0  0  0  0
  189.7220  175.8210  143.9530 C   0  0  2  0  0  3  0  0  0  0  0  0
  188.9680  175.7700  142.6300 C   0  0  2  0  0  3  0  0  0  0  0  0
  186.8310  177.6700  144.8390 C   0  0  0  0  0  2  0  0  0  0  0  0
  192.0680  175.1070  145.8220 C   0  0  0  0  0  2  0  0  0  0  0  0
  187.6540  176.4190  144.5200 C   0  0  1  0  0  3  0  0  0  0  0  0
  186.8750  177.0080  142.1630 C   0  0  0  0  0  2  0  0  0  0  0  0
  193.6120  175.5020  143.8500 C   0  0  1  0  0  3  0  0  0  0  0  0
  193.8610  175.3900  142.3660 C   0  0  0  0  0  0  0  0  0  0  0  0
  187.5420  175.9630  143.0570 C   0  0  1  0  0  3  0  0  0  0  0  0
  189.0070  176.6460  144.8310 O   0  0  0  0  0  0  0  0  0  0  0  0
  189.3480  172.4470  139.5100 C   0  0  0  0  0  2  0  0  0  0  0  0
  194.1120  176.7070  144.3610 O   0  0  0  0  0  0  0  0  0  0  0  0
  193.8910  176.6280  146.7730 C   0  0  0  0  0  2  0  0  0  0  0  0
  185.4870  177.3810  142.6950 C   0  0  0  0  0  2  0  0  0  0  0  0
  188.4040  174.3760  140.6790 N   0  0  0  0  0  2  0  0  0  0  0  0
  192.7730  173.4330  141.0080 C   0  0  0  0  0  3  0  0  0  0  0  0
  191.1580  171.1120  140.2770 O   0  0  0  0  0  0  0  0  0  0  0  0
  185.4400  177.5570  144.2210 C   0  0  0  0  0  2  0  0  0  0  0  0
  190.6280  174.3300  141.6100 C   0  0  0  0  0  3  0  0  0  0  0  0
  191.1580  176.3270  143.7880 C   0  0  0  0  0  2  0  0  0  0  0  0
  194.6370  176.3410  141.7170 O   0  0  0  0  0  1  0  0  0  0  0  0
  192.1500  175.2710  144.2980 C   0  0  2  0  0  3  0  0  0  0  0  0
  194.7610  176.3380  145.5460 C   0  0  0  0  0  2  0  0  0  0  0  0
  191.7390  176.4280  147.7850 O   0  0  0  0  0  1  0  0  0  0  0  0
  190.6150  172.2480  140.2910 C   0  0  0  0  0  0  0  0  0  0  0  0
  191.2940  173.3690  140.9710 C   0  0  0  0  0  0  0  0  0  0  0  0
  192.3910  176.4120  146.5530 C   0  0  2  0  0  3  0  0  0  0  0  0
  1 22  1  6  0  0  0
  1  5  1  0  0  0  0
  2 18  1  0  0  0  0
  3 11  2  0  0  0  0
  4 23  1  6  0  0  0
  4 13  1  0  0  0  0
  5 12  1  0  0  0  0
  5  4  1  0  0  0  0
  7 30  1  0  0  0  0
  8 13  1  0  0  0  0
  8  6  1  0  0  0  0
  9 17  1  0  0  0  0
  9 12  1  0  0  0  0
 10 25  1  0  0  0  0
 10 15  1  0  0  0  0
 11 10  1  0  0  0  0
 12  8  1  0  0  0  0
 14 28  1  0  0  0  0
 14  2  1  0  0  0  0
 15 26  1  0  0  0  0
 17 21  1  0  0  0  0
 18  1  1  0  0  0  0
 19  3  2  0  0  0  0
 20 28  2  0  0  0  0
 21  6  1  0  0  0  0
 23 25  1  0  0  0  0
 24 11  1  0  0  0  0
 25  7  1  0  0  0  0
 26 16  1  0  0  0  0
 28 29  1  0  0  0  0
 29 19  1  0  0  0  0
 29 22  2  0  0  0  0
 30 16  1  0  0  0  0
 30 27  1  0  0  0  0
M  END
>  <MODEL>
4

>  <REMARK>
 VINA RESULT:      -8.1      1.598      5.360
  Name = 
  0 active torsions:
  status: ('A' for Active; 'I' for Inactive)
                            x       y       z     vdW  Elec       q    Type
                         _______ _______ _______ _____ _____    ______ ____

>  <TORSDO>
F 0

$$$$
=
 OpenBabel11052417193D

 30 34  0  0  1  0  0  0  0  0999 V2000
  188.7870  176.8210  145.4870 C   0  0  1  0  0  3  0  0  0  0  0  0
  189.7350  177.9160  147.3250 C   0  0  0  0  0  2  0  0  0  0  0  0
  190.8650  173.2910  144.5250 C   0  0  0  0  0  0  0  0  0  0  0  0
  187.6560  176.2540  143.2980 C   0  0  2  0  0  3  0  0  0  0  0  0
  187.4560  176.5400  144.7810 C   0  0  2  0  0  3  0  0  0  0  0  0
  184.5750  177.9980  143.1610 C   0  0  0  0  0  2  0  0  0  0  0  0
  189.2390  175.1650  140.8870 C   0  0  0  0  0  2  0  0  0  0  0  0
  186.0900  177.8350  143.3060 C   0  0  1  0  0  3  0  0  0  0  0  0
  185.4120  177.5490  145.7480 C   0  0  0  0  0  2  0  0  0  0  0  0
  189.8130  173.1510  142.3150 C   0  0  1  0  0  3  0  0  0  0  0  0
  190.1630  172.5910  143.6720 C   0  0  0  0  0  0  0  0  0  0  0  0
  186.5650  177.7480  144.7650 C   0  0  1  0  0  3  0  0  0  0  0  0
  186.5140  176.6880  142.6120 O   0  0  0  0  0  0  0  0  0  0  0  0
  190.8160  176.9820  147.8530 C   0  0  0  0  0  2  0  0  0  0  0  0
  188.9570  172.2910  141.6140 O   0  0  0  0  0  0  0  0  0  0  0  0
  188.7040  173.1750  139.3730 C   0  0  0  0  0  2  0  0  0  0  0  0
  184.3720  178.6660  145.6100 C   0  0  0  0  0  2  0  0  0  0  0  0
  188.5760  177.1500  146.8890 N   0  0  0  0  0  2  0  0  0  0  0  0
  191.4680  174.0710  145.3930 C   0  0  0  0  0  3  0  0  0  0  0  0
  192.7830  176.3390  146.6840 O   0  0  0  0  0  0  0  0  0  0  0  0
  184.0600  179.0390  144.1520 C   0  0  0  0  0  2  0  0  0  0  0  0
  189.6020  175.5820  145.3710 C   0  0  0  0  0  3  0  0  0  0  0  0
  187.9200  174.7700  143.0210 C   0  0  0  0  0  2  0  0  0  0  0  0
  189.7650  171.3070  144.0190 O   0  0  0  0  0  1  0  0  0  0  0  0
  189.2730  174.6000  142.3140 C   0  0  2  0  0  3  0  0  0  0  0  0
  189.4850  172.2560  140.3180 C   0  0  0  0  0  2  0  0  0  0  0  0
  187.7540  175.3360  139.0240 O   0  0  0  0  0  1  0  0  0  0  0  0
  191.5300  176.2410  146.7580 C   0  0  0  0  0  0  0  0  0  0  0  0
  190.8180  175.3200  145.8500 C   0  0  0  0  0  0  0  0  0  0  0  0
  188.1910  174.4650  140.0200 C   0  0  2  0  0  3  0  0  0  0  0  0
  1 22  1  1  0  0  0
  1 18  1  0  0  0  0
  2 14  1  0  0  0  0
  3 19  2  0  0  0  0
  4 23  1  1  0  0  0
  4  5  1  0  0  0  0
  5  1  1  0  0  0  0
  6  8  1  0  0  0  0
  6 21  1  0  0  0  0
  7 25  1  0  0  0  0
  8 12  1  0  0  0  0
 10 11  1  0  0  0  0
 11 24  1  0  0  0  0
 11  3  2  0  0  0  0
 12  5  1  0  0  0  0
 12  9  1  0  0  0  0
 13  4  1  0  0  0  0
 13  8  1  0  0  0  0
 15 10  1  0  0  0  0
 16 30  1  0  0  0  0
 16 26  1  0  0  0  0
 17  9  1  0  0  0  0
 18  2  1  0  0  0  0
 19 29  1  0  0  0  0
 20 28  2  0  0  0  0
 21 17  1  0  0  0  0
 22 29  2  0  0  0  0
 25 10  1  0  0  0  0
 25 23  1  0  0  0  0
 26 15  1  0  0  0  0
 27 30  1  0  0  0  0
 28 14  1  0  0  0  0
 29 28  1  0  0  0  0
 30  7  1  0  0  0  0
M  END
>  <MODEL>
5

>  <REMARK>
 VINA RESULT:      -7.9      2.160      6.147
  Name = 
  0 active torsions:
  status: ('A' for Active; 'I' for Inactive)
                            x       y       z     vdW  Elec       q    Type
                         _______ _______ _______ _____ _____    ______ ____

>  <TORSDO>
F 0

$$$$
=
 OpenBabel11052417193D

 30 34  0  0  1  0  0  0  0  0999 V2000
  188.4640  174.6130  141.5110 C   0  0  1  0  0  3  0  0  0  0  0  0
  188.1730  173.0220  139.8190 C   0  0  0  0  0  2  0  0  0  0  0  0
  192.2010  174.2200  143.4040 C   0  0  0  0  0  0  0  0  0  0  0  0
  188.1350  176.2310  143.4260 C   0  0  2  0  0  3  0  0  0  0  0  0
  188.1190  176.0510  141.9130 C   0  0  2  0  0  3  0  0  0  0  0  0
  185.4590  178.3990  142.5930 C   0  0  0  0  0  2  0  0  0  0  0  0
  189.1590  175.6130  146.2670 C   0  0  0  0  0  2  0  0  0  0  0  0
  186.1550  177.0570  142.8340 C   0  0  1  0  0  3  0  0  0  0  0  0
  186.7040  177.3640  140.3620 C   0  0  0  0  0  2  0  0  0  0  0  0
  191.5030  175.6070  145.3000 C   0  0  1  0  0  3  0  0  0  0  0  0
  192.4220  175.2680  144.1530 C   0  0  0  0  0  0  0  0  0  0  0  0
  186.7060  176.4090  141.5550 C   0  0  1  0  0  3  0  0  0  0  0  0
  187.2030  177.2230  143.7570 O   0  0  0  0  0  0  0  0  0  0  0  0
  189.5090  172.3000  139.6940 C   0  0  0  0  0  2  0  0  0  0  0  0
  191.8510  176.8310  145.8880 O   0  0  0  0  0  0  0  0  0  0  0  0
  190.4800  177.1120  147.8660 C   0  0  0  0  0  2  0  0  0  0  0  0
  185.2980  177.9130  140.0990 C   0  0  0  0  0  2  0  0  0  0  0  0
  188.3880  174.4410  140.0670 N   0  0  0  0  0  2  0  0  0  0  0  0
  191.8750  173.2270  142.6070 C   0  0  0  0  0  3  0  0  0  0  0  0
  190.5190  170.9540  141.3710 O   0  0  0  0  0  0  0  0  0  0  0  0
  184.5410  178.3060  141.3770 C   0  0  0  0  0  2  0  0  0  0  0  0
  189.8520  174.3590  141.9830 C   0  0  0  0  0  3  0  0  0  0  0  0
  189.5250  176.5980  143.9550 C   0  0  0  0  0  2  0  0  0  0  0  0
  193.5370  176.0570  143.8980 O   0  0  0  0  0  1  0  0  0  0  0  0
  189.9910  175.5530  144.9790 C   0  0  2  0  0  3  0  0  0  0  0  0
  191.7870  176.5860  147.2650 C   0  0  0  0  0  2  0  0  0  0  0  0
  188.1020  177.2200  147.6850 O   0  0  0  0  0  1  0  0  0  0  0  0
  190.1980  172.1180  141.0160 C   0  0  0  0  0  0  0  0  0  0  0  0
  190.6070  173.2700  141.8450 C   0  0  0  0  0  0  0  0  0  0  0  0
  189.2600  176.9800  146.9470 C   0  0  2  0  0  3  0  0  0  0  0  0
  1  5  1  0  0  0  0
  1 22  1  6  0  0  0
  2 18  1  0  0  0  0
  3 11  2  0  0  0  0
  4 13  1  0  0  0  0
  4 23  1  6  0  0  0
  5  4  1  0  0  0  0
  6  8  1  0  0  0  0
  7 30  1  0  0  0  0
  8 13  1  0  0  0  0
  9 12  1  0  0  0  0
 10 15  1  0  0  0  0
 11 10  1  0  0  0  0
 12  5  1  0  0  0  0
 12  8  1  0  0  0  0
 14  2  1  0  0  0  0
 14 28  1  0  0  0  0
 15 26  1  0  0  0  0
 17  9  1  0  0  0  0
 17 21  1  0  0  0  0
 18  1  1  0  0  0  0
 19  3  2  0  0  0  0
 21  6  1  0  0  0  0
 23 25  1  0  0  0  0
 24 11  1  0  0  0  0
 25 10  1  0  0  0  0
 25  7  1  0  0  0  0
 26 16  1  0  0  0  0
 28 20  2  0  0  0  0
 28 29  1  0  0  0  0
 29 22  2  0  0  0  0
 29 19  1  0  0  0  0
 30 27  1  0  0  0  0
 30 16  1  0  0  0  0
M  END
>  <MODEL>
6

>  <REMARK>
 VINA RESULT:      -7.8      1.831      5.299
  Name = 
  0 active torsions:
  status: ('A' for Active; 'I' for Inactive)
                            x       y       z     vdW  Elec       q    Type
                         _______ _______ _______ _____ _____    ______ ____

>  <TORSDO>
F 0

$$$$
=
 OpenBabel11052417193D

 30 34  0  0  1  0  0  0  0  0999 V2000
  191.5050  175.4660  145.0340 C   0  0  1  0  0  3  0  0  0  0  0  0
  193.0330  176.5330  146.4480 C   0  0  0  0  0  2  0  0  0  0  0  0
  193.1670  172.0480  143.2280 C   0  0  0  0  0  0  0  0  0  0  0  0
  189.6660  174.9300  143.3830 C   0  0  2  0  0  3  0  0  0  0  0  0
  190.0140  175.1600  144.8480 C   0  0  2  0  0  3  0  0  0  0  0  0
  186.7090  176.5630  144.4520 C   0  0  0  0  0  2  0  0  0  0  0  0
  190.2850  173.9810  140.5160 C   0  0  0  0  0  2  0  0  0  0  0  0
  188.1760  176.4510  144.0290 C   0  0  1  0  0  3  0  0  0  0  0  0
  188.4420  176.0600  146.5360 C   0  0  0  0  0  2  0  0  0  0  0  0
  191.3850  171.9430  141.5470 C   0  0  1  0  0  3  0  0  0  0  0  0
  192.2180  171.3520  142.6580 C   0  0  0  0  0  0  0  0  0  0  0  0
  189.1520  176.3330  145.2100 C   0  0  1  0  0  3  0  0  0  0  0  0
  188.3440  175.3440  143.1790 O   0  0  0  0  0  0  0  0  0  0  0  0
  194.2530  175.6230  146.5050 C   0  0  0  0  0  2  0  0  0  0  0  0
  190.3520  171.0760  141.1680 O   0  0  0  0  0  0  0  0  0  0  0  0
  189.2790  172.0230  139.2130 C   0  0  0  0  0  2  0  0  0  0  0  0
  187.3990  177.1410  146.8350 C   0  0  0  0  0  2  0  0  0  0  0  0
  191.8120  175.7400  146.4300 N   0  0  0  0  0  2  0  0  0  0  0  0
  194.0280  172.8220  143.8500 C   0  0  0  0  0  3  0  0  0  0  0  0
  195.6710  175.0920  144.6740 O   0  0  0  0  0  0  0  0  0  0  0  0
  186.5680  177.5500  145.6090 C   0  0  0  0  0  2  0  0  0  0  0  0
  192.2490  174.2620  144.5750 C   0  0  0  0  0  3  0  0  0  0  0  0
  189.8440  173.4670  142.9640 C   0  0  0  0  0  2  0  0  0  0  0  0
  192.0020  170.0430  143.0680 O   0  0  0  0  0  1  0  0  0  0  0  0
  190.8490  173.3700  141.8060 C   0  0  2  0  0  3  0  0  0  0  0  0
  190.3710  171.1040  139.7690 C   0  0  0  0  0  2  0  0  0  0  0  0
  188.2190  174.1590  139.3300 O   0  0  0  0  0  1  0  0  0  0  0  0
  194.5340  174.9460  145.1940 C   0  0  0  0  0  0  0  0  0  0  0  0
  193.5610  174.0290  144.5680 C   0  0  0  0  0  0  0  0  0  0  0  0
  189.0090  173.2710  140.0590 C   0  0  2  0  0  3  0  0  0  0  0  0
  1 22  1  1  0  0  0
  1 18  1  0  0  0  0
  2 14  1  0  0  0  0
  3 19  2  0  0  0  0
  4 23  1  1  0  0  0
  4  5  1  0  0  0  0
  5  1  1  0  0  0  0
  5 12  1  0  0  0  0
  6 21  1  0  0  0  0
  7 25  1  0  0  0  0
  8  6  1  0  0  0  0
  8 12  1  0  0  0  0
  9 17  1  0  0  0  0
 10 25  1  0  0  0  0
 10 11  1  0  0  0  0
 11 24  1  0  0  0  0
 11  3  2  0  0  0  0
 12  9  1  0  0  0  0
 13  4  1  0  0  0  0
 13  8  1  0  0  0  0
 15 10  1  0  0  0  0
 16 26  1  0  0  0  0
 16 30  1  0  0  0  0
 18  2  1  0  0  0  0
 19 29  1  0  0  0  0
 20 28  2  0  0  0  0
 21 17  1  0  0  0  0
 25 23  1  0  0  0  0
 26 15  1  0  0  0  0
 27 30  1  0  0  0  0
 28 14  1  0  0  0  0
 29 22  2  0  0  0  0
 29 28  1  0  0  0  0
 30  7  1  0  0  0  0
M  END
>  <MODEL>
7

>  <REMARK>
 VINA RESULT:      -7.7      2.432      6.763
  Name = 
  0 active torsions:
  status: ('A' for Active; 'I' for Inactive)
                            x       y       z     vdW  Elec       q    Type
                         _______ _______ _______ _____ _____    ______ ____

>  <TORSDO>
F 0

$$$$
=
 OpenBabel11052417193D

 30 34  0  0  1  0  0  0  0  0999 V2000
  191.3950  175.5230  145.0470 C   0  0  1  0  0  3  0  0  0  0  0  0
  191.2350  176.4240  147.2000 C   0  0  0  0  0  2  0  0  0  0  0  0
  187.7920  175.9260  142.9100 C   0  0  0  0  0  0  0  0  0  0  0  0
  191.9480  174.1090  143.0250 C   0  0  2  0  0  3  0  0  0  0  0  0
  192.3640  175.2980  143.8810 C   0  0  2  0  0  3  0  0  0  0  0  0
  195.4700  173.7750  142.8400 C   0  0  0  0  0  2  0  0  0  0  0  0
  189.8720  172.2220  141.7460 C   0  0  0  0  0  2  0  0  0  0  0  0
  194.0840  173.6850  143.4820 C   0  0  1  0  0  3  0  0  0  0  0  0
  194.7020  176.0610  144.1740 C   0  0  0  0  0  2  0  0  0  0  0  0
  188.4840  174.2800  141.2300 C   0  0  1  0  0  3  0  0  0  0  0  0
  188.0000  175.6460  141.6500 C   0  0  0  0  0  0  0  0  0  0  0  0
  193.7300  174.8960  144.3580 C   0  0  1  0  0  3  0  0  0  0  0  0
  193.1050  173.5340  142.4840 O   0  0  0  0  0  0  0  0  0  0  0  0
  189.8740  177.1050  147.2660 C   0  0  0  0  0  2  0  0  0  0  0  0
  188.7580  174.2360  139.8560 O   0  0  0  0  0  0  0  0  0  0  0  0
  189.2560  171.9360  139.2800 C   0  0  0  0  0  2  0  0  0  0  0  0
  196.1430  175.6240  144.4560 C   0  0  0  0  0  2  0  0  0  0  0  0
  191.8370  176.6250  145.8900 N   0  0  0  0  0  2  0  0  0  0  0  0
  187.7100  176.1990  144.1930 C   0  0  0  0  0  3  0  0  0  0  0  0
  187.7690  176.0140  147.1070 O   0  0  0  0  0  0  0  0  0  0  0  0
  196.4970  174.2510  143.8650 C   0  0  0  0  0  2  0  0  0  0  0  0
  190.0710  175.8400  144.4450 C   0  0  0  0  0  3  0  0  0  0  0  0
  190.9720  174.5050  141.9120 C   0  0  0  0  0  2  0  0  0  0  0  0
  187.7410  176.6170  140.6910 O   0  0  0  0  0  1  0  0  0  0  0  0
  189.6640  173.7120  142.0520 C   0  0  2  0  0  3  0  0  0  0  0  0
  188.1930  173.0290  139.4280 C   0  0  0  0  0  2  0  0  0  0  0  0
  191.1170  170.8160  140.2700 O   0  0  0  0  0  1  0  0  0  0  0  0
  188.8150  176.3640  146.5010 C   0  0  0  0  0  0  0  0  0  0  0  0
  188.9190  176.1420  145.0450 C   0  0  0  0  0  0  0  0  0  0  0  0
  190.3790  171.9980  140.3210 C   0  0  2  0  0  3  0  0  0  0  0  0
  1 22  1  6  0  0  0
  1 18  1  0  0  0  0
  2 14  1  0  0  0  0
  3 19  2  0  0  0  0
  4 23  1  6  0  0  0
  4  5  1  0  0  0  0
  5 12  1  0  0  0  0
  5  1  1  0  0  0  0
  6  8  1  0  0  0  0
  6 21  1  0  0  0  0
  7 25  1  0  0  0  0
  8 12  1  0  0  0  0
  9 12  1  0  0  0  0
  9 17  1  0  0  0  0
 10 11  1  0  0  0  0
 10 25  1  0  0  0  0
 11  3  2  0  0  0  0
 13  4  1  0  0  0  0
 13  8  1  0  0  0  0
 15 10  1  0  0  0  0
 16 26  1  0  0  0  0
 16 30  1  0  0  0  0
 18  2  1  0  0  0  0
 19 29  1  0  0  0  0
 21 17  1  0  0  0  0
 22 29  2  0  0  0  0
 23 25  1  0  0  0  0
 24 11  1  0  0  0  0
 26 15  1  0  0  0  0
 27 30  1  0  0  0  0
 28 20  2  0  0  0  0
 28 14  1  0  0  0  0
 29 28  1  0  0  0  0
 30  7  1  0  0  0  0
M  END
>  <MODEL>
8

>  <REMARK>
 VINA RESULT:      -7.5      2.180      5.938
  Name = 
  0 active torsions:
  status: ('A' for Active; 'I' for Inactive)
                            x       y       z     vdW  Elec       q    Type
                         _______ _______ _______ _____ _____    ______ ____

>  <TORSDO>
F 0

$$$$
=
 OpenBabel11052417193D

 30 34  0  0  1  0  0  0  0  0999 V2000
  190.1790  175.8300  143.9090 C   0  0  1  0  0  3  0  0  0  0  0  0
  188.8620  177.5260  144.8380 C   0  0  0  0  0  2  0  0  0  0  0  0
  188.5240  174.3380  140.3400 C   0  0  0  0  0  0  0  0  0  0  0  0
  191.7050  173.8480  143.5370 C   0  0  2  0  0  3  0  0  0  0  0  0
  191.6270  175.3550  143.7420 C   0  0  2  0  0  3  0  0  0  0  0  0
  194.6480  174.3440  145.4460 C   0  0  0  0  0  2  0  0  0  0  0  0
  190.6330  171.1430  142.5160 C   0  0  0  0  0  2  0  0  0  0  0  0
  193.1440  174.2120  145.1950 C   0  0  1  0  0  3  0  0  0  0  0  0
  193.4060  176.7180  144.7960 C   0  0  0  0  0  2  0  0  0  0  0  0
  189.9480  172.3430  140.3910 C   0  0  1  0  0  3  0  0  0  0  0  0
  189.4040  173.5870  139.7320 C   0  0  0  0  0  0  0  0  0  0  0  0
  192.4310  175.5580  144.9940 C   0  0  1  0  0  3  0  0  0  0  0  0
  192.9180  173.3970  144.0720 O   0  0  0  0  0  0  0  0  0  0  0  0
  187.7660  177.8060  143.8180 C   0  0  0  0  0  2  0  0  0  0  0  0
  190.9640  171.7610  139.6220 O   0  0  0  0  0  0  0  0  0  0  0  0
  191.5450  169.6470  140.6530 C   0  0  0  0  0  2  0  0  0  0  0  0
  194.3830  176.8220  145.9720 C   0  0  0  0  0  2  0  0  0  0  0  0
  190.1240  177.2620  144.1620 N   0  0  0  0  0  2  0  0  0  0  0  0
  187.7310  175.1250  141.0330 C   0  0  0  0  0  3  0  0  0  0  0  0
  186.0750  176.2780  143.1450 O   0  0  0  0  0  0  0  0  0  0  0  0
  194.9180  175.4630  146.4500 C   0  0  0  0  0  2  0  0  0  0  0  0
  189.4760  175.5090  142.6380 C   0  0  0  0  0  3  0  0  0  0  0  0
  191.5860  173.4530  142.0610 C   0  0  0  0  0  2  0  0  0  0  0  0
  189.8160  173.9330  138.4510 O   0  0  0  0  0  1  0  0  0  0  0  0
  190.3890  172.5110  141.8640 C   0  0  2  0  0  3  0  0  0  0  0  0
  190.6720  170.3920  139.6390 C   0  0  0  0  0  2  0  0  0  0  0  0
  192.4050  169.5820  142.8790 O   0  0  0  0  0  1  0  0  0  0  0  0
  187.3000  176.5670  143.1090 C   0  0  0  0  0  0  0  0  0  0  0  0
  188.2140  175.7530  142.2840 C   0  0  0  0  0  0  0  0  0  0  0  0
  191.8570  170.4400  141.9270 C   0  0  2  0  0  3  0  0  0  0  0  0
  1 22  1  6  0  0  0
  1 18  1  0  0  0  0
  3 19  2  0  0  0  0
  4 23  1  6  0  0  0
  4  5  1  0  0  0  0
  4 13  1  0  0  0  0
  5  1  1  0  0  0  0
  5 12  1  0  0  0  0
  6 21  1  0  0  0  0
  8  6  1  0  0  0  0
  9 12  1  0  0  0  0
  9 17  1  0  0  0  0
 10 25  1  0  0  0  0
 11  3  2  0  0  0  0
 11 10  1  0  0  0  0
 12  8  1  0  0  0  0
 13  8  1  0  0  0  0
 14  2  1  0  0  0  0
 15 26  1  0  0  0  0
 15 10  1  0  0  0  0
 16 30  1  0  0  0  0
 17 21  1  0  0  0  0
 18  2  1  0  0  0  0
 19 29  1  0  0  0  0
 24 11  1  0  0  0  0
 25 23  1  0  0  0  0
 25  7  1  0  0  0  0
 26 16  1  0  0  0  0
 28 20  2  0  0  0  0
 28 14  1  0  0  0  0
 29 22  2  0  0  0  0
 29 28  1  0  0  0  0
 30  7  1  0  0  0  0
 30 27  1  0  0  0  0
M  END
>  <MODEL>
9

>  <REMARK>
 VINA RESULT:      -7.4      2.389      6.116
  Name = 
  0 active torsions:
  status: ('A' for Active; 'I' for Inactive)
                            x       y       z     vdW  Elec       q    Type
                         _______ _______ _______ _____ _____    ______ ____

>  <TORSDO>
F 0

$$$$
