=
 OpenBabel11052420123D

 37 41  0  0  1  0  0  0  0  0999 V2000
  190.2420  175.9450  144.5020 C   0  0  2  0  0  3  0  0  0  0  0  0
  188.2490  176.9880  143.5250 C   0  0  1  0  0  3  0  0  0  0  0  0
  188.7680  176.2520  144.7500 C   0  0  2  0  0  3  0  0  0  0  0  0
  190.5820  176.3220  143.0550 C   0  0  1  0  0  0  0  0  0  0  0  0
  190.9360  175.2120  142.2800 O   0  0  0  0  0  1  0  0  0  0  0  0
  189.3430  176.9920  142.4660 C   0  0  1  0  0  3  0  0  0  0  0  0
  188.1700  176.0290  142.3510 C   0  0  2  0  0  3  0  0  0  0  0  0
  188.6320  176.3160  147.1320 O   0  0  0  0  0  0  0  0  0  0  0  0
  187.3760  176.7760  146.6980 C   0  0  2  0  0  3  0  0  0  0  0  0
  188.6200  177.1260  145.9810 C   0  0  2  0  0  3  0  0  0  0  0  0
  186.9450  177.9390  147.5660 C   0  0  0  0  0  2  0  0  0  0  0  0
  185.5020  178.0830  147.5010 N   0  0  0  0  0  2  0  0  0  0  0  0
  185.1280  177.9350  146.1070 C   0  0  0  0  0  3  0  0  0  0  0  0
  183.9150  178.7970  145.8240 C   0  0  0  0  0  2  0  0  0  0  0  0
  185.2900  179.2670  145.4040 C   0  0  0  0  0  2  0  0  0  0  0  0
  191.7250  177.3280  143.0450 C   0  0  0  0  0  2  0  0  0  0  0  0
  192.8900  176.7460  142.5410 O   0  0  0  0  0  1  0  0  0  0  0  0
  187.1870  176.5600  141.3260 C   0  0  0  0  0  2  0  0  0  0  0  0
  185.9840  177.0360  141.9930 N   0  0  0  0  0  2  0  0  0  0  0  0
  185.0210  177.8710  141.3470 C   0  0  0  0  0  0  0  0  0  0  0  0
  185.2000  178.2600  140.1610 O   0  0  0  0  0  0  0  0  0  0  0  0
  183.7850  178.2680  142.0730 C   0  0  0  0  0  2  0  0  0  0  0  0
  182.6010  178.2450  141.1290 C   0  0  0  0  0  1  0  0  0  0  0  0
  190.6740  174.6570  144.9120 O   0  0  0  0  0  0  0  0  0  0  0  0
  191.8350  174.7770  145.6970 C   0  0  0  0  0  2  0  0  0  0  0  0
  195.5150  174.3520  142.7830 C   0  0  0  0  0  2  0  0  0  0  0  0
  193.9920  173.6620  145.1610 C   0  0  0  0  0  0  0  0  0  0  0  0
  192.7030  173.5770  145.5070 C   0  0  0  0  0  3  0  0  0  0  0  0
  195.0390  175.4680  146.3020 O   0  0  0  0  0  1  0  0  0  0  0  0
  194.5140  171.4530  145.8400 O   0  0  0  0  0  0  0  0  0  0  0  0
  195.8660  172.2750  144.1470 N   0  0  0  0  0  2  0  0  0  0  0  0
  194.7780  172.4130  145.0670 C   0  0  0  0  0  0  0  0  0  0  0  0
  195.8470  175.0730  144.0810 C   0  0  2  0  0  3  0  0  0  0  0  0
  194.6530  175.0190  145.0370 C   0  0  1  0  0  3  0  0  0  0  0  0
  195.9420  172.8860  142.8180 C   0  0  0  0  0  2  0  0  0  0  0  0
  196.1910  176.5230  143.7850 C   0  0  0  0  0  2  0  0  0  0  0  0
  196.2880  176.7190  142.4070 O   0  0  0  0  0  1  0  0  0  0  0  0
  1  3  1  0  0  0  0
  1 24  1  6  0  0  0
  2  3  1  0  0  0  0
  3 10  1  0  0  0  0
  4  1  1  0  0  0  0
  5  4  1  0  0  0  0
  6  4  1  0  0  0  0
  6  2  1  0  0  0  0
  7  6  1  0  0  0  0
  7  2  1  0  0  0  0
  9  8  1  0  0  0  0
  9 11  1  0  0  0  0
 10  9  1  0  0  0  0
 10  8  1  0  0  0  0
 12 11  1  0  0  0  0
 13 12  1  0  0  0  0
 14 13  1  0  0  0  0
 15 14  1  0  0  0  0
 15 13  1  0  0  0  0
 16  4  1  0  0  0  0
 17 16  1  0  0  0  0
 18 19  1  0  0  0  0
 18  7  1  0  0  0  0
 20 19  1  0  0  0  0
 20 22  1  0  0  0  0
 21 20  2  0  0  0  0
 23 22  1  0  0  0  0
 24 25  1  0  0  0  0
 26 35  1  0  0  0  0
 26 33  1  0  0  0  0
 27 28  2  0  0  0  0
 28 25  1  0  0  0  0
 31 32  1  0  0  0  0
 32 27  1  0  0  0  0
 32 30  2  0  0  0  0
 33 34  1  0  0  0  0
 34 27  1  0  0  0  0
 34 29  1  0  0  0  0
 35 31  1  0  0  0  0
 36 33  1  0  0  0  0
 37 36  1  0  0  0  0
M  END
>  <MODEL>
1

>  <REMARK>
 VINA RESULT:      -6.8      0.000      0.000
  Name = 
  12 active torsions:
  status: ('A' for Active; 'I' for Inactive)
    1  A    between atoms: C_1  and  N_5
    2  A    between atoms: C_1  and  C_36
    3  A    between atoms: C_3  and  N_32
    4  A    between atoms: C_4  and  C_22
    5  A    between atoms: C_7  and  C_33
    6  A    between atoms: C_8  and  C_31
    7  A    between atoms: C_10  and  O_14
    8  A    between atoms: C_12  and  C_17
    9  A    between atoms: O_14  and  C_31
   10  A    between atoms: C_16  and  C_30
   11  A    between atoms: C_20  and  C_24
   12  A    between atoms: C_30  and  N_32
                            x       y       z     vdW  Elec       q    Type
                         _______ _______ _______ _____ _____    ______ ____

>  <TORSDO>
F 12

$$$$
=
 OpenBabel11052420123D

 37 41  0  0  1  0  0  0  0  0999 V2000
  190.3880  175.1870  143.4300 C   0  0  2  0  0  3  0  0  0  0  0  0
  191.9660  176.0500  145.0980 C   0  0  1  0  0  3  0  0  0  0  0  0
  190.5670  176.2310  144.5290 C   0  0  2  0  0  3  0  0  0  0  0  0
  191.7340  174.4900  143.1950 C   0  0  1  0  0  0  0  0  0  0  0  0
  192.2490  174.7370  141.9180 O   0  0  0  0  0  1  0  0  0  0  0  0
  192.6990  175.0170  144.2540 C   0  0  1  0  0  3  0  0  0  0  0  0
  192.9920  176.5000  144.0760 C   0  0  2  0  0  3  0  0  0  0  0  0
  188.2430  176.1100  145.0600 O   0  0  0  0  0  0  0  0  0  0  0  0
  188.7050  177.2350  145.7660 C   0  0  2  0  0  3  0  0  0  0  0  0
  189.5320  176.0190  145.6180 C   0  0  2  0  0  3  0  0  0  0  0  0
  188.0700  177.2550  147.1400 C   0  0  0  0  0  2  0  0  0  0  0  0
  186.9840  178.2160  147.1580 N   0  0  0  0  0  2  0  0  0  0  0  0
  185.8080  177.5120  147.6340 C   0  0  0  0  0  3  0  0  0  0  0  0
  184.5670  178.1960  147.0950 C   0  0  0  0  0  2  0  0  0  0  0  0
  185.0680  176.9220  146.4510 C   0  0  0  0  0  2  0  0  0  0  0  0
  191.5740  172.9900  143.3920 C   0  0  0  0  0  2  0  0  0  0  0  0
  190.8350  172.7190  144.5460 O   0  0  0  0  0  1  0  0  0  0  0  0
  194.2930  176.8390  144.7780 C   0  0  0  0  0  2  0  0  0  0  0  0
  195.2440  175.7490  144.6140 N   0  0  0  0  0  2  0  0  0  0  0  0
  196.4170  175.8630  143.8060 C   0  0  0  0  0  0  0  0  0  0  0  0
  196.6580  176.9230  143.1670 O   0  0  0  0  0  0  0  0  0  0  0  0
  197.3740  174.7270  143.7350 C   0  0  0  0  0  2  0  0  0  0  0  0
  196.6710  173.4910  143.2110 C   0  0  0  0  0  1  0  0  0  0  0  0
  189.7260  175.6400  142.2600 O   0  0  0  0  0  0  0  0  0  0  0  0
  188.4260  175.1050  142.2160 C   0  0  0  0  0  2  0  0  0  0  0  0
  184.7180  178.0110  142.3650 C   0  0  0  0  0  2  0  0  0  0  0  0
  187.0740  176.8680  141.1010 C   0  0  0  0  0  0  0  0  0  0  0  0
  187.6800  175.6770  141.0570 C   0  0  0  0  0  3  0  0  0  0  0  0
  188.4150  178.4370  142.2840 O   0  0  0  0  0  1  0  0  0  0  0  0
  186.9100  177.0820  138.7470 O   0  0  0  0  0  0  0  0  0  0  0  0
  185.2670  178.2170  139.9250 N   0  0  0  0  0  2  0  0  0  0  0  0
  186.4210  177.3710  139.8720 C   0  0  0  0  0  0  0  0  0  0  0  0
  186.0520  178.7160  142.5650 C   0  0  2  0  0  3  0  0  0  0  0  0
  187.2060  177.7390  142.3340 C   0  0  1  0  0  3  0  0  0  0  0  0
  184.2070  178.1510  140.9320 C   0  0  0  0  0  2  0  0  0  0  0  0
  186.1300  179.2650  143.9790 C   0  0  0  0  0  2  0  0  0  0  0  0
  185.1260  180.2120  144.1800 O   0  0  0  0  0  1  0  0  0  0  0  0
  1 24  1  6  0  0  0
  1  3  1  0  0  0  0
  3  2  1  0  0  0  0
  3 10  1  0  0  0  0
  4 16  1  0  0  0  0
  4  1  1  0  0  0  0
  4  6  1  0  0  0  0
  5  4  1  0  0  0  0
  6  2  1  0  0  0  0
  7  6  1  0  0  0  0
  7 18  1  0  0  0  0
  7  2  1  0  0  0  0
  8 10  1  0  0  0  0
  8  9  1  0  0  0  0
  9 11  1  0  0  0  0
 10  9  1  0  0  0  0
 11 12  1  0  0  0  0
 12 13  1  0  0  0  0
 14 13  1  0  0  0  0
 15 14  1  0  0  0  0
 15 13  1  0  0  0  0
 16 17  1  0  0  0  0
 19 18  1  0  0  0  0
 20 19  1  0  0  0  0
 21 20  2  0  0  0  0
 22 20  1  0  0  0  0
 23 22  1  0  0  0  0
 25 24  1  0  0  0  0
 26 33  1  0  0  0  0
 27 34  1  0  0  0  0
 28 27  2  0  0  0  0
 28 25  1  0  0  0  0
 29 34  1  0  0  0  0
 30 32  2  0  0  0  0
 31 35  1  0  0  0  0
 32 31  1  0  0  0  0
 32 27  1  0  0  0  0
 33 36  1  0  0  0  0
 34 33  1  0  0  0  0
 35 26  1  0  0  0  0
 36 37  1  0  0  0  0
M  END
>  <MODEL>
2

>  <REMARK>
 VINA RESULT:      -6.7      1.870      8.035
  Name = 
  12 active torsions:
  status: ('A' for Active; 'I' for Inactive)
    1  A    between atoms: C_1  and  N_5
    2  A    between atoms: C_1  and  C_36
    3  A    between atoms: C_3  and  N_32
    4  A    between atoms: C_4  and  C_22
    5  A    between atoms: C_7  and  C_33
    6  A    between atoms: C_8  and  C_31
    7  A    between atoms: C_10  and  O_14
    8  A    between atoms: C_12  and  C_17
    9  A    between atoms: O_14  and  C_31
   10  A    between atoms: C_16  and  C_30
   11  A    between atoms: C_20  and  C_24
   12  A    between atoms: C_30  and  N_32
                            x       y       z     vdW  Elec       q    Type
                         _______ _______ _______ _____ _____    ______ ____

>  <TORSDO>
F 12

$$$$
=
 OpenBabel11052420123D

 37 41  0  0  1  0  0  0  0  0999 V2000
  189.9460  175.9660  144.5300 C   0  0  2  0  0  3  0  0  0  0  0  0
  188.2410  177.5290  143.7110 C   0  0  1  0  0  3  0  0  0  0  0  0
  188.4930  176.4010  144.7010 C   0  0  2  0  0  3  0  0  0  0  0  0
  190.5330  176.6920  143.3130 C   0  0  1  0  0  0  0  0  0  0  0  0
  190.8740  175.8140  142.2780 O   0  0  0  0  0  1  0  0  0  0  0  0
  189.4730  177.6780  142.8280 C   0  0  1  0  0  3  0  0  0  0  0  0
  188.2320  176.9730  142.2990 C   0  0  2  0  0  3  0  0  0  0  0  0
  187.9520  175.8000  146.9460 O   0  0  0  0  0  0  0  0  0  0  0  0
  186.8740  176.6000  146.5290 C   0  0  2  0  0  3  0  0  0  0  0  0
  188.2630  176.8940  146.1160 C   0  0  2  0  0  3  0  0  0  0  0  0
  186.4730  177.5230  147.6610 C   0  0  0  0  0  2  0  0  0  0  0  0
  185.2030  178.1510  147.3470 N   0  0  0  0  0  2  0  0  0  0  0  0
  185.0040  178.0040  145.9170 C   0  0  0  0  0  3  0  0  0  0  0  0
  183.8560  178.8910  145.4820 C   0  0  0  0  0  2  0  0  0  0  0  0
  185.2830  179.3290  145.2370 C   0  0  0  0  0  2  0  0  0  0  0  0
  191.7660  177.4790  143.7330 C   0  0  0  0  0  2  0  0  0  0  0  0
  191.4880  178.8470  143.7780 O   0  0  0  0  0  1  0  0  0  0  0  0
  187.4720  177.9160  141.3870 C   0  0  0  0  0  2  0  0  0  0  0  0
  186.1450  178.1690  141.9290 N   0  0  0  0  0  2  0  0  0  0  0  0
  184.9530  178.0150  141.1570 C   0  0  0  0  0  0  0  0  0  0  0  0
  185.0110  177.6760  139.9440 O   0  0  0  0  0  0  0  0  0  0  0  0
  183.6280  178.2340  141.7980 C   0  0  0  0  0  2  0  0  0  0  0  0
  182.5390  178.2370  140.7450 C   0  0  0  0  0  1  0  0  0  0  0  0
  190.1720  174.5670  144.5700 O   0  0  0  0  0  0  0  0  0  0  0  0
  190.8890  174.2380  145.7330 C   0  0  0  0  0  2  0  0  0  0  0  0
  194.4600  171.1620  145.6990 C   0  0  0  0  0  2  0  0  0  0  0  0
  193.1890  173.6740  144.9740 C   0  0  0  0  0  0  0  0  0  0  0  0
  192.3390  174.5380  145.5380 C   0  0  0  0  0  3  0  0  0  0  0  0
  192.1540  172.5700  143.1400 O   0  0  0  0  0  1  0  0  0  0  0  0
  194.8400  175.3090  144.5140 O   0  0  0  0  0  0  0  0  0  0  0  0
  195.6750  173.1660  144.8030 N   0  0  0  0  0  2  0  0  0  0  0  0
  194.5900  174.1000  144.7660 C   0  0  0  0  0  0  0  0  0  0  0  0
  193.7010  171.2270  144.3810 C   0  0  2  0  0  3  0  0  0  0  0  0
  192.6760  172.3620  144.4180 C   0  0  1  0  0  3  0  0  0  0  0  0
  195.7500  171.9790  145.6560 C   0  0  0  0  0  2  0  0  0  0  0  0
  192.9870  169.9080  144.1390 C   0  0  0  0  0  2  0  0  0  0  0  0
  193.4110  168.9580  145.0680 O   0  0  0  0  0  1  0  0  0  0  0  0
  1 24  1  6  0  0  0
  1  3  1  0  0  0  0
  2  3  1  0  0  0  0
  3 10  1  0  0  0  0
  4 16  1  0  0  0  0
  4  1  1  0  0  0  0
  5  4  1  0  0  0  0
  6  4  1  0  0  0  0
  6  2  1  0  0  0  0
  7  6  1  0  0  0  0
  7  2  1  0  0  0  0
  9  8  1  0  0  0  0
  9 11  1  0  0  0  0
 10  9  1  0  0  0  0
 10  8  1  0  0  0  0
 12 11  1  0  0  0  0
 13 12  1  0  0  0  0
 14 13  1  0  0  0  0
 15 14  1  0  0  0  0
 15 13  1  0  0  0  0
 16 17  1  0  0  0  0
 18 19  1  0  0  0  0
 18  7  1  0  0  0  0
 20 22  1  0  0  0  0
 20 19  1  0  0  0  0
 21 20  2  0  0  0  0
 23 22  1  0  0  0  0
 24 25  1  0  0  0  0
 27 28  2  0  0  0  0
 28 25  1  0  0  0  0
 29 34  1  0  0  0  0
 30 32  2  0  0  0  0
 31 35  1  0  0  0  0
 32 31  1  0  0  0  0
 32 27  1  0  0  0  0
 33 34  1  0  0  0  0
 33 26  1  0  0  0  0
 34 27  1  0  0  0  0
 35 26  1  0  0  0  0
 36 33  1  0  0  0  0
 36 37  1  0  0  0  0
M  END
>  <MODEL>
3

>  <REMARK>
 VINA RESULT:      -6.7      1.314      2.637
  Name = 
  12 active torsions:
  status: ('A' for Active; 'I' for Inactive)
    1  A    between atoms: C_1  and  N_5
    2  A    between atoms: C_1  and  C_36
    3  A    between atoms: C_3  and  N_32
    4  A    between atoms: C_4  and  C_22
    5  A    between atoms: C_7  and  C_33
    6  A    between atoms: C_8  and  C_31
    7  A    between atoms: C_10  and  O_14
    8  A    between atoms: C_12  and  C_17
    9  A    between atoms: O_14  and  C_31
   10  A    between atoms: C_16  and  C_30
   11  A    between atoms: C_20  and  C_24
   12  A    between atoms: C_30  and  N_32
                            x       y       z     vdW  Elec       q    Type
                         _______ _______ _______ _____ _____    ______ ____

>  <TORSDO>
F 12

$$$$
=
 OpenBabel11052420123D

 37 41  0  0  1  0  0  0  0  0999 V2000
  190.6620  176.0360  143.3420 C   0  0  2  0  0  3  0  0  0  0  0  0
  188.5050  176.0840  144.5100 C   0  0  1  0  0  3  0  0  0  0  0  0
  189.3810  176.8450  143.5270 C   0  0  2  0  0  3  0  0  0  0  0  0
  190.6570  174.8790  144.3480 C   0  0  1  0  0  0  0  0  0  0  0  0
  191.6840  174.9850  145.2930 O   0  0  0  0  0  1  0  0  0  0  0  0
  189.3020  174.9040  145.0500 C   0  0  1  0  0  3  0  0  0  0  0  0
  189.1170  176.1550  145.8970 C   0  0  2  0  0  3  0  0  0  0  0  0
  189.0070  178.2240  141.6160 O   0  0  0  0  0  0  0  0  0  0  0  0
  187.7520  178.1530  142.2460 C   0  0  2  0  0  3  0  0  0  0  0  0
  188.6630  176.9900  142.1990 C   0  0  2  0  0  3  0  0  0  0  0  0
  186.6750  177.9980  141.1930 C   0  0  0  0  0  2  0  0  0  0  0  0
  185.4210  178.5230  141.7020 N   0  0  0  0  0  2  0  0  0  0  0  0
  185.4530  178.3620  143.1440 C   0  0  0  0  0  3  0  0  0  0  0  0
  185.0630  179.6720  143.7980 C   0  0  0  0  0  2  0  0  0  0  0  0
  184.0550  178.5470  143.6970 C   0  0  0  0  0  2  0  0  0  0  0  0
  190.7910  173.5570  143.6060 C   0  0  0  0  0  2  0  0  0  0  0  0
  190.2120  173.6400  142.3380 O   0  0  0  0  0  1  0  0  0  0  0  0
  188.0460  175.9000  146.9390 C   0  0  0  0  0  2  0  0  0  0  0  0
  187.3210  177.1310  147.2180 N   0  0  0  0  0  2  0  0  0  0  0  0
  185.9480  177.3160  146.8660 C   0  0  0  0  0  0  0  0  0  0  0  0
  185.3120  176.4120  146.2600 O   0  0  0  0  0  0  0  0  0  0  0  0
  185.2580  178.5810  147.2380 C   0  0  0  0  0  2  0  0  0  0  0  0
  186.2360  179.5280  147.9010 C   0  0  0  0  0  1  0  0  0  0  0  0
  191.8600  176.7940  143.2940 O   0  0  0  0  0  0  0  0  0  0  0  0
  192.7740  176.1750  142.4230 C   0  0  0  0  0  2  0  0  0  0  0  0
  194.9980  173.2860  145.4110 C   0  0  0  0  0  2  0  0  0  0  0  0
  194.9240  175.2730  143.2900 C   0  0  0  0  0  0  0  0  0  0  0  0
  194.1620  176.3200  142.9570 C   0  0  0  0  0  3  0  0  0  0  0  0
  194.6520  173.5140  141.7120 O   0  0  0  0  0  1  0  0  0  0  0  0
  196.9500  176.5010  143.2640 O   0  0  0  0  0  0  0  0  0  0  0  0
  196.9620  174.6710  144.6870 N   0  0  0  0  0  2  0  0  0  0  0  0
  196.3090  175.5270  143.7430 C   0  0  0  0  0  0  0  0  0  0  0  0
  195.0100  172.7970  143.9700 C   0  0  2  0  0  3  0  0  0  0  0  0
  194.4230  173.8640  143.0450 C   0  0  1  0  0  3  0  0  0  0  0  0
  196.3110  173.9680  145.7940 C   0  0  0  0  0  2  0  0  0  0  0  0
  194.1890  171.5240  143.8580 C   0  0  0  0  0  2  0  0  0  0  0  0
  193.2750  171.4510  144.9090 O   0  0  0  0  0  1  0  0  0  0  0  0
  1 24  1  1  0  0  0
  1  3  1  0  0  0  0
  1  4  1  0  0  0  0
  2  6  1  0  0  0  0
  2  7  1  0  0  0  0
  3  2  1  0  0  0  0
  4  6  1  0  0  0  0
  4  5  1  0  0  0  0
  6  7  1  0  0  0  0
  7 18  1  0  0  0  0
  8 10  1  0  0  0  0
  8  9  1  0  0  0  0
 10  9  1  0  0  0  0
 10  3  1  0  0  0  0
 11 12  1  0  0  0  0
 11  9  1  0  0  0  0
 12 13  1  0  0  0  0
 13 15  1  0  0  0  0
 13 14  1  0  0  0  0
 15 14  1  0  0  0  0
 16  4  1  0  0  0  0
 17 16  1  0  0  0  0
 18 19  1  0  0  0  0
 20 19  1  0  0  0  0
 20 22  1  0  0  0  0
 21 20  2  0  0  0  0
 22 23  1  0  0  0  0
 25 28  1  0  0  0  0
 25 24  1  0  0  0  0
 26 35  1  0  0  0  0
 27 32  1  0  0  0  0
 28 27  2  0  0  0  0
 29 34  1  0  0  0  0
 30 32  2  0  0  0  0
 31 35  1  0  0  0  0
 32 31  1  0  0  0  0
 33 26  1  0  0  0  0
 34 27  1  0  0  0  0
 34 33  1  0  0  0  0
 36 33  1  0  0  0  0
 36 37  1  0  0  0  0
M  END
>  <MODEL>
4

>  <REMARK>
 VINA RESULT:      -6.6      1.805      4.337
  Name = 
  12 active torsions:
  status: ('A' for Active; 'I' for Inactive)
    1  A    between atoms: C_1  and  N_5
    2  A    between atoms: C_1  and  C_36
    3  A    between atoms: C_3  and  N_32
    4  A    between atoms: C_4  and  C_22
    5  A    between atoms: C_7  and  C_33
    6  A    between atoms: C_8  and  C_31
    7  A    between atoms: C_10  and  O_14
    8  A    between atoms: C_12  and  C_17
    9  A    between atoms: O_14  and  C_31
   10  A    between atoms: C_16  and  C_30
   11  A    between atoms: C_20  and  C_24
   12  A    between atoms: C_30  and  N_32
                            x       y       z     vdW  Elec       q    Type
                         _______ _______ _______ _____ _____    ______ ____

>  <TORSDO>
F 12

$$$$
=
 OpenBabel11052420123D

 37 41  0  0  1  0  0  0  0  0999 V2000
  190.0060  175.3450  145.2100 C   0  0  2  0  0  3  0  0  0  0  0  0
  188.1670  175.9650  143.7100 C   0  0  1  0  0  3  0  0  0  0  0  0
  189.5090  175.2520  143.7700 C   0  0  2  0  0  3  0  0  0  0  0  0
  189.0670  176.2710  145.9910 C   0  0  1  0  0  0  0  0  0  0  0  0
  189.7050  177.4370  146.4280 O   0  0  0  0  0  1  0  0  0  0  0  0
  187.9150  176.6300  145.0560 C   0  0  1  0  0  3  0  0  0  0  0  0
  188.3780  177.4590  143.8670 C   0  0  2  0  0  3  0  0  0  0  0  0
  190.5940  173.1570  143.4100 O   0  0  0  0  0  0  0  0  0  0  0  0
  190.1120  173.5230  142.1410 C   0  0  2  0  0  3  0  0  0  0  0  0
  189.3420  173.7980  143.3720 C   0  0  2  0  0  3  0  0  0  0  0  0
  189.5490  172.2990  141.4510 C   0  0  0  0  0  2  0  0  0  0  0  0
  190.2400  172.0920  140.1920 N   0  0  0  0  0  2  0  0  0  0  0  0
  190.7620  173.3830  139.7820 C   0  0  0  0  0  3  0  0  0  0  0  0
  191.9900  173.1710  138.9200 C   0  0  0  0  0  2  0  0  0  0  0  0
  190.6620  173.5050  138.2760 C   0  0  0  0  0  2  0  0  0  0  0  0
  188.4990  175.5280  147.1920 C   0  0  0  0  0  2  0  0  0  0  0  0
  189.0960  174.2720  147.3240 O   0  0  0  0  0  1  0  0  0  0  0  0
  187.1910  178.2030  143.2850 C   0  0  0  0  0  2  0  0  0  0  0  0
  186.2780  178.5910  144.3500 N   0  0  0  0  0  2  0  0  0  0  0  0
  184.8610  178.4400  144.2460 C   0  0  0  0  0  0  0  0  0  0  0  0
  184.3380  177.9860  143.1920 O   0  0  0  0  0  0  0  0  0  0  0  0
  183.9950  178.8030  145.4000 C   0  0  0  0  0  2  0  0  0  0  0  0
  184.6410  178.3470  146.6930 C   0  0  0  0  0  1  0  0  0  0  0  0
  191.3900  175.6150  145.3600 O   0  0  0  0  0  0  0  0  0  0  0  0
  191.8960  176.1650  144.1690 C   0  0  0  0  0  2  0  0  0  0  0  0
  195.1870  173.0670  145.5060 C   0  0  0  0  0  2  0  0  0  0  0  0
  194.2770  175.4500  144.1110 C   0  0  0  0  0  0  0  0  0  0  0  0
  193.3630  176.4060  144.3030 C   0  0  0  0  0  3  0  0  0  0  0  0
  193.6670  174.0800  142.2640 O   0  0  0  0  0  1  0  0  0  0  0  0
  196.0790  176.9620  143.8390 O   0  0  0  0  0  0  0  0  0  0  0  0
  196.6960  174.8810  144.6530 N   0  0  0  0  0  2  0  0  0  0  0  0
  195.7070  175.8140  144.2010 C   0  0  0  0  0  0  0  0  0  0  0  0
  194.7820  172.9310  144.0460 C   0  0  2  0  0  3  0  0  0  0  0  0
  193.8440  174.0730  143.6490 C   0  0  1  0  0  3  0  0  0  0  0  0
  196.4910  173.8460  145.6680 C   0  0  0  0  0  2  0  0  0  0  0  0
  194.0770  171.6020  143.8350 C   0  0  0  0  0  2  0  0  0  0  0  0
  193.9040  170.9530  145.0570 O   0  0  0  0  0  1  0  0  0  0  0  0
  1 24  1  6  0  0  0
  1  4  1  0  0  0  0
  2  3  1  0  0  0  0
  2  7  1  0  0  0  0
  2  6  1  0  0  0  0
  3  1  1  0  0  0  0
  4  5  1  0  0  0  0
  4 16  1  0  0  0  0
  6  4  1  0  0  0  0
  7  6  1  0  0  0  0
  9 10  1  0  0  0  0
  9  8  1  0  0  0  0
 10  8  1  0  0  0  0
 10  3  1  0  0  0  0
 11  9  1  0  0  0  0
 12 11  1  0  0  0  0
 13 12  1  0  0  0  0
 14 13  1  0  0  0  0
 15 14  1  0  0  0  0
 15 13  1  0  0  0  0
 16 17  1  0  0  0  0
 18  7  1  0  0  0  0
 18 19  1  0  0  0  0
 20 19  1  0  0  0  0
 20 22  1  0  0  0  0
 21 20  2  0  0  0  0
 22 23  1  0  0  0  0
 25 28  1  0  0  0  0
 25 24  1  0  0  0  0
 26 35  1  0  0  0  0
 27 32  1  0  0  0  0
 27 28  2  0  0  0  0
 29 34  1  0  0  0  0
 30 32  2  0  0  0  0
 31 35  1  0  0  0  0
 32 31  1  0  0  0  0
 33 26  1  0  0  0  0
 34 33  1  0  0  0  0
 34 27  1  0  0  0  0
 36 33  1  0  0  0  0
 36 37  1  0  0  0  0
M  END
>  <MODEL>
5

>  <REMARK>
 VINA RESULT:      -6.5      2.551      5.275
  Name = 
  12 active torsions:
  status: ('A' for Active; 'I' for Inactive)
    1  A    between atoms: C_1  and  N_5
    2  A    between atoms: C_1  and  C_36
    3  A    between atoms: C_3  and  N_32
    4  A    between atoms: C_4  and  C_22
    5  A    between atoms: C_7  and  C_33
    6  A    between atoms: C_8  and  C_31
    7  A    between atoms: C_10  and  O_14
    8  A    between atoms: C_12  and  C_17
    9  A    between atoms: O_14  and  C_31
   10  A    between atoms: C_16  and  C_30
   11  A    between atoms: C_20  and  C_24
   12  A    between atoms: C_30  and  N_32
                            x       y       z     vdW  Elec       q    Type
                         _______ _______ _______ _____ _____    ______ ____

>  <TORSDO>
F 12

$$$$
=
 OpenBabel11052420123D

 37 41  0  0  1  0  0  0  0  0999 V2000
  191.3260  175.9740  144.9820 C   0  0  2  0  0  3  0  0  0  0  0  0
  188.9000  176.0400  145.3360 C   0  0  1  0  0  3  0  0  0  0  0  0
  190.0610  176.7720  144.6800 C   0  0  2  0  0  3  0  0  0  0  0  0
  190.9750  174.8590  145.9740 C   0  0  1  0  0  0  0  0  0  0  0  0
  191.6150  175.0190  147.2090 O   0  0  0  0  0  1  0  0  0  0  0  0
  189.4610  174.8950  146.1670 C   0  0  1  0  0  3  0  0  0  0  0  0
  188.9980  176.1780  146.8440 C   0  0  2  0  0  3  0  0  0  0  0  0
  190.4340  178.0300  142.6870 O   0  0  0  0  0  0  0  0  0  0  0  0
  189.0380  178.0480  142.8550 C   0  0  2  0  0  3  0  0  0  0  0  0
  189.8430  176.8520  143.1820 C   0  0  2  0  0  3  0  0  0  0  0  0
  188.3720  177.8610  141.5080 C   0  0  0  0  0  2  0  0  0  0  0  0
  186.9380  178.0360  141.6480 N   0  0  0  0  0  2  0  0  0  0  0  0
  186.6210  177.7960  143.0440 C   0  0  0  0  0  3  0  0  0  0  0  0
  185.1150  177.7360  143.2070 C   0  0  0  0  0  2  0  0  0  0  0  0
  185.9230  176.4570  143.1720 C   0  0  0  0  0  2  0  0  0  0  0  0
  191.3540  173.5090  145.3820 C   0  0  0  0  0  2  0  0  0  0  0  0
  190.7040  173.3050  144.1630 O   0  0  0  0  0  1  0  0  0  0  0  0
  187.6340  175.9510  147.4650 C   0  0  0  0  0  2  0  0  0  0  0  0
  186.6540  176.8330  146.8460 N   0  0  0  0  0  2  0  0  0  0  0  0
  186.4210  178.1670  147.3020 C   0  0  0  0  0  0  0  0  0  0  0  0
  187.0450  178.6260  148.2960 O   0  0  0  0  0  0  0  0  0  0  0  0
  185.4460  179.0300  146.5810 C   0  0  0  0  0  2  0  0  0  0  0  0
  184.0930  178.3500  146.5310 C   0  0  0  0  0  1  0  0  0  0  0  0
  192.4690  176.7460  145.3140 O   0  0  0  0  0  0  0  0  0  0  0  0
  193.5000  176.4810  144.3950 C   0  0  0  0  0  2  0  0  0  0  0  0
  196.4940  173.7080  142.0370 C   0  0  0  0  0  2  0  0  0  0  0  0
  195.6120  175.1680  144.3910 C   0  0  0  0  0  0  0  0  0  0  0  0
  194.4470  175.4790  144.9690 C   0  0  0  0  0  3  0  0  0  0  0  0
  196.6500  177.1200  143.5140 O   0  0  0  0  0  1  0  0  0  0  0  0
  196.5320  174.1860  146.3400 O   0  0  0  0  0  0  0  0  0  0  0  0
  197.3800  173.3410  144.3550 N   0  0  0  0  0  2  0  0  0  0  0  0
  196.5060  174.2130  145.0800 C   0  0  0  0  0  0  0  0  0  0  0  0
  197.0060  175.1270  142.2340 C   0  0  2  0  0  3  0  0  0  0  0  0
  196.0610  175.9080  143.1480 C   0  0  1  0  0  3  0  0  0  0  0  0
  197.0950  172.7370  143.0520 C   0  0  0  0  0  2  0  0  0  0  0  0
  197.1000  175.8260  140.8870 C   0  0  0  0  0  2  0  0  0  0  0  0
  195.8230  176.0220  140.3610 O   0  0  0  0  0  1  0  0  0  0  0  0
  1 24  1  1  0  0  0
  1  4  1  0  0  0  0
  2  6  1  0  0  0  0
  2  7  1  0  0  0  0
  3  1  1  0  0  0  0
  3  2  1  0  0  0  0
  4  6  1  0  0  0  0
  4  5  1  0  0  0  0
  6  7  1  0  0  0  0
  7 18  1  0  0  0  0
  8  9  1  0  0  0  0
  8 10  1  0  0  0  0
  9 10  1  0  0  0  0
 10  3  1  0  0  0  0
 11 12  1  0  0  0  0
 11  9  1  0  0  0  0
 12 13  1  0  0  0  0
 13 15  1  0  0  0  0
 13 14  1  0  0  0  0
 15 14  1  0  0  0  0
 16  4  1  0  0  0  0
 17 16  1  0  0  0  0
 19 20  1  0  0  0  0
 19 18  1  0  0  0  0
 20 21  2  0  0  0  0
 22 20  1  0  0  0  0
 23 22  1  0  0  0  0
 25 28  1  0  0  0  0
 25 24  1  0  0  0  0
 26 33  1  0  0  0  0
 26 35  1  0  0  0  0
 27 28  2  0  0  0  0
 27 32  1  0  0  0  0
 31 32  1  0  0  0  0
 32 30  2  0  0  0  0
 33 34  1  0  0  0  0
 34 29  1  0  0  0  0
 34 27  1  0  0  0  0
 35 31  1  0  0  0  0
 36 33  1  0  0  0  0
 37 36  1  0  0  0  0
M  END
>  <MODEL>
6

>  <REMARK>
 VINA RESULT:      -6.5      1.974      4.032
  Name = 
  12 active torsions:
  status: ('A' for Active; 'I' for Inactive)
    1  A    between atoms: C_1  and  N_5
    2  A    between atoms: C_1  and  C_36
    3  A    between atoms: C_3  and  N_32
    4  A    between atoms: C_4  and  C_22
    5  A    between atoms: C_7  and  C_33
    6  A    between atoms: C_8  and  C_31
    7  A    between atoms: C_10  and  O_14
    8  A    between atoms: C_12  and  C_17
    9  A    between atoms: O_14  and  C_31
   10  A    between atoms: C_16  and  C_30
   11  A    between atoms: C_20  and  C_24
   12  A    between atoms: C_30  and  N_32
                            x       y       z     vdW  Elec       q    Type
                         _______ _______ _______ _____ _____    ______ ____

>  <TORSDO>
F 12

$$$$
=
 OpenBabel11052420123D

 37 41  0  0  1  0  0  0  0  0999 V2000
  190.3250  175.3250  143.5620 C   0  0  2  0  0  3  0  0  0  0  0  0
  188.6360  176.4080  144.9730 C   0  0  1  0  0  3  0  0  0  0  0  0
  189.2450  176.4030  143.5790 C   0  0  2  0  0  3  0  0  0  0  0  0
  190.5100  174.7970  144.9890 C   0  0  1  0  0  0  0  0  0  0  0  0
  191.7790  175.0810  145.5060 O   0  0  0  0  0  1  0  0  0  0  0  0
  189.4390  175.4590  145.8520 C   0  0  1  0  0  3  0  0  0  0  0  0
  189.6420  176.9640  145.9640 C   0  0  2  0  0  3  0  0  0  0  0  0
  188.7520  176.1040  141.2630 O   0  0  0  0  0  0  0  0  0  0  0  0
  188.0050  177.2350  141.6360 C   0  0  2  0  0  3  0  0  0  0  0  0
  188.1790  176.0850  142.5480 C   0  0  2  0  0  3  0  0  0  0  0  0
  186.6400  177.1660  140.9850 C   0  0  0  0  0  2  0  0  0  0  0  0
  185.8210  178.2660  141.4590 N   0  0  0  0  0  2  0  0  0  0  0  0
  185.2310  177.8400  142.7140 C   0  0  0  0  0  3  0  0  0  0  0  0
  184.8450  179.0630  143.5220 C   0  0  0  0  0  2  0  0  0  0  0  0
  183.7860  178.2920  142.7640 C   0  0  0  0  0  2  0  0  0  0  0  0
  190.2840  173.2920  145.0110 C   0  0  0  0  0  2  0  0  0  0  0  0
  191.4460  172.6120  144.6410 O   0  0  0  0  0  1  0  0  0  0  0  0
  188.9140  177.4750  147.1920 C   0  0  0  0  0  2  0  0  0  0  0  0
  187.4760  177.4360  146.9690 N   0  0  0  0  0  2  0  0  0  0  0  0
  186.5730  178.3550  147.5870 C   0  0  0  0  0  0  0  0  0  0  0  0
  186.9960  179.2310  148.3890 O   0  0  0  0  0  0  0  0  0  0  0  0
  185.1230  178.2920  147.2640 C   0  0  0  0  0  2  0  0  0  0  0  0
  184.8170  177.0130  146.5110 C   0  0  0  0  0  1  0  0  0  0  0  0
  191.5210  175.6700  142.8820 O   0  0  0  0  0  0  0  0  0  0  0  0
  191.9260  174.5990  142.0660 C   0  0  0  0  0  2  0  0  0  0  0  0
  195.8550  176.4210  143.9260 C   0  0  0  0  0  2  0  0  0  0  0  0
  194.3900  174.9040  141.9240 C   0  0  0  0  0  0  0  0  0  0  0  0
  193.1850  174.9550  141.3470 C   0  0  0  0  0  3  0  0  0  0  0  0
  194.5590  172.9850  143.3200 O   0  0  0  0  0  1  0  0  0  0  0  0
  195.5810  174.9100  139.8770 O   0  0  0  0  0  0  0  0  0  0  0  0
  196.7530  175.8070  141.6640 N   0  0  0  0  0  2  0  0  0  0  0  0
  195.5790  175.2110  141.1000 C   0  0  0  0  0  0  0  0  0  0  0  0
  195.7340  174.9150  144.1140 C   0  0  2  0  0  3  0  0  0  0  0  0
  194.5280  174.3810  143.3400 C   0  0  1  0  0  3  0  0  0  0  0  0
  196.7740  176.7790  142.7590 C   0  0  0  0  0  2  0  0  0  0  0  0
  195.5680  174.5990  145.5900 C   0  0  0  0  0  2  0  0  0  0  0  0
  194.9390  175.6610  146.2390 O   0  0  0  0  0  1  0  0  0  0  0  0
  1 24  1  1  0  0  0
  1  3  1  0  0  0  0
  1  4  1  0  0  0  0
  2  6  1  0  0  0  0
  2  7  1  0  0  0  0
  3  2  1  0  0  0  0
  4 16  1  0  0  0  0
  4  5  1  0  0  0  0
  4  6  1  0  0  0  0
  6  7  1  0  0  0  0
  7 18  1  0  0  0  0
  8  9  1  0  0  0  0
  8 10  1  0  0  0  0
  9 10  1  0  0  0  0
 10  3  1  0  0  0  0
 11 12  1  0  0  0  0
 11  9  1  0  0  0  0
 12 13  1  0  0  0  0
 13 15  1  0  0  0  0
 13 14  1  0  0  0  0
 15 14  1  0  0  0  0
 17 16  1  0  0  0  0
 19 18  1  0  0  0  0
 19 20  1  0  0  0  0
 20 21  2  0  0  0  0
 22 20  1  0  0  0  0
 23 22  1  0  0  0  0
 25 24  1  0  0  0  0
 26 33  1  0  0  0  0
 27 34  1  0  0  0  0
 28 27  2  0  0  0  0
 28 25  1  0  0  0  0
 29 34  1  0  0  0  0
 30 32  2  0  0  0  0
 31 35  1  0  0  0  0
 32 31  1  0  0  0  0
 32 27  1  0  0  0  0
 33 36  1  0  0  0  0
 34 33  1  0  0  0  0
 35 26  1  0  0  0  0
 36 37  1  0  0  0  0
M  END
>  <MODEL>
7

>  <REMARK>
 VINA RESULT:      -6.4      1.939      4.448
  Name = 
  12 active torsions:
  status: ('A' for Active; 'I' for Inactive)
    1  A    between atoms: C_1  and  N_5
    2  A    between atoms: C_1  and  C_36
    3  A    between atoms: C_3  and  N_32
    4  A    between atoms: C_4  and  C_22
    5  A    between atoms: C_7  and  C_33
    6  A    between atoms: C_8  and  C_31
    7  A    between atoms: C_10  and  O_14
    8  A    between atoms: C_12  and  C_17
    9  A    between atoms: O_14  and  C_31
   10  A    between atoms: C_16  and  C_30
   11  A    between atoms: C_20  and  C_24
   12  A    between atoms: C_30  and  N_32
                            x       y       z     vdW  Elec       q    Type
                         _______ _______ _______ _____ _____    ______ ____

>  <TORSDO>
F 12

$$$$
=
 OpenBabel11052420123D

 37 41  0  0  1  0  0  0  0  0999 V2000
  190.9710  175.2420  144.2490 C   0  0  2  0  0  3  0  0  0  0  0  0
  192.6510  173.4830  143.9310 C   0  0  1  0  0  3  0  0  0  0  0  0
  191.1730  173.8060  143.7720 C   0  0  2  0  0  3  0  0  0  0  0  0
  192.2810  175.7370  144.8740 C   0  0  1  0  0  0  0  0  0  0  0  0
  192.1560  176.0000  146.2430 O   0  0  0  0  0  1  0  0  0  0  0  0
  193.3230  174.6460  144.6480 C   0  0  1  0  0  3  0  0  0  0  0  0
  192.9900  173.3680  145.4050 C   0  0  2  0  0  3  0  0  0  0  0  0
  189.5930  174.4230  142.0940 O   0  0  0  0  0  0  0  0  0  0  0  0
  189.4460  173.0300  142.2170 C   0  0  2  0  0  3  0  0  0  0  0  0
  190.7690  173.6820  142.3160 C   0  0  2  0  0  3  0  0  0  0  0  0
  189.2790  172.4240  140.8390 C   0  0  0  0  0  2  0  0  0  0  0  0
  188.2310  173.1280  140.1250 N   0  0  0  0  0  2  0  0  0  0  0  0
  188.4470  172.8820  138.7110 C   0  0  0  0  0  3  0  0  0  0  0  0
  188.1710  174.1550  137.9370 C   0  0  0  0  0  2  0  0  0  0  0  0
  189.5970  173.7410  138.2260 C   0  0  0  0  0  2  0  0  0  0  0  0
  192.7410  177.0000  144.1590 C   0  0  0  0  0  2  0  0  0  0  0  0
  192.2100  177.0590  142.8690 O   0  0  0  0  0  1  0  0  0  0  0  0
  194.2520  172.5440  145.5730 C   0  0  0  0  0  2  0  0  0  0  0  0
  195.3210  173.1010  144.7560 N   0  0  0  0  0  2  0  0  0  0  0  0
  196.6740  173.1830  145.2060 C   0  0  0  0  0  0  0  0  0  0  0  0
  196.9920  172.7980  146.3640 O   0  0  0  0  0  0  0  0  0  0  0  0
  197.7230  173.7090  144.2910 C   0  0  0  0  0  2  0  0  0  0  0  0
  197.3010  175.0570  143.7420 C   0  0  0  0  0  1  0  0  0  0  0  0
  189.8040  175.4680  145.0240 O   0  0  0  0  0  0  0  0  0  0  0  0
  189.1540  176.6290  144.5680 C   0  0  0  0  0  2  0  0  0  0  0  0
  185.4780  179.3230  143.3660 C   0  0  0  0  0  2  0  0  0  0  0  0
  186.7210  177.1030  144.7730 C   0  0  0  0  0  0  0  0  0  0  0  0
  187.9000  176.8480  145.3490 C   0  0  0  0  0  3  0  0  0  0  0  0
  186.4490  175.7720  142.8200 O   0  0  0  0  0  1  0  0  0  0  0  0
  185.4490  176.5520  146.6930 O   0  0  0  0  0  0  0  0  0  0  0  0
  184.4350  178.0910  145.2880 N   0  0  0  0  0  2  0  0  0  0  0  0
  185.5290  177.2350  145.6370 C   0  0  0  0  0  0  0  0  0  0  0  0
  185.4780  177.9580  142.6930 C   0  0  2  0  0  3  0  0  0  0  0  0
  186.6000  177.0880  143.2620 C   0  0  1  0  0  3  0  0  0  0  0  0
  184.5440  179.3650  144.5740 C   0  0  0  0  0  2  0  0  0  0  0  0
  185.6790  178.1280  141.1970 C   0  0  0  0  0  2  0  0  0  0  0  0
  184.4640  178.4310  140.5830 O   0  0  0  0  0  1  0  0  0  0  0  0
  1  4  1  0  0  0  0
  1 24  1  1  0  0  0
  2  6  1  0  0  0  0
  2  7  1  0  0  0  0
  3  2  1  0  0  0  0
  3  1  1  0  0  0  0
  4  5  1  0  0  0  0
  6  4  1  0  0  0  0
  6  7  1  0  0  0  0
  7 18  1  0  0  0  0
  8  9  1  0  0  0  0
  8 10  1  0  0  0  0
  9 10  1  0  0  0  0
 10  3  1  0  0  0  0
 11  9  1  0  0  0  0
 12 11  1  0  0  0  0
 13 12  1  0  0  0  0
 14 15  1  0  0  0  0
 14 13  1  0  0  0  0
 15 13  1  0  0  0  0
 16  4  1  0  0  0  0
 17 16  1  0  0  0  0
 19 20  1  0  0  0  0
 19 18  1  0  0  0  0
 20 21  2  0  0  0  0
 22 20  1  0  0  0  0
 23 22  1  0  0  0  0
 25 24  1  0  0  0  0
 25 28  1  0  0  0  0
 26 35  1  0  0  0  0
 27 28  2  0  0  0  0
 27 32  1  0  0  0  0
 29 34  1  0  0  0  0
 31 32  1  0  0  0  0
 32 30  2  0  0  0  0
 33 34  1  0  0  0  0
 33 26  1  0  0  0  0
 34 27  1  0  0  0  0
 35 31  1  0  0  0  0
 36 33  1  0  0  0  0
 37 36  1  0  0  0  0
M  END
>  <MODEL>
8

>  <REMARK>
 VINA RESULT:      -6.4      2.427      9.100
  Name = 
  12 active torsions:
  status: ('A' for Active; 'I' for Inactive)
    1  A    between atoms: C_1  and  N_5
    2  A    between atoms: C_1  and  C_36
    3  A    between atoms: C_3  and  N_32
    4  A    between atoms: C_4  and  C_22
    5  A    between atoms: C_7  and  C_33
    6  A    between atoms: C_8  and  C_31
    7  A    between atoms: C_10  and  O_14
    8  A    between atoms: C_12  and  C_17
    9  A    between atoms: O_14  and  C_31
   10  A    between atoms: C_16  and  C_30
   11  A    between atoms: C_20  and  C_24
   12  A    between atoms: C_30  and  N_32
                            x       y       z     vdW  Elec       q    Type
                         _______ _______ _______ _____ _____    ______ ____

>  <TORSDO>
F 12

$$$$
=
 OpenBabel11052420123D

 37 41  0  0  1  0  0  0  0  0999 V2000
  190.1060  175.5710  144.8370 C   0  0  2  0  0  3  0  0  0  0  0  0
  188.1490  176.0310  143.4310 C   0  0  1  0  0  3  0  0  0  0  0  0
  189.5290  175.3900  143.4350 C   0  0  2  0  0  3  0  0  0  0  0  0
  189.1670  176.4810  145.6380 C   0  0  1  0  0  0  0  0  0  0  0  0
  189.7670  177.6960  145.9870 O   0  0  0  0  0  1  0  0  0  0  0  0
  187.9430  176.7390  144.7630 C   0  0  1  0  0  3  0  0  0  0  0  0
  188.2890  177.5390  143.5150 C   0  0  2  0  0  3  0  0  0  0  0  0
  190.7060  173.3640  142.9830 O   0  0  0  0  0  0  0  0  0  0  0  0
  190.0220  173.6460  141.7860 C   0  0  2  0  0  3  0  0  0  0  0  0
  189.4160  173.9140  143.1080 C   0  0  2  0  0  3  0  0  0  0  0  0
  189.4600  172.3600  141.2190 C   0  0  0  0  0  2  0  0  0  0  0  0
  189.6140  172.3590  139.7760 N   0  0  0  0  0  2  0  0  0  0  0  0
  189.4410  173.7310  139.3350 C   0  0  0  0  0  3  0  0  0  0  0  0
  189.5690  173.7860  137.8260 C   0  0  0  0  0  2  0  0  0  0  0  0
  188.2010  173.8230  138.4710 C   0  0  0  0  0  2  0  0  0  0  0  0
  188.7130  175.7620  146.9010 C   0  0  0  0  0  2  0  0  0  0  0  0
  187.3740  176.0460  147.1770 O   0  0  0  0  0  1  0  0  0  0  0  0
  187.0320  178.1960  142.9790 C   0  0  0  0  0  2  0  0  0  0  0  0
  186.2060  178.6630  144.0840 N   0  0  0  0  0  2  0  0  0  0  0  0
  184.7870  178.4990  144.1100 C   0  0  0  0  0  0  0  0  0  0  0  0
  184.1830  177.9620  143.1420 O   0  0  0  0  0  0  0  0  0  0  0  0
  184.0160  178.9480  145.3010 C   0  0  0  0  0  2  0  0  0  0  0  0
  184.7600  178.5750  146.5670 C   0  0  0  0  0  1  0  0  0  0  0  0
  191.4800  175.9170  144.8900 O   0  0  0  0  0  0  0  0  0  0  0  0
  192.0610  175.3670  146.0470 C   0  0  0  0  0  2  0  0  0  0  0  0
  195.0030  174.3960  142.4950 C   0  0  0  0  0  2  0  0  0  0  0  0
  193.8800  173.9370  145.1380 C   0  0  0  0  0  0  0  0  0  0  0  0
  192.6850  174.0500  145.7250 C   0  0  0  0  0  3  0  0  0  0  0  0
  195.3880  175.5570  146.0100 O   0  0  0  0  0  1  0  0  0  0  0  0
  194.1830  171.6720  145.7600 O   0  0  0  0  0  0  0  0  0  0  0  0
  195.2930  172.2840  143.8190 N   0  0  0  0  0  2  0  0  0  0  0  0
  194.4360  172.5830  144.9270 C   0  0  0  0  0  0  0  0  0  0  0  0
  195.6840  175.0520  143.6870 C   0  0  2  0  0  3  0  0  0  0  0  0
  194.7030  175.1780  144.8540 C   0  0  1  0  0  3  0  0  0  0  0  0
  195.2030  172.8810  142.4850 C   0  0  0  0  0  2  0  0  0  0  0  0
  196.1800  176.4330  143.2930 C   0  0  0  0  0  2  0  0  0  0  0  0
  197.5660  176.4170  143.1400 O   0  0  0  0  0  1  0  0  0  0  0  0
  1 24  1  6  0  0  0
  1  4  1  0  0  0  0
  2  3  1  0  0  0  0
  2  7  1  0  0  0  0
  2  6  1  0  0  0  0
  3  1  1  0  0  0  0
  4  5  1  0  0  0  0
  4 16  1  0  0  0  0
  6  4  1  0  0  0  0
  7  6  1  0  0  0  0
  8 10  1  0  0  0  0
  9  8  1  0  0  0  0
  9 10  1  0  0  0  0
 10  3  1  0  0  0  0
 11  9  1  0  0  0  0
 12 11  1  0  0  0  0
 13 12  1  0  0  0  0
 14 15  1  0  0  0  0
 14 13  1  0  0  0  0
 15 13  1  0  0  0  0
 16 17  1  0  0  0  0
 18  7  1  0  0  0  0
 18 19  1  0  0  0  0
 19 20  1  0  0  0  0
 20 22  1  0  0  0  0
 21 20  2  0  0  0  0
 22 23  1  0  0  0  0
 24 25  1  0  0  0  0
 26 33  1  0  0  0  0
 27 28  2  0  0  0  0
 28 25  1  0  0  0  0
 31 32  1  0  0  0  0
 32 27  1  0  0  0  0
 32 30  2  0  0  0  0
 33 34  1  0  0  0  0
 34 27  1  0  0  0  0
 34 29  1  0  0  0  0
 35 26  1  0  0  0  0
 35 31  1  0  0  0  0
 36 33  1  0  0  0  0
 37 36  1  0  0  0  0
M  END
>  <MODEL>
9

>  <REMARK>
 VINA RESULT:      -6.4      2.207      4.575
  Name = 
  12 active torsions:
  status: ('A' for Active; 'I' for Inactive)
    1  A    between atoms: C_1  and  N_5
    2  A    between atoms: C_1  and  C_36
    3  A    between atoms: C_3  and  N_32
    4  A    between atoms: C_4  and  C_22
    5  A    between atoms: C_7  and  C_33
    6  A    between atoms: C_8  and  C_31
    7  A    between atoms: C_10  and  O_14
    8  A    between atoms: C_12  and  C_17
    9  A    between atoms: O_14  and  C_31
   10  A    between atoms: C_16  and  C_30
   11  A    between atoms: C_20  and  C_24
   12  A    between atoms: C_30  and  N_32
                            x       y       z     vdW  Elec       q    Type
                         _______ _______ _______ _____ _____    ______ ____

>  <TORSDO>
F 12

$$$$
