=
 OpenBabel11052417173D

 30 32  0  0  1  0  0  0  0  0999 V2000
  187.3810  176.9370  142.3500 N   0  0  0  0  0  0  0  0  0  0  0  0
  186.0030  177.8380  140.4980 C   0  0  0  0  0  0  0  0  0  0  0  0
  184.5320  177.8920  145.2460 C   0  0  0  0  0  3  0  0  0  0  0  0
  187.6570  176.6640  143.6540 C   0  0  0  0  0  0  0  0  0  0  0  0
  184.7940  177.6310  146.5920 C   0  0  0  0  0  3  0  0  0  0  0  0
  184.6390  178.1440  140.1890 O   0  0  0  0  0  0  0  0  0  0  0  0
  186.4410  176.7940  139.6810 O   0  0  0  0  0  0  0  0  0  0  0  0
  185.4790  177.5710  144.2590 C   0  0  0  0  0  0  0  0  0  0  0  0
  183.7090  178.5620  141.1480 C   0  0  0  0  0  3  0  0  0  0  0  0
  186.2030  177.4860  141.9490 C   0  0  0  0  0  0  0  0  0  0  0  0
  186.7080  176.9790  144.6440 C   0  0  0  0  0  0  0  0  0  0  0  0
  186.0040  177.0460  146.9700 C   0  0  0  0  0  3  0  0  0  0  0  0
  186.9560  176.7220  146.0010 C   0  0  0  0  0  3  0  0  0  0  0  0
  183.9630  178.4340  142.4480 C   0  0  0  0  0  3  0  0  0  0  0  0
  185.2290  177.8280  142.9000 C   0  0  0  0  0  0  0  0  0  0  0  0
  188.9910  176.0650  144.0240 C   0  0  2  0  0  3  0  0  0  0  0  0
  190.0940  178.1600  143.8160 O   0  0  0  0  0  0  0  0  0  0  0  0
  190.0350  177.0660  144.4340 C   0  0  0  0  0  0  0  0  0  0  0  0
  190.9090  176.8530  145.5480 N   0  0  0  0  0  2  0  0  0  0  0  0
  191.1240  175.6230  146.0880 O   0  0  0  0  0  0  0  0  0  0  0  0
  191.3430  175.3080  148.3750 O   0  0  0  0  0  1  0  0  0  0  0  0
  190.4560  175.5880  147.3310 C   0  0  2  0  0  3  0  0  0  0  0  0
  189.2810  174.6220  147.3510 C   0  0  0  0  0  1  0  0  0  0  0  0
  189.4980  175.0240  143.0620 C   0  0  0  0  0  3  0  0  0  0  0  0
  189.5510  173.7270  143.3730 C   0  0  0  0  0  3  0  0  0  0  0  0
  190.0720  172.7300  142.3930 C   0  0  0  0  0  2  0  0  0  0  0  0
  189.0310  172.3850  141.4370 N   0  0  0  0  0  2  0  0  0  0  0  0
  190.1910  173.5670  139.5950 N   0  0  0  0  0  1  0  0  0  0  0  0
  189.0930  172.7950  140.0720 C   0  0  0  0  0  0  0  0  0  0  0  0
  188.1680  172.4730  139.2830 O   0  0  0  0  0  0  0  0  0  0  0  0
  1  4  1  0  0  0  0
  2 10  1  0  0  0  0
  3  5  2  0  0  0  0
  4 16  1  0  0  0  0
  4 11  2  0  0  0  0
  5 12  1  0  0  0  0
  6  2  1  0  0  0  0
  6  9  1  0  0  0  0
  7  2  2  0  0  0  0
  8 11  1  0  0  0  0
  8  3  1  0  0  0  0
  9 14  2  0  0  0  0
 10  1  2  0  0  0  0
 10 15  1  0  0  0  0
 11 13  1  0  0  0  0
 13 12  2  0  0  0  0
 14 15  1  0  0  0  0
 15  8  2  0  0  0  0
 16 24  1  6  0  0  0
 16 18  1  0  0  0  0
 17 18  2  0  0  0  0
 18 19  1  0  0  0  0
 19 20  1  0  0  0  0
 20 22  1  0  0  0  0
 22 23  1  6  0  0  0
 22 21  1  0  0  0  0
 24 25  2  0  0  0  0
 26 25  1  0  0  0  0
 27 26  1  0  0  0  0
 28 29  1  0  0  0  0
 29 27  1  0  0  0  0
 30 29  2  0  0  0  0
M  END
>  <MODEL>
1

>  <REMARK>
 VINA RESULT:      -7.5      0.000      0.000
  Name = 
  7 active torsions:
  status: ('A' for Active; 'I' for Inactive)
    1  A    between atoms: C_4  and  C_13
    2  A    between atoms: N_7  and  C_16
    3  A    between atoms: C_8  and  C_13
    4  A    between atoms: O_9  and  N_12
    5  A    between atoms: O_9  and  C_17
    6  A    between atoms: C_13  and  C_27
    7  A    between atoms: C_16  and  C_30
                            x       y       z     vdW  Elec       q    Type
                         _______ _______ _______ _____ _____    ______ ____

>  <TORSDO>
F 7

$$$$
=
 OpenBabel11052417173D

 30 32  0  0  1  0  0  0  0  0999 V2000
  187.7740  176.7450  142.7390 N   0  0  0  0  0  0  0  0  0  0  0  0
  186.6120  177.5710  140.7130 C   0  0  0  0  0  0  0  0  0  0  0  0
  184.6460  177.8520  145.2700 C   0  0  0  0  0  3  0  0  0  0  0  0
  187.9070  176.5290  144.0760 C   0  0  0  0  0  0  0  0  0  0  0  0
  184.7600  177.6510  146.6470 C   0  0  0  0  0  3  0  0  0  0  0  0
  185.2920  177.8740  140.2470 O   0  0  0  0  0  0  0  0  0  0  0  0
  187.1210  176.4880  139.9950 O   0  0  0  0  0  0  0  0  0  0  0  0
  185.6890  177.4800  144.4050 C   0  0  0  0  0  0  0  0  0  0  0  0
  184.2710  178.3420  141.0820 C   0  0  0  0  0  3  0  0  0  0  0  0
  186.6530  177.2840  142.1910 C   0  0  0  0  0  0  0  0  0  0  0  0
  186.8620  176.8960  144.9450 C   0  0  0  0  0  0  0  0  0  0  0  0
  185.9160  177.0750  147.1770 C   0  0  0  0  0  3  0  0  0  0  0  0
  186.9610  176.6990  146.3310 C   0  0  0  0  0  3  0  0  0  0  0  0
  184.3840  178.2710  142.4060 C   0  0  0  0  0  3  0  0  0  0  0  0
  185.5870  177.6770  143.0170 C   0  0  0  0  0  0  0  0  0  0  0  0
  189.1860  175.9370  144.6120 C   0  0  2  0  0  3  0  0  0  0  0  0
  190.2870  178.0430  144.5300 O   0  0  0  0  0  0  0  0  0  0  0  0
  190.1720  176.9460  145.1350 C   0  0  0  0  0  0  0  0  0  0  0  0
  190.9250  176.7350  146.3340 N   0  0  0  0  0  2  0  0  0  0  0  0
  191.0920  175.5050  146.8900 O   0  0  0  0  0  0  0  0  0  0  0  0
  193.2320  176.3960  146.8350 O   0  0  0  0  0  1  0  0  0  0  0  0
  192.4740  175.2210  146.8760 C   0  0  2  0  0  3  0  0  0  0  0  0
  192.8800  174.2800  145.7510 C   0  0  0  0  0  1  0  0  0  0  0  0
  189.8070  174.8870  143.7320 C   0  0  0  0  0  3  0  0  0  0  0  0
  189.6430  173.5800  143.9500 C   0  0  0  0  0  3  0  0  0  0  0  0
  190.2860  172.5720  143.0590 C   0  0  0  0  0  2  0  0  0  0  0  0
  189.3750  172.2080  141.9850 N   0  0  0  0  0  2  0  0  0  0  0  0
  190.5520  173.6580  140.3580 N   0  0  0  0  0  1  0  0  0  0  0  0
  189.5080  172.7400  140.6680 C   0  0  0  0  0  0  0  0  0  0  0  0
  188.6950  172.3950  139.7720 O   0  0  0  0  0  0  0  0  0  0  0  0
  1  4  1  0  0  0  0
  2 10  1  0  0  0  0
  3  5  2  0  0  0  0
  4 16  1  0  0  0  0
  4 11  2  0  0  0  0
  5 12  1  0  0  0  0
  6  2  1  0  0  0  0
  6  9  1  0  0  0  0
  7  2  2  0  0  0  0
  8 11  1  0  0  0  0
  8  3  1  0  0  0  0
  9 14  2  0  0  0  0
 10  1  2  0  0  0  0
 10 15  1  0  0  0  0
 11 13  1  0  0  0  0
 13 12  2  0  0  0  0
 14 15  1  0  0  0  0
 15  8  2  0  0  0  0
 16 24  1  6  0  0  0
 16 18  1  0  0  0  0
 17 18  2  0  0  0  0
 18 19  1  0  0  0  0
 19 20  1  0  0  0  0
 21 22  1  0  0  0  0
 22 23  1  6  0  0  0
 22 20  1  0  0  0  0
 24 25  2  0  0  0  0
 26 25  1  0  0  0  0
 27 26  1  0  0  0  0
 28 29  1  0  0  0  0
 29 27  1  0  0  0  0
 30 29  2  0  0  0  0
M  END
>  <MODEL>
2

>  <REMARK>
 VINA RESULT:      -7.5      1.003      1.115
  Name = 
  7 active torsions:
  status: ('A' for Active; 'I' for Inactive)
    1  A    between atoms: C_4  and  C_13
    2  A    between atoms: N_7  and  C_16
    3  A    between atoms: C_8  and  C_13
    4  A    between atoms: O_9  and  N_12
    5  A    between atoms: O_9  and  C_17
    6  A    between atoms: C_13  and  C_27
    7  A    between atoms: C_16  and  C_30
                            x       y       z     vdW  Elec       q    Type
                         _______ _______ _______ _____ _____    ______ ____

>  <TORSDO>
F 7

$$$$
=
 OpenBabel11052417173D

 30 32  0  0  1  0  0  0  0  0999 V2000
  187.8350  176.7070  142.6180 N   0  0  0  0  0  0  0  0  0  0  0  0
  186.6180  177.5430  140.6280 C   0  0  0  0  0  0  0  0  0  0  0  0
  184.7750  177.7950  145.2380 C   0  0  0  0  0  3  0  0  0  0  0  0
  188.0040  176.4840  143.9500 C   0  0  0  0  0  0  0  0  0  0  0  0
  184.9260  177.5870  146.6100 C   0  0  0  0  0  3  0  0  0  0  0  0
  185.2860  177.8460  140.2000 O   0  0  0  0  0  0  0  0  0  0  0  0
  187.1090  176.4650  139.8900 O   0  0  0  0  0  0  0  0  0  0  0  0
  185.7950  177.4290  144.3440 C   0  0  0  0  0  0  0  0  0  0  0  0
  184.2860  178.3080  141.0650 C   0  0  0  0  0  3  0  0  0  0  0  0
  186.6990  177.2480  142.1030 C   0  0  0  0  0  0  0  0  0  0  0  0
  186.9820  176.8440  144.8480 C   0  0  0  0  0  0  0  0  0  0  0  0
  186.0970  177.0090  147.1050 C   0  0  0  0  0  3  0  0  0  0  0  0
  187.1200  176.6400  146.2290 C   0  0  0  0  0  3  0  0  0  0  0  0
  184.4350  178.2290  142.3850 C   0  0  0  0  0  3  0  0  0  0  0  0
  185.6550  177.6340  142.9590 C   0  0  0  0  0  0  0  0  0  0  0  0
  189.2980  175.8910  144.4470 C   0  0  2  0  0  3  0  0  0  0  0  0
  190.6220  177.7770  143.8620 O   0  0  0  0  0  0  0  0  0  0  0  0
  190.3820  176.8960  144.7280 C   0  0  0  0  0  0  0  0  0  0  0  0
  191.0920  176.9350  145.9700 N   0  0  0  0  0  2  0  0  0  0  0  0
  191.1180  175.8850  146.8340 O   0  0  0  0  0  0  0  0  0  0  0  0
  193.3090  176.6330  146.9640 O   0  0  0  0  0  1  0  0  0  0  0  0
  192.4690  175.5160  147.0070 C   0  0  2  0  0  3  0  0  0  0  0  0
  192.9310  174.4570  146.0160 C   0  0  0  0  0  1  0  0  0  0  0  0
  189.7750  174.6900  143.6750 C   0  0  0  0  0  3  0  0  0  0  0  0
  189.7200  173.4520  144.1710 C   0  0  0  0  0  3  0  0  0  0  0  0
  190.2140  172.2910  143.3760 C   0  0  0  0  0  2  0  0  0  0  0  0
  191.1700  171.5240  144.1600 N   0  0  0  0  0  2  0  0  0  0  0  0
  193.0880  172.3840  142.8500 N   0  0  0  0  0  1  0  0  0  0  0  0
  192.5710  171.5720  143.9000 C   0  0  0  0  0  0  0  0  0  0  0  0
  193.3590  170.8890  144.6050 O   0  0  0  0  0  0  0  0  0  0  0  0
  1  4  1  0  0  0  0
  2 10  1  0  0  0  0
  3  5  2  0  0  0  0
  4 16  1  0  0  0  0
  4 11  2  0  0  0  0
  5 12  1  0  0  0  0
  6  2  1  0  0  0  0
  6  9  1  0  0  0  0
  7  2  2  0  0  0  0
  8 11  1  0  0  0  0
  8  3  1  0  0  0  0
  9 14  2  0  0  0  0
 10  1  2  0  0  0  0
 10 15  1  0  0  0  0
 11 13  1  0  0  0  0
 13 12  2  0  0  0  0
 14 15  1  0  0  0  0
 15  8  2  0  0  0  0
 16 24  1  6  0  0  0
 16 18  1  0  0  0  0
 17 18  2  0  0  0  0
 18 19  1  0  0  0  0
 19 20  1  0  0  0  0
 20 22  1  0  0  0  0
 21 22  1  0  0  0  0
 22 23  1  6  0  0  0
 24 25  2  0  0  0  0
 26 27  1  0  0  0  0
 26 25  1  0  0  0  0
 28 29  1  0  0  0  0
 29 27  1  0  0  0  0
 29 30  2  0  0  0  0
M  END
>  <MODEL>
3

>  <REMARK>
 VINA RESULT:      -7.1      1.813      2.267
  Name = 
  7 active torsions:
  status: ('A' for Active; 'I' for Inactive)
    1  A    between atoms: C_4  and  C_13
    2  A    between atoms: N_7  and  C_16
    3  A    between atoms: C_8  and  C_13
    4  A    between atoms: O_9  and  N_12
    5  A    between atoms: O_9  and  C_17
    6  A    between atoms: C_13  and  C_27
    7  A    between atoms: C_16  and  C_30
                            x       y       z     vdW  Elec       q    Type
                         _______ _______ _______ _____ _____    ______ ____

>  <TORSDO>
F 7

$$$$
=
 OpenBabel11052417173D

 30 32  0  0  1  0  0  0  0  0999 V2000
  187.6350  176.8970  144.7890 N   0  0  0  0  0  0  0  0  0  0  0  0
  186.0620  177.5250  146.5970 C   0  0  0  0  0  0  0  0  0  0  0  0
  185.0580  178.1990  141.7760 C   0  0  0  0  0  3  0  0  0  0  0  0
  188.0190  176.7510  143.4920 C   0  0  0  0  0  0  0  0  0  0  0  0
  185.4220  178.0520  140.4360 C   0  0  0  0  0  3  0  0  0  0  0  0
  184.9470  178.3910  146.8350 O   0  0  0  0  0  0  0  0  0  0  0  0
  187.1440  177.9340  147.3790 O   0  0  0  0  0  0  0  0  0  0  0  0
  185.9170  177.7700  142.8010 C   0  0  0  0  0  0  0  0  0  0  0  0
  184.0250  178.7470  145.8440 C   0  0  0  0  0  3  0  0  0  0  0  0
  186.4560  177.4740  145.1440 C   0  0  0  0  0  0  0  0  0  0  0  0
  187.1620  177.1840  142.4620 C   0  0  0  0  0  0  0  0  0  0  0  0
  186.6500  177.4750  140.1040 C   0  0  0  0  0  3  0  0  0  0  0  0
  187.5150  177.0440  141.1110 C   0  0  0  0  0  3  0  0  0  0  0  0
  184.2840  178.5250  144.5580 C   0  0  0  0  0  3  0  0  0  0  0  0
  185.5630  177.9120  144.1540 C   0  0  0  0  0  0  0  0  0  0  0  0
  189.3370  176.0900  143.1740 C   0  0  2  0  0  3  0  0  0  0  0  0
  189.3700  174.0220  144.3470 O   0  0  0  0  0  0  0  0  0  0  0  0
  189.3130  174.5870  143.2240 C   0  0  0  0  0  0  0  0  0  0  0  0
  189.1500  173.7810  142.0520 N   0  0  0  0  0  2  0  0  0  0  0  0
  189.3660  174.2590  140.7970 O   0  0  0  0  0  0  0  0  0  0  0  0
  189.0880  172.2530  139.6680 O   0  0  0  0  0  1  0  0  0  0  0  0
  188.5470  173.5170  139.9190 C   0  0  2  0  0  3  0  0  0  0  0  0
  188.2540  174.2450  138.6150 C   0  0  0  0  0  1  0  0  0  0  0  0
  190.5250  176.6980  143.8700 C   0  0  0  0  0  3  0  0  0  0  0  0
  191.7800  176.4570  143.4860 C   0  0  0  0  0  3  0  0  0  0  0  0
  192.9300  177.0720  144.2110 C   0  0  0  0  0  2  0  0  0  0  0  0
  193.8880  176.0430  144.5840 N   0  0  0  0  0  2  0  0  0  0  0  0
  194.1690  176.9870  146.8570 N   0  0  0  0  0  1  0  0  0  0  0  0
  194.4910  176.0050  145.8760 C   0  0  0  0  0  0  0  0  0  0  0  0
  195.3150  175.0960  146.1520 O   0  0  0  0  0  0  0  0  0  0  0  0
  1 10  1  0  0  0  0
  2  6  1  0  0  0  0
  2  7  2  0  0  0  0
  3  8  1  0  0  0  0
  4  1  2  0  0  0  0
  5  3  2  0  0  0  0
  8 15  1  0  0  0  0
  9  6  1  0  0  0  0
 10  2  1  0  0  0  0
 11  8  2  0  0  0  0
 11  4  1  0  0  0  0
 12  5  1  0  0  0  0
 12 13  2  0  0  0  0
 13 11  1  0  0  0  0
 14  9  2  0  0  0  0
 15 14  1  0  0  0  0
 15 10  2  0  0  0  0
 16 18  1  0  0  0  0
 16  4  1  0  0  0  0
 16 24  1  1  0  0  0
 18 17  2  0  0  0  0
 19 18  1  0  0  0  0
 20 19  1  0  0  0  0
 21 22  1  0  0  0  0
 22 23  1  6  0  0  0
 22 20  1  0  0  0  0
 25 24  2  0  0  0  0
 25 26  1  0  0  0  0
 26 27  1  0  0  0  0
 27 29  1  0  0  0  0
 29 30  2  0  0  0  0
 29 28  1  0  0  0  0
M  END
>  <MODEL>
4

>  <REMARK>
 VINA RESULT:      -7.0      2.436      5.732
  Name = 
  7 active torsions:
  status: ('A' for Active; 'I' for Inactive)
    1  A    between atoms: C_4  and  C_13
    2  A    between atoms: N_7  and  C_16
    3  A    between atoms: C_8  and  C_13
    4  A    between atoms: O_9  and  N_12
    5  A    between atoms: O_9  and  C_17
    6  A    between atoms: C_13  and  C_27
    7  A    between atoms: C_16  and  C_30
                            x       y       z     vdW  Elec       q    Type
                         _______ _______ _______ _____ _____    ______ ____

>  <TORSDO>
F 7

$$$$
=
 OpenBabel11052417173D

 30 32  0  0  1  0  0  0  0  0999 V2000
  187.9060  177.3710  145.0160 N   0  0  0  0  0  0  0  0  0  0  0  0
  186.6710  177.7340  147.1330 C   0  0  0  0  0  0  0  0  0  0  0  0
  184.6070  178.3450  142.6530 C   0  0  0  0  0  3  0  0  0  0  0  0
  188.0290  177.3050  143.6620 C   0  0  0  0  0  0  0  0  0  0  0  0
  184.7030  178.2760  141.2610 C   0  0  0  0  0  3  0  0  0  0  0  0
  185.5220  178.4270  147.6330 O   0  0  0  0  0  0  0  0  0  0  0  0
  187.8250  178.2790  147.6980 O   0  0  0  0  0  0  0  0  0  0  0  0
  185.7110  178.0250  143.4610 C   0  0  0  0  0  0  0  0  0  0  0  0
  184.3750  178.6650  146.8670 C   0  0  0  0  0  3  0  0  0  0  0  0
  186.7590  177.7660  145.6290 C   0  0  0  0  0  0  0  0  0  0  0  0
  186.9270  177.6300  142.8500 C   0  0  0  0  0  0  0  0  0  0  0  0
  185.9020  177.8880  140.6610 C   0  0  0  0  0  3  0  0  0  0  0  0
  187.0080  177.5670  141.4500 C   0  0  0  0  0  3  0  0  0  0  0  0
  184.3890  178.5050  145.5460 C   0  0  0  0  0  3  0  0  0  0  0  0
  185.6280  178.0900  144.8630 C   0  0  0  0  0  0  0  0  0  0  0  0
  189.3300  176.8460  143.0530 C   0  0  2  0  0  3  0  0  0  0  0  0
  189.3760  175.0060  141.5480 O   0  0  0  0  0  0  0  0  0  0  0  0
  189.3960  175.3740  142.7520 C   0  0  0  0  0  0  0  0  0  0  0  0
  189.5590  174.3860  143.7750 N   0  0  0  0  0  2  0  0  0  0  0  0
  189.3070  174.6390  145.0870 O   0  0  0  0  0  0  0  0  0  0  0  0
  190.9630  175.3270  146.5560 O   0  0  0  0  0  1  0  0  0  0  0  0
  190.4520  174.2560  145.8160 C   0  0  2  0  0  3  0  0  0  0  0  0
  191.5370  173.6380  144.9460 C   0  0  0  0  0  1  0  0  0  0  0  0
  190.5620  177.3790  143.7350 C   0  0  0  0  0  3  0  0  0  0  0  0
  191.7770  176.8710  143.5170 C   0  0  0  0  0  3  0  0  0  0  0  0
  192.9700  177.4220  144.2220 C   0  0  0  0  0  2  0  0  0  0  0  0
  193.9700  176.3790  144.3930 N   0  0  0  0  0  2  0  0  0  0  0  0
  194.0230  176.6920  146.8490 N   0  0  0  0  0  1  0  0  0  0  0  0
  194.4820  176.0260  145.6760 C   0  0  0  0  0  0  0  0  0  0  0  0
  195.3470  175.1180  145.7730 O   0  0  0  0  0  0  0  0  0  0  0  0
  1 10  1  0  0  0  0
  2  6  1  0  0  0  0
  2  7  2  0  0  0  0
  3  8  1  0  0  0  0
  4  1  2  0  0  0  0
  5  3  2  0  0  0  0
  8 15  1  0  0  0  0
  9  6  1  0  0  0  0
 10  2  1  0  0  0  0
 11  8  2  0  0  0  0
 11  4  1  0  0  0  0
 12  5  1  0  0  0  0
 12 13  2  0  0  0  0
 13 11  1  0  0  0  0
 14  9  2  0  0  0  0
 15 14  1  0  0  0  0
 15 10  2  0  0  0  0
 16  4  1  0  0  0  0
 16 24  1  1  0  0  0
 17 18  2  0  0  0  0
 18 16  1  0  0  0  0
 18 19  1  0  0  0  0
 19 20  1  0  0  0  0
 20 22  1  0  0  0  0
 22 23  1  6  0  0  0
 22 21  1  0  0  0  0
 25 24  2  0  0  0  0
 25 26  1  0  0  0  0
 26 27  1  0  0  0  0
 27 29  1  0  0  0  0
 29 30  2  0  0  0  0
 29 28  1  0  0  0  0
M  END
>  <MODEL>
5

>  <REMARK>
 VINA RESULT:      -6.6      2.495      5.010
  Name = 
  7 active torsions:
  status: ('A' for Active; 'I' for Inactive)
    1  A    between atoms: C_4  and  C_13
    2  A    between atoms: N_7  and  C_16
    3  A    between atoms: C_8  and  C_13
    4  A    between atoms: O_9  and  N_12
    5  A    between atoms: O_9  and  C_17
    6  A    between atoms: C_13  and  C_27
    7  A    between atoms: C_16  and  C_30
                            x       y       z     vdW  Elec       q    Type
                         _______ _______ _______ _____ _____    ______ ____

>  <TORSDO>
F 7

$$$$
=
 OpenBabel11052417173D

 30 32  0  0  1  0  0  0  0  0999 V2000
  187.3450  176.7670  145.1590 N   0  0  0  0  0  0  0  0  0  0  0  0
  185.6980  177.4080  146.8950 C   0  0  0  0  0  0  0  0  0  0  0  0
  185.0190  178.3020  142.0530 C   0  0  0  0  0  3  0  0  0  0  0  0
  187.7990  176.6480  143.8810 C   0  0  0  0  0  0  0  0  0  0  0  0
  185.4560  178.1850  140.7320 C   0  0  0  0  0  3  0  0  0  0  0  0
  184.6140  178.3200  147.1010 O   0  0  0  0  0  0  0  0  0  0  0  0
  186.7490  177.7340  147.7540 O   0  0  0  0  0  0  0  0  0  0  0  0
  185.7940  177.7950  143.1090 C   0  0  0  0  0  0  0  0  0  0  0  0
  183.7710  178.7570  146.0720 C   0  0  0  0  0  3  0  0  0  0  0  0
  186.1760  177.3890  145.4660 C   0  0  0  0  0  0  0  0  0  0  0  0
  187.0270  177.1600  142.8210 C   0  0  0  0  0  0  0  0  0  0  0  0
  186.6730  177.5600  140.4500 C   0  0  0  0  0  3  0  0  0  0  0  0
  187.4540  177.0500  141.4890 C   0  0  0  0  0  3  0  0  0  0  0  0
  184.0950  178.5670  144.7950 C   0  0  0  0  0  3  0  0  0  0  0  0
  185.3660  177.9070  144.4440 C   0  0  0  0  0  0  0  0  0  0  0  0
  189.1010  175.9340  143.6160 C   0  0  2  0  0  3  0  0  0  0  0  0
  190.6070  177.7350  143.2430 O   0  0  0  0  0  0  0  0  0  0  0  0
  190.3320  176.7320  143.9500 C   0  0  0  0  0  0  0  0  0  0  0  0
  191.1540  176.4370  145.0840 N   0  0  0  0  0  2  0  0  0  0  0  0
  191.1190  175.2390  145.7260 O   0  0  0  0  0  0  0  0  0  0  0  0
  191.4850  175.2990  148.0150 O   0  0  0  0  0  1  0  0  0  0  0  0
  190.5420  175.4590  146.9950 C   0  0  2  0  0  3  0  0  0  0  0  0
  189.3180  174.5940  147.2550 C   0  0  0  0  0  1  0  0  0  0  0  0
  189.1740  175.2400  142.2830 C   0  0  0  0  0  3  0  0  0  0  0  0
  188.9000  173.9430  142.1350 C   0  0  0  0  0  3  0  0  0  0  0  0
  188.9960  173.2920  140.7960 C   0  0  0  0  0  2  0  0  0  0  0  0
  188.4040  174.1520  139.7830 N   0  0  0  0  0  2  0  0  0  0  0  0
  188.9050  172.5360  137.9740 N   0  0  0  0  0  1  0  0  0  0  0  0
  188.3610  173.7790  138.4070 C   0  0  0  0  0  0  0  0  0  0  0  0
  187.8380  174.5560  137.5680 O   0  0  0  0  0  0  0  0  0  0  0  0
  1 10  1  0  0  0  0
  2  6  1  0  0  0  0
  2  7  2  0  0  0  0
  3  8  1  0  0  0  0
  4  1  2  0  0  0  0
  5  3  2  0  0  0  0
  8 15  1  0  0  0  0
  9  6  1  0  0  0  0
 10  2  1  0  0  0  0
 11  8  2  0  0  0  0
 11  4  1  0  0  0  0
 12  5  1  0  0  0  0
 12 13  2  0  0  0  0
 13 11  1  0  0  0  0
 14  9  2  0  0  0  0
 15 14  1  0  0  0  0
 15 10  2  0  0  0  0
 16 24  1  6  0  0  0
 16  4  1  0  0  0  0
 16 18  1  0  0  0  0
 17 18  2  0  0  0  0
 18 19  1  0  0  0  0
 19 20  1  0  0  0  0
 20 22  1  0  0  0  0
 22 23  1  1  0  0  0
 22 21  1  0  0  0  0
 25 24  2  0  0  0  0
 26 25  1  0  0  0  0
 27 26  1  0  0  0  0
 28 29  1  0  0  0  0
 29 27  1  0  0  0  0
 30 29  2  0  0  0  0
M  END
>  <MODEL>
6

>  <REMARK>
 VINA RESULT:      -6.6      1.930      3.439
  Name = 
  7 active torsions:
  status: ('A' for Active; 'I' for Inactive)
    1  A    between atoms: C_4  and  C_13
    2  A    between atoms: N_7  and  C_16
    3  A    between atoms: C_8  and  C_13
    4  A    between atoms: O_9  and  N_12
    5  A    between atoms: O_9  and  C_17
    6  A    between atoms: C_13  and  C_27
    7  A    between atoms: C_16  and  C_30
                            x       y       z     vdW  Elec       q    Type
                         _______ _______ _______ _____ _____    ______ ____

>  <TORSDO>
F 7

$$$$
=
 OpenBabel11052417173D

 30 32  0  0  1  0  0  0  0  0999 V2000
  189.0190  176.4960  142.7670 N   0  0  0  0  0  0  0  0  0  0  0  0
  187.5000  178.2990  142.0050 C   0  0  0  0  0  0  0  0  0  0  0  0
  187.4850  176.5230  146.6480 C   0  0  0  0  0  3  0  0  0  0  0  0
  189.5560  175.6500  143.6880 C   0  0  0  0  0  0  0  0  0  0  0  0
  188.0240  175.6720  147.6150 C   0  0  0  0  0  3  0  0  0  0  0  0
  186.2520  178.9080  142.3540 O   0  0  0  0  0  0  0  0  0  0  0  0
  187.3750  177.6560  140.7720 O   0  0  0  0  0  0  0  0  0  0  0  0
  187.9880  176.5210  145.3360 C   0  0  0  0  0  0  0  0  0  0  0  0
  185.7850  179.0050  143.6700 C   0  0  0  0  0  3  0  0  0  0  0  0
  187.9850  177.3320  143.0530 C   0  0  0  0  0  0  0  0  0  0  0  0
  189.0500  175.6450  145.0020 C   0  0  0  0  0  0  0  0  0  0  0  0
  189.0700  174.8090  147.2840 C   0  0  0  0  0  3  0  0  0  0  0  0
  189.5810  174.7960  145.9850 C   0  0  0  0  0  3  0  0  0  0  0  0
  186.3420  178.2930  144.6470 C   0  0  0  0  0  3  0  0  0  0  0  0
  187.4540  177.3720  144.3520 C   0  0  0  0  0  0  0  0  0  0  0  0
  190.7090  174.7590  143.2990 C   0  0  2  0  0  3  0  0  0  0  0  0
  192.3560  175.1870  141.6380 O   0  0  0  0  0  0  0  0  0  0  0  0
  191.9160  175.4900  142.7780 C   0  0  0  0  0  0  0  0  0  0  0  0
  192.5340  176.5640  143.4950 N   0  0  0  0  0  2  0  0  0  0  0  0
  192.3290  176.7740  144.8230 O   0  0  0  0  0  0  0  0  0  0  0  0
  194.6210  176.4590  144.6650 O   0  0  0  0  0  1  0  0  0  0  0  0
  193.5010  176.3690  145.4970 C   0  0  2  0  0  3  0  0  0  0  0  0
  193.3920  174.9780  146.1040 C   0  0  0  0  0  1  0  0  0  0  0  0
  190.3240  173.5620  142.4730 C   0  0  0  0  0  3  0  0  0  0  0  0
  190.6750  172.3190  142.8070 C   0  0  0  0  0  3  0  0  0  0  0  0
  190.2830  171.1610  141.9520 C   0  0  0  0  0  2  0  0  0  0  0  0
  191.1390  171.0980  140.7790 N   0  0  0  0  0  2  0  0  0  0  0  0
  189.3420  171.9390  139.2960 N   0  0  0  0  0  1  0  0  0  0  0  0
  190.6770  171.4780  139.4840 C   0  0  0  0  0  0  0  0  0  0  0  0
  191.4550  171.4060  138.4990 O   0  0  0  0  0  0  0  0  0  0  0  0
  1 10  2  0  0  0  0
  1  4  1  0  0  0  0
  2  6  1  0  0  0  0
  2 10  1  0  0  0  0
  3  5  2  0  0  0  0
  4 11  2  0  0  0  0
  6  9  1  0  0  0  0
  7  2  2  0  0  0  0
  8  3  1  0  0  0  0
  9 14  2  0  0  0  0
 10 15  1  0  0  0  0
 11  8  1  0  0  0  0
 11 13  1  0  0  0  0
 12  5  1  0  0  0  0
 13 12  2  0  0  0  0
 15 14  1  0  0  0  0
 15  8  2  0  0  0  0
 16 24  1  6  0  0  0
 16  4  1  0  0  0  0
 17 18  2  0  0  0  0
 18 16  1  0  0  0  0
 18 19  1  0  0  0  0
 19 20  1  0  0  0  0
 20 22  1  0  0  0  0
 21 22  1  0  0  0  0
 22 23  1  6  0  0  0
 24 25  2  0  0  0  0
 26 25  1  0  0  0  0
 27 26  1  0  0  0  0
 28 29  1  0  0  0  0
 29 27  1  0  0  0  0
 30 29  2  0  0  0  0
M  END
>  <MODEL>
7

>  <REMARK>
 VINA RESULT:      -6.6      2.145      2.962
  Name = 
  7 active torsions:
  status: ('A' for Active; 'I' for Inactive)
    1  A    between atoms: C_4  and  C_13
    2  A    between atoms: N_7  and  C_16
    3  A    between atoms: C_8  and  C_13
    4  A    between atoms: O_9  and  N_12
    5  A    between atoms: O_9  and  C_17
    6  A    between atoms: C_13  and  C_27
    7  A    between atoms: C_16  and  C_30
                            x       y       z     vdW  Elec       q    Type
                         _______ _______ _______ _____ _____    ______ ____

>  <TORSDO>
F 7

$$$$
=
 OpenBabel11052417173D

 30 32  0  0  1  0  0  0  0  0999 V2000
  188.3070  176.7800  142.4600 N   0  0  0  0  0  0  0  0  0  0  0  0
  186.7000  178.6650  142.3990 C   0  0  0  0  0  0  0  0  0  0  0  0
  187.9420  176.2960  146.5890 C   0  0  0  0  0  3  0  0  0  0  0  0
  189.0520  175.8210  143.0750 C   0  0  0  0  0  0  0  0  0  0  0  0
  188.7020  175.3270  147.2460 C   0  0  0  0  0  3  0  0  0  0  0  0
  185.6250  179.2200  143.1640 O   0  0  0  0  0  0  0  0  0  0  0  0
  186.2070  178.1890  141.1830 O   0  0  0  0  0  0  0  0  0  0  0  0
  188.0500  176.4670  145.1990 C   0  0  0  0  0  0  0  0  0  0  0  0
  185.5560  179.1440  144.5600 C   0  0  0  0  0  3  0  0  0  0  0  0
  187.4280  177.5690  143.1330 C   0  0  0  0  0  0  0  0  0  0  0  0
  188.9420  175.6440  144.4670 C   0  0  0  0  0  0  0  0  0  0  0  0
  189.5790  174.5160  146.5230 C   0  0  0  0  0  3  0  0  0  0  0  0
  189.6990  174.6740  145.1420 C   0  0  0  0  0  3  0  0  0  0  0  0
  186.3410  178.3120  145.2390 C   0  0  0  0  0  3  0  0  0  0  0  0
  187.2900  177.4380  144.5240 C   0  0  0  0  0  0  0  0  0  0  0  0
  190.0150  174.9910  142.2630 C   0  0  2  0  0  3  0  0  0  0  0  0
  189.9140  172.6310  142.5370 O   0  0  0  0  0  0  0  0  0  0  0  0
  189.5030  173.6270  141.8870 C   0  0  0  0  0  0  0  0  0  0  0  0
  188.5120  173.4300  140.8730 N   0  0  0  0  0  2  0  0  0  0  0  0
  188.2220  174.3730  139.9370 O   0  0  0  0  0  0  0  0  0  0  0  0
  189.9160  173.7480  138.4830 O   0  0  0  0  0  1  0  0  0  0  0  0
  188.5340  173.8220  138.6760 C   0  0  2  0  0  3  0  0  0  0  0  0
  187.8680  174.5570  137.5210 C   0  0  0  0  0  1  0  0  0  0  0  0
  191.4270  174.9840  142.7820 C   0  0  0  0  0  3  0  0  0  0  0  0
  192.1390  176.1020  142.9380 C   0  0  0  0  0  3  0  0  0  0  0  0
  193.5400  176.0490  143.4450 C   0  0  0  0  0  2  0  0  0  0  0  0
  193.6430  176.7800  144.6980 N   0  0  0  0  0  2  0  0  0  0  0  0
  193.4300  174.7100  146.0420 N   0  0  0  0  0  1  0  0  0  0  0  0
  193.5880  176.1240  145.9630 C   0  0  0  0  0  0  0  0  0  0  0  0
  193.6800  176.8000  147.0200 O   0  0  0  0  0  0  0  0  0  0  0  0
  1  4  2  0  0  0  0
  1 10  1  0  0  0  0
  2 10  1  0  0  0  0
  2  6  1  0  0  0  0
  3  5  1  0  0  0  0
  4 11  1  0  0  0  0
  6  9  1  0  0  0  0
  7  2  2  0  0  0  0
  8  3  2  0  0  0  0
  9 14  2  0  0  0  0
 10 15  2  0  0  0  0
 11 13  2  0  0  0  0
 11  8  1  0  0  0  0
 12  5  2  0  0  0  0
 13 12  1  0  0  0  0
 15  8  1  0  0  0  0
 15 14  1  0  0  0  0
 16 24  1  1  0  0  0
 16  4  1  0  0  0  0
 18 16  1  0  0  0  0
 18 17  2  0  0  0  0
 19 18  1  0  0  0  0
 20 19  1  0  0  0  0
 21 22  1  0  0  0  0
 22 23  1  6  0  0  0
 22 20  1  0  0  0  0
 24 25  2  0  0  0  0
 25 26  1  0  0  0  0
 26 27  1  0  0  0  0
 27 29  1  0  0  0  0
 29 28  1  0  0  0  0
 29 30  2  0  0  0  0
M  END
>  <MODEL>
8

>  <REMARK>
 VINA RESULT:      -6.6      2.167      5.456
  Name = 
  7 active torsions:
  status: ('A' for Active; 'I' for Inactive)
    1  A    between atoms: C_4  and  C_13
    2  A    between atoms: N_7  and  C_16
    3  A    between atoms: C_8  and  C_13
    4  A    between atoms: O_9  and  N_12
    5  A    between atoms: O_9  and  C_17
    6  A    between atoms: C_13  and  C_27
    7  A    between atoms: C_16  and  C_30
                            x       y       z     vdW  Elec       q    Type
                         _______ _______ _______ _____ _____    ______ ____

>  <TORSDO>
F 7

$$$$
=
 OpenBabel11052417173D

 30 32  0  0  1  0  0  0  0  0999 V2000
  192.0990  176.2610  144.9870 N   0  0  0  0  0  0  0  0  0  0  0  0
  194.4740  176.1690  145.6880 C   0  0  0  0  0  0  0  0  0  0  0  0
  191.9650  172.1890  144.0850 C   0  0  0  0  0  3  0  0  0  0  0  0
  190.9430  175.7390  144.4940 C   0  0  0  0  0  0  0  0  0  0  0  0
  190.7950  171.6290  143.5690 C   0  0  0  0  0  3  0  0  0  0  0  0
  195.4500  175.2290  146.1480 O   0  0  0  0  0  0  0  0  0  0  0  0
  194.1960  177.0860  146.7030 O   0  0  0  0  0  0  0  0  0  0  0  0
  192.0230  173.5570  144.3980 C   0  0  0  0  0  0  0  0  0  0  0  0
  195.4620  173.8830  145.7640 C   0  0  0  0  0  3  0  0  0  0  0  0
  193.2050  175.5050  145.2210 C   0  0  0  0  0  0  0  0  0  0  0  0
  190.8800  174.3670  144.1850 C   0  0  0  0  0  0  0  0  0  0  0  0
  189.6690  172.4280  143.3600 C   0  0  0  0  0  3  0  0  0  0  0  0
  189.7110  173.7890  143.6660 C   0  0  0  0  0  3  0  0  0  0  0  0
  194.4070  173.3330  145.1680 C   0  0  0  0  0  3  0  0  0  0  0  0
  193.1950  174.1350  144.9180 C   0  0  0  0  0  0  0  0  0  0  0  0
  189.7610  176.6420  144.2500 C   0  0  2  0  0  3  0  0  0  0  0  0
  191.1500  178.4240  143.5060 O   0  0  0  0  0  0  0  0  0  0  0  0
  190.0500  177.8270  143.3690 C   0  0  0  0  0  0  0  0  0  0  0  0
  189.1580  178.2520  142.3340 N   0  0  0  0  0  2  0  0  0  0  0  0
  187.8520  177.8750  142.2900 O   0  0  0  0  0  0  0  0  0  0  0  0
  186.3710  177.4940  140.5470 O   0  0  0  0  0  1  0  0  0  0  0  0
  187.6440  177.2220  141.0560 C   0  0  2  0  0  3  0  0  0  0  0  0
  187.8860  175.7210  141.1250 C   0  0  0  0  0  1  0  0  0  0  0  0
  188.9700  176.9850  145.4820 C   0  0  0  0  0  3  0  0  0  0  0  0
  187.8390  176.3550  145.8060 C   0  0  0  0  0  3  0  0  0  0  0  0
  187.0790  176.7350  147.0320 C   0  0  0  0  0  2  0  0  0  0  0  0
  185.6890  176.9970  146.6920 N   0  0  0  0  0  2  0  0  0  0  0  0
  185.8400  179.3470  147.4620 N   0  0  0  0  0  1  0  0  0  0  0  0
  185.0880  178.2730  146.9040 C   0  0  0  0  0  0  0  0  0  0  0  0
  183.8820  178.4520  146.5950 O   0  0  0  0  0  0  0  0  0  0  0  0
  1 10  1  0  0  0  0
  2  6  1  0  0  0  0
  2  7  2  0  0  0  0
  3  8  1  0  0  0  0
  4  1  2  0  0  0  0
  5  3  2  0  0  0  0
  8 15  1  0  0  0  0
  9  6  1  0  0  0  0
 10  2  1  0  0  0  0
 11  8  2  0  0  0  0
 11  4  1  0  0  0  0
 12  5  1  0  0  0  0
 12 13  2  0  0  0  0
 13 11  1  0  0  0  0
 14  9  2  0  0  0  0
 15 14  1  0  0  0  0
 15 10  2  0  0  0  0
 16  4  1  0  0  0  0
 16 24  1  1  0  0  0
 18 17  2  0  0  0  0
 18 16  1  0  0  0  0
 19 18  1  0  0  0  0
 20 19  1  0  0  0  0
 21 22  1  0  0  0  0
 22 23  1  1  0  0  0
 22 20  1  0  0  0  0
 24 25  2  0  0  0  0
 25 26  1  0  0  0  0
 27 29  1  0  0  0  0
 27 26  1  0  0  0  0
 29 28  1  0  0  0  0
 30 29  2  0  0  0  0
M  END
>  <MODEL>
9

>  <REMARK>
 VINA RESULT:      -6.6      3.099      7.926
  Name = 
  7 active torsions:
  status: ('A' for Active; 'I' for Inactive)
    1  A    between atoms: C_4  and  C_13
    2  A    between atoms: N_7  and  C_16
    3  A    between atoms: C_8  and  C_13
    4  A    between atoms: O_9  and  N_12
    5  A    between atoms: O_9  and  C_17
    6  A    between atoms: C_13  and  C_27
    7  A    between atoms: C_16  and  C_30
                            x       y       z     vdW  Elec       q    Type
                         _______ _______ _______ _____ _____    ______ ____

>  <TORSDO>
F 7

$$$$
