=
 OpenBabel11052417143D

 30 34  0  0  1  0  0  0  0  0999 V2000
  188.0810  176.9550  146.4790 C   0  0  0  0  0  3  0  0  0  0  0  0
  186.1280  178.1150  147.5740 C   0  0  2  0  0  3  0  0  0  0  0  0
  186.5520  177.1350  142.6770 N   0  0  0  0  0  2  0  0  0  0  0  0
  188.7480  176.4060  145.3700 C   0  0  0  0  0  0  0  0  0  0  0  0
  187.5840  176.4620  142.1080 C   0  0  0  0  0  0  0  0  0  0  0  0
  184.8680  178.9330  147.2750 C   0  0  0  0  0  2  0  0  0  0  0  0
  187.0230  178.9190  148.3930 N   0  0  0  0  0  1  0  0  0  0  0  0
  186.9270  177.1640  143.9700 C   0  0  0  0  0  0  0  0  0  0  0  0
  184.0790  178.3270  146.1230 C   0  0  0  0  0  2  0  0  0  0  0  0
  186.8440  177.6250  146.3350 C   0  0  0  0  0  0  0  0  0  0  0  0
  188.1260  176.5300  144.1240 C   0  0  0  0  0  0  0  0  0  0  0  0
  187.6370  176.2060  140.8770 O   0  0  0  0  0  0  0  0  0  0  0  0
  188.5260  176.0950  142.9570 O   0  0  0  0  0  0  0  0  0  0  0  0
  184.9180  178.3910  144.8550 C   0  0  0  0  0  2  0  0  0  0  0  0
  186.2380  177.7100  145.0530 C   0  0  0  0  0  0  0  0  0  0  0  0
  190.0300  175.6510  145.5740 C   0  0  1  0  0  3  0  0  0  0  0  0
  190.7890  175.2640  147.8200 O   0  0  0  0  0  1  0  0  0  0  0  0
  190.8590  176.1830  146.7670 C   0  0  1  0  0  3  0  0  0  0  0  0
  193.1520  175.1810  146.5920 C   0  0  0  0  0  2  0  0  0  0  0  0
  192.5170  176.7670  144.9100 C   0  0  0  0  0  2  0  0  0  0  0  0
  192.3270  176.4330  146.3800 C   0  0  0  0  0  3  0  0  0  0  0  0
  194.3300  175.3130  145.6510 C   0  0  0  0  0  2  0  0  0  0  0  0
  193.8700  176.2060  144.5120 C   0  0  0  0  0  2  0  0  0  0  0  0
  189.7460  174.1520  145.6720 C   0  0  0  0  0  2  0  0  0  0  0  0
  189.5730  172.9200  143.5320 C   0  0  1  0  0  3  0  0  0  0  0  0
  190.0070  171.9460  144.6100 C   0  0  0  0  0  2  0  0  0  0  0  0
  190.5190  173.3700  144.6290 C   0  0  2  0  0  3  0  0  0  0  0  0
  189.8670  173.4390  141.2270 O   0  0  0  0  0  1  0  0  0  0  0  0
  190.3640  172.6530  142.2660 C   0  0  2  0  0  3  0  0  0  0  0  0
  190.2450  171.1940  141.8860 C   0  0  0  0  0  1  0  0  0  0  0  0
  2  7  1  6  0  0  0
  3  8  1  0  0  0  0
  4 16  1  0  0  0  0
  4  1  2  0  0  0  0
  5  3  1  0  0  0  0
  5 13  1  0  0  0  0
  6  2  1  0  0  0  0
  8 11  2  0  0  0  0
  8 15  1  0  0  0  0
  9  6  1  0  0  0  0
 10  1  1  0  0  0  0
 10  2  1  0  0  0  0
 11  4  1  0  0  0  0
 12  5  2  0  0  0  0
 13 11  1  0  0  0  0
 14 15  1  0  0  0  0
 14  9  1  0  0  0  0
 15 10  2  0  0  0  0
 16 24  1  1  0  0  0
 16 18  1  0  0  0  0
 18 17  1  1  0  0  0
 20 21  1  0  0  0  0
 21 19  1  0  0  0  0
 21 18  1  0  0  0  0
 22 19  1  0  0  0  0
 23 20  1  0  0  0  0
 23 22  1  0  0  0  0
 25 29  1  6  0  0  0
 25 26  1  0  0  0  0
 25 27  1  0  0  0  0
 26 27  1  0  0  0  0
 27 24  1  1  0  0  0
 28 29  1  0  0  0  0
 29 30  1  6  0  0  0
M  END
>  <MODEL>
1

>  <REMARK>
 VINA RESULT:      -7.8      0.000      0.000
  Name = 
  6 active torsions:
  status: ('A' for Active; 'I' for Inactive)
    1  A    between atoms: C_4  and  C_13
    2  A    between atoms: C_7  and  C_15
    3  A    between atoms: C_8  and  C_12
    4  A    between atoms: C_8  and  C_13
    5  A    between atoms: C_13  and  C_27
    6  A    between atoms: C_27  and  C_30
                            x       y       z     vdW  Elec       q    Type
                         _______ _______ _______ _____ _____    ______ ____

>  <TORSDO>
F 6

$$$$
=
 OpenBabel11052417143D

 30 34  0  0  1  0  0  0  0  0999 V2000
  188.0850  177.2510  145.3220 C   0  0  0  0  0  3  0  0  0  0  0  0
  186.4100  177.9490  147.0730 C   0  0  2  0  0  3  0  0  0  0  0  0
  185.7580  178.3160  142.1170 N   0  0  0  0  0  2  0  0  0  0  0  0
  188.4980  177.0590  143.9920 C   0  0  0  0  0  0  0  0  0  0  0  0
  186.6460  177.8870  141.1850 C   0  0  0  0  0  0  0  0  0  0  0  0
  185.1080  178.7300  147.2760 C   0  0  0  0  0  2  0  0  0  0  0  0
  187.4560  178.5700  147.8730 N   0  0  0  0  0  1  0  0  0  0  0  0
  186.4070  178.0310  143.2610 C   0  0  0  0  0  0  0  0  0  0  0  0
  184.0910  178.3950  146.1940 C   0  0  0  0  0  2  0  0  0  0  0  0
  186.8410  177.8510  145.6260 C   0  0  0  0  0  0  0  0  0  0  0  0
  187.6170  177.4620  142.9850 C   0  0  0  0  0  0  0  0  0  0  0  0
  186.4290  177.9660  139.9470 O   0  0  0  0  0  0  0  0  0  0  0  0
  187.7540  177.3750  141.6860 O   0  0  0  0  0  0  0  0  0  0  0  0
  184.6300  178.8450  144.8450 C   0  0  0  0  0  2  0  0  0  0  0  0
  185.9680  178.2270  144.5710 C   0  0  0  0  0  0  0  0  0  0  0  0
  189.8000  176.3650  143.7120 C   0  0  1  0  0  3  0  0  0  0  0  0
  190.9460  175.1400  141.9910 O   0  0  0  0  0  1  0  0  0  0  0  0
  189.6900  175.3090  142.5850 C   0  0  1  0  0  3  0  0  0  0  0  0
  189.6330  172.8290  142.2190 C   0  0  0  0  0  2  0  0  0  0  0  0
  189.6970  173.6020  144.4880 C   0  0  0  0  0  2  0  0  0  0  0  0
  189.1670  173.9610  143.1100 C   0  0  0  0  0  3  0  0  0  0  0  0
  189.6250  171.5970  143.0990 C   0  0  0  0  0  2  0  0  0  0  0  0
  189.8110  172.0880  144.5240 C   0  0  0  0  0  2  0  0  0  0  0  0
  190.8990  177.3950  143.4520 C   0  0  0  0  0  2  0  0  0  0  0  0
  192.9490  176.4890  144.5030 C   0  0  1  0  0  3  0  0  0  0  0  0
  191.7810  176.2320  145.4350 C   0  0  0  0  0  2  0  0  0  0  0  0
  191.8390  177.5150  144.6350 C   0  0  2  0  0  3  0  0  0  0  0  0
  195.2800  176.9760  144.4990 O   0  0  0  0  0  1  0  0  0  0  0  0
  194.1480  176.9420  145.3130 C   0  0  2  0  0  3  0  0  0  0  0  0
  194.3870  175.9780  146.4550 C   0  0  0  0  0  1  0  0  0  0  0  0
  1 10  1  0  0  0  0
  2  6  1  0  0  0  0
  2  7  1  1  0  0  0
  3  8  1  0  0  0  0
  4  1  2  0  0  0  0
  5 13  1  0  0  0  0
  5  3  1  0  0  0  0
  8 15  1  0  0  0  0
  9  6  1  0  0  0  0
 10  2  1  0  0  0  0
 11  8  2  0  0  0  0
 11  4  1  0  0  0  0
 12  5  2  0  0  0  0
 13 11  1  0  0  0  0
 14  9  1  0  0  0  0
 15 14  1  0  0  0  0
 15 10  2  0  0  0  0
 16 24  1  6  0  0  0
 16  4  1  0  0  0  0
 18 17  1  1  0  0  0
 18 21  1  0  0  0  0
 18 16  1  0  0  0  0
 19 22  1  0  0  0  0
 19 21  1  0  0  0  0
 20 23  1  0  0  0  0
 21 20  1  0  0  0  0
 22 23  1  0  0  0  0
 25 27  1  0  0  0  0
 25 29  1  1  0  0  0
 25 26  1  0  0  0  0
 27 24  1  6  0  0  0
 27 26  1  0  0  0  0
 28 29  1  0  0  0  0
 29 30  1  1  0  0  0
M  END
>  <MODEL>
2

>  <REMARK>
 VINA RESULT:      -7.4      1.666      3.998
  Name = 
  6 active torsions:
  status: ('A' for Active; 'I' for Inactive)
    1  A    between atoms: C_4  and  C_13
    2  A    between atoms: C_7  and  C_15
    3  A    between atoms: C_8  and  C_12
    4  A    between atoms: C_8  and  C_13
    5  A    between atoms: C_13  and  C_27
    6  A    between atoms: C_27  and  C_30
                            x       y       z     vdW  Elec       q    Type
                         _______ _______ _______ _____ _____    ______ ____

>  <TORSDO>
F 6

$$$$
=
 OpenBabel11052417143D

 30 34  0  0  1  0  0  0  0  0999 V2000
  189.3300  174.4890  143.4390 C   0  0  0  0  0  3  0  0  0  0  0  0
  190.1270  172.6930  141.8580 C   0  0  2  0  0  3  0  0  0  0  0  0
  187.1810  176.5560  140.6230 N   0  0  0  0  0  2  0  0  0  0  0  0
  188.6420  175.6790  143.7370 C   0  0  0  0  0  0  0  0  0  0  0  0
  186.8030  177.5450  141.4720 C   0  0  0  0  0  0  0  0  0  0  0  0
  189.9040  172.1100  140.4590 C   0  0  0  0  0  2  0  0  0  0  0  0
  189.8560  171.6590  142.8440 N   0  0  0  0  0  1  0  0  0  0  0  0
  187.9110  175.7670  141.4330 C   0  0  0  0  0  0  0  0  0  0  0  0
  189.7820  173.2110  139.4160 C   0  0  0  0  0  2  0  0  0  0  0  0
  189.2950  173.9250  142.1430 C   0  0  0  0  0  0  0  0  0  0  0  0
  187.9460  176.2920  142.6920 C   0  0  0  0  0  0  0  0  0  0  0  0
  186.0890  178.5170  141.1130 O   0  0  0  0  0  0  0  0  0  0  0  0
  187.2520  177.4020  142.7050 O   0  0  0  0  0  0  0  0  0  0  0  0
  188.5440  174.0450  139.7120 C   0  0  0  0  0  2  0  0  0  0  0  0
  188.5910  174.5930  141.1060 C   0  0  0  0  0  0  0  0  0  0  0  0
  188.7530  176.2760  145.1100 C   0  0  1  0  0  3  0  0  0  0  0  0
  187.7620  175.7170  147.2260 O   0  0  0  0  0  1  0  0  0  0  0  0
  187.4480  176.1450  145.9310 C   0  0  1  0  0  3  0  0  0  0  0  0
  185.2090  177.2430  145.6550 C   0  0  0  0  0  2  0  0  0  0  0  0
  186.6490  178.1040  147.3670 C   0  0  0  0  0  2  0  0  0  0  0  0
  186.6690  177.4710  145.9860 C   0  0  0  0  0  3  0  0  0  0  0  0
  184.4650  178.3820  146.3170 C   0  0  0  0  0  2  0  0  0  0  0  0
  185.3200  178.8280  147.4900 C   0  0  0  0  0  2  0  0  0  0  0  0
  189.9690  175.7000  145.8360 C   0  0  0  0  0  2  0  0  0  0  0  0
  192.4250  175.9330  145.6380 C   0  0  1  0  0  3  0  0  0  0  0  0
  192.0160  176.3650  147.0320 C   0  0  0  0  0  2  0  0  0  0  0  0
  191.1230  176.6820  145.8520 C   0  0  2  0  0  3  0  0  0  0  0  0
  194.0270  176.3740  143.9320 O   0  0  0  0  0  1  0  0  0  0  0  0
  193.4720  176.8910  145.1030 C   0  0  2  0  0  3  0  0  0  0  0  0
  194.5670  177.0780  146.1290 C   0  0  0  0  0  1  0  0  0  0  0  0
  1  4  1  0  0  0  0
  2 10  1  0  0  0  0
  2  7  1  1  0  0  0
  3  8  1  0  0  0  0
  3  5  1  0  0  0  0
  4 16  1  0  0  0  0
  5 13  1  0  0  0  0
  6  2  1  0  0  0  0
  8 11  1  0  0  0  0
  9 14  1  0  0  0  0
  9  6  1  0  0  0  0
 10  1  2  0  0  0  0
 11 13  1  0  0  0  0
 11  4  2  0  0  0  0
 12  5  2  0  0  0  0
 14 15  1  0  0  0  0
 15  8  2  0  0  0  0
 15 10  1  0  0  0  0
 16 24  1  1  0  0  0
 16 18  1  0  0  0  0
 18 21  1  0  0  0  0
 18 17  1  1  0  0  0
 19 21  1  0  0  0  0
 19 22  1  0  0  0  0
 20 23  1  0  0  0  0
 21 20  1  0  0  0  0
 22 23  1  0  0  0  0
 25 29  1  6  0  0  0
 25 27  1  0  0  0  0
 25 26  1  0  0  0  0
 27 24  1  1  0  0  0
 27 26  1  0  0  0  0
 28 29  1  0  0  0  0
 29 30  1  1  0  0  0
M  END
>  <MODEL>
3

>  <REMARK>
 VINA RESULT:      -7.4      2.259      6.161
  Name = 
  6 active torsions:
  status: ('A' for Active; 'I' for Inactive)
    1  A    between atoms: C_4  and  C_13
    2  A    between atoms: C_7  and  C_15
    3  A    between atoms: C_8  and  C_12
    4  A    between atoms: C_8  and  C_13
    5  A    between atoms: C_13  and  C_27
    6  A    between atoms: C_27  and  C_30
                            x       y       z     vdW  Elec       q    Type
                         _______ _______ _______ _____ _____    ______ ____

>  <TORSDO>
F 6

$$$$
=
 OpenBabel11052417143D

 30 34  0  0  1  0  0  0  0  0999 V2000
  187.8510  177.1170  145.1810 C   0  0  0  0  0  3  0  0  0  0  0  0
  186.3310  177.7860  147.0790 C   0  0  2  0  0  3  0  0  0  0  0  0
  185.3510  178.4320  142.2070 N   0  0  0  0  0  2  0  0  0  0  0  0
  188.1620  176.9790  143.8170 C   0  0  0  0  0  0  0  0  0  0  0  0
  186.1540  178.0200  141.1930 C   0  0  0  0  0  0  0  0  0  0  0  0
  185.0790  178.6030  147.4130 C   0  0  0  0  0  2  0  0  0  0  0  0
  187.4540  178.3250  147.8320 N   0  0  0  0  0  1  0  0  0  0  0  0
  186.0670  178.0650  143.2860 C   0  0  0  0  0  0  0  0  0  0  0  0
  183.9760  178.3620  146.3910 C   0  0  0  0  0  2  0  0  0  0  0  0
  186.6560  177.7460  145.6020 C   0  0  0  0  0  0  0  0  0  0  0  0
  187.2300  177.4660  142.8970 C   0  0  0  0  0  0  0  0  0  0  0  0
  185.8560  178.1710  139.9800 O   0  0  0  0  0  0  0  0  0  0  0  0
  187.2730  177.4420  141.5890 O   0  0  0  0  0  0  0  0  0  0  0  0
  184.4390  178.8610  145.0310 C   0  0  0  0  0  2  0  0  0  0  0  0
  185.7280  178.2090  144.6320 C   0  0  0  0  0  0  0  0  0  0  0  0
  189.4120  176.2530  143.4110 C   0  0  1  0  0  3  0  0  0  0  0  0
  190.3690  178.2310  144.3810 O   0  0  0  0  0  1  0  0  0  0  0  0
  190.7030  176.9710  143.8730 C   0  0  1  0  0  3  0  0  0  0  0  0
  192.9590  176.3040  144.7410 C   0  0  0  0  0  2  0  0  0  0  0  0
  191.2160  176.6310  146.3540 C   0  0  0  0  0  2  0  0  0  0  0  0
  191.4650  176.1560  144.9330 C   0  0  0  0  0  3  0  0  0  0  0  0
  193.5670  176.0300  146.1000 C   0  0  0  0  0  2  0  0  0  0  0  0
  192.5010  176.3780  147.1240 C   0  0  0  0  0  2  0  0  0  0  0  0
  189.3470  174.7970  143.8730 C   0  0  0  0  0  2  0  0  0  0  0  0
  190.2200  173.1100  142.2860 C   0  0  1  0  0  3  0  0  0  0  0  0
  189.7300  174.3050  141.4910 C   0  0  0  0  0  2  0  0  0  0  0  0
  188.9830  173.8680  142.7320 C   0  0  2  0  0  3  0  0  0  0  0  0
  190.2660  170.7290  142.2950 O   0  0  0  0  0  1  0  0  0  0  0  0
  189.7980  171.8330  141.5840 C   0  0  2  0  0  3  0  0  0  0  0  0
  190.3760  171.8040  140.1860 C   0  0  0  0  0  1  0  0  0  0  0  0
  1 10  1  0  0  0  0
  2  6  1  0  0  0  0
  2  7  1  1  0  0  0
  3  8  1  0  0  0  0
  4  1  2  0  0  0  0
  5 13  1  0  0  0  0
  5  3  1  0  0  0  0
  8 15  1  0  0  0  0
  9  6  1  0  0  0  0
 10  2  1  0  0  0  0
 11  8  2  0  0  0  0
 11  4  1  0  0  0  0
 12  5  2  0  0  0  0
 13 11  1  0  0  0  0
 14  9  1  0  0  0  0
 15 14  1  0  0  0  0
 15 10  2  0  0  0  0
 16  4  1  0  0  0  0
 16 18  1  0  0  0  0
 16 24  1  1  0  0  0
 18 17  1  1  0  0  0
 18 21  1  0  0  0  0
 19 21  1  0  0  0  0
 19 22  1  0  0  0  0
 20 23  1  0  0  0  0
 21 20  1  0  0  0  0
 22 23  1  0  0  0  0
 25 29  1  6  0  0  0
 25 27  1  0  0  0  0
 26 25  1  0  0  0  0
 26 27  1  0  0  0  0
 27 24  1  1  0  0  0
 29 30  1  6  0  0  0
 29 28  1  0  0  0  0
M  END
>  <MODEL>
4

>  <REMARK>
 VINA RESULT:      -7.2      1.579      2.102
  Name = 
  6 active torsions:
  status: ('A' for Active; 'I' for Inactive)
    1  A    between atoms: C_4  and  C_13
    2  A    between atoms: C_7  and  C_15
    3  A    between atoms: C_8  and  C_12
    4  A    between atoms: C_8  and  C_13
    5  A    between atoms: C_13  and  C_27
    6  A    between atoms: C_27  and  C_30
                            x       y       z     vdW  Elec       q    Type
                         _______ _______ _______ _____ _____    ______ ____

>  <TORSDO>
F 6

$$$$
=
 OpenBabel11052417143D

 30 34  0  0  1  0  0  0  0  0999 V2000
  188.9400  174.7960  143.8110 C   0  0  0  0  0  3  0  0  0  0  0  0
  189.8610  172.5790  143.0370 C   0  0  2  0  0  3  0  0  0  0  0  0
  187.4460  175.8890  140.1510 N   0  0  0  0  0  2  0  0  0  0  0  0
  188.2990  176.0280  143.5940 C   0  0  0  0  0  0  0  0  0  0  0  0
  187.0020  177.1020  140.5670 C   0  0  0  0  0  0  0  0  0  0  0  0
  189.8350  171.5840  141.8730 C   0  0  0  0  0  2  0  0  0  0  0  0
  189.3560  171.9160  144.2300 N   0  0  0  0  0  1  0  0  0  0  0  0
  187.9720  175.3890  141.2840 C   0  0  0  0  0  0  0  0  0  0  0  0
  189.9680  172.2980  140.5350 C   0  0  0  0  0  2  0  0  0  0  0  0
  189.0830  173.8490  142.7700 C   0  0  0  0  0  0  0  0  0  0  0  0
  187.8320  176.2870  142.3020 C   0  0  0  0  0  0  0  0  0  0  0  0
  186.4290  177.9200  139.8010 O   0  0  0  0  0  0  0  0  0  0  0  0
  187.2270  177.3530  141.8430 O   0  0  0  0  0  0  0  0  0  0  0  0
  188.7610  173.2000  140.3280 C   0  0  0  0  0  2  0  0  0  0  0  0
  188.6110  174.1620  141.4680 C   0  0  0  0  0  0  0  0  0  0  0  0
  188.2200  177.0300  144.7100 C   0  0  1  0  0  3  0  0  0  0  0  0
  188.9670  176.7350  146.9740 O   0  0  0  0  0  1  0  0  0  0  0  0
  187.9450  176.3780  146.0860 C   0  0  1  0  0  3  0  0  0  0  0  0
  186.6880  178.1260  147.3730 C   0  0  0  0  0  2  0  0  0  0  0  0
  185.5220  177.0260  145.5890 C   0  0  0  0  0  2  0  0  0  0  0  0
  186.5790  176.7960  146.6570 C   0  0  0  0  0  3  0  0  0  0  0  0
  185.2950  178.7180  147.3320 C   0  0  0  0  0  2  0  0  0  0  0  0
  184.6120  178.1230  146.1130 C   0  0  0  0  0  2  0  0  0  0  0  0
  189.4680  177.9130  144.7110 C   0  0  0  0  0  2  0  0  0  0  0  0
  191.7630  176.9870  144.7160 C   0  0  1  0  0  3  0  0  0  0  0  0
  191.7610  178.2540  143.8830 C   0  0  0  0  0  2  0  0  0  0  0  0
  190.5660  177.3260  143.8480 C   0  0  2  0  0  3  0  0  0  0  0  0
  192.5550  174.7410  144.7480 O   0  0  0  0  0  1  0  0  0  0  0  0
  192.6020  175.9310  144.0220 C   0  0  2  0  0  3  0  0  0  0  0  0
  194.0380  176.3980  143.9290 C   0  0  0  0  0  1  0  0  0  0  0  0
  2  7  1  1  0  0  0
  3  5  1  0  0  0  0
  3  8  1  0  0  0  0
  4  1  1  0  0  0  0
  4 16  1  0  0  0  0
  5 13  1  0  0  0  0
  6  2  1  0  0  0  0
  8 15  2  0  0  0  0
  8 11  1  0  0  0  0
  9  6  1  0  0  0  0
 10  2  1  0  0  0  0
 10  1  2  0  0  0  0
 11  4  2  0  0  0  0
 12  5  2  0  0  0  0
 13 11  1  0  0  0  0
 14  9  1  0  0  0  0
 14 15  1  0  0  0  0
 15 10  1  0  0  0  0
 16 24  1  1  0  0  0
 16 18  1  0  0  0  0
 18 21  1  0  0  0  0
 18 17  1  1  0  0  0
 20 23  1  0  0  0  0
 20 21  1  0  0  0  0
 21 19  1  0  0  0  0
 22 19  1  0  0  0  0
 23 22  1  0  0  0  0
 25 29  1  6  0  0  0
 26 25  1  0  0  0  0
 27 26  1  0  0  0  0
 27 24  1  1  0  0  0
 27 25  1  0  0  0  0
 29 30  1  1  0  0  0
 29 28  1  0  0  0  0
M  END
>  <MODEL>
5

>  <REMARK>
 VINA RESULT:      -6.9      2.337      5.920
  Name = 
  6 active torsions:
  status: ('A' for Active; 'I' for Inactive)
    1  A    between atoms: C_4  and  C_13
    2  A    between atoms: C_7  and  C_15
    3  A    between atoms: C_8  and  C_12
    4  A    between atoms: C_8  and  C_13
    5  A    between atoms: C_13  and  C_27
    6  A    between atoms: C_27  and  C_30
                            x       y       z     vdW  Elec       q    Type
                         _______ _______ _______ _____ _____    ______ ____

>  <TORSDO>
F 6

$$$$
=
 OpenBabel11052417143D

 30 34  0  0  1  0  0  0  0  0999 V2000
  188.5710  176.1360  143.3210 C   0  0  0  0  0  3  0  0  0  0  0  0
  187.4140  177.0490  141.2740 C   0  0  2  0  0  3  0  0  0  0  0  0
  185.7210  177.4200  145.9770 N   0  0  0  0  0  2  0  0  0  0  0  0
  188.6850  175.9350  144.7080 C   0  0  0  0  0  0  0  0  0  0  0  0
  186.3790  176.9710  147.0760 C   0  0  0  0  0  0  0  0  0  0  0  0
  186.0870  177.6320  140.7780 C   0  0  0  0  0  2  0  0  0  0  0  0
  187.6940  175.8290  140.5320 N   0  0  0  0  0  1  0  0  0  0  0  0
  186.5580  177.0510  144.9900 C   0  0  0  0  0  0  0  0  0  0  0  0
  185.5400  178.6640  141.7550 C   0  0  0  0  0  2  0  0  0  0  0  0
  187.4410  176.7790  142.7630 C   0  0  0  0  0  0  0  0  0  0  0  0
  187.6490  176.4180  145.5120 C   0  0  0  0  0  0  0  0  0  0  0  0
  185.9350  177.1140  148.2450 O   0  0  0  0  0  0  0  0  0  0  0  0
  187.5280  176.3750  146.8140 O   0  0  0  0  0  0  0  0  0  0  0  0
  185.2170  177.9790  143.0750 C   0  0  0  0  0  2  0  0  0  0  0  0
  186.4210  177.2720  143.6190 C   0  0  0  0  0  0  0  0  0  0  0  0
  189.9270  175.3010  145.2660 C   0  0  1  0  0  3  0  0  0  0  0  0
  190.2710  175.1320  147.6380 O   0  0  0  0  0  1  0  0  0  0  0  0
  190.4350  175.9990  146.5510 C   0  0  1  0  0  3  0  0  0  0  0  0
  192.8230  175.2760  146.8010 C   0  0  0  0  0  2  0  0  0  0  0  0
  192.3180  176.7900  145.0130 C   0  0  0  0  0  2  0  0  0  0  0  0
  191.9080  176.4240  146.4290 C   0  0  0  0  0  3  0  0  0  0  0  0
  194.1270  175.5540  146.0850 C   0  0  0  0  0  2  0  0  0  0  0  0
  193.7770  176.3960  144.8710 C   0  0  0  0  0  2  0  0  0  0  0  0
  189.7120  173.8000  145.4530 C   0  0  0  0  0  2  0  0  0  0  0  0
  191.5430  172.4580  144.4650 C   0  0  1  0  0  3  0  0  0  0  0  0
  191.3550  173.7040  143.6210 C   0  0  0  0  0  2  0  0  0  0  0  0
  190.1520  173.0180  144.2320 C   0  0  2  0  0  3  0  0  0  0  0  0
  192.3960  170.2450  144.2630 O   0  0  0  0  0  1  0  0  0  0  0  0
  191.7610  171.2650  143.5550 C   0  0  2  0  0  3  0  0  0  0  0  0
  192.6260  171.6680  142.3820 C   0  0  0  0  0  1  0  0  0  0  0  0
  1  4  1  0  0  0  0
  2  7  1  6  0  0  0
  2 10  1  0  0  0  0
  3  5  1  0  0  0  0
  4 16  1  0  0  0  0
  4 11  2  0  0  0  0
  5 12  2  0  0  0  0
  6  2  1  0  0  0  0
  6  9  1  0  0  0  0
  8 11  1  0  0  0  0
  8  3  1  0  0  0  0
  9 14  1  0  0  0  0
 10  1  2  0  0  0  0
 10 15  1  0  0  0  0
 11 13  1  0  0  0  0
 13  5  1  0  0  0  0
 14 15  1  0  0  0  0
 15  8  2  0  0  0  0
 16 24  1  1  0  0  0
 16 18  1  0  0  0  0
 18 17  1  1  0  0  0
 20 21  1  0  0  0  0
 21 18  1  0  0  0  0
 21 19  1  0  0  0  0
 22 19  1  0  0  0  0
 23 20  1  0  0  0  0
 23 22  1  0  0  0  0
 25 29  1  6  0  0  0
 26 27  1  0  0  0  0
 26 25  1  0  0  0  0
 27 25  1  0  0  0  0
 27 24  1  1  0  0  0
 29 30  1  6  0  0  0
 29 28  1  0  0  0  0
M  END
>  <MODEL>
6

>  <REMARK>
 VINA RESULT:      -6.8      2.105      3.550
  Name = 
  6 active torsions:
  status: ('A' for Active; 'I' for Inactive)
    1  A    between atoms: C_4  and  C_13
    2  A    between atoms: C_7  and  C_15
    3  A    between atoms: C_8  and  C_12
    4  A    between atoms: C_8  and  C_13
    5  A    between atoms: C_13  and  C_27
    6  A    between atoms: C_27  and  C_30
                            x       y       z     vdW  Elec       q    Type
                         _______ _______ _______ _____ _____    ______ ____

>  <TORSDO>
F 6

$$$$
=
 OpenBabel11052417143D

 30 34  0  0  1  0  0  0  0  0999 V2000
  187.9500  177.5650  143.0930 C   0  0  0  0  0  3  0  0  0  0  0  0
  185.9270  179.0510  143.3280 C   0  0  2  0  0  3  0  0  0  0  0  0
  187.7510  176.0400  146.8960 N   0  0  0  0  0  2  0  0  0  0  0  0
  188.8930  176.6470  143.5900 C   0  0  0  0  0  0  0  0  0  0  0  0
  188.8720  175.2850  146.7740 C   0  0  0  0  0  0  0  0  0  0  0  0
  184.7170  179.3360  144.2240 C   0  0  0  0  0  2  0  0  0  0  0  0
  185.4500  178.6660  142.0090 N   0  0  0  0  0  1  0  0  0  0  0  0
  187.6770  176.6140  145.6810 C   0  0  0  0  0  0  0  0  0  0  0  0
  185.1130  179.3570  145.6930 C   0  0  0  0  0  2  0  0  0  0  0  0
  186.8580  177.9950  143.8820 C   0  0  0  0  0  0  0  0  0  0  0  0
  188.7190  176.1990  144.9020 C   0  0  0  0  0  0  0  0  0  0  0  0
  189.3160  174.5660  147.7070 O   0  0  0  0  0  0  0  0  0  0  0  0
  189.4590  175.3710  145.5950 O   0  0  0  0  0  0  0  0  0  0  0  0
  185.6030  177.9750  146.0980 C   0  0  0  0  0  2  0  0  0  0  0  0
  186.7320  177.5290  145.2170 C   0  0  0  0  0  0  0  0  0  0  0  0
  190.0710  176.2610  142.7420 C   0  0  1  0  0  3  0  0  0  0  0  0
  191.0180  178.1810  143.8320 O   0  0  0  0  0  1  0  0  0  0  0  0
  191.3610  177.0280  143.1170 C   0  0  1  0  0  3  0  0  0  0  0  0
  193.6640  176.0410  143.2460 C   0  0  0  0  0  2  0  0  0  0  0  0
  192.6590  176.7520  145.3030 C   0  0  0  0  0  2  0  0  0  0  0  0
  192.3250  176.1600  143.9440 C   0  0  0  0  0  3  0  0  0  0  0  0
  194.6640  175.7480  144.3430 C   0  0  0  0  0  2  0  0  0  0  0  0
  194.0830  176.3300  145.6190 C   0  0  0  0  0  2  0  0  0  0  0  0
  190.2570  174.7440  142.7620 C   0  0  0  0  0  2  0  0  0  0  0  0
  189.7670  172.8900  141.1970 C   0  0  1  0  0  3  0  0  0  0  0  0
  191.2540  172.8810  141.4970 C   0  0  0  0  0  2  0  0  0  0  0  0
  190.5170  174.1970  141.3730 C   0  0  2  0  0  3  0  0  0  0  0  0
  188.1890  172.6670  139.4270 O   0  0  0  0  0  1  0  0  0  0  0  0
  189.5530  172.6300  139.7180 C   0  0  2  0  0  3  0  0  0  0  0  0
  190.1010  171.2690  139.3530 C   0  0  0  0  0  1  0  0  0  0  0  0
  1  4  2  0  0  0  0
  1 10  1  0  0  0  0
  2  7  1  6  0  0  0
  2 10  1  0  0  0  0
  2  6  1  0  0  0  0
  4 11  1  0  0  0  0
  5  3  1  0  0  0  0
  5 12  2  0  0  0  0
  6  9  1  0  0  0  0
  8  3  1  0  0  0  0
  9 14  1  0  0  0  0
 10 15  2  0  0  0  0
 11 13  1  0  0  0  0
 11  8  2  0  0  0  0
 13  5  1  0  0  0  0
 15  8  1  0  0  0  0
 15 14  1  0  0  0  0
 16 24  1  1  0  0  0
 16 18  1  0  0  0  0
 16  4  1  0  0  0  0
 18 17  1  1  0  0  0
 18 21  1  0  0  0  0
 19 21  1  0  0  0  0
 19 22  1  0  0  0  0
 20 23  1  0  0  0  0
 21 20  1  0  0  0  0
 22 23  1  0  0  0  0
 25 29  1  6  0  0  0
 25 27  1  0  0  0  0
 25 26  1  0  0  0  0
 27 26  1  0  0  0  0
 27 24  1  1  0  0  0
 28 29  1  0  0  0  0
 29 30  1  1  0  0  0
M  END
>  <MODEL>
7

>  <REMARK>
 VINA RESULT:      -6.8      1.884      3.344
  Name = 
  6 active torsions:
  status: ('A' for Active; 'I' for Inactive)
    1  A    between atoms: C_4  and  C_13
    2  A    between atoms: C_7  and  C_15
    3  A    between atoms: C_8  and  C_12
    4  A    between atoms: C_8  and  C_13
    5  A    between atoms: C_13  and  C_27
    6  A    between atoms: C_27  and  C_30
                            x       y       z     vdW  Elec       q    Type
                         _______ _______ _______ _____ _____    ______ ____

>  <TORSDO>
F 6

$$$$
=
 OpenBabel11052417143D

 30 34  0  0  1  0  0  0  0  0999 V2000
  191.9370  175.6210  143.7970 C   0  0  0  0  0  3  0  0  0  0  0  0
  194.1950  174.6190  143.2920 C   0  0  2  0  0  3  0  0  0  0  0  0
  192.8230  176.6260  147.6740 N   0  0  0  0  0  2  0  0  0  0  0  0
  190.9990  176.2230  144.6550 C   0  0  0  0  0  0  0  0  0  0  0  0
  191.5860  177.1140  147.9500 C   0  0  0  0  0  0  0  0  0  0  0  0
  195.6270  174.5000  143.8240 C   0  0  0  0  0  2  0  0  0  0  0  0
  194.2330  175.2760  141.9950 N   0  0  0  0  0  1  0  0  0  0  0  0
  192.6860  176.2530  146.3890 C   0  0  0  0  0  0  0  0  0  0  0  0
  195.6360  174.1920  145.3150 C   0  0  0  0  0  2  0  0  0  0  0  0
  193.2570  175.3500  144.2270 C   0  0  0  0  0  0  0  0  0  0  0  0
  191.4190  176.5190  145.9550 C   0  0  0  0  0  0  0  0  0  0  0  0
  191.2710  177.5800  149.0760 O   0  0  0  0  0  0  0  0  0  0  0  0
  190.7410  177.0550  146.9380 O   0  0  0  0  0  0  0  0  0  0  0  0
  195.0150  175.3580  146.0700 C   0  0  0  0  0  2  0  0  0  0  0  0
  193.6350  175.6480  145.5630 C   0  0  0  0  0  0  0  0  0  0  0  0
  189.5920  176.4400  144.1800 C   0  0  1  0  0  3  0  0  0  0  0  0
  188.6290  174.4590  143.2190 O   0  0  0  0  0  1  0  0  0  0  0  0
  189.2660  175.6590  142.8830 C   0  0  1  0  0  3  0  0  0  0  0  0
  186.9250  176.1070  142.1030 C   0  0  0  0  0  2  0  0  0  0  0  0
  188.4270  177.9730  142.1920 C   0  0  0  0  0  2  0  0  0  0  0  0
  188.3830  176.4780  141.9260 C   0  0  0  0  0  3  0  0  0  0  0  0
  186.1440  177.3170  141.6370 C   0  0  0  0  0  2  0  0  0  0  0  0
  187.0550  178.5160  141.8320 C   0  0  0  0  0  2  0  0  0  0  0  0
  188.6050  176.1480  145.3100 C   0  0  0  0  0  2  0  0  0  0  0  0
  186.9270  177.1520  146.8280 C   0  0  1  0  0  3  0  0  0  0  0  0
  186.2130  176.6650  145.5820 C   0  0  0  0  0  2  0  0  0  0  0  0
  187.5970  177.2680  145.4710 C   0  0  2  0  0  3  0  0  0  0  0  0
  186.9640  178.9230  148.4190 O   0  0  0  0  0  1  0  0  0  0  0  0
  186.3700  178.5050  147.2280 C   0  0  2  0  0  3  0  0  0  0  0  0
  184.8750  178.4040  147.4290 C   0  0  0  0  0  1  0  0  0  0  0  0
  1 10  2  0  0  0  0
  1  4  1  0  0  0  0
  2  7  1  6  0  0  0
  2  6  1  0  0  0  0
  2 10  1  0  0  0  0
  3  5  1  0  0  0  0
  4 11  2  0  0  0  0
  5 12  2  0  0  0  0
  6  9  1  0  0  0  0
  8  3  1  0  0  0  0
  9 14  1  0  0  0  0
 10 15  1  0  0  0  0
 11  8  1  0  0  0  0
 11 13  1  0  0  0  0
 13  5  1  0  0  0  0
 15 14  1  0  0  0  0
 15  8  2  0  0  0  0
 16  4  1  0  0  0  0
 16 24  1  1  0  0  0
 18 17  1  1  0  0  0
 18 16  1  0  0  0  0
 21 19  1  0  0  0  0
 21 20  1  0  0  0  0
 21 18  1  0  0  0  0
 22 23  1  0  0  0  0
 22 19  1  0  0  0  0
 23 20  1  0  0  0  0
 25 29  1  6  0  0  0
 26 25  1  0  0  0  0
 27 24  1  1  0  0  0
 27 26  1  0  0  0  0
 27 25  1  0  0  0  0
 29 30  1  1  0  0  0
 29 28  1  0  0  0  0
M  END
>  <MODEL>
8

>  <REMARK>
 VINA RESULT:      -6.8      2.718      7.571
  Name = 
  6 active torsions:
  status: ('A' for Active; 'I' for Inactive)
    1  A    between atoms: C_4  and  C_13
    2  A    between atoms: C_7  and  C_15
    3  A    between atoms: C_8  and  C_12
    4  A    between atoms: C_8  and  C_13
    5  A    between atoms: C_13  and  C_27
    6  A    between atoms: C_27  and  C_30
                            x       y       z     vdW  Elec       q    Type
                         _______ _______ _______ _____ _____    ______ ____

>  <TORSDO>
F 6

$$$$
=
 OpenBabel11052417143D

 30 34  0  0  1  0  0  0  0  0999 V2000
  193.3480  172.9820  144.9780 C   0  0  0  0  0  3  0  0  0  0  0  0
  194.4860  170.8450  145.6840 C   0  0  2  0  0  3  0  0  0  0  0  0
  196.8170  175.0110  144.1560 N   0  0  0  0  0  2  0  0  0  0  0  0
  193.3570  174.3200  144.5460 C   0  0  0  0  0  0  0  0  0  0  0  0
  196.1950  176.1720  143.8300 C   0  0  0  0  0  0  0  0  0  0  0  0
  195.8350  170.1200  145.6800 C   0  0  0  0  0  2  0  0  0  0  0  0
  193.5250  170.0480  144.9370 N   0  0  0  0  0  1  0  0  0  0  0  0
  195.7710  174.2160  144.4510 C   0  0  0  0  0  0  0  0  0  0  0  0
  196.9640  171.0550  146.0900 C   0  0  0  0  0  2  0  0  0  0  0  0
  194.5500  172.2520  145.1300 C   0  0  0  0  0  0  0  0  0  0  0  0
  194.6020  174.9040  144.2980 C   0  0  0  0  0  0  0  0  0  0  0  0
  196.8190  177.2080  143.4820 O   0  0  0  0  0  0  0  0  0  0  0  0
  194.8780  176.1230  143.9120 O   0  0  0  0  0  0  0  0  0  0  0  0
  197.0940  172.1640  145.0560 C   0  0  0  0  0  2  0  0  0  0  0  0
  195.7940  172.8910  144.8860 C   0  0  0  0  0  0  0  0  0  0  0  0
  192.0640  175.0790  144.4540 C   0  0  1  0  0  3  0  0  0  0  0  0
  191.9750  177.4790  144.4890 O   0  0  0  0  0  1  0  0  0  0  0  0
  192.0530  176.3590  145.3240 C   0  0  1  0  0  3  0  0  0  0  0  0
  189.6100  176.8240  145.6510 C   0  0  0  0  0  2  0  0  0  0  0  0
  190.5490  174.9840  146.8680 C   0  0  0  0  0  2  0  0  0  0  0  0
  190.8850  176.3630  146.3260 C   0  0  0  0  0  3  0  0  0  0  0  0
  188.4860  176.2210  146.4660 C   0  0  0  0  0  2  0  0  0  0  0  0
  189.0520  174.9740  147.1200 C   0  0  0  0  0  2  0  0  0  0  0  0
  191.7190  175.3540  142.9910 C   0  0  0  0  0  2  0  0  0  0  0  0
  189.4820  174.7180  142.1440 C   0  0  1  0  0  3  0  0  0  0  0  0
  189.7920  173.8660  143.3600 C   0  0  0  0  0  2  0  0  0  0  0  0
  190.8970  174.2310  142.3920 C   0  0  2  0  0  3  0  0  0  0  0  0
  188.2960  174.6660  140.0800 O   0  0  0  0  0  1  0  0  0  0  0  0
  188.8340  173.8550  141.0790 C   0  0  2  0  0  3  0  0  0  0  0  0
  187.7290  173.0260  141.6940 C   0  0  0  0  0  1  0  0  0  0  0  0
  1 10  1  0  0  0  0
  2  7  1  6  0  0  0
  3  8  1  0  0  0  0
  4  1  2  0  0  0  0
  5 13  1  0  0  0  0
  5  3  1  0  0  0  0
  6  2  1  0  0  0  0
  6  9  1  0  0  0  0
  8 15  1  0  0  0  0
 10  2  1  0  0  0  0
 11  8  2  0  0  0  0
 11  4  1  0  0  0  0
 12  5  2  0  0  0  0
 13 11  1  0  0  0  0
 14  9  1  0  0  0  0
 15 14  1  0  0  0  0
 15 10  2  0  0  0  0
 16 24  1  6  0  0  0
 16  4  1  0  0  0  0
 16 18  1  0  0  0  0
 18 17  1  6  0  0  0
 18 21  1  0  0  0  0
 19 21  1  0  0  0  0
 19 22  1  0  0  0  0
 20 23  1  0  0  0  0
 21 20  1  0  0  0  0
 22 23  1  0  0  0  0
 25 29  1  6  0  0  0
 25 27  1  0  0  0  0
 25 26  1  0  0  0  0
 27 24  1  1  0  0  0
 27 26  1  0  0  0  0
 28 29  1  0  0  0  0
 29 30  1  1  0  0  0
M  END
>  <MODEL>
9

>  <REMARK>
 VINA RESULT:      -6.7      4.076      7.678
  Name = 
  6 active torsions:
  status: ('A' for Active; 'I' for Inactive)
    1  A    between atoms: C_4  and  C_13
    2  A    between atoms: C_7  and  C_15
    3  A    between atoms: C_8  and  C_12
    4  A    between atoms: C_8  and  C_13
    5  A    between atoms: C_13  and  C_27
    6  A    between atoms: C_27  and  C_30
                            x       y       z     vdW  Elec       q    Type
                         _______ _______ _______ _____ _____    ______ ____

>  <TORSDO>
F 6

$$$$
