=
 OpenBabel11052417503D

 31 34  0  0  1  0  0  0  0  0999 V2000
  185.5550  177.7950  140.7180 C   0  0  0  0  0  0  0  0  0  0  0  0
  187.3680  176.4920  143.7360 C   0  0  0  0  0  0  0  0  0  0  0  0
  186.6360  177.0690  144.9170 C   0  0  0  0  0  0  0  0  0  0  0  0
  184.6500  178.0260  145.9570 C   0  0  0  0  0  3  0  0  0  0  0  0
  186.9880  176.7370  142.3860 C   0  0  0  0  0  0  0  0  0  0  0  0
  186.2810  177.1890  139.6930 C   0  0  0  0  0  3  0  0  0  0  0  0
  185.3080  177.5220  144.8330 C   0  0  0  0  0  3  0  0  0  0  0  0
  189.2380  175.1090  142.9180 C   0  0  0  0  0  0  0  0  0  0  0  0
  184.2010  178.8360  140.3350 Cl  0  0  0  0  0  0  0  0  0  0  0  0
  188.6840  176.6170  146.3080 C   0  0  0  0  0  2  0  0  0  0  0  0
  185.3080  178.0800  147.1870 C   0  0  0  0  0  0  0  0  0  0  0  0
  188.8250  175.3460  141.6100 C   0  0  0  0  0  3  0  0  0  0  0  0
  188.5140  175.6870  143.9930 C   0  0  0  0  0  0  0  0  0  0  0  0
  185.9070  177.5710  142.0510 C   0  0  0  0  0  3  0  0  0  0  0  0
  184.6710  178.5740  148.2750 F   0  0  0  0  0  0  0  0  0  0  0  0
  187.7240  176.1460  141.3340 C   0  0  0  0  0  0  0  0  0  0  0  0
  187.3650  176.3670  140.0010 C   0  0  0  0  0  3  0  0  0  0  0  0
  188.8850  175.3930  145.4240 C   0  0  0  0  0  2  0  0  0  0  0  0
  187.2780  177.1030  146.1740 C   0  0  0  0  0  0  0  0  0  0  0  0
  186.6200  177.6180  147.2960 C   0  0  0  0  0  3  0  0  0  0  0  0
  190.3970  174.2740  143.0830 N   0  0  0  0  0  2  0  0  0  0  0  0
  191.6110  174.2930  142.2820 C   0  0  0  0  0  2  0  0  0  0  0  0
  193.3490  173.1490  143.9800 S   0  0  0  0  0  0  0  0  0  0  0  0
  192.7950  174.4620  143.1670 C   0  0  0  0  0  0  0  0  0  0  0  0
  193.2020  175.7940  143.5170 N   0  0  0  0  0  2  0  0  0  0  0  0
  191.7490  177.6290  144.1110 C   0  0  0  0  0  2  0  0  0  0  0  0
  192.5960  176.6730  144.4770 C   0  0  0  0  0  0  0  0  0  0  0  0
  192.7320  176.3540  145.9280 C   0  0  0  0  0  2  0  0  0  0  0  0
  194.1340  176.6650  146.4270 C   0  0  2  0  0  3  0  0  0  0  0  0
  194.6870  177.7050  145.6790 O   0  0  0  0  0  1  0  0  0  0  0  0
  195.0020  175.4320  146.2880 C   0  0  0  0  0  1  0  0  0  0  0  0
  1 14  1  0  0  0  0
  2 13  2  0  0  0  0
  2  3  1  0  0  0  0
  3 19  1  0  0  0  0
  4 11  2  0  0  0  0
  5  2  1  0  0  0  0
  6 17  1  0  0  0  0
  6  1  2  0  0  0  0
  7  3  2  0  0  0  0
  7  4  1  0  0  0  0
  8 21  1  0  0  0  0
  8 13  1  0  0  0  0
  9  1  1  0  0  0  0
 11 20  1  0  0  0  0
 11 15  1  0  0  0  0
 12  8  2  0  0  0  0
 13 18  1  0  0  0  0
 14  5  2  0  0  0  0
 16 12  1  0  0  0  0
 16  5  1  0  0  0  0
 17 16  2  0  0  0  0
 18 10  1  0  0  0  0
 19 10  1  0  0  0  0
 19 20  2  0  0  0  0
 22 21  1  0  0  0  0
 22 24  1  0  0  0  0
 24 25  1  0  0  0  0
 24 23  2  0  0  0  0
 25 27  1  0  0  0  0
 26 27  2  0  0  0  0
 27 28  1  0  0  0  0
 28 29  1  0  0  0  0
 29 31  1  6  0  0  0
 30 29  1  0  0  0  0
M  END
>  <MODEL>
1

>  <REMARK>
 VINA RESULT:      -7.5      0.000      0.000
  Name = 
  7 active torsions:
  status: ('A' for Active; 'I' for Inactive)
    1  A    between atoms: C_1  and  C_24
    2  A    between atoms: N_3  and  C_19
    3  A    between atoms: N_3  and  C_22
    4  A    between atoms: C_9  and  C_22
    5  A    between atoms: C_9  and  N_23
    6  A    between atoms: C_15  and  N_23
    7  A    between atoms: C_19  and  C_24
                            x       y       z     vdW  Elec       q    Type
                         _______ _______ _______ _____ _____    ______ ____

>  <TORSDO>
F 7

$$$$
=
 OpenBabel11052417503D

 31 34  0  0  1  0  0  0  0  0999 V2000
  187.1440  176.4940  140.8390 C   0  0  0  0  0  0  0  0  0  0  0  0
  188.3000  175.7320  144.3270 C   0  0  0  0  0  0  0  0  0  0  0  0
  187.5790  176.7170  145.2070 C   0  0  0  0  0  0  0  0  0  0  0  0
  185.7340  178.2440  145.6620 C   0  0  0  0  0  3  0  0  0  0  0  0
  188.1310  175.6770  142.9150 C   0  0  0  0  0  0  0  0  0  0  0  0
  187.8360  175.5240  140.1140 C   0  0  0  0  0  3  0  0  0  0  0  0
  186.3930  177.3560  144.8080 C   0  0  0  0  0  3  0  0  0  0  0  0
  189.9190  173.8790  144.1680 C   0  0  0  0  0  0  0  0  0  0  0  0
  186.0880  177.6170  140.0100 Cl  0  0  0  0  0  0  0  0  0  0  0  0
  189.3210  176.2960  146.9750 C   0  0  0  0  0  2  0  0  0  0  0  0
  186.2490  178.5030  146.9330 C   0  0  0  0  0  0  0  0  0  0  0  0
  189.7110  173.8330  142.7920 C   0  0  0  0  0  3  0  0  0  0  0  0
  189.2180  174.8360  144.9470 C   0  0  0  0  0  0  0  0  0  0  0  0
  187.2930  176.5700  142.2250 C   0  0  0  0  0  3  0  0  0  0  0  0
  185.6140  179.3680  147.7590 F   0  0  0  0  0  0  0  0  0  0  0  0
  188.8400  174.7120  142.1630 C   0  0  0  0  0  0  0  0  0  0  0  0
  188.6840  174.6350  140.7760 C   0  0  0  0  0  3  0  0  0  0  0  0
  189.3580  174.8670  146.4470 C   0  0  0  0  0  2  0  0  0  0  0  0
  188.0710  176.9670  146.5060 C   0  0  0  0  0  0  0  0  0  0  0  0
  187.4160  177.8640  147.3560 C   0  0  0  0  0  3  0  0  0  0  0  0
  190.8520  172.9280  144.7070 N   0  0  0  0  0  2  0  0  0  0  0  0
  192.1740  172.6070  144.1900 C   0  0  0  0  0  2  0  0  0  0  0  0
  194.4320  172.0000  145.5110 S   0  0  0  0  0  0  0  0  0  0  0  0
  193.2130  173.0410  145.1610 C   0  0  0  0  0  0  0  0  0  0  0  0
  192.9470  174.1930  145.9770 N   0  0  0  0  0  2  0  0  0  0  0  0
  194.9230  175.5700  146.1470 C   0  0  0  0  0  2  0  0  0  0  0  0
  193.6140  175.4640  145.9440 C   0  0  0  0  0  0  0  0  0  0  0  0
  192.8690  176.6530  145.4390 C   0  0  0  0  0  2  0  0  0  0  0  0
  192.3570  176.4170  144.0260 C   0  0  2  0  0  3  0  0  0  0  0  0
  193.4280  176.3510  143.1350 O   0  0  0  0  0  1  0  0  0  0  0  0
  191.4410  177.5550  143.6260 C   0  0  0  0  0  1  0  0  0  0  0  0
  1 14  1  0  0  0  0
  2 13  2  0  0  0  0
  2  3  1  0  0  0  0
  3 19  1  0  0  0  0
  4 11  2  0  0  0  0
  5  2  1  0  0  0  0
  6 17  1  0  0  0  0
  6  1  2  0  0  0  0
  7  3  2  0  0  0  0
  7  4  1  0  0  0  0
  8 21  1  0  0  0  0
  8 13  1  0  0  0  0
  9  1  1  0  0  0  0
 11 20  1  0  0  0  0
 11 15  1  0  0  0  0
 12  8  2  0  0  0  0
 13 18  1  0  0  0  0
 14  5  2  0  0  0  0
 16 12  1  0  0  0  0
 16  5  1  0  0  0  0
 17 16  2  0  0  0  0
 18 10  1  0  0  0  0
 19 10  1  0  0  0  0
 19 20  2  0  0  0  0
 22 21  1  0  0  0  0
 22 24  1  0  0  0  0
 24 23  2  0  0  0  0
 24 25  1  0  0  0  0
 27 25  1  0  0  0  0
 27 26  2  0  0  0  0
 28 27  1  0  0  0  0
 29 31  1  6  0  0  0
 29 28  1  0  0  0  0
 30 29  1  0  0  0  0
M  END
>  <MODEL>
2

>  <REMARK>
 VINA RESULT:      -7.5      1.482      2.199
  Name = 
  7 active torsions:
  status: ('A' for Active; 'I' for Inactive)
    1  A    between atoms: C_1  and  C_24
    2  A    between atoms: N_3  and  C_19
    3  A    between atoms: N_3  and  C_22
    4  A    between atoms: C_9  and  C_22
    5  A    between atoms: C_9  and  N_23
    6  A    between atoms: C_15  and  N_23
    7  A    between atoms: C_19  and  C_24
                            x       y       z     vdW  Elec       q    Type
                         _______ _______ _______ _____ _____    ______ ____

>  <TORSDO>
F 7

$$$$
=
 OpenBabel11052417503D

 31 34  0  0  1  0  0  0  0  0999 V2000
  185.8300  177.9650  141.8540 C   0  0  0  0  0  0  0  0  0  0  0  0
  188.3480  175.4300  143.0040 C   0  0  0  0  0  0  0  0  0  0  0  0
  188.5340  174.5000  141.8370 C   0  0  0  0  0  0  0  0  0  0  0  0
  188.4320  173.9920  139.4540 C   0  0  0  0  0  3  0  0  0  0  0  0
  187.4710  176.5510  142.9770 C   0  0  0  0  0  0  0  0  0  0  0  0
  185.7490  178.7850  142.9790 C   0  0  0  0  0  3  0  0  0  0  0  0
  188.2200  174.8720  140.5190 C   0  0  0  0  0  3  0  0  0  0  0  0
  188.9370  175.9960  145.3310 C   0  0  0  0  0  0  0  0  0  0  0  0
  184.8620  178.3220  140.4400 Cl  0  0  0  0  0  0  0  0  0  0  0  0
  189.4640  172.7980  143.4410 C   0  0  0  0  0  2  0  0  0  0  0  0
  188.9680  172.7260  139.6920 C   0  0  0  0  0  0  0  0  0  0  0  0
  188.0920  177.1000  145.2630 C   0  0  0  0  0  3  0  0  0  0  0  0
  189.0660  175.1470  144.2010 C   0  0  0  0  0  0  0  0  0  0  0  0
  186.6810  176.8580  141.8560 C   0  0  0  0  0  3  0  0  0  0  0  0
  189.1690  171.8700  138.6610 F   0  0  0  0  0  0  0  0  0  0  0  0
  187.3640  177.3830  144.1160 C   0  0  0  0  0  0  0  0  0  0  0  0
  186.5140  178.4930  144.1090 C   0  0  0  0  0  3  0  0  0  0  0  0
  190.0280  173.9870  144.2090 C   0  0  0  0  0  2  0  0  0  0  0  0
  189.1020  173.2260  142.0560 C   0  0  0  0  0  0  0  0  0  0  0  0
  189.3040  172.3430  140.9910 C   0  0  0  0  0  3  0  0  0  0  0  0
  189.6330  175.7960  146.5730 N   0  0  0  0  0  2  0  0  0  0  0  0
  190.8430  176.4720  147.0170 C   0  0  0  0  0  2  0  0  0  0  0  0
  192.8930  174.8070  146.5320 S   0  0  0  0  0  0  0  0  0  0  0  0
  191.9780  176.1070  146.1280 C   0  0  0  0  0  0  0  0  0  0  0  0
  192.4170  177.0650  145.1520 N   0  0  0  0  0  2  0  0  0  0  0  0
  191.1460  178.4880  143.6720 C   0  0  0  0  0  2  0  0  0  0  0  0
  191.8170  177.3600  143.8820 C   0  0  0  0  0  0  0  0  0  0  0  0
  192.1550  176.5000  142.7100 C   0  0  0  0  0  2  0  0  0  0  0  0
  193.5310  175.8720  142.8730 C   0  0  2  0  0  3  0  0  0  0  0  0
  194.4020  176.3750  141.9060 O   0  0  0  0  0  1  0  0  0  0  0  0
  193.4200  174.3700  142.7160 C   0  0  0  0  0  1  0  0  0  0  0  0
  1 14  2  0  0  0  0
  1  6  1  0  0  0  0
  2 13  1  0  0  0  0
  3 19  1  0  0  0  0
  3  2  1  0  0  0  0
  4 11  2  0  0  0  0
  4  7  1  0  0  0  0
  5  2  2  0  0  0  0
  5 16  1  0  0  0  0
  6 17  2  0  0  0  0
  7  3  2  0  0  0  0
  8 21  1  0  0  0  0
  9  1  1  0  0  0  0
 10 18  1  0  0  0  0
 11 20  1  0  0  0  0
 12  8  1  0  0  0  0
 13 18  1  0  0  0  0
 13  8  2  0  0  0  0
 14  5  1  0  0  0  0
 15 11  1  0  0  0  0
 16 12  2  0  0  0  0
 17 16  1  0  0  0  0
 19 10  1  0  0  0  0
 20 19  2  0  0  0  0
 21 22  1  0  0  0  0
 24 23  2  0  0  0  0
 24 22  1  0  0  0  0
 25 24  1  0  0  0  0
 26 27  2  0  0  0  0
 27 25  1  0  0  0  0
 28 29  1  0  0  0  0
 28 27  1  0  0  0  0
 29 31  1  6  0  0  0
 30 29  1  0  0  0  0
M  END
>  <MODEL>
3

>  <REMARK>
 VINA RESULT:      -7.3      2.963      4.838
  Name = 
  7 active torsions:
  status: ('A' for Active; 'I' for Inactive)
    1  A    between atoms: C_1  and  C_24
    2  A    between atoms: N_3  and  C_19
    3  A    between atoms: N_3  and  C_22
    4  A    between atoms: C_9  and  C_22
    5  A    between atoms: C_9  and  N_23
    6  A    between atoms: C_15  and  N_23
    7  A    between atoms: C_19  and  C_24
                            x       y       z     vdW  Elec       q    Type
                         _______ _______ _______ _____ _____    ______ ____

>  <TORSDO>
F 7

$$$$
=
 OpenBabel11052417503D

 31 34  0  0  1  0  0  0  0  0999 V2000
  185.0660  178.0740  146.0630 C   0  0  0  0  0  0  0  0  0  0  0  0
  187.7370  176.3460  144.0700 C   0  0  0  0  0  0  0  0  0  0  0  0
  187.3750  176.5870  142.6300 C   0  0  0  0  0  0  0  0  0  0  0  0
  186.2530  177.8610  140.8790 C   0  0  0  0  0  3  0  0  0  0  0  0
  186.9740  176.8480  145.1610 C   0  0  0  0  0  0  0  0  0  0  0  0
  185.5020  177.8190  147.3630 C   0  0  0  0  0  3  0  0  0  0  0  0
  186.5460  177.6490  142.2290 C   0  0  0  0  0  3  0  0  0  0  0  0
  189.2780  175.2930  145.6810 C   0  0  0  0  0  0  0  0  0  0  0  0
  183.6050  178.9980  145.7950 Cl  0  0  0  0  0  0  0  0  0  0  0  0
  188.8330  174.6300  142.0150 C   0  0  0  0  0  2  0  0  0  0  0  0
  186.7910  177.0170  139.9070 C   0  0  0  0  0  0  0  0  0  0  0  0
  188.5270  175.8220  146.7260 C   0  0  0  0  0  3  0  0  0  0  0  0
  188.8840  175.5460  144.3410 C   0  0  0  0  0  0  0  0  0  0  0  0
  185.7950  177.5910  144.9740 C   0  0  0  0  0  3  0  0  0  0  0  0
  186.5020  177.2190  138.5990 F   0  0  0  0  0  0  0  0  0  0  0  0
  187.3910  176.5840  146.4860 C   0  0  0  0  0  0  0  0  0  0  0  0
  186.6620  177.0740  147.5740 C   0  0  0  0  0  3  0  0  0  0  0  0
  189.7140  175.0560  143.1830 C   0  0  0  0  0  2  0  0  0  0  0  0
  187.9340  175.7600  141.6320 C   0  0  0  0  0  0  0  0  0  0  0  0
  187.6320  175.9680  140.2820 C   0  0  0  0  0  3  0  0  0  0  0  0
  190.4270  174.5110  146.0490 N   0  0  0  0  0  2  0  0  0  0  0  0
  191.7440  175.0090  146.4160 C   0  0  0  0  0  2  0  0  0  0  0  0
  193.3500  173.2650  145.1530 S   0  0  0  0  0  0  0  0  0  0  0  0
  192.7020  174.7650  145.3040 C   0  0  0  0  0  0  0  0  0  0  0  0
  193.2540  175.8990  144.6170 N   0  0  0  0  0  2  0  0  0  0  0  0
  194.6320  177.2720  146.0480 C   0  0  0  0  0  2  0  0  0  0  0  0
  194.4740  176.5960  144.9150 C   0  0  0  0  0  0  0  0  0  0  0  0
  195.6660  176.3590  144.0490 C   0  0  0  0  0  2  0  0  0  0  0  0
  195.2570  175.7830  142.7020 C   0  0  2  0  0  3  0  0  0  0  0  0
  195.7080  174.4670  142.5890 O   0  0  0  0  0  1  0  0  0  0  0  0
  195.8640  176.6170  141.5940 C   0  0  0  0  0  1  0  0  0  0  0  0
  1  6  1  0  0  0  0
  2 13  2  0  0  0  0
  2  5  1  0  0  0  0
  3  2  1  0  0  0  0
  4  7  2  0  0  0  0
  5 16  2  0  0  0  0
  6 17  2  0  0  0  0
  7  3  1  0  0  0  0
  8 21  1  0  0  0  0
  8 12  2  0  0  0  0
  9  1  1  0  0  0  0
 10 18  1  0  0  0  0
 11 20  2  0  0  0  0
 11  4  1  0  0  0  0
 13  8  1  0  0  0  0
 14  5  1  0  0  0  0
 14  1  2  0  0  0  0
 15 11  1  0  0  0  0
 16 12  1  0  0  0  0
 16 17  1  0  0  0  0
 18 13  1  0  0  0  0
 19 10  1  0  0  0  0
 19  3  2  0  0  0  0
 20 19  1  0  0  0  0
 21 22  1  0  0  0  0
 23 24  2  0  0  0  0
 24 22  1  0  0  0  0
 25 27  1  0  0  0  0
 25 24  1  0  0  0  0
 27 26  2  0  0  0  0
 28 27  1  0  0  0  0
 29 31  1  6  0  0  0
 29 28  1  0  0  0  0
 30 29  1  0  0  0  0
M  END
>  <MODEL>
4

>  <REMARK>
 VINA RESULT:      -7.3      2.589      4.683
  Name = 
  7 active torsions:
  status: ('A' for Active; 'I' for Inactive)
    1  A    between atoms: C_1  and  C_24
    2  A    between atoms: N_3  and  C_19
    3  A    between atoms: N_3  and  C_22
    4  A    between atoms: C_9  and  C_22
    5  A    between atoms: C_9  and  N_23
    6  A    between atoms: C_15  and  N_23
    7  A    between atoms: C_19  and  C_24
                            x       y       z     vdW  Elec       q    Type
                         _______ _______ _______ _____ _____    ______ ____

>  <TORSDO>
F 7

$$$$
=
 OpenBabel11052417503D

 31 34  0  0  1  0  0  0  0  0999 V2000
  191.4240  176.8540  147.7660 C   0  0  0  0  0  0  0  0  0  0  0  0
  188.7160  176.6830  145.1730 C   0  0  0  0  0  0  0  0  0  0  0  0
  187.4790  177.1940  145.8580 C   0  0  0  0  0  0  0  0  0  0  0  0
  186.3640  178.4920  147.5950 C   0  0  0  0  0  3  0  0  0  0  0  0
  189.9830  176.5930  145.8140 C   0  0  0  0  0  0  0  0  0  0  0  0
  192.5180  176.3920  147.0350 C   0  0  0  0  0  3  0  0  0  0  0  0
  187.5330  178.0110  147.0000 C   0  0  0  0  0  3  0  0  0  0  0  0
  189.7300  175.7560  143.1240 C   0  0  0  0  0  0  0  0  0  0  0  0
  191.6220  177.3110  149.4440 Cl  0  0  0  0  0  0  0  0  0  0  0  0
  186.1140  176.0480  144.0810 C   0  0  0  0  0  2  0  0  0  0  0  0
  185.1200  178.1690  147.0520 C   0  0  0  0  0  0  0  0  0  0  0  0
  190.9610  175.7060  143.7720 C   0  0  0  0  0  3  0  0  0  0  0  0
  188.5940  176.2400  143.8240 C   0  0  0  0  0  0  0  0  0  0  0  0
  190.1690  176.9500  147.1610 C   0  0  0  0  0  3  0  0  0  0  0  0
  183.9860  178.6300  147.6310 F   0  0  0  0  0  0  0  0  0  0  0  0
  191.1000  176.1100  145.0930 C   0  0  0  0  0  0  0  0  0  0  0  0
  192.3560  176.0200  145.7010 C   0  0  0  0  0  3  0  0  0  0  0  0
  187.2610  176.3800  143.1350 C   0  0  0  0  0  2  0  0  0  0  0  0
  186.2140  176.9000  145.3040 C   0  0  0  0  0  0  0  0  0  0  0  0
  185.0440  177.3750  145.9070 C   0  0  0  0  0  3  0  0  0  0  0  0
  189.7030  175.3020  141.7610 N   0  0  0  0  0  2  0  0  0  0  0  0
  189.2600  174.0030  141.2780 C   0  0  0  0  0  2  0  0  0  0  0  0
  191.4780  172.8930  140.2480 S   0  0  0  0  0  0  0  0  0  0  0  0
  190.3530  173.0070  141.4370 C   0  0  0  0  0  0  0  0  0  0  0  0
  190.2120  171.9910  142.4420 N   0  0  0  0  0  2  0  0  0  0  0  0
  189.7610  172.3840  144.7820 C   0  0  0  0  0  2  0  0  0  0  0  0
  190.6150  172.0550  143.8190 C   0  0  0  0  0  0  0  0  0  0  0  0
  191.9510  171.5130  144.2010 C   0  0  0  0  0  2  0  0  0  0  0  0
  192.9090  172.6330  144.5790 C   0  0  2  0  0  3  0  0  0  0  0  0
  193.4540  173.2020  143.4270 O   0  0  0  0  0  1  0  0  0  0  0  0
  194.0230  172.0740  145.4380 C   0  0  0  0  0  1  0  0  0  0  0  0
  1  9  1  0  0  0  0
  2  5  1  0  0  0  0
  2  3  1  0  0  0  0
  3  7  1  0  0  0  0
  5 14  2  0  0  0  0
  6  1  2  0  0  0  0
  7  4  2  0  0  0  0
  8 12  2  0  0  0  0
  8 13  1  0  0  0  0
 10 19  1  0  0  0  0
 11  4  1  0  0  0  0
 11 15  1  0  0  0  0
 12 16  1  0  0  0  0
 13  2  2  0  0  0  0
 14  1  1  0  0  0  0
 16 17  2  0  0  0  0
 16  5  1  0  0  0  0
 17  6  1  0  0  0  0
 18 13  1  0  0  0  0
 18 10  1  0  0  0  0
 19  3  2  0  0  0  0
 19 20  1  0  0  0  0
 20 11  2  0  0  0  0
 21  8  1  0  0  0  0
 22 24  1  0  0  0  0
 22 21  1  0  0  0  0
 23 24  2  0  0  0  0
 24 25  1  0  0  0  0
 25 27  1  0  0  0  0
 27 28  1  0  0  0  0
 27 26  2  0  0  0  0
 28 29  1  0  0  0  0
 29 31  1  1  0  0  0
 30 29  1  0  0  0  0
M  END
>  <MODEL>
5

>  <REMARK>
 VINA RESULT:      -7.2      3.022      4.871
  Name = 
  7 active torsions:
  status: ('A' for Active; 'I' for Inactive)
    1  A    between atoms: C_1  and  C_24
    2  A    between atoms: N_3  and  C_19
    3  A    between atoms: N_3  and  C_22
    4  A    between atoms: C_9  and  C_22
    5  A    between atoms: C_9  and  N_23
    6  A    between atoms: C_15  and  N_23
    7  A    between atoms: C_19  and  C_24
                            x       y       z     vdW  Elec       q    Type
                         _______ _______ _______ _____ _____    ______ ____

>  <TORSDO>
F 7

$$$$
=
 OpenBabel11052417503D

 31 34  0  0  1  0  0  0  0  0999 V2000
  184.8850  178.1680  146.0520 C   0  0  0  0  0  0  0  0  0  0  0  0
  187.6960  176.4830  144.2220 C   0  0  0  0  0  0  0  0  0  0  0  0
  187.3940  176.6830  142.7620 C   0  0  0  0  0  0  0  0  0  0  0  0
  186.3170  177.8860  140.9340 C   0  0  0  0  0  3  0  0  0  0  0  0
  186.8690  176.9840  145.2660 C   0  0  0  0  0  0  0  0  0  0  0  0
  185.2660  177.9540  147.3760 C   0  0  0  0  0  3  0  0  0  0  0  0
  186.5530  177.7100  142.3000 C   0  0  0  0  0  3  0  0  0  0  0  0
  189.1920  175.5120  145.9250 C   0  0  0  0  0  0  0  0  0  0  0  0
  183.4100  179.0410  145.6970 Cl  0  0  0  0  0  0  0  0  0  0  0  0
  188.9370  174.7610  142.2580 C   0  0  0  0  0  2  0  0  0  0  0  0
  186.9250  177.0390  140.0060 C   0  0  0  0  0  0  0  0  0  0  0  0
  188.3770  176.0390  146.9230 C   0  0  0  0  0  3  0  0  0  0  0  0
  188.8520  175.7260  144.5630 C   0  0  0  0  0  0  0  0  0  0  0  0
  185.6780  177.6860  145.0090 C   0  0  0  0  0  3  0  0  0  0  0  0
  186.6920  177.2050  138.6820 F   0  0  0  0  0  0  0  0  0  0  0  0
  187.2310  176.7600  146.6150 C   0  0  0  0  0  0  0  0  0  0  0  0
  186.4370  177.2490  147.6560 C   0  0  0  0  0  3  0  0  0  0  0  0
  189.7500  175.2370  143.4560 C   0  0  0  0  0  2  0  0  0  0  0  0
  188.0240  175.8540  141.8090 C   0  0  0  0  0  0  0  0  0  0  0  0
  187.7790  176.0240  140.4430 C   0  0  0  0  0  3  0  0  0  0  0  0
  190.3450  174.7740  146.3620 N   0  0  0  0  0  2  0  0  0  0  0  0
  191.4720  175.2830  147.1280 C   0  0  0  0  0  2  0  0  0  0  0  0
  192.7540  176.6390  145.1960 S   0  0  0  0  0  0  0  0  0  0  0  0
  192.6700  175.3860  146.2520 C   0  0  0  0  0  0  0  0  0  0  0  0
  193.5340  174.2440  146.1380 N   0  0  0  0  0  2  0  0  0  0  0  0
  192.7300  172.9180  144.2880 C   0  0  0  0  0  2  0  0  0  0  0  0
  193.7450  173.4160  144.9850 C   0  0  0  0  0  0  0  0  0  0  0  0
  195.1220  173.3110  144.4190 C   0  0  0  0  0  2  0  0  0  0  0  0
  196.1600  173.8180  145.4090 C   0  0  2  0  0  3  0  0  0  0  0  0
  197.1320  174.5630  144.7410 O   0  0  0  0  0  1  0  0  0  0  0  0
  196.8160  172.6410  146.0980 C   0  0  0  0  0  1  0  0  0  0  0  0
  1  6  1  0  0  0  0
  2 13  2  0  0  0  0
  2  5  1  0  0  0  0
  3  2  1  0  0  0  0
  4  7  2  0  0  0  0
  5 16  2  0  0  0  0
  6 17  2  0  0  0  0
  7  3  1  0  0  0  0
  8 21  1  0  0  0  0
  8 12  2  0  0  0  0
  9  1  1  0  0  0  0
 10 18  1  0  0  0  0
 11 20  2  0  0  0  0
 11  4  1  0  0  0  0
 13  8  1  0  0  0  0
 14  5  1  0  0  0  0
 14  1  2  0  0  0  0
 15 11  1  0  0  0  0
 16 12  1  0  0  0  0
 16 17  1  0  0  0  0
 18 13  1  0  0  0  0
 19 10  1  0  0  0  0
 19  3  2  0  0  0  0
 20 19  1  0  0  0  0
 21 22  1  0  0  0  0
 23 24  2  0  0  0  0
 24 22  1  0  0  0  0
 25 24  1  0  0  0  0
 26 27  2  0  0  0  0
 27 25  1  0  0  0  0
 28 27  1  0  0  0  0
 28 29  1  0  0  0  0
 29 31  1  6  0  0  0
 30 29  1  0  0  0  0
M  END
>  <MODEL>
6

>  <REMARK>
 VINA RESULT:      -7.2      2.686      4.813
  Name = 
  7 active torsions:
  status: ('A' for Active; 'I' for Inactive)
    1  A    between atoms: C_1  and  C_24
    2  A    between atoms: N_3  and  C_19
    3  A    between atoms: N_3  and  C_22
    4  A    between atoms: C_9  and  C_22
    5  A    between atoms: C_9  and  N_23
    6  A    between atoms: C_15  and  N_23
    7  A    between atoms: C_19  and  C_24
                            x       y       z     vdW  Elec       q    Type
                         _______ _______ _______ _____ _____    ______ ____

>  <TORSDO>
F 7

$$$$
=
 OpenBabel11052417503D

 31 34  0  0  1  0  0  0  0  0999 V2000
  185.1230  177.9250  140.8440 C   0  0  0  0  0  0  0  0  0  0  0  0
  187.2200  176.9540  143.8010 C   0  0  0  0  0  0  0  0  0  0  0  0
  186.4530  177.4300  145.0040 C   0  0  0  0  0  0  0  0  0  0  0  0
  184.3830  178.0890  146.1110 C   0  0  0  0  0  3  0  0  0  0  0  0
  186.7590  177.1200  142.4650 C   0  0  0  0  0  0  0  0  0  0  0  0
  185.8950  177.4220  139.7970 C   0  0  0  0  0  3  0  0  0  0  0  0
  185.0700  177.6750  144.9670 C   0  0  0  0  0  3  0  0  0  0  0  0
  189.2480  175.8580  142.9240 C   0  0  0  0  0  0  0  0  0  0  0  0
  183.6140  178.7440  140.5040 Cl  0  0  0  0  0  0  0  0  0  0  0  0
  188.5950  177.3120  146.3210 C   0  0  0  0  0  2  0  0  0  0  0  0
  185.0700  178.2590  147.3140 C   0  0  0  0  0  0  0  0  0  0  0  0
  188.7560  176.0120  141.6310 C   0  0  0  0  0  3  0  0  0  0  0  0
  188.4840  176.3350  144.0210 C   0  0  0  0  0  0  0  0  0  0  0  0
  185.5530  177.7760  142.1640 C   0  0  0  0  0  3  0  0  0  0  0  0
  184.4060  178.6670  148.4220 F   0  0  0  0  0  0  0  0  0  0  0  0
  187.5380  176.6320  141.3900 C   0  0  0  0  0  0  0  0  0  0  0  0
  187.1010  176.7780  140.0700 C   0  0  0  0  0  3  0  0  0  0  0  0
  188.9470  176.1200  145.4390 C   0  0  0  0  0  2  0  0  0  0  0  0
  187.1270  177.5780  146.2350 C   0  0  0  0  0  0  0  0  0  0  0  0
  186.4400  178.0030  147.3780 C   0  0  0  0  0  3  0  0  0  0  0  0
  190.5250  175.2100  143.0520 N   0  0  0  0  0  2  0  0  0  0  0  0
  190.7770  173.8540  143.5150 C   0  0  0  0  0  2  0  0  0  0  0  0
  192.6930  172.2960  144.5710 S   0  0  0  0  0  0  0  0  0  0  0  0
  192.1410  173.7680  144.1000 C   0  0  0  0  0  0  0  0  0  0  0  0
  192.7850  174.9830  144.5170 N   0  0  0  0  0  2  0  0  0  0  0  0
  192.3240  175.2420  146.8730 C   0  0  0  0  0  2  0  0  0  0  0  0
  193.1620  175.3630  145.8490 C   0  0  0  0  0  0  0  0  0  0  0  0
  194.5940  175.6740  146.1280 C   0  0  0  0  0  2  0  0  0  0  0  0
  195.5160  174.7860  145.3060 C   0  0  2  0  0  3  0  0  0  0  0  0
  196.4480  174.1650  146.1390 O   0  0  0  0  0  1  0  0  0  0  0  0
  196.2450  175.6300  144.2820 C   0  0  0  0  0  1  0  0  0  0  0  0
  1 14  1  0  0  0  0
  2 13  2  0  0  0  0
  2  3  1  0  0  0  0
  3 19  1  0  0  0  0
  4 11  2  0  0  0  0
  5  2  1  0  0  0  0
  6 17  1  0  0  0  0
  6  1  2  0  0  0  0
  7  3  2  0  0  0  0
  7  4  1  0  0  0  0
  8 21  1  0  0  0  0
  8 13  1  0  0  0  0
  9  1  1  0  0  0  0
 11 20  1  0  0  0  0
 11 15  1  0  0  0  0
 12  8  2  0  0  0  0
 13 18  1  0  0  0  0
 14  5  2  0  0  0  0
 16 12  1  0  0  0  0
 16  5  1  0  0  0  0
 17 16  2  0  0  0  0
 18 10  1  0  0  0  0
 19 10  1  0  0  0  0
 19 20  2  0  0  0  0
 21 22  1  0  0  0  0
 22 24  1  0  0  0  0
 24 25  1  0  0  0  0
 24 23  2  0  0  0  0
 25 27  1  0  0  0  0
 27 28  1  0  0  0  0
 27 26  2  0  0  0  0
 29 31  1  6  0  0  0
 29 28  1  0  0  0  0
 29 30  1  0  0  0  0
M  END
>  <MODEL>
7

>  <REMARK>
 VINA RESULT:      -7.1      1.224      1.432
  Name = 
  7 active torsions:
  status: ('A' for Active; 'I' for Inactive)
    1  A    between atoms: C_1  and  C_24
    2  A    between atoms: N_3  and  C_19
    3  A    between atoms: N_3  and  C_22
    4  A    between atoms: C_9  and  C_22
    5  A    between atoms: C_9  and  N_23
    6  A    between atoms: C_15  and  N_23
    7  A    between atoms: C_19  and  C_24
                            x       y       z     vdW  Elec       q    Type
                         _______ _______ _______ _____ _____    ______ ____

>  <TORSDO>
F 7

$$$$
=
 OpenBabel11052417503D

 31 34  0  0  1  0  0  0  0  0999 V2000
  185.6180  177.7620  146.9580 C   0  0  0  0  0  0  0  0  0  0  0  0
  186.7150  177.8720  143.3700 C   0  0  0  0  0  0  0  0  0  0  0  0
  185.4510  178.0520  142.5750 C   0  0  0  0  0  0  0  0  0  0  0  0
  183.1270  178.7570  142.3620 C   0  0  0  0  0  3  0  0  0  0  0  0
  186.7390  177.7910  144.7910 C   0  0  0  0  0  0  0  0  0  0  0  0
  186.8460  177.6240  147.6050 C   0  0  0  0  0  3  0  0  0  0  0  0
  184.2750  178.5770  143.1380 C   0  0  0  0  0  3  0  0  0  0  0  0
  189.1640  177.5850  143.3500 C   0  0  0  0  0  0  0  0  0  0  0  0
  184.1400  177.8320  147.8930 Cl  0  0  0  0  0  0  0  0  0  0  0  0
  186.6890  177.1960  140.5580 C   0  0  0  0  0  2  0  0  0  0  0  0
  183.1380  178.4190  141.0080 C   0  0  0  0  0  0  0  0  0  0  0  0
  189.1570  177.5370  144.7410 C   0  0  0  0  0  3  0  0  0  0  0  0
  187.9390  177.7470  142.6520 C   0  0  0  0  0  0  0  0  0  0  0  0
  185.5670  177.8420  145.5650 C   0  0  0  0  0  3  0  0  0  0  0  0
  182.0230  178.5880  140.2580 F   0  0  0  0  0  0  0  0  0  0  0  0
  187.9740  177.6330  145.4620 C   0  0  0  0  0  0  0  0  0  0  0  0
  188.0220  177.5580  146.8570 C   0  0  0  0  0  3  0  0  0  0  0  0
  187.9140  177.8800  141.1520 C   0  0  0  0  0  2  0  0  0  0  0  0
  185.4540  177.7420  141.1980 C   0  0  0  0  0  0  0  0  0  0  0  0
  184.3010  177.9130  140.4260 C   0  0  0  0  0  3  0  0  0  0  0  0
  190.4460  177.4650  142.7110 N   0  0  0  0  0  2  0  0  0  0  0  0
  191.7530  177.5350  143.3490 C   0  0  0  0  0  2  0  0  0  0  0  0
  193.8370  176.0260  142.5790 S   0  0  0  0  0  0  0  0  0  0  0  0
  192.3910  176.1920  143.3360 C   0  0  0  0  0  0  0  0  0  0  0  0
  191.5930  175.0530  143.6970 N   0  0  0  0  0  2  0  0  0  0  0  0
  190.1280  173.8880  145.2220 C   0  0  0  0  0  2  0  0  0  0  0  0
  191.2070  174.6340  145.0150 C   0  0  0  0  0  0  0  0  0  0  0  0
  192.1640  174.8370  146.1420 C   0  0  0  0  0  2  0  0  0  0  0  0
  192.0130  176.2260  146.7430 C   0  0  2  0  0  3  0  0  0  0  0  0
  193.2690  176.7570  147.0390 O   0  0  0  0  0  1  0  0  0  0  0  0
  191.1950  176.1380  148.0130 C   0  0  0  0  0  1  0  0  0  0  0  0
  1  6  1  0  0  0  0
  1  9  1  0  0  0  0
  2  5  1  0  0  0  0
  3  7  1  0  0  0  0
  3  2  1  0  0  0  0
  4  7  2  0  0  0  0
  5 16  2  0  0  0  0
  5 14  1  0  0  0  0
  8 12  2  0  0  0  0
 10 18  1  0  0  0  0
 10 19  1  0  0  0  0
 11  4  1  0  0  0  0
 12 16  1  0  0  0  0
 13  8  1  0  0  0  0
 13  2  2  0  0  0  0
 14  1  2  0  0  0  0
 15 11  1  0  0  0  0
 16 17  1  0  0  0  0
 17  6  2  0  0  0  0
 18 13  1  0  0  0  0
 19  3  2  0  0  0  0
 20 11  2  0  0  0  0
 20 19  1  0  0  0  0
 21 22  1  0  0  0  0
 21  8  1  0  0  0  0
 23 24  2  0  0  0  0
 24 22  1  0  0  0  0
 24 25  1  0  0  0  0
 25 27  1  0  0  0  0
 27 26  2  0  0  0  0
 27 28  1  0  0  0  0
 28 29  1  0  0  0  0
 29 30  1  0  0  0  0
 29 31  1  1  0  0  0
M  END
>  <MODEL>
8

>  <REMARK>
 VINA RESULT:      -7.1      2.685      4.607
  Name = 
  7 active torsions:
  status: ('A' for Active; 'I' for Inactive)
    1  A    between atoms: C_1  and  C_24
    2  A    between atoms: N_3  and  C_19
    3  A    between atoms: N_3  and  C_22
    4  A    between atoms: C_9  and  C_22
    5  A    between atoms: C_9  and  N_23
    6  A    between atoms: C_15  and  N_23
    7  A    between atoms: C_19  and  C_24
                            x       y       z     vdW  Elec       q    Type
                         _______ _______ _______ _____ _____    ______ ____

>  <TORSDO>
F 7

$$$$
=
 OpenBabel11052417503D

 31 34  0  0  1  0  0  0  0  0999 V2000
  190.3040  173.8560  141.1100 C   0  0  0  0  0  0  0  0  0  0  0  0
  191.0180  175.5140  144.4010 C   0  0  0  0  0  0  0  0  0  0  0  0
  192.4930  175.3270  144.6270 C   0  0  0  0  0  0  0  0  0  0  0  0
  194.7580  174.9260  143.8180 C   0  0  0  0  0  3  0  0  0  0  0  0
  190.3380  175.0340  143.2470 C   0  0  0  0  0  0  0  0  0  0  0  0
  188.9380  174.1050  140.9800 C   0  0  0  0  0  3  0  0  0  0  0  0
  193.3890  175.0660  143.5760 C   0  0  0  0  0  3  0  0  0  0  0  0
  188.8760  176.3920  145.2510 C   0  0  0  0  0  0  0  0  0  0  0  0
  191.1530  172.9650  139.8660 Cl  0  0  0  0  0  0  0  0  0  0  0  0
  192.0980  175.7710  147.0720 C   0  0  0  0  0  2  0  0  0  0  0  0
  195.2540  175.0500  145.1170 C   0  0  0  0  0  0  0  0  0  0  0  0
  188.2460  175.9350  144.0980 C   0  0  0  0  0  3  0  0  0  0  0  0
  190.2700  176.1790  145.4140 C   0  0  0  0  0  0  0  0  0  0  0  0
  190.9950  174.3140  142.2340 C   0  0  0  0  0  3  0  0  0  0  0  0
  196.5810  174.9080  145.3520 F   0  0  0  0  0  0  0  0  0  0  0  0
  188.9490  175.2630  143.1070 C   0  0  0  0  0  0  0  0  0  0  0  0
  188.2620  174.8070  141.9780 C   0  0  0  0  0  3  0  0  0  0  0  0
  191.0020  176.7260  146.6120 C   0  0  0  0  0  2  0  0  0  0  0  0
  193.0150  175.4780  145.9300 C   0  0  0  0  0  0  0  0  0  0  0  0
  194.3840  175.3270  146.1720 C   0  0  0  0  0  3  0  0  0  0  0  0
  188.0450  177.0640  146.2130 N   0  0  0  0  0  2  0  0  0  0  0  0
  186.6670  176.7450  146.5540 C   0  0  0  0  0  2  0  0  0  0  0  0
  185.8030  178.9740  147.7790 S   0  0  0  0  0  0  0  0  0  0  0  0
  185.8340  177.9740  146.4780 C   0  0  0  0  0  0  0  0  0  0  0  0
  184.8620  178.0780  145.4250 N   0  0  0  0  0  2  0  0  0  0  0  0
  185.5040  179.8250  143.8870 C   0  0  0  0  0  2  0  0  0  0  0  0
  185.0580  178.5920  144.0990 C   0  0  0  0  0  0  0  0  0  0  0  0
  184.9880  177.6480  142.9450 C   0  0  0  0  0  2  0  0  0  0  0  0
  185.3220  178.3540  141.6400 C   0  0  2  0  0  3  0  0  0  0  0  0
  184.3300  178.1000  140.6930 O   0  0  0  0  0  1  0  0  0  0  0  0
  186.6520  177.8490  141.1210 C   0  0  0  0  0  1  0  0  0  0  0  0
  1 14  1  0  0  0  0
  2  3  1  0  0  0  0
  2 13  2  0  0  0  0
  3 19  1  0  0  0  0
  4 11  2  0  0  0  0
  5  2  1  0  0  0  0
  6  1  2  0  0  0  0
  6 17  1  0  0  0  0
  7  4  1  0  0  0  0
  7  3  2  0  0  0  0
  8 13  1  0  0  0  0
  8 21  1  0  0  0  0
  9  1  1  0  0  0  0
 11 15  1  0  0  0  0
 11 20  1  0  0  0  0
 12  8  2  0  0  0  0
 13 18  1  0  0  0  0
 14  5  2  0  0  0  0
 16  5  1  0  0  0  0
 16 12  1  0  0  0  0
 17 16  2  0  0  0  0
 18 10  1  0  0  0  0
 19 20  2  0  0  0  0
 19 10  1  0  0  0  0
 21 22  1  0  0  0  0
 24 22  1  0  0  0  0
 24 23  2  0  0  0  0
 25 24  1  0  0  0  0
 26 27  2  0  0  0  0
 27 25  1  0  0  0  0
 28 27  1  0  0  0  0
 29 31  1  6  0  0  0
 29 28  1  0  0  0  0
 30 29  1  0  0  0  0
M  END
>  <MODEL>
9

>  <REMARK>
 VINA RESULT:      -7.1      4.409      7.414
  Name = 
  7 active torsions:
  status: ('A' for Active; 'I' for Inactive)
    1  A    between atoms: C_1  and  C_24
    2  A    between atoms: N_3  and  C_19
    3  A    between atoms: N_3  and  C_22
    4  A    between atoms: C_9  and  C_22
    5  A    between atoms: C_9  and  N_23
    6  A    between atoms: C_15  and  N_23
    7  A    between atoms: C_19  and  C_24
                            x       y       z     vdW  Elec       q    Type
                         _______ _______ _______ _____ _____    ______ ____

>  <TORSDO>
F 7

$$$$
