=
 OpenBabel11052418133D

 28 32  0  0  1  0  0  0  0  0999 V2000
  188.9500  176.9660  143.9280 C   0  0  0  0  0  0  0  0  0  0  0  0
  188.4250  174.2220  139.5240 S   0  0  0  0  0  0  0  0  0  0  0  0
  192.3640  173.2600  144.4590 C   0  0  0  0  0  1  0  0  0  0  0  0
  189.5920  171.9980  140.3740 C   0  0  1  0  0  3  0  0  0  0  0  0
  189.5220  173.8350  141.9900 N   0  0  0  0  0  0  0  0  0  0  0  0
  188.7920  173.1220  140.9320 C   0  0  1  0  0  3  0  0  0  0  0  0
  191.4210  172.1150  141.9850 C   0  0  0  0  0  2  0  0  0  0  0  0
  189.5950  171.8720  139.0560 C   0  0  0  0  0  2  0  0  0  0  0  0
  190.3750  174.9110  144.4490 C   0  0  1  0  0  3  0  0  0  0  0  0
  189.0100  175.0700  142.4320 N   0  0  0  0  0  0  0  0  0  0  0  0
  190.4620  171.1800  141.2630 C   0  0  0  0  0  2  0  0  0  0  0  0
  190.8950  177.0920  145.3990 C   0  0  0  0  0  3  0  0  0  0  0  0
  191.1630  173.8240  143.7650 C   0  0  0  0  0  0  0  0  0  0  0  0
  191.2370  175.8550  145.1730 N   0  0  0  0  0  0  0  0  0  0  0  0
  188.7360  172.8580  138.3490 C   0  0  2  0  0  3  0  0  0  0  0  0
  190.6850  173.2610  142.6390 C   0  0  0  0  0  0  0  0  0  0  0  0
  189.6520  177.6540  144.8320 C   0  0  0  0  0  3  0  0  0  0  0  0
  189.4290  175.6330  143.5230 C   0  0  0  0  0  0  0  0  0  0  0  0
  189.4530  173.3680  137.1130 C   0  0  0  0  0  2  0  0  0  0  0  0
  190.8410  173.8610  137.4740 C   0  0  0  0  0  1  0  0  0  0  0  0
  187.7190  177.5700  143.3290 C   0  0  0  0  0  2  0  0  0  0  0  0
  186.6740  177.7830  144.3710 C   0  0  0  0  0  0  0  0  0  0  0  0
  184.7430  178.1890  146.3560 C   0  0  0  0  0  0  0  0  0  0  0  0
  186.0880  179.0440  144.5320 C   0  0  0  0  0  3  0  0  0  0  0  0
  186.2960  176.7280  145.2090 C   0  0  0  0  0  3  0  0  0  0  0  0
  185.3310  176.9300  146.2010 C   0  0  0  0  0  3  0  0  0  0  0  0
  183.8090  178.3850  147.3170 F   0  0  0  0  0  0  0  0  0  0  0  0
  185.1220  179.2450  145.5240 C   0  0  0  0  0  3  0  0  0  0  0  0
  1 17  2  0  0  0  0
  4  8  1  6  0  0  0
  4  6  1  0  0  0  0
  4 11  1  0  0  0  0
  5 10  1  0  0  0  0
  5 16  1  0  0  0  0
  6  2  1  6  0  0  0
  6  5  1  0  0  0  0
  7 16  1  0  0  0  0
  9 18  1  6  0  0  0
  9 14  1  0  0  0  0
 10 18  2  0  0  0  0
 11  7  1  0  0  0  0
 13  9  1  0  0  0  0
 13  3  1  0  0  0  0
 14 12  2  0  0  0  0
 15 19  1  6  0  0  0
 15  8  1  0  0  0  0
 15  2  1  0  0  0  0
 16 13  2  0  0  0  0
 17 12  1  0  0  0  0
 18  1  1  0  0  0  0
 19 20  1  0  0  0  0
 21  1  1  0  0  0  0
 21 22  1  0  0  0  0
 22 24  2  0  0  0  0
 22 25  1  0  0  0  0
 23 27  1  0  0  0  0
 24 28  1  0  0  0  0
 25 26  2  0  0  0  0
 26 23  1  0  0  0  0
 28 23  2  0  0  0  0
M  END
>  <MODEL>
1

>  <REMARK>
 VINA RESULT:      -7.5      0.000      0.000
  Name = 
  3 active torsions:
  status: ('A' for Active; 'I' for Inactive)
    1  A    between atoms: C_1  and  C_2
    2  A    between atoms: C_2  and  C_3
    3  A    between atoms: C_12  and  C_24
                            x       y       z     vdW  Elec       q    Type
                         _______ _______ _______ _____ _____    ______ ____

>  <TORSDO>
F 3

$$$$
=
 OpenBabel11052418133D

 28 32  0  0  1  0  0  0  0  0999 V2000
  189.7070  175.3340  144.6860 C   0  0  0  0  0  0  0  0  0  0  0  0
  186.2210  177.5710  141.5160 S   0  0  0  0  0  0  0  0  0  0  0  0
  186.0770  176.8810  147.8640 C   0  0  0  0  0  1  0  0  0  0  0  0
  184.9480  178.9850  143.3630 C   0  0  1  0  0  3  0  0  0  0  0  0
  186.7750  177.5790  144.1860 N   0  0  0  0  0  0  0  0  0  0  0  0
  186.3170  178.4630  143.1040 C   0  0  1  0  0  3  0  0  0  0  0  0
  184.7310  178.1170  145.6330 C   0  0  0  0  0  2  0  0  0  0  0  0
  184.1090  178.9750  142.3390 C   0  0  0  0  0  2  0  0  0  0  0  0
  188.1410  176.4440  146.3710 C   0  0  1  0  0  3  0  0  0  0  0  0
  187.9320  176.8070  143.9670 N   0  0  0  0  0  0  0  0  0  0  0  0
  184.5260  179.3370  144.7460 C   0  0  0  0  0  2  0  0  0  0  0  0
  189.3310  174.3890  146.9050 C   0  0  0  0  0  3  0  0  0  0  0  0
  186.7220  176.9300  146.5130 C   0  0  0  0  0  0  0  0  0  0  0  0
  188.4150  175.2650  147.2040 N   0  0  0  0  0  0  0  0  0  0  0  0
  184.7060  178.4890  141.0680 C   0  0  2  0  0  3  0  0  0  0  0  0
  186.1230  177.5530  145.4820 C   0  0  0  0  0  0  0  0  0  0  0  0
  190.0800  174.4720  145.6340 C   0  0  0  0  0  3  0  0  0  0  0  0
  188.5500  176.2110  144.9390 C   0  0  0  0  0  0  0  0  0  0  0  0
  183.7220  177.5820  140.3530 C   0  0  0  0  0  2  0  0  0  0  0  0
  182.2990  178.0360  140.6180 C   0  0  0  0  0  1  0  0  0  0  0  0
  190.4460  175.3720  143.3860 C   0  0  0  0  0  2  0  0  0  0  0  0
  189.7500  174.5460  142.3570 C   0  0  0  0  0  0  0  0  0  0  0  0
  188.4780  173.0020  140.4000 C   0  0  0  0  0  0  0  0  0  0  0  0
  189.8230  173.1490  142.4100 C   0  0  0  0  0  3  0  0  0  0  0  0
  189.0450  175.1690  141.3200 C   0  0  0  0  0  3  0  0  0  0  0  0
  188.4090  174.3970  140.3430 C   0  0  0  0  0  3  0  0  0  0  0  0
  187.8620  172.2560  139.4530 F   0  0  0  0  0  0  0  0  0  0  0  0
  189.1860  172.3790  141.4320 C   0  0  0  0  0  3  0  0  0  0  0  0
  1 18  1  0  0  0  0
  1 17  2  0  0  0  0
  4  8  1  1  0  0  0
  4 11  1  0  0  0  0
  5 16  1  0  0  0  0
  6  2  1  6  0  0  0
  6  4  1  0  0  0  0
  6  5  1  0  0  0  0
  9 18  1  6  0  0  0
  9 13  1  0  0  0  0
  9 14  1  0  0  0  0
 10  5  1  0  0  0  0
 10 18  2  0  0  0  0
 11  7  1  0  0  0  0
 12 14  2  0  0  0  0
 13  3  1  0  0  0  0
 15 19  1  1  0  0  0
 15  2  1  0  0  0  0
 15  8  1  0  0  0  0
 16  7  1  0  0  0  0
 16 13  2  0  0  0  0
 17 12  1  0  0  0  0
 19 20  1  0  0  0  0
 21  1  1  0  0  0  0
 22 24  1  0  0  0  0
 22 21  1  0  0  0  0
 23 28  1  0  0  0  0
 25 22  2  0  0  0  0
 26 23  2  0  0  0  0
 26 25  1  0  0  0  0
 27 23  1  0  0  0  0
 28 24  2  0  0  0  0
M  END
>  <MODEL>
2

>  <REMARK>
 VINA RESULT:      -7.4      3.212      6.884
  Name = 
  3 active torsions:
  status: ('A' for Active; 'I' for Inactive)
    1  A    between atoms: C_1  and  C_2
    2  A    between atoms: C_2  and  C_3
    3  A    between atoms: C_12  and  C_24
                            x       y       z     vdW  Elec       q    Type
                         _______ _______ _______ _____ _____    ______ ____

>  <TORSDO>
F 3

$$$$
=
 OpenBabel11052418133D

 28 32  0  0  1  0  0  0  0  0999 V2000
  190.2300  175.6230  145.3210 C   0  0  0  0  0  0  0  0  0  0  0  0
  187.6670  177.3180  141.1070 S   0  0  0  0  0  0  0  0  0  0  0  0
  185.6670  176.8400  147.1540 C   0  0  0  0  0  1  0  0  0  0  0  0
  185.7550  178.6370  142.3870 C   0  0  1  0  0  3  0  0  0  0  0  0
  187.3780  177.4860  143.8130 N   0  0  0  0  0  0  0  0  0  0  0  0
  187.1830  178.2710  142.5860 C   0  0  1  0  0  3  0  0  0  0  0  0
  184.9460  177.8290  144.5430 C   0  0  0  0  0  2  0  0  0  0  0  0
  185.2730  178.4910  141.1630 C   0  0  0  0  0  2  0  0  0  0  0  0
  188.1210  176.5980  146.3810 C   0  0  1  0  0  3  0  0  0  0  0  0
  188.6190  176.8490  144.0040 N   0  0  0  0  0  0  0  0  0  0  0  0
  184.8980  178.9840  143.5530 C   0  0  0  0  0  2  0  0  0  0  0  0
  189.2950  174.7190  147.3870 C   0  0  0  0  0  3  0  0  0  0  0  0
  186.6840  176.9170  146.0580 C   0  0  0  0  0  0  0  0  0  0  0  0
  188.2470  175.4900  147.3370 N   0  0  0  0  0  0  0  0  0  0  0  0
  186.2750  178.0340  140.1640 C   0  0  2  0  0  3  0  0  0  0  0  0
  186.3680  177.4290  144.8540 C   0  0  0  0  0  0  0  0  0  0  0  0
  190.3830  174.8440  146.3950 C   0  0  0  0  0  3  0  0  0  0  0  0
  188.9680  176.3650  145.1560 C   0  0  0  0  0  0  0  0  0  0  0  0
  185.6540  176.9930  139.2530 C   0  0  0  0  0  2  0  0  0  0  0  0
  186.6850  176.4670  138.2730 C   0  0  0  0  0  1  0  0  0  0  0  0
  191.3230  175.7020  144.3020 C   0  0  0  0  0  2  0  0  0  0  0  0
  192.6400  175.3540  144.9110 C   0  0  0  0  0  0  0  0  0  0  0  0
  195.1300  174.7110  146.0150 C   0  0  0  0  0  0  0  0  0  0  0  0
  193.3350  176.3010  145.6720 C   0  0  0  0  0  3  0  0  0  0  0  0
  193.1960  174.0870  144.6990 C   0  0  0  0  0  3  0  0  0  0  0  0
  194.4390  173.7660  145.2510 C   0  0  0  0  0  3  0  0  0  0  0  0
  196.3340  174.3990  146.5490 F   0  0  0  0  0  0  0  0  0  0  0  0
  194.5790  175.9780  146.2240 C   0  0  0  0  0  3  0  0  0  0  0  0
  1 17  2  0  0  0  0
  4  8  1  1  0  0  0
  4  6  1  0  0  0  0
  4 11  1  0  0  0  0
  5 10  1  0  0  0  0
  5 16  1  0  0  0  0
  6  2  1  6  0  0  0
  6  5  1  0  0  0  0
  7 16  1  0  0  0  0
  9 18  1  6  0  0  0
  9 14  1  0  0  0  0
 10 18  2  0  0  0  0
 11  7  1  0  0  0  0
 13  9  1  0  0  0  0
 13  3  1  0  0  0  0
 14 12  2  0  0  0  0
 15 19  1  6  0  0  0
 15  2  1  0  0  0  0
 15  8  1  0  0  0  0
 16 13  2  0  0  0  0
 17 12  1  0  0  0  0
 18  1  1  0  0  0  0
 20 19  1  0  0  0  0
 21 22  1  0  0  0  0
 21  1  1  0  0  0  0
 22 24  1  0  0  0  0
 23 28  1  0  0  0  0
 23 27  1  0  0  0  0
 24 28  2  0  0  0  0
 25 22  2  0  0  0  0
 25 26  1  0  0  0  0
 26 23  2  0  0  0  0
M  END
>  <MODEL>
3

>  <REMARK>
 VINA RESULT:      -7.3      3.967      6.902
  Name = 
  3 active torsions:
  status: ('A' for Active; 'I' for Inactive)
    1  A    between atoms: C_1  and  C_2
    2  A    between atoms: C_2  and  C_3
    3  A    between atoms: C_12  and  C_24
                            x       y       z     vdW  Elec       q    Type
                         _______ _______ _______ _____ _____    ______ ____

>  <TORSDO>
F 3

$$$$
=
 OpenBabel11052418133D

 28 32  0  0  1  0  0  0  0  0999 V2000
  189.6870  175.6290  146.7250 C   0  0  0  0  0  0  0  0  0  0  0  0
  188.4650  173.6820  142.0440 S   0  0  0  0  0  0  0  0  0  0  0  0
  194.2050  174.5260  144.7150 C   0  0  0  0  0  1  0  0  0  0  0  0
  190.7660  172.4450  141.5850 C   0  0  1  0  0  3  0  0  0  0  0  0
  190.6350  173.6790  143.6950 N   0  0  0  0  0  0  0  0  0  0  0  0
  189.9130  172.8210  142.7450 C   0  0  1  0  0  3  0  0  0  0  0  0
  192.8500  173.3810  142.4420 C   0  0  0  0  0  2  0  0  0  0  0  0
  190.2020  172.5160  140.3900 C   0  0  0  0  0  2  0  0  0  0  0  0
  191.9470  174.7200  145.9590 C   0  0  1  0  0  3  0  0  0  0  0  0
  189.8930  174.3260  144.7020 N   0  0  0  0  0  0  0  0  0  0  0  0
  192.2150  172.1680  141.7760 C   0  0  0  0  0  2  0  0  0  0  0  0
  191.7880  176.6570  147.4240 C   0  0  0  0  0  3  0  0  0  0  0  0
  192.7140  174.3830  144.7070 C   0  0  0  0  0  0  0  0  0  0  0  0
  192.5060  175.8840  146.6600 N   0  0  0  0  0  0  0  0  0  0  0  0
  188.7690  172.9110  140.4150 C   0  0  2  0  0  3  0  0  0  0  0  0
  192.0810  173.7990  143.6720 C   0  0  0  0  0  0  0  0  0  0  0  0
  190.3270  176.4710  147.5400 C   0  0  0  0  0  3  0  0  0  0  0  0
  190.4670  174.8790  145.7250 C   0  0  0  0  0  0  0  0  0  0  0  0
  188.4890  173.8960  139.2950 C   0  0  0  0  0  2  0  0  0  0  0  0
  188.4730  173.1810  137.9580 C   0  0  0  0  0  1  0  0  0  0  0  0
  188.2010  175.4890  146.8240 C   0  0  0  0  0  2  0  0  0  0  0  0
  187.5180  176.6950  146.2750 C   0  0  0  0  0  0  0  0  0  0  0  0
  186.2040  178.9340  145.2280 C   0  0  0  0  0  0  0  0  0  0  0  0
  186.6840  177.4650  147.0940 C   0  0  0  0  0  3  0  0  0  0  0  0
  187.6880  177.0440  144.9300 C   0  0  0  0  0  3  0  0  0  0  0  0
  187.0320  178.1630  144.4070 C   0  0  0  0  0  3  0  0  0  0  0  0
  185.5690  180.0170  144.7220 F   0  0  0  0  0  0  0  0  0  0  0  0
  186.0290  178.5840  146.5700 C   0  0  0  0  0  3  0  0  0  0  0  0
  1 21  1  0  0  0  0
  1 17  2  0  0  0  0
  4  8  1  6  0  0  0
  4 11  1  0  0  0  0
  4  6  1  0  0  0  0
  5 10  1  0  0  0  0
  6  2  1  6  0  0  0
  6  5  1  0  0  0  0
  7 16  1  0  0  0  0
  8 15  1  0  0  0  0
  9 13  1  6  0  0  0
  9 14  1  0  0  0  0
 10 18  2  0  0  0  0
 11  7  1  0  0  0  0
 12 17  1  0  0  0  0
 13  3  1  0  0  0  0
 14 12  2  0  0  0  0
 15 19  1  6  0  0  0
 15  2  1  0  0  0  0
 16  5  1  0  0  0  0
 16 13  2  0  0  0  0
 18  9  1  0  0  0  0
 18  1  1  0  0  0  0
 20 19  1  0  0  0  0
 22 21  1  0  0  0  0
 22 24  1  0  0  0  0
 23 28  1  0  0  0  0
 25 22  2  0  0  0  0
 26 25  1  0  0  0  0
 26 23  2  0  0  0  0
 27 23  1  0  0  0  0
 28 24  2  0  0  0  0
M  END
>  <MODEL>
4

>  <REMARK>
 VINA RESULT:      -7.3      1.773      2.420
  Name = 
  3 active torsions:
  status: ('A' for Active; 'I' for Inactive)
    1  A    between atoms: C_1  and  C_2
    2  A    between atoms: C_2  and  C_3
    3  A    between atoms: C_12  and  C_24
                            x       y       z     vdW  Elec       q    Type
                         _______ _______ _______ _____ _____    ______ ____

>  <TORSDO>
F 3

$$$$
=
 OpenBabel11052418133D

 28 32  0  0  1  0  0  0  0  0999 V2000
  188.4240  176.5710  143.4010 C   0  0  0  0  0  0  0  0  0  0  0  0
  193.4110  176.2940  144.9000 S   0  0  0  0  0  0  0  0  0  0  0  0
  190.2910  172.8410  140.5260 C   0  0  0  0  0  1  0  0  0  0  0  0
  194.3250  174.9850  142.7830 C   0  0  1  0  0  3  0  0  0  0  0  0
  191.9200  175.4400  142.7840 N   0  0  0  0  0  0  0  0  0  0  0  0
  193.2530  175.9630  143.1130 C   0  0  1  0  0  3  0  0  0  0  0  0
  192.9000  173.3700  141.6350 C   0  0  0  0  0  2  0  0  0  0  0  0
  195.2760  174.8220  143.6890 C   0  0  0  0  0  2  0  0  0  0  0  0
  189.3850  174.9890  141.6410 C   0  0  1  0  0  3  0  0  0  0  0  0
  190.7960  176.1330  143.2720 N   0  0  0  0  0  0  0  0  0  0  0  0
  194.2160  174.1320  141.5680 C   0  0  0  0  0  2  0  0  0  0  0  0
  187.0660  174.8260  142.3640 C   0  0  0  0  0  3  0  0  0  0  0  0
  190.5140  174.0130  141.4300 C   0  0  0  0  0  0  0  0  0  0  0  0
  188.0780  174.3240  141.7140 N   0  0  0  0  0  0  0  0  0  0  0  0
  195.1400  175.7040  144.8780 C   0  0  2  0  0  3  0  0  0  0  0  0
  191.7400  174.2980  141.9070 C   0  0  0  0  0  0  0  0  0  0  0  0
  187.2140  176.0550  143.1720 C   0  0  0  0  0  3  0  0  0  0  0  0
  189.6010  175.9030  142.8200 C   0  0  0  0  0  0  0  0  0  0  0  0
  195.4540  174.9170  146.1380 C   0  0  0  0  0  2  0  0  0  0  0  0
  196.4440  173.8100  145.8340 C   0  0  0  0  0  1  0  0  0  0  0  0
  188.5590  177.7880  144.2600 C   0  0  0  0  0  2  0  0  0  0  0  0
  187.3800  177.9320  145.1630 C   0  0  0  0  0  0  0  0  0  0  0  0
  185.1460  178.1720  146.8320 C   0  0  0  0  0  0  0  0  0  0  0  0
  187.3220  177.2150  146.3630 C   0  0  0  0  0  3  0  0  0  0  0  0
  186.3160  178.7640  144.7960 C   0  0  0  0  0  3  0  0  0  0  0  0
  185.2000  178.8850  145.6300 C   0  0  0  0  0  3  0  0  0  0  0  0
  184.0650  178.2900  147.6390 F   0  0  0  0  0  0  0  0  0  0  0  0
  186.2050  177.3370  147.1970 C   0  0  0  0  0  3  0  0  0  0  0  0
  1 21  1  0  0  0  0
  3 13  1  0  0  0  0
  4 11  1  1  0  0  0
  4  6  1  0  0  0  0
  4  8  1  0  0  0  0
  5  6  1  0  0  0  0
  5 10  1  0  0  0  0
  6  2  1  1  0  0  0
  7 16  1  0  0  0  0
  8 15  1  0  0  0  0
  9 13  1  1  0  0  0
  9 14  1  0  0  0  0
  9 18  1  0  0  0  0
 11  7  1  0  0  0  0
 12 17  1  0  0  0  0
 13 16  2  0  0  0  0
 14 12  2  0  0  0  0
 15  2  1  0  0  0  0
 15 19  1  1  0  0  0
 16  5  1  0  0  0  0
 17  1  2  0  0  0  0
 18 10  2  0  0  0  0
 18  1  1  0  0  0  0
 20 19  1  0  0  0  0
 21 22  1  0  0  0  0
 22 24  1  0  0  0  0
 23 28  1  0  0  0  0
 23 27  1  0  0  0  0
 24 28  2  0  0  0  0
 25 22  2  0  0  0  0
 25 26  1  0  0  0  0
 26 23  2  0  0  0  0
M  END
>  <MODEL>
5

>  <REMARK>
 VINA RESULT:      -7.1      2.629      4.910
  Name = 
  3 active torsions:
  status: ('A' for Active; 'I' for Inactive)
    1  A    between atoms: C_1  and  C_2
    2  A    between atoms: C_2  and  C_3
    3  A    between atoms: C_12  and  C_24
                            x       y       z     vdW  Elec       q    Type
                         _______ _______ _______ _____ _____    ______ ____

>  <TORSDO>
F 3

$$$$
=
 OpenBabel11052418133D

 28 32  0  0  1  0  0  0  0  0999 V2000
  189.1440  176.5950  143.8150 C   0  0  0  0  0  0  0  0  0  0  0  0
  189.8460  171.6300  142.3800 S   0  0  0  0  0  0  0  0  0  0  0  0
  194.0520  175.7940  144.7810 C   0  0  0  0  0  1  0  0  0  0  0  0
  192.0980  171.2110  143.7170 C   0  0  1  0  0  3  0  0  0  0  0  0
  191.1690  173.4680  143.8990 N   0  0  0  0  0  0  0  0  0  0  0  0
  190.8630  172.0320  143.8410 C   0  0  1  0  0  3  0  0  0  0  0  0
  193.6900  173.0330  144.0330 C   0  0  0  0  0  2  0  0  0  0  0  0
  192.0640  170.2220  142.8380 C   0  0  0  0  0  2  0  0  0  0  0  0
  191.4920  176.1450  144.7120 C   0  0  1  0  0  3  0  0  0  0  0  0
  190.1050  174.3790  143.7560 N   0  0  0  0  0  0  0  0  0  0  0  0
  193.3390  171.6080  144.4360 C   0  0  0  0  0  2  0  0  0  0  0  0
  190.8170  178.3650  143.9760 C   0  0  0  0  0  3  0  0  0  0  0  0
  192.6870  175.2560  144.4830 C   0  0  0  0  0  0  0  0  0  0  0  0
  191.7580  177.5430  144.3470 N   0  0  0  0  0  0  0  0  0  0  0  0
  190.7550  170.0610  142.1530 C   0  0  2  0  0  3  0  0  0  0  0  0
  192.5050  173.9560  144.1870 C   0  0  0  0  0  0  0  0  0  0  0  0
  189.4280  177.8990  143.7880 C   0  0  0  0  0  3  0  0  0  0  0  0
  190.2360  175.6350  144.0530 C   0  0  0  0  0  0  0  0  0  0  0  0
  190.9780  169.7800  140.6790 C   0  0  0  0  0  2  0  0  0  0  0  0
  191.2010  171.0760  139.9230 C   0  0  0  0  0  1  0  0  0  0  0  0
  187.7390  176.1380  143.5760 C   0  0  0  0  0  2  0  0  0  0  0  0
  186.8090  176.7450  144.5710 C   0  0  0  0  0  0  0  0  0  0  0  0
  185.0360  177.8510  146.4330 C   0  0  0  0  0  0  0  0  0  0  0  0
  187.0160  176.5450  145.9410 C   0  0  0  0  0  3  0  0  0  0  0  0
  185.7100  177.4940  144.1350 C   0  0  0  0  0  3  0  0  0  0  0  0
  184.8240  178.0460  145.0640 C   0  0  0  0  0  3  0  0  0  0  0  0
  184.1780  178.3860  147.3330 F   0  0  0  0  0  0  0  0  0  0  0  0
  186.1300  177.0990  146.8700 C   0  0  0  0  0  3  0  0  0  0  0  0
  1 18  1  0  0  0  0
  4  8  1  6  0  0  0
  4  6  1  0  0  0  0
  4 11  1  0  0  0  0
  5 16  1  0  0  0  0
  6  2  1  6  0  0  0
  6  5  1  0  0  0  0
  7 16  1  0  0  0  0
  7 11  1  0  0  0  0
  9 18  1  6  0  0  0
 10  5  1  0  0  0  0
 10 18  2  0  0  0  0
 12 14  2  0  0  0  0
 13  9  1  0  0  0  0
 13  3  1  0  0  0  0
 14  9  1  0  0  0  0
 15 19  1  6  0  0  0
 15  2  1  0  0  0  0
 15  8  1  0  0  0  0
 16 13  2  0  0  0  0
 17  1  2  0  0  0  0
 17 12  1  0  0  0  0
 20 19  1  0  0  0  0
 21  1  1  0  0  0  0
 21 22  1  0  0  0  0
 22 24  1  0  0  0  0
 23 28  1  0  0  0  0
 23 27  1  0  0  0  0
 24 28  2  0  0  0  0
 25 22  2  0  0  0  0
 25 26  1  0  0  0  0
 26 23  2  0  0  0  0
M  END
>  <MODEL>
6

>  <REMARK>
 VINA RESULT:      -7.1      2.019      2.909
  Name = 
  3 active torsions:
  status: ('A' for Active; 'I' for Inactive)
    1  A    between atoms: C_1  and  C_2
    2  A    between atoms: C_2  and  C_3
    3  A    between atoms: C_12  and  C_24
                            x       y       z     vdW  Elec       q    Type
                         _______ _______ _______ _____ _____    ______ ____

>  <TORSDO>
F 3

$$$$
=
 OpenBabel11052418133D

 28 32  0  0  1  0  0  0  0  0999 V2000
  192.7090  176.4150  145.9350 C   0  0  0  0  0  0  0  0  0  0  0  0
  190.7450  174.3450  141.5690 S   0  0  0  0  0  0  0  0  0  0  0  0
  187.7170  177.0790  146.4840 C   0  0  0  0  0  1  0  0  0  0  0  0
  188.3740  175.5300  141.6740 C   0  0  1  0  0  3  0  0  0  0  0  0
  189.8860  176.0290  143.5350 N   0  0  0  0  0  0  0  0  0  0  0  0
  189.7780  175.8040  142.0860 C   0  0  1  0  0  3  0  0  0  0  0  0
  187.3410  176.0080  143.8330 C   0  0  0  0  0  2  0  0  0  0  0  0
  188.1930  174.5360  140.8190 C   0  0  0  0  0  2  0  0  0  0  0  0
  190.2700  177.1550  146.0870 C   0  0  1  0  0  3  0  0  0  0  0  0
  191.1700  176.0420  144.1100 N   0  0  0  0  0  0  0  0  0  0  0  0
  187.2460  176.2430  142.3320 C   0  0  0  0  0  2  0  0  0  0  0  0
  191.5950  176.7280  148.0840 C   0  0  0  0  0  3  0  0  0  0  0  0
  188.8930  176.7700  145.6100 C   0  0  0  0  0  0  0  0  0  0  0  0
  190.4360  176.9570  147.5330 N   0  0  0  0  0  0  0  0  0  0  0  0
  189.4510  173.8890  140.3630 C   0  0  2  0  0  3  0  0  0  0  0  0
  188.7230  176.3220  144.3530 C   0  0  0  0  0  0  0  0  0  0  0  0
  192.8070  176.5390  147.2610 C   0  0  0  0  0  3  0  0  0  0  0  0
  191.3770  176.4880  145.3110 C   0  0  0  0  0  0  0  0  0  0  0  0
  189.2660  172.3840  140.3190 C   0  0  0  0  0  2  0  0  0  0  0  0
  190.5920  171.6980  140.0530 C   0  0  0  0  0  1  0  0  0  0  0  0
  193.9420  176.1760  145.1210 C   0  0  0  0  0  2  0  0  0  0  0  0
  194.4520  174.7900  145.3290 C   0  0  0  0  0  0  0  0  0  0  0  0
  195.4040  172.1940  145.7620 C   0  0  0  0  0  0  0  0  0  0  0  0
  193.5900  173.6960  145.1950 C   0  0  0  0  0  3  0  0  0  0  0  0
  195.7900  174.5830  145.6850 C   0  0  0  0  0  3  0  0  0  0  0  0
  196.2660  173.2870  145.9010 C   0  0  0  0  0  3  0  0  0  0  0  0
  195.8660  170.9380  145.9710 F   0  0  0  0  0  0  0  0  0  0  0  0
  194.0670  172.3990  145.4100 C   0  0  0  0  0  3  0  0  0  0  0  0
  1 17  2  0  0  0  0
  4  8  1  1  0  0  0
  4  6  1  0  0  0  0
  4 11  1  0  0  0  0
  5 10  1  0  0  0  0
  5 16  1  0  0  0  0
  6  2  1  1  0  0  0
  6  5  1  0  0  0  0
  7 16  1  0  0  0  0
  9 18  1  6  0  0  0
  9 14  1  0  0  0  0
 10 18  2  0  0  0  0
 11  7  1  0  0  0  0
 13  9  1  0  0  0  0
 13  3  1  0  0  0  0
 14 12  2  0  0  0  0
 15 19  1  1  0  0  0
 15  8  1  0  0  0  0
 15  2  1  0  0  0  0
 16 13  2  0  0  0  0
 17 12  1  0  0  0  0
 18  1  1  0  0  0  0
 20 19  1  0  0  0  0
 21 22  1  0  0  0  0
 21  1  1  0  0  0  0
 22 25  1  0  0  0  0
 23 26  1  0  0  0  0
 23 27  1  0  0  0  0
 24 22  2  0  0  0  0
 24 28  1  0  0  0  0
 25 26  2  0  0  0  0
 28 23  2  0  0  0  0
M  END
>  <MODEL>
7

>  <REMARK>
 VINA RESULT:      -6.8      3.471      6.574
  Name = 
  3 active torsions:
  status: ('A' for Active; 'I' for Inactive)
    1  A    between atoms: C_1  and  C_2
    2  A    between atoms: C_2  and  C_3
    3  A    between atoms: C_12  and  C_24
                            x       y       z     vdW  Elec       q    Type
                         _______ _______ _______ _____ _____    ______ ____

>  <TORSDO>
F 3

$$$$
=
 OpenBabel11052418133D

 28 32  0  0  1  0  0  0  0  0999 V2000
  191.2740  173.9500  142.6770 C   0  0  0  0  0  0  0  0  0  0  0  0
  187.5100  177.4280  141.7090 S   0  0  0  0  0  0  0  0  0  0  0  0
  189.0810  174.5730  147.2020 C   0  0  0  0  0  1  0  0  0  0  0  0
  187.1190  178.2040  144.2140 C   0  0  1  0  0  3  0  0  0  0  0  0
  188.8040  176.4560  143.9030 N   0  0  0  0  0  0  0  0  0  0  0  0
  188.2300  177.6970  143.3640 C   0  0  1  0  0  3  0  0  0  0  0  0
  187.4080  176.6170  146.0450 C   0  0  0  0  0  2  0  0  0  0  0  0
  186.0340  178.6210  143.5820 C   0  0  0  0  0  2  0  0  0  0  0  0
  190.5040  174.5210  145.0440 C   0  0  1  0  0  3  0  0  0  0  0  0
  189.6800  175.7190  143.0830 N   0  0  0  0  0  0  0  0  0  0  0  0
  187.1910  178.0820  145.6960 C   0  0  0  0  0  2  0  0  0  0  0  0
  191.3840  172.3200  144.4910 C   0  0  0  0  0  3  0  0  0  0  0  0
  189.3050  175.0390  145.7960 C   0  0  0  0  0  0  0  0  0  0  0  0
  190.7770  173.1080  145.3340 N   0  0  0  0  0  0  0  0  0  0  0  0
  186.1340  178.5650  142.1000 C   0  0  2  0  0  3  0  0  0  0  0  0
  188.5630  176.0310  145.2690 C   0  0  0  0  0  0  0  0  0  0  0  0
  191.7340  172.7820  143.1320 C   0  0  0  0  0  3  0  0  0  0  0  0
  190.4280  174.7720  143.5590 C   0  0  0  0  0  0  0  0  0  0  0  0
  184.8310  178.0480  141.5170 C   0  0  0  0  0  2  0  0  0  0  0  0
  183.6910  178.2800  142.4900 C   0  0  0  0  0  1  0  0  0  0  0  0
  191.5980  174.3800  141.2810 C   0  0  0  0  0  2  0  0  0  0  0  0
  192.9860  174.9220  141.2040 C   0  0  0  0  0  0  0  0  0  0  0  0
  195.6030  175.9080  141.0890 C   0  0  0  0  0  0  0  0  0  0  0  0
  193.8460  174.5100  140.1790 C   0  0  0  0  0  3  0  0  0  0  0  0
  193.4400  175.8230  142.1740 C   0  0  0  0  0  3  0  0  0  0  0  0
  194.7460  176.3160  142.1170 C   0  0  0  0  0  3  0  0  0  0  0  0
  196.8680  176.3860  141.0340 F   0  0  0  0  0  0  0  0  0  0  0  0
  195.1530  175.0050  140.1220 C   0  0  0  0  0  3  0  0  0  0  0  0
  1 17  2  0  0  0  0
  1 18  1  0  0  0  0
  2 15  1  0  0  0  0
  4  8  1  6  0  0  0
  4 11  1  0  0  0  0
  5 16  1  0  0  0  0
  6  2  1  6  0  0  0
  6  5  1  0  0  0  0
  6  4  1  0  0  0  0
  9 18  1  6  0  0  0
  9 14  1  0  0  0  0
  9 13  1  0  0  0  0
 10 18  2  0  0  0  0
 10  5  1  0  0  0  0
 11  7  1  0  0  0  0
 12 14  2  0  0  0  0
 13  3  1  0  0  0  0
 15 19  1  6  0  0  0
 15  8  1  0  0  0  0
 16 13  2  0  0  0  0
 16  7  1  0  0  0  0
 17 12  1  0  0  0  0
 19 20  1  0  0  0  0
 21  1  1  0  0  0  0
 22 21  1  0  0  0  0
 22 25  1  0  0  0  0
 23 26  1  0  0  0  0
 24 22  2  0  0  0  0
 26 25  2  0  0  0  0
 27 23  1  0  0  0  0
 28 24  1  0  0  0  0
 28 23  2  0  0  0  0
M  END
>  <MODEL>
8

>  <REMARK>
 VINA RESULT:      -6.8      3.838      7.397
  Name = 
  3 active torsions:
  status: ('A' for Active; 'I' for Inactive)
    1  A    between atoms: C_1  and  C_2
    2  A    between atoms: C_2  and  C_3
    3  A    between atoms: C_12  and  C_24
                            x       y       z     vdW  Elec       q    Type
                         _______ _______ _______ _____ _____    ______ ____

>  <TORSDO>
F 3

$$$$
=
 OpenBabel11052418133D

 28 32  0  0  1  0  0  0  0  0999 V2000
  190.8780  173.7480  142.4180 C   0  0  0  0  0  0  0  0  0  0  0  0
  187.2360  177.3900  141.5990 S   0  0  0  0  0  0  0  0  0  0  0  0
  189.0960  174.6710  147.0700 C   0  0  0  0  0  1  0  0  0  0  0  0
  187.0910  178.2850  144.0910 C   0  0  1  0  0  3  0  0  0  0  0  0
  188.6510  176.4350  143.7250 N   0  0  0  0  0  0  0  0  0  0  0  0
  188.1000  177.6830  143.1780 C   0  0  1  0  0  3  0  0  0  0  0  0
  187.4430  176.7580  145.9610 C   0  0  0  0  0  2  0  0  0  0  0  0
  185.9810  178.7360  143.5280 C   0  0  0  0  0  2  0  0  0  0  0  0
  190.3340  174.4550  144.8110 C   0  0  1  0  0  3  0  0  0  0  0  0
  189.4170  175.6190  142.8710 N   0  0  0  0  0  0  0  0  0  0  0  0
  187.2760  178.2180  145.5660 C   0  0  0  0  0  2  0  0  0  0  0  0
  191.0500  172.1880  144.2880 C   0  0  0  0  0  3  0  0  0  0  0  0
  189.2290  175.0690  145.6330 C   0  0  0  0  0  0  0  0  0  0  0  0
  190.5550  173.0410  145.1410 N   0  0  0  0  0  0  0  0  0  0  0  0
  185.9570  178.6160  142.0470 C   0  0  2  0  0  3  0  0  0  0  0  0
  188.5000  176.0780  145.1230 C   0  0  0  0  0  0  0  0  0  0  0  0
  191.3120  172.5760  142.8870 C   0  0  0  0  0  3  0  0  0  0  0  0
  190.1510  174.6510  143.3280 C   0  0  0  0  0  0  0  0  0  0  0  0
  184.5860  178.1500  141.5930 C   0  0  0  0  0  2  0  0  0  0  0  0
  183.5870  178.2680  142.7270 C   0  0  0  0  0  1  0  0  0  0  0  0
  191.1100  174.1040  140.9840 C   0  0  0  0  0  2  0  0  0  0  0  0
  190.6410  173.0100  140.0850 C   0  0  0  0  0  0  0  0  0  0  0  0
  189.7660  170.9850  138.3630 C   0  0  0  0  0  0  0  0  0  0  0  0
  191.5440  172.0460  139.6210 C   0  0  0  0  0  3  0  0  0  0  0  0
  189.3020  172.9630  139.6810 C   0  0  0  0  0  3  0  0  0  0  0  0
  188.8640  171.9510  138.8210 C   0  0  0  0  0  3  0  0  0  0  0  0
  189.3420  170.0050  137.5310 F   0  0  0  0  0  0  0  0  0  0  0  0
  191.1050  171.0340  138.7620 C   0  0  0  0  0  3  0  0  0  0  0  0
  1 17  2  0  0  0  0
  1 18  1  0  0  0  0
  2 15  1  0  0  0  0
  4  8  1  1  0  0  0
  4 11  1  0  0  0  0
  5 16  1  0  0  0  0
  6  2  1  6  0  0  0
  6  5  1  0  0  0  0
  6  4  1  0  0  0  0
  9 18  1  6  0  0  0
  9 14  1  0  0  0  0
  9 13  1  0  0  0  0
 10 18  2  0  0  0  0
 10  5  1  0  0  0  0
 11  7  1  0  0  0  0
 12 14  2  0  0  0  0
 13  3  1  0  0  0  0
 15 19  1  1  0  0  0
 15  8  1  0  0  0  0
 16 13  2  0  0  0  0
 16  7  1  0  0  0  0
 17 12  1  0  0  0  0
 19 20  1  0  0  0  0
 21  1  1  0  0  0  0
 22 21  1  0  0  0  0
 23 28  2  0  0  0  0
 23 26  1  0  0  0  0
 24 22  2  0  0  0  0
 25 22  1  0  0  0  0
 26 25  2  0  0  0  0
 27 23  1  0  0  0  0
 28 24  1  0  0  0  0
M  END
>  <MODEL>
9

>  <REMARK>
 VINA RESULT:      -6.7      3.243      7.313
  Name = 
  3 active torsions:
  status: ('A' for Active; 'I' for Inactive)
    1  A    between atoms: C_1  and  C_2
    2  A    between atoms: C_2  and  C_3
    3  A    between atoms: C_12  and  C_24
                            x       y       z     vdW  Elec       q    Type
                         _______ _______ _______ _____ _____    ______ ____

>  <TORSDO>
F 3

$$$$
