=
 OpenBabel11052420063D

 37 42  0  0  1  0  0  0  0  0999 V2000
  185.0140  178.9040  144.0500 C   0  0  0  0  0  2  0  0  0  0  0  0
  188.9070  177.5960  145.1050 C   0  0  1  0  0  3  0  0  0  0  0  0
  190.4070  174.7380  143.9390 C   0  0  1  0  0  3  0  0  0  0  0  0
  186.3680  177.2270  145.4430 C   0  0  1  0  0  3  0  0  0  0  0  0
  189.8040  177.0790  143.9510 C   0  0  1  0  0  3  0  0  0  0  0  0
  187.5220  177.5140  144.4950 C   0  0  2  0  0  3  0  0  0  0  0  0
  190.9340  176.1150  144.2470 C   0  0  1  0  0  3  0  0  0  0  0  0
  186.5960  177.9440  146.7580 C   0  0  0  0  0  2  0  0  0  0  0  0
  187.6040  176.4290  143.4650 C   0  0  1  0  0  3  0  0  0  0  0  0
  186.2320  177.9720  141.9380 C   0  0  0  0  0  3  0  0  0  0  0  0
  190.2840  177.1080  147.1720 C   0  0  0  0  0  2  0  0  0  0  0  0
  187.8620  177.4010  147.4370 C   0  0  0  0  0  2  0  0  0  0  0  0
  186.5230  176.5610  142.3840 C   0  0  0  0  0  2  0  0  0  0  0  0
  189.7570  174.1950  145.0490 O   0  0  0  0  0  1  0  0  0  0  0  0
  188.9560  176.8850  146.4760 C   0  0  1  0  0  3  0  0  0  0  0  0
  188.9580  176.4270  142.9340 N   0  0  2  0  0  0  0  0  0  0  0  0
  185.0210  177.5600  144.7890 C   0  0  0  0  0  2  0  0  0  0  0  0
  191.8790  176.3580  145.4290 C   0  0  1  0  0  3  0  0  0  0  0  0
  185.5880  178.9280  142.6410 C   0  0  0  0  0  3  0  0  0  0  0  0
  189.3800  175.0200  142.8500 C   0  0  1  0  0  3  0  0  0  0  0  0
  191.2740  176.0350  146.7820 C   0  0  0  0  0  2  0  0  0  0  0  0
  193.4310  174.3870  145.7650 C   0  0  0  0  0  3  0  0  0  0  0  0
  193.1930  175.6650  145.2340 C   0  0  0  0  0  0  0  0  0  0  0  0
  194.1900  176.2970  144.4850 C   0  0  0  0  0  3  0  0  0  0  0  0
  196.4750  176.3450  143.4790 C   0  0  0  0  0  1  0  0  0  0  0  0
  195.6540  174.3950  144.8080 C   0  0  0  0  0  3  0  0  0  0  0  0
  195.4200  175.6660  144.2730 C   0  0  0  0  0  0  0  0  0  0  0  0
  194.6590  173.7550  145.5530 C   0  0  0  0  0  3  0  0  0  0  0  0
  189.9550  174.7850  141.5980 O   0  0  0  0  0  0  0  0  0  0  0  0
  190.6160  173.5550  141.7150 C   0  0  2  0  0  3  0  0  0  0  0  0
  191.9330  173.5790  140.9410 C   0  0  0  0  0  2  0  0  0  0  0  0
  193.1400  173.6420  141.8640 C   0  0  0  0  0  1  0  0  0  0  0  0
  189.7230  172.4260  141.2200 C   0  0  0  0  0  2  0  0  0  0  0  0
  189.8680  171.2740  138.9710 C   0  0  0  0  0  1  0  0  0  0  0  0
  189.4790  172.5460  139.7150 C   0  0  1  0  0  3  0  0  0  0  0  0
  188.2680  173.9440  138.3500 C   0  0  0  0  0  1  0  0  0  0  0  0
  188.1800  173.0020  139.3890 O   0  0  0  0  0  0  0  0  0  0  0  0
  1 17  1  0  0  0  0
  2 15  1  0  0  0  0
  3  7  1  0  0  0  0
  3 14  1  0  0  0  0
  4  8  1  0  0  0  0
  5  7  1  0  0  0  0
  5  2  1  0  0  0  0
  6  2  1  0  0  0  0
  6  4  1  0  0  0  0
  7 18  1  0  0  0  0
  8 12  1  0  0  0  0
  9  6  1  0  0  0  0
 10 13  1  0  0  0  0
 10 19  2  0  0  0  0
 13  9  1  0  0  0  0
 15 11  1  0  0  0  0
 15 12  1  0  0  0  0
 16  9  1  0  0  0  0
 16  5  1  0  0  0  0
 17  4  1  0  0  0  0
 18 21  1  0  0  0  0
 19  1  1  0  0  0  0
 20 16  1  0  0  0  0
 20  3  1  0  0  0  0
 21 11  1  0  0  0  0
 23 18  1  0  0  0  0
 23 22  2  0  0  0  0
 24 23  1  0  0  0  0
 25 27  1  0  0  0  0
 26 28  2  0  0  0  0
 27 24  2  0  0  0  0
 27 26  1  0  0  0  0
 28 22  1  0  0  0  0
 29 30  1  0  0  0  0
 29 20  1  0  0  0  0
 31 30  1  0  0  0  0
 31 32  1  0  0  0  0
 33 30  1  0  0  0  0
 34 35  1  0  0  0  0
 35 33  1  0  0  0  0
 36 37  1  0  0  0  0
 37 35  1  0  0  0  0
M  END
>  <MODEL>
1

>  <REMARK>
 VINA RESULT:      -8.1      0.000      0.000
  Name = 
  7 active torsions:
  status: ('A' for Active; 'I' for Inactive)
    1  A    between atoms: C_5  and  C_17
    2  A    between atoms: C_5  and  O_23
    3  A    between atoms: C_6  and  C_31
    4  A    between atoms: C_11  and  C_26
    5  A    between atoms: C_17  and  C_26
    6  A    between atoms: C_26  and  O_33
    7  A    between atoms: O_33  and  C_36
                            x       y       z     vdW  Elec       q    Type
                         _______ _______ _______ _____ _____    ______ ____

>  <TORSDO>
F 7

$$$$
=
 OpenBabel11052420063D

 37 42  0  0  1  0  0  0  0  0999 V2000
  195.1760  173.7850  143.2280 C   0  0  0  0  0  2  0  0  0  0  0  0
  191.8480  175.3150  145.3630 C   0  0  1  0  0  3  0  0  0  0  0  0
  189.5310  177.5060  144.0930 C   0  0  1  0  0  3  0  0  0  0  0  0
  194.2070  175.8340  144.4320 C   0  0  1  0  0  3  0  0  0  0  0  0
  190.4930  175.3490  144.6100 C   0  0  1  0  0  3  0  0  0  0  0  0
  192.8420  175.1910  144.2270 C   0  0  2  0  0  3  0  0  0  0  0  0
  189.4200  176.3320  145.0300 C   0  0  1  0  0  3  0  0  0  0  0  0
  194.6460  175.6520  145.8710 C   0  0  0  0  0  2  0  0  0  0  0  0
  192.1720  175.8140  143.0410 C   0  0  1  0  0  3  0  0  0  0  0  0
  193.0810  173.8410  141.6720 C   0  0  0  0  0  3  0  0  0  0  0  0
  191.3330  176.5110  147.5340 C   0  0  0  0  0  2  0  0  0  0  0  0
  193.6740  176.3840  146.8090 C   0  0  0  0  0  2  0  0  0  0  0  0
  192.7450  175.3100  141.7090 C   0  0  0  0  0  2  0  0  0  0  0  0
  190.4590  178.4350  144.5670 O   0  0  0  0  0  1  0  0  0  0  0  0
  192.2180  176.4850  146.3040 C   0  0  1  0  0  3  0  0  0  0  0  0
  190.7410  175.5920  143.1770 N   0  0  2  0  0  0  0  0  0  0  0  0
  195.2230  175.3070  143.4110 C   0  0  0  0  0  2  0  0  0  0  0  0
  189.0760  176.5280  146.5110 C   0  0  1  0  0  3  0  0  0  0  0  0
  194.1080  173.2270  142.2990 C   0  0  0  0  0  3  0  0  0  0  0  0
  190.0780  176.8580  142.8270 C   0  0  1  0  0  3  0  0  0  0  0  0
  190.0970  177.3430  147.2820 C   0  0  0  0  0  2  0  0  0  0  0  0
  186.5690  176.3900  146.1920 C   0  0  0  0  0  3  0  0  0  0  0  0
  187.6910  177.0730  146.6860 C   0  0  0  0  0  0  0  0  0  0  0  0
  187.5180  178.2760  147.3770 C   0  0  0  0  0  3  0  0  0  0  0  0
  186.0580  180.0790  148.3020 C   0  0  0  0  0  1  0  0  0  0  0  0
  185.1200  178.1180  147.0720 C   0  0  0  0  0  3  0  0  0  0  0  0
  186.2360  178.8000  147.5690 C   0  0  0  0  0  0  0  0  0  0  0  0
  185.2870  176.9120  146.3840 C   0  0  0  0  0  3  0  0  0  0  0  0
  189.0250  176.6000  141.9450 O   0  0  0  0  0  0  0  0  0  0  0  0
  187.8570  176.8990  142.6590 C   0  0  2  0  0  3  0  0  0  0  0  0
  186.9260  175.6890  142.6940 C   0  0  0  0  0  2  0  0  0  0  0  0
  187.5650  174.4540  142.0770 C   0  0  0  0  0  1  0  0  0  0  0  0
  187.1550  178.1010  142.0430 C   0  0  0  0  0  2  0  0  0  0  0  0
  185.8180  179.4540  143.7120 C   0  0  0  0  0  1  0  0  0  0  0  0
  185.7880  178.3220  142.6920 C   0  0  1  0  0  3  0  0  0  0  0  0
  185.2250  178.1820  140.4670 C   0  0  0  0  0  1  0  0  0  0  0  0
  184.7340  178.4470  141.7570 O   0  0  0  0  0  0  0  0  0  0  0  0
  1 17  1  0  0  0  0
  2 15  1  0  0  0  0
  3 14  1  0  0  0  0
  3  7  1  0  0  0  0
  4  8  1  0  0  0  0
  5  7  1  0  0  0  0
  5  2  1  0  0  0  0
  6  4  1  0  0  0  0
  6  2  1  0  0  0  0
  7 18  1  0  0  0  0
  8 12  1  0  0  0  0
  9 16  1  0  0  0  0
  9  6  1  0  0  0  0
 10 13  1  0  0  0  0
 10 19  2  0  0  0  0
 13  9  1  0  0  0  0
 15 12  1  0  0  0  0
 15 11  1  0  0  0  0
 16  5  1  0  0  0  0
 17  4  1  0  0  0  0
 18 23  1  0  0  0  0
 18 21  1  0  0  0  0
 19  1  1  0  0  0  0
 20 16  1  0  0  0  0
 20  3  1  0  0  0  0
 21 11  1  0  0  0  0
 22 28  2  0  0  0  0
 22 23  1  0  0  0  0
 23 24  2  0  0  0  0
 24 27  1  0  0  0  0
 26 27  2  0  0  0  0
 27 25  1  0  0  0  0
 28 26  1  0  0  0  0
 29 30  1  0  0  0  0
 29 20  1  0  0  0  0
 30 31  1  0  0  0  0
 32 31  1  0  0  0  0
 33 30  1  0  0  0  0
 33 35  1  0  0  0  0
 35 34  1  0  0  0  0
 36 37  1  0  0  0  0
 37 35  1  0  0  0  0
M  END
>  <MODEL>
2

>  <REMARK>
 VINA RESULT:      -8.1      2.030      6.872
  Name = 
  7 active torsions:
  status: ('A' for Active; 'I' for Inactive)
    1  A    between atoms: C_5  and  C_17
    2  A    between atoms: C_5  and  O_23
    3  A    between atoms: C_6  and  C_31
    4  A    between atoms: C_11  and  C_26
    5  A    between atoms: C_17  and  C_26
    6  A    between atoms: C_26  and  O_33
    7  A    between atoms: O_33  and  C_36
                            x       y       z     vdW  Elec       q    Type
                         _______ _______ _______ _____ _____    ______ ____

>  <TORSDO>
F 7

$$$$
=
 OpenBabel11052420063D

 37 42  0  0  1  0  0  0  0  0999 V2000
  185.0970  178.8630  144.1010 C   0  0  0  0  0  2  0  0  0  0  0  0
  189.0210  177.6290  145.1300 C   0  0  1  0  0  3  0  0  0  0  0  0
  190.5430  174.7650  144.0070 C   0  0  1  0  0  3  0  0  0  0  0  0
  186.4920  177.2350  145.5120 C   0  0  1  0  0  3  0  0  0  0  0  0
  189.9090  177.0980  143.9760 C   0  0  1  0  0  3  0  0  0  0  0  0
  187.6300  177.5160  144.5420 C   0  0  2  0  0  3  0  0  0  0  0  0
  191.0560  176.1560  144.2770 C   0  0  1  0  0  3  0  0  0  0  0  0
  186.7280  177.9840  146.8070 C   0  0  0  0  0  2  0  0  0  0  0  0
  187.7110  176.4090  143.5350 C   0  0  1  0  0  3  0  0  0  0  0  0
  186.2980  177.9010  141.9940 C   0  0  0  0  0  3  0  0  0  0  0  0
  190.4320  177.2040  147.1880 C   0  0  0  0  0  2  0  0  0  0  0  0
  188.0100  177.4720  147.4800 C   0  0  0  0  0  2  0  0  0  0  0  0
  186.6140  176.5040  142.4660 C   0  0  0  0  0  2  0  0  0  0  0  0
  189.9150  174.2380  145.1370 O   0  0  0  0  0  1  0  0  0  0  0  0
  189.0980  176.9490  146.5160 C   0  0  1  0  0  3  0  0  0  0  0  0
  189.0580  176.4130  142.9850 N   0  0  2  0  0  0  0  0  0  0  0  0
  185.1320  177.5360  144.8690 C   0  0  0  0  0  2  0  0  0  0  0  0
  192.0130  176.4370  145.4400 C   0  0  1  0  0  3  0  0  0  0  0  0
  185.6520  178.8640  142.6850 C   0  0  0  0  0  3  0  0  0  0  0  0
  189.4980  175.0100  142.9260 C   0  0  1  0  0  3  0  0  0  0  0  0
  191.4310  176.1360  146.8090 C   0  0  0  0  0  2  0  0  0  0  0  0
  193.6260  174.5330  145.8670 C   0  0  0  0  0  3  0  0  0  0  0  0
  193.3330  175.7560  145.2420 C   0  0  0  0  0  0  0  0  0  0  0  0
  194.2790  176.3420  144.3960 C   0  0  0  0  0  3  0  0  0  0  0  0
  196.5150  176.3500  143.2830 C   0  0  0  0  0  1  0  0  0  0  0  0
  195.8030  174.5050  144.8090 C   0  0  0  0  0  3  0  0  0  0  0  0
  195.5130  175.7210  144.1800 C   0  0  0  0  0  0  0  0  0  0  0  0
  194.8590  173.9110  145.6520 C   0  0  0  0  0  3  0  0  0  0  0  0
  190.0590  174.7550  141.6710 O   0  0  0  0  0  0  0  0  0  0  0  0
  190.7480  173.5430  141.8090 C   0  0  2  0  0  3  0  0  0  0  0  0
  192.0190  173.5500  140.9630 C   0  0  0  0  0  2  0  0  0  0  0  0
  193.2670  173.7730  141.8040 C   0  0  0  0  0  1  0  0  0  0  0  0
  189.8490  172.3770  141.4200 C   0  0  0  0  0  2  0  0  0  0  0  0
  190.8230  170.0420  141.4070 C   0  0  0  0  0  1  0  0  0  0  0  0
  190.1790  171.1360  142.2500 C   0  0  1  0  0  3  0  0  0  0  0  0
  192.0540  170.6180  143.4750 C   0  0  0  0  0  1  0  0  0  0  0  0
  190.9040  171.4240  143.4300 O   0  0  0  0  0  0  0  0  0  0  0  0
  1 17  1  0  0  0  0
  2 15  1  0  0  0  0
  3  7  1  0  0  0  0
  3 14  1  0  0  0  0
  4  8  1  0  0  0  0
  5  7  1  0  0  0  0
  5  2  1  0  0  0  0
  6  2  1  0  0  0  0
  6  4  1  0  0  0  0
  7 18  1  0  0  0  0
  8 12  1  0  0  0  0
  9  6  1  0  0  0  0
 10 13  1  0  0  0  0
 10 19  2  0  0  0  0
 13  9  1  0  0  0  0
 15 11  1  0  0  0  0
 15 12  1  0  0  0  0
 16  9  1  0  0  0  0
 16  5  1  0  0  0  0
 17  4  1  0  0  0  0
 18 21  1  0  0  0  0
 19  1  1  0  0  0  0
 20 16  1  0  0  0  0
 20  3  1  0  0  0  0
 21 11  1  0  0  0  0
 23 18  1  0  0  0  0
 23 22  2  0  0  0  0
 24 23  1  0  0  0  0
 25 27  1  0  0  0  0
 26 28  2  0  0  0  0
 27 24  2  0  0  0  0
 27 26  1  0  0  0  0
 28 22  1  0  0  0  0
 29 30  1  0  0  0  0
 29 20  1  0  0  0  0
 31 32  1  0  0  0  0
 31 30  1  0  0  0  0
 33 30  1  0  0  0  0
 33 35  1  0  0  0  0
 34 35  1  0  0  0  0
 35 37  1  0  0  0  0
 37 36  1  0  0  0  0
M  END
>  <MODEL>
3

>  <REMARK>
 VINA RESULT:      -8.1      1.004      1.611
  Name = 
  7 active torsions:
  status: ('A' for Active; 'I' for Inactive)
    1  A    between atoms: C_5  and  C_17
    2  A    between atoms: C_5  and  O_23
    3  A    between atoms: C_6  and  C_31
    4  A    between atoms: C_11  and  C_26
    5  A    between atoms: C_17  and  C_26
    6  A    between atoms: C_26  and  O_33
    7  A    between atoms: O_33  and  C_36
                            x       y       z     vdW  Elec       q    Type
                         _______ _______ _______ _____ _____    ______ ____

>  <TORSDO>
F 7

$$$$
=
 OpenBabel11052420063D

 37 42  0  0  1  0  0  0  0  0999 V2000
  186.3500  178.3990  144.1250 C   0  0  0  0  0  2  0  0  0  0  0  0
  190.3550  177.3090  144.9880 C   0  0  1  0  0  3  0  0  0  0  0  0
  192.0120  174.6420  143.6030 C   0  0  1  0  0  3  0  0  0  0  0  0
  187.8590  176.7400  145.3710 C   0  0  1  0  0  3  0  0  0  0  0  0
  191.2490  176.9290  143.7800 C   0  0  1  0  0  3  0  0  0  0  0  0
  188.9610  177.1670  144.4120 C   0  0  2  0  0  3  0  0  0  0  0  0
  192.4520  176.0310  143.9830 C   0  0  1  0  0  3  0  0  0  0  0  0
  188.0780  177.3890  146.7230 C   0  0  0  0  0  2  0  0  0  0  0  0
  189.0850  176.1550  143.3140 C   0  0  1  0  0  3  0  0  0  0  0  0
  187.5620  177.6890  141.9260 C   0  0  0  0  0  3  0  0  0  0  0  0
  191.8270  176.7920  146.9820 C   0  0  0  0  0  2  0  0  0  0  0  0
  189.4000  176.8960  147.3310 C   0  0  0  0  0  2  0  0  0  0  0  0
  187.9630  176.2780  142.2730 C   0  0  0  0  0  2  0  0  0  0  0  0
  191.4360  173.9860  144.6920 O   0  0  0  0  0  1  0  0  0  0  0  0
  190.4960  176.5190  146.3100 C   0  0  1  0  0  3  0  0  0  0  0  0
  190.4180  176.2830  142.7470 N   0  0  2  0  0  0  0  0  0  0  0  0
  186.4730  177.0170  144.7760 C   0  0  0  0  0  2  0  0  0  0  0  0
  193.4150  176.2670  145.1520 C   0  0  1  0  0  3  0  0  0  0  0  0
  186.8760  178.5520  142.7060 C   0  0  0  0  0  3  0  0  0  0  0  0
  190.9340  174.9170  142.5620 C   0  0  1  0  0  3  0  0  0  0  0  0
  192.8760  175.8190  146.4980 C   0  0  0  0  0  2  0  0  0  0  0  0
  195.5940  176.1970  143.8680 C   0  0  0  0  0  3  0  0  0  0  0  0
  194.7660  175.6820  144.8780 C   0  0  0  0  0  0  0  0  0  0  0  0
  195.2170  174.6170  145.6630 C   0  0  0  0  0  3  0  0  0  0  0  0
  196.9530  172.9290  146.2750 C   0  0  0  0  0  1  0  0  0  0  0  0
  197.3010  174.5750  144.4290 C   0  0  0  0  0  3  0  0  0  0  0  0
  196.4810  174.0620  145.4390 C   0  0  0  0  0  0  0  0  0  0  0  0
  196.8580  175.6440  143.6440 C   0  0  0  0  0  3  0  0  0  0  0  0
  191.4840  174.8010  141.2820 O   0  0  0  0  0  0  0  0  0  0  0  0
  191.8810  173.4630  141.1650 C   0  0  2  0  0  3  0  0  0  0  0  0
  193.2120  173.3610  140.4210 C   0  0  0  0  0  2  0  0  0  0  0  0
  193.8660  174.7200  140.2270 C   0  0  0  0  0  1  0  0  0  0  0  0
  190.8050  172.6530  140.4550 C   0  0  0  0  0  2  0  0  0  0  0  0
  191.3030  170.8030  142.1080 C   0  0  0  0  0  1  0  0  0  0  0  0
  190.2170  171.5950  141.3900 C   0  0  1  0  0  3  0  0  0  0  0  0
  188.2020  172.6940  141.5150 C   0  0  0  0  0  1  0  0  0  0  0  0
  189.2320  172.1040  142.2670 O   0  0  0  0  0  0  0  0  0  0  0  0
  1 17  1  0  0  0  0
  2 15  1  0  0  0  0
  3  7  1  0  0  0  0
  3 14  1  0  0  0  0
  4  8  1  0  0  0  0
  5  7  1  0  0  0  0
  5  2  1  0  0  0  0
  6  2  1  0  0  0  0
  6  4  1  0  0  0  0
  7 18  1  0  0  0  0
  8 12  1  0  0  0  0
  9  6  1  0  0  0  0
 10 13  1  0  0  0  0
 10 19  2  0  0  0  0
 13  9  1  0  0  0  0
 15 11  1  0  0  0  0
 15 12  1  0  0  0  0
 16  9  1  0  0  0  0
 16  5  1  0  0  0  0
 17  4  1  0  0  0  0
 18 21  1  0  0  0  0
 19  1  1  0  0  0  0
 20 16  1  0  0  0  0
 20  3  1  0  0  0  0
 21 11  1  0  0  0  0
 22 23  1  0  0  0  0
 23 18  1  0  0  0  0
 23 24  2  0  0  0  0
 26 27  2  0  0  0  0
 27 24  1  0  0  0  0
 27 25  1  0  0  0  0
 28 22  2  0  0  0  0
 28 26  1  0  0  0  0
 29 20  1  0  0  0  0
 30 29  1  0  0  0  0
 31 30  1  0  0  0  0
 32 31  1  0  0  0  0
 33 30  1  0  0  0  0
 33 35  1  0  0  0  0
 35 34  1  0  0  0  0
 35 37  1  0  0  0  0
 36 37  1  0  0  0  0
M  END
>  <MODEL>
4

>  <REMARK>
 VINA RESULT:      -7.7      1.442      2.076
  Name = 
  7 active torsions:
  status: ('A' for Active; 'I' for Inactive)
    1  A    between atoms: C_5  and  C_17
    2  A    between atoms: C_5  and  O_23
    3  A    between atoms: C_6  and  C_31
    4  A    between atoms: C_11  and  C_26
    5  A    between atoms: C_17  and  C_26
    6  A    between atoms: C_26  and  O_33
    7  A    between atoms: O_33  and  C_36
                            x       y       z     vdW  Elec       q    Type
                         _______ _______ _______ _____ _____    ______ ____

>  <TORSDO>
F 7

$$$$
=
 OpenBabel11052420063D

 37 42  0  0  1  0  0  0  0  0999 V2000
  186.1600  178.2700  144.1200 C   0  0  0  0  0  2  0  0  0  0  0  0
  190.2180  177.3180  144.8950 C   0  0  1  0  0  3  0  0  0  0  0  0
  191.8540  174.5480  143.6980 C   0  0  1  0  0  3  0  0  0  0  0  0
  187.7520  176.7580  145.4490 C   0  0  1  0  0  3  0  0  0  0  0  0
  191.0620  176.8320  143.6890 C   0  0  1  0  0  3  0  0  0  0  0  0
  188.8020  177.1030  144.4020 C   0  0  2  0  0  3  0  0  0  0  0  0
  192.2870  175.9730  143.9210 C   0  0  1  0  0  3  0  0  0  0  0  0
  188.0220  177.5390  146.7190 C   0  0  0  0  0  2  0  0  0  0  0  0
  188.8920  175.9910  143.4020 C   0  0  1  0  0  3  0  0  0  0  0  0
  187.2820  177.3630  141.9460 C   0  0  0  0  0  3  0  0  0  0  0  0
  191.7880  177.0160  146.8580 C   0  0  0  0  0  2  0  0  0  0  0  0
  189.3780  177.1240  147.3090 C   0  0  0  0  0  2  0  0  0  0  0  0
  187.7220  175.9970  142.4080 C   0  0  0  0  0  2  0  0  0  0  0  0
  191.3390  173.9950  144.8720 O   0  0  0  0  0  1  0  0  0  0  0  0
  190.4330  176.6630  146.2790 C   0  0  1  0  0  3  0  0  0  0  0  0
  190.1960  176.0780  142.7630 N   0  0  2  0  0  0  0  0  0  0  0  0
  186.3360  176.9590  144.8960 C   0  0  0  0  0  2  0  0  0  0  0  0
  193.2990  176.3330  145.0150 C   0  0  1  0  0  3  0  0  0  0  0  0
  186.6180  178.2900  142.6700 C   0  0  0  0  0  3  0  0  0  0  0  0
  190.7250  174.7070  142.6870 C   0  0  1  0  0  3  0  0  0  0  0  0
  192.8300  176.0120  146.4220 C   0  0  0  0  0  2  0  0  0  0  0  0
  195.4700  176.2470  143.7170 C   0  0  0  0  0  3  0  0  0  0  0  0
  194.6460  175.7410  144.7350 C   0  0  0  0  0  0  0  0  0  0  0  0
  195.0970  174.6780  145.5230 C   0  0  0  0  0  3  0  0  0  0  0  0
  196.8300  172.9850  146.1340 C   0  0  0  0  0  1  0  0  0  0  0  0
  197.1730  174.6200  144.2760 C   0  0  0  0  0  3  0  0  0  0  0  0
  196.3570  174.1160  145.2950 C   0  0  0  0  0  0  0  0  0  0  0  0
  196.7290  175.6860  143.4880 C   0  0  0  0  0  3  0  0  0  0  0  0
  191.2180  174.4740  141.4000 O   0  0  0  0  0  0  0  0  0  0  0  0
  190.2420  173.6990  140.7600 C   0  0  2  0  0  3  0  0  0  0  0  0
  189.8050  172.5410  141.6560 C   0  0  0  0  0  2  0  0  0  0  0  0
  190.4710  171.2310  141.2670 C   0  0  0  0  0  1  0  0  0  0  0  0
  190.7680  173.1800  139.4290 C   0  0  0  0  0  2  0  0  0  0  0  0
  188.5080  174.1400  138.8200 C   0  0  0  0  0  1  0  0  0  0  0  0
  189.7750  173.4690  138.3030 C   0  0  1  0  0  3  0  0  0  0  0  0
  189.3940  174.2640  136.1800 C   0  0  0  0  0  1  0  0  0  0  0  0
  190.3500  174.1460  137.2030 O   0  0  0  0  0  0  0  0  0  0  0  0
  1 17  1  0  0  0  0
  2 15  1  0  0  0  0
  3  7  1  0  0  0  0
  3 14  1  0  0  0  0
  4  8  1  0  0  0  0
  5  7  1  0  0  0  0
  5  2  1  0  0  0  0
  6  2  1  0  0  0  0
  6  4  1  0  0  0  0
  7 18  1  0  0  0  0
  8 12  1  0  0  0  0
  9  6  1  0  0  0  0
 10 13  1  0  0  0  0
 10 19  2  0  0  0  0
 13  9  1  0  0  0  0
 15 11  1  0  0  0  0
 15 12  1  0  0  0  0
 16  9  1  0  0  0  0
 16  5  1  0  0  0  0
 17  4  1  0  0  0  0
 18 21  1  0  0  0  0
 19  1  1  0  0  0  0
 20 16  1  0  0  0  0
 20  3  1  0  0  0  0
 21 11  1  0  0  0  0
 22 23  1  0  0  0  0
 23 18  1  0  0  0  0
 23 24  2  0  0  0  0
 26 27  2  0  0  0  0
 27 24  1  0  0  0  0
 27 25  1  0  0  0  0
 28 22  2  0  0  0  0
 28 26  1  0  0  0  0
 29 20  1  0  0  0  0
 30 29  1  0  0  0  0
 30 31  1  0  0  0  0
 32 31  1  0  0  0  0
 33 30  1  0  0  0  0
 35 34  1  0  0  0  0
 35 33  1  0  0  0  0
 36 37  1  0  0  0  0
 37 35  1  0  0  0  0
M  END
>  <MODEL>
5

>  <REMARK>
 VINA RESULT:      -7.5      1.328      2.050
  Name = 
  7 active torsions:
  status: ('A' for Active; 'I' for Inactive)
    1  A    between atoms: C_5  and  C_17
    2  A    between atoms: C_5  and  O_23
    3  A    between atoms: C_6  and  C_31
    4  A    between atoms: C_11  and  C_26
    5  A    between atoms: C_17  and  C_26
    6  A    between atoms: C_26  and  O_33
    7  A    between atoms: O_33  and  C_36
                            x       y       z     vdW  Elec       q    Type
                         _______ _______ _______ _____ _____    ______ ____

>  <TORSDO>
F 7

$$$$
=
 OpenBabel11052420063D

 37 42  0  0  1  0  0  0  0  0999 V2000
  184.4250  178.6860  145.6790 C   0  0  0  0  0  2  0  0  0  0  0  0
  186.7580  176.2150  143.1450 C   0  0  1  0  0  3  0  0  0  0  0  0
  190.0880  175.5160  143.5980 C   0  0  1  0  0  3  0  0  0  0  0  0
  186.2280  178.6470  143.8540 C   0  0  1  0  0  3  0  0  0  0  0  0
  187.7030  175.2010  143.8390 C   0  0  1  0  0  3  0  0  0  0  0  0
  186.4740  177.2010  144.2590 C   0  0  2  0  0  3  0  0  0  0  0  0
  188.9280  174.6880  143.1100 C   0  0  1  0  0  3  0  0  0  0  0  0
  185.4390  178.6880  142.5610 C   0  0  0  0  0  2  0  0  0  0  0  0
  187.6650  177.1340  145.1650 C   0  0  1  0  0  3  0  0  0  0  0  0
  186.0010  177.1860  147.1200 C   0  0  0  0  0  3  0  0  0  0  0  0
  187.3600  175.9850  140.6970 C   0  0  0  0  0  2  0  0  0  0  0  0
  186.2590  178.0520  141.4280 C   0  0  0  0  0  2  0  0  0  0  0  0
  187.3480  177.6070  146.5900 C   0  0  0  0  0  2  0  0  0  0  0  0
  190.2210  176.6810  142.8420 O   0  0  0  0  0  1  0  0  0  0  0  0
  187.2380  176.9400  141.8660 C   0  0  1  0  0  3  0  0  0  0  0  0
  188.1860  175.7770  145.1070 N   0  0  2  0  0  0  0  0  0  0  0  0
  185.5740  179.4360  144.9950 C   0  0  0  0  0  2  0  0  0  0  0  0
  188.8350  174.2350  141.6490 C   0  0  1  0  0  3  0  0  0  0  0  0
  184.7950  177.6590  146.7390 C   0  0  0  0  0  3  0  0  0  0  0  0
  189.6500  175.8860  145.0100 C   0  0  1  0  0  3  0  0  0  0  0  0
  188.7420  175.3740  140.6510 C   0  0  0  0  0  2  0  0  0  0  0  0
  191.0320  173.6920  140.5150 C   0  0  0  0  0  3  0  0  0  0  0  0
  189.9390  173.2850  141.2970 C   0  0  0  0  0  0  0  0  0  0  0  0
  189.8870  171.9750  141.7820 C   0  0  0  0  0  3  0  0  0  0  0  0
  190.8500  169.6800  141.9980 C   0  0  0  0  0  1  0  0  0  0  0  0
  191.9970  171.4790  140.6990 C   0  0  0  0  0  3  0  0  0  0  0  0
  190.9120  171.0710  141.4820 C   0  0  0  0  0  0  0  0  0  0  0  0
  192.0570  172.7900  140.2160 C   0  0  0  0  0  3  0  0  0  0  0  0
  190.2400  175.0090  145.9240 O   0  0  0  0  0  0  0  0  0  0  0  0
  191.5910  174.9430  145.5600 C   0  0  2  0  0  3  0  0  0  0  0  0
  192.0290  173.4900  145.3880 C   0  0  0  0  0  2  0  0  0  0  0  0
  192.6820  173.2430  144.0370 C   0  0  0  0  0  1  0  0  0  0  0  0
  192.4540  175.6450  146.6000 C   0  0  0  0  0  2  0  0  0  0  0  0
  194.9410  175.6650  146.1380 C   0  0  0  0  0  1  0  0  0  0  0  0
  193.6140  176.3840  145.9330 C   0  0  1  0  0  3  0  0  0  0  0  0
  194.5070  176.4150  143.8150 C   0  0  0  0  0  1  0  0  0  0  0  0
  193.3670  176.7160  144.5810 O   0  0  0  0  0  0  0  0  0  0  0  0
  1 19  1  0  0  0  0
  2  5  1  0  0  0  0
  2  6  1  0  0  0  0
  3 20  1  0  0  0  0
  4  6  1  0  0  0  0
  4 17  1  0  0  0  0
  5 16  1  0  0  0  0
  6  9  1  0  0  0  0
  7  3  1  0  0  0  0
  7  5  1  0  0  0  0
  8  4  1  0  0  0  0
  9 13  1  0  0  0  0
 11 15  1  0  0  0  0
 12 15  1  0  0  0  0
 12  8  1  0  0  0  0
 13 10  1  0  0  0  0
 14  3  1  0  0  0  0
 15  2  1  0  0  0  0
 16  9  1  0  0  0  0
 17  1  1  0  0  0  0
 18  7  1  0  0  0  0
 19 10  2  0  0  0  0
 20 16  1  0  0  0  0
 20 29  1  0  0  0  0
 21 11  1  0  0  0  0
 21 18  1  0  0  0  0
 22 23  1  0  0  0  0
 23 18  1  0  0  0  0
 23 24  2  0  0  0  0
 26 27  2  0  0  0  0
 27 24  1  0  0  0  0
 27 25  1  0  0  0  0
 28 22  2  0  0  0  0
 28 26  1  0  0  0  0
 30 29  1  0  0  0  0
 30 33  1  0  0  0  0
 31 30  1  0  0  0  0
 32 31  1  0  0  0  0
 35 34  1  0  0  0  0
 35 33  1  0  0  0  0
 36 37  1  0  0  0  0
 37 35  1  0  0  0  0
M  END
>  <MODEL>
6

>  <REMARK>
 VINA RESULT:      -7.5      1.768      5.373
  Name = 
  7 active torsions:
  status: ('A' for Active; 'I' for Inactive)
    1  A    between atoms: C_5  and  C_17
    2  A    between atoms: C_5  and  O_23
    3  A    between atoms: C_6  and  C_31
    4  A    between atoms: C_11  and  C_26
    5  A    between atoms: C_17  and  C_26
    6  A    between atoms: C_26  and  O_33
    7  A    between atoms: O_33  and  C_36
                            x       y       z     vdW  Elec       q    Type
                         _______ _______ _______ _____ _____    ______ ____

>  <TORSDO>
F 7

$$$$
=
 OpenBabel11052420063D

 37 42  0  0  1  0  0  0  0  0999 V2000
  184.8220  178.5070  147.1020 C   0  0  0  0  0  2  0  0  0  0  0  0
  186.1900  176.8110  143.4650 C   0  0  1  0  0  3  0  0  0  0  0  0
  189.4790  176.2150  142.6850 C   0  0  1  0  0  3  0  0  0  0  0  0
  185.9560  178.9850  144.8500 C   0  0  1  0  0  3  0  0  0  0  0  0
  187.2860  175.7200  143.5740 C   0  0  1  0  0  3  0  0  0  0  0  0
  186.2900  177.5010  144.8100 C   0  0  2  0  0  3  0  0  0  0  0  0
  188.2090  175.4560  142.4020 C   0  0  1  0  0  3  0  0  0  0  0  0
  184.8010  179.2740  143.9140 C   0  0  0  0  0  2  0  0  0  0  0  0
  187.7050  177.2960  145.2590 C   0  0  1  0  0  3  0  0  0  0  0  0
  186.7430  176.8090  147.5900 C   0  0  0  0  0  3  0  0  0  0  0  0
  185.9850  177.1770  140.9680 C   0  0  0  0  0  2  0  0  0  0  0  0
  185.2100  178.9590  142.4670 C   0  0  0  0  0  2  0  0  0  0  0  0
  187.8620  177.4150  146.7810 C   0  0  0  0  0  2  0  0  0  0  0  0
  189.3890  177.5270  142.2180 O   0  0  0  0  0  1  0  0  0  0  0  0
  186.2560  177.8340  142.3070 C   0  0  1  0  0  3  0  0  0  0  0  0
  188.1550  176.0190  144.7280 N   0  0  2  0  0  0  0  0  0  0  0  0
  185.7100  179.4560  146.2890 C   0  0  0  0  0  2  0  0  0  0  0  0
  187.6520  175.3420  140.9790 C   0  0  1  0  0  3  0  0  0  0  0  0
  185.4870  177.2880  147.7230 C   0  0  0  0  0  3  0  0  0  0  0  0
  189.5150  176.2300  144.2080 C   0  0  1  0  0  3  0  0  0  0  0  0
  187.2700  176.6710  140.3550 C   0  0  0  0  0  2  0  0  0  0  0  0
  188.3540  174.4810  138.7050 C   0  0  0  0  0  3  0  0  0  0  0  0
  188.5700  174.5610  140.0900 C   0  0  0  0  0  0  0  0  0  0  0  0
  189.6780  173.9200  140.6540 C   0  0  0  0  0  3  0  0  0  0  0  0
  191.7340  172.5170  140.4510 C   0  0  0  0  0  1  0  0  0  0  0  0
  190.3400  173.1160  138.4670 C   0  0  0  0  0  3  0  0  0  0  0  0
  190.5610  173.1970  139.8460 C   0  0  0  0  0  0  0  0  0  0  0  0
  189.2370  173.7590  137.8970 C   0  0  0  0  0  3  0  0  0  0  0  0
  190.3470  175.2020  144.6630 O   0  0  0  0  0  0  0  0  0  0  0  0
  191.6440  175.5800  144.2920 C   0  0  2  0  0  3  0  0  0  0  0  0
  192.6150  174.4160  144.4790 C   0  0  0  0  0  2  0  0  0  0  0  0
  193.5710  174.2710  143.3050 C   0  0  0  0  0  1  0  0  0  0  0  0
  192.0930  176.7900  145.1010 C   0  0  0  0  0  2  0  0  0  0  0  0
  194.1870  176.7970  146.5220 C   0  0  0  0  0  1  0  0  0  0  0  0
  192.7320  176.3540  146.4200 C   0  0  1  0  0  3  0  0  0  0  0  0
  191.1940  175.5950  147.9510 C   0  0  0  0  0  1  0  0  0  0  0  0
  191.9670  176.7010  147.5580 O   0  0  0  0  0  0  0  0  0  0  0  0
  1 19  1  0  0  0  0
  2  5  1  0  0  0  0
  2  6  1  0  0  0  0
  3 20  1  0  0  0  0
  4 17  1  0  0  0  0
  5 16  1  0  0  0  0
  6  4  1  0  0  0  0
  6  9  1  0  0  0  0
  7  3  1  0  0  0  0
  7  5  1  0  0  0  0
  8  4  1  0  0  0  0
  9 13  1  0  0  0  0
 10 19  2  0  0  0  0
 11 15  1  0  0  0  0
 12  8  1  0  0  0  0
 13 10  1  0  0  0  0
 14  3  1  0  0  0  0
 15 12  1  0  0  0  0
 15  2  1  0  0  0  0
 16  9  1  0  0  0  0
 17  1  1  0  0  0  0
 18  7  1  0  0  0  0
 20 29  1  0  0  0  0
 20 16  1  0  0  0  0
 21 11  1  0  0  0  0
 21 18  1  0  0  0  0
 22 23  1  0  0  0  0
 23 24  2  0  0  0  0
 23 18  1  0  0  0  0
 26 27  2  0  0  0  0
 27 25  1  0  0  0  0
 27 24  1  0  0  0  0
 28 26  1  0  0  0  0
 28 22  2  0  0  0  0
 30 31  1  0  0  0  0
 30 29  1  0  0  0  0
 30 33  1  0  0  0  0
 32 31  1  0  0  0  0
 33 35  1  0  0  0  0
 35 34  1  0  0  0  0
 35 37  1  0  0  0  0
 37 36  1  0  0  0  0
M  END
>  <MODEL>
7

>  <REMARK>
 VINA RESULT:      -7.5      1.804      5.853
  Name = 
  7 active torsions:
  status: ('A' for Active; 'I' for Inactive)
    1  A    between atoms: C_5  and  C_17
    2  A    between atoms: C_5  and  O_23
    3  A    between atoms: C_6  and  C_31
    4  A    between atoms: C_11  and  C_26
    5  A    between atoms: C_17  and  C_26
    6  A    between atoms: C_26  and  O_33
    7  A    between atoms: O_33  and  C_36
                            x       y       z     vdW  Elec       q    Type
                         _______ _______ _______ _____ _____    ______ ____

>  <TORSDO>
F 7

$$$$
=
 OpenBabel11052420063D

 37 42  0  0  1  0  0  0  0  0999 V2000
  186.2980  178.2320  143.9040 C   0  0  0  0  0  2  0  0  0  0  0  0
  190.2720  177.1980  144.9590 C   0  0  1  0  0  3  0  0  0  0  0  0
  191.9790  174.4700  143.7660 C   0  0  1  0  0  3  0  0  0  0  0  0
  187.7650  176.6410  145.2830 C   0  0  1  0  0  3  0  0  0  0  0  0
  191.2080  176.7610  143.8030 C   0  0  1  0  0  3  0  0  0  0  0  0
  188.8990  177.0230  144.3430 C   0  0  2  0  0  3  0  0  0  0  0  0
  192.4040  175.8780  144.0920 C   0  0  1  0  0  3  0  0  0  0  0  0
  187.9360  177.3570  146.6070 C   0  0  0  0  0  2  0  0  0  0  0  0
  189.0620  175.9590  143.3010 C   0  0  1  0  0  3  0  0  0  0  0  0
  187.5870  177.4170  141.7860 C   0  0  0  0  0  3  0  0  0  0  0  0
  191.6740  176.7850  147.0260 C   0  0  0  0  0  2  0  0  0  0  0  0
  189.2360  176.8990  147.2850 C   0  0  0  0  0  2  0  0  0  0  0  0
  187.9780  176.0260  142.2160 C   0  0  0  0  0  2  0  0  0  0  0  0
  191.3660  173.8680  144.8660 O   0  0  0  0  0  1  0  0  0  0  0  0
  190.3680  176.4750  146.3220 C   0  0  1  0  0  3  0  0  0  0  0  0
  190.4150  176.0620  142.7750 N   0  0  2  0  0  0  0  0  0  0  0  0
  186.4000  176.8840  144.6270 C   0  0  0  0  0  2  0  0  0  0  0  0
  193.3250  176.1740  145.2810 C   0  0  1  0  0  3  0  0  0  0  0  0
  186.8730  178.3160  142.4980 C   0  0  0  0  0  3  0  0  0  0  0  0
  190.9380  174.6910  142.6760 C   0  0  1  0  0  3  0  0  0  0  0  0
  192.7410  175.7920  146.6280 C   0  0  0  0  0  2  0  0  0  0  0  0
  195.1650  174.5560  145.9150 C   0  0  0  0  0  3  0  0  0  0  0  0
  194.6860  175.5810  145.0830 C   0  0  0  0  0  0  0  0  0  0  0  0
  195.4820  176.0430  144.0300 C   0  0  0  0  0  3  0  0  0  0  0  0
  197.5910  175.9920  142.6940 C   0  0  0  0  0  1  0  0  0  0  0  0
  197.2250  174.4780  144.6470 C   0  0  0  0  0  3  0  0  0  0  0  0
  196.7500  175.4950  143.8120 C   0  0  0  0  0  0  0  0  0  0  0  0
  196.4320  174.0080  145.6980 C   0  0  0  0  0  3  0  0  0  0  0  0
  191.5330  174.5130  141.4230 O   0  0  0  0  0  0  0  0  0  0  0  0
  190.9570  173.3500  140.8970 C   0  0  2  0  0  3  0  0  0  0  0  0
  190.2680  173.6480  139.5670 C   0  0  0  0  0  2  0  0  0  0  0  0
  188.7520  173.6490  139.6930 C   0  0  0  0  0  1  0  0  0  0  0  0
  189.9710  172.7520  141.8920 C   0  0  0  0  0  2  0  0  0  0  0  0
  190.7270  170.5510  140.8980 C   0  0  0  0  0  1  0  0  0  0  0  0
  190.2980  171.2840  142.1640 C   0  0  1  0  0  3  0  0  0  0  0  0
  192.2580  170.2790  142.8240 C   0  0  0  0  0  1  0  0  0  0  0  0
  191.1940  171.0970  143.2420 O   0  0  0  0  0  0  0  0  0  0  0  0
  1 17  1  0  0  0  0
  2 15  1  0  0  0  0
  3  7  1  0  0  0  0
  3 14  1  0  0  0  0
  4  8  1  0  0  0  0
  5  7  1  0  0  0  0
  5  2  1  0  0  0  0
  6  2  1  0  0  0  0
  6  4  1  0  0  0  0
  7 18  1  0  0  0  0
  8 12  1  0  0  0  0
  9  6  1  0  0  0  0
 10 13  1  0  0  0  0
 10 19  2  0  0  0  0
 13  9  1  0  0  0  0
 15 11  1  0  0  0  0
 15 12  1  0  0  0  0
 16  9  1  0  0  0  0
 16  5  1  0  0  0  0
 17  4  1  0  0  0  0
 18 21  1  0  0  0  0
 19  1  1  0  0  0  0
 20 16  1  0  0  0  0
 20  3  1  0  0  0  0
 21 11  1  0  0  0  0
 23 18  1  0  0  0  0
 23 22  2  0  0  0  0
 24 23  1  0  0  0  0
 25 27  1  0  0  0  0
 26 28  2  0  0  0  0
 27 24  2  0  0  0  0
 27 26  1  0  0  0  0
 28 22  1  0  0  0  0
 29 20  1  0  0  0  0
 30 29  1  0  0  0  0
 30 33  1  0  0  0  0
 31 32  1  0  0  0  0
 31 30  1  0  0  0  0
 33 35  1  0  0  0  0
 34 35  1  0  0  0  0
 35 37  1  0  0  0  0
 36 37  1  0  0  0  0
M  END
>  <MODEL>
8

>  <REMARK>
 VINA RESULT:      -7.5      1.493      2.250
  Name = 
  7 active torsions:
  status: ('A' for Active; 'I' for Inactive)
    1  A    between atoms: C_5  and  C_17
    2  A    between atoms: C_5  and  O_23
    3  A    between atoms: C_6  and  C_31
    4  A    between atoms: C_11  and  C_26
    5  A    between atoms: C_17  and  C_26
    6  A    between atoms: C_26  and  O_33
    7  A    between atoms: O_33  and  C_36
                            x       y       z     vdW  Elec       q    Type
                         _______ _______ _______ _____ _____    ______ ____

>  <TORSDO>
F 7

$$$$
=
 OpenBabel11052420063D

 37 42  0  0  1  0  0  0  0  0999 V2000
  194.2450  172.5210  144.8630 C   0  0  0  0  0  2  0  0  0  0  0  0
  191.0020  174.9810  146.0510 C   0  0  1  0  0  3  0  0  0  0  0  0
  188.8800  176.6130  143.9040 C   0  0  1  0  0  3  0  0  0  0  0  0
  193.4100  174.9360  145.1020 C   0  0  1  0  0  3  0  0  0  0  0  0
  189.6680  174.7920  145.2840 C   0  0  1  0  0  3  0  0  0  0  0  0
  192.0050  174.3500  145.1070 C   0  0  2  0  0  3  0  0  0  0  0  0
  188.6640  175.9240  145.2250 C   0  0  1  0  0  3  0  0  0  0  0  0
  193.8070  175.3220  146.5120 C   0  0  0  0  0  2  0  0  0  0  0  0
  191.4050  174.4840  143.7400 C   0  0  1  0  0  3  0  0  0  0  0  0
  192.1900  172.0750  143.3180 C   0  0  0  0  0  3  0  0  0  0  0  0
  190.5380  176.9780  147.5360 C   0  0  0  0  0  2  0  0  0  0  0  0
  192.8760  176.4270  147.0330 C   0  0  0  0  0  2  0  0  0  0  0  0
  191.9640  173.4520  142.7500 C   0  0  0  0  0  2  0  0  0  0  0  0
  189.8650  177.5960  144.0100 O   0  0  0  0  0  1  0  0  0  0  0  0
  191.4410  176.4050  146.4620 C   0  0  1  0  0  3  0  0  0  0  0  0
  189.9600  174.4230  143.8870 N   0  0  2  0  0  0  0  0  0  0  0  0
  194.4020  173.9820  144.4260 C   0  0  0  0  0  2  0  0  0  0  0  0
  188.3070  176.7190  146.4860 C   0  0  1  0  0  3  0  0  0  0  0  0
  193.1560  171.7030  144.1860 C   0  0  0  0  0  3  0  0  0  0  0  0
  189.4000  175.4790  143.0290 C   0  0  1  0  0  3  0  0  0  0  0  0
  189.3730  177.7110  146.9150 C   0  0  0  0  0  2  0  0  0  0  0  0
  186.0140  177.2880  147.3930 C   0  0  0  0  0  3  0  0  0  0  0  0
  186.9650  177.3720  146.3630 C   0  0  0  0  0  0  0  0  0  0  0  0
  186.6680  178.1010  145.2070 C   0  0  0  0  0  3  0  0  0  0  0  0
  185.1180  179.5040  143.8410 C   0  0  0  0  0  1  0  0  0  0  0  0
  184.4820  178.6440  146.0990 C   0  0  0  0  0  3  0  0  0  0  0  0
  185.4280  178.7340  145.0730 C   0  0  0  0  0  0  0  0  0  0  0  0
  184.7750  177.9210  147.2590 C   0  0  0  0  0  3  0  0  0  0  0  0
  188.3470  174.9530  142.2750 O   0  0  0  0  0  0  0  0  0  0  0  0
  188.2030  175.8150  141.1800 C   0  0  2  0  0  3  0  0  0  0  0  0
  186.9260  176.6420  141.3140 C   0  0  0  0  0  2  0  0  0  0  0  0
  186.7450  177.6090  140.1550 C   0  0  0  0  0  1  0  0  0  0  0  0
  188.1960  175.0210  139.8810 C   0  0  0  0  0  2  0  0  0  0  0  0
  188.1940  172.4940  139.7570 C   0  0  0  0  0  1  0  0  0  0  0  0
  189.0250  173.7440  140.0210 C   0  0  1  0  0  3  0  0  0  0  0  0
  190.3210  172.6110  138.4980 C   0  0  0  0  0  1  0  0  0  0  0  0
  190.2320  173.7710  139.2850 O   0  0  0  0  0  0  0  0  0  0  0  0
  2 15  1  0  0  0  0
  3 14  1  0  0  0  0
  3  7  1  0  0  0  0
  4  6  1  0  0  0  0
  4  8  1  0  0  0  0
  5  2  1  0  0  0  0
  6  2  1  0  0  0  0
  7  5  1  0  0  0  0
  7 18  1  0  0  0  0
  8 12  1  0  0  0  0
  9 16  1  0  0  0  0
  9  6  1  0  0  0  0
 10 19  2  0  0  0  0
 13 10  1  0  0  0  0
 13  9  1  0  0  0  0
 15 12  1  0  0  0  0
 15 11  1  0  0  0  0
 16  5  1  0  0  0  0
 17  1  1  0  0  0  0
 17  4  1  0  0  0  0
 18 21  1  0  0  0  0
 19  1  1  0  0  0  0
 20 16  1  0  0  0  0
 20  3  1  0  0  0  0
 21 11  1  0  0  0  0
 23 18  1  0  0  0  0
 23 22  2  0  0  0  0
 24 23  1  0  0  0  0
 25 27  1  0  0  0  0
 26 28  2  0  0  0  0
 27 24  2  0  0  0  0
 27 26  1  0  0  0  0
 28 22  1  0  0  0  0
 29 20  1  0  0  0  0
 30 31  1  0  0  0  0
 30 29  1  0  0  0  0
 32 31  1  0  0  0  0
 33 35  1  0  0  0  0
 33 30  1  0  0  0  0
 34 35  1  0  0  0  0
 36 37  1  0  0  0  0
 37 35  1  0  0  0  0
M  END
>  <MODEL>
9

>  <REMARK>
 VINA RESULT:      -7.4      1.597      6.440
  Name = 
  7 active torsions:
  status: ('A' for Active; 'I' for Inactive)
    1  A    between atoms: C_5  and  C_17
    2  A    between atoms: C_5  and  O_23
    3  A    between atoms: C_6  and  C_31
    4  A    between atoms: C_11  and  C_26
    5  A    between atoms: C_17  and  C_26
    6  A    between atoms: C_26  and  O_33
    7  A    between atoms: O_33  and  C_36
                            x       y       z     vdW  Elec       q    Type
                         _______ _______ _______ _____ _____    ______ ____

>  <TORSDO>
F 7

$$$$
