=
 OpenBabel11052419073D

 32 34  0  0  1  0  0  0  0  0999 V2000
  188.1110  175.4090  142.7320 C   0  0  1  0  0  3  0  0  0  0  0  0
  190.1850  176.1900  143.7520 O   0  0  0  0  0  0  0  0  0  0  0  0
  187.4180  174.1850  142.1270 C   0  0  0  0  0  2  0  0  0  0  0  0
  189.5280  175.0520  143.2290 C   0  0  2  0  0  3  0  0  0  0  0  0
  191.3780  175.8070  144.4160 C   0  0  1  0  0  0  0  0  0  0  0  0
  192.1430  175.2220  146.6520 C   0  0  2  0  0  3  0  0  0  0  0  0
  192.6080  176.6400  146.3740 C   0  0  2  0  0  3  0  0  0  0  0  0
  190.3630  174.3690  142.1350 C   0  0  1  0  0  3  0  0  0  0  0  0
  192.0070  177.0470  145.0400 C   0  0  0  0  0  2  0  0  0  0  0  0
  191.7080  173.9520  142.7140 C   0  0  0  0  0  2  0  0  0  0  0  0
  189.6350  173.1380  141.6050 C   0  0  0  0  0  2  0  0  0  0  0  0
  191.0930  174.9000  145.6120 C   0  0  0  0  0  2  0  0  0  0  0  0
  192.3730  175.1270  143.4370 C   0  0  1  0  0  3  0  0  0  0  0  0
  188.2740  173.5340  141.0410 C   0  0  0  0  0  2  0  0  0  0  0  0
  191.5370  175.1320  148.0370 C   0  0  0  0  0  1  0  0  0  0  0  0
  192.9930  176.0800  142.4470 C   0  0  0  0  0  3  0  0  0  0  0  0
  194.1810  176.0230  142.1680 O   0  0  0  0  0  0  0  0  0  0  0  0
  188.9740  177.5960  142.1380 O   0  0  0  0  0  1  0  0  0  0  0  0
  188.0170  176.6340  141.8010 C   0  0  2  0  0  3  0  0  0  0  0  0
  186.6120  177.2480  141.7950 C   0  0  2  0  0  3  0  0  0  0  0  0
  185.2700  178.4480  140.2290 O   0  0  0  0  0  1  0  0  0  0  0  0
  186.1730  177.5900  140.4050 C   0  0  0  0  0  0  0  0  0  0  0  0
  186.7560  176.9660  139.3080 O   0  0  0  0  0  0  0  0  0  0  0  0
  186.5570  178.4930  142.6700 C   0  0  0  0  0  2  0  0  0  0  0  0
  184.5240  179.2310  143.7010 O   0  0  0  0  0  1  0  0  0  0  0  0
  185.5620  178.3020  143.8040 C   0  0  2  0  0  3  0  0  0  0  0  0
  186.2540  178.4530  145.1170 C   0  0  0  0  0  0  0  0  0  0  0  0
  187.4920  177.7890  145.3400 N   0  0  0  0  0  1  0  0  0  0  0  0
  185.7690  179.1910  146.0150 O   0  0  0  0  0  0  0  0  0  0  0  0
  194.1270  176.6910  146.2810 C   0  0  0  0  0  2  0  0  0  0  0  0
  195.7330  175.1290  145.1810 C   0  0  0  0  0  1  0  0  0  0  0  0
  194.7310  175.2950  146.3080 C   0  0  0  0  0  2  0  0  0  0  0  0
  1 19  1  6  0  0  0
  1  4  1  0  0  0  0
  2  5  1  0  0  0  0
  3  1  1  0  0  0  0
  4  2  1  6  0  0  0
  5  9  1  1  0  0  0
  5 12  1  0  0  0  0
  6 15  1  1  0  0  0
  7 30  1  6  0  0  0
  7  6  1  0  0  0  0
  8 11  1  1  0  0  0
  8 10  1  0  0  0  0
  8  4  1  0  0  0  0
  9  7  1  0  0  0  0
 10 13  1  0  0  0  0
 12  6  1  0  0  0  0
 13 16  1  6  0  0  0
 13  5  1  0  0  0  0
 14 11  1  0  0  0  0
 14  3  1  0  0  0  0
 17 16  2  0  0  0  0
 19 18  1  1  0  0  0
 20 19  1  0  0  0  0
 20 24  1  1  0  0  0
 21 22  1  0  0  0  0
 22 20  1  0  0  0  0
 23 22  2  0  0  0  0
 24 26  1  0  0  0  0
 26 25  1  6  0  0  0
 26 27  1  0  0  0  0
 27 28  1  0  0  0  0
 27 29  2  0  0  0  0
 30 32  1  0  0  0  0
 31 32  1  0  0  0  0
M  END
>  <MODEL>
1

>  <REMARK>
 VINA RESULT:      -6.6      0.000      0.000
  Name = 
  9 active torsions:
  status: ('A' for Active; 'I' for Inactive)
    1  A    between atoms: C_1  and  C_27
    2  A    between atoms: C_7  and  C_15
    3  A    between atoms: C_11  and  C_12
    4  A    between atoms: C_11  and  C_31
    5  A    between atoms: C_13  and  C_29
    6  A    between atoms: C_15  and  C_20
    7  A    between atoms: C_16  and  C_20
    8  A    between atoms: C_16  and  C_22
    9  A    between atoms: C_16  and  C_27
                            x       y       z     vdW  Elec       q    Type
                         _______ _______ _______ _____ _____    ______ ____

>  <TORSDO>
F 9

$$$$
=
 OpenBabel11052419073D

 32 34  0  0  1  0  0  0  0  0999 V2000
  191.6070  174.4620  145.5690 C   0  0  1  0  0  3  0  0  0  0  0  0
  189.4470  175.3450  144.8570 O   0  0  0  0  0  0  0  0  0  0  0  0
  192.9850  174.8570  146.1060 C   0  0  0  0  0  2  0  0  0  0  0  0
  190.7070  175.7030  145.3910 C   0  0  2  0  0  3  0  0  0  0  0  0
  188.5550  176.4460  144.9220 C   0  0  1  0  0  0  0  0  0  0  0  0
  186.8640  177.3700  146.4090 C   0  0  2  0  0  3  0  0  0  0  0  0
  186.1340  176.6880  145.2660 C   0  0  2  0  0  3  0  0  0  0  0  0
  191.3910  176.7900  144.5470 C   0  0  1  0  0  3  0  0  0  0  0  0
  187.1880  175.9940  144.4220 C   0  0  0  0  0  2  0  0  0  0  0  0
  190.4980  178.0220  144.4930 C   0  0  0  0  0  2  0  0  0  0  0  0
  192.7370  177.1650  145.1580 C   0  0  0  0  0  2  0  0  0  0  0  0
  188.2930  176.8770  146.3640 C   0  0  0  0  0  2  0  0  0  0  0  0
  189.0740  177.6410  144.0780 C   0  0  1  0  0  3  0  0  0  0  0  0
  193.6370  175.9360  145.2410 C   0  0  0  0  0  2  0  0  0  0  0  0
  186.2330  176.9900  147.7330 C   0  0  0  0  0  1  0  0  0  0  0  0
  188.9980  177.4090  142.5900 C   0  0  0  0  0  3  0  0  0  0  0  0
  188.7610  178.3240  141.8160 O   0  0  0  0  0  0  0  0  0  0  0  0
  190.8290  172.4620  144.4410 O   0  0  0  0  0  1  0  0  0  0  0  0
  191.7200  173.5350  144.3420 C   0  0  2  0  0  3  0  0  0  0  0  0
  193.1520  173.0310  144.1290 C   0  0  2  0  0  3  0  0  0  0  0  0
  194.3560  172.3840  142.1740 O   0  0  0  0  0  1  0  0  0  0  0  0
  193.5930  173.2270  142.7130 C   0  0  0  0  0  0  0  0  0  0  0  0
  193.1670  174.3350  141.9890 O   0  0  0  0  0  0  0  0  0  0  0  0
  193.2750  171.5600  144.5050 C   0  0  0  0  0  2  0  0  0  0  0  0
  195.3560  172.2520  145.4680 O   0  0  0  0  0  1  0  0  0  0  0  0
  194.2760  171.3810  145.6340 C   0  0  2  0  0  3  0  0  0  0  0  0
  194.7590  169.9710  145.6680 C   0  0  0  0  0  0  0  0  0  0  0  0
  194.8570  169.2900  146.9130 N   0  0  0  0  0  1  0  0  0  0  0  0
  195.0460  169.3670  144.6000 O   0  0  0  0  0  0  0  0  0  0  0  0
  185.4010  177.7180  144.4160 C   0  0  0  0  0  2  0  0  0  0  0  0
  185.6070  180.1630  143.9640 C   0  0  0  0  0  1  0  0  0  0  0  0
  185.4720  179.1030  145.0400 C   0  0  0  0  0  2  0  0  0  0  0  0
  1 19  1  6  0  0  0
  1  3  1  0  0  0  0
  2  5  1  0  0  0  0
  4  2  1  6  0  0  0
  4  1  1  0  0  0  0
  5  9  1  6  0  0  0
  5 12  1  0  0  0  0
  6 15  1  1  0  0  0
  7 30  1  6  0  0  0
  7  6  1  0  0  0  0
  8 10  1  1  0  0  0
  8 11  1  0  0  0  0
  8  4  1  0  0  0  0
  9  7  1  0  0  0  0
 11 14  1  0  0  0  0
 12  6  1  0  0  0  0
 13 16  1  6  0  0  0
 13 10  1  0  0  0  0
 13  5  1  0  0  0  0
 14  3  1  0  0  0  0
 17 16  2  0  0  0  0
 19 18  1  1  0  0  0
 20 19  1  0  0  0  0
 20 24  1  6  0  0  0
 21 22  1  0  0  0  0
 22 20  1  0  0  0  0
 23 22  2  0  0  0  0
 24 26  1  0  0  0  0
 26 25  1  6  0  0  0
 26 27  1  0  0  0  0
 27 28  1  0  0  0  0
 29 27  2  0  0  0  0
 30 32  1  0  0  0  0
 31 32  1  0  0  0  0
M  END
>  <MODEL>
2

>  <REMARK>
 VINA RESULT:      -6.3      3.381      7.860
  Name = 
  9 active torsions:
  status: ('A' for Active; 'I' for Inactive)
    1  A    between atoms: C_1  and  C_27
    2  A    between atoms: C_7  and  C_15
    3  A    between atoms: C_11  and  C_12
    4  A    between atoms: C_11  and  C_31
    5  A    between atoms: C_13  and  C_29
    6  A    between atoms: C_15  and  C_20
    7  A    between atoms: C_16  and  C_20
    8  A    between atoms: C_16  and  C_22
    9  A    between atoms: C_16  and  C_27
                            x       y       z     vdW  Elec       q    Type
                         _______ _______ _______ _____ _____    ______ ____

>  <TORSDO>
F 9

$$$$
=
 OpenBabel11052419073D

 32 34  0  0  1  0  0  0  0  0999 V2000
  190.2620  174.3950  145.7040 C   0  0  1  0  0  3  0  0  0  0  0  0
  188.3310  175.6340  144.8730 O   0  0  0  0  0  0  0  0  0  0  0  0
  191.6930  174.5460  146.2270 C   0  0  0  0  0  2  0  0  0  0  0  0
  189.6400  175.7730  145.3940 C   0  0  2  0  0  3  0  0  0  0  0  0
  187.6870  176.8970  144.8180 C   0  0  1  0  0  0  0  0  0  0  0  0
  186.2280  178.2890  146.1800 C   0  0  2  0  0  3  0  0  0  0  0  0
  185.3700  177.6660  145.0930 C   0  0  2  0  0  3  0  0  0  0  0  0
  190.5330  176.6080  144.4630 C   0  0  1  0  0  3  0  0  0  0  0  0
  186.2560  176.6910  144.3370 C   0  0  0  0  0  2  0  0  0  0  0  0
  189.9150  177.9880  144.2770 C   0  0  0  0  0  2  0  0  0  0  0  0
  191.9280  176.7540  145.0610 C   0  0  0  0  0  2  0  0  0  0  0  0
  187.5240  177.5090  146.2080 C   0  0  0  0  0  2  0  0  0  0  0  0
  188.4420  177.8720  143.8740 C   0  0  1  0  0  3  0  0  0  0  0  0
  192.5540  175.3790  145.2760 C   0  0  0  0  0  2  0  0  0  0  0  0
  185.5350  178.1770  147.5220 C   0  0  0  0  0  1  0  0  0  0  0  0
  188.3160  177.5180  142.4140 C   0  0  0  0  0  3  0  0  0  0  0  0
  188.6690  178.2960  141.5390 O   0  0  0  0  0  0  0  0  0  0  0  0
  189.5890  172.1670  145.0250 O   0  0  0  0  0  1  0  0  0  0  0  0
  190.1770  173.3520  144.5730 C   0  0  2  0  0  3  0  0  0  0  0  0
  191.5470  173.0690  143.9450 C   0  0  2  0  0  3  0  0  0  0  0  0
  192.2530  174.2950  142.0240 O   0  0  0  0  0  1  0  0  0  0  0  0
  191.5440  173.3590  142.4770 C   0  0  0  0  0  0  0  0  0  0  0  0
  190.7630  172.6030  141.6100 O   0  0  0  0  0  0  0  0  0  0  0  0
  191.9680  171.6240  144.1800 C   0  0  0  0  0  2  0  0  0  0  0  0
  193.7220  170.0480  143.7540 O   0  0  0  0  0  1  0  0  0  0  0  0
  193.4040  171.4090  143.7320 C   0  0  2  0  0  3  0  0  0  0  0  0
  194.3330  172.1640  144.6220 C   0  0  0  0  0  0  0  0  0  0  0  0
  195.2100  173.1340  144.0620 N   0  0  0  0  0  1  0  0  0  0  0  0
  194.3220  171.9740  145.8670 O   0  0  0  0  0  0  0  0  0  0  0  0
  184.8660  178.7390  144.1370 C   0  0  0  0  0  2  0  0  0  0  0  0
  183.3880  178.2660  142.1830 C   0  0  0  0  0  1  0  0  0  0  0  0
  184.8100  178.2240  142.7070 C   0  0  0  0  0  2  0  0  0  0  0  0
  1 19  1  6  0  0  0
  1  3  1  0  0  0  0
  4  2  1  6  0  0  0
  4  1  1  0  0  0  0
  5  9  1  6  0  0  0
  5  2  1  0  0  0  0
  5 12  1  0  0  0  0
  6 12  1  0  0  0  0
  6 15  1  1  0  0  0
  7 30  1  6  0  0  0
  7  6  1  0  0  0  0
  8 10  1  1  0  0  0
  8 11  1  0  0  0  0
  8  4  1  0  0  0  0
  9  7  1  0  0  0  0
 11 14  1  0  0  0  0
 13 16  1  6  0  0  0
 13 10  1  0  0  0  0
 13  5  1  0  0  0  0
 14  3  1  0  0  0  0
 17 16  2  0  0  0  0
 19 18  1  1  0  0  0
 20 24  1  6  0  0  0
 20 19  1  0  0  0  0
 21 22  1  0  0  0  0
 22 20  1  0  0  0  0
 23 22  2  0  0  0  0
 26 25  1  1  0  0  0
 26 24  1  0  0  0  0
 26 27  1  0  0  0  0
 27 29  2  0  0  0  0
 28 27  1  0  0  0  0
 31 32  1  0  0  0  0
 32 30  1  0  0  0  0
M  END
>  <MODEL>
3

>  <REMARK>
 VINA RESULT:      -6.3      2.997      7.465
  Name = 
  9 active torsions:
  status: ('A' for Active; 'I' for Inactive)
    1  A    between atoms: C_1  and  C_27
    2  A    between atoms: C_7  and  C_15
    3  A    between atoms: C_11  and  C_12
    4  A    between atoms: C_11  and  C_31
    5  A    between atoms: C_13  and  C_29
    6  A    between atoms: C_15  and  C_20
    7  A    between atoms: C_16  and  C_20
    8  A    between atoms: C_16  and  C_22
    9  A    between atoms: C_16  and  C_27
                            x       y       z     vdW  Elec       q    Type
                         _______ _______ _______ _____ _____    ______ ____

>  <TORSDO>
F 9

$$$$
=
 OpenBabel11052419073D

 32 34  0  0  1  0  0  0  0  0999 V2000
  189.8390  174.4420  145.7890 C   0  0  1  0  0  3  0  0  0  0  0  0
  188.0490  175.7000  144.7110 O   0  0  0  0  0  0  0  0  0  0  0  0
  191.2240  174.5700  146.4320 C   0  0  0  0  0  2  0  0  0  0  0  0
  189.3100  175.8210  145.3410 C   0  0  2  0  0  3  0  0  0  0  0  0
  187.4690  176.9810  144.5220 C   0  0  1  0  0  0  0  0  0  0  0  0
  185.9570  178.5120  145.6580 C   0  0  2  0  0  3  0  0  0  0  0  0
  185.1730  177.8560  144.5360 C   0  0  2  0  0  3  0  0  0  0  0  0
  190.3190  176.5600  144.4490 C   0  0  1  0  0  3  0  0  0  0  0  0
  186.0790  176.8010  143.9240 C   0  0  0  0  0  2  0  0  0  0  0  0
  189.7830  177.9480  144.1250 C   0  0  0  0  0  2  0  0  0  0  0  0
  191.6600  176.6880  145.1630 C   0  0  0  0  0  2  0  0  0  0  0  0
  187.2090  177.6860  145.8520 C   0  0  0  0  0  2  0  0  0  0  0  0
  188.3480  177.8640  143.5950 C   0  0  1  0  0  3  0  0  0  0  0  0
  192.2020  175.3070  145.5170 C   0  0  0  0  0  2  0  0  0  0  0  0
  185.1420  178.5130  146.9350 C   0  0  0  0  0  1  0  0  0  0  0  0
  188.3380  177.4240  142.1530 C   0  0  0  0  0  3  0  0  0  0  0  0
  188.1870  178.2270  141.2450 O   0  0  0  0  0  0  0  0  0  0  0  0
  190.7870  172.3650  144.9730 O   0  0  0  0  0  1  0  0  0  0  0  0
  189.8100  173.3330  144.7190 C   0  0  2  0  0  3  0  0  0  0  0  0
  189.9630  173.8950  143.3010 C   0  0  2  0  0  3  0  0  0  0  0  0
  188.9770  172.2020  141.9400 O   0  0  0  0  0  0  0  0  0  0  0  0
  188.8960  173.3740  142.3910 C   0  0  0  0  0  0  0  0  0  0  0  0
  187.8160  174.1770  142.0390 O   0  0  0  0  0  1  0  0  0  0  0  0
  191.3340  173.5620  142.7260 C   0  0  0  0  0  2  0  0  0  0  0  0
  191.6550  173.9120  140.3770 O   0  0  0  0  0  1  0  0  0  0  0  0
  191.7000  174.5430  141.6230 C   0  0  2  0  0  3  0  0  0  0  0  0
  193.0640  175.0950  141.8670 C   0  0  0  0  0  0  0  0  0  0  0  0
  194.2000  174.2500  141.7250 N   0  0  0  0  0  1  0  0  0  0  0  0
  193.2200  176.3090  142.1620 O   0  0  0  0  0  0  0  0  0  0  0  0
  184.8050  178.8840  143.4750 C   0  0  0  0  0  2  0  0  0  0  0  0
  183.1960  178.1730  141.7060 C   0  0  0  0  0  1  0  0  0  0  0  0
  184.6570  178.2390  142.1050 C   0  0  0  0  0  2  0  0  0  0  0  0
  1 19  1  6  0  0  0
  1  3  1  0  0  0  0
  4  2  1  6  0  0  0
  4  1  1  0  0  0  0
  5  9  1  6  0  0  0
  5  2  1  0  0  0  0
  5 12  1  0  0  0  0
  6 12  1  0  0  0  0
  6 15  1  1  0  0  0
  7 30  1  6  0  0  0
  7  6  1  0  0  0  0
  8 10  1  1  0  0  0
  8 11  1  0  0  0  0
  8  4  1  0  0  0  0
  9  7  1  0  0  0  0
 11 14  1  0  0  0  0
 13 16  1  6  0  0  0
 13 10  1  0  0  0  0
 13  5  1  0  0  0  0
 14  3  1  0  0  0  0
 17 16  2  0  0  0  0
 19 18  1  1  0  0  0
 20 24  1  6  0  0  0
 20 19  1  0  0  0  0
 21 22  2  0  0  0  0
 22 20  1  0  0  0  0
 23 22  1  0  0  0  0
 26 25  1  6  0  0  0
 26 27  1  0  0  0  0
 26 24  1  0  0  0  0
 27 29  2  0  0  0  0
 28 27  1  0  0  0  0
 31 32  1  0  0  0  0
 32 30  1  0  0  0  0
M  END
>  <MODEL>
4

>  <REMARK>
 VINA RESULT:      -6.3      2.529      6.824
  Name = 
  9 active torsions:
  status: ('A' for Active; 'I' for Inactive)
    1  A    between atoms: C_1  and  C_27
    2  A    between atoms: C_7  and  C_15
    3  A    between atoms: C_11  and  C_12
    4  A    between atoms: C_11  and  C_31
    5  A    between atoms: C_13  and  C_29
    6  A    between atoms: C_15  and  C_20
    7  A    between atoms: C_16  and  C_20
    8  A    between atoms: C_16  and  C_22
    9  A    between atoms: C_16  and  C_27
                            x       y       z     vdW  Elec       q    Type
                         _______ _______ _______ _____ _____    ______ ____

>  <TORSDO>
F 9

$$$$
=
 OpenBabel11052419073D

 32 34  0  0  1  0  0  0  0  0999 V2000
  192.9360  174.9460  143.0950 C   0  0  1  0  0  3  0  0  0  0  0  0
  191.0510  175.9570  144.2680 O   0  0  0  0  0  0  0  0  0  0  0  0
  193.4140  173.6710  142.3950 C   0  0  0  0  0  2  0  0  0  0  0  0
  191.4810  174.7950  143.5860 C   0  0  2  0  0  3  0  0  0  0  0  0
  189.6530  175.9010  144.5010 C   0  0  1  0  0  0  0  0  0  0  0  0
  187.5740  176.6130  143.4520 C   0  0  2  0  0  3  0  0  0  0  0  0
  187.8510  177.5700  144.5990 C   0  0  2  0  0  3  0  0  0  0  0  0
  191.2940  173.5330  144.4430 C   0  0  1  0  0  3  0  0  0  0  0  0
  189.2170  177.2060  145.1550 C   0  0  0  0  0  2  0  0  0  0  0  0
  189.8240  173.3870  144.8100 C   0  0  0  0  0  2  0  0  0  0  0  0
  191.7500  172.2990  143.6730 C   0  0  0  0  0  2  0  0  0  0  0  0
  188.8630  175.8650  143.1930 C   0  0  0  0  0  2  0  0  0  0  0  0
  189.2800  174.6920  145.4000 C   0  0  1  0  0  3  0  0  0  0  0  0
  193.2170  172.4380  143.2770 C   0  0  0  0  0  2  0  0  0  0  0  0
  187.1720  177.3840  142.2130 C   0  0  0  0  0  1  0  0  0  0  0  0
  189.7160  174.8490  146.8350 C   0  0  0  0  0  3  0  0  0  0  0  0
  188.9800  174.5420  147.7600 O   0  0  0  0  0  0  0  0  0  0  0  0
  193.7830  176.7910  144.4220 O   0  0  0  0  0  1  0  0  0  0  0  0
  193.9520  175.4300  144.1500 C   0  0  2  0  0  3  0  0  0  0  0  0
  195.3980  175.1370  143.7360 C   0  0  2  0  0  3  0  0  0  0  0  0
  197.3980  174.5370  144.8910 O   0  0  0  0  0  0  0  0  0  0  0  0
  196.1450  174.4340  144.8250 C   0  0  0  0  0  0  0  0  0  0  0  0
  195.4650  173.6670  145.7650 O   0  0  0  0  0  1  0  0  0  0  0  0
  196.1290  176.4190  143.3590 C   0  0  0  0  0  2  0  0  0  0  0  0
  195.0290  176.7920  141.2630 O   0  0  0  0  0  1  0  0  0  0  0  0
  196.2700  176.5260  141.8490 C   0  0  2  0  0  3  0  0  0  0  0  0
  196.8320  175.2590  141.2990 C   0  0  0  0  0  0  0  0  0  0  0  0
  196.1320  174.5650  140.2730 N   0  0  0  0  0  1  0  0  0  0  0  0
  197.9380  174.8170  141.7110 O   0  0  0  0  0  0  0  0  0  0  0  0
  186.8010  177.4080  145.6890 C   0  0  0  0  0  2  0  0  0  0  0  0
  185.6810  179.0380  147.2110 C   0  0  0  0  0  1  0  0  0  0  0  0
  185.8900  178.6230  145.7670 C   0  0  0  0  0  2  0  0  0  0  0  0
  1  4  1  0  0  0  0
  1 19  1  1  0  0  0
  2  5  1  0  0  0  0
  3  1  1  0  0  0  0
  3 14  1  0  0  0  0
  4  2  1  1  0  0  0
  4  8  1  0  0  0  0
  5 12  1  6  0  0  0
  5  9  1  0  0  0  0
  5 13  1  0  0  0  0
  6 15  1  6  0  0  0
  6  7  1  0  0  0  0
  7  9  1  0  0  0  0
  7 30  1  1  0  0  0
  8 11  1  6  0  0  0
  8 10  1  0  0  0  0
 10 13  1  0  0  0  0
 12  6  1  0  0  0  0
 13 16  1  1  0  0  0
 14 11  1  0  0  0  0
 16 17  2  0  0  0  0
 19 18  1  6  0  0  0
 20 24  1  1  0  0  0
 20 19  1  0  0  0  0
 20 22  1  0  0  0  0
 22 21  2  0  0  0  0
 22 23  1  0  0  0  0
 26 25  1  6  0  0  0
 26 24  1  0  0  0  0
 27 29  2  0  0  0  0
 27 26  1  0  0  0  0
 28 27  1  0  0  0  0
 30 32  1  0  0  0  0
 32 31  1  0  0  0  0
M  END
>  <MODEL>
5

>  <REMARK>
 VINA RESULT:      -6.2      3.558      7.910
  Name = 
  9 active torsions:
  status: ('A' for Active; 'I' for Inactive)
    1  A    between atoms: C_1  and  C_27
    2  A    between atoms: C_7  and  C_15
    3  A    between atoms: C_11  and  C_12
    4  A    between atoms: C_11  and  C_31
    5  A    between atoms: C_13  and  C_29
    6  A    between atoms: C_15  and  C_20
    7  A    between atoms: C_16  and  C_20
    8  A    between atoms: C_16  and  C_22
    9  A    between atoms: C_16  and  C_27
                            x       y       z     vdW  Elec       q    Type
                         _______ _______ _______ _____ _____    ______ ____

>  <TORSDO>
F 9

$$$$
=
 OpenBabel11052419073D

 32 34  0  0  1  0  0  0  0  0999 V2000
  192.0960  174.5520  144.9300 C   0  0  1  0  0  3  0  0  0  0  0  0
  189.9500  175.5300  144.3040 O   0  0  0  0  0  0  0  0  0  0  0  0
  193.4580  174.8640  145.5560 C   0  0  0  0  0  2  0  0  0  0  0  0
  191.1940  175.8050  144.9190 C   0  0  2  0  0  3  0  0  0  0  0  0
  189.0500  176.6070  144.5120 C   0  0  1  0  0  0  0  0  0  0  0  0
  187.3180  177.2930  146.0780 C   0  0  2  0  0  3  0  0  0  0  0  0
  186.6200  176.7910  144.8270 C   0  0  2  0  0  3  0  0  0  0  0  0
  191.8940  177.0080  144.2670 C   0  0  1  0  0  3  0  0  0  0  0  0
  187.6990  176.2340  143.9140 C   0  0  0  0  0  2  0  0  0  0  0  0
  190.9960  178.2330  144.3770 C   0  0  0  0  0  2  0  0  0  0  0  0
  193.2210  177.2880  144.9620 C   0  0  0  0  0  2  0  0  0  0  0  0
  188.7500  176.8140  145.9960 C   0  0  0  0  0  2  0  0  0  0  0  0
  189.5850  177.9170  143.8730 C   0  0  1  0  0  3  0  0  0  0  0  0
  194.1260  176.0620  144.8820 C   0  0  0  0  0  2  0  0  0  0  0  0
  186.6550  176.7160  147.3130 C   0  0  0  0  0  1  0  0  0  0  0  0
  189.5470  177.9130  142.3650 C   0  0  0  0  0  3  0  0  0  0  0  0
  188.5980  178.3790  141.7520 O   0  0  0  0  0  0  0  0  0  0  0  0
  192.7060  174.6920  142.5880 O   0  0  0  0  0  1  0  0  0  0  0  0
  192.2440  173.8220  143.5800 C   0  0  2  0  0  3  0  0  0  0  0  0
  190.9390  173.1470  143.1420 C   0  0  2  0  0  3  0  0  0  0  0  0
  189.6480  171.8670  144.6870 O   0  0  0  0  0  1  0  0  0  0  0  0
  190.6650  171.9160  143.9480 C   0  0  0  0  0  0  0  0  0  0  0  0
  191.5280  170.8280  143.8880 O   0  0  0  0  0  0  0  0  0  0  0  0
  190.9780  172.7910  141.6620 C   0  0  0  0  0  2  0  0  0  0  0  0
  189.6920  171.8500  139.8730 O   0  0  0  0  0  1  0  0  0  0  0  0
  189.6270  172.2660  141.2060 C   0  0  2  0  0  3  0  0  0  0  0  0
  188.5910  173.3280  141.3590 C   0  0  0  0  0  0  0  0  0  0  0  0
  188.7770  174.5890  140.7270 N   0  0  0  0  0  1  0  0  0  0  0  0
  187.5370  173.1060  142.0130 O   0  0  0  0  0  0  0  0  0  0  0  0
  185.9040  177.9360  144.1240 C   0  0  0  0  0  2  0  0  0  0  0  0
  184.0660  178.7250  145.6160 C   0  0  0  0  0  1  0  0  0  0  0  0
  185.4690  179.0080  145.1110 C   0  0  0  0  0  2  0  0  0  0  0  0
  1 19  1  6  0  0  0
  1  3  1  0  0  0  0
  2  5  1  0  0  0  0
  4  2  1  6  0  0  0
  4  1  1  0  0  0  0
  5  9  1  6  0  0  0
  5 12  1  0  0  0  0
  6 15  1  1  0  0  0
  7 30  1  6  0  0  0
  7  6  1  0  0  0  0
  8 10  1  1  0  0  0
  8  4  1  0  0  0  0
  8 11  1  0  0  0  0
  9  7  1  0  0  0  0
 12  6  1  0  0  0  0
 13 16  1  6  0  0  0
 13 10  1  0  0  0  0
 13  5  1  0  0  0  0
 14 11  1  0  0  0  0
 14  3  1  0  0  0  0
 17 16  2  0  0  0  0
 19 18  1  6  0  0  0
 20 24  1  6  0  0  0
 20 19  1  0  0  0  0
 20 22  1  0  0  0  0
 22 21  1  0  0  0  0
 23 22  2  0  0  0  0
 26 25  1  6  0  0  0
 26 27  1  0  0  0  0
 26 24  1  0  0  0  0
 27 29  2  0  0  0  0
 28 27  1  0  0  0  0
 30 32  1  0  0  0  0
 32 31  1  0  0  0  0
M  END
>  <MODEL>
6

>  <REMARK>
 VINA RESULT:      -6.1      2.598      6.594
  Name = 
  9 active torsions:
  status: ('A' for Active; 'I' for Inactive)
    1  A    between atoms: C_1  and  C_27
    2  A    between atoms: C_7  and  C_15
    3  A    between atoms: C_11  and  C_12
    4  A    between atoms: C_11  and  C_31
    5  A    between atoms: C_13  and  C_29
    6  A    between atoms: C_15  and  C_20
    7  A    between atoms: C_16  and  C_20
    8  A    between atoms: C_16  and  C_22
    9  A    between atoms: C_16  and  C_27
                            x       y       z     vdW  Elec       q    Type
                         _______ _______ _______ _____ _____    ______ ____

>  <TORSDO>
F 9

$$$$
=
 OpenBabel11052419073D

 32 34  0  0  1  0  0  0  0  0999 V2000
  190.9970  175.8130  146.7910 C   0  0  1  0  0  3  0  0  0  0  0  0
  192.9260  175.8890  145.2990 O   0  0  0  0  0  0  0  0  0  0  0  0
  189.8680  174.9150  147.3030 C   0  0  0  0  0  2  0  0  0  0  0  0
  191.9060  175.0500  145.8050 C   0  0  2  0  0  3  0  0  0  0  0  0
  193.8860  175.1230  144.5890 C   0  0  1  0  0  0  0  0  0  0  0  0
  196.0020  173.9860  144.9830 C   0  0  2  0  0  3  0  0  0  0  0  0
  196.3160  175.2810  144.2550 C   0  0  2  0  0  3  0  0  0  0  0  0
  191.0990  174.3950  144.6720 C   0  0  1  0  0  3  0  0  0  0  0  0
  195.0100  176.0490  144.1400 C   0  0  0  0  0  2  0  0  0  0  0  0
  192.0360  173.5770  143.7940 C   0  0  0  0  0  2  0  0  0  0  0  0
  190.0200  173.4850  145.2490 C   0  0  0  0  0  2  0  0  0  0  0  0
  194.5850  174.1110  145.4960 C   0  0  0  0  0  2  0  0  0  0  0  0
  193.2450  174.4130  143.3660 C   0  0  1  0  0  3  0  0  0  0  0  0
  189.0850  174.2840  146.1510 C   0  0  0  0  0  2  0  0  0  0  0  0
  196.9530  173.7970  146.1460 C   0  0  0  0  0  1  0  0  0  0  0  0
  192.8730  175.3550  142.2480 C   0  0  0  0  0  3  0  0  0  0  0  0
  193.2110  175.1360  141.0940 O   0  0  0  0  0  0  0  0  0  0  0  0
  189.8480  177.8790  147.3320 O   0  0  0  0  0  1  0  0  0  0  0  0
  190.4620  177.1710  146.2940 C   0  0  2  0  0  3  0  0  0  0  0  0
  189.5050  177.0150  145.1070 C   0  0  2  0  0  3  0  0  0  0  0  0
  189.6600  177.1580  142.7310 O   0  0  0  0  0  0  0  0  0  0  0  0
  190.1170  177.5300  143.8420 C   0  0  0  0  0  0  0  0  0  0  0  0
  191.1890  178.4150  143.8870 O   0  0  0  0  0  1  0  0  0  0  0  0
  188.1890  177.7360  145.3680 C   0  0  0  0  0  2  0  0  0  0  0  0
  186.4590  177.0220  143.8720 O   0  0  0  0  0  1  0  0  0  0  0  0
  187.0140  176.8000  145.1350 C   0  0  2  0  0  3  0  0  0  0  0  0
  185.9810  177.0070  146.1900 C   0  0  0  0  0  0  0  0  0  0  0  0
  186.3170  176.7920  147.5560 N   0  0  0  0  0  1  0  0  0  0  0  0
  184.8250  177.4050  145.8850 O   0  0  0  0  0  0  0  0  0  0  0  0
  196.8540  174.9880  142.8610 C   0  0  0  0  0  2  0  0  0  0  0  0
  196.6930  175.6660  140.4650 C   0  0  0  0  0  1  0  0  0  0  0  0
  196.5640  176.1320  141.9020 C   0  0  0  0  0  2  0  0  0  0  0  0
  1 19  1  6  0  0  0
  1  3  1  0  0  0  0
  4  2  1  6  0  0  0
  4  1  1  0  0  0  0
  5  9  1  6  0  0  0
  5  2  1  0  0  0  0
  5 12  1  0  0  0  0
  6 12  1  0  0  0  0
  6 15  1  1  0  0  0
  7 30  1  6  0  0  0
  7  6  1  0  0  0  0
  8 10  1  6  0  0  0
  8 11  1  0  0  0  0
  8  4  1  0  0  0  0
  9  7  1  0  0  0  0
 11 14  1  0  0  0  0
 13 16  1  6  0  0  0
 13 10  1  0  0  0  0
 13  5  1  0  0  0  0
 14  3  1  0  0  0  0
 17 16  2  0  0  0  0
 19 18  1  1  0  0  0
 20 24  1  1  0  0  0
 20 19  1  0  0  0  0
 21 22  2  0  0  0  0
 22 23  1  0  0  0  0
 22 20  1  0  0  0  0
 26 25  1  6  0  0  0
 26 24  1  0  0  0  0
 26 27  1  0  0  0  0
 27 28  1  0  0  0  0
 29 27  2  0  0  0  0
 31 32  1  0  0  0  0
 32 30  1  0  0  0  0
M  END
>  <MODEL>
7

>  <REMARK>
 VINA RESULT:      -6.1      2.614      4.027
  Name = 
  9 active torsions:
  status: ('A' for Active; 'I' for Inactive)
    1  A    between atoms: C_1  and  C_27
    2  A    between atoms: C_7  and  C_15
    3  A    between atoms: C_11  and  C_12
    4  A    between atoms: C_11  and  C_31
    5  A    between atoms: C_13  and  C_29
    6  A    between atoms: C_15  and  C_20
    7  A    between atoms: C_16  and  C_20
    8  A    between atoms: C_16  and  C_22
    9  A    between atoms: C_16  and  C_27
                            x       y       z     vdW  Elec       q    Type
                         _______ _______ _______ _____ _____    ______ ____

>  <TORSDO>
F 9

$$$$
=
 OpenBabel11052419073D

 32 34  0  0  1  0  0  0  0  0999 V2000
  190.9480  176.0550  145.0580 C   0  0  1  0  0  3  0  0  0  0  0  0
  188.5490  176.2270  145.4640 O   0  0  0  0  0  0  0  0  0  0  0  0
  192.1370  176.7390  144.3770 C   0  0  0  0  0  2  0  0  0  0  0  0
  189.6560  176.8780  144.8700 C   0  0  2  0  0  3  0  0  0  0  0  0
  187.4280  177.0960  145.4960 C   0  0  1  0  0  0  0  0  0  0  0  0
  186.3760  178.7040  146.9890 C   0  0  2  0  0  3  0  0  0  0  0  0
  185.5470  177.4330  147.0420 C   0  0  2  0  0  3  0  0  0  0  0  0
  189.3940  177.2040  143.3920 C   0  0  1  0  0  3  0  0  0  0  0  0
  186.2880  176.3910  146.2200 C   0  0  0  0  0  2  0  0  0  0  0  0
  188.1670  178.0990  143.2830 C   0  0  0  0  0  2  0  0  0  0  0  0
  190.5980  177.9180  142.7870 C   0  0  0  0  0  2  0  0  0  0  0  0
  187.6950  178.3340  146.3490 C   0  0  0  0  0  2  0  0  0  0  0  0
  186.9910  177.5010  144.0620 C   0  0  1  0  0  3  0  0  0  0  0  0
  191.8430  177.0450  142.9080 C   0  0  0  0  0  2  0  0  0  0  0  0
  186.6160  179.2310  148.3890 C   0  0  0  0  0  1  0  0  0  0  0  0
  186.3530  176.3780  143.2840 C   0  0  0  0  0  3  0  0  0  0  0  0
  187.0250  175.6110  142.6100 O   0  0  0  0  0  0  0  0  0  0  0  0
  190.4220  173.7940  145.7580 O   0  0  0  0  0  1  0  0  0  0  0  0
  190.8550  174.5640  144.6740 C   0  0  2  0  0  3  0  0  0  0  0  0
  192.1800  174.0260  144.1240 C   0  0  2  0  0  3  0  0  0  0  0  0
  192.5020  173.4760  141.8240 O   0  0  0  0  0  0  0  0  0  0  0  0
  191.9600  173.1670  142.9170 C   0  0  0  0  0  0  0  0  0  0  0  0
  191.1610  172.0320  142.9960 O   0  0  0  0  0  1  0  0  0  0  0  0
  192.9310  173.2330  145.1850 C   0  0  0  0  0  2  0  0  0  0  0  0
  195.0810  172.3470  145.7610 O   0  0  0  0  0  1  0  0  0  0  0  0
  194.4150  173.1820  144.8600 C   0  0  2  0  0  3  0  0  0  0  0  0
  194.9950  174.5550  144.9130 C   0  0  0  0  0  0  0  0  0  0  0  0
  194.9720  175.2810  146.1370 N   0  0  0  0  0  1  0  0  0  0  0  0
  195.5340  175.0620  143.8940 O   0  0  0  0  0  0  0  0  0  0  0  0
  184.1710  177.6720  146.4340 C   0  0  0  0  0  2  0  0  0  0  0  0
  183.7970  178.9010  144.2960 C   0  0  0  0  0  1  0  0  0  0  0  0
  184.0850  179.0410  145.7780 C   0  0  0  0  0  2  0  0  0  0  0  0
  1 19  1  6  0  0  0
  2  5  1  0  0  0  0
  3  1  1  0  0  0  0
  4  1  1  0  0  0  0
  4  2  1  6  0  0  0
  5  9  1  1  0  0  0
  5 12  1  0  0  0  0
  6  7  1  0  0  0  0
  6 15  1  1  0  0  0
  7 30  1  6  0  0  0
  8 11  1  1  0  0  0
  8  4  1  0  0  0  0
  9  7  1  0  0  0  0
 10  8  1  0  0  0  0
 10 13  1  0  0  0  0
 11 14  1  0  0  0  0
 12  6  1  0  0  0  0
 13 16  1  6  0  0  0
 13  5  1  0  0  0  0
 14  3  1  0  0  0  0
 17 16  2  0  0  0  0
 19 18  1  1  0  0  0
 20 19  1  0  0  0  0
 20 24  1  1  0  0  0
 21 22  2  0  0  0  0
 22 23  1  0  0  0  0
 22 20  1  0  0  0  0
 26 27  1  0  0  0  0
 26 24  1  0  0  0  0
 26 25  1  1  0  0  0
 27 28  1  0  0  0  0
 29 27  2  0  0  0  0
 31 32  1  0  0  0  0
 32 30  1  0  0  0  0
M  END
>  <MODEL>
8

>  <REMARK>
 VINA RESULT:      -6.0      2.827      7.485
  Name = 
  9 active torsions:
  status: ('A' for Active; 'I' for Inactive)
    1  A    between atoms: C_1  and  C_27
    2  A    between atoms: C_7  and  C_15
    3  A    between atoms: C_11  and  C_12
    4  A    between atoms: C_11  and  C_31
    5  A    between atoms: C_13  and  C_29
    6  A    between atoms: C_15  and  C_20
    7  A    between atoms: C_16  and  C_20
    8  A    between atoms: C_16  and  C_22
    9  A    between atoms: C_16  and  C_27
                            x       y       z     vdW  Elec       q    Type
                         _______ _______ _______ _____ _____    ______ ____

>  <TORSDO>
F 9

$$$$
=
 OpenBabel11052419073D

 32 34  0  0  1  0  0  0  0  0999 V2000
  192.0780  175.0090  142.6900 C   0  0  1  0  0  3  0  0  0  0  0  0
  190.4240  176.4090  143.8120 O   0  0  0  0  0  0  0  0  0  0  0  0
  192.5240  173.5600  142.4720 C   0  0  0  0  0  2  0  0  0  0  0  0
  190.8150  175.0700  143.5750 C   0  0  2  0  0  3  0  0  0  0  0  0
  189.1430  176.4470  144.4180 C   0  0  1  0  0  0  0  0  0  0  0  0
  186.8000  176.6270  143.7800 C   0  0  2  0  0  3  0  0  0  0  0  0
  187.2280  177.9840  144.3110 C   0  0  2  0  0  3  0  0  0  0  0  0
  190.9990  174.2940  144.8890 C   0  0  1  0  0  3  0  0  0  0  0  0
  188.7220  177.9030  144.5730 C   0  0  0  0  0  2  0  0  0  0  0  0
  189.6910  174.3070  145.6690 C   0  0  0  0  0  2  0  0  0  0  0  0
  191.4030  172.8530  144.5990 C   0  0  0  0  0  2  0  0  0  0  0  0
  188.0690  175.8500  143.5090 C   0  0  0  0  0  2  0  0  0  0  0  0
  189.1520  175.7350  145.7970 C   0  0  1  0  0  3  0  0  0  0  0  0
  192.7000  172.8210  143.7980 C   0  0  0  0  0  2  0  0  0  0  0  0
  186.0170  176.7920  142.4940 C   0  0  0  0  0  1  0  0  0  0  0  0
  189.9010  176.4930  146.8640 C   0  0  0  0  0  3  0  0  0  0  0  0
  190.4920  175.9110  147.7610 O   0  0  0  0  0  0  0  0  0  0  0  0
  193.9460  176.4060  142.0300 O   0  0  0  0  0  1  0  0  0  0  0  0
  193.2520  175.9040  143.1340 C   0  0  2  0  0  3  0  0  0  0  0  0
  194.2060  175.1740  144.0860 C   0  0  2  0  0  3  0  0  0  0  0  0
  193.8660  175.3560  146.4410 O   0  0  0  0  0  1  0  0  0  0  0  0
  194.3220  175.8890  145.3960 C   0  0  0  0  0  0  0  0  0  0  0  0
  194.9280  177.1380  145.4660 O   0  0  0  0  0  0  0  0  0  0  0  0
  195.5880  175.0200  143.4630 C   0  0  0  0  0  2  0  0  0  0  0  0
  197.5650  174.5470  144.7310 O   0  0  0  0  0  1  0  0  0  0  0  0
  196.3970  173.9770  144.2160 C   0  0  2  0  0  3  0  0  0  0  0  0
  196.7390  172.8460  143.3070 C   0  0  0  0  0  0  0  0  0  0  0  0
  197.9070  172.0710  143.5560 N   0  0  0  0  0  1  0  0  0  0  0  0
  195.9860  172.5490  142.3420 O   0  0  0  0  0  0  0  0  0  0  0  0
  186.5020  178.2950  145.6140 C   0  0  0  0  0  2  0  0  0  0  0  0
  186.1630  176.8190  147.5960 C   0  0  0  0  0  1  0  0  0  0  0  0
  185.7780  177.0710  146.1510 C   0  0  0  0  0  2  0  0  0  0  0  0
  1 19  1  1  0  0  0
  1  4  1  0  0  0  0
  2  5  1  0  0  0  0
  3  1  1  0  0  0  0
  3 14  1  0  0  0  0
  4  2  1  1  0  0  0
  4  8  1  0  0  0  0
  5 12  1  6  0  0  0
  5  9  1  0  0  0  0
  5 13  1  0  0  0  0
  6 15  1  6  0  0  0
  6  7  1  0  0  0  0
  7  9  1  0  0  0  0
  7 30  1  1  0  0  0
  8 11  1  6  0  0  0
  8 10  1  0  0  0  0
 10 13  1  0  0  0  0
 12  6  1  0  0  0  0
 13 16  1  1  0  0  0
 14 11  1  0  0  0  0
 16 17  2  0  0  0  0
 19 18  1  6  0  0  0
 19 20  1  0  0  0  0
 20 24  1  6  0  0  0
 20 22  1  0  0  0  0
 22 23  2  0  0  0  0
 22 21  1  0  0  0  0
 24 26  1  0  0  0  0
 26 25  1  6  0  0  0
 27 28  1  0  0  0  0
 27 26  1  0  0  0  0
 29 27  2  0  0  0  0
 30 32  1  0  0  0  0
 32 31  1  0  0  0  0
M  END
>  <MODEL>
9

>  <REMARK>
 VINA RESULT:      -6.0      3.469      7.763
  Name = 
  9 active torsions:
  status: ('A' for Active; 'I' for Inactive)
    1  A    between atoms: C_1  and  C_27
    2  A    between atoms: C_7  and  C_15
    3  A    between atoms: C_11  and  C_12
    4  A    between atoms: C_11  and  C_31
    5  A    between atoms: C_13  and  C_29
    6  A    between atoms: C_15  and  C_20
    7  A    between atoms: C_16  and  C_20
    8  A    between atoms: C_16  and  C_22
    9  A    between atoms: C_16  and  C_27
                            x       y       z     vdW  Elec       q    Type
                         _______ _______ _______ _____ _____    ______ ____

>  <TORSDO>
F 9

$$$$
