=
 OpenBabel11052421333D

 32 36  0  0  1  0  0  0  0  0999 V2000
  189.1050  177.2370  144.5850 C   0  0  0  0  0  0  0  0  0  0  0  0
  185.8060  177.9290  148.0030 C   0  0  0  0  0  3  0  0  0  0  0  0
  184.9730  178.4370  147.0560 N   0  0  0  0  0  0  0  0  0  0  0  0
  190.7680  176.3790  145.6030 N   0  0  0  0  0  0  0  0  0  0  0  0
  189.8160  176.5850  146.5500 C   0  0  0  0  0  3  0  0  0  0  0  0
  187.0820  177.4810  147.6540 C   0  0  0  0  0  3  0  0  0  0  0  0
  188.7390  177.1410  145.8930 C   0  0  0  0  0  0  0  0  0  0  0  0
  187.4860  177.5660  146.3200 C   0  0  0  0  0  0  0  0  0  0  0  0
  187.0360  178.1800  143.9860 C   0  0  0  0  0  0  0  0  0  0  0  0
  185.3410  178.5310  145.7490 C   0  0  0  0  0  3  0  0  0  0  0  0
  186.6090  178.1000  145.3410 C   0  0  0  0  0  0  0  0  0  0  0  0
  190.3480  176.7720  144.4020 N   0  0  0  0  0  0  0  0  0  0  0  0
  188.2850  177.7440  143.6330 N   0  0  0  0  0  0  0  0  0  0  0  0
  194.3820  176.2070  146.5380 C   0  0  0  0  0  3  0  0  0  0  0  0
  193.1060  176.6030  146.5470 C   0  0  0  0  0  3  0  0  0  0  0  0
  193.6830  173.9420  145.7540 C   0  0  0  0  0  2  0  0  0  0  0  0
  192.0660  175.8130  145.8480 C   0  0  0  0  0  0  0  0  0  0  0  0
  192.3540  174.5710  145.4340 C   0  0  0  0  0  3  0  0  0  0  0  0
  194.7950  174.9980  145.7440 C   0  0  2  0  0  3  0  0  0  0  0  0
  195.9980  174.4600  146.2790 O   0  0  0  0  0  0  0  0  0  0  0  0
  196.8880  173.7080  145.5110 C   0  0  0  0  0  0  0  0  0  0  0  0
  196.9680  172.4580  145.6530 O   0  0  0  0  0  0  0  0  0  0  0  0
  197.7060  174.3600  144.5470 N   0  0  0  0  0  1  0  0  0  0  0  0
  186.1420  178.7430  142.9250 C   0  0  0  0  0  2  0  0  0  0  0  0
  184.0360  177.8860  141.7410 C   0  0  1  0  0  3  0  0  0  0  0  0
  186.0880  177.6870  140.7160 C   0  0  0  0  0  0  0  0  0  0  0  0
  185.1570  178.1770  139.7840 N   0  0  0  0  0  2  0  0  0  0  0  0
  183.9430  178.4940  140.4050 N   0  0  0  0  0  2  0  0  0  0  0  0
  187.2530  177.3290  140.4010 O   0  0  0  0  0  0  0  0  0  0  0  0
  185.5240  177.6310  142.0730 C   0  0  1  0  0  3  0  0  0  0  0  0
  183.2650  178.6860  142.7500 C   0  0  0  0  0  3  0  0  0  0  0  0
  181.9760  178.9550  142.5600 C   0  0  0  0  0  2  0  0  0  0  0  0
  1  7  1  0  0  0  0
  3  2  2  0  0  0  0
  4 17  1  0  0  0  0
  4  5  1  0  0  0  0
  6  2  1  0  0  0  0
  7  8  1  0  0  0  0
  7  5  2  0  0  0  0
  8  6  2  0  0  0  0
  9 11  1  0  0  0  0
 10  3  1  0  0  0  0
 11 10  2  0  0  0  0
 11  8  1  0  0  0  0
 12  1  2  0  0  0  0
 12  4  1  0  0  0  0
 13  9  2  0  0  0  0
 13  1  1  0  0  0  0
 14 15  2  0  0  0  0
 17 15  1  0  0  0  0
 18 16  1  0  0  0  0
 18 17  2  0  0  0  0
 19 16  1  0  0  0  0
 19 20  1  1  0  0  0
 19 14  1  0  0  0  0
 21 22  2  0  0  0  0
 21 20  1  0  0  0  0
 23 21  1  0  0  0  0
 24  9  1  0  0  0  0
 25 30  1  0  0  0  0
 25 31  1  1  0  0  0
 26 30  1  0  0  0  0
 27 28  1  0  0  0  0
 27 26  1  0  0  0  0
 28 25  1  0  0  0  0
 29 26  2  0  0  0  0
 30 24  1  1  0  0  0
 32 31  2  0  0  0  0
M  END
>  <MODEL>
1

>  <REMARK>
 VINA RESULT:      -7.7      0.000      0.000
  Name = 
  6 active torsions:
  status: ('A' for Active; 'I' for Inactive)
    1  A    between atoms: C_1  and  O_10
    2  A    between atoms: C_6  and  C_7
    3  A    between atoms: N_8  and  C_21
    4  A    between atoms: O_10  and  C_24
    5  A    between atoms: C_16  and  C_27
    6  A    between atoms: C_27  and  C_32
                            x       y       z     vdW  Elec       q    Type
                         _______ _______ _______ _____ _____    ______ ____

>  <TORSDO>
F 6

$$$$
=
 OpenBabel11052421333D

 32 36  0  0  1  0  0  0  0  0999 V2000
  189.2300  176.5430  143.8380 C   0  0  0  0  0  0  0  0  0  0  0  0
  186.7440  177.9430  147.6990 C   0  0  0  0  0  3  0  0  0  0  0  0
  185.6100  177.9030  146.9480 N   0  0  0  0  0  0  0  0  0  0  0  0
  191.2490  176.4300  144.5060 N   0  0  0  0  0  0  0  0  0  0  0  0
  190.5210  176.8250  145.5840 C   0  0  0  0  0  3  0  0  0  0  0  0
  187.9770  177.6120  147.1330 C   0  0  0  0  0  3  0  0  0  0  0  0
  189.2130  176.8990  145.1520 C   0  0  0  0  0  0  0  0  0  0  0  0
  188.0250  177.2430  145.7880 C   0  0  0  0  0  0  0  0  0  0  0  0
  186.9030  176.8270  143.6440 C   0  0  0  0  0  0  0  0  0  0  0  0
  185.6290  177.5450  145.6350 C   0  0  0  0  0  3  0  0  0  0  0  0
  186.8370  177.2060  145.0140 C   0  0  0  0  0  0  0  0  0  0  0  0
  190.4750  176.2560  143.4370 N   0  0  0  0  0  0  0  0  0  0  0  0
  188.1080  176.5010  143.0790 N   0  0  0  0  0  0  0  0  0  0  0  0
  194.5690  175.0040  143.5530 C   0  0  0  0  0  3  0  0  0  0  0  0
  193.3100  175.4340  143.4260 C   0  0  0  0  0  3  0  0  0  0  0  0
  194.9300  176.5920  145.4460 C   0  0  0  0  0  2  0  0  0  0  0  0
  192.6710  176.2250  144.5030 C   0  0  0  0  0  0  0  0  0  0  0  0
  193.4320  176.7350  145.4820 C   0  0  0  0  0  3  0  0  0  0  0  0
  195.3270  175.2450  144.8290 C   0  0  2  0  0  3  0  0  0  0  0  0
  196.7250  175.2080  144.5710 O   0  0  0  0  0  0  0  0  0  0  0  0
  197.2850  175.7320  143.4040 C   0  0  0  0  0  0  0  0  0  0  0  0
  197.2780  176.9730  143.1850 O   0  0  0  0  0  0  0  0  0  0  0  0
  197.8820  174.8550  142.4580 N   0  0  0  0  0  1  0  0  0  0  0  0
  185.6730  176.7830  142.7930 C   0  0  0  0  0  2  0  0  0  0  0  0
  185.5110  178.1850  140.6530 C   0  0  1  0  0  3  0  0  0  0  0  0
  183.9220  178.4230  142.3030 C   0  0  0  0  0  0  0  0  0  0  0  0
  183.2770  178.3350  141.0570 N   0  0  0  0  0  2  0  0  0  0  0  0
  184.1850  178.0000  140.0440 N   0  0  0  0  0  2  0  0  0  0  0  0
  183.3190  178.7160  143.3690 O   0  0  0  0  0  0  0  0  0  0  0  0
  185.3640  178.1570  142.1920 C   0  0  1  0  0  3  0  0  0  0  0  0
  186.5090  177.2290  140.0710 C   0  0  0  0  0  3  0  0  0  0  0  0
  186.4970  176.9450  138.7700 C   0  0  0  0  0  2  0  0  0  0  0  0
  1  7  1  0  0  0  0
  3  2  2  0  0  0  0
  4  5  1  0  0  0  0
  6  2  1  0  0  0  0
  7  5  2  0  0  0  0
  7  8  1  0  0  0  0
  8  6  2  0  0  0  0
  9 11  1  0  0  0  0
 10  3  1  0  0  0  0
 11 10  2  0  0  0  0
 11  8  1  0  0  0  0
 12  1  2  0  0  0  0
 12  4  1  0  0  0  0
 13  9  2  0  0  0  0
 13  1  1  0  0  0  0
 14 19  1  0  0  0  0
 15 14  2  0  0  0  0
 15 17  1  0  0  0  0
 16 18  1  0  0  0  0
 17  4  1  0  0  0  0
 17 18  2  0  0  0  0
 19 20  1  6  0  0  0
 19 16  1  0  0  0  0
 21 20  1  0  0  0  0
 22 21  2  0  0  0  0
 23 21  1  0  0  0  0
 24  9  1  0  0  0  0
 25 31  1  6  0  0  0
 25 30  1  0  0  0  0
 26 29  2  0  0  0  0
 27 26  1  0  0  0  0
 28 25  1  0  0  0  0
 28 27  1  0  0  0  0
 30 26  1  0  0  0  0
 30 24  1  6  0  0  0
 32 31  2  0  0  0  0
M  END
>  <MODEL>
2

>  <REMARK>
 VINA RESULT:      -7.4      1.776      2.531
  Name = 
  6 active torsions:
  status: ('A' for Active; 'I' for Inactive)
    1  A    between atoms: C_1  and  O_10
    2  A    between atoms: C_6  and  C_7
    3  A    between atoms: N_8  and  C_21
    4  A    between atoms: O_10  and  C_24
    5  A    between atoms: C_16  and  C_27
    6  A    between atoms: C_27  and  C_32
                            x       y       z     vdW  Elec       q    Type
                         _______ _______ _______ _____ _____    ______ ____

>  <TORSDO>
F 6

$$$$
=
 OpenBabel11052421333D

 32 36  0  0  1  0  0  0  0  0999 V2000
  188.3480  175.5380  141.9950 C   0  0  0  0  0  0  0  0  0  0  0  0
  191.6540  176.0430  145.4390 C   0  0  0  0  0  3  0  0  0  0  0  0
  190.8260  176.9220  146.0650 N   0  0  0  0  0  0  0  0  0  0  0  0
  189.1980  174.1420  140.6290 N   0  0  0  0  0  0  0  0  0  0  0  0
  190.1160  174.3030  141.6180 C   0  0  0  0  0  3  0  0  0  0  0  0
  191.2680  175.4430  144.2380 C   0  0  0  0  0  3  0  0  0  0  0  0
  189.5670  175.2080  142.5030 C   0  0  0  0  0  0  0  0  0  0  0  0
  190.0230  175.7620  143.6930 C   0  0  0  0  0  0  0  0  0  0  0  0
  187.9030  176.9970  143.7850 C   0  0  0  0  0  0  0  0  0  0  0  0
  189.6070  177.2500  145.5560 C   0  0  0  0  0  3  0  0  0  0  0  0
  189.1690  176.6820  144.3540 C   0  0  0  0  0  0  0  0  0  0  0  0
  188.1170  174.8890  140.8460 N   0  0  0  0  0  0  0  0  0  0  0  0
  187.5150  176.4150  142.6080 N   0  0  0  0  0  0  0  0  0  0  0  0
  190.2630  171.1870  138.6050 C   0  0  0  0  0  3  0  0  0  0  0  0
  189.8500  171.8970  139.6590 C   0  0  0  0  0  3  0  0  0  0  0  0
  189.1650  172.8170  137.0650 C   0  0  0  0  0  2  0  0  0  0  0  0
  189.3570  173.2840  139.4880 C   0  0  0  0  0  0  0  0  0  0  0  0
  189.0750  173.7320  138.2560 C   0  0  0  0  0  3  0  0  0  0  0  0
  190.3140  171.8170  137.2400 C   0  0  2  0  0  3  0  0  0  0  0  0
  190.2510  170.8050  136.2430 O   0  0  0  0  0  0  0  0  0  0  0  0
  191.3130  170.5400  135.3760 C   0  0  0  0  0  0  0  0  0  0  0  0
  191.2790  169.5520  134.5940 O   0  0  0  0  0  0  0  0  0  0  0  0
  192.4420  171.4050  135.3670 N   0  0  0  0  0  1  0  0  0  0  0  0
  186.9770  177.9670  144.4490 C   0  0  0  0  0  2  0  0  0  0  0  0
  185.1240  177.3920  146.1250 C   0  0  1  0  0  3  0  0  0  0  0  0
  184.5750  178.2460  144.0580 C   0  0  0  0  0  0  0  0  0  0  0  0
  183.8290  178.9180  145.0430 N   0  0  0  0  0  2  0  0  0  0  0  0
  184.2630  178.5680  146.3280 N   0  0  0  0  0  2  0  0  0  0  0  0
  184.3710  178.3910  142.8240 O   0  0  0  0  0  0  0  0  0  0  0  0
  185.5860  177.3580  144.6500 C   0  0  1  0  0  3  0  0  0  0  0  0
  186.2120  177.3380  147.1560 C   0  0  0  0  0  3  0  0  0  0  0  0
  186.4250  178.3680  147.9710 C   0  0  0  0  0  2  0  0  0  0  0  0
  1  7  1  0  0  0  0
  1 13  1  0  0  0  0
  2  3  1  0  0  0  0
  4 12  1  0  0  0  0
  4  5  1  0  0  0  0
  5  7  2  0  0  0  0
  6  2  2  0  0  0  0
  7  8  1  0  0  0  0
  8  6  1  0  0  0  0
  8 11  2  0  0  0  0
  9 11  1  0  0  0  0
  9 24  1  0  0  0  0
 10  3  2  0  0  0  0
 11 10  1  0  0  0  0
 12  1  2  0  0  0  0
 13  9  2  0  0  0  0
 14 15  2  0  0  0  0
 16 19  1  0  0  0  0
 16 18  1  0  0  0  0
 17 15  1  0  0  0  0
 17  4  1  0  0  0  0
 18 17  2  0  0  0  0
 19 20  1  6  0  0  0
 19 14  1  0  0  0  0
 21 20  1  0  0  0  0
 22 21  2  0  0  0  0
 23 21  1  0  0  0  0
 25 28  1  0  0  0  0
 25 31  1  1  0  0  0
 26 30  1  0  0  0  0
 26 27  1  0  0  0  0
 27 28  1  0  0  0  0
 29 26  2  0  0  0  0
 30 24  1  1  0  0  0
 30 25  1  0  0  0  0
 31 32  2  0  0  0  0
M  END
>  <MODEL>
3

>  <REMARK>
 VINA RESULT:      -7.1      5.015      6.976
  Name = 
  6 active torsions:
  status: ('A' for Active; 'I' for Inactive)
    1  A    between atoms: C_1  and  O_10
    2  A    between atoms: C_6  and  C_7
    3  A    between atoms: N_8  and  C_21
    4  A    between atoms: O_10  and  C_24
    5  A    between atoms: C_16  and  C_27
    6  A    between atoms: C_27  and  C_32
                            x       y       z     vdW  Elec       q    Type
                         _______ _______ _______ _____ _____    ______ ____

>  <TORSDO>
F 6

$$$$
=
 OpenBabel11052421333D

 32 36  0  0  1  0  0  0  0  0999 V2000
  188.5470  174.8420  142.7860 C   0  0  0  0  0  0  0  0  0  0  0  0
  190.8650  175.2910  146.9660 C   0  0  0  0  0  3  0  0  0  0  0  0
  190.0650  176.3510  147.2630 N   0  0  0  0  0  0  0  0  0  0  0  0
  189.4730  173.1790  141.8290 N   0  0  0  0  0  0  0  0  0  0  0  0
  190.1120  173.3280  143.0190 C   0  0  0  0  0  3  0  0  0  0  0  0
  190.7120  174.6080  145.7570 C   0  0  0  0  0  3  0  0  0  0  0  0
  189.5140  174.4050  143.6390 C   0  0  0  0  0  0  0  0  0  0  0  0
  189.7280  175.0320  144.8620 C   0  0  0  0  0  0  0  0  0  0  0  0
  187.9040  176.5600  144.2570 C   0  0  0  0  0  0  0  0  0  0  0  0
  189.0980  176.7840  146.4080 C   0  0  0  0  0  3  0  0  0  0  0  0
  188.9010  176.1400  145.1810 C   0  0  0  0  0  0  0  0  0  0  0  0
  188.5190  174.0950  141.6740 N   0  0  0  0  0  0  0  0  0  0  0  0
  187.7460  175.8980  143.0690 N   0  0  0  0  0  0  0  0  0  0  0  0
  191.0050  170.1180  140.3300 C   0  0  0  0  0  3  0  0  0  0  0  0
  190.4740  170.9270  141.2520 C   0  0  0  0  0  3  0  0  0  0  0  0
  189.6910  171.2710  138.5480 C   0  0  0  0  0  2  0  0  0  0  0  0
  189.7770  172.1720  140.8520 C   0  0  0  0  0  0  0  0  0  0  0  0
  189.4470  172.3530  139.5650 C   0  0  0  0  0  3  0  0  0  0  0  0
  190.9780  170.5030  138.8770 C   0  0  2  0  0  3  0  0  0  0  0  0
  191.0830  169.3360  138.0700 O   0  0  0  0  0  0  0  0  0  0  0  0
  192.0170  169.2220  137.0390 C   0  0  0  0  0  0  0  0  0  0  0  0
  193.2540  169.2440  137.2820 O   0  0  0  0  0  0  0  0  0  0  0  0
  191.5660  169.0650  135.6990 N   0  0  0  0  0  1  0  0  0  0  0  0
  187.0160  177.7280  144.5550 C   0  0  0  0  0  2  0  0  0  0  0  0
  184.8500  177.8010  145.9230 C   0  0  1  0  0  3  0  0  0  0  0  0
  184.7690  178.0440  143.6350 C   0  0  0  0  0  0  0  0  0  0  0  0
  183.9550  179.0250  144.2270 N   0  0  0  0  0  2  0  0  0  0  0  0
  184.1180  179.0410  145.6180 N   0  0  0  0  0  2  0  0  0  0  0  0
  184.7970  177.8320  142.3940 O   0  0  0  0  0  0  0  0  0  0  0  0
  185.5480  177.3020  144.6370 C   0  0  1  0  0  3  0  0  0  0  0  0
  185.7320  177.9790  147.1230 C   0  0  0  0  0  3  0  0  0  0  0  0
  185.9420  179.1880  147.6380 C   0  0  0  0  0  2  0  0  0  0  0  0
  1 13  1  0  0  0  0
  1  7  1  0  0  0  0
  2  3  1  0  0  0  0
  4  5  1  0  0  0  0
  5  7  2  0  0  0  0
  6  2  2  0  0  0  0
  7  8  1  0  0  0  0
  8 11  2  0  0  0  0
  8  6  1  0  0  0  0
  9 24  1  0  0  0  0
  9 11  1  0  0  0  0
 10  3  2  0  0  0  0
 11 10  1  0  0  0  0
 12  4  1  0  0  0  0
 12  1  2  0  0  0  0
 13  9  2  0  0  0  0
 14 15  2  0  0  0  0
 16 19  1  0  0  0  0
 16 18  1  0  0  0  0
 17 15  1  0  0  0  0
 17  4  1  0  0  0  0
 18 17  2  0  0  0  0
 19 20  1  6  0  0  0
 19 14  1  0  0  0  0
 21 22  2  0  0  0  0
 21 20  1  0  0  0  0
 23 21  1  0  0  0  0
 25 31  1  1  0  0  0
 26 27  1  0  0  0  0
 26 30  1  0  0  0  0
 27 28  1  0  0  0  0
 28 25  1  0  0  0  0
 29 26  2  0  0  0  0
 30 24  1  1  0  0  0
 30 25  1  0  0  0  0
 31 32  2  0  0  0  0
M  END
>  <MODEL>
4

>  <REMARK>
 VINA RESULT:      -7.0      5.041      6.293
  Name = 
  6 active torsions:
  status: ('A' for Active; 'I' for Inactive)
    1  A    between atoms: C_1  and  O_10
    2  A    between atoms: C_6  and  C_7
    3  A    between atoms: N_8  and  C_21
    4  A    between atoms: O_10  and  C_24
    5  A    between atoms: C_16  and  C_27
    6  A    between atoms: C_27  and  C_32
                            x       y       z     vdW  Elec       q    Type
                         _______ _______ _______ _____ _____    ______ ____

>  <TORSDO>
F 6

$$$$
=
 OpenBabel11052421333D

 32 36  0  0  1  0  0  0  0  0999 V2000
  189.9530  175.7990  144.7410 C   0  0  0  0  0  0  0  0  0  0  0  0
  187.9200  175.5240  140.4010 C   0  0  0  0  0  3  0  0  0  0  0  0
  186.9890  176.4270  140.8110 N   0  0  0  0  0  0  0  0  0  0  0  0
  191.6130  174.4680  144.6470 N   0  0  0  0  0  0  0  0  0  0  0  0
  191.0180  174.4100  143.4260 C   0  0  0  0  0  3  0  0  0  0  0  0
  188.9310  175.1090  141.2700 C   0  0  0  0  0  3  0  0  0  0  0  0
  189.9420  175.2710  143.4860 C   0  0  0  0  0  0  0  0  0  0  0  0
  188.9680  175.6340  142.5630 C   0  0  0  0  0  0  0  0  0  0  0  0
  188.0420  177.0980  144.3030 C   0  0  0  0  0  0  0  0  0  0  0  0
  187.0020  176.9550  142.0660 C   0  0  0  0  0  3  0  0  0  0  0  0
  187.9910  176.5730  142.9810 C   0  0  0  0  0  0  0  0  0  0  0  0
  190.9740  175.3100  145.4560 N   0  0  0  0  0  0  0  0  0  0  0  0
  189.0300  176.6970  145.1630 N   0  0  0  0  0  0  0  0  0  0  0  0
  195.1200  173.7940  145.7470 C   0  0  0  0  0  3  0  0  0  0  0  0
  193.9400  174.4130  145.6410 C   0  0  0  0  0  3  0  0  0  0  0  0
  194.0210  171.5980  145.2970 C   0  0  0  0  0  2  0  0  0  0  0  0
  192.7800  173.7230  145.0310 C   0  0  0  0  0  0  0  0  0  0  0  0
  192.8360  172.3990  144.8280 C   0  0  0  0  0  3  0  0  0  0  0  0
  195.3110  172.4190  145.1690 C   0  0  2  0  0  3  0  0  0  0  0  0
  196.3860  171.7650  145.8310 O   0  0  0  0  0  0  0  0  0  0  0  0
  197.4120  171.1210  145.1360 C   0  0  0  0  0  0  0  0  0  0  0  0
  197.8660  170.0150  145.5330 O   0  0  0  0  0  0  0  0  0  0  0  0
  197.9410  171.7170  143.9580 N   0  0  0  0  0  1  0  0  0  0  0  0
  187.0250  178.0860  144.7830 C   0  0  0  0  0  2  0  0  0  0  0  0
  185.4270  177.5370  146.7110 C   0  0  1  0  0  3  0  0  0  0  0  0
  184.5800  178.1230  144.6510 C   0  0  0  0  0  0  0  0  0  0  0  0
  183.8850  178.8290  145.6480 N   0  0  0  0  0  2  0  0  0  0  0  0
  184.4870  178.6520  146.9010 N   0  0  0  0  0  2  0  0  0  0  0  0
  184.2310  178.1210  143.4410 O   0  0  0  0  0  0  0  0  0  0  0  0
  185.7290  177.3880  145.2010 C   0  0  1  0  0  3  0  0  0  0  0  0
  186.6200  177.6810  147.6080 C   0  0  0  0  0  3  0  0  0  0  0  0
  186.8490  178.8220  148.2550 C   0  0  0  0  0  2  0  0  0  0  0  0
  1 13  1  0  0  0  0
  1 12  2  0  0  0  0
  2  3  2  0  0  0  0
  2  6  1  0  0  0  0
  3 10  1  0  0  0  0
  4 17  1  0  0  0  0
  4 12  1  0  0  0  0
  5  7  2  0  0  0  0
  5  4  1  0  0  0  0
  6  8  2  0  0  0  0
  7  1  1  0  0  0  0
  8 11  1  0  0  0  0
  8  7  1  0  0  0  0
  9 24  1  0  0  0  0
  9 13  2  0  0  0  0
 10 11  2  0  0  0  0
 11  9  1  0  0  0  0
 15 14  2  0  0  0  0
 17 15  1  0  0  0  0
 18 17  2  0  0  0  0
 18 16  1  0  0  0  0
 19 16  1  0  0  0  0
 19 14  1  0  0  0  0
 19 20  1  1  0  0  0
 21 22  2  0  0  0  0
 21 20  1  0  0  0  0
 23 21  1  0  0  0  0
 25 28  1  0  0  0  0
 25 31  1  1  0  0  0
 26 30  1  0  0  0  0
 26 27  1  0  0  0  0
 27 28  1  0  0  0  0
 29 26  2  0  0  0  0
 30 24  1  1  0  0  0
 30 25  1  0  0  0  0
 31 32  2  0  0  0  0
M  END
>  <MODEL>
5

>  <REMARK>
 VINA RESULT:      -6.9      2.079      4.234
  Name = 
  6 active torsions:
  status: ('A' for Active; 'I' for Inactive)
    1  A    between atoms: C_1  and  O_10
    2  A    between atoms: C_6  and  C_7
    3  A    between atoms: N_8  and  C_21
    4  A    between atoms: O_10  and  C_24
    5  A    between atoms: C_16  and  C_27
    6  A    between atoms: C_27  and  C_32
                            x       y       z     vdW  Elec       q    Type
                         _______ _______ _______ _____ _____    ______ ____

>  <TORSDO>
F 6

$$$$
=
 OpenBabel11052421333D

 32 36  0  0  1  0  0  0  0  0999 V2000
  190.9790  176.2230  143.0290 C   0  0  0  0  0  0  0  0  0  0  0  0
  193.4180  176.3160  147.1630 C   0  0  0  0  0  3  0  0  0  0  0  0
  194.5220  175.8970  146.4880 N   0  0  0  0  0  0  0  0  0  0  0  0
  189.0100  176.8520  143.5470 N   0  0  0  0  0  0  0  0  0  0  0  0
  189.7250  176.8700  144.7040 C   0  0  0  0  0  3  0  0  0  0  0  0
  192.2120  176.5200  146.4880 C   0  0  0  0  0  3  0  0  0  0  0  0
  190.9990  176.4620  144.3700 C   0  0  0  0  0  0  0  0  0  0  0  0
  192.1600  176.2830  145.1130 C   0  0  0  0  0  0  0  0  0  0  0  0
  193.2480  175.6070  143.0180 C   0  0  0  0  0  0  0  0  0  0  0  0
  194.4990  175.6590  145.1480 C   0  0  0  0  0  3  0  0  0  0  0  0
  193.3170  175.8440  144.4190 C   0  0  0  0  0  0  0  0  0  0  0  0
  189.7620  176.4590  142.5210 N   0  0  0  0  0  0  0  0  0  0  0  0
  192.0710  175.8030  142.3460 N   0  0  0  0  0  0  0  0  0  0  0  0
  185.5670  177.0520  142.1090 C   0  0  0  0  0  3  0  0  0  0  0  0
  186.7670  176.5480  142.4150 C   0  0  0  0  0  3  0  0  0  0  0  0
  185.6220  178.4620  144.1680 C   0  0  0  0  0  2  0  0  0  0  0  0
  187.6230  177.2050  143.4310 C   0  0  0  0  0  0  0  0  0  0  0  0
  187.0910  178.1410  144.2300 C   0  0  0  0  0  3  0  0  0  0  0  0
  185.1050  178.3410  142.7300 C   0  0  2  0  0  3  0  0  0  0  0  0
  183.6840  178.4030  142.7040 O   0  0  0  0  0  0  0  0  0  0  0  0
  182.9570  178.3960  141.5120 C   0  0  0  0  0  0  0  0  0  0  0  0
  183.5040  178.7010  140.4180 O   0  0  0  0  0  0  0  0  0  0  0  0
  181.5830  178.0270  141.5320 N   0  0  0  0  0  1  0  0  0  0  0  0
  194.4450  175.1360  142.2530 C   0  0  0  0  0  2  0  0  0  0  0  0
  196.2750  176.6240  141.2480 C   0  0  1  0  0  3  0  0  0  0  0  0
  194.8990  175.4050  139.8610 C   0  0  0  0  0  0  0  0  0  0  0  0
  196.2290  175.2570  139.4300 N   0  0  0  0  0  2  0  0  0  0  0  0
  197.1210  175.8230  140.3500 N   0  0  0  0  0  2  0  0  0  0  0  0
  193.9120  174.9820  139.2030 O   0  0  0  0  0  0  0  0  0  0  0  0
  194.8160  176.1230  141.1420 C   0  0  1  0  0  3  0  0  0  0  0  0
  196.8550  176.6730  142.6300 C   0  0  0  0  0  3  0  0  0  0  0  0
  197.9410  175.9690  142.9360 C   0  0  0  0  0  2  0  0  0  0  0  0
  1  7  1  0  0  0  0
  3  2  1  0  0  0  0
  4  5  1  0  0  0  0
  6  2  2  0  0  0  0
  7  5  2  0  0  0  0
  7  8  1  0  0  0  0
  8  6  1  0  0  0  0
  9 11  1  0  0  0  0
 10  3  2  0  0  0  0
 11  8  2  0  0  0  0
 11 10  1  0  0  0  0
 12  1  2  0  0  0  0
 12  4  1  0  0  0  0
 13  9  2  0  0  0  0
 13  1  1  0  0  0  0
 14 15  2  0  0  0  0
 14 19  1  0  0  0  0
 15 17  1  0  0  0  0
 16 18  1  0  0  0  0
 17  4  1  0  0  0  0
 17 18  2  0  0  0  0
 19 20  1  1  0  0  0
 19 16  1  0  0  0  0
 21 23  1  0  0  0  0
 21 20  1  0  0  0  0
 22 21  2  0  0  0  0
 24  9  1  0  0  0  0
 25 31  1  1  0  0  0
 26 30  1  0  0  0  0
 27 26  1  0  0  0  0
 27 28  1  0  0  0  0
 28 25  1  0  0  0  0
 29 26  2  0  0  0  0
 30 25  1  0  0  0  0
 30 24  1  1  0  0  0
 31 32  2  0  0  0  0
M  END
>  <MODEL>
6

>  <REMARK>
 VINA RESULT:      -6.9      3.213      9.753
  Name = 
  6 active torsions:
  status: ('A' for Active; 'I' for Inactive)
    1  A    between atoms: C_1  and  O_10
    2  A    between atoms: C_6  and  C_7
    3  A    between atoms: N_8  and  C_21
    4  A    between atoms: O_10  and  C_24
    5  A    between atoms: C_16  and  C_27
    6  A    between atoms: C_27  and  C_32
                            x       y       z     vdW  Elec       q    Type
                         _______ _______ _______ _____ _____    ______ ____

>  <TORSDO>
F 6

$$$$
=
 OpenBabel11052421333D

 32 36  0  0  1  0  0  0  0  0999 V2000
  185.4900  177.4790  143.2370 C   0  0  0  0  0  0  0  0  0  0  0  0
  186.2400  178.8190  147.7850 C   0  0  0  0  0  3  0  0  0  0  0  0
  187.4630  178.2260  147.7280 N   0  0  0  0  0  0  0  0  0  0  0  0
  183.5470  178.2170  142.7680 N   0  0  0  0  0  0  0  0  0  0  0  0
  183.7860  178.5840  144.0540 C   0  0  0  0  0  3  0  0  0  0  0  0
  185.3950  178.8020  146.6730 C   0  0  0  0  0  3  0  0  0  0  0  0
  185.0430  178.1060  144.3600 C   0  0  0  0  0  0  0  0  0  0  0  0
  185.8260  178.1660  145.5070 C   0  0  0  0  0  0  0  0  0  0  0  0
  187.5260  176.9060  144.2630 C   0  0  0  0  0  0  0  0  0  0  0  0
  187.9080  177.6010  146.6040 C   0  0  0  0  0  3  0  0  0  0  0  0
  187.1020  177.5500  145.4600 C   0  0  0  0  0  0  0  0  0  0  0  0
  184.5770  177.5430  142.2590 N   0  0  0  0  0  0  0  0  0  0  0  0
  186.7050  176.8830  143.1680 N   0  0  0  0  0  0  0  0  0  0  0  0
  180.0620  179.3910  142.1060 C   0  0  0  0  0  3  0  0  0  0  0  0
  181.2830  179.3420  142.6480 C   0  0  0  0  0  3  0  0  0  0  0  0
  180.9440  178.3780  140.0010 C   0  0  0  0  0  2  0  0  0  0  0  0
  182.3450  178.5070  142.0380 C   0  0  0  0  0  0  0  0  0  0  0  0
  182.1650  178.0160  140.8030 C   0  0  0  0  0  3  0  0  0  0  0  0
  179.7240  178.5340  140.9180 C   0  0  2  0  0  3  0  0  0  0  0  0
  178.6360  179.1080  140.2050 O   0  0  0  0  0  0  0  0  0  0  0  0
  178.4380  180.4880  140.1280 C   0  0  0  0  0  0  0  0  0  0  0  0
  177.6920  181.0820  140.9520 O   0  0  0  0  0  0  0  0  0  0  0  0
  179.0970  181.2350  139.1120 N   0  0  0  0  0  1  0  0  0  0  0  0
  188.8630  176.2390  144.1760 C   0  0  0  0  0  2  0  0  0  0  0  0
  190.9790  176.7690  142.8290 C   0  0  1  0  0  3  0  0  0  0  0  0
  189.5660  175.0920  142.1300 C   0  0  0  0  0  0  0  0  0  0  0  0
  190.8910  174.6290  142.0650 N   0  0  0  0  0  2  0  0  0  0  0  0
  191.7720  175.5430  142.6570 N   0  0  0  0  0  2  0  0  0  0  0  0
  188.5900  174.4490  141.6610 O   0  0  0  0  0  0  0  0  0  0  0  0
  189.4770  176.4060  142.7830 C   0  0  1  0  0  3  0  0  0  0  0  0
  191.4330  177.5380  144.0350 C   0  0  0  0  0  3  0  0  0  0  0  0
  192.3980  177.0640  144.8180 C   0  0  0  0  0  2  0  0  0  0  0  0
  1  7  1  0  0  0  0
  3  2  1  0  0  0  0
  4  5  1  0  0  0  0
  5  7  2  0  0  0  0
  6  2  2  0  0  0  0
  7  8  1  0  0  0  0
  8  6  1  0  0  0  0
  9 11  1  0  0  0  0
 10  3  2  0  0  0  0
 11  8  2  0  0  0  0
 11 10  1  0  0  0  0
 12  4  1  0  0  0  0
 12  1  2  0  0  0  0
 13  1  1  0  0  0  0
 13  9  2  0  0  0  0
 14 15  2  0  0  0  0
 16 18  1  0  0  0  0
 16 19  1  0  0  0  0
 17 15  1  0  0  0  0
 17  4  1  0  0  0  0
 18 17  2  0  0  0  0
 19 20  1  6  0  0  0
 19 14  1  0  0  0  0
 21 20  1  0  0  0  0
 21 22  2  0  0  0  0
 23 21  1  0  0  0  0
 24  9  1  0  0  0  0
 25 31  1  1  0  0  0
 26 30  1  0  0  0  0
 27 26  1  0  0  0  0
 27 28  1  0  0  0  0
 28 25  1  0  0  0  0
 29 26  2  0  0  0  0
 30 25  1  0  0  0  0
 30 24  1  1  0  0  0
 31 32  2  0  0  0  0
M  END
>  <MODEL>
7

>  <REMARK>
 VINA RESULT:      -6.8      3.361     10.362
  Name = 
  6 active torsions:
  status: ('A' for Active; 'I' for Inactive)
    1  A    between atoms: C_1  and  O_10
    2  A    between atoms: C_6  and  C_7
    3  A    between atoms: N_8  and  C_21
    4  A    between atoms: O_10  and  C_24
    5  A    between atoms: C_16  and  C_27
    6  A    between atoms: C_27  and  C_32
                            x       y       z     vdW  Elec       q    Type
                         _______ _______ _______ _____ _____    ______ ____

>  <TORSDO>
F 6

$$$$
=
 OpenBabel11052421333D

 32 36  0  0  1  0  0  0  0  0999 V2000
  188.6340  175.2120  142.6380 C   0  0  0  0  0  0  0  0  0  0  0  0
  185.8160  177.9180  139.8500 C   0  0  0  0  0  3  0  0  0  0  0  0
  185.5030  178.6670  140.9420 N   0  0  0  0  0  0  0  0  0  0  0  0
  189.4540  173.7500  141.3230 N   0  0  0  0  0  0  0  0  0  0  0  0
  188.6500  174.5330  140.5570 C   0  0  0  0  0  3  0  0  0  0  0  0
  186.6920  176.8370  139.9630 C   0  0  0  0  0  3  0  0  0  0  0  0
  188.1180  175.4790  141.4070 C   0  0  0  0  0  0  0  0  0  0  0  0
  187.2380  176.5380  141.2130 C   0  0  0  0  0  0  0  0  0  0  0  0
  187.4680  177.0060  143.6120 C   0  0  0  0  0  0  0  0  0  0  0  0
  186.0210  178.3980  142.1710 C   0  0  0  0  0  3  0  0  0  0  0  0
  186.9030  177.3240  142.3450 C   0  0  0  0  0  0  0  0  0  0  0  0
  189.4530  174.1520  142.5920 N   0  0  0  0  0  0  0  0  0  0  0  0
  188.3280  175.9480  143.7340 N   0  0  0  0  0  0  0  0  0  0  0  0
  191.4730  171.6430  138.9890 C   0  0  0  0  0  3  0  0  0  0  0  0
  190.9960  172.7370  139.5900 C   0  0  0  0  0  3  0  0  0  0  0  0
  191.0610  170.3140  141.0630 C   0  0  0  0  0  2  0  0  0  0  0  0
  190.2130  172.6290  140.8430 C   0  0  0  0  0  0  0  0  0  0  0  0
  190.2090  171.4690  141.5160 C   0  0  0  0  0  3  0  0  0  0  0  0
  191.1500  170.2780  139.5320 C   0  0  2  0  0  3  0  0  0  0  0  0
  192.1400  169.3480  139.1110 O   0  0  0  0  0  0  0  0  0  0  0  0
  192.0100  168.5920  137.9450 C   0  0  0  0  0  0  0  0  0  0  0  0
  193.0240  168.2510  137.2780 O   0  0  0  0  0  0  0  0  0  0  0  0
  190.7160  168.1910  137.5110 N   0  0  0  0  0  1  0  0  0  0  0  0
  187.1340  177.8080  144.8310 C   0  0  0  0  0  2  0  0  0  0  0  0
  186.5460  176.7850  147.1070 C   0  0  1  0  0  3  0  0  0  0  0  0
  184.9950  178.0740  145.9940 C   0  0  0  0  0  0  0  0  0  0  0  0
  185.0330  178.4670  147.3430 N   0  0  0  0  0  2  0  0  0  0  0  0
  186.0910  177.8460  148.0190 N   0  0  0  0  0  2  0  0  0  0  0  0
  184.1310  178.4930  145.1800 O   0  0  0  0  0  0  0  0  0  0  0  0
  186.0620  177.1130  145.6750 C   0  0  1  0  0  3  0  0  0  0  0  0
  188.0170  176.5370  147.2630 C   0  0  0  0  0  3  0  0  0  0  0  0
  188.5020  175.2980  147.2370 C   0  0  0  0  0  2  0  0  0  0  0  0
  1 13  1  0  0  0  0
  2  6  2  0  0  0  0
  2  3  1  0  0  0  0
  3 10  2  0  0  0  0
  4 12  1  0  0  0  0
  5  4  1  0  0  0  0
  5  7  2  0  0  0  0
  6  8  1  0  0  0  0
  7  1  1  0  0  0  0
  8  7  1  0  0  0  0
  8 11  2  0  0  0  0
  9 13  2  0  0  0  0
  9 24  1  0  0  0  0
 10 11  1  0  0  0  0
 11  9  1  0  0  0  0
 12  1  2  0  0  0  0
 14 19  1  0  0  0  0
 14 15  2  0  0  0  0
 15 17  1  0  0  0  0
 16 18  1  0  0  0  0
 17  4  1  0  0  0  0
 17 18  2  0  0  0  0
 19 20  1  1  0  0  0
 19 16  1  0  0  0  0
 21 20  1  0  0  0  0
 22 21  2  0  0  0  0
 23 21  1  0  0  0  0
 25 31  1  6  0  0  0
 25 28  1  0  0  0  0
 26 27  1  0  0  0  0
 27 28  1  0  0  0  0
 29 26  2  0  0  0  0
 30 24  1  6  0  0  0
 30 26  1  0  0  0  0
 30 25  1  0  0  0  0
 32 31  2  0  0  0  0
M  END
>  <MODEL>
8

>  <REMARK>
 VINA RESULT:      -6.7      4.874      6.782
  Name = 
  6 active torsions:
  status: ('A' for Active; 'I' for Inactive)
    1  A    between atoms: C_1  and  O_10
    2  A    between atoms: C_6  and  C_7
    3  A    between atoms: N_8  and  C_21
    4  A    between atoms: O_10  and  C_24
    5  A    between atoms: C_16  and  C_27
    6  A    between atoms: C_27  and  C_32
                            x       y       z     vdW  Elec       q    Type
                         _______ _______ _______ _____ _____    ______ ____

>  <TORSDO>
F 6

$$$$
=
 OpenBabel11052421333D

 32 36  0  0  1  0  0  0  0  0999 V2000
  191.9680  174.6030  144.6320 C   0  0  0  0  0  0  0  0  0  0  0  0
  196.4560  176.0990  143.8160 C   0  0  0  0  0  3  0  0  0  0  0  0
  196.9100  174.9170  144.3160 N   0  0  0  0  0  0  0  0  0  0  0  0
  190.7340  176.2080  143.9710 N   0  0  0  0  0  0  0  0  0  0  0  0
  192.0140  176.6060  143.7500 C   0  0  0  0  0  3  0  0  0  0  0  0
  195.0850  176.3570  143.7520 C   0  0  0  0  0  3  0  0  0  0  0  0
  192.8150  175.5680  144.1780 C   0  0  0  0  0  0  0  0  0  0  0  0
  194.1930  175.3860  144.2090 C   0  0  0  0  0  0  0  0  0  0  0  0
  193.7540  173.1800  145.1930 C   0  0  0  0  0  0  0  0  0  0  0  0
  196.0620  173.9540  144.7680 C   0  0  0  0  0  3  0  0  0  0  0  0
  194.6770  174.1590  144.7300 C   0  0  0  0  0  0  0  0  0  0  0  0
  190.6920  174.9900  144.5080 N   0  0  0  0  0  0  0  0  0  0  0  0
  192.4080  173.4230  145.1350 N   0  0  0  0  0  0  0  0  0  0  0  0
  187.4720  177.9550  144.4990 C   0  0  0  0  0  3  0  0  0  0  0  0
  188.6910  177.4750  144.7650 C   0  0  0  0  0  3  0  0  0  0  0  0
  188.0680  178.1530  142.0820 C   0  0  0  0  0  2  0  0  0  0  0  0
  189.5650  176.9880  143.6720 C   0  0  0  0  0  0  0  0  0  0  0  0
  189.2460  177.2720  142.4010 C   0  0  0  0  0  3  0  0  0  0  0  0
  186.9370  177.9270  143.0940 C   0  0  2  0  0  3  0  0  0  0  0  0
  185.9300  178.9200  142.9450 O   0  0  0  0  0  0  0  0  0  0  0  0
  184.5750  178.6470  143.1400 C   0  0  0  0  0  0  0  0  0  0  0  0
  184.0590  178.7250  144.2880 O   0  0  0  0  0  0  0  0  0  0  0  0
  183.7650  178.2880  142.0280 N   0  0  0  0  0  1  0  0  0  0  0  0
  194.2270  171.8760  145.7550 C   0  0  0  0  0  2  0  0  0  0  0  0
  195.5800  169.8120  145.0590 C   0  0  1  0  0  3  0  0  0  0  0  0
  193.3680  169.9920  144.4460 C   0  0  0  0  0  0  0  0  0  0  0  0
  193.6020  168.6970  144.9390 N   0  0  0  0  0  2  0  0  0  0  0  0
  194.8810  168.5950  145.4990 N   0  0  0  0  0  2  0  0  0  0  0  0
  192.2900  170.3330  143.8910 O   0  0  0  0  0  0  0  0  0  0  0  0
  194.5320  170.8700  144.6420 C   0  0  1  0  0  3  0  0  0  0  0  0
  196.5880  170.2530  146.0790 C   0  0  0  0  0  3  0  0  0  0  0  0
  196.8060  169.5280  147.1740 C   0  0  0  0  0  2  0  0  0  0  0  0
  1 13  1  0  0  0  0
  2  3  1  0  0  0  0
  3 10  2  0  0  0  0
  4 12  1  0  0  0  0
  5  4  1  0  0  0  0
  5  7  2  0  0  0  0
  6  2  2  0  0  0  0
  6  8  1  0  0  0  0
  7  8  1  0  0  0  0
  7  1  1  0  0  0  0
  8 11  2  0  0  0  0
  9 24  1  0  0  0  0
 11 10  1  0  0  0  0
 11  9  1  0  0  0  0
 12  1  2  0  0  0  0
 13  9  2  0  0  0  0
 14 15  2  0  0  0  0
 16 18  1  0  0  0  0
 16 19  1  0  0  0  0
 17  4  1  0  0  0  0
 17 15  1  0  0  0  0
 18 17  2  0  0  0  0
 19 20  1  1  0  0  0
 19 14  1  0  0  0  0
 20 21  1  0  0  0  0
 21 22  2  0  0  0  0
 23 21  1  0  0  0  0
 25 28  1  0  0  0  0
 25 31  1  1  0  0  0
 26 30  1  0  0  0  0
 26 27  1  0  0  0  0
 27 28  1  0  0  0  0
 29 26  2  0  0  0  0
 30 25  1  0  0  0  0
 30 24  1  1  0  0  0
 31 32  2  0  0  0  0
M  END
>  <MODEL>
9

>  <REMARK>
 VINA RESULT:      -6.7      3.082     10.468
  Name = 
  6 active torsions:
  status: ('A' for Active; 'I' for Inactive)
    1  A    between atoms: C_1  and  O_10
    2  A    between atoms: C_6  and  C_7
    3  A    between atoms: N_8  and  C_21
    4  A    between atoms: O_10  and  C_24
    5  A    between atoms: C_16  and  C_27
    6  A    between atoms: C_27  and  C_32
                            x       y       z     vdW  Elec       q    Type
                         _______ _______ _______ _____ _____    ______ ____

>  <TORSDO>
F 6

$$$$
