=
 OpenBabel11052418133D

 28 32  0  0  1  0  0  0  0  0999 V2000
  190.5690  173.4600  143.3070 N   0  0  0  0  0  0  0  0  0  0  0  0
  187.3300  177.0890  144.8940 S   0  0  0  0  0  0  0  0  0  0  0  0
  188.2460  174.2650  139.1060 C   0  0  0  0  0  2  0  0  0  0  0  0
  186.5590  177.7250  142.6010 C   0  0  0  0  0  0  0  0  0  0  0  0
  188.2710  175.8800  142.4770 C   0  0  1  0  0  3  0  0  0  0  0  0
  187.3900  176.8210  143.2370 C   0  0  0  0  0  0  0  0  0  0  0  0
  187.3160  176.8870  140.3650 C   0  0  0  0  0  2  0  0  0  0  0  0
  185.8580  178.5760  143.4600 C   0  0  0  0  0  3  0  0  0  0  0  0
  189.7830  174.1920  141.0730 C   0  0  2  0  0  3  0  0  0  0  0  0
  188.5100  174.6950  143.2070 O   0  0  0  0  0  0  0  0  0  0  0  0
  186.4280  177.7250  141.1760 N   0  0  0  0  0  2  0  0  0  0  0  0
  191.7400  172.6830  141.2710 C   0  0  0  0  0  2  0  0  0  0  0  0
  188.5650  174.6850  140.3340 C   0  0  0  0  0  0  0  0  0  0  0  0
  190.5320  173.0400  140.4110 C   0  0  0  0  0  2  0  0  0  0  0  0
  186.1990  178.3400  144.7890 C   0  0  0  0  0  0  0  0  0  0  0  0
  187.6310  175.5740  141.1040 C   0  0  1  0  0  3  0  0  0  0  0  0
  191.2860  172.3370  142.6880 C   0  0  0  0  0  2  0  0  0  0  0  0
  189.3730  173.7880  142.5120 C   0  0  2  0  0  3  0  0  0  0  0  0
  185.6130  179.0540  145.9570 C   0  0  0  0  0  2  0  0  0  0  0  0
  184.1560  178.6710  146.1200 C   0  0  0  0  0  1  0  0  0  0  0  0
  190.2210  173.1000  144.6940 C   0  0  0  0  0  2  0  0  0  0  0  0
  190.5510  174.1590  145.7110 C   0  0  0  0  0  0  0  0  0  0  0  0
  191.1710  176.1210  147.6120 C   0  0  0  0  0  0  0  0  0  0  0  0
  189.5670  174.6180  146.5950 C   0  0  0  0  0  3  0  0  0  0  0  0
  191.8490  174.6800  145.7870 C   0  0  0  0  0  3  0  0  0  0  0  0
  192.1580  175.6600  146.7340 C   0  0  0  0  0  3  0  0  0  0  0  0
  191.4780  177.0950  148.5510 O   0  0  0  0  0  1  0  0  0  0  0  0
  189.8760  175.5990  147.5420 C   0  0  0  0  0  3  0  0  0  0  0  0
  1 21  1  0  0  0  0
  3 13  2  0  0  0  0
  4  6  2  0  0  0  0
  4  8  1  0  0  0  0
  5 10  1  1  0  0  0
  5  6  1  0  0  0  0
  6  2  1  0  0  0  0
  7 11  1  0  0  0  0
  8 15  2  0  0  0  0
  9 14  1  6  0  0  0
  9 18  1  0  0  0  0
 11  4  1  0  0  0  0
 12 17  1  0  0  0  0
 13  9  1  0  0  0  0
 13 16  1  0  0  0  0
 14 12  1  0  0  0  0
 15  2  1  0  0  0  0
 15 19  1  0  0  0  0
 16  7  1  6  0  0  0
 16  5  1  0  0  0  0
 17  1  1  0  0  0  0
 18 10  1  1  0  0  0
 18  1  1  0  0  0  0
 19 20  1  0  0  0  0
 21 22  1  0  0  0  0
 22 25  2  0  0  0  0
 22 24  1  0  0  0  0
 23 27  1  0  0  0  0
 24 28  2  0  0  0  0
 25 26  1  0  0  0  0
 26 23  2  0  0  0  0
 28 23  1  0  0  0  0
M  END
>  <MODEL>
1

>  <REMARK>
 VINA RESULT:      -7.5      0.000      0.000
  Name = 
  3 active torsions:
  status: ('A' for Active; 'I' for Inactive)
    1  A    between atoms: N_1  and  C_2
    2  A    between atoms: C_2  and  C_3
    3  A    between atoms: C_12  and  C_24
                            x       y       z     vdW  Elec       q    Type
                         _______ _______ _______ _____ _____    ______ ____

>  <TORSDO>
F 3

$$$$
=
 OpenBabel11052418133D

 28 32  0  0  1  0  0  0  0  0999 V2000
  189.6940  176.4490  144.7400 N   0  0  0  0  0  0  0  0  0  0  0  0
  185.5060  177.6660  142.0660 S   0  0  0  0  0  0  0  0  0  0  0  0
  187.2510  178.8100  148.2270 C   0  0  0  0  0  2  0  0  0  0  0  0
  184.1820  178.4260  144.0470 C   0  0  0  0  0  0  0  0  0  0  0  0
  186.4720  177.6520  144.7580 C   0  0  1  0  0  3  0  0  0  0  0  0
  185.4400  177.9550  143.7190 C   0  0  0  0  0  0  0  0  0  0  0  0
  184.7790  178.4010  146.4790 C   0  0  0  0  0  2  0  0  0  0  0  0
  183.3190  178.5900  142.9600 C   0  0  0  0  0  3  0  0  0  0  0  0
  188.2890  177.1750  146.6500 C   0  0  2  0  0  3  0  0  0  0  0  0
  187.7790  177.8170  144.2500 O   0  0  0  0  0  0  0  0  0  0  0  0
  183.8480  178.7460  145.4010 N   0  0  0  0  0  2  0  0  0  0  0  0
  190.4320  175.9980  147.0590 C   0  0  0  0  0  2  0  0  0  0  0  0
  187.2360  178.1770  147.0500 C   0  0  0  0  0  0  0  0  0  0  0  0
  189.4820  177.0630  147.5940 C   0  0  0  0  0  2  0  0  0  0  0  0
  183.9260  178.1910  141.7720 C   0  0  0  0  0  0  0  0  0  0  0  0
  186.2330  178.5480  145.9950 C   0  0  1  0  0  3  0  0  0  0  0  0
  190.8560  176.3480  145.6330 C   0  0  0  0  0  2  0  0  0  0  0  0
  188.7870  177.5060  145.2200 C   0  0  2  0  0  3  0  0  0  0  0  0
  183.2920  178.2620  140.4270 C   0  0  0  0  0  2  0  0  0  0  0  0
  181.7840  178.2170  140.5630 C   0  0  0  0  0  1  0  0  0  0  0  0
  190.1640  176.7140  143.3690 C   0  0  0  0  0  2  0  0  0  0  0  0
  189.8570  175.6170  142.3850 C   0  0  0  0  0  0  0  0  0  0  0  0
  189.2900  173.5820  140.5460 C   0  0  0  0  0  0  0  0  0  0  0  0
  188.6490  175.6270  141.6750 C   0  0  0  0  0  3  0  0  0  0  0  0
  190.7820  174.5890  142.1660 C   0  0  0  0  0  3  0  0  0  0  0  0
  190.4990  173.5730  141.2490 C   0  0  0  0  0  3  0  0  0  0  0  0
  189.0090  172.5720  139.6370 O   0  0  0  0  0  1  0  0  0  0  0  0
  188.3670  174.6100  140.7580 C   0  0  0  0  0  3  0  0  0  0  0  0
  1 18  1  0  0  0  0
  1 17  1  0  0  0  0
  2  6  1  0  0  0  0
  4 11  1  0  0  0  0
  5  6  1  6  0  0  0
  5 16  1  0  0  0  0
  6  4  2  0  0  0  0
  8  4  1  0  0  0  0
  9 13  1  0  0  0  0
  9 14  1  1  0  0  0
 10  5  1  0  0  0  0
 11  7  1  0  0  0  0
 12 14  1  0  0  0  0
 13  3  2  0  0  0  0
 15  2  1  0  0  0  0
 15  8  2  0  0  0  0
 16  7  1  1  0  0  0
 16 13  1  0  0  0  0
 17 12  1  0  0  0  0
 18 10  1  6  0  0  0
 18  9  1  0  0  0  0
 19 20  1  0  0  0  0
 19 15  1  0  0  0  0
 21  1  1  0  0  0  0
 22 21  1  0  0  0  0
 23 28  2  0  0  0  0
 23 26  1  0  0  0  0
 24 22  2  0  0  0  0
 25 22  1  0  0  0  0
 26 25  2  0  0  0  0
 27 23  1  0  0  0  0
 28 24  1  0  0  0  0
M  END
>  <MODEL>
2

>  <REMARK>
 VINA RESULT:      -7.5      2.547      5.823
  Name = 
  3 active torsions:
  status: ('A' for Active; 'I' for Inactive)
    1  A    between atoms: N_1  and  C_2
    2  A    between atoms: C_2  and  C_3
    3  A    between atoms: C_12  and  C_24
                            x       y       z     vdW  Elec       q    Type
                         _______ _______ _______ _____ _____    ______ ____

>  <TORSDO>
F 3

$$$$
=
 OpenBabel11052418133D

 28 32  0  0  1  0  0  0  0  0999 V2000
  189.7220  175.9500  146.0640 N   0  0  0  0  0  0  0  0  0  0  0  0
  188.8820  174.4050  141.2590 S   0  0  0  0  0  0  0  0  0  0  0  0
  193.8410  173.4540  145.3600 C   0  0  0  0  0  2  0  0  0  0  0  0
  191.2090  173.5710  140.8780 C   0  0  0  0  0  0  0  0  0  0  0  0
  190.9800  174.5170  143.2020 C   0  0  1  0  0  3  0  0  0  0  0  0
  190.4230  174.1290  141.8690 C   0  0  0  0  0  0  0  0  0  0  0  0
  193.2120  173.6650  142.3790 C   0  0  0  0  0  2  0  0  0  0  0  0
  190.5450  173.3340  139.6710 C   0  0  0  0  0  3  0  0  0  0  0  0
  192.0150  175.1440  145.5770 C   0  0  2  0  0  3  0  0  0  0  0  0
  189.9960  174.4420  144.2130 O   0  0  0  0  0  0  0  0  0  0  0  0
  192.5790  173.2430  141.1260 N   0  0  0  0  0  2  0  0  0  0  0  0
  191.5720  176.4770  147.6190 C   0  0  0  0  0  2  0  0  0  0  0  0
  192.7770  174.0720  144.8390 C   0  0  0  0  0  0  0  0  0  0  0  0
  192.4170  175.3520  147.0340 C   0  0  0  0  0  2  0  0  0  0  0  0
  189.2230  173.7640  139.7320 C   0  0  0  0  0  0  0  0  0  0  0  0
  192.1930  173.6190  143.5320 C   0  0  1  0  0  3  0  0  0  0  0  0
  190.0880  176.1440  147.4730 C   0  0  0  0  0  2  0  0  0  0  0  0
  190.4990  174.8350  145.4960 C   0  0  2  0  0  3  0  0  0  0  0  0
  188.2330  173.6330  138.6280 C   0  0  0  0  0  2  0  0  0  0  0  0
  188.8420  174.1160  137.3280 C   0  0  0  0  0  1  0  0  0  0  0  0
  188.2710  175.7050  145.9760 C   0  0  0  0  0  2  0  0  0  0  0  0
  187.4730  176.8820  145.4780 C   0  0  0  0  0  0  0  0  0  0  0  0
  186.0010  179.0780  144.5540 C   0  0  0  0  0  0  0  0  0  0  0  0
  186.7030  177.6370  146.3710 C   0  0  0  0  0  3  0  0  0  0  0  0
  187.5100  177.2340  144.1230 C   0  0  0  0  0  3  0  0  0  0  0  0
  186.7740  178.3290  143.6620 C   0  0  0  0  0  3  0  0  0  0  0  0
  185.2690  180.1640  144.0960 O   0  0  0  0  0  1  0  0  0  0  0  0
  185.9660  178.7320  145.9080 C   0  0  0  0  0  3  0  0  0  0  0  0
  1 17  1  0  0  0  0
  2  6  1  0  0  0  0
  4 11  1  0  0  0  0
  4  6  2  0  0  0  0
  5  6  1  6  0  0  0
  5 16  1  0  0  0  0
  5 10  1  0  0  0  0
  8 15  2  0  0  0  0
  8  4  1  0  0  0  0
  9 14  1  1  0  0  0
 11  7  1  0  0  0  0
 13  3  2  0  0  0  0
 13  9  1  0  0  0  0
 14 12  1  0  0  0  0
 15  2  1  0  0  0  0
 16  7  1  6  0  0  0
 16 13  1  0  0  0  0
 17 12  1  0  0  0  0
 18 10  1  6  0  0  0
 18  9  1  0  0  0  0
 18  1  1  0  0  0  0
 19 15  1  0  0  0  0
 20 19  1  0  0  0  0
 21  1  1  0  0  0  0
 22 21  1  0  0  0  0
 22 24  1  0  0  0  0
 23 28  1  0  0  0  0
 25 22  2  0  0  0  0
 26 25  1  0  0  0  0
 26 23  2  0  0  0  0
 27 23  1  0  0  0  0
 28 24  2  0  0  0  0
M  END
>  <MODEL>
3

>  <REMARK>
 VINA RESULT:      -7.1      2.331      6.357
  Name = 
  3 active torsions:
  status: ('A' for Active; 'I' for Inactive)
    1  A    between atoms: N_1  and  C_2
    2  A    between atoms: C_2  and  C_3
    3  A    between atoms: C_12  and  C_24
                            x       y       z     vdW  Elec       q    Type
                         _______ _______ _______ _____ _____    ______ ____

>  <TORSDO>
F 3

$$$$
=
 OpenBabel11052418133D

 28 32  0  0  1  0  0  0  0  0999 V2000
  191.5780  174.9780  143.8050 N   0  0  0  0  0  0  0  0  0  0  0  0
  187.0110  176.9760  142.6530 S   0  0  0  0  0  0  0  0  0  0  0  0
  190.6700  177.2280  148.0250 C   0  0  0  0  0  2  0  0  0  0  0  0
  186.4690  177.6730  144.9930 C   0  0  0  0  0  0  0  0  0  0  0  0
  188.7250  176.5540  144.9040 C   0  0  1  0  0  3  0  0  0  0  0  0
  187.4860  177.0900  144.2600 C   0  0  0  0  0  0  0  0  0  0  0  0
  187.7560  177.3130  147.1120 C   0  0  0  0  0  2  0  0  0  0  0  0
  185.3550  178.0560  144.2420 C   0  0  0  0  0  3  0  0  0  0  0  0
  190.9340  175.6590  146.1010 C   0  0  2  0  0  3  0  0  0  0  0  0
  189.8300  176.6130  144.0260 O   0  0  0  0  0  0  0  0  0  0  0  0
  186.6070  177.8820  146.4020 N   0  0  0  0  0  2  0  0  0  0  0  0
  192.9010  174.1940  145.7440 C   0  0  0  0  0  2  0  0  0  0  0  0
  190.2090  176.7330  146.8730 C   0  0  0  0  0  0  0  0  0  0  0  0
  192.3240  175.3020  146.6170 C   0  0  0  0  0  2  0  0  0  0  0  0
  185.5120  177.7170  142.9010 C   0  0  0  0  0  0  0  0  0  0  0  0
  189.0040  177.3340  146.2090 C   0  0  1  0  0  3  0  0  0  0  0  0
  192.9260  174.6410  144.2830 C   0  0  0  0  0  2  0  0  0  0  0  0
  191.0240  176.0800  144.6120 C   0  0  2  0  0  3  0  0  0  0  0  0
  184.5230  178.0090  141.8280 C   0  0  0  0  0  2  0  0  0  0  0  0
  185.2310  178.1440  140.4950 C   0  0  0  0  0  1  0  0  0  0  0  0
  191.6500  175.3310  142.3760 C   0  0  0  0  0  2  0  0  0  0  0  0
  190.9220  174.3790  141.4650 C   0  0  0  0  0  0  0  0  0  0  0  0
  189.5660  172.5980  139.7810 C   0  0  0  0  0  0  0  0  0  0  0  0
  191.6290  173.6390  140.5090 C   0  0  0  0  0  3  0  0  0  0  0  0
  189.5350  174.2190  141.5800 C   0  0  0  0  0  3  0  0  0  0  0  0
  188.8580  173.3310  140.7390 C   0  0  0  0  0  3  0  0  0  0  0  0
  188.8940  171.7180  138.9440 O   0  0  0  0  0  1  0  0  0  0  0  0
  190.9510  172.7510  139.6680 C   0  0  0  0  0  3  0  0  0  0  0  0
  1 17  1  0  0  0  0
  1 18  1  0  0  0  0
  2 15  1  0  0  0  0
  2  6  1  0  0  0  0
  4 11  1  0  0  0  0
  5 10  1  6  0  0  0
  5 16  1  0  0  0  0
  6  5  1  0  0  0  0
  6  4  2  0  0  0  0
  8  4  1  0  0  0  0
  9 14  1  1  0  0  0
  9 13  1  0  0  0  0
 11  7  1  0  0  0  0
 12 14  1  0  0  0  0
 13  3  2  0  0  0  0
 15  8  2  0  0  0  0
 16 13  1  0  0  0  0
 16  7  1  1  0  0  0
 17 12  1  0  0  0  0
 18 10  1  6  0  0  0
 18  9  1  0  0  0  0
 19 15  1  0  0  0  0
 20 19  1  0  0  0  0
 21  1  1  0  0  0  0
 22 25  1  0  0  0  0
 22 21  1  0  0  0  0
 23 26  1  0  0  0  0
 24 22  2  0  0  0  0
 26 25  2  0  0  0  0
 27 23  1  0  0  0  0
 28 23  2  0  0  0  0
 28 24  1  0  0  0  0
M  END
>  <MODEL>
4

>  <REMARK>
 VINA RESULT:      -6.9      2.159      5.607
  Name = 
  3 active torsions:
  status: ('A' for Active; 'I' for Inactive)
    1  A    between atoms: N_1  and  C_2
    2  A    between atoms: C_2  and  C_3
    3  A    between atoms: C_12  and  C_24
                            x       y       z     vdW  Elec       q    Type
                         _______ _______ _______ _____ _____    ______ ____

>  <TORSDO>
F 3

$$$$
=
 OpenBabel11052418133D

 28 32  0  0  1  0  0  0  0  0999 V2000
  188.4210  176.9000  145.6070 N   0  0  0  0  0  0  0  0  0  0  0  0
  188.5260  174.3980  141.1460 S   0  0  0  0  0  0  0  0  0  0  0  0
  192.6340  174.5330  146.1870 C   0  0  0  0  0  2  0  0  0  0  0  0
  190.8940  173.6280  141.3720 C   0  0  0  0  0  0  0  0  0  0  0  0
  190.2170  175.0000  143.3740 C   0  0  1  0  0  3  0  0  0  0  0  0
  189.9270  174.3280  142.0690 C   0  0  0  0  0  0  0  0  0  0  0  0
  192.5760  174.1190  143.1610 C   0  0  0  0  0  2  0  0  0  0  0  0
  190.4740  173.1230  140.1380 C   0  0  0  0  0  3  0  0  0  0  0  0
  190.7760  176.1340  145.7200 C   0  0  2  0  0  3  0  0  0  0  0  0
  189.0610  175.0740  144.1830 O   0  0  0  0  0  0  0  0  0  0  0  0
  192.1970  173.4260  141.9270 N   0  0  0  0  0  2  0  0  0  0  0  0
  189.9370  177.8190  147.3330 C   0  0  0  0  0  2  0  0  0  0  0  0
  191.6790  174.9790  145.3670 C   0  0  0  0  0  0  0  0  0  0  0  0
  190.8930  176.6460  147.1530 C   0  0  0  0  0  2  0  0  0  0  0  0
  189.1570  173.4880  139.8690 C   0  0  0  0  0  0  0  0  0  0  0  0
  191.3580  174.2480  144.0950 C   0  0  1  0  0  3  0  0  0  0  0  0
  188.5110  177.3870  146.9900 C   0  0  0  0  0  2  0  0  0  0  0  0
  189.3070  175.7370  145.4290 C   0  0  2  0  0  3  0  0  0  0  0  0
  188.3950  173.0900  138.6540 C   0  0  0  0  0  2  0  0  0  0  0  0
  188.2060  174.2890  137.7460 C   0  0  0  0  0  1  0  0  0  0  0  0
  187.0160  176.5680  145.3080 C   0  0  0  0  0  2  0  0  0  0  0  0
  186.5020  177.1540  144.0200 C   0  0  0  0  0  0  0  0  0  0  0  0
  185.5460  178.2560  141.6290 C   0  0  0  0  0  0  0  0  0  0  0  0
  185.1230  177.2440  143.7890 C   0  0  0  0  0  3  0  0  0  0  0  0
  187.4000  177.6240  143.0530 C   0  0  0  0  0  3  0  0  0  0  0  0
  186.9230  178.1730  141.8590 C   0  0  0  0  0  3  0  0  0  0  0  0
  185.0730  178.7990  140.4430 O   0  0  0  0  0  1  0  0  0  0  0  0
  184.6470  177.7930  142.5940 C   0  0  0  0  0  3  0  0  0  0  0  0
  1 17  1  0  0  0  0
  2  6  1  0  0  0  0
  4 11  1  0  0  0  0
  4  6  2  0  0  0  0
  5  6  1  6  0  0  0
  5 16  1  0  0  0  0
  5 10  1  0  0  0  0
  8  4  1  0  0  0  0
  9 14  1  1  0  0  0
 11  7  1  0  0  0  0
 13  9  1  0  0  0  0
 13  3  2  0  0  0  0
 14 12  1  0  0  0  0
 15  8  2  0  0  0  0
 15  2  1  0  0  0  0
 16  7  1  6  0  0  0
 16 13  1  0  0  0  0
 17 12  1  0  0  0  0
 18 10  1  6  0  0  0
 18  1  1  0  0  0  0
 18  9  1  0  0  0  0
 19 15  1  0  0  0  0
 20 19  1  0  0  0  0
 21  1  1  0  0  0  0
 22 21  1  0  0  0  0
 23 26  2  0  0  0  0
 23 28  1  0  0  0  0
 24 22  1  0  0  0  0
 25 22  2  0  0  0  0
 26 25  1  0  0  0  0
 27 23  1  0  0  0  0
 28 24  2  0  0  0  0
M  END
>  <MODEL>
5

>  <REMARK>
 VINA RESULT:      -6.9      2.267      6.762
  Name = 
  3 active torsions:
  status: ('A' for Active; 'I' for Inactive)
    1  A    between atoms: N_1  and  C_2
    2  A    between atoms: C_2  and  C_3
    3  A    between atoms: C_12  and  C_24
                            x       y       z     vdW  Elec       q    Type
                         _______ _______ _______ _____ _____    ______ ____

>  <TORSDO>
F 3

$$$$
=
 OpenBabel11052418133D

 28 32  0  0  1  0  0  0  0  0999 V2000
  188.1220  175.7560  141.5260 N   0  0  0  0  0  0  0  0  0  0  0  0
  189.6670  177.3070  146.1500 S   0  0  0  0  0  0  0  0  0  0  0  0
  192.0980  172.9800  141.9450 C   0  0  0  0  0  2  0  0  0  0  0  0
  191.3860  175.5120  146.4300 C   0  0  0  0  0  0  0  0  0  0  0  0
  190.2050  175.2670  144.2180 C   0  0  1  0  0  3  0  0  0  0  0  0
  190.4690  175.9790  145.5070 C   0  0  0  0  0  0  0  0  0  0  0  0
  191.9470  173.5820  144.9360 C   0  0  0  0  0  2  0  0  0  0  0  0
  191.4570  176.2580  147.6100 C   0  0  0  0  0  3  0  0  0  0  0  0
  189.8120  173.9840  141.9140 C   0  0  2  0  0  3  0  0  0  0  0  0
  189.7870  176.1640  143.2100 O   0  0  0  0  0  0  0  0  0  0  0  0
  192.2040  174.3740  146.1420 N   0  0  0  0  0  2  0  0  0  0  0  0
  188.2210  173.7930  140.0230 C   0  0  0  0  0  2  0  0  0  0  0  0
  191.1640  173.7330  142.5330 C   0  0  0  0  0  0  0  0  0  0  0  0
  189.6400  173.4810  140.4840 C   0  0  0  0  0  2  0  0  0  0  0  0
  190.5350  177.3010  147.6000 C   0  0  0  0  0  0  0  0  0  0  0  0
  191.4740  174.4950  143.7900 C   0  0  1  0  0  3  0  0  0  0  0  0
  187.9520  175.2930  140.1420 C   0  0  0  0  0  2  0  0  0  0  0  0
  189.5030  175.5020  141.9710 C   0  0  2  0  0  3  0  0  0  0  0  0
  190.3710  178.3020  148.6900 C   0  0  0  0  0  2  0  0  0  0  0  0
  191.4720  178.1330  149.7180 C   0  0  0  0  0  1  0  0  0  0  0  0
  187.7800  177.1880  141.5960 C   0  0  0  0  0  2  0  0  0  0  0  0
  186.8210  177.5420  142.7020 C   0  0  0  0  0  0  0  0  0  0  0  0
  185.0260  178.1980  144.7490 C   0  0  0  0  0  0  0  0  0  0  0  0
  186.4040  178.8680  142.8730 C   0  0  0  0  0  3  0  0  0  0  0  0
  186.3300  176.5450  143.5530 C   0  0  0  0  0  3  0  0  0  0  0  0
  185.4360  176.8720  144.5760 C   0  0  0  0  0  3  0  0  0  0  0  0
  184.1390  178.5230  145.7660 O   0  0  0  0  0  1  0  0  0  0  0  0
  185.5090  179.1950  143.8970 C   0  0  0  0  0  3  0  0  0  0  0  0
  1 21  1  0  0  0  0
  1 18  1  0  0  0  0
  2 15  1  0  0  0  0
  3 13  2  0  0  0  0
  4  8  1  0  0  0  0
  5 10  1  6  0  0  0
  5  6  1  0  0  0  0
  6  2  1  0  0  0  0
  6  4  2  0  0  0  0
  7 11  1  0  0  0  0
  9 14  1  6  0  0  0
  9 18  1  0  0  0  0
  9 13  1  0  0  0  0
 11  4  1  0  0  0  0
 12 17  1  0  0  0  0
 12 14  1  0  0  0  0
 13 16  1  0  0  0  0
 15  8  2  0  0  0  0
 15 19  1  0  0  0  0
 16  5  1  0  0  0  0
 16  7  1  1  0  0  0
 17  1  1  0  0  0  0
 18 10  1  1  0  0  0
 19 20  1  0  0  0  0
 21 22  1  0  0  0  0
 22 24  2  0  0  0  0
 22 25  1  0  0  0  0
 23 27  1  0  0  0  0
 24 28  1  0  0  0  0
 25 26  2  0  0  0  0
 26 23  1  0  0  0  0
 28 23  2  0  0  0  0
M  END
>  <MODEL>
6

>  <REMARK>
 VINA RESULT:      -6.8      2.045      5.533
  Name = 
  3 active torsions:
  status: ('A' for Active; 'I' for Inactive)
    1  A    between atoms: N_1  and  C_2
    2  A    between atoms: C_2  and  C_3
    3  A    between atoms: C_12  and  C_24
                            x       y       z     vdW  Elec       q    Type
                         _______ _______ _______ _____ _____    ______ ____

>  <TORSDO>
F 3

$$$$
=
 OpenBabel11052418133D

 28 32  0  0  1  0  0  0  0  0999 V2000
  192.4680  175.6250  145.7770 N   0  0  0  0  0  0  0  0  0  0  0  0
  191.5160  173.7830  141.0990 S   0  0  0  0  0  0  0  0  0  0  0  0
  188.0610  177.5770  145.0980 C   0  0  0  0  0  2  0  0  0  0  0  0
  189.1040  174.4460  141.0800 C   0  0  0  0  0  0  0  0  0  0  0  0
  190.1860  175.1140  143.2550 C   0  0  1  0  0  3  0  0  0  0  0  0
  190.2310  174.5370  141.8750 C   0  0  0  0  0  0  0  0  0  0  0  0
  187.7190  175.5100  142.8750 C   0  0  0  0  0  2  0  0  0  0  0  0
  189.3090  173.8170  139.8480 C   0  0  0  0  0  3  0  0  0  0  0  0
  190.0570  176.1980  145.6880 C   0  0  2  0  0  3  0  0  0  0  0  0
  191.4250  175.6910  143.6130 O   0  0  0  0  0  0  0  0  0  0  0  0
  187.8570  175.0010  141.5080 N   0  0  0  0  0  2  0  0  0  0  0  0
  191.2980  176.3670  147.8270 C   0  0  0  0  0  2  0  0  0  0  0  0
  188.9700  176.6610  144.7510 C   0  0  0  0  0  0  0  0  0  0  0  0
  190.1750  176.9750  146.9950 C   0  0  0  0  0  2  0  0  0  0  0  0
  190.6240  173.3800  139.7210 C   0  0  0  0  0  0  0  0  0  0  0  0
  189.0400  176.1480  143.3420 C   0  0  1  0  0  3  0  0  0  0  0  0
  192.6020  176.3800  147.0300 C   0  0  0  0  0  2  0  0  0  0  0  0
  191.4150  176.2280  144.9410 C   0  0  2  0  0  3  0  0  0  0  0  0
  191.1820  172.6970  138.5210 C   0  0  0  0  0  2  0  0  0  0  0  0
  191.6210  171.2920  138.8820 C   0  0  0  0  0  1  0  0  0  0  0  0
  193.7700  175.6070  145.0870 C   0  0  0  0  0  2  0  0  0  0  0  0
  194.5970  174.3780  145.3540 C   0  0  0  0  0  0  0  0  0  0  0  0
  196.1300  172.0900  145.8650 C   0  0  0  0  0  0  0  0  0  0  0  0
  195.9500  174.5000  145.6960 C   0  0  0  0  0  3  0  0  0  0  0  0
  194.0130  173.1070  145.2770 C   0  0  0  0  0  3  0  0  0  0  0  0
  194.7780  171.9660  145.5300 C   0  0  0  0  0  3  0  0  0  0  0  0
  196.8910  170.9570  146.1150 O   0  0  0  0  0  1  0  0  0  0  0  0
  196.7150  173.3570  145.9490 C   0  0  0  0  0  3  0  0  0  0  0  0
  1 17  1  0  0  0  0
  2  6  1  0  0  0  0
  4 11  1  0  0  0  0
  4  6  2  0  0  0  0
  5  6  1  6  0  0  0
  5 16  1  0  0  0  0
  5 10  1  0  0  0  0
  8  4  1  0  0  0  0
  9 14  1  1  0  0  0
 11  7  1  0  0  0  0
 13  3  2  0  0  0  0
 13  9  1  0  0  0  0
 14 12  1  0  0  0  0
 15  8  2  0  0  0  0
 15  2  1  0  0  0  0
 16  7  1  1  0  0  0
 16 13  1  0  0  0  0
 17 12  1  0  0  0  0
 18 10  1  6  0  0  0
 18  9  1  0  0  0  0
 18  1  1  0  0  0  0
 19 20  1  0  0  0  0
 19 15  1  0  0  0  0
 21 22  1  0  0  0  0
 21  1  1  0  0  0  0
 22 24  1  0  0  0  0
 23 28  1  0  0  0  0
 23 27  1  0  0  0  0
 24 28  2  0  0  0  0
 25 22  2  0  0  0  0
 25 26  1  0  0  0  0
 26 23  2  0  0  0  0
M  END
>  <MODEL>
7

>  <REMARK>
 VINA RESULT:      -6.8      3.224      6.212
  Name = 
  3 active torsions:
  status: ('A' for Active; 'I' for Inactive)
    1  A    between atoms: N_1  and  C_2
    2  A    between atoms: C_2  and  C_3
    3  A    between atoms: C_12  and  C_24
                            x       y       z     vdW  Elec       q    Type
                         _______ _______ _______ _____ _____    ______ ____

>  <TORSDO>
F 3

$$$$
=
 OpenBabel11052418133D

 28 32  0  0  1  0  0  0  0  0999 V2000
  188.4850  175.8890  145.4600 N   0  0  0  0  0  0  0  0  0  0  0  0
  187.4090  176.5010  140.4950 S   0  0  0  0  0  0  0  0  0  0  0  0
  184.9010  179.1560  145.8780 C   0  0  0  0  0  2  0  0  0  0  0  0
  185.3030  177.7940  140.8760 C   0  0  0  0  0  0  0  0  0  0  0  0
  186.3580  177.1580  143.0740 C   0  0  1  0  0  3  0  0  0  0  0  0
  186.3420  177.2130  141.5790 C   0  0  0  0  0  0  0  0  0  0  0  0
  184.1490  178.3850  143.0190 C   0  0  0  0  0  2  0  0  0  0  0  0
  185.4120  177.6960  139.4860 C   0  0  0  0  0  3  0  0  0  0  0  0
  186.3590  177.1340  145.7400 C   0  0  2  0  0  3  0  0  0  0  0  0
  187.6790  177.1430  143.5750 O   0  0  0  0  0  0  0  0  0  0  0  0
  184.2400  178.4660  141.5590 N   0  0  0  0  0  2  0  0  0  0  0  0
  187.4240  176.0350  147.6900 C   0  0  0  0  0  2  0  0  0  0  0  0
  185.5300  178.2390  145.1370 C   0  0  0  0  0  0  0  0  0  0  0  0
  186.5950  177.2330  147.2440 C   0  0  0  0  0  2  0  0  0  0  0  0
  186.5500  176.9820  139.1210 C   0  0  0  0  0  0  0  0  0  0  0  0
  185.5580  178.3530  143.6400 C   0  0  1  0  0  3  0  0  0  0  0  0
  188.7340  175.9870  146.9040 C   0  0  0  0  0  2  0  0  0  0  0  0
  187.7220  177.0640  145.0050 C   0  0  2  0  0  3  0  0  0  0  0  0
  186.9780  176.7200  137.7200 C   0  0  0  0  0  2  0  0  0  0  0  0
  185.9030  175.9420  136.9880 C   0  0  0  0  0  1  0  0  0  0  0  0
  189.7770  175.7720  144.7580 C   0  0  0  0  0  2  0  0  0  0  0  0
  189.8990  174.5520  143.8850 C   0  0  0  0  0  0  0  0  0  0  0  0
  190.1390  172.2810  142.2640 C   0  0  0  0  0  0  0  0  0  0  0  0
  190.1960  174.6890  142.5230 C   0  0  0  0  0  3  0  0  0  0  0  0
  189.7300  173.2750  144.4340 C   0  0  0  0  0  3  0  0  0  0  0  0
  189.8480  172.1410  143.6240 C   0  0  0  0  0  3  0  0  0  0  0  0
  190.2550  171.1560  141.4600 O   0  0  0  0  0  1  0  0  0  0  0  0
  190.3140  173.5540  141.7140 C   0  0  0  0  0  3  0  0  0  0  0  0
  1 17  1  0  0  0  0
  2  6  1  0  0  0  0
  4 11  1  0  0  0  0
  4  6  2  0  0  0  0
  5  6  1  6  0  0  0
  5 10  1  0  0  0  0
  5 16  1  0  0  0  0
  8  4  1  0  0  0  0
  9 14  1  1  0  0  0
 11  7  1  0  0  0  0
 13  9  1  0  0  0  0
 13  3  2  0  0  0  0
 14 12  1  0  0  0  0
 15  8  2  0  0  0  0
 15  2  1  0  0  0  0
 16  7  1  6  0  0  0
 16 13  1  0  0  0  0
 17 12  1  0  0  0  0
 18 10  1  6  0  0  0
 18  1  1  0  0  0  0
 18  9  1  0  0  0  0
 19 15  1  0  0  0  0
 20 19  1  0  0  0  0
 21  1  1  0  0  0  0
 22 25  1  0  0  0  0
 22 21  1  0  0  0  0
 23 26  1  0  0  0  0
 24 22  2  0  0  0  0
 26 25  2  0  0  0  0
 27 23  1  0  0  0  0
 28 23  2  0  0  0  0
 28 24  1  0  0  0  0
M  END
>  <MODEL>
8

>  <REMARK>
 VINA RESULT:      -6.7      2.370      5.759
  Name = 
  3 active torsions:
  status: ('A' for Active; 'I' for Inactive)
    1  A    between atoms: N_1  and  C_2
    2  A    between atoms: C_2  and  C_3
    3  A    between atoms: C_12  and  C_24
                            x       y       z     vdW  Elec       q    Type
                         _______ _______ _______ _____ _____    ______ ____

>  <TORSDO>
F 3

$$$$
=
 OpenBabel11052418133D

 28 32  0  0  1  0  0  0  0  0999 V2000
  191.2360  176.0130  146.1860 N   0  0  0  0  0  0  0  0  0  0  0  0
  189.6580  174.1390  141.6940 S   0  0  0  0  0  0  0  0  0  0  0  0
  195.5300  174.4940  144.4700 C   0  0  0  0  0  2  0  0  0  0  0  0
  191.9560  173.8430  140.7510 C   0  0  0  0  0  0  0  0  0  0  0  0
  192.0730  174.7980  143.0800 C   0  0  1  0  0  3  0  0  0  0  0  0
  191.3200  174.2440  141.9120 C   0  0  0  0  0  0  0  0  0  0  0  0
  194.1810  174.4450  141.7300 C   0  0  0  0  0  2  0  0  0  0  0  0
  191.0970  173.4160  139.7340 C   0  0  0  0  0  3  0  0  0  0  0  0
  193.4710  175.7310  145.1500 C   0  0  2  0  0  3  0  0  0  0  0  0
  191.4020  174.5390  144.2950 O   0  0  0  0  0  0  0  0  0  0  0  0
  193.3830  173.8430  140.6580 N   0  0  0  0  0  2  0  0  0  0  0  0
  193.2310  177.0040  147.2630 C   0  0  0  0  0  2  0  0  0  0  0  0
  194.2610  174.8330  144.2310 C   0  0  0  0  0  0  0  0  0  0  0  0
  194.1480  176.0790  146.4720 C   0  0  0  0  0  2  0  0  0  0  0  0
  189.7650  173.5360  140.1180 C   0  0  0  0  0  0  0  0  0  0  0  0
  193.5030  174.2110  143.0930 C   0  0  1  0  0  3  0  0  0  0  0  0
  191.8710  176.3380  147.4700 C   0  0  0  0  0  2  0  0  0  0  0  0
  192.0910  175.0830  145.4280 C   0  0  2  0  0  3  0  0  0  0  0  0
  188.5980  173.1430  139.2810 C   0  0  0  0  0  2  0  0  0  0  0  0
  188.9410  171.9160  138.4610 C   0  0  0  0  0  1  0  0  0  0  0  0
  189.9010  175.4420  146.4430 C   0  0  0  0  0  2  0  0  0  0  0  0
  188.7580  176.3380  146.0490 C   0  0  0  0  0  0  0  0  0  0  0  0
  186.6240  177.9950  145.3090 C   0  0  0  0  0  0  0  0  0  0  0  0
  188.8260  177.0870  144.8670 C   0  0  0  0  0  3  0  0  0  0  0  0
  187.6150  176.4160  146.8550 C   0  0  0  0  0  3  0  0  0  0  0  0
  186.5510  177.2440  146.4860 C   0  0  0  0  0  3  0  0  0  0  0  0
  185.5690  178.8190  144.9440 O   0  0  0  0  0  1  0  0  0  0  0  0
  187.7610  177.9160  144.4990 C   0  0  0  0  0  3  0  0  0  0  0  0
  1 21  1  0  0  0  0
  1 17  1  0  0  0  0
  2  6  1  0  0  0  0
  4  6  2  0  0  0  0
  5  6  1  6  0  0  0
  5 16  1  0  0  0  0
  5 10  1  0  0  0  0
  8 15  2  0  0  0  0
  8  4  1  0  0  0  0
  9 18  1  0  0  0  0
  9 14  1  1  0  0  0
 11  4  1  0  0  0  0
 11  7  1  0  0  0  0
 12 17  1  0  0  0  0
 13  3  2  0  0  0  0
 13  9  1  0  0  0  0
 14 12  1  0  0  0  0
 15  2  1  0  0  0  0
 16  7  1  6  0  0  0
 16 13  1  0  0  0  0
 18 10  1  6  0  0  0
 18  1  1  0  0  0  0
 19 15  1  0  0  0  0
 20 19  1  0  0  0  0
 22 21  1  0  0  0  0
 22 25  1  0  0  0  0
 23 26  1  0  0  0  0
 24 22  2  0  0  0  0
 26 25  2  0  0  0  0
 27 23  1  0  0  0  0
 28 24  1  0  0  0  0
 28 23  2  0  0  0  0
M  END
>  <MODEL>
9

>  <REMARK>
 VINA RESULT:      -6.5      2.757      6.418
  Name = 
  3 active torsions:
  status: ('A' for Active; 'I' for Inactive)
    1  A    between atoms: N_1  and  C_2
    2  A    between atoms: C_2  and  C_3
    3  A    between atoms: C_12  and  C_24
                            x       y       z     vdW  Elec       q    Type
                         _______ _______ _______ _____ _____    ______ ____

>  <TORSDO>
F 3

$$$$
