=
 OpenBabel11052421333D

 32 37  0  0  1  0  0  0  0  0999 V2000
  189.4760  173.5660  138.4060 N   0  0  0  0  0  0  0  0  0  0  0  0
  190.2260  173.2710  143.5550 N   0  0  0  0  0  0  0  0  0  0  0  0
  190.2840  172.8840  141.0880 C   0  0  1  0  0  3  0  0  0  0  0  0
  188.5360  174.3700  142.0290 C   0  0  0  0  0  2  0  0  0  0  0  0
  188.6850  174.0320  139.5590 C   0  0  0  0  0  2  0  0  0  0  0  0
  189.3060  174.4080  143.3580 C   0  0  2  0  0  3  0  0  0  0  0  0
  190.9190  173.4450  138.6750 C   0  0  0  0  0  2  0  0  0  0  0  0
  189.4810  174.1560  140.8600 C   0  0  2  0  0  3  0  0  0  0  0  0
  191.2310  172.5980  139.9210 C   0  0  0  0  0  2  0  0  0  0  0  0
  191.0790  173.0040  142.3870 C   0  0  0  0  0  2  0  0  0  0  0  0
  189.4480  172.0790  143.8620 C   0  0  0  0  0  1  0  0  0  0  0  0
  191.5710  177.4500  142.9670 C   0  0  0  0  0  3  0  0  0  0  0  0
  191.1320  178.2640  144.0110 C   0  0  0  0  0  3  0  0  0  0  0  0
  190.9870  176.1970  142.7670 C   0  0  0  0  0  3  0  0  0  0  0  0
  189.9650  175.7410  143.6140 C   0  0  0  0  0  0  0  0  0  0  0  0
  190.1100  177.8260  144.8560 C   0  0  0  0  0  3  0  0  0  0  0  0
  189.5290  176.5640  144.6720 C   0  0  0  0  0  0  0  0  0  0  0  0
  188.4140  176.1320  145.5740 C   0  0  0  0  0  2  0  0  0  0  0  0
  187.5550  177.2710  145.9110 N   0  0  0  0  0  2  0  0  0  0  0  0
  185.5540  177.2280  143.1220 C   0  0  0  0  0  2  0  0  0  0  0  0
  185.8280  177.9950  144.3970 C   0  0  0  0  0  0  0  0  0  0  0  0
  185.2460  177.1370  146.5840 C   0  0  2  0  0  3  0  0  0  0  0  0
  184.1270  178.1390  146.2750 C   0  0  2  0  0  3  0  0  0  0  0  0
  184.4810  179.1170  144.7790 S   0  0  0  0  0  0  0  0  0  0  0  0
  186.7370  178.1760  143.1980 C   0  0  0  0  0  2  0  0  0  0  0  0
  185.1670  178.4720  147.3180 C   0  0  0  0  0  2  0  0  0  0  0  0
  186.2160  177.0920  145.4730 N   0  0  0  0  0  0  0  0  0  0  0  0
  188.9500  172.2680  137.9970 C   0  0  0  0  0  2  0  0  0  0  0  0
  189.5200  171.8620  136.6440 C   0  0  0  0  0  2  0  0  0  0  0  0
  190.0650  170.4700  136.6800 C   0  0  0  0  0  3  0  0  0  0  0  0
  190.4340  168.3050  137.7530 C   0  0  0  0  0  1  0  0  0  0  0  0
  189.8810  169.6870  137.7410 C   0  0  0  0  0  3  0  0  0  0  0  0
  1  7  1  0  0  0  0
  1  5  1  0  0  0  0
  2 11  1  0  0  0  0
  3  9  1  6  0  0  0
  3 10  1  0  0  0  0
  4  6  1  0  0  0  0
  6  2  1  0  0  0  0
  6 15  1  6  0  0  0
  7  9  1  0  0  0  0
  8  5  1  6  0  0  0
  8  3  1  0  0  0  0
  8  4  1  0  0  0  0
 10  2  1  0  0  0  0
 12 13  1  0  0  0  0
 13 16  2  0  0  0  0
 14 12  2  0  0  0  0
 14 15  1  0  0  0  0
 15 17  2  0  0  0  0
 17 16  1  0  0  0  0
 17 18  1  0  0  0  0
 18 19  1  0  0  0  0
 20 25  1  0  0  0  0
 20 21  1  0  0  0  0
 21 24  1  0  0  0  0
 21 27  1  0  0  0  0
 22 26  1  1  0  0  0
 23 22  1  0  0  0  0
 23 26  1  1  0  0  0
 24 23  1  0  0  0  0
 25 21  1  0  0  0  0
 27 19  1  0  0  0  0
 27 22  1  0  0  0  0
 28  1  1  0  0  0  0
 29 30  1  0  0  0  0
 29 28  1  0  0  0  0
 30 32  2  0  0  0  0
 32 31  1  0  0  0  0
M  END
>  <MODEL>
1

>  <REMARK>
 VINA RESULT:      -7.3      0.000      0.000
  Name = 
  7 active torsions:
  status: ('A' for Active; 'I' for Inactive)
    1  A    between atoms: C_1  and  C_10
    2  A    between atoms: N_2  and  C_24
    3  A    between atoms: C_10  and  C_24
    4  A    between atoms: C_14  and  C_15
    5  A    between atoms: C_16  and  C_26
    6  A    between atoms: C_16  and  N_27
    7  A    between atoms: N_27  and  N_32
                            x       y       z     vdW  Elec       q    Type
                         _______ _______ _______ _____ _____    ______ ____

>  <TORSDO>
F 7

$$$$
=
 OpenBabel11052421333D

 32 37  0  0  1  0  0  0  0  0999 V2000
  187.4040  177.1910  146.3850 N   0  0  0  0  0  0  0  0  0  0  0  0
  190.7140  174.1000  143.8040 N   0  0  0  0  0  0  0  0  0  0  0  0
  188.9080  175.7130  144.4180 C   0  0  1  0  0  3  0  0  0  0  0  0
  189.9210  174.3120  146.1960 C   0  0  0  0  0  2  0  0  0  0  0  0
  188.1790  176.0020  146.7840 C   0  0  0  0  0  2  0  0  0  0  0  0
  191.0560  173.9350  145.2300 C   0  0  2  0  0  3  0  0  0  0  0  0
  187.9940  177.9460  145.2660 C   0  0  0  0  0  2  0  0  0  0  0  0
  189.3650  175.6870  145.8690 C   0  0  2  0  0  3  0  0  0  0  0  0
  188.3040  177.0670  144.0420 C   0  0  0  0  0  2  0  0  0  0  0  0
  190.0890  175.3970  143.5020 C   0  0  0  0  0  2  0  0  0  0  0  0
  189.8100  173.0300  143.4050 C   0  0  0  0  0  1  0  0  0  0  0  0
  193.6010  176.4640  146.5170 C   0  0  0  0  0  3  0  0  0  0  0  0
  194.7970  175.7610  146.3700 C   0  0  0  0  0  3  0  0  0  0  0  0
  192.3940  175.8750  146.1350 C   0  0  0  0  0  3  0  0  0  0  0  0
  192.3700  174.5810  145.5920 C   0  0  0  0  0  0  0  0  0  0  0  0
  194.7860  174.4690  145.8380 C   0  0  0  0  0  3  0  0  0  0  0  0
  193.5810  173.8770  145.4380 C   0  0  0  0  0  0  0  0  0  0  0  0
  193.5950  172.4790  144.9000 C   0  0  0  0  0  2  0  0  0  0  0  0
  194.2910  171.5790  145.8240 N   0  0  0  0  0  2  0  0  0  0  0  0
  194.8980  168.2050  145.6340 C   0  0  0  0  0  2  0  0  0  0  0  0
  195.5310  169.5240  146.0200 C   0  0  0  0  0  0  0  0  0  0  0  0
  196.1800  171.1860  144.3840 C   0  0  2  0  0  3  0  0  0  0  0  0
  197.5010  170.4960  144.7480 C   0  0  2  0  0  3  0  0  0  0  0  0
  197.3120  169.3680  146.1660 S   0  0  0  0  0  0  0  0  0  0  0  0
  194.5630  168.8470  146.9690 C   0  0  0  0  0  2  0  0  0  0  0  0
  197.2320  171.9040  145.2210 C   0  0  0  0  0  2  0  0  0  0  0  0
  195.0660  170.5980  145.1510 N   0  0  0  0  0  0  0  0  0  0  0  0
  186.0640  176.7480  146.0150 C   0  0  0  0  0  2  0  0  0  0  0  0
  185.0320  177.8110  146.3720 C   0  0  0  0  0  2  0  0  0  0  0  0
  184.2980  178.2840  145.1590 C   0  0  0  0  0  3  0  0  0  0  0  0
  183.9080  178.3700  142.7480 C   0  0  0  0  0  1  0  0  0  0  0  0
  184.6550  177.8830  143.9400 C   0  0  0  0  0  3  0  0  0  0  0  0
  1  5  1  0  0  0  0
  2  6  1  0  0  0  0
  3 10  1  6  0  0  0
  3  8  1  0  0  0  0
  6 15  1  1  0  0  0
  6  4  1  0  0  0  0
  7  1  1  0  0  0  0
  8  4  1  1  0  0  0
  8  5  1  0  0  0  0
  9  3  1  0  0  0  0
  9  7  1  0  0  0  0
 10  2  1  0  0  0  0
 11  2  1  0  0  0  0
 13 12  1  0  0  0  0
 14 12  2  0  0  0  0
 15 14  1  0  0  0  0
 16 13  2  0  0  0  0
 17 15  2  0  0  0  0
 17 16  1  0  0  0  0
 18 17  1  0  0  0  0
 18 19  1  0  0  0  0
 20 21  1  0  0  0  0
 20 25  1  0  0  0  0
 21 24  1  0  0  0  0
 21 25  1  0  0  0  0
 22 23  1  0  0  0  0
 22 27  1  0  0  0  0
 22 26  1  1  0  0  0
 23 26  1  1  0  0  0
 23 24  1  0  0  0  0
 27 19  1  0  0  0  0
 27 21  1  0  0  0  0
 28 29  1  0  0  0  0
 28  1  1  0  0  0  0
 30 29  1  0  0  0  0
 31 32  1  0  0  0  0
 32 30  2  0  0  0  0
M  END
>  <MODEL>
2

>  <REMARK>
 VINA RESULT:      -7.2      4.822      9.314
  Name = 
  7 active torsions:
  status: ('A' for Active; 'I' for Inactive)
    1  A    between atoms: C_1  and  C_10
    2  A    between atoms: N_2  and  C_24
    3  A    between atoms: C_10  and  C_24
    4  A    between atoms: C_14  and  C_15
    5  A    between atoms: C_16  and  C_26
    6  A    between atoms: C_16  and  N_27
    7  A    between atoms: N_27  and  N_32
                            x       y       z     vdW  Elec       q    Type
                         _______ _______ _______ _____ _____    ______ ____

>  <TORSDO>
F 7

$$$$
=
 OpenBabel11052421333D

 32 37  0  0  1  0  0  0  0  0999 V2000
  195.5080  175.6200  145.1160 N   0  0  0  0  0  0  0  0  0  0  0  0
  190.9460  174.1340  143.0790 N   0  0  0  0  0  0  0  0  0  0  0  0
  193.3250  174.2390  143.8380 C   0  0  1  0  0  3  0  0  0  0  0  0
  191.9870  176.3270  143.7890 C   0  0  0  0  0  2  0  0  0  0  0  0
  194.3380  176.3740  144.6290 C   0  0  0  0  0  2  0  0  0  0  0  0
  190.7110  175.4870  143.6200 C   0  0  2  0  0  3  0  0  0  0  0  0
  195.1950  174.2580  145.5820 C   0  0  0  0  0  2  0  0  0  0  0  0
  193.0480  175.5540  144.5520 C   0  0  2  0  0  3  0  0  0  0  0  0
  194.4150  173.4320  144.5450 C   0  0  0  0  0  2  0  0  0  0  0  0
  192.0380  173.4180  143.7580 C   0  0  0  0  0  2  0  0  0  0  0  0
  191.2520  174.2370  141.6590 C   0  0  0  0  0  1  0  0  0  0  0  0
  189.3550  174.5840  147.0670 C   0  0  0  0  0  3  0  0  0  0  0  0
  188.3260  175.5130  147.2170 C   0  0  0  0  0  3  0  0  0  0  0  0
  190.1170  174.5700  145.8960 C   0  0  0  0  0  3  0  0  0  0  0  0
  189.8510  175.4770  144.8590 C   0  0  0  0  0  0  0  0  0  0  0  0
  188.0560  176.4260  146.1960 C   0  0  0  0  0  3  0  0  0  0  0  0
  188.8040  176.4090  145.0110 C   0  0  0  0  0  0  0  0  0  0  0  0
  188.5130  177.4200  143.9460 C   0  0  0  0  0  2  0  0  0  0  0  0
  187.2870  177.0680  143.2230 N   0  0  0  0  0  2  0  0  0  0  0  0
  184.9760  179.3890  144.2520 C   0  0  0  0  0  2  0  0  0  0  0  0
  185.1820  178.2370  143.2930 C   0  0  0  0  0  0  0  0  0  0  0  0
  186.6030  178.4050  141.3400 C   0  0  2  0  0  3  0  0  0  0  0  0
  185.1860  178.5630  140.7760 C   0  0  2  0  0  3  0  0  0  0  0  0
  183.9100  178.2110  142.0290 S   0  0  0  0  0  0  0  0  0  0  0  0
  184.8980  177.9590  144.7550 C   0  0  0  0  0  2  0  0  0  0  0  0
  185.9620  177.2930  140.5180 C   0  0  0  0  0  2  0  0  0  0  0  0
  186.5550  178.2100  142.8020 N   0  0  0  0  0  0  0  0  0  0  0  0
  196.4800  175.5490  144.0310 C   0  0  0  0  0  2  0  0  0  0  0  0
  196.2410  176.6670  143.0250 C   0  0  0  0  0  2  0  0  0  0  0  0
  196.1940  176.1390  141.6270 C   0  0  0  0  0  3  0  0  0  0  0  0
  195.0150  175.2980  139.6580 C   0  0  0  0  0  1  0  0  0  0  0  0
  195.0360  175.8230  141.0510 C   0  0  0  0  0  3  0  0  0  0  0  0
  1  7  1  0  0  0  0
  2  6  1  0  0  0  0
  2 10  1  0  0  0  0
  3 10  1  1  0  0  0
  3  9  1  0  0  0  0
  3  8  1  0  0  0  0
  5  1  1  0  0  0  0
  6  4  1  0  0  0  0
  6 15  1  1  0  0  0
  8  4  1  6  0  0  0
  8  5  1  0  0  0  0
  9  7  1  0  0  0  0
 11  2  1  0  0  0  0
 12 13  1  0  0  0  0
 14 12  2  0  0  0  0
 15 17  2  0  0  0  0
 15 14  1  0  0  0  0
 16 13  2  0  0  0  0
 17 16  1  0  0  0  0
 18 17  1  0  0  0  0
 19 18  1  0  0  0  0
 20 25  1  0  0  0  0
 21 20  1  0  0  0  0
 21 25  1  0  0  0  0
 22 26  1  6  0  0  0
 22 27  1  0  0  0  0
 23 26  1  6  0  0  0
 23 22  1  0  0  0  0
 23 24  1  0  0  0  0
 24 21  1  0  0  0  0
 27 19  1  0  0  0  0
 27 21  1  0  0  0  0
 28  1  1  0  0  0  0
 29 28  1  0  0  0  0
 30 29  1  0  0  0  0
 31 32  1  0  0  0  0
 32 30  2  0  0  0  0
M  END
>  <MODEL>
3

>  <REMARK>
 VINA RESULT:      -7.0      3.164      5.652
  Name = 
  7 active torsions:
  status: ('A' for Active; 'I' for Inactive)
    1  A    between atoms: C_1  and  C_10
    2  A    between atoms: N_2  and  C_24
    3  A    between atoms: C_10  and  C_24
    4  A    between atoms: C_14  and  C_15
    5  A    between atoms: C_16  and  C_26
    6  A    between atoms: C_16  and  N_27
    7  A    between atoms: N_27  and  N_32
                            x       y       z     vdW  Elec       q    Type
                         _______ _______ _______ _____ _____    ______ ____

>  <TORSDO>
F 7

$$$$
=
 OpenBabel11052421333D

 32 37  0  0  1  0  0  0  0  0999 V2000
  186.6650  177.6060  144.6780 N   0  0  0  0  0  0  0  0  0  0  0  0
  190.6520  175.4590  147.2580 N   0  0  0  0  0  0  0  0  0  0  0  0
  188.4730  176.5110  146.6380 C   0  0  1  0  0  3  0  0  0  0  0  0
  190.3250  176.5260  144.9890 C   0  0  0  0  0  2  0  0  0  0  0  0
  188.1030  177.4850  144.3740 C   0  0  0  0  0  2  0  0  0  0  0  0
  191.0730  175.4910  145.8430 C   0  0  2  0  0  3  0  0  0  0  0  0
  186.1490  176.5560  145.5740 C   0  0  0  0  0  2  0  0  0  0  0  0
  188.8230  176.3890  145.1630 C   0  0  2  0  0  3  0  0  0  0  0  0
  186.9640  176.4160  146.8700 C   0  0  0  0  0  2  0  0  0  0  0  0
  189.1920  175.4190  147.4290 C   0  0  0  0  0  2  0  0  0  0  0  0
  191.1820  176.6320  147.9380 C   0  0  0  0  0  1  0  0  0  0  0  0
  189.9380  172.3010  144.0940 C   0  0  0  0  0  3  0  0  0  0  0  0
  191.1450  171.6190  143.9400 C   0  0  0  0  0  3  0  0  0  0  0  0
  189.9160  173.5480  144.7220 C   0  0  0  0  0  3  0  0  0  0  0  0
  191.1000  174.1220  145.2120 C   0  0  0  0  0  0  0  0  0  0  0  0
  192.3300  172.1820  144.4160 C   0  0  0  0  0  3  0  0  0  0  0  0
  192.3160  173.4260  145.0620 C   0  0  0  0  0  0  0  0  0  0  0  0
  193.6070  174.0200  145.5350 C   0  0  0  0  0  2  0  0  0  0  0  0
  194.5400  174.1810  144.4160 N   0  0  0  0  0  2  0  0  0  0  0  0
  192.9620  176.4410  142.3690 C   0  0  0  0  0  2  0  0  0  0  0  0
  194.2420  175.6510  142.5320 C   0  0  0  0  0  0  0  0  0  0  0  0
  195.8870  176.1690  144.2300 C   0  0  2  0  0  3  0  0  0  0  0  0
  196.4770  176.7780  142.9520 C   0  0  2  0  0  3  0  0  0  0  0  0
  195.5370  176.2920  141.4690 S   0  0  0  0  0  0  0  0  0  0  0  0
  192.9980  174.9690  141.9970 C   0  0  0  0  0  2  0  0  0  0  0  0
  197.0960  175.5370  143.5500 C   0  0  0  0  0  2  0  0  0  0  0  0
  194.5960  175.5180  143.9400 N   0  0  0  0  0  0  0  0  0  0  0  0
  186.4440  178.9130  145.2870 C   0  0  0  0  0  2  0  0  0  0  0  0
  185.4060  179.7020  144.4990 C   0  0  0  0  0  2  0  0  0  0  0  0
  185.1670  179.0950  143.1540 C   0  0  0  0  0  3  0  0  0  0  0  0
  183.7830  177.9350  141.5070 C   0  0  0  0  0  1  0  0  0  0  0  0
  183.9970  178.5340  142.8530 C   0  0  0  0  0  3  0  0  0  0  0  0
  1 28  1  0  0  0  0
  1  7  1  0  0  0  0
  2 10  1  0  0  0  0
  2 11  1  0  0  0  0
  3  9  1  6  0  0  0
  3 10  1  0  0  0  0
  4  8  1  0  0  0  0
  4  6  1  0  0  0  0
  5  1  1  0  0  0  0
  6 15  1  6  0  0  0
  6  2  1  0  0  0  0
  7  9  1  0  0  0  0
  8  5  1  6  0  0  0
  8  3  1  0  0  0  0
 12 14  1  0  0  0  0
 13 12  2  0  0  0  0
 13 16  1  0  0  0  0
 14 15  2  0  0  0  0
 16 17  2  0  0  0  0
 17 15  1  0  0  0  0
 17 18  1  0  0  0  0
 19 18  1  0  0  0  0
 20 21  1  0  0  0  0
 21 27  1  0  0  0  0
 22 26  1  6  0  0  0
 23 26  1  6  0  0  0
 23 22  1  0  0  0  0
 24 21  1  0  0  0  0
 24 23  1  0  0  0  0
 25 20  1  0  0  0  0
 25 21  1  0  0  0  0
 27 22  1  0  0  0  0
 27 19  1  0  0  0  0
 29 28  1  0  0  0  0
 30 29  1  0  0  0  0
 31 32  1  0  0  0  0
 32 30  2  0  0  0  0
M  END
>  <MODEL>
4

>  <REMARK>
 VINA RESULT:      -7.0      4.330      8.328
  Name = 
  7 active torsions:
  status: ('A' for Active; 'I' for Inactive)
    1  A    between atoms: C_1  and  C_10
    2  A    between atoms: N_2  and  C_24
    3  A    between atoms: C_10  and  C_24
    4  A    between atoms: C_14  and  C_15
    5  A    between atoms: C_16  and  C_26
    6  A    between atoms: C_16  and  N_27
    7  A    between atoms: N_27  and  N_32
                            x       y       z     vdW  Elec       q    Type
                         _______ _______ _______ _____ _____    ______ ____

>  <TORSDO>
F 7

$$$$
=
 OpenBabel11052421333D

 32 37  0  0  1  0  0  0  0  0999 V2000
  196.6880  175.5980  143.6460 N   0  0  0  0  0  0  0  0  0  0  0  0
  191.6040  174.4530  143.5490 N   0  0  0  0  0  0  0  0  0  0  0  0
  194.0990  174.3440  143.4650 C   0  0  1  0  0  3  0  0  0  0  0  0
  192.9910  176.5620  143.3960 C   0  0  0  0  0  2  0  0  0  0  0  0
  195.4840  176.4160  143.4080 C   0  0  0  0  0  2  0  0  0  0  0  0
  191.6740  175.9000  143.8310 C   0  0  2  0  0  3  0  0  0  0  0  0
  196.4490  174.4000  144.4700 C   0  0  0  0  0  2  0  0  0  0  0  0
  194.1860  175.7910  143.9270 C   0  0  2  0  0  3  0  0  0  0  0  0
  195.2990  173.5260  143.9420 C   0  0  0  0  0  2  0  0  0  0  0  0
  192.8030  173.7180  143.9800 C   0  0  0  0  0  2  0  0  0  0  0  0
  191.4110  174.2570  142.1190 C   0  0  0  0  0  1  0  0  0  0  0  0
  191.9150  176.5000  147.5880 C   0  0  0  0  0  3  0  0  0  0  0  0
  190.6300  176.9570  147.8830 C   0  0  0  0  0  3  0  0  0  0  0  0
  192.2450  176.1470  146.2780 C   0  0  0  0  0  3  0  0  0  0  0  0
  191.2920  176.2360  145.2510 C   0  0  0  0  0  0  0  0  0  0  0  0
  189.6750  177.0570  146.8690 C   0  0  0  0  0  3  0  0  0  0  0  0
  189.9930  176.6900  145.5550 C   0  0  0  0  0  0  0  0  0  0  0  0
  188.9580  176.8380  144.4820 C   0  0  0  0  0  2  0  0  0  0  0  0
  187.9390  177.8130  144.8820 N   0  0  0  0  0  2  0  0  0  0  0  0
  185.1250  177.6620  142.9210 C   0  0  0  0  0  2  0  0  0  0  0  0
  185.6520  178.2000  144.2330 C   0  0  0  0  0  0  0  0  0  0  0  0
  186.1560  176.7690  146.1200 C   0  0  2  0  0  3  0  0  0  0  0  0
  184.7900  177.3720  146.4720 C   0  0  2  0  0  3  0  0  0  0  0  0
  184.3100  178.6950  145.3160 S   0  0  0  0  0  0  0  0  0  0  0  0
  185.9760  178.9190  142.9390 C   0  0  0  0  0  2  0  0  0  0  0  0
  186.0250  177.8180  147.2190 C   0  0  0  0  0  2  0  0  0  0  0  0
  186.6230  177.2830  144.8180 N   0  0  0  0  0  0  0  0  0  0  0  0
  197.2200  175.1950  142.3490 C   0  0  0  0  0  2  0  0  0  0  0  0
  196.7760  176.1670  141.2630 C   0  0  0  0  0  2  0  0  0  0  0  0
  196.0930  175.4530  140.1410 C   0  0  0  0  0  3  0  0  0  0  0  0
  194.1100  174.7540  138.8950 C   0  0  0  0  0  1  0  0  0  0  0  0
  194.7670  175.4730  140.0210 C   0  0  0  0  0  3  0  0  0  0  0  0
  1  7  1  0  0  0  0
  2  6  1  0  0  0  0
  2 10  1  0  0  0  0
  3  8  1  0  0  0  0
  3  9  1  1  0  0  0
  3 10  1  0  0  0  0
  4  6  1  0  0  0  0
  5  1  1  0  0  0  0
  5  8  1  0  0  0  0
  6 15  1  1  0  0  0
  8  4  1  6  0  0  0
  9  7  1  0  0  0  0
 11  2  1  0  0  0  0
 12 13  1  0  0  0  0
 14 12  2  0  0  0  0
 15 17  2  0  0  0  0
 15 14  1  0  0  0  0
 16 13  2  0  0  0  0
 17 16  1  0  0  0  0
 18 19  1  0  0  0  0
 18 17  1  0  0  0  0
 20 25  1  0  0  0  0
 20 21  1  0  0  0  0
 21 27  1  0  0  0  0
 21 24  1  0  0  0  0
 22 23  1  0  0  0  0
 22 26  1  1  0  0  0
 23 26  1  1  0  0  0
 24 23  1  0  0  0  0
 25 21  1  0  0  0  0
 27 19  1  0  0  0  0
 27 22  1  0  0  0  0
 28  1  1  0  0  0  0
 29 28  1  0  0  0  0
 30 29  1  0  0  0  0
 31 32  1  0  0  0  0
 32 30  2  0  0  0  0
M  END
>  <MODEL>
5

>  <REMARK>
 VINA RESULT:      -7.0      3.257      5.047
  Name = 
  7 active torsions:
  status: ('A' for Active; 'I' for Inactive)
    1  A    between atoms: C_1  and  C_10
    2  A    between atoms: N_2  and  C_24
    3  A    between atoms: C_10  and  C_24
    4  A    between atoms: C_14  and  C_15
    5  A    between atoms: C_16  and  C_26
    6  A    between atoms: C_16  and  N_27
    7  A    between atoms: N_27  and  N_32
                            x       y       z     vdW  Elec       q    Type
                         _______ _______ _______ _____ _____    ______ ____

>  <TORSDO>
F 7

$$$$
=
 OpenBabel11052421333D

 32 37  0  0  1  0  0  0  0  0999 V2000
  195.7680  173.9040  143.5360 N   0  0  0  0  0  0  0  0  0  0  0  0
  191.5990  176.3610  145.4750 N   0  0  0  0  0  0  0  0  0  0  0  0
  193.8950  175.7710  144.6850 C   0  0  1  0  0  3  0  0  0  0  0  0
  192.2350  173.9580  145.0120 C   0  0  0  0  0  2  0  0  0  0  0  0
  194.5100  173.4190  144.1350 C   0  0  0  0  0  2  0  0  0  0  0  0
  191.1230  175.0140  145.1050 C   0  0  2  0  0  3  0  0  0  0  0  0
  195.6640  175.2370  142.9170 C   0  0  0  0  0  2  0  0  0  0  0  0
  193.3770  174.4480  144.1400 C   0  0  2  0  0  3  0  0  0  0  0  0
  195.0730  176.2960  143.8640 C   0  0  0  0  0  2  0  0  0  0  0  0
  192.7660  176.8000  144.6930 C   0  0  0  0  0  2  0  0  0  0  0  0
  191.9420  176.3720  146.8900 C   0  0  0  0  0  1  0  0  0  0  0  0
  189.8440  174.4710  141.5550 C   0  0  0  0  0  3  0  0  0  0  0  0
  188.5360  174.9440  141.6520 C   0  0  0  0  0  3  0  0  0  0  0  0
  190.6830  174.5070  142.6710 C   0  0  0  0  0  3  0  0  0  0  0  0
  190.2260  175.0260  143.8930 C   0  0  0  0  0  0  0  0  0  0  0  0
  188.0660  175.4560  142.8630 C   0  0  0  0  0  3  0  0  0  0  0  0
  188.9050  175.5100  143.9840 C   0  0  0  0  0  0  0  0  0  0  0  0
  188.3650  176.0350  145.2780 C   0  0  0  0  0  2  0  0  0  0  0  0
  187.6370  177.2880  145.0620 N   0  0  0  0  0  2  0  0  0  0  0  0
  184.9590  177.6390  142.9410 C   0  0  0  0  0  2  0  0  0  0  0  0
  185.5480  178.1570  144.2350 C   0  0  0  0  0  0  0  0  0  0  0  0
  185.5990  176.8400  146.2650 C   0  0  2  0  0  3  0  0  0  0  0  0
  184.4130  177.7900  146.4750 C   0  0  2  0  0  3  0  0  0  0  0  0
  184.3280  179.0700  145.1810 S   0  0  0  0  0  0  0  0  0  0  0  0
  186.0960  178.6440  142.9090 C   0  0  0  0  0  2  0  0  0  0  0  0
  185.6880  177.9920  147.2600 C   0  0  0  0  0  2  0  0  0  0  0  0
  186.2340  177.0930  144.9580 N   0  0  0  0  0  0  0  0  0  0  0  0
  196.7810  173.9350  144.5840 C   0  0  0  0  0  2  0  0  0  0  0  0
  196.3070  173.1650  145.8100 C   0  0  0  0  0  2  0  0  0  0  0  0
  197.0440  171.8740  145.9610 C   0  0  0  0  0  3  0  0  0  0  0  0
  197.1500  169.4410  146.1690 C   0  0  0  0  0  1  0  0  0  0  0  0
  196.3920  170.7140  146.0180 C   0  0  0  0  0  3  0  0  0  0  0  0
  1  5  1  0  0  0  0
  1 28  1  0  0  0  0
  2 11  1  0  0  0  0
  3  9  1  6  0  0  0
  3 10  1  0  0  0  0
  4  6  1  0  0  0  0
  6 15  1  6  0  0  0
  6  2  1  0  0  0  0
  7  1  1  0  0  0  0
  7  9  1  0  0  0  0
  8  5  1  1  0  0  0
  8  3  1  0  0  0  0
  8  4  1  0  0  0  0
 10  2  1  0  0  0  0
 12 13  2  0  0  0  0
 12 14  1  0  0  0  0
 13 16  1  0  0  0  0
 14 15  2  0  0  0  0
 15 17  1  0  0  0  0
 16 17  2  0  0  0  0
 17 18  1  0  0  0  0
 19 18  1  0  0  0  0
 20 21  1  0  0  0  0
 21 27  1  0  0  0  0
 21 24  1  0  0  0  0
 22 23  1  0  0  0  0
 22 26  1  1  0  0  0
 23 26  1  1  0  0  0
 24 23  1  0  0  0  0
 25 20  1  0  0  0  0
 25 21  1  0  0  0  0
 27 19  1  0  0  0  0
 27 22  1  0  0  0  0
 28 29  1  0  0  0  0
 29 30  1  0  0  0  0
 30 32  2  0  0  0  0
 32 31  1  0  0  0  0
M  END
>  <MODEL>
6

>  <REMARK>
 VINA RESULT:      -6.9      3.515      5.689
  Name = 
  7 active torsions:
  status: ('A' for Active; 'I' for Inactive)
    1  A    between atoms: C_1  and  C_10
    2  A    between atoms: N_2  and  C_24
    3  A    between atoms: C_10  and  C_24
    4  A    between atoms: C_14  and  C_15
    5  A    between atoms: C_16  and  C_26
    6  A    between atoms: C_16  and  N_27
    7  A    between atoms: N_27  and  N_32
                            x       y       z     vdW  Elec       q    Type
                         _______ _______ _______ _____ _____    ______ ____

>  <TORSDO>
F 7

$$$$
=
 OpenBabel11052421333D

 32 37  0  0  1  0  0  0  0  0999 V2000
  185.7000  176.9980  145.9480 N   0  0  0  0  0  0  0  0  0  0  0  0
  190.6930  177.0470  144.4500 N   0  0  0  0  0  0  0  0  0  0  0  0
  188.5280  177.4580  145.6290 C   0  0  1  0  0  3  0  0  0  0  0  0
  188.4970  176.3310  143.4200 C   0  0  0  0  0  2  0  0  0  0  0  0
  186.3640  176.6770  144.6710 C   0  0  0  0  0  2  0  0  0  0  0  0
  190.0150  176.1180  143.5250 C   0  0  2  0  0  3  0  0  0  0  0  0
  186.5590  176.8250  147.1330 C   0  0  0  0  0  2  0  0  0  0  0  0
  187.8590  176.3740  144.7970 C   0  0  2  0  0  3  0  0  0  0  0  0
  187.9000  177.5710  147.0180 C   0  0  0  0  0  2  0  0  0  0  0  0
  190.0220  177.1600  145.7550 C   0  0  0  0  0  2  0  0  0  0  0  0
  190.7640  178.3640  143.8340 C   0  0  0  0  0  1  0  0  0  0  0  0
  190.0710  172.6070  145.0080 C   0  0  0  0  0  3  0  0  0  0  0  0
  190.9890  171.9650  144.1770 C   0  0  0  0  0  3  0  0  0  0  0  0
  189.7680  173.9550  144.8020 C   0  0  0  0  0  3  0  0  0  0  0  0
  190.3870  174.6770  143.7700 C   0  0  0  0  0  0  0  0  0  0  0  0
  191.6070  172.6700  143.1420 C   0  0  0  0  0  3  0  0  0  0  0  0
  191.3200  174.0270  142.9380 C   0  0  0  0  0  0  0  0  0  0  0  0
  191.9740  174.7500  141.8010 C   0  0  0  0  0  2  0  0  0  0  0  0
  193.0400  175.6280  142.2940 N   0  0  0  0  0  2  0  0  0  0  0  0
  194.7110  174.1050  144.8770 C   0  0  0  0  0  2  0  0  0  0  0  0
  194.7810  175.2740  143.9200 C   0  0  0  0  0  0  0  0  0  0  0  0
  195.2460  175.0010  141.5600 C   0  0  2  0  0  3  0  0  0  0  0  0
  196.5880  175.4590  142.1480 C   0  0  2  0  0  3  0  0  0  0  0  0
  196.4270  175.9840  143.8850 S   0  0  0  0  0  0  0  0  0  0  0  0
  193.8770  175.3470  145.1340 C   0  0  0  0  0  2  0  0  0  0  0  0
  195.7800  176.4030  141.2890 C   0  0  0  0  0  2  0  0  0  0  0  0
  194.2240  174.9160  142.6210 N   0  0  0  0  0  0  0  0  0  0  0  0
  185.2420  178.3810  145.8800 C   0  0  0  0  0  2  0  0  0  0  0  0
  185.3670  178.9170  144.4600 C   0  0  0  0  0  2  0  0  0  0  0  0
  184.0650  178.8360  143.7310 C   0  0  0  0  0  3  0  0  0  0  0  0
  182.6920  178.2910  141.7840 C   0  0  0  0  0  1  0  0  0  0  0  0
  184.0020  178.3610  142.4890 C   0  0  0  0  0  3  0  0  0  0  0  0
  1  7  1  0  0  0  0
  2 10  1  0  0  0  0
  3 10  1  1  0  0  0
  3  9  1  0  0  0  0
  4  6  1  0  0  0  0
  5  8  1  0  0  0  0
  5  1  1  0  0  0  0
  6 15  1  1  0  0  0
  6  2  1  0  0  0  0
  8  4  1  6  0  0  0
  8  3  1  0  0  0  0
  9  7  1  0  0  0  0
 11  2  1  0  0  0  0
 13 12  2  0  0  0  0
 14 12  1  0  0  0  0
 15 14  2  0  0  0  0
 16 13  1  0  0  0  0
 17 16  2  0  0  0  0
 17 15  1  0  0  0  0
 18 19  1  0  0  0  0
 18 17  1  0  0  0  0
 19 27  1  0  0  0  0
 20 25  1  0  0  0  0
 21 20  1  0  0  0  0
 21 25  1  0  0  0  0
 22 26  1  6  0  0  0
 22 23  1  0  0  0  0
 22 27  1  0  0  0  0
 23 26  1  6  0  0  0
 23 24  1  0  0  0  0
 24 21  1  0  0  0  0
 27 21  1  0  0  0  0
 28  1  1  0  0  0  0
 29 28  1  0  0  0  0
 30 29  1  0  0  0  0
 31 32  1  0  0  0  0
 32 30  2  0  0  0  0
M  END
>  <MODEL>
7

>  <REMARK>
 VINA RESULT:      -6.8      3.941      8.513
  Name = 
  7 active torsions:
  status: ('A' for Active; 'I' for Inactive)
    1  A    between atoms: C_1  and  C_10
    2  A    between atoms: N_2  and  C_24
    3  A    between atoms: C_10  and  C_24
    4  A    between atoms: C_14  and  C_15
    5  A    between atoms: C_16  and  C_26
    6  A    between atoms: C_16  and  N_27
    7  A    between atoms: N_27  and  N_32
                            x       y       z     vdW  Elec       q    Type
                         _______ _______ _______ _____ _____    ______ ____

>  <TORSDO>
F 7

$$$$
=
 OpenBabel11052421333D

 32 37  0  0  1  0  0  0  0  0999 V2000
  194.9480  173.8530  144.7070 N   0  0  0  0  0  0  0  0  0  0  0  0
  190.5990  176.6590  144.0860 N   0  0  0  0  0  0  0  0  0  0  0  0
  192.9700  175.8700  144.1340 C   0  0  1  0  0  3  0  0  0  0  0  0
  191.2530  174.5930  145.3880 C   0  0  0  0  0  2  0  0  0  0  0  0
  193.6160  173.7840  145.3350 C   0  0  0  0  0  2  0  0  0  0  0  0
  190.1550  175.3660  144.6430 C   0  0  2  0  0  3  0  0  0  0  0  0
  194.9470  174.4470  143.3580 C   0  0  0  0  0  2  0  0  0  0  0  0
  192.5080  174.4780  144.5400 C   0  0  2  0  0  3  0  0  0  0  0  0
  194.2530  175.8180  143.3040 C   0  0  0  0  0  2  0  0  0  0  0  0
  191.8640  176.5670  143.3410 C   0  0  0  0  0  2  0  0  0  0  0  0
  190.7530  177.6170  145.1720 C   0  0  0  0  0  1  0  0  0  0  0  0
  189.0900  172.3680  142.5440 C   0  0  0  0  0  3  0  0  0  0  0  0
  188.0110  172.8910  141.8320 C   0  0  0  0  0  3  0  0  0  0  0  0
  189.7890  173.1750  143.4430 C   0  0  0  0  0  3  0  0  0  0  0  0
  189.4250  174.5170  143.6320 C   0  0  0  0  0  0  0  0  0  0  0  0
  187.6330  174.2230  142.0160 C   0  0  0  0  0  3  0  0  0  0  0  0
  188.3390  175.0450  142.9050 C   0  0  0  0  0  0  0  0  0  0  0  0
  187.8920  176.4600  143.1060 C   0  0  0  0  0  2  0  0  0  0  0  0
  186.7590  176.5150  144.0350 N   0  0  0  0  0  2  0  0  0  0  0  0
  186.5600  178.2140  147.0110 C   0  0  0  0  0  2  0  0  0  0  0  0
  185.7510  177.8080  145.7990 C   0  0  0  0  0  0  0  0  0  0  0  0
  186.0940  178.7910  143.6140 C   0  0  2  0  0  3  0  0  0  0  0  0
  184.8490  179.5110  144.1480 C   0  0  2  0  0  3  0  0  0  0  0  0
  184.2330  178.7560  145.6860 S   0  0  0  0  0  0  0  0  0  0  0  0
  186.0150  176.8010  146.9010 C   0  0  0  0  0  2  0  0  0  0  0  0
  184.7140  178.5000  143.0340 C   0  0  0  0  0  2  0  0  0  0  0  0
  186.5790  177.8060  144.5990 N   0  0  0  0  0  0  0  0  0  0  0  0
  195.8150  174.6360  145.5790 C   0  0  0  0  0  2  0  0  0  0  0  0
  196.7920  173.7300  146.3160 C   0  0  0  0  0  2  0  0  0  0  0  0
  197.0920  172.4960  145.5270 C   0  0  0  0  0  3  0  0  0  0  0  0
  197.1220  170.0740  145.2040 C   0  0  0  0  0  1  0  0  0  0  0  0
  196.8130  171.2870  146.0100 C   0  0  0  0  0  3  0  0  0  0  0  0
  1  5  1  0  0  0  0
  1 28  1  0  0  0  0
  2  6  1  0  0  0  0
  2 11  1  0  0  0  0
  3  9  1  6  0  0  0
  3  8  1  0  0  0  0
  6 15  1  6  0  0  0
  6  4  1  0  0  0  0
  7  1  1  0  0  0  0
  8  5  1  1  0  0  0
  8  4  1  0  0  0  0
  9  7  1  0  0  0  0
 10  2  1  0  0  0  0
 10  3  1  0  0  0  0
 12 14  1  0  0  0  0
 13 16  1  0  0  0  0
 13 12  2  0  0  0  0
 14 15  2  0  0  0  0
 16 17  2  0  0  0  0
 17 18  1  0  0  0  0
 17 15  1  0  0  0  0
 18 19  1  0  0  0  0
 19 27  1  0  0  0  0
 21 25  1  0  0  0  0
 21 20  1  0  0  0  0
 22 26  1  6  0  0  0
 22 23  1  0  0  0  0
 22 27  1  0  0  0  0
 23 26  1  6  0  0  0
 23 24  1  0  0  0  0
 24 21  1  0  0  0  0
 25 20  1  0  0  0  0
 27 21  1  0  0  0  0
 28 29  1  0  0  0  0
 30 32  2  0  0  0  0
 30 29  1  0  0  0  0
 31 32  1  0  0  0  0
M  END
>  <MODEL>
8

>  <REMARK>
 VINA RESULT:      -6.8      3.357      5.998
  Name = 
  7 active torsions:
  status: ('A' for Active; 'I' for Inactive)
    1  A    between atoms: C_1  and  C_10
    2  A    between atoms: N_2  and  C_24
    3  A    between atoms: C_10  and  C_24
    4  A    between atoms: C_14  and  C_15
    5  A    between atoms: C_16  and  C_26
    6  A    between atoms: C_16  and  N_27
    7  A    between atoms: N_27  and  N_32
                            x       y       z     vdW  Elec       q    Type
                         _______ _______ _______ _____ _____    ______ ____

>  <TORSDO>
F 7

$$$$
=
 OpenBabel11052421333D

 32 37  0  0  1  0  0  0  0  0999 V2000
  187.1670  177.3560  146.0430 N   0  0  0  0  0  0  0  0  0  0  0  0
  190.4880  174.0130  143.8160 N   0  0  0  0  0  0  0  0  0  0  0  0
  188.7000  175.7040  144.2460 C   0  0  1  0  0  3  0  0  0  0  0  0
  189.6260  174.4230  146.1570 C   0  0  0  0  0  2  0  0  0  0  0  0
  187.9030  176.1870  146.5580 C   0  0  0  0  0  2  0  0  0  0  0  0
  190.7820  173.9520  145.2610 C   0  0  2  0  0  3  0  0  0  0  0  0
  187.8090  178.0120  144.8900 C   0  0  0  0  0  2  0  0  0  0  0  0
  189.1100  175.7790  145.7090 C   0  0  2  0  0  3  0  0  0  0  0  0
  188.1380  177.0360  143.7480 C   0  0  0  0  0  2  0  0  0  0  0  0
  189.9020  175.2960  143.3950 C   0  0  0  0  0  2  0  0  0  0  0  0
  189.5750  172.9330  143.4700 C   0  0  0  0  0  1  0  0  0  0  0  0
  193.3320  176.4580  146.5820 C   0  0  0  0  0  3  0  0  0  0  0  0
  194.5300  175.7730  146.3800 C   0  0  0  0  0  3  0  0  0  0  0  0
  192.1220  175.8710  146.2070 C   0  0  0  0  0  3  0  0  0  0  0  0
  192.0970  174.5980  145.6160 C   0  0  0  0  0  0  0  0  0  0  0  0
  194.5190  174.5030  145.8010 C   0  0  0  0  0  3  0  0  0  0  0  0
  193.3110  173.9130  145.4070 C   0  0  0  0  0  0  0  0  0  0  0  0
  193.3260  172.5360  144.8160 C   0  0  0  0  0  2  0  0  0  0  0  0
  193.4890  172.6020  143.3610 N   0  0  0  0  0  2  0  0  0  0  0  0
  194.7160  175.6310  142.3080 C   0  0  0  0  0  2  0  0  0  0  0  0
  194.4880  174.2030  141.8640 C   0  0  0  0  0  0  0  0  0  0  0  0
  195.7950  172.3500  142.7130 C   0  0  2  0  0  3  0  0  0  0  0  0
  196.4120  172.6330  141.3380 C   0  0  2  0  0  3  0  0  0  0  0  0
  195.4260  173.8290  140.3810 S   0  0  0  0  0  0  0  0  0  0  0  0
  193.3290  175.1790  141.8830 C   0  0  0  0  0  2  0  0  0  0  0  0
  195.5790  171.3910  141.5490 C   0  0  0  0  0  2  0  0  0  0  0  0
  194.6770  173.2770  142.9750 N   0  0  0  0  0  0  0  0  0  0  0  0
  185.8300  176.9130  145.6650 C   0  0  0  0  0  2  0  0  0  0  0  0
  184.8250  178.0470  145.8250 C   0  0  0  0  0  2  0  0  0  0  0  0
  184.2860  178.4870  144.5020 C   0  0  0  0  0  3  0  0  0  0  0  0
  184.0040  178.2620  142.0840 C   0  0  0  0  0  1  0  0  0  0  0  0
  184.5520  177.8030  143.3900 C   0  0  0  0  0  3  0  0  0  0  0  0
  1  5  1  0  0  0  0
  2  6  1  0  0  0  0
  3 10  1  6  0  0  0
  3  8  1  0  0  0  0
  6 15  1  6  0  0  0
  6  4  1  0  0  0  0
  7  1  1  0  0  0  0
  8  4  1  1  0  0  0
  8  5  1  0  0  0  0
  9  3  1  0  0  0  0
  9  7  1  0  0  0  0
 10  2  1  0  0  0  0
 11  2  1  0  0  0  0
 13 12  1  0  0  0  0
 14 12  2  0  0  0  0
 15 14  1  0  0  0  0
 16 13  2  0  0  0  0
 17 15  2  0  0  0  0
 17 16  1  0  0  0  0
 18 17  1  0  0  0  0
 19 18  1  0  0  0  0
 21 25  1  0  0  0  0
 21 20  1  0  0  0  0
 21 27  1  0  0  0  0
 22 26  1  6  0  0  0
 22 27  1  0  0  0  0
 23 26  1  6  0  0  0
 23 22  1  0  0  0  0
 24 23  1  0  0  0  0
 24 21  1  0  0  0  0
 25 20  1  0  0  0  0
 27 19  1  0  0  0  0
 28 29  1  0  0  0  0
 28  1  1  0  0  0  0
 30 29  1  0  0  0  0
 31 32  1  0  0  0  0
 32 30  2  0  0  0  0
M  END
>  <MODEL>
9

>  <REMARK>
 VINA RESULT:      -6.8      4.109      8.414
  Name = 
  7 active torsions:
  status: ('A' for Active; 'I' for Inactive)
    1  A    between atoms: C_1  and  C_10
    2  A    between atoms: N_2  and  C_24
    3  A    between atoms: C_10  and  C_24
    4  A    between atoms: C_14  and  C_15
    5  A    between atoms: C_16  and  C_26
    6  A    between atoms: C_16  and  N_27
    7  A    between atoms: N_27  and  N_32
                            x       y       z     vdW  Elec       q    Type
                         _______ _______ _______ _____ _____    ______ ____

>  <TORSDO>
F 7

$$$$
