=
 OpenBabel11052418283D

 27 30  0  0  0  0  0  0  0  0999 V2000
  189.0080  177.5390  145.4850 C   0  0  0  0  0  3  0  0  0  0  0  0
  187.9390  177.1720  144.7510 C   0  0  0  0  0  0  0  0  0  0  0  0
  188.4910  174.9900  143.6380 C   0  0  0  0  0  3  0  0  0  0  0  0
  188.4850  173.9430  140.0570 N   0  0  0  0  0  2  0  0  0  0  0  0
  189.1440  171.9110  139.1240 O   0  0  0  0  0  0  0  0  0  0  0  0
  187.8090  176.8660  142.2690 C   0  0  0  0  0  3  0  0  0  0  0  0
  188.9670  172.7430  142.6310 C   0  0  0  0  0  2  0  0  0  0  0  0
  189.7420  172.2170  141.4200 C   0  0  0  0  0  2  0  0  0  0  0  0
  188.6310  174.2010  142.4950 C   0  0  0  0  0  0  0  0  0  0  0  0
  189.0950  172.6520  140.1400 C   0  0  0  0  0  0  0  0  0  0  0  0
  188.3430  174.7460  141.2310 C   0  0  0  0  0  0  0  0  0  0  0  0
  188.0840  176.3290  143.5360 C   0  0  0  0  0  0  0  0  0  0  0  0
  187.9340  176.0770  141.1220 C   0  0  0  0  0  3  0  0  0  0  0  0
  190.3290  175.6500  147.3210 N   0  0  0  0  0  1  0  0  0  0  0  0
  193.0530  176.2860  144.8750 C   0  0  0  0  0  0  0  0  0  0  0  0
  194.4580  175.8620  144.6410 C   0  0  0  0  0  1  0  0  0  0  0  0
  190.3960  177.0740  145.3020 C   0  0  0  0  0  0  0  0  0  0  0  0
  192.3360  175.7600  145.9520 C   0  0  0  0  0  3  0  0  0  0  0  0
  192.4570  177.2230  144.0280 C   0  0  0  0  0  3  0  0  0  0  0  0
  191.1350  177.6190  144.2470 C   0  0  0  0  0  3  0  0  0  0  0  0
  191.0120  176.1530  146.1770 C   0  0  0  0  0  0  0  0  0  0  0  0
  184.0740  178.6750  145.8990 C   0  0  0  0  0  3  0  0  0  0  0  0
  186.5980  177.6870  145.1430 C   0  0  0  0  0  0  0  0  0  0  0  0
  186.1050  178.8870  144.6020 C   0  0  0  0  0  3  0  0  0  0  0  0
  184.8510  179.3770  144.9760 C   0  0  0  0  0  3  0  0  0  0  0  0
  184.5500  177.4830  146.4490 C   0  0  0  0  0  3  0  0  0  0  0  0
  185.8040  176.9930  146.0750 C   0  0  0  0  0  3  0  0  0  0  0  0
  2 23  1  0  0  0  0
  2  1  2  0  0  0  0
  4 10  1  0  0  0  0
  4 11  1  0  0  0  0
  5 10  2  0  0  0  0
  6 12  2  0  0  0  0
  8  7  1  0  0  0  0
  9  7  1  0  0  0  0
  9  3  2  0  0  0  0
 10  8  1  0  0  0  0
 11  9  1  0  0  0  0
 12  3  1  0  0  0  0
 12  2  1  0  0  0  0
 13 11  2  0  0  0  0
 13  6  1  0  0  0  0
 15 18  1  0  0  0  0
 16 15  1  0  0  0  0
 17  1  1  0  0  0  0
 17 21  1  0  0  0  0
 18 21  2  0  0  0  0
 19 20  1  0  0  0  0
 19 15  2  0  0  0  0
 20 17  2  0  0  0  0
 21 14  1  0  0  0  0
 22 26  1  0  0  0  0
 23 27  1  0  0  0  0
 24 25  1  0  0  0  0
 24 23  2  0  0  0  0
 25 22  2  0  0  0  0
 27 26  2  0  0  0  0
M  END
>  <MODEL>
1

>  <REMARK>
 VINA RESULT:      -8.4      0.000      0.000
  Name = 
  3 active torsions:
  status: ('A' for Active; 'I' for Inactive)
    1  A    between atoms: C_1  and  C_18
    2  A    between atoms: C_9  and  C_15
    3  A    between atoms: C_15  and  C_19
                            x       y       z     vdW  Elec       q    Type
                         _______ _______ _______ _____ _____    ______ ____

>  <TORSDO>
F 3

$$$$
=
 OpenBabel11052418283D

 27 30  0  0  0  0  0  0  0  0999 V2000
  186.7550  175.7150  142.9550 C   0  0  0  0  0  3  0  0  0  0  0  0
  187.2410  176.5870  143.8600 C   0  0  0  0  0  0  0  0  0  0  0  0
  189.3550  175.9590  145.0620 C   0  0  0  0  0  3  0  0  0  0  0  0
  192.8700  177.1660  144.7250 N   0  0  0  0  0  2  0  0  0  0  0  0
  194.7400  176.5970  145.9930 O   0  0  0  0  0  0  0  0  0  0  0  0
  189.4470  177.6490  143.3310 C   0  0  0  0  0  3  0  0  0  0  0  0
  191.4270  175.1940  146.2490 C   0  0  0  0  0  2  0  0  0  0  0  0
  192.6470  175.8640  146.8870 C   0  0  0  0  0  2  0  0  0  0  0  0
  190.7260  176.1020  145.2800 C   0  0  0  0  0  0  0  0  0  0  0  0
  193.4930  176.5340  145.8470 C   0  0  0  0  0  0  0  0  0  0  0  0
  191.4650  177.0150  144.5060 C   0  0  0  0  0  0  0  0  0  0  0  0
  188.7020  176.7340  144.0900 C   0  0  0  0  0  0  0  0  0  0  0  0
  190.8220  177.7870  143.5350 C   0  0  0  0  0  3  0  0  0  0  0  0
  187.3090  176.5890  140.1960 N   0  0  0  0  0  1  0  0  0  0  0  0
  189.0270  173.2940  140.2560 C   0  0  0  0  0  0  0  0  0  0  0  0
  189.8200  172.4380  139.3370 C   0  0  0  0  0  1  0  0  0  0  0  0
  187.5430  174.9150  141.9990 C   0  0  0  0  0  0  0  0  0  0  0  0
  188.5660  174.5400  139.8260 C   0  0  0  0  0  3  0  0  0  0  0  0
  188.7250  172.8440  141.5440 C   0  0  0  0  0  3  0  0  0  0  0  0
  187.9800  173.6500  142.4080 C   0  0  0  0  0  3  0  0  0  0  0  0
  187.8200  175.3530  140.6860 C   0  0  0  0  0  0  0  0  0  0  0  0
  184.4380  178.8290  146.2330 C   0  0  0  0  0  3  0  0  0  0  0  0
  186.2770  177.3670  144.6840 C   0  0  0  0  0  0  0  0  0  0  0  0
  185.6720  176.7910  145.8150 C   0  0  0  0  0  3  0  0  0  0  0  0
  184.7590  177.5170  146.5850 C   0  0  0  0  0  3  0  0  0  0  0  0
  185.0270  179.4160  145.1100 C   0  0  0  0  0  3  0  0  0  0  0  0
  185.9400  178.6890  144.3400 C   0  0  0  0  0  3  0  0  0  0  0  0
  1  2  2  0  0  0  0
  2 12  1  0  0  0  0
  2 23  1  0  0  0  0
  3  9  1  0  0  0  0
  4 10  1  0  0  0  0
  6 13  2  0  0  0  0
  6 12  1  0  0  0  0
  7  8  1  0  0  0  0
  9  7  1  0  0  0  0
 10  5  2  0  0  0  0
 10  8  1  0  0  0  0
 11  4  1  0  0  0  0
 11  9  2  0  0  0  0
 12  3  2  0  0  0  0
 13 11  1  0  0  0  0
 14 21  1  0  0  0  0
 15 19  1  0  0  0  0
 16 15  1  0  0  0  0
 17 20  1  0  0  0  0
 17  1  1  0  0  0  0
 18 15  2  0  0  0  0
 18 21  1  0  0  0  0
 19 20  2  0  0  0  0
 21 17  2  0  0  0  0
 22 25  1  0  0  0  0
 23 24  1  0  0  0  0
 24 25  2  0  0  0  0
 26 22  2  0  0  0  0
 27 23  2  0  0  0  0
 27 26  1  0  0  0  0
M  END
>  <MODEL>
2

>  <REMARK>
 VINA RESULT:      -8.4      2.362      5.302
  Name = 
  3 active torsions:
  status: ('A' for Active; 'I' for Inactive)
    1  A    between atoms: C_1  and  C_18
    2  A    between atoms: C_9  and  C_15
    3  A    between atoms: C_15  and  C_19
                            x       y       z     vdW  Elec       q    Type
                         _______ _______ _______ _____ _____    ______ ____

>  <TORSDO>
F 3

$$$$
=
 OpenBabel11052418283D

 27 30  0  0  0  0  0  0  0  0999 V2000
  189.3860  177.3020  145.9140 C   0  0  0  0  0  3  0  0  0  0  0  0
  188.3850  176.8600  145.1270 C   0  0  0  0  0  0  0  0  0  0  0  0
  189.0790  174.5990  144.2850 C   0  0  0  0  0  3  0  0  0  0  0  0
  189.3300  173.1890  140.8390 N   0  0  0  0  0  2  0  0  0  0  0  0
  190.1150  171.1010  140.1650 O   0  0  0  0  0  0  0  0  0  0  0  0
  188.4200  176.2950  142.6880 C   0  0  0  0  0  3  0  0  0  0  0  0
  189.6930  172.2820  143.5480 C   0  0  0  0  0  2  0  0  0  0  0  0
  190.5590  171.6650  142.4460 C   0  0  0  0  0  2  0  0  0  0  0  0
  189.3160  173.7030  143.2410 C   0  0  0  0  0  0  0  0  0  0  0  0
  189.9770  171.9390  141.0930 C   0  0  0  0  0  0  0  0  0  0  0  0
  189.0880  174.1030  141.9120 C   0  0  0  0  0  0  0  0  0  0  0  0
  188.6330  175.9030  144.0180 C   0  0  0  0  0  0  0  0  0  0  0  0
  188.6420  175.3980  141.6400 C   0  0  0  0  0  3  0  0  0  0  0  0
  191.3540  178.1440  143.8880 N   0  0  0  0  0  1  0  0  0  0  0  0
  193.4050  175.8340  145.9540 C   0  0  0  0  0  0  0  0  0  0  0  0
  194.7970  175.3140  145.9900 C   0  0  0  0  0  1  0  0  0  0  0  0
  190.7830  176.8270  145.9010 C   0  0  0  0  0  0  0  0  0  0  0  0
  193.0300  176.7580  144.9760 C   0  0  0  0  0  3  0  0  0  0  0  0
  192.4680  175.3860  146.8880 C   0  0  0  0  0  3  0  0  0  0  0  0
  191.1600  175.8760  146.8560 C   0  0  0  0  0  3  0  0  0  0  0  0
  191.7230  177.2540  144.9380 C   0  0  0  0  0  0  0  0  0  0  0  0
  184.4400  178.4510  145.7750 C   0  0  0  0  0  3  0  0  0  0  0  0
  187.0170  177.4050  145.3470 C   0  0  0  0  0  0  0  0  0  0  0  0
  186.5860  178.5560  144.6640 C   0  0  0  0  0  3  0  0  0  0  0  0
  185.3050  179.0740  144.8750 C   0  0  0  0  0  3  0  0  0  0  0  0
  184.8530  177.3090  146.4660 C   0  0  0  0  0  3  0  0  0  0  0  0
  186.1340  176.7910  146.2540 C   0  0  0  0  0  3  0  0  0  0  0  0
  2 23  1  0  0  0  0
  2  1  2  0  0  0  0
  4 10  1  0  0  0  0
  4 11  1  0  0  0  0
  5 10  2  0  0  0  0
  6 12  2  0  0  0  0
  8  7  1  0  0  0  0
  9  7  1  0  0  0  0
  9  3  2  0  0  0  0
 10  8  1  0  0  0  0
 11  9  1  0  0  0  0
 12  3  1  0  0  0  0
 12  2  1  0  0  0  0
 13 11  2  0  0  0  0
 13  6  1  0  0  0  0
 14 21  1  0  0  0  0
 15 16  1  0  0  0  0
 15 19  1  0  0  0  0
 17  1  1  0  0  0  0
 17 20  1  0  0  0  0
 18 15  2  0  0  0  0
 20 19  2  0  0  0  0
 21 18  1  0  0  0  0
 21 17  2  0  0  0  0
 22 26  1  0  0  0  0
 23 27  1  0  0  0  0
 24 25  1  0  0  0  0
 24 23  2  0  0  0  0
 25 22  2  0  0  0  0
 27 26  2  0  0  0  0
M  END
>  <MODEL>
3

>  <REMARK>
 VINA RESULT:      -8.4      1.243      1.605
  Name = 
  3 active torsions:
  status: ('A' for Active; 'I' for Inactive)
    1  A    between atoms: C_1  and  C_18
    2  A    between atoms: C_9  and  C_15
    3  A    between atoms: C_15  and  C_19
                            x       y       z     vdW  Elec       q    Type
                         _______ _______ _______ _____ _____    ______ ____

>  <TORSDO>
F 3

$$$$
=
 OpenBabel11052418283D

 27 30  0  0  0  0  0  0  0  0999 V2000
  189.5420  177.2990  145.6610 C   0  0  0  0  0  3  0  0  0  0  0  0
  188.5480  176.6910  144.9830 C   0  0  0  0  0  0  0  0  0  0  0  0
  188.5430  175.6860  142.6820 C   0  0  0  0  0  3  0  0  0  0  0  0
  189.5990  172.3370  141.4200 N   0  0  0  0  0  2  0  0  0  0  0  0
  189.4280  171.4630  139.2670 O   0  0  0  0  0  0  0  0  0  0  0  0
  189.3550  174.3620  144.5390 C   0  0  0  0  0  3  0  0  0  0  0  0
  188.5920  174.8060  140.3340 C   0  0  0  0  0  2  0  0  0  0  0  0
  188.2210  173.4940  139.6370 C   0  0  0  0  0  2  0  0  0  0  0  0
  188.7930  174.6240  141.8110 C   0  0  0  0  0  0  0  0  0  0  0  0
  189.1300  172.3840  140.0690 C   0  0  0  0  0  0  0  0  0  0  0  0
  189.3420  173.4280  142.3080 C   0  0  0  0  0  0  0  0  0  0  0  0
  188.8180  175.5640  144.0530 C   0  0  0  0  0  0  0  0  0  0  0  0
  189.6190  173.3000  143.6710 C   0  0  0  0  0  3  0  0  0  0  0  0
  191.4720  177.9270  143.5240 N   0  0  0  0  0  1  0  0  0  0  0  0
  193.6140  176.0010  145.8720 C   0  0  0  0  0  0  0  0  0  0  0  0
  195.0240  175.5430  145.9680 C   0  0  0  0  0  1  0  0  0  0  0  0
  190.9560  176.8790  145.7030 C   0  0  0  0  0  0  0  0  0  0  0  0
  193.2020  176.7670  144.7790 C   0  0  0  0  0  3  0  0  0  0  0  0
  192.6960  175.6500  146.8650 C   0  0  0  0  0  3  0  0  0  0  0  0
  191.3710  176.0830  146.7750 C   0  0  0  0  0  3  0  0  0  0  0  0
  191.8770  177.2040  144.6830 C   0  0  0  0  0  0  0  0  0  0  0  0
  184.5530  178.2280  145.4250 C   0  0  0  0  0  3  0  0  0  0  0  0
  187.1630  177.2170  145.1320 C   0  0  0  0  0  0  0  0  0  0  0  0
  186.7210  178.3020  144.3550 C   0  0  0  0  0  3  0  0  0  0  0  0
  185.4250  178.8030  144.4990 C   0  0  0  0  0  3  0  0  0  0  0  0
  184.9770  177.1520  146.2090 C   0  0  0  0  0  3  0  0  0  0  0  0
  186.2740  176.6510  146.0640 C   0  0  0  0  0  3  0  0  0  0  0  0
  1 17  1  0  0  0  0
  2 23  1  0  0  0  0
  2  1  2  0  0  0  0
  3 12  1  0  0  0  0
  4 11  1  0  0  0  0
  5 10  2  0  0  0  0
  7  9  1  0  0  0  0
  8 10  1  0  0  0  0
  8  7  1  0  0  0  0
  9 11  1  0  0  0  0
  9  3  2  0  0  0  0
 10  4  1  0  0  0  0
 11 13  2  0  0  0  0
 12  6  2  0  0  0  0
 12  2  1  0  0  0  0
 13  6  1  0  0  0  0
 14 21  1  0  0  0  0
 15 16  1  0  0  0  0
 15 19  1  0  0  0  0
 17 20  1  0  0  0  0
 18 15  2  0  0  0  0
 20 19  2  0  0  0  0
 21 18  1  0  0  0  0
 21 17  2  0  0  0  0
 22 26  1  0  0  0  0
 23 27  1  0  0  0  0
 24 25  1  0  0  0  0
 24 23  2  0  0  0  0
 25 22  2  0  0  0  0
 27 26  2  0  0  0  0
M  END
>  <MODEL>
4

>  <REMARK>
 VINA RESULT:      -8.2      1.337      2.084
  Name = 
  3 active torsions:
  status: ('A' for Active; 'I' for Inactive)
    1  A    between atoms: C_1  and  C_18
    2  A    between atoms: C_9  and  C_15
    3  A    between atoms: C_15  and  C_19
                            x       y       z     vdW  Elec       q    Type
                         _______ _______ _______ _____ _____    ______ ____

>  <TORSDO>
F 3

$$$$
=
 OpenBabel11052418283D

 27 30  0  0  0  0  0  0  0  0999 V2000
  189.7580  177.2250  145.7980 C   0  0  0  0  0  3  0  0  0  0  0  0
  188.7300  176.6410  145.1520 C   0  0  0  0  0  0  0  0  0  0  0  0
  188.6430  175.6960  142.8260 C   0  0  0  0  0  3  0  0  0  0  0  0
  189.5830  172.3560  141.4530 N   0  0  0  0  0  2  0  0  0  0  0  0
  189.3370  171.5440  139.2830 O   0  0  0  0  0  0  0  0  0  0  0  0
  189.4680  174.3050  144.6280 C   0  0  0  0  0  3  0  0  0  0  0  0
  188.6110  174.8770  140.4570 C   0  0  0  0  0  2  0  0  0  0  0  0
  188.1910  173.5930  139.7360 C   0  0  0  0  0  2  0  0  0  0  0  0
  188.8450  174.6510  141.9230 C   0  0  0  0  0  0  0  0  0  0  0  0
  189.0830  172.4500  140.1170 C   0  0  0  0  0  0  0  0  0  0  0  0
  189.3760  173.4300  142.3750 C   0  0  0  0  0  0  0  0  0  0  0  0
  188.9490  175.5320  144.1870 C   0  0  0  0  0  0  0  0  0  0  0  0
  189.6840  173.2600  143.7260 C   0  0  0  0  0  3  0  0  0  0  0  0
  191.0420  175.7650  148.0140 N   0  0  0  0  0  1  0  0  0  0  0  0
  193.8690  176.0510  145.6190 C   0  0  0  0  0  0  0  0  0  0  0  0
  195.2980  175.6510  145.5330 C   0  0  0  0  0  1  0  0  0  0  0  0
  191.1690  176.7930  145.7690 C   0  0  0  0  0  0  0  0  0  0  0  0
  193.1140  175.7050  146.7410 C   0  0  0  0  0  3  0  0  0  0  0  0
  193.2880  176.7890  144.5850 C   0  0  0  0  0  3  0  0  0  0  0  0
  191.9440  177.1640  144.6650 C   0  0  0  0  0  3  0  0  0  0  0  0
  191.7680  176.0760  146.8280 C   0  0  0  0  0  0  0  0  0  0  0  0
  184.7560  178.1670  145.7770 C   0  0  0  0  0  3  0  0  0  0  0  0
  187.3580  177.1750  145.3720 C   0  0  0  0  0  0  0  0  0  0  0  0
  186.4940  176.5680  146.3010 C   0  0  0  0  0  3  0  0  0  0  0  0
  185.2020  177.0620  146.5030 C   0  0  0  0  0  3  0  0  0  0  0  0
  185.6000  178.7800  144.8480 C   0  0  0  0  0  3  0  0  0  0  0  0
  186.8920  178.2860  144.6460 C   0  0  0  0  0  3  0  0  0  0  0  0
  2 23  1  0  0  0  0
  2  1  2  0  0  0  0
  3 12  1  0  0  0  0
  4 11  1  0  0  0  0
  5 10  2  0  0  0  0
  7  9  1  0  0  0  0
  8 10  1  0  0  0  0
  8  7  1  0  0  0  0
  9 11  1  0  0  0  0
  9  3  2  0  0  0  0
 10  4  1  0  0  0  0
 11 13  2  0  0  0  0
 12  6  2  0  0  0  0
 12  2  1  0  0  0  0
 13  6  1  0  0  0  0
 15 18  1  0  0  0  0
 16 15  1  0  0  0  0
 17  1  1  0  0  0  0
 17 21  1  0  0  0  0
 18 21  2  0  0  0  0
 19 20  1  0  0  0  0
 19 15  2  0  0  0  0
 20 17  2  0  0  0  0
 21 14  1  0  0  0  0
 22 25  1  0  0  0  0
 23 24  1  0  0  0  0
 24 25  2  0  0  0  0
 26 22  2  0  0  0  0
 27 26  1  0  0  0  0
 27 23  2  0  0  0  0
M  END
>  <MODEL>
5

>  <REMARK>
 VINA RESULT:      -8.1      1.041      1.943
  Name = 
  3 active torsions:
  status: ('A' for Active; 'I' for Inactive)
    1  A    between atoms: C_1  and  C_18
    2  A    between atoms: C_9  and  C_15
    3  A    between atoms: C_15  and  C_19
                            x       y       z     vdW  Elec       q    Type
                         _______ _______ _______ _____ _____    ______ ____

>  <TORSDO>
F 3

$$$$
=
 OpenBabel11052418283D

 27 30  0  0  0  0  0  0  0  0999 V2000
  186.8440  176.0360  142.7230 C   0  0  0  0  0  3  0  0  0  0  0  0
  188.0550  175.5640  142.3680 C   0  0  0  0  0  0  0  0  0  0  0  0
  189.8660  175.1700  144.0640 C   0  0  0  0  0  3  0  0  0  0  0  0
  192.8200  177.2110  145.0780 N   0  0  0  0  0  2  0  0  0  0  0  0
  194.3730  176.8000  146.7670 O   0  0  0  0  0  0  0  0  0  0  0  0
  189.9010  177.2100  142.7600 C   0  0  0  0  0  3  0  0  0  0  0  0
  191.6830  174.6410  145.7080 C   0  0  0  0  0  2  0  0  0  0  0  0
  192.4350  175.3990  146.8060 C   0  0  0  0  0  2  0  0  0  0  0  0
  191.0240  175.5710  144.7310 C   0  0  0  0  0  0  0  0  0  0  0  0
  193.2850  176.4850  146.2190 C   0  0  0  0  0  0  0  0  0  0  0  0
  191.6330  176.7950  144.3980 C   0  0  0  0  0  0  0  0  0  0  0  0
  189.2920  175.9860  143.0760 C   0  0  0  0  0  0  0  0  0  0  0  0
  191.0690  177.6110  143.4150 C   0  0  0  0  0  3  0  0  0  0  0  0
  186.4100  178.9450  142.5300 N   0  0  0  0  0  1  0  0  0  0  0  0
  186.0130  178.4080  146.1860 C   0  0  0  0  0  0  0  0  0  0  0  0
  185.7230  179.2110  147.4020 C   0  0  0  0  0  1  0  0  0  0  0  0
  186.5440  176.8860  143.8910 C   0  0  0  0  0  0  0  0  0  0  0  0
  186.0470  179.0250  144.9340 C   0  0  0  0  0  3  0  0  0  0  0  0
  186.2710  177.0400  146.2980 C   0  0  0  0  0  3  0  0  0  0  0  0
  186.5410  176.2840  145.1550 C   0  0  0  0  0  3  0  0  0  0  0  0
  186.3170  178.2750  143.7840 C   0  0  0  0  0  0  0  0  0  0  0  0
  188.2920  172.9200  138.9810 C   0  0  0  0  0  3  0  0  0  0  0  0
  188.1450  174.6490  141.1970 C   0  0  0  0  0  0  0  0  0  0  0  0
  188.0620  175.1520  139.8870 C   0  0  0  0  0  3  0  0  0  0  0  0
  188.1370  174.2930  138.7860 C   0  0  0  0  0  3  0  0  0  0  0  0
  188.3720  172.4030  140.2760 C   0  0  0  0  0  3  0  0  0  0  0  0
  188.2970  173.2610  141.3770 C   0  0  0  0  0  3  0  0  0  0  0  0
  1 17  1  0  0  0  0
  2  1  2  0  0  0  0
  2 12  1  0  0  0  0
  3  9  1  0  0  0  0
  4 10  1  0  0  0  0
  6 12  1  0  0  0  0
  6 13  2  0  0  0  0
  7  8  1  0  0  0  0
  9  7  1  0  0  0  0
 10  5  2  0  0  0  0
 10  8  1  0  0  0  0
 11  9  2  0  0  0  0
 11  4  1  0  0  0  0
 12  3  2  0  0  0  0
 13 11  1  0  0  0  0
 14 21  1  0  0  0  0
 15 19  1  0  0  0  0
 15 16  1  0  0  0  0
 17 20  1  0  0  0  0
 18 15  2  0  0  0  0
 20 19  2  0  0  0  0
 21 17  2  0  0  0  0
 21 18  1  0  0  0  0
 22 26  1  0  0  0  0
 23 27  1  0  0  0  0
 23  2  1  0  0  0  0
 24 23  2  0  0  0  0
 25 22  2  0  0  0  0
 25 24  1  0  0  0  0
 26 27  2  0  0  0  0
M  END
>  <MODEL>
6

>  <REMARK>
 VINA RESULT:      -7.9      2.784      6.430
  Name = 
  3 active torsions:
  status: ('A' for Active; 'I' for Inactive)
    1  A    between atoms: C_1  and  C_18
    2  A    between atoms: C_9  and  C_15
    3  A    between atoms: C_15  and  C_19
                            x       y       z     vdW  Elec       q    Type
                         _______ _______ _______ _____ _____    ______ ____

>  <TORSDO>
F 3

$$$$
=
 OpenBabel11052418283D

 27 30  0  0  0  0  0  0  0  0999 V2000
  188.9030  177.5370  145.4470 C   0  0  0  0  0  3  0  0  0  0  0  0
  187.8050  177.2820  144.7070 C   0  0  0  0  0  0  0  0  0  0  0  0
  187.4430  177.2640  142.2220 C   0  0  0  0  0  3  0  0  0  0  0  0
  188.1810  174.7010  139.6120 N   0  0  0  0  0  2  0  0  0  0  0  0
  187.6790  174.7430  137.3370 O   0  0  0  0  0  0  0  0  0  0  0  0
  188.4510  175.3310  143.2760 C   0  0  0  0  0  3  0  0  0  0  0  0
  187.1310  177.3800  139.7370 C   0  0  0  0  0  2  0  0  0  0  0  0
  186.6160  176.4420  138.6420 C   0  0  0  0  0  2  0  0  0  0  0  0
  187.5270  176.6350  140.9790 C   0  0  0  0  0  0  0  0  0  0  0  0
  187.5320  175.2680  138.4700 C   0  0  0  0  0  0  0  0  0  0  0  0
  188.0920  175.3500  140.8830 C   0  0  0  0  0  0  0  0  0  0  0  0
  187.8990  176.6170  143.3820 C   0  0  0  0  0  0  0  0  0  0  0  0
  188.5500  174.7020  142.0320 C   0  0  0  0  0  3  0  0  0  0  0  0
  190.2720  175.4060  146.9540 N   0  0  0  0  0  1  0  0  0  0  0  0
  192.9120  176.3640  144.5210 C   0  0  0  0  0  0  0  0  0  0  0  0
  194.3040  175.9710  144.1800 C   0  0  0  0  0  1  0  0  0  0  0  0
  190.2790  177.0970  145.1500 C   0  0  0  0  0  0  0  0  0  0  0  0
  192.2290  175.6970  145.5400 C   0  0  0  0  0  3  0  0  0  0  0  0
  192.2940  177.4120  143.8350 C   0  0  0  0  0  3  0  0  0  0  0  0
  190.9850  177.7800  144.1540 C   0  0  0  0  0  3  0  0  0  0  0  0
  190.9180  176.0600  145.8660 C   0  0  0  0  0  0  0  0  0  0  0  0
  183.9970  178.6270  146.1920 C   0  0  0  0  0  3  0  0  0  0  0  0
  186.4840  177.7430  145.2160 C   0  0  0  0  0  0  0  0  0  0  0  0
  185.9460  178.9730  144.8000 C   0  0  0  0  0  3  0  0  0  0  0  0
  184.7100  179.4120  145.2840 C   0  0  0  0  0  3  0  0  0  0  0  0
  184.5200  177.4040  146.6190 C   0  0  0  0  0  3  0  0  0  0  0  0
  185.7550  176.9660  146.1360 C   0  0  0  0  0  3  0  0  0  0  0  0
  2 23  1  0  0  0  0
  2  1  2  0  0  0  0
  3 12  1  0  0  0  0
  4 11  1  0  0  0  0
  5 10  2  0  0  0  0
  6 12  2  0  0  0  0
  7  9  1  0  0  0  0
  8  7  1  0  0  0  0
  9  3  2  0  0  0  0
 10  8  1  0  0  0  0
 10  4  1  0  0  0  0
 11  9  1  0  0  0  0
 11 13  2  0  0  0  0
 12  2  1  0  0  0  0
 13  6  1  0  0  0  0
 15 18  1  0  0  0  0
 16 15  1  0  0  0  0
 17  1  1  0  0  0  0
 17 21  1  0  0  0  0
 18 21  2  0  0  0  0
 19 20  1  0  0  0  0
 19 15  2  0  0  0  0
 20 17  2  0  0  0  0
 21 14  1  0  0  0  0
 22 26  1  0  0  0  0
 23 27  1  0  0  0  0
 24 23  2  0  0  0  0
 24 25  1  0  0  0  0
 25 22  2  0  0  0  0
 27 26  2  0  0  0  0
M  END
>  <MODEL>
7

>  <REMARK>
 VINA RESULT:      -7.8      1.191      2.123
  Name = 
  3 active torsions:
  status: ('A' for Active; 'I' for Inactive)
    1  A    between atoms: C_1  and  C_18
    2  A    between atoms: C_9  and  C_15
    3  A    between atoms: C_15  and  C_19
                            x       y       z     vdW  Elec       q    Type
                         _______ _______ _______ _____ _____    ______ ____

>  <TORSDO>
F 3

$$$$
=
 OpenBabel11052418283D

 27 30  0  0  0  0  0  0  0  0999 V2000
  192.1710  174.8510  146.2710 C   0  0  0  0  0  3  0  0  0  0  0  0
  192.7030  173.9960  145.3760 C   0  0  0  0  0  0  0  0  0  0  0  0
  192.1150  173.8250  142.9400 C   0  0  0  0  0  3  0  0  0  0  0  0
  189.5700  171.7880  141.1240 N   0  0  0  0  0  2  0  0  0  0  0  0
  189.0250  171.8080  138.8590 O   0  0  0  0  0  0  0  0  0  0  0  0
  190.8940  172.4800  144.5400 C   0  0  0  0  0  3  0  0  0  0  0  0
  191.6700  173.6510  140.4790 C   0  0  0  0  0  2  0  0  0  0  0  0
  190.4310  173.6020  139.5800 C   0  0  0  0  0  2  0  0  0  0  0  0
  191.3490  173.2930  141.9010 C   0  0  0  0  0  0  0  0  0  0  0  0
  189.6540  172.3410  139.8080 C   0  0  0  0  0  0  0  0  0  0  0  0
  190.3580  172.3360  142.1840 C   0  0  0  0  0  0  0  0  0  0  0  0
  191.8920  173.4270  144.2670 C   0  0  0  0  0  0  0  0  0  0  0  0
  190.1320  171.9340  143.5030 C   0  0  0  0  0  3  0  0  0  0  0  0
  191.5140  177.2290  144.6580 N   0  0  0  0  0  1  0  0  0  0  0  0
  188.2240  176.5020  146.2260 C   0  0  0  0  0  0  0  0  0  0  0  0
  186.8450  177.0560  146.2240 C   0  0  0  0  0  1  0  0  0  0  0  0
  190.8200  175.4430  146.2200 C   0  0  0  0  0  0  0  0  0  0  0  0
  189.2120  177.0880  145.4320 C   0  0  0  0  0  3  0  0  0  0  0  0
  188.5350  175.4080  147.0370 C   0  0  0  0  0  3  0  0  0  0  0  0
  189.8310  174.8860  147.0370 C   0  0  0  0  0  3  0  0  0  0  0  0
  190.5120  176.5700  145.4280 C   0  0  0  0  0  0  0  0  0  0  0  0
  196.7910  172.7640  145.9130 C   0  0  0  0  0  3  0  0  0  0  0  0
  194.1190  173.5720  145.5540 C   0  0  0  0  0  0  0  0  0  0  0  0
  194.4660  172.2090  145.5390 C   0  0  0  0  0  3  0  0  0  0  0  0
  195.7930  171.8090  145.7160 C   0  0  0  0  0  3  0  0  0  0  0  0
  196.4630  174.1220  145.9350 C   0  0  0  0  0  3  0  0  0  0  0  0
  195.1360  174.5230  145.7580 C   0  0  0  0  0  3  0  0  0  0  0  0
  2 23  1  0  0  0  0
  2  1  2  0  0  0  0
  3 12  1  0  0  0  0
  4 11  1  0  0  0  0
  5 10  2  0  0  0  0
  7  9  1  0  0  0  0
  8 10  1  0  0  0  0
  8  7  1  0  0  0  0
  9 11  1  0  0  0  0
  9  3  2  0  0  0  0
 10  4  1  0  0  0  0
 11 13  2  0  0  0  0
 12  6  2  0  0  0  0
 12  2  1  0  0  0  0
 13  6  1  0  0  0  0
 14 21  1  0  0  0  0
 15 19  1  0  0  0  0
 16 15  1  0  0  0  0
 17  1  1  0  0  0  0
 17 20  1  0  0  0  0
 18 15  2  0  0  0  0
 19 20  2  0  0  0  0
 21 18  1  0  0  0  0
 21 17  2  0  0  0  0
 22 26  1  0  0  0  0
 23 27  1  0  0  0  0
 24 23  2  0  0  0  0
 24 25  1  0  0  0  0
 25 22  2  0  0  0  0
 27 26  2  0  0  0  0
M  END
>  <MODEL>
8

>  <REMARK>
 VINA RESULT:      -7.4      2.364      6.571
  Name = 
  3 active torsions:
  status: ('A' for Active; 'I' for Inactive)
    1  A    between atoms: C_1  and  C_18
    2  A    between atoms: C_9  and  C_15
    3  A    between atoms: C_15  and  C_19
                            x       y       z     vdW  Elec       q    Type
                         _______ _______ _______ _____ _____    ______ ____

>  <TORSDO>
F 3

$$$$
=
 OpenBabel11052418283D

 27 30  0  0  0  0  0  0  0  0999 V2000
  187.4200  175.0830  142.5480 C   0  0  0  0  0  3  0  0  0  0  0  0
  187.7500  175.9350  143.5380 C   0  0  0  0  0  0  0  0  0  0  0  0
  190.2180  176.3370  143.7780 C   0  0  0  0  0  3  0  0  0  0  0  0
  192.6500  175.3970  146.4470 N   0  0  0  0  0  2  0  0  0  0  0  0
  194.9580  175.7150  146.5020 O   0  0  0  0  0  0  0  0  0  0  0  0
  189.0500  175.1280  145.5210 C   0  0  0  0  0  3  0  0  0  0  0  0
  192.6590  176.8730  143.9740 C   0  0  0  0  0  2  0  0  0  0  0  0
  193.9280  176.1190  144.3820 C   0  0  0  0  0  2  0  0  0  0  0  0
  191.4160  176.2020  144.4820 C   0  0  0  0  0  0  0  0  0  0  0  0
  193.8920  175.7600  145.8370 C   0  0  0  0  0  0  0  0  0  0  0  0
  191.4260  175.5380  145.7220 C   0  0  0  0  0  0  0  0  0  0  0  0
  189.0260  175.7980  144.2880 C   0  0  0  0  0  0  0  0  0  0  0  0
  190.2430  175.0020  146.2370 C   0  0  0  0  0  3  0  0  0  0  0  0
  188.2030  174.9960  139.7080 N   0  0  0  0  0  1  0  0  0  0  0  0
  189.8900  171.9480  141.0030 C   0  0  0  0  0  0  0  0  0  0  0  0
  190.7500  170.8510  140.4900 C   0  0  0  0  0  1  0  0  0  0  0  0
  188.2790  174.0260  141.9800 C   0  0  0  0  0  0  0  0  0  0  0  0
  189.4740  172.9690  140.1450 C   0  0  0  0  0  3  0  0  0  0  0  0
  189.4810  171.9480  142.3390 C   0  0  0  0  0  3  0  0  0  0  0  0
  188.6740  172.9800  142.8220 C   0  0  0  0  0  3  0  0  0  0  0  0
  188.6650  174.0060  140.6220 C   0  0  0  0  0  0  0  0  0  0  0  0
  184.9460  179.0040  144.6470 C   0  0  0  0  0  3  0  0  0  0  0  0
  186.7740  176.9930  143.9190 C   0  0  0  0  0  0  0  0  0  0  0  0
  186.6530  178.1650  143.1530 C   0  0  0  0  0  3  0  0  0  0  0  0
  185.7440  179.1630  143.5130 C   0  0  0  0  0  3  0  0  0  0  0  0
  185.0560  177.8470  145.4220 C   0  0  0  0  0  3  0  0  0  0  0  0
  185.9650  176.8490  145.0610 C   0  0  0  0  0  3  0  0  0  0  0  0
  1  2  2  0  0  0  0
  2 23  1  0  0  0  0
  2 12  1  0  0  0  0
  3 12  2  0  0  0  0
  3  9  1  0  0  0  0
  6 13  2  0  0  0  0
  7  8  1  0  0  0  0
  7  9  1  0  0  0  0
  8 10  1  0  0  0  0
  9 11  2  0  0  0  0
 10  4  1  0  0  0  0
 10  5  2  0  0  0  0
 11 13  1  0  0  0  0
 11  4  1  0  0  0  0
 12  6  1  0  0  0  0
 14 21  1  0  0  0  0
 15 19  1  0  0  0  0
 16 15  1  0  0  0  0
 17  1  1  0  0  0  0
 17 20  1  0  0  0  0
 18 21  1  0  0  0  0
 18 15  2  0  0  0  0
 19 20  2  0  0  0  0
 21 17  2  0  0  0  0
 22 26  1  0  0  0  0
 23 27  1  0  0  0  0
 24 25  1  0  0  0  0
 24 23  2  0  0  0  0
 25 22  2  0  0  0  0
 27 26  2  0  0  0  0
M  END
>  <MODEL>
9

>  <REMARK>
 VINA RESULT:      -7.2      2.308      5.385
  Name = 
  3 active torsions:
  status: ('A' for Active; 'I' for Inactive)
    1  A    between atoms: C_1  and  C_18
    2  A    between atoms: C_9  and  C_15
    3  A    between atoms: C_15  and  C_19
                            x       y       z     vdW  Elec       q    Type
                         _______ _______ _______ _____ _____    ______ ____

>  <TORSDO>
F 3

$$$$
