=
 OpenBabel11052418223D

 27 30  0  0  1  0  0  0  0  0999 V2000
  187.4780  174.1530  142.3510 N   0  0  0  0  0  2  0  0  0  0  0  0
  188.5280  172.0430  142.3880 N   0  0  0  0  0  2  0  0  0  0  0  0
  188.0900  177.7610  143.1990 C   0  0  1  0  0  3  0  0  0  0  0  0
  190.1480  176.4540  142.5180 C   0  0  0  0  0  3  0  0  0  0  0  0
  189.9770  174.0150  141.2700 S   0  0  0  0  0  0  0  0  0  0  0  0
  189.6220  177.6010  143.3470 C   0  0  2  0  0  3  0  0  0  0  0  0
  188.5020  173.2520  141.9380 C   0  0  0  0  0  0  0  0  0  0  0  0
  187.8480  175.5380  142.1400 C   0  0  2  0  0  3  0  0  0  0  0  0
  189.3410  175.5250  141.9810 C   0  0  0  0  0  0  0  0  0  0  0  0
  187.3990  176.4050  143.3110 C   0  0  0  0  0  2  0  0  0  0  0  0
  187.5470  178.6710  144.1530 O   0  0  0  0  0  0  0  0  0  0  0  0
  184.2890  177.7240  146.6310 C   0  0  0  0  0  3  0  0  0  0  0  0
  186.4780  178.3490  144.9950 C   0  0  0  0  0  0  0  0  0  0  0  0
  186.6220  177.4390  146.0550 C   0  0  0  0  0  3  0  0  0  0  0  0
  185.5300  177.1280  146.8700 C   0  0  0  0  0  3  0  0  0  0  0  0
  184.1400  178.6320  145.5790 C   0  0  0  0  0  3  0  0  0  0  0  0
  185.2320  178.9440  144.7640 C   0  0  0  0  0  3  0  0  0  0  0  0
  190.0410  177.3720  144.7970 C   0  0  0  0  0  2  0  0  0  0  0  0
  192.0120  176.0140  145.6770 C   0  0  0  0  0  0  0  0  0  0  0  0
  189.8860  173.5990  145.4580 C   0  0  0  0  0  1  0  0  0  0  0  0
  189.5670  175.3630  147.2300 C   0  0  0  0  0  2  0  0  0  0  0  0
  192.6470  174.7800  145.5180 O   0  0  0  0  0  1  0  0  0  0  0  0
  192.8060  176.9960  145.0810 O   0  0  0  0  0  1  0  0  0  0  0  0
  189.6190  175.0710  145.7280 C   0  0  1  0  0  3  0  0  0  0  0  0
  190.9570  175.3230  147.8590 C   0  0  0  0  0  2  0  0  0  0  0  0
  191.8750  176.3260  147.1690 C   0  0  0  0  0  2  0  0  0  0  0  0
  190.6270  175.9730  144.9920 C   0  0  1  0  0  3  0  0  0  0  0  0
  3 10  1  0  0  0  0
  3  6  1  0  0  0  0
  3 11  1  1  0  0  0
  4  6  1  0  0  0  0
  5  7  1  0  0  0  0
  5  9  1  0  0  0  0
  6 18  1  1  0  0  0
  7  1  1  0  0  0  0
  7  2  2  0  0  0  0
  8  1  1  0  0  0  0
  8 10  1  1  0  0  0
  9  8  1  0  0  0  0
  9  4  2  0  0  0  0
 11 13  1  0  0  0  0
 12 15  1  0  0  0  0
 13 14  1  0  0  0  0
 14 15  2  0  0  0  0
 16 12  2  0  0  0  0
 17 13  2  0  0  0  0
 17 16  1  0  0  0  0
 19 26  1  0  0  0  0
 21 25  1  0  0  0  0
 22 19  1  0  0  0  0
 23 19  1  0  0  0  0
 24 20  1  1  0  0  0
 24 21  1  0  0  0  0
 26 25  1  0  0  0  0
 27 18  1  1  0  0  0
 27 19  1  0  0  0  0
 27 24  1  0  0  0  0
M  END
>  <MODEL>
1

>  <REMARK>
 VINA RESULT:      -7.8      0.000      0.000
  Name = 
  4 active torsions:
  status: ('A' for Active; 'I' for Inactive)
    1  A    between atoms: O_2  and  C_6
    2  A    between atoms: O_2  and  C_9
    3  A    between atoms: C_3  and  C_14
    4  A    between atoms: C_3  and  C_26
                            x       y       z     vdW  Elec       q    Type
                         _______ _______ _______ _____ _____    ______ ____

>  <TORSDO>
F 4

$$$$
=
 OpenBabel11052418223D

 27 30  0  0  1  0  0  0  0  0999 V2000
  186.5180  177.3710  147.2140 N   0  0  0  0  0  2  0  0  0  0  0  0
  184.3010  177.6490  146.4640 N   0  0  0  0  0  2  0  0  0  0  0  0
  189.9020  176.2360  146.0440 C   0  0  1  0  0  3  0  0  0  0  0  0
  188.4290  177.2470  144.2500 C   0  0  0  0  0  3  0  0  0  0  0  0
  186.1860  178.7070  144.8610 S   0  0  0  0  0  0  0  0  0  0  0  0
  189.5330  176.2590  144.5410 C   0  0  2  0  0  3  0  0  0  0  0  0
  185.5470  177.9720  146.3630 C   0  0  0  0  0  0  0  0  0  0  0  0
  187.8600  177.4800  146.6780 C   0  0  2  0  0  3  0  0  0  0  0  0
  187.6750  177.7890  145.2200 C   0  0  0  0  0  0  0  0  0  0  0  0
  188.6400  176.1890  146.9010 C   0  0  0  0  0  2  0  0  0  0  0  0
  190.7610  175.1470  146.3720 O   0  0  0  0  0  0  0  0  0  0  0  0
  194.9460  175.3870  146.0840 C   0  0  0  0  0  3  0  0  0  0  0  0
  192.1540  175.2090  146.2590 C   0  0  0  0  0  0  0  0  0  0  0  0
  192.9050  174.1240  145.7780 C   0  0  0  0  0  3  0  0  0  0  0  0
  194.2970  174.2140  145.6920 C   0  0  0  0  0  3  0  0  0  0  0  0
  194.2040  176.4710  146.5620 C   0  0  0  0  0  3  0  0  0  0  0  0
  192.8120  176.3820  146.6480 C   0  0  0  0  0  3  0  0  0  0  0  0
  189.0930  174.8880  144.0320 C   0  0  0  0  0  2  0  0  0  0  0  0
  190.1070  172.6090  143.5020 C   0  0  0  0  0  0  0  0  0  0  0  0
  191.8360  174.3480  141.4090 C   0  0  0  0  0  1  0  0  0  0  0  0
  189.3760  173.9980  140.9820 C   0  0  0  0  0  2  0  0  0  0  0  0
  191.3270  171.9970  143.2070 O   0  0  0  0  0  1  0  0  0  0  0  0
  189.7540  172.2770  144.8120 O   0  0  0  0  0  1  0  0  0  0  0  0
  190.4270  174.6080  141.9150 C   0  0  1  0  0  3  0  0  0  0  0  0
  189.3270  172.4780  141.1090 C   0  0  0  0  0  2  0  0  0  0  0  0
  189.0300  172.0800  142.5510 C   0  0  0  0  0  2  0  0  0  0  0  0
  190.2540  174.1420  143.3720 C   0  0  1  0  0  3  0  0  0  0  0  0
  3 11  1  6  0  0  0
  3 10  1  0  0  0  0
  4  6  1  0  0  0  0
  4  9  2  0  0  0  0
  5  9  1  0  0  0  0
  5  7  1  0  0  0  0
  6 18  1  1  0  0  0
  6  3  1  0  0  0  0
  7  2  2  0  0  0  0
  7  1  1  0  0  0  0
  8 10  1  6  0  0  0
  8  1  1  0  0  0  0
  9  8  1  0  0  0  0
 12 16  1  0  0  0  0
 13 11  1  0  0  0  0
 13 17  1  0  0  0  0
 14 13  2  0  0  0  0
 15 14  1  0  0  0  0
 15 12  2  0  0  0  0
 16 17  2  0  0  0  0
 19 23  1  0  0  0  0
 21 25  1  0  0  0  0
 21 24  1  0  0  0  0
 22 19  1  0  0  0  0
 24 20  1  6  0  0  0
 24 27  1  0  0  0  0
 25 26  1  0  0  0  0
 26 19  1  0  0  0  0
 27 19  1  0  0  0  0
 27 18  1  6  0  0  0
M  END
>  <MODEL>
2

>  <REMARK>
 VINA RESULT:      -7.2      2.922      6.221
  Name = 
  4 active torsions:
  status: ('A' for Active; 'I' for Inactive)
    1  A    between atoms: O_2  and  C_6
    2  A    between atoms: O_2  and  C_9
    3  A    between atoms: C_3  and  C_14
    4  A    between atoms: C_3  and  C_26
                            x       y       z     vdW  Elec       q    Type
                         _______ _______ _______ _____ _____    ______ ____

>  <TORSDO>
F 4

$$$$
=
 OpenBabel11052418223D

 27 30  0  0  1  0  0  0  0  0999 V2000
  193.8710  177.0400  145.0900 N   0  0  0  0  0  2  0  0  0  0  0  0
  195.8490  176.0920  144.2270 N   0  0  0  0  0  2  0  0  0  0  0  0
  190.1520  176.5190  145.1810 C   0  0  1  0  0  3  0  0  0  0  0  0
  191.5290  174.4030  144.9900 C   0  0  0  0  0  3  0  0  0  0  0  0
  194.2250  174.3690  145.5050 S   0  0  0  0  0  0  0  0  0  0  0  0
  190.2130  175.0640  144.6570 C   0  0  2  0  0  3  0  0  0  0  0  0
  194.8170  175.9790  144.9940 C   0  0  0  0  0  0  0  0  0  0  0  0
  192.5900  176.5890  145.5960 C   0  0  2  0  0  3  0  0  0  0  0  0
  192.5980  175.0990  145.4090 C   0  0  0  0  0  0  0  0  0  0  0  0
  191.4440  177.2590  144.8470 C   0  0  0  0  0  2  0  0  0  0  0  0
  189.0290  177.2310  144.6680 O   0  0  0  0  0  0  0  0  0  0  0  0
  185.2280  177.2150  146.4580 C   0  0  0  0  0  3  0  0  0  0  0  0
  187.7740  177.2290  145.2850 C   0  0  0  0  0  0  0  0  0  0  0  0
  187.6170  176.8780  146.6360 C   0  0  0  0  0  3  0  0  0  0  0  0
  186.3470  176.8710  147.2190 C   0  0  0  0  0  3  0  0  0  0  0  0
  185.3780  177.5680  145.1130 C   0  0  0  0  0  3  0  0  0  0  0  0
  186.6480  177.5750  144.5300 C   0  0  0  0  0  3  0  0  0  0  0  0
  190.0090  174.9850  143.1460 C   0  0  0  0  0  2  0  0  0  0  0  0
  188.1300  173.8610  141.8390 C   0  0  0  0  0  0  0  0  0  0  0  0
  190.0070  171.2660  142.2120 C   0  0  0  0  0  1  0  0  0  0  0  0
  190.7540  173.1150  140.6700 C   0  0  0  0  0  2  0  0  0  0  0  0
  187.3910  172.6770  141.7870 O   0  0  0  0  0  1  0  0  0  0  0  0
  187.3160  174.8630  142.3720 O   0  0  0  0  0  1  0  0  0  0  0  0
  190.4210  172.7250  142.1130 C   0  0  1  0  0  3  0  0  0  0  0  0
  189.4950  173.2360  139.8160 C   0  0  0  0  0  2  0  0  0  0  0  0
  188.5450  174.2630  140.4220 C   0  0  0  0  0  2  0  0  0  0  0  0
  189.3680  173.6560  142.7410 C   0  0  1  0  0  3  0  0  0  0  0  0
  1  8  1  0  0  0  0
  2  7  2  0  0  0  0
  3 11  1  6  0  0  0
  4  9  2  0  0  0  0
  6 18  1  6  0  0  0
  6  4  1  0  0  0  0
  6  3  1  0  0  0  0
  7  1  1  0  0  0  0
  7  5  1  0  0  0  0
  8 10  1  6  0  0  0
  9  5  1  0  0  0  0
  9  8  1  0  0  0  0
 10  3  1  0  0  0  0
 11 13  1  0  0  0  0
 12 15  1  0  0  0  0
 13 14  1  0  0  0  0
 14 15  2  0  0  0  0
 16 12  2  0  0  0  0
 17 16  1  0  0  0  0
 17 13  2  0  0  0  0
 19 23  1  0  0  0  0
 19 27  1  0  0  0  0
 21 24  1  0  0  0  0
 22 19  1  0  0  0  0
 24 20  1  6  0  0  0
 24 27  1  0  0  0  0
 25 26  1  0  0  0  0
 25 21  1  0  0  0  0
 26 19  1  0  0  0  0
 27 18  1  6  0  0  0
M  END
>  <MODEL>
3

>  <REMARK>
 VINA RESULT:      -6.9      3.246      5.122
  Name = 
  4 active torsions:
  status: ('A' for Active; 'I' for Inactive)
    1  A    between atoms: O_2  and  C_6
    2  A    between atoms: O_2  and  C_9
    3  A    between atoms: C_3  and  C_14
    4  A    between atoms: C_3  and  C_26
                            x       y       z     vdW  Elec       q    Type
                         _______ _______ _______ _____ _____    ______ ____

>  <TORSDO>
F 4

$$$$
=
 OpenBabel11052418223D

 27 30  0  0  1  0  0  0  0  0999 V2000
  192.7000  177.5120  144.6370 N   0  0  0  0  0  2  0  0  0  0  0  0
  194.7130  176.3250  144.3240 N   0  0  0  0  0  2  0  0  0  0  0  0
  189.0160  176.9810  145.1340 C   0  0  1  0  0  3  0  0  0  0  0  0
  190.4970  175.1340  146.0300 C   0  0  0  0  0  3  0  0  0  0  0  0
  193.1980  175.4760  146.3800 S   0  0  0  0  0  0  0  0  0  0  0  0
  189.1440  175.4720  145.4510 C   0  0  2  0  0  3  0  0  0  0  0  0
  193.6990  176.5950  145.0760 C   0  0  0  0  0  0  0  0  0  0  0  0
  191.4520  177.3490  145.3540 C   0  0  2  0  0  3  0  0  0  0  0  0
  191.5340  175.9850  145.9780 C   0  0  0  0  0  0  0  0  0  0  0  0
  190.2620  177.4810  144.4100 C   0  0  0  0  0  2  0  0  0  0  0  0
  187.8500  177.2740  144.3670 O   0  0  0  0  0  0  0  0  0  0  0  0
  184.2430  178.6660  146.0130 C   0  0  0  0  0  3  0  0  0  0  0  0
  186.6540  177.7250  144.9350 C   0  0  0  0  0  0  0  0  0  0  0  0
  186.0220  177.0260  145.9770 C   0  0  0  0  0  3  0  0  0  0  0  0
  184.8200  177.4960  146.5130 C   0  0  0  0  0  3  0  0  0  0  0  0
  184.8690  179.3670  144.9770 C   0  0  0  0  0  3  0  0  0  0  0  0
  186.0710  178.8970  144.4420 C   0  0  0  0  0  3  0  0  0  0  0  0
  188.9240  174.6000  144.2160 C   0  0  0  0  0  2  0  0  0  0  0  0
  190.0050  172.3330  143.7810 C   0  0  0  0  0  0  0  0  0  0  0  0
  192.2480  174.1600  142.3580 C   0  0  0  0  0  1  0  0  0  0  0  0
  189.9800  173.9330  141.2810 C   0  0  0  0  0  2  0  0  0  0  0  0
  191.2500  171.7010  143.7630 O   0  0  0  0  0  1  0  0  0  0  0  0
  189.3170  171.9160  144.9230 O   0  0  0  0  0  1  0  0  0  0  0  0
  190.7590  174.4320  142.5010 C   0  0  1  0  0  3  0  0  0  0  0  0
  189.8760  172.4100  141.2660 C   0  0  0  0  0  2  0  0  0  0  0  0
  189.2060  171.9160  142.5440 C   0  0  0  0  0  2  0  0  0  0  0  0
  190.2050  173.8640  143.8200 C   0  0  1  0  0  3  0  0  0  0  0  0
  1  7  1  0  0  0  0
  1  8  1  0  0  0  0
  2  7  2  0  0  0  0
  3 11  1  6  0  0  0
  3  6  1  0  0  0  0
  6 18  1  6  0  0  0
  6  4  1  0  0  0  0
  7  5  1  0  0  0  0
  8 10  1  6  0  0  0
  8  9  1  0  0  0  0
  9  4  2  0  0  0  0
  9  5  1  0  0  0  0
 10  3  1  0  0  0  0
 11 13  1  0  0  0  0
 12 15  1  0  0  0  0
 13 14  1  0  0  0  0
 14 15  2  0  0  0  0
 16 12  2  0  0  0  0
 17 13  2  0  0  0  0
 17 16  1  0  0  0  0
 19 27  1  0  0  0  0
 19 23  1  0  0  0  0
 21 24  1  0  0  0  0
 22 19  1  0  0  0  0
 24 20  1  6  0  0  0
 24 27  1  0  0  0  0
 25 21  1  0  0  0  0
 25 26  1  0  0  0  0
 26 19  1  0  0  0  0
 27 18  1  6  0  0  0
M  END
>  <MODEL>
4

>  <REMARK>
 VINA RESULT:      -6.9      2.872      4.473
  Name = 
  4 active torsions:
  status: ('A' for Active; 'I' for Inactive)
    1  A    between atoms: O_2  and  C_6
    2  A    between atoms: O_2  and  C_9
    3  A    between atoms: C_3  and  C_14
    4  A    between atoms: C_3  and  C_26
                            x       y       z     vdW  Elec       q    Type
                         _______ _______ _______ _____ _____    ______ ____

>  <TORSDO>
F 4

$$$$
=
 OpenBabel11052418223D

 27 30  0  0  1  0  0  0  0  0999 V2000
  186.6110  177.2720  147.2270 N   0  0  0  0  0  2  0  0  0  0  0  0
  184.4100  177.5290  146.4230 N   0  0  0  0  0  2  0  0  0  0  0  0
  190.0450  176.2280  146.1220 C   0  0  1  0  0  3  0  0  0  0  0  0
  188.6020  177.2560  144.3140 C   0  0  0  0  0  3  0  0  0  0  0  0
  186.3170  178.6600  144.8980 S   0  0  0  0  0  0  0  0  0  0  0  0
  189.7170  176.2820  144.6100 C   0  0  2  0  0  3  0  0  0  0  0  0
  185.6510  177.8770  146.3640 C   0  0  0  0  0  0  0  0  0  0  0  0
  187.9640  177.4190  146.7300 C   0  0  2  0  0  3  0  0  0  0  0  0
  187.8130  177.7610  145.2760 C   0  0  0  0  0  0  0  0  0  0  0  0
  188.7620  176.1380  146.9420 C   0  0  0  0  0  2  0  0  0  0  0  0
  190.9150  175.1470  146.4470 O   0  0  0  0  0  0  0  0  0  0  0  0
  195.0900  175.3920  146.0380 C   0  0  0  0  0  3  0  0  0  0  0  0
  192.3050  175.2100  146.2960 C   0  0  0  0  0  0  0  0  0  0  0  0
  193.0540  174.0930  145.8900 C   0  0  0  0  0  3  0  0  0  0  0  0
  194.4430  174.1850  145.7630 C   0  0  0  0  0  3  0  0  0  0  0  0
  194.3490  176.5080  146.4400 C   0  0  0  0  0  3  0  0  0  0  0  0
  192.9600  176.4160  146.5670 C   0  0  0  0  0  3  0  0  0  0  0  0
  189.3160  174.9160  144.0570 C   0  0  0  0  0  2  0  0  0  0  0  0
  190.6990  173.9260  142.1570 C   0  0  0  0  0  0  0  0  0  0  0  0
  188.1910  174.9210  140.3920 C   0  0  0  0  0  1  0  0  0  0  0  0
  187.8940  172.9730  141.9640 C   0  0  0  0  0  2  0  0  0  0  0  0
  191.0640  174.1660  140.8310 O   0  0  0  0  0  1  0  0  0  0  0  0
  191.8000  174.1980  142.9720 O   0  0  0  0  0  1  0  0  0  0  0  0
  188.2050  174.4680  141.8420 C   0  0  1  0  0  3  0  0  0  0  0  0
  189.0710  172.1160  141.5050 C   0  0  0  0  0  2  0  0  0  0  0  0
  190.3160  172.4530  142.3200 C   0  0  0  0  0  2  0  0  0  0  0  0
  189.5210  174.8490  142.5420 C   0  0  1  0  0  3  0  0  0  0  0  0
  3 11  1  6  0  0  0
  3 10  1  0  0  0  0
  4  6  1  0  0  0  0
  4  9  2  0  0  0  0
  5  9  1  0  0  0  0
  5  7  1  0  0  0  0
  6 18  1  1  0  0  0
  6  3  1  0  0  0  0
  7  2  2  0  0  0  0
  7  1  1  0  0  0  0
  8 10  1  6  0  0  0
  8  1  1  0  0  0  0
  9  8  1  0  0  0  0
 12 16  1  0  0  0  0
 13 11  1  0  0  0  0
 13 17  1  0  0  0  0
 14 13  2  0  0  0  0
 15 14  1  0  0  0  0
 15 12  2  0  0  0  0
 16 17  2  0  0  0  0
 19 26  1  0  0  0  0
 19 27  1  0  0  0  0
 19 23  1  0  0  0  0
 22 19  1  0  0  0  0
 24 20  1  6  0  0  0
 24 21  1  0  0  0  0
 24 27  1  0  0  0  0
 25 21  1  0  0  0  0
 25 26  1  0  0  0  0
 27 18  1  1  0  0  0
M  END
>  <MODEL>
5

>  <REMARK>
 VINA RESULT:      -6.8      2.862      6.225
  Name = 
  4 active torsions:
  status: ('A' for Active; 'I' for Inactive)
    1  A    between atoms: O_2  and  C_6
    2  A    between atoms: O_2  and  C_9
    3  A    between atoms: C_3  and  C_14
    4  A    between atoms: C_3  and  C_26
                            x       y       z     vdW  Elec       q    Type
                         _______ _______ _______ _____ _____    ______ ____

>  <TORSDO>
F 4

$$$$
=
 OpenBabel11052418223D

 27 30  0  0  1  0  0  0  0  0999 V2000
  189.3940  171.8480  139.7340 N   0  0  0  0  0  2  0  0  0  0  0  0
  191.1580  170.2900  139.6060 N   0  0  0  0  0  2  0  0  0  0  0  0
  188.2380  174.8320  141.7010 C   0  0  1  0  0  3  0  0  0  0  0  0
  190.7500  174.5460  141.5590 C   0  0  0  0  0  3  0  0  0  0  0  0
  191.9230  172.8660  139.7330 S   0  0  0  0  0  0  0  0  0  0  0  0
  189.6030  175.0670  142.3920 C   0  0  2  0  0  3  0  0  0  0  0  0
  190.7650  171.5170  139.5300 C   0  0  0  0  0  0  0  0  0  0  0  0
  189.2110  173.2450  140.0710 C   0  0  2  0  0  3  0  0  0  0  0  0
  190.5640  173.7200  140.5170 C   0  0  0  0  0  0  0  0  0  0  0  0
  188.1550  173.4080  141.1580 C   0  0  0  0  0  2  0  0  0  0  0  0
  187.1400  175.0920  142.5720 O   0  0  0  0  0  0  0  0  0  0  0  0
  185.8890  178.9890  143.5210 C   0  0  0  0  0  3  0  0  0  0  0  0
  186.7210  176.3830  142.9110 C   0  0  0  0  0  0  0  0  0  0  0  0
  185.9310  176.6270  144.0460 C   0  0  0  0  0  3  0  0  0  0  0  0
  185.5170  177.9270  144.3490 C   0  0  0  0  0  3  0  0  0  0  0  0
  186.6760  178.7520  142.3900 C   0  0  0  0  0  3  0  0  0  0  0  0
  187.0910  177.4520  142.0880 C   0  0  0  0  0  3  0  0  0  0  0  0
  189.6750  174.4100  143.7680 C   0  0  0  0  0  2  0  0  0  0  0  0
  189.7650  174.8770  146.2730 C   0  0  0  0  0  0  0  0  0  0  0  0
  189.2940  177.9100  145.2850 C   0  0  0  0  0  1  0  0  0  0  0  0
  191.5090  176.7960  144.8280 C   0  0  0  0  0  2  0  0  0  0  0  0
  189.1590  175.6530  147.2630 O   0  0  0  0  0  1  0  0  0  0  0  0
  189.3240  173.5600  146.4170 O   0  0  0  0  0  1  0  0  0  0  0  0
  190.0010  176.7790  144.5580 C   0  0  1  0  0  3  0  0  0  0  0  0
  191.8310  176.3190  146.2410 C   0  0  0  0  0  2  0  0  0  0  0  0
  191.2840  174.9130  146.4590 C   0  0  0  0  0  2  0  0  0  0  0  0
  189.3660  175.4140  144.8800 C   0  0  1  0  0  3  0  0  0  0  0  0
  1  8  1  0  0  0  0
  3  6  1  0  0  0  0
  3 11  1  1  0  0  0
  4  6  1  0  0  0  0
  5  9  1  0  0  0  0
  6 18  1  1  0  0  0
  7  2  2  0  0  0  0
  7  5  1  0  0  0  0
  7  1  1  0  0  0  0
  8  9  1  0  0  0  0
  8 10  1  1  0  0  0
  9  4  2  0  0  0  0
 10  3  1  0  0  0  0
 11 13  1  0  0  0  0
 12 15  1  0  0  0  0
 13 14  1  0  0  0  0
 14 15  2  0  0  0  0
 16 12  2  0  0  0  0
 17 16  1  0  0  0  0
 17 13  2  0  0  0  0
 19 23  1  0  0  0  0
 19 26  1  0  0  0  0
 19 22  1  0  0  0  0
 21 25  1  0  0  0  0
 24 21  1  0  0  0  0
 24 27  1  0  0  0  0
 24 20  1  1  0  0  0
 25 26  1  0  0  0  0
 27 18  1  6  0  0  0
 27 19  1  0  0  0  0
M  END
>  <MODEL>
6

>  <REMARK>
 VINA RESULT:      -6.8      2.198      3.290
  Name = 
  4 active torsions:
  status: ('A' for Active; 'I' for Inactive)
    1  A    between atoms: O_2  and  C_6
    2  A    between atoms: O_2  and  C_9
    3  A    between atoms: C_3  and  C_14
    4  A    between atoms: C_3  and  C_26
                            x       y       z     vdW  Elec       q    Type
                         _______ _______ _______ _____ _____    ______ ____

>  <TORSDO>
F 4

$$$$
=
 OpenBabel11052418223D

 27 30  0  0  1  0  0  0  0  0999 V2000
  186.4510  178.3700  144.3160 N   0  0  0  0  0  2  0  0  0  0  0  0
  184.4360  177.9120  143.1820 N   0  0  0  0  0  2  0  0  0  0  0  0
  189.9520  177.0760  144.7360 C   0  0  1  0  0  3  0  0  0  0  0  0
  188.8980  176.6100  142.4820 C   0  0  0  0  0  3  0  0  0  0  0  0
  186.6370  177.9150  141.6340 S   0  0  0  0  0  0  0  0  0  0  0  0
  189.8860  176.1260  143.5160 C   0  0  2  0  0  3  0  0  0  0  0  0
  185.6890  178.2170  143.1220 C   0  0  0  0  0  0  0  0  0  0  0  0
  187.8750  178.2480  144.0770 C   0  0  2  0  0  3  0  0  0  0  0  0
  187.9910  177.5640  142.7450 C   0  0  0  0  0  0  0  0  0  0  0  0
  188.5470  177.4550  145.1930 C   0  0  0  0  0  2  0  0  0  0  0  0
  190.6880  176.5140  145.8190 O   0  0  0  0  0  0  0  0  0  0  0  0
  194.8200  175.7600  145.6950 C   0  0  0  0  0  3  0  0  0  0  0  0
  192.0670  176.2860  145.7710 C   0  0  0  0  0  0  0  0  0  0  0  0
  192.9200  177.0830  144.9900 C   0  0  0  0  0  3  0  0  0  0  0  0
  194.2920  176.8190  144.9520 C   0  0  0  0  0  3  0  0  0  0  0  0
  193.9760  174.9640  146.4760 C   0  0  0  0  0  3  0  0  0  0  0  0
  192.6040  175.2280  146.5140 C   0  0  0  0  0  3  0  0  0  0  0  0
  189.5020  174.7020  143.9130 C   0  0  0  0  0  2  0  0  0  0  0  0
  190.2940  172.2790  143.8740 C   0  0  0  0  0  0  0  0  0  0  0  0
  193.0450  173.6490  142.8990 C   0  0  0  0  0  1  0  0  0  0  0  0
  191.0610  173.6300  141.3450 C   0  0  0  0  0  2  0  0  0  0  0  0
  191.4020  171.4860  144.1800 O   0  0  0  0  0  1  0  0  0  0  0  0
  189.3180  172.0660  144.8500 O   0  0  0  0  0  1  0  0  0  0  0  0
  191.6210  174.1300  142.6790 C   0  0  1  0  0  3  0  0  0  0  0  0
  190.7320  172.1410  141.3960 C   0  0  0  0  0  2  0  0  0  0  0  0
  189.7320  171.8620  142.5130 C   0  0  0  0  0  2  0  0  0  0  0  0
  190.7110  173.7670  143.8670 C   0  0  1  0  0  3  0  0  0  0  0  0
  3 10  1  0  0  0  0
  3 11  1  1  0  0  0
  4  9  2  0  0  0  0
  4  6  1  0  0  0  0
  5  9  1  0  0  0  0
  5  7  1  0  0  0  0
  6 18  1  1  0  0  0
  6  3  1  0  0  0  0
  7  2  2  0  0  0  0
  7  1  1  0  0  0  0
  8  1  1  0  0  0  0
  8 10  1  1  0  0  0
  9  8  1  0  0  0  0
 12 16  1  0  0  0  0
 13 11  1  0  0  0  0
 13 17  1  0  0  0  0
 14 13  2  0  0  0  0
 15 14  1  0  0  0  0
 15 12  2  0  0  0  0
 16 17  2  0  0  0  0
 19 22  1  0  0  0  0
 19 23  1  0  0  0  0
 21 25  1  0  0  0  0
 21 24  1  0  0  0  0
 24 20  1  1  0  0  0
 24 27  1  0  0  0  0
 25 26  1  0  0  0  0
 26 19  1  0  0  0  0
 27 19  1  0  0  0  0
 27 18  1  6  0  0  0
M  END
>  <MODEL>
7

>  <REMARK>
 VINA RESULT:      -6.6      2.792      5.759
  Name = 
  4 active torsions:
  status: ('A' for Active; 'I' for Inactive)
    1  A    between atoms: O_2  and  C_6
    2  A    between atoms: O_2  and  C_9
    3  A    between atoms: C_3  and  C_14
    4  A    between atoms: C_3  and  C_26
                            x       y       z     vdW  Elec       q    Type
                         _______ _______ _______ _____ _____    ______ ____

>  <TORSDO>
F 4

$$$$
=
 OpenBabel11052418223D

 27 30  0  0  1  0  0  0  0  0999 V2000
  185.6670  178.6940  142.8480 N   0  0  0  0  0  2  0  0  0  0  0  0
  185.1920  180.5190  144.2630 N   0  0  0  0  0  2  0  0  0  0  0  0
  187.9430  175.7220  142.5400 C   0  0  1  0  0  3  0  0  0  0  0  0
  187.4100  176.4260  144.9120 C   0  0  0  0  0  3  0  0  0  0  0  0
  185.3410  178.1320  145.4950 S   0  0  0  0  0  0  0  0  0  0  0  0
  188.4330  175.7820  144.0060 C   0  0  2  0  0  3  0  0  0  0  0  0
  185.2420  179.2400  144.0940 C   0  0  0  0  0  0  0  0  0  0  0  0
  186.1020  177.3180  142.9720 C   0  0  2  0  0  3  0  0  0  0  0  0
  186.3650  177.1210  144.4370 C   0  0  0  0  0  0  0  0  0  0  0  0
  187.3430  177.0620  142.1240 C   0  0  0  0  0  2  0  0  0  0  0  0
  188.9810  175.3460  141.6390 O   0  0  0  0  0  0  0  0  0  0  0  0
  190.7870  171.5530  141.6020 C   0  0  0  0  0  3  0  0  0  0  0  0
  189.5610  174.0730  141.6270 C   0  0  0  0  0  0  0  0  0  0  0  0
  188.8770  172.9470  142.1140 C   0  0  0  0  0  3  0  0  0  0  0  0
  189.4900  171.6910  142.1020 C   0  0  0  0  0  3  0  0  0  0  0  0
  191.4720  172.6700  141.1130 C   0  0  0  0  0  3  0  0  0  0  0  0
  190.8590  173.9260  141.1260 C   0  0  0  0  0  3  0  0  0  0  0  0
  189.7450  176.5490  144.1470 C   0  0  0  0  0  2  0  0  0  0  0  0
  192.0740  176.3230  145.1590 C   0  0  0  0  0  0  0  0  0  0  0  0
  191.3610  173.1820  145.0120 C   0  0  0  0  0  1  0  0  0  0  0  0
  190.1520  174.6430  146.6730 C   0  0  0  0  0  2  0  0  0  0  0  0
  193.2250  175.5350  145.0880 O   0  0  0  0  0  1  0  0  0  0  0  0
  192.3380  177.5440  144.5330 O   0  0  0  0  0  1  0  0  0  0  0  0
  190.4150  174.3580  145.1920 C   0  0  1  0  0  3  0  0  0  0  0  0
  191.3600  175.2910  147.3440 C   0  0  0  0  0  2  0  0  0  0  0  0
  191.7280  176.5850  146.6270 C   0  0  0  0  0  2  0  0  0  0  0  0
  190.9120  175.6050  144.4370 C   0  0  1  0  0  3  0  0  0  0  0  0
  1  8  1  0  0  0  0
  1  7  1  0  0  0  0
  3 11  1  6  0  0  0
  3  6  1  0  0  0  0
  6 18  1  6  0  0  0
  6  4  1  0  0  0  0
  7  2  2  0  0  0  0
  7  5  1  0  0  0  0
  8 10  1  6  0  0  0
  8  9  1  0  0  0  0
  9  4  2  0  0  0  0
  9  5  1  0  0  0  0
 10  3  1  0  0  0  0
 12 15  1  0  0  0  0
 13 11  1  0  0  0  0
 13 14  1  0  0  0  0
 15 14  2  0  0  0  0
 16 17  1  0  0  0  0
 16 12  2  0  0  0  0
 17 13  2  0  0  0  0
 19 26  1  0  0  0  0
 21 25  1  0  0  0  0
 22 19  1  0  0  0  0
 23 19  1  0  0  0  0
 24 20  1  1  0  0  0
 24 21  1  0  0  0  0
 26 25  1  0  0  0  0
 27 18  1  1  0  0  0
 27 19  1  0  0  0  0
 27 24  1  0  0  0  0
M  END
>  <MODEL>
8

>  <REMARK>
 VINA RESULT:      -6.6      2.718      5.198
  Name = 
  4 active torsions:
  status: ('A' for Active; 'I' for Inactive)
    1  A    between atoms: O_2  and  C_6
    2  A    between atoms: O_2  and  C_9
    3  A    between atoms: C_3  and  C_14
    4  A    between atoms: C_3  and  C_26
                            x       y       z     vdW  Elec       q    Type
                         _______ _______ _______ _____ _____    ______ ____

>  <TORSDO>
F 4

$$$$
=
 OpenBabel11052418223D

 27 30  0  0  1  0  0  0  0  0999 V2000
  183.8490  178.1730  142.6610 N   0  0  0  0  0  2  0  0  0  0  0  0
  182.9760  177.7650  140.5100 N   0  0  0  0  0  2  0  0  0  0  0  0
  186.8460  177.4530  144.8070 C   0  0  1  0  0  3  0  0  0  0  0  0
  187.3100  177.5760  142.3210 C   0  0  0  0  0  3  0  0  0  0  0  0
  185.5110  178.6660  140.5570 S   0  0  0  0  0  0  0  0  0  0  0  0
  187.7290  176.9610  143.6350 C   0  0  2  0  0  3  0  0  0  0  0  0
  183.9010  178.2900  141.2410 C   0  0  0  0  0  0  0  0  0  0  0  0
  185.1430  178.3900  143.2770 C   0  0  2  0  0  3  0  0  0  0  0  0
  186.1390  178.2140  142.1670 C   0  0  0  0  0  0  0  0  0  0  0  0
  185.3720  177.4060  144.4190 C   0  0  0  0  0  2  0  0  0  0  0  0
  187.0670  176.7050  146.0000 O   0  0  0  0  0  0  0  0  0  0  0  0
  190.8810  175.9620  147.5980 C   0  0  0  0  0  3  0  0  0  0  0  0
  188.3380  176.4800  146.5390 C   0  0  0  0  0  0  0  0  0  0  0  0
  189.2510  177.5290  146.7350 C   0  0  0  0  0  3  0  0  0  0  0  0
  190.5190  177.2690  147.2620 C   0  0  0  0  0  3  0  0  0  0  0  0
  189.9750  174.9150  147.4070 C   0  0  0  0  0  3  0  0  0  0  0  0
  188.7070  175.1750  146.8800 C   0  0  0  0  0  3  0  0  0  0  0  0
  187.6940  175.4420  143.4830 C   0  0  0  0  0  2  0  0  0  0  0  0
  190.0700  174.6240  143.0480 C   0  0  0  0  0  0  0  0  0  0  0  0
  188.7690  173.6750  140.2550 C   0  0  0  0  0  1  0  0  0  0  0  0
  188.1290  172.4800  142.3800 C   0  0  0  0  0  2  0  0  0  0  0  0
  191.0280  174.5370  142.0370 O   0  0  0  0  0  1  0  0  0  0  0  0
  190.4550  175.6340  143.9330 O   0  0  0  0  0  1  0  0  0  0  0  0
  188.0990  173.8050  141.6130 C   0  0  1  0  0  3  0  0  0  0  0  0
  189.5260  172.1670  142.9070 C   0  0  0  0  0  2  0  0  0  0  0  0
  190.0120  173.2970  143.8090 C   0  0  0  0  0  2  0  0  0  0  0  0
  188.6960  174.9660  142.4300 C   0  0  1  0  0  3  0  0  0  0  0  0
  1  8  1  0  0  0  0
  2  7  2  0  0  0  0
  3 11  1  1  0  0  0
  4  6  1  0  0  0  0
  5  7  1  0  0  0  0
  5  9  1  0  0  0  0
  6 18  1  6  0  0  0
  6  3  1  0  0  0  0
  7  1  1  0  0  0  0
  8 10  1  1  0  0  0
  9  4  2  0  0  0  0
  9  8  1  0  0  0  0
 10  3  1  0  0  0  0
 11 13  1  0  0  0  0
 13 14  2  0  0  0  0
 13 17  1  0  0  0  0
 14 15  1  0  0  0  0
 15 12  2  0  0  0  0
 16 12  1  0  0  0  0
 17 16  2  0  0  0  0
 19 26  1  0  0  0  0
 19 23  1  0  0  0  0
 21 25  1  0  0  0  0
 22 19  1  0  0  0  0
 24 20  1  6  0  0  0
 24 21  1  0  0  0  0
 24 27  1  0  0  0  0
 25 26  1  0  0  0  0
 27 19  1  0  0  0  0
 27 18  1  1  0  0  0
M  END
>  <MODEL>
9

>  <REMARK>
 VINA RESULT:      -6.6      2.798      4.809
  Name = 
  4 active torsions:
  status: ('A' for Active; 'I' for Inactive)
    1  A    between atoms: O_2  and  C_6
    2  A    between atoms: O_2  and  C_9
    3  A    between atoms: C_3  and  C_14
    4  A    between atoms: C_3  and  C_26
                            x       y       z     vdW  Elec       q    Type
                         _______ _______ _______ _____ _____    ______ ____

>  <TORSDO>
F 4

$$$$
