=
 OpenBabel11052420573D

 43 48  0  0  1  0  0  0  0  0999 V2000
  189.9840  171.0290  136.3900 C   0  0  0  0  0  0  0  0  0  0  0  0
  190.4060  171.9720  141.3370 C   0  0  0  0  0  0  0  0  0  0  0  0
  189.0480  174.4570  141.7740 C   0  0  0  0  0  0  0  0  0  0  0  0
  190.4830  170.8830  138.7580 C   0  0  0  0  0  0  0  0  0  0  0  0
  189.4140  172.2910  136.5850 C   0  0  0  0  0  3  0  0  0  0  0  0
  190.0100  170.4800  135.1560 F   0  0  0  0  0  0  0  0  0  0  0  0
  189.9030  172.1580  138.9610 C   0  0  0  0  0  0  0  0  0  0  0  0
  190.5170  170.3270  137.4760 C   0  0  0  0  0  3  0  0  0  0  0  0
  189.3730  172.8530  137.8630 C   0  0  0  0  0  3  0  0  0  0  0  0
  189.2740  174.0320  140.5250 C   0  0  0  0  0  3  0  0  0  0  0  0
  189.8610  172.7000  140.2600 C   0  0  0  0  0  0  0  0  0  0  0  0
  190.9890  170.7210  141.1160 C   0  0  0  0  0  3  0  0  0  0  0  0
  190.4580  172.5830  142.7120 C   0  0  2  0  0  3  0  0  0  0  0  0
  189.2660  173.5220  142.9410 C   0  0  0  0  0  2  0  0  0  0  0  0
  191.0220  170.1760  139.8340 C   0  0  0  0  0  3  0  0  0  0  0  0
  188.5140  175.8080  142.0080 C   0  0  0  0  0  0  0  0  0  0  0  0
  187.0940  176.0150  142.0550 N   0  0  0  0  0  2  0  0  0  0  0  0
  189.3100  176.7720  142.1730 O   0  0  0  0  0  0  0  0  0  0  0  0
  186.3930  177.2680  142.0170 C   0  0  0  0  0  0  0  0  0  0  0  0
  185.8630  177.9290  140.6130 S   0  0  0  0  0  0  0  0  0  0  0  0
  186.0980  177.9840  143.2930 C   0  0  2  0  0  3  0  0  0  0  0  0
  185.3570  177.0560  144.2550 C   0  0  0  0  0  2  0  0  0  0  0  0
  184.5280  179.2230  145.3130 C   0  0  0  0  0  2  0  0  0  0  0  0
  185.3280  179.1340  143.0470 O   0  0  0  0  0  0  0  0  0  0  0  0
  185.0180  177.7910  145.5590 C   0  0  2  0  0  3  0  0  0  0  0  0
  185.3640  179.8980  144.2260 C   0  0  0  0  0  2  0  0  0  0  0  0
  186.1380  177.7120  146.6000 C   0  0  0  0  0  2  0  0  0  0  0  0
  186.8840  176.3840  146.5790 C   0  0  0  0  0  2  0  0  0  0  0  0
  188.2920  176.6060  146.8580 N   0  0  0  0  0  0  0  0  0  0  0  0
  190.4090  175.3600  147.1650 C   0  0  0  0  0  2  0  0  0  0  0  0
  190.4350  177.0890  145.7110 C   0  0  0  0  0  2  0  0  0  0  0  0
  190.8620  176.6840  146.9900 O   0  0  0  0  0  0  0  0  0  0  0  0
  188.8980  177.1410  145.6350 C   0  0  0  0  0  2  0  0  0  0  0  0
  188.8710  175.2940  147.1630 C   0  0  0  0  0  2  0  0  0  0  0  0
  191.6530  173.2980  142.8660 O   0  0  0  0  0  0  0  0  0  0  0  0
  194.1630  173.8960  144.6340 N   0  0  0  0  0  0  0  0  0  0  0  0
  192.7290  172.0900  144.5910 C   0  0  0  0  0  2  0  0  0  0  0  0
  192.8200  174.4450  144.5800 C   0  0  0  0  0  2  0  0  0  0  0  0
  191.9050  173.3010  144.2410 C   0  0  1  0  0  3  0  0  0  0  0  0
  194.0290  172.5590  145.0540 N   0  0  0  0  0  2  0  0  0  0  0  0
  194.8700  174.6080  145.6860 C   0  0  0  0  0  2  0  0  0  0  0  0
  194.3200  176.8620  146.5890 C   0  0  0  0  0  1  0  0  0  0  0  0
  194.8780  176.0990  145.4000 C   0  0  0  0  0  2  0  0  0  0  0  0
  1  5  2  0  0  0  0
  1  8  1  0  0  0  0
  2 13  1  0  0  0  0
  3 16  1  0  0  0  0
  3 14  1  0  0  0  0
  4  7  1  0  0  0  0
  4 15  1  0  0  0  0
  5  9  1  0  0  0  0
  6  1  1  0  0  0  0
  7 11  1  0  0  0  0
  8  4  2  0  0  0  0
  9  7  2  0  0  0  0
 10  3  2  0  0  0  0
 11 10  1  0  0  0  0
 11  2  2  0  0  0  0
 12  2  1  0  0  0  0
 13 35  1  6  0  0  0
 13 14  1  0  0  0  0
 15 12  2  0  0  0  0
 16 17  1  0  0  0  0
 16 18  2  0  0  0  0
 19 17  1  0  0  0  0
 20 19  2  0  0  0  0
 21 19  1  6  0  0  0
 21 22  1  0  0  0  0
 22 25  1  0  0  0  0
 23 25  1  0  0  0  0
 24 21  1  0  0  0  0
 24 26  1  0  0  0  0
 25 27  1  1  0  0  0
 26 23  1  0  0  0  0
 28 27  1  0  0  0  0
 28 29  1  0  0  0  0
 29 34  1  0  0  0  0
 31 32  1  0  0  0  0
 32 30  1  0  0  0  0
 33 31  1  0  0  0  0
 33 29  1  0  0  0  0
 34 30  1  0  0  0  0
 36 40  1  0  0  0  0
 36 41  1  0  0  0  0
 37 40  1  0  0  0  0
 38 36  1  0  0  0  0
 39 35  1  6  0  0  0
 39 38  1  0  0  0  0
 39 37  1  0  0  0  0
 43 41  1  0  0  0  0
 43 42  1  0  0  0  0
M  END
>  <MODEL>
1

>  <REMARK>
 VINA RESULT:      -7.9      0.000      0.000
  Name = 
  10 active torsions:
  status: ('A' for Active; 'I' for Inactive)
    1  A    between atoms: O_1  and  C_34
    2  A    between atoms: O_1  and  C_35
    3  A    between atoms: C_2  and  C_13
    4  A    between atoms: C_3  and  C_12
    5  A    between atoms: N_6  and  C_12
    6  A    between atoms: C_9  and  N_19
    7  A    between atoms: C_9  and  C_37
    8  A    between atoms: N_11  and  C_14
    9  A    between atoms: C_14  and  C_41
   10  A    between atoms: C_22  and  C_41
                            x       y       z     vdW  Elec       q    Type
                         _______ _______ _______ _____ _____    ______ ____

>  <TORSDO>
F 10

$$$$
=
 OpenBabel11052420573D

 43 48  0  0  1  0  0  0  0  0999 V2000
  185.3290  177.9670  147.1340 C   0  0  0  0  0  0  0  0  0  0  0  0
  189.7970  176.6740  145.1570 C   0  0  0  0  0  0  0  0  0  0  0  0
  189.2150  175.5820  142.5720 C   0  0  0  0  0  0  0  0  0  0  0  0
  187.6980  177.6220  146.7500 C   0  0  0  0  0  0  0  0  0  0  0  0
  185.0380  177.3380  145.9200 C   0  0  0  0  0  3  0  0  0  0  0  0
  184.3300  178.4490  147.9050 F   0  0  0  0  0  0  0  0  0  0  0  0
  187.4080  176.9900  145.5170 C   0  0  0  0  0  0  0  0  0  0  0  0
  186.6580  178.1090  147.5470 C   0  0  0  0  0  3  0  0  0  0  0  0
  186.0710  176.8520  145.1150 C   0  0  0  0  0  3  0  0  0  0  0  0
  188.2170  175.8420  143.4240 C   0  0  0  0  0  3  0  0  0  0  0  0
  188.4660  176.5190  144.7160 C   0  0  0  0  0  0  0  0  0  0  0  0
  190.0640  177.2870  146.3830 C   0  0  0  0  0  3  0  0  0  0  0  0
  190.9290  176.0850  144.3570 C   0  0  2  0  0  3  0  0  0  0  0  0
  190.6070  176.0970  142.8570 C   0  0  0  0  0  2  0  0  0  0  0  0
  189.0200  177.7650  147.1740 C   0  0  0  0  0  3  0  0  0  0  0  0
  188.9460  174.8590  141.3180 C   0  0  0  0  0  0  0  0  0  0  0  0
  189.6200  173.6190  141.0510 N   0  0  0  0  0  2  0  0  0  0  0  0
  188.1190  175.3320  140.4920 O   0  0  0  0  0  0  0  0  0  0  0  0
  189.6830  172.9120  139.8030 C   0  0  0  0  0  0  0  0  0  0  0  0
  188.3480  172.6210  138.8970 S   0  0  0  0  0  0  0  0  0  0  0  0
  191.0050  172.4540  139.2840 C   0  0  2  0  0  3  0  0  0  0  0  0
  191.4270  173.3170  138.0940 C   0  0  0  0  0  2  0  0  0  0  0  0
  192.8640  171.3060  137.4660 C   0  0  0  0  0  2  0  0  0  0  0  0
  190.9440  171.1040  138.9000 O   0  0  0  0  0  0  0  0  0  0  0  0
  192.7710  172.8340  137.5300 C   0  0  2  0  0  3  0  0  0  0  0  0
  192.2720  170.6770  138.7270 C   0  0  0  0  0  2  0  0  0  0  0  0
  193.9760  173.4790  138.2190 C   0  0  0  0  0  2  0  0  0  0  0  0
  193.7780  174.9600  138.5130 C   0  0  0  0  0  2  0  0  0  0  0  0
  194.6440  175.3660  139.6070 N   0  0  0  0  0  0  0  0  0  0  0  0
  195.3960  174.6130  141.8420 C   0  0  0  0  0  2  0  0  0  0  0  0
  196.9980  175.2120  140.3660 C   0  0  0  0  0  2  0  0  0  0  0  0
  196.3300  175.6230  141.5350 O   0  0  0  0  0  0  0  0  0  0  0  0
  196.0260  175.1400  139.1730 C   0  0  0  0  0  2  0  0  0  0  0  0
  194.3310  174.4870  140.7370 C   0  0  0  0  0  2  0  0  0  0  0  0
  191.1680  174.7700  144.7740 O   0  0  0  0  0  0  0  0  0  0  0  0
  193.5270  172.9010  145.6260 N   0  0  0  0  0  0  0  0  0  0  0  0
  193.5000  175.1100  144.9600 C   0  0  0  0  0  2  0  0  0  0  0  0
  192.6670  172.9620  144.4580 C   0  0  0  0  0  2  0  0  0  0  0  0
  192.3950  174.4200  144.2050 C   0  0  1  0  0  3  0  0  0  0  0  0
  194.2970  174.0790  145.6160 N   0  0  0  0  0  2  0  0  0  0  0  0
  194.4410  171.7890  145.4230 C   0  0  0  0  0  2  0  0  0  0  0  0
  196.8370  171.4300  145.9970 C   0  0  0  0  0  1  0  0  0  0  0  0
  195.8580  172.3000  145.2290 C   0  0  0  0  0  2  0  0  0  0  0  0
  1  8  1  0  0  0  0
  1  6  1  0  0  0  0
  2 12  1  0  0  0  0
  3 14  1  0  0  0  0
  3 10  2  0  0  0  0
  4 15  1  0  0  0  0
  4  8  2  0  0  0  0
  5  1  2  0  0  0  0
  7  4  1  0  0  0  0
  9  7  2  0  0  0  0
  9  5  1  0  0  0  0
 10 11  1  0  0  0  0
 11  2  2  0  0  0  0
 11  7  1  0  0  0  0
 12 15  2  0  0  0  0
 13 35  1  1  0  0  0
 13  2  1  0  0  0  0
 14 13  1  0  0  0  0
 16  3  1  0  0  0  0
 17 16  1  0  0  0  0
 18 16  2  0  0  0  0
 19 17  1  0  0  0  0
 20 19  2  0  0  0  0
 21 19  1  6  0  0  0
 22 21  1  0  0  0  0
 23 25  1  0  0  0  0
 23 26  1  0  0  0  0
 24 21  1  0  0  0  0
 25 22  1  0  0  0  0
 25 27  1  1  0  0  0
 26 24  1  0  0  0  0
 27 28  1  0  0  0  0
 28 29  1  0  0  0  0
 29 34  1  0  0  0  0
 31 32  1  0  0  0  0
 32 30  1  0  0  0  0
 33 29  1  0  0  0  0
 33 31  1  0  0  0  0
 34 30  1  0  0  0  0
 37 40  1  0  0  0  0
 38 36  1  0  0  0  0
 39 38  1  0  0  0  0
 39 35  1  1  0  0  0
 39 37  1  0  0  0  0
 40 36  1  0  0  0  0
 41 36  1  0  0  0  0
 43 41  1  0  0  0  0
 43 42  1  0  0  0  0
M  END
>  <MODEL>
2

>  <REMARK>
 VINA RESULT:      -7.1      3.804      8.343
  Name = 
  10 active torsions:
  status: ('A' for Active; 'I' for Inactive)
    1  A    between atoms: O_1  and  C_34
    2  A    between atoms: O_1  and  C_35
    3  A    between atoms: C_2  and  C_13
    4  A    between atoms: C_3  and  C_12
    5  A    between atoms: N_6  and  C_12
    6  A    between atoms: C_9  and  N_19
    7  A    between atoms: C_9  and  C_37
    8  A    between atoms: N_11  and  C_14
    9  A    between atoms: C_14  and  C_41
   10  A    between atoms: C_22  and  C_41
                            x       y       z     vdW  Elec       q    Type
                         _______ _______ _______ _____ _____    ______ ____

>  <TORSDO>
F 10

$$$$
=
 OpenBabel11052420573D

 43 48  0  0  1  0  0  0  0  0999 V2000
  186.7840  177.9650  145.9750 C   0  0  0  0  0  0  0  0  0  0  0  0
  188.5940  174.6250  142.6420 C   0  0  0  0  0  0  0  0  0  0  0  0
  190.7990  173.3420  143.9460 C   0  0  0  0  0  0  0  0  0  0  0  0
  187.1320  176.5780  144.0170 C   0  0  0  0  0  0  0  0  0  0  0  0
  187.9230  177.4150  146.5710 C   0  0  0  0  0  3  0  0  0  0  0  0
  186.0560  178.8920  146.6330 F   0  0  0  0  0  0  0  0  0  0  0  0
  188.2830  176.0140  144.6180 C   0  0  0  0  0  0  0  0  0  0  0  0
  186.3900  177.5460  144.7000 C   0  0  0  0  0  3  0  0  0  0  0  0
  188.6690  176.4450  145.8970 C   0  0  0  0  0  3  0  0  0  0  0  0
  190.2270  174.4150  144.5050 C   0  0  0  0  0  3  0  0  0  0  0  0
  189.0130  175.0290  143.9260 C   0  0  0  0  0  0  0  0  0  0  0  0
  187.4640  175.2030  142.0570 C   0  0  0  0  0  3  0  0  0  0  0  0
  189.4220  173.6470  141.8510 C   0  0  2  0  0  3  0  0  0  0  0  0
  190.1320  172.6520  142.7790 C   0  0  0  0  0  2  0  0  0  0  0  0
  186.7330  176.1710  142.7430 C   0  0  0  0  0  3  0  0  0  0  0  0
  192.0380  172.7860  144.5140 C   0  0  0  0  0  0  0  0  0  0  0  0
  192.7000  171.6980  143.8510 N   0  0  0  0  0  2  0  0  0  0  0  0
  192.5120  173.2760  145.5750 O   0  0  0  0  0  0  0  0  0  0  0  0
  193.7520  170.8690  144.3700 C   0  0  0  0  0  0  0  0  0  0  0  0
  193.5630  169.2550  144.5890 S   0  0  0  0  0  0  0  0  0  0  0  0
  195.0770  171.4770  144.6910 C   0  0  2  0  0  3  0  0  0  0  0  0
  195.5230  172.3910  143.5490 C   0  0  0  0  0  2  0  0  0  0  0  0
  197.8660  171.9780  144.4680 C   0  0  0  0  0  2  0  0  0  0  0  0
  196.0390  170.4770  144.9100 O   0  0  0  0  0  0  0  0  0  0  0  0
  196.9000  172.9960  143.8520 C   0  0  2  0  0  3  0  0  0  0  0  0
  197.1460  171.1100  145.5010 C   0  0  0  0  0  2  0  0  0  0  0  0
  196.8190  174.3010  144.6480 C   0  0  0  0  0  2  0  0  0  0  0  0
  196.6640  175.5340  143.7670 C   0  0  0  0  0  2  0  0  0  0  0  0
  195.5120  176.3060  144.1990 N   0  0  0  0  0  0  0  0  0  0  0  0
  193.0620  176.4520  143.8700 C   0  0  0  0  0  2  0  0  0  0  0  0
  193.8120  176.3960  146.0000 C   0  0  0  0  0  2  0  0  0  0  0  0
  193.2580  177.2430  145.0200 O   0  0  0  0  0  0  0  0  0  0  0  0
  195.2040  175.8960  145.5730 C   0  0  0  0  0  2  0  0  0  0  0  0
  194.4030  175.9380  143.3140 C   0  0  0  0  0  2  0  0  0  0  0  0
  190.3740  174.3390  141.0920 O   0  0  0  0  0  0  0  0  0  0  0  0
  192.9190  174.3440  139.2730 N   0  0  0  0  0  0  0  0  0  0  0  0
  190.8230  173.4350  138.9540 C   0  0  0  0  0  2  0  0  0  0  0  0
  192.5740  173.6730  140.5140 C   0  0  0  0  0  2  0  0  0  0  0  0
  191.1080  173.3500  140.4300 C   0  0  1  0  0  3  0  0  0  0  0  0
  192.0600  173.8220  138.2870 N   0  0  0  0  0  2  0  0  0  0  0  0
  194.2690  173.9300  138.9290 C   0  0  0  0  0  2  0  0  0  0  0  0
  196.1130  175.1380  140.0880 C   0  0  0  0  0  1  0  0  0  0  0  0
  195.1590  173.9590  140.1600 C   0  0  0  0  0  2  0  0  0  0  0  0
  1  5  1  0  0  0  0
  1  6  1  0  0  0  0
  2 11  1  0  0  0  0
  3 10  2  0  0  0  0
  3 16  1  0  0  0  0
  4  7  1  0  0  0  0
  4  8  1  0  0  0  0
  7  9  1  0  0  0  0
  8  1  2  0  0  0  0
  9  5  2  0  0  0  0
 11 10  1  0  0  0  0
 11  7  2  0  0  0  0
 12  2  2  0  0  0  0
 12 15  1  0  0  0  0
 13 35  1  1  0  0  0
 13  2  1  0  0  0  0
 13 14  1  0  0  0  0
 14  3  1  0  0  0  0
 15  4  2  0  0  0  0
 16 18  2  0  0  0  0
 17 19  1  0  0  0  0
 17 16  1  0  0  0  0
 19 20  2  0  0  0  0
 21 19  1  6  0  0  0
 21 24  1  0  0  0  0
 22 25  1  0  0  0  0
 22 21  1  0  0  0  0
 23 26  1  0  0  0  0
 24 26  1  0  0  0  0
 25 23  1  0  0  0  0
 25 27  1  1  0  0  0
 28 29  1  0  0  0  0
 28 27  1  0  0  0  0
 29 33  1  0  0  0  0
 30 32  1  0  0  0  0
 32 31  1  0  0  0  0
 33 31  1  0  0  0  0
 34 30  1  0  0  0  0
 34 29  1  0  0  0  0
 36 38  1  0  0  0  0
 37 39  1  0  0  0  0
 39 38  1  0  0  0  0
 39 35  1  1  0  0  0
 40 37  1  0  0  0  0
 40 36  1  0  0  0  0
 41 36  1  0  0  0  0
 41 43  1  0  0  0  0
 42 43  1  0  0  0  0
M  END
>  <MODEL>
3

>  <REMARK>
 VINA RESULT:      -7.1      4.062      8.499
  Name = 
  10 active torsions:
  status: ('A' for Active; 'I' for Inactive)
    1  A    between atoms: O_1  and  C_34
    2  A    between atoms: O_1  and  C_35
    3  A    between atoms: C_2  and  C_13
    4  A    between atoms: C_3  and  C_12
    5  A    between atoms: N_6  and  C_12
    6  A    between atoms: C_9  and  N_19
    7  A    between atoms: C_9  and  C_37
    8  A    between atoms: N_11  and  C_14
    9  A    between atoms: C_14  and  C_41
   10  A    between atoms: C_22  and  C_41
                            x       y       z     vdW  Elec       q    Type
                         _______ _______ _______ _____ _____    ______ ____

>  <TORSDO>
F 10

$$$$
=
 OpenBabel11052420573D

 43 48  0  0  1  0  0  0  0  0999 V2000
  189.3610  177.4190  146.8410 C   0  0  0  0  0  0  0  0  0  0  0  0
  188.3610  174.6140  142.7580 C   0  0  0  0  0  0  0  0  0  0  0  0
  190.2020  172.4200  142.8520 C   0  0  0  0  0  0  0  0  0  0  0  0
  188.3940  176.5230  144.8060 C   0  0  0  0  0  0  0  0  0  0  0  0
  190.3270  176.4090  146.8300 C   0  0  0  0  0  3  0  0  0  0  0  0
  189.3490  178.3350  147.8330 F   0  0  0  0  0  0  0  0  0  0  0  0
  189.3670  175.4950  144.7940 C   0  0  0  0  0  0  0  0  0  0  0  0
  188.3950  177.4750  145.8300 C   0  0  0  0  0  3  0  0  0  0  0  0
  190.3310  175.4520  145.8130 C   0  0  0  0  0  3  0  0  0  0  0  0
  190.3440  173.4450  143.7010 C   0  0  0  0  0  3  0  0  0  0  0  0
  189.3440  174.5340  143.7650 C   0  0  0  0  0  0  0  0  0  0  0  0
  187.4170  175.6440  142.7770 C   0  0  0  0  0  3  0  0  0  0  0  0
  188.3880  173.6520  141.5990 C   0  0  2  0  0  3  0  0  0  0  0  0
  188.9410  172.2870  142.0310 C   0  0  0  0  0  2  0  0  0  0  0  0
  187.4290  176.5910  143.8000 C   0  0  0  0  0  3  0  0  0  0  0  0
  191.2410  171.3800  142.7720 C   0  0  0  0  0  0  0  0  0  0  0  0
  191.8040  170.8400  143.9780 N   0  0  0  0  0  2  0  0  0  0  0  0
  191.6210  170.9660  141.6430 O   0  0  0  0  0  0  0  0  0  0  0  0
  192.9800  170.0250  144.1030 C   0  0  0  0  0  0  0  0  0  0  0  0
  193.1150  168.5710  143.3570 S   0  0  0  0  0  0  0  0  0  0  0  0
  194.1370  170.5210  144.9040 C   0  0  2  0  0  3  0  0  0  0  0  0
  195.1300  171.2450  143.9940 C   0  0  0  0  0  2  0  0  0  0  0  0
  196.8220  170.6930  145.8210 C   0  0  0  0  0  2  0  0  0  0  0  0
  194.7760  169.4550  145.5600 O   0  0  0  0  0  0  0  0  0  0  0  0
  196.3420  171.7310  144.8010 C   0  0  2  0  0  3  0  0  0  0  0  0
  195.6310  170.0310  146.5160 C   0  0  0  0  0  2  0  0  0  0  0  0
  196.1370  173.1200  145.4130 C   0  0  0  0  0  2  0  0  0  0  0  0
  196.4760  174.2540  144.4540 C   0  0  0  0  0  2  0  0  0  0  0  0
  195.6690  175.4210  144.7660 N   0  0  0  0  0  0  0  0  0  0  0  0
  193.4630  176.4230  144.2560 C   0  0  0  0  0  2  0  0  0  0  0  0
  194.0340  176.2490  146.4340 C   0  0  0  0  0  2  0  0  0  0  0  0
  193.8790  177.1670  145.3780 O   0  0  0  0  0  0  0  0  0  0  0  0
  195.1650  175.2480  146.1320 C   0  0  0  0  0  2  0  0  0  0  0  0
  194.5470  175.4190  143.8220 C   0  0  0  0  0  2  0  0  0  0  0  0
  189.1820  174.1740  140.5710 O   0  0  0  0  0  0  0  0  0  0  0  0
  190.3730  173.9940  137.6840 N   0  0  0  0  0  0  0  0  0  0  0  0
  188.1920  173.9540  138.4350 C   0  0  0  0  0  2  0  0  0  0  0  0
  190.3500  173.0870  138.8180 C   0  0  0  0  0  2  0  0  0  0  0  0
  189.0250  173.2900  139.4990 C   0  0  1  0  0  3  0  0  0  0  0  0
  189.0370  174.1340  137.2610 N   0  0  0  0  0  2  0  0  0  0  0  0
  191.0920  173.3190  136.6160 C   0  0  0  0  0  2  0  0  0  0  0  0
  190.1730  171.2990  135.4870 C   0  0  0  0  0  1  0  0  0  0  0  0
  190.8970  171.8160  136.7170 C   0  0  0  0  0  2  0  0  0  0  0  0
  1  6  1  0  0  0  0
  2 12  2  0  0  0  0
  2 11  1  0  0  0  0
  3 10  2  0  0  0  0
  4  8  1  0  0  0  0
  5  1  1  0  0  0  0
  7  4  1  0  0  0  0
  7  9  1  0  0  0  0
  8  1  2  0  0  0  0
  9  5  2  0  0  0  0
 10 11  1  0  0  0  0
 11  7  2  0  0  0  0
 12 15  1  0  0  0  0
 13 35  1  6  0  0  0
 13 14  1  0  0  0  0
 13  2  1  0  0  0  0
 14  3  1  0  0  0  0
 15  4  2  0  0  0  0
 16  3  1  0  0  0  0
 16 17  1  0  0  0  0
 17 19  1  0  0  0  0
 18 16  2  0  0  0  0
 20 19  2  0  0  0  0
 21 19  1  6  0  0  0
 21 24  1  0  0  0  0
 22 25  1  0  0  0  0
 22 21  1  0  0  0  0
 23 26  1  0  0  0  0
 24 26  1  0  0  0  0
 25 27  1  1  0  0  0
 25 23  1  0  0  0  0
 28 29  1  0  0  0  0
 28 27  1  0  0  0  0
 29 33  1  0  0  0  0
 30 32  1  0  0  0  0
 32 31  1  0  0  0  0
 33 31  1  0  0  0  0
 34 30  1  0  0  0  0
 34 29  1  0  0  0  0
 36 38  1  0  0  0  0
 37 39  1  0  0  0  0
 38 39  1  0  0  0  0
 39 35  1  1  0  0  0
 40 36  1  0  0  0  0
 40 37  1  0  0  0  0
 41 43  1  0  0  0  0
 41 36  1  0  0  0  0
 42 43  1  0  0  0  0
M  END
>  <MODEL>
4

>  <REMARK>
 VINA RESULT:      -7.0      3.939      8.989
  Name = 
  10 active torsions:
  status: ('A' for Active; 'I' for Inactive)
    1  A    between atoms: O_1  and  C_34
    2  A    between atoms: O_1  and  C_35
    3  A    between atoms: C_2  and  C_13
    4  A    between atoms: C_3  and  C_12
    5  A    between atoms: N_6  and  C_12
    6  A    between atoms: C_9  and  N_19
    7  A    between atoms: C_9  and  C_37
    8  A    between atoms: N_11  and  C_14
    9  A    between atoms: C_14  and  C_41
   10  A    between atoms: C_22  and  C_41
                            x       y       z     vdW  Elec       q    Type
                         _______ _______ _______ _____ _____    ______ ____

>  <TORSDO>
F 10

$$$$
=
 OpenBabel11052420573D

 43 48  0  0  1  0  0  0  0  0999 V2000
  185.5660  177.9000  146.9280 C   0  0  0  0  0  0  0  0  0  0  0  0
  189.9030  176.3080  144.8780 C   0  0  0  0  0  0  0  0  0  0  0  0
  189.1710  174.9680  142.4530 C   0  0  0  0  0  0  0  0  0  0  0  0
  187.9060  177.4630  146.4650 C   0  0  0  0  0  0  0  0  0  0  0  0
  185.2020  177.1560  145.8020 C   0  0  0  0  0  3  0  0  0  0  0  0
  184.6170  178.4810  147.6920 F   0  0  0  0  0  0  0  0  0  0  0  0
  187.5420  176.7140  145.3210 C   0  0  0  0  0  0  0  0  0  0  0  0
  186.9170  178.0530  147.2580 C   0  0  0  0  0  3  0  0  0  0  0  0
  186.1830  176.5660  145.0020 C   0  0  0  0  0  3  0  0  0  0  0  0
  188.2220  175.3380  143.3220 C   0  0  0  0  0  3  0  0  0  0  0  0
  188.5490  176.1390  144.5220 C   0  0  0  0  0  0  0  0  0  0  0  0
  190.2430  177.0390  146.0200 C   0  0  0  0  0  3  0  0  0  0  0  0
  190.9830  175.6140  144.0900 C   0  0  2  0  0  3  0  0  0  0  0  0
  190.5840  175.4780  142.6150 C   0  0  0  0  0  2  0  0  0  0  0  0
  189.2500  177.6190  146.8070 C   0  0  0  0  0  3  0  0  0  0  0  0
  188.8250  174.1260  141.2970 C   0  0  0  0  0  0  0  0  0  0  0  0
  189.6420  174.1640  140.1170 N   0  0  0  0  0  2  0  0  0  0  0  0
  187.8150  173.3730  141.3550 O   0  0  0  0  0  0  0  0  0  0  0  0
  189.3330  173.6240  138.8230 C   0  0  0  0  0  0  0  0  0  0  0  0
  188.1550  174.2560  137.8740 S   0  0  0  0  0  0  0  0  0  0  0  0
  190.1250  172.4740  138.2970 C   0  0  2  0  0  3  0  0  0  0  0  0
  191.5660  172.9100  138.0310 C   0  0  0  0  0  2  0  0  0  0  0  0
  191.6010  170.9360  136.4170 C   0  0  0  0  0  2  0  0  0  0  0  0
  189.5490  171.9760  137.1160 O   0  0  0  0  0  0  0  0  0  0  0  0
  192.3840  171.7440  137.4590 C   0  0  2  0  0  3  0  0  0  0  0  0
  190.1550  170.7320  136.8700 C   0  0  0  0  0  2  0  0  0  0  0  0
  193.0190  170.8680  138.5420 C   0  0  0  0  0  2  0  0  0  0  0  0
  193.3800  171.6410  139.8030 C   0  0  0  0  0  2  0  0  0  0  0  0
  192.7670  171.0110  140.9600 N   0  0  0  0  0  0  0  0  0  0  0  0
  191.0110  171.4100  142.6590 C   0  0  0  0  0  2  0  0  0  0  0  0
  190.9540  169.4340  141.5660 C   0  0  0  0  0  2  0  0  0  0  0  0
  191.2610  170.0300  142.8040 O   0  0  0  0  0  0  0  0  0  0  0  0
  191.9030  169.9360  140.4630 C   0  0  0  0  0  2  0  0  0  0  0  0
  191.9500  172.0380  141.6130 C   0  0  0  0  0  2  0  0  0  0  0  0
  191.2190  174.3440  144.6300 O   0  0  0  0  0  0  0  0  0  0  0  0
  194.1310  174.0620  143.5250 N   0  0  0  0  0  0  0  0  0  0  0  0
  193.0680  173.0280  145.2910 C   0  0  0  0  0  2  0  0  0  0  0  0
  193.4280  175.1090  144.2450 C   0  0  0  0  0  2  0  0  0  0  0  0
  192.4940  174.4160  145.1980 C   0  0  1  0  0  3  0  0  0  0  0  0
  194.2250  172.9680  144.4040 N   0  0  0  0  0  2  0  0  0  0  0  0
  195.4840  174.5420  143.2920 C   0  0  0  0  0  2  0  0  0  0  0  0
  196.5310  176.7910  143.5060 C   0  0  0  0  0  1  0  0  0  0  0  0
  195.8110  175.6780  144.2460 C   0  0  0  0  0  2  0  0  0  0  0  0
  1  8  1  0  0  0  0
  1  6  1  0  0  0  0
  2 12  1  0  0  0  0
  3 14  1  0  0  0  0
  3 10  2  0  0  0  0
  4 15  1  0  0  0  0
  4  8  2  0  0  0  0
  5  1  2  0  0  0  0
  7  4  1  0  0  0  0
  9  7  2  0  0  0  0
  9  5  1  0  0  0  0
 10 11  1  0  0  0  0
 11  2  2  0  0  0  0
 11  7  1  0  0  0  0
 12 15  2  0  0  0  0
 13 35  1  1  0  0  0
 13  2  1  0  0  0  0
 14 13  1  0  0  0  0
 16 18  2  0  0  0  0
 16  3  1  0  0  0  0
 17 16  1  0  0  0  0
 19 17  1  0  0  0  0
 20 19  2  0  0  0  0
 21 19  1  6  0  0  0
 22 21  1  0  0  0  0
 23 26  1  0  0  0  0
 23 25  1  0  0  0  0
 24 21  1  0  0  0  0
 25 22  1  0  0  0  0
 25 27  1  1  0  0  0
 26 24  1  0  0  0  0
 27 28  1  0  0  0  0
 28 29  1  0  0  0  0
 29 34  1  0  0  0  0
 30 32  1  0  0  0  0
 31 32  1  0  0  0  0
 33 29  1  0  0  0  0
 33 31  1  0  0  0  0
 34 30  1  0  0  0  0
 36 38  1  0  0  0  0
 36 40  1  0  0  0  0
 38 39  1  0  0  0  0
 39 35  1  6  0  0  0
 39 37  1  0  0  0  0
 40 37  1  0  0  0  0
 41 36  1  0  0  0  0
 41 43  1  0  0  0  0
 42 43  1  0  0  0  0
M  END
>  <MODEL>
5

>  <REMARK>
 VINA RESULT:      -6.8      3.425      8.092
  Name = 
  10 active torsions:
  status: ('A' for Active; 'I' for Inactive)
    1  A    between atoms: O_1  and  C_34
    2  A    between atoms: O_1  and  C_35
    3  A    between atoms: C_2  and  C_13
    4  A    between atoms: C_3  and  C_12
    5  A    between atoms: N_6  and  C_12
    6  A    between atoms: C_9  and  N_19
    7  A    between atoms: C_9  and  C_37
    8  A    between atoms: N_11  and  C_14
    9  A    between atoms: C_14  and  C_41
   10  A    between atoms: C_22  and  C_41
                            x       y       z     vdW  Elec       q    Type
                         _______ _______ _______ _____ _____    ______ ____

>  <TORSDO>
F 10

$$$$
=
 OpenBabel11052420573D

 43 48  0  0  1  0  0  0  0  0999 V2000
  185.5390  177.9300  147.1670 C   0  0  0  0  0  0  0  0  0  0  0  0
  189.8470  176.4210  144.9980 C   0  0  0  0  0  0  0  0  0  0  0  0
  189.0740  175.0540  142.6010 C   0  0  0  0  0  0  0  0  0  0  0  0
  187.8730  177.5420  146.6380 C   0  0  0  0  0  0  0  0  0  0  0  0
  185.1580  177.1740  146.0550 C   0  0  0  0  0  3  0  0  0  0  0  0
  184.6000  178.4960  147.9560 F   0  0  0  0  0  0  0  0  0  0  0  0
  187.4920  176.7790  145.5080 C   0  0  0  0  0  0  0  0  0  0  0  0
  186.8950  178.1140  147.4560 C   0  0  0  0  0  3  0  0  0  0  0  0
  186.1280  176.6010  145.2290 C   0  0  0  0  0  3  0  0  0  0  0  0
  188.1430  175.4090  143.4960 C   0  0  0  0  0  3  0  0  0  0  0  0
  188.4870  176.2210  144.6820 C   0  0  0  0  0  0  0  0  0  0  0  0
  190.2050  177.1640  146.1260 C   0  0  0  0  0  3  0  0  0  0  0  0
  190.9180  175.7470  144.1810 C   0  0  2  0  0  3  0  0  0  0  0  0
  190.4800  175.5950  142.7190 C   0  0  0  0  0  2  0  0  0  0  0  0
  189.2230  177.7280  146.9390 C   0  0  0  0  0  3  0  0  0  0  0  0
  188.7120  174.2000  141.4590 C   0  0  0  0  0  0  0  0  0  0  0  0
  189.4130  174.3390  140.2130 N   0  0  0  0  0  2  0  0  0  0  0  0
  187.7930  173.3460  141.5870 O   0  0  0  0  0  0  0  0  0  0  0  0
  189.0450  173.7910  138.9380 C   0  0  0  0  0  0  0  0  0  0  0  0
  187.8980  174.4810  137.9910 S   0  0  0  0  0  0  0  0  0  0  0  0
  189.7460  172.5760  138.4300 C   0  0  2  0  0  3  0  0  0  0  0  0
  189.3300  172.2960  136.9860 C   0  0  0  0  0  2  0  0  0  0  0  0
  190.0480  169.9050  137.5040 C   0  0  0  0  0  2  0  0  0  0  0  0
  189.4530  171.4630  139.2370 O   0  0  0  0  0  0  0  0  0  0  0  0
  190.0200  171.0290  136.4630 C   0  0  2  0  0  3  0  0  0  0  0  0
  190.3770  170.4630  138.8890 C   0  0  0  0  0  2  0  0  0  0  0  0
  191.3920  171.3060  135.8440 C   0  0  0  0  0  2  0  0  0  0  0  0
  191.5060  172.6970  135.2330 C   0  0  0  0  0  2  0  0  0  0  0  0
  192.5940  173.4240  135.8650 N   0  0  0  0  0  0  0  0  0  0  0  0
  194.6150  174.7350  135.2950 C   0  0  0  0  0  2  0  0  0  0  0  0
  193.1590  175.6700  136.7470 C   0  0  0  0  0  2  0  0  0  0  0  0
  194.4230  175.0560  136.6540 O   0  0  0  0  0  0  0  0  0  0  0  0
  192.0380  174.6840  136.3700 C   0  0  0  0  0  2  0  0  0  0  0  0
  193.5770  173.7040  134.8150 C   0  0  0  0  0  2  0  0  0  0  0  0
  191.1970  174.4840  144.7190 O   0  0  0  0  0  0  0  0  0  0  0  0
  194.0660  174.1180  143.5280 N   0  0  0  0  0  0  0  0  0  0  0  0
  193.0640  173.1980  145.3910 C   0  0  0  0  0  2  0  0  0  0  0  0
  193.3950  175.2100  144.2100 C   0  0  0  0  0  2  0  0  0  0  0  0
  192.4930  174.5820  145.2350 C   0  0  1  0  0  3  0  0  0  0  0  0
  194.1860  173.0770  144.4680 N   0  0  0  0  0  2  0  0  0  0  0  0
  195.4110  174.5740  143.2180 C   0  0  0  0  0  2  0  0  0  0  0  0
  196.7470  176.6740  143.1550 C   0  0  0  0  0  1  0  0  0  0  0  0
  195.3970  176.0490  142.8550 C   0  0  0  0  0  2  0  0  0  0  0  0
  1  8  1  0  0  0  0
  1  6  1  0  0  0  0
  2 12  1  0  0  0  0
  3 14  1  0  0  0  0
  3 10  2  0  0  0  0
  4 15  1  0  0  0  0
  4  8  2  0  0  0  0
  5  1  2  0  0  0  0
  7  4  1  0  0  0  0
  9  7  2  0  0  0  0
  9  5  1  0  0  0  0
 10 11  1  0  0  0  0
 11  2  2  0  0  0  0
 11  7  1  0  0  0  0
 12 15  2  0  0  0  0
 13 35  1  1  0  0  0
 13  2  1  0  0  0  0
 14 13  1  0  0  0  0
 16 18  2  0  0  0  0
 16  3  1  0  0  0  0
 17 16  1  0  0  0  0
 19 17  1  0  0  0  0
 20 19  2  0  0  0  0
 21 19  1  1  0  0  0
 21 24  1  0  0  0  0
 22 21  1  0  0  0  0
 23 26  1  0  0  0  0
 25 27  1  1  0  0  0
 25 22  1  0  0  0  0
 25 23  1  0  0  0  0
 26 24  1  0  0  0  0
 28 27  1  0  0  0  0
 28 29  1  0  0  0  0
 29 33  1  0  0  0  0
 30 32  1  0  0  0  0
 32 31  1  0  0  0  0
 33 31  1  0  0  0  0
 34 30  1  0  0  0  0
 34 29  1  0  0  0  0
 36 38  1  0  0  0  0
 36 40  1  0  0  0  0
 38 39  1  0  0  0  0
 39 35  1  6  0  0  0
 39 37  1  0  0  0  0
 40 37  1  0  0  0  0
 41 36  1  0  0  0  0
 43 42  1  0  0  0  0
 43 41  1  0  0  0  0
M  END
>  <MODEL>
6

>  <REMARK>
 VINA RESULT:      -6.7      3.787      8.732
  Name = 
  10 active torsions:
  status: ('A' for Active; 'I' for Inactive)
    1  A    between atoms: O_1  and  C_34
    2  A    between atoms: O_1  and  C_35
    3  A    between atoms: C_2  and  C_13
    4  A    between atoms: C_3  and  C_12
    5  A    between atoms: N_6  and  C_12
    6  A    between atoms: C_9  and  N_19
    7  A    between atoms: C_9  and  C_37
    8  A    between atoms: N_11  and  C_14
    9  A    between atoms: C_14  and  C_41
   10  A    between atoms: C_22  and  C_41
                            x       y       z     vdW  Elec       q    Type
                         _______ _______ _______ _____ _____    ______ ____

>  <TORSDO>
F 10

$$$$
=
 OpenBabel11052420573D

 43 48  0  0  1  0  0  0  0  0999 V2000
  186.2200  179.0530  143.8210 C   0  0  0  0  0  0  0  0  0  0  0  0
  188.0070  175.2040  141.0770 C   0  0  0  0  0  0  0  0  0  0  0  0
  189.4130  173.5210  142.9220 C   0  0  0  0  0  0  0  0  0  0  0  0
  186.7380  177.5160  142.0200 C   0  0  0  0  0  0  0  0  0  0  0  0
  186.9940  178.2890  144.7000 C   0  0  0  0  0  3  0  0  0  0  0  0
  185.5840  180.1590  144.2650 F   0  0  0  0  0  0  0  0  0  0  0  0
  187.5190  176.7360  142.9070 C   0  0  0  0  0  0  0  0  0  0  0  0
  186.0920  178.6660  142.4840 C   0  0  0  0  0  3  0  0  0  0  0  0
  187.6390  177.1370  144.2470 C   0  0  0  0  0  3  0  0  0  0  0  0
  188.9850  174.7280  143.3140 C   0  0  0  0  0  3  0  0  0  0  0  0
  188.1510  175.5720  142.4310 C   0  0  0  0  0  0  0  0  0  0  0  0
  187.2450  175.9940  140.2120 C   0  0  0  0  0  3  0  0  0  0  0  0
  188.7590  174.0180  140.5330 C   0  0  2  0  0  3  0  0  0  0  0  0
  188.9380  172.9400  141.6100 C   0  0  0  0  0  2  0  0  0  0  0  0
  186.6080  177.1410  140.6820 C   0  0  0  0  0  3  0  0  0  0  0  0
  190.2870  172.7270  143.8000 C   0  0  0  0  0  0  0  0  0  0  0  0
  191.6800  172.5860  143.4810 N   0  0  0  0  0  2  0  0  0  0  0  0
  189.8050  172.1820  144.8300 O   0  0  0  0  0  0  0  0  0  0  0  0
  192.6180  171.6640  144.0580 C   0  0  0  0  0  0  0  0  0  0  0  0
  192.4610  170.0400  143.8880 S   0  0  0  0  0  0  0  0  0  0  0  0
  193.7980  172.1880  144.8060 C   0  0  2  0  0  3  0  0  0  0  0  0
  194.2700  173.5030  144.1850 C   0  0  0  0  0  2  0  0  0  0  0  0
  196.5040  172.9250  145.2720 C   0  0  0  0  0  2  0  0  0  0  0  0
  194.8440  171.2500  144.7970 O   0  0  0  0  0  0  0  0  0  0  0  0
  195.5040  174.0350  144.9260 C   0  0  2  0  0  3  0  0  0  0  0  0
  195.7710  171.6760  145.7640 C   0  0  0  0  0  2  0  0  0  0  0  0
  195.1500  174.9160  146.1270 C   0  0  0  0  0  2  0  0  0  0  0  0
  194.9280  176.3760  145.7550 C   0  0  0  0  0  2  0  0  0  0  0  0
  193.5360  176.7330  145.9660 N   0  0  0  0  0  0  0  0  0  0  0  0
  191.3900  176.9100  144.7440 C   0  0  0  0  0  2  0  0  0  0  0  0
  191.3770  175.7470  146.6810 C   0  0  0  0  0  2  0  0  0  0  0  0
  190.9740  176.9600  146.0900 O   0  0  0  0  0  0  0  0  0  0  0  0
  192.9120  175.6290  146.7040 C   0  0  0  0  0  2  0  0  0  0  0  0
  192.9250  176.8470  144.6390 C   0  0  0  0  0  2  0  0  0  0  0  0
  190.0150  174.4280  140.0690 O   0  0  0  0  0  0  0  0  0  0  0  0
  192.2860  174.1770  137.9330 N   0  0  0  0  0  0  0  0  0  0  0  0
  190.0170  173.7800  137.7950 C   0  0  0  0  0  2  0  0  0  0  0  0
  191.9340  173.4150  139.1180 C   0  0  0  0  0  2  0  0  0  0  0  0
  190.4330  173.4190  139.1970 C   0  0  1  0  0  3  0  0  0  0  0  0
  191.2320  173.9970  137.0170 N   0  0  0  0  0  2  0  0  0  0  0  0
  193.4640  173.5490  137.3580 C   0  0  0  0  0  2  0  0  0  0  0  0
  195.5200  174.9160  137.6790 C   0  0  0  0  0  1  0  0  0  0  0  0
  194.6740  173.7890  138.2450 C   0  0  0  0  0  2  0  0  0  0  0  0
  1  6  1  0  0  0  0
  1  5  1  0  0  0  0
  2 11  1  0  0  0  0
  3 10  2  0  0  0  0
  3 16  1  0  0  0  0
  4  8  1  0  0  0  0
  4  7  1  0  0  0  0
  7  9  1  0  0  0  0
  8  1  2  0  0  0  0
  9  5  2  0  0  0  0
 11  7  2  0  0  0  0
 11 10  1  0  0  0  0
 12 15  1  0  0  0  0
 12  2  2  0  0  0  0
 13 35  1  1  0  0  0
 13  2  1  0  0  0  0
 13 14  1  0  0  0  0
 14  3  1  0  0  0  0
 15  4  2  0  0  0  0
 16 18  2  0  0  0  0
 17 16  1  0  0  0  0
 17 19  1  0  0  0  0
 20 19  2  0  0  0  0
 21 19  1  6  0  0  0
 22 21  1  0  0  0  0
 22 25  1  0  0  0  0
 23 26  1  0  0  0  0
 24 21  1  0  0  0  0
 24 26  1  0  0  0  0
 25 23  1  0  0  0  0
 25 27  1  1  0  0  0
 28 29  1  0  0  0  0
 28 27  1  0  0  0  0
 29 33  1  0  0  0  0
 30 32  1  0  0  0  0
 31 33  1  0  0  0  0
 32 31  1  0  0  0  0
 34 30  1  0  0  0  0
 34 29  1  0  0  0  0
 36 38  1  0  0  0  0
 37 39  1  0  0  0  0
 38 39  1  0  0  0  0
 39 35  1  1  0  0  0
 40 37  1  0  0  0  0
 40 36  1  0  0  0  0
 41 36  1  0  0  0  0
 41 43  1  0  0  0  0
 42 43  1  0  0  0  0
M  END
>  <MODEL>
7

>  <REMARK>
 VINA RESULT:      -6.7      3.780      7.917
  Name = 
  10 active torsions:
  status: ('A' for Active; 'I' for Inactive)
    1  A    between atoms: O_1  and  C_34
    2  A    between atoms: O_1  and  C_35
    3  A    between atoms: C_2  and  C_13
    4  A    between atoms: C_3  and  C_12
    5  A    between atoms: N_6  and  C_12
    6  A    between atoms: C_9  and  N_19
    7  A    between atoms: C_9  and  C_37
    8  A    between atoms: N_11  and  C_14
    9  A    between atoms: C_14  and  C_41
   10  A    between atoms: C_22  and  C_41
                            x       y       z     vdW  Elec       q    Type
                         _______ _______ _______ _____ _____    ______ ____

>  <TORSDO>
F 10

$$$$
=
 OpenBabel11052420573D

 43 48  0  0  1  0  0  0  0  0999 V2000
  185.2560  178.0470  147.2270 C   0  0  0  0  0  0  0  0  0  0  0  0
  189.7420  176.8160  145.2540 C   0  0  0  0  0  0  0  0  0  0  0  0
  189.1780  175.7030  142.6740 C   0  0  0  0  0  0  0  0  0  0  0  0
  187.6290  177.7380  146.8440 C   0  0  0  0  0  0  0  0  0  0  0  0
  184.9740  177.4080  146.0150 C   0  0  0  0  0  3  0  0  0  0  0  0
  184.2490  178.5160  147.9950 F   0  0  0  0  0  0  0  0  0  0  0  0
  187.3500  177.0960  145.6130 C   0  0  0  0  0  0  0  0  0  0  0  0
  186.5820  178.2110  147.6390 C   0  0  0  0  0  3  0  0  0  0  0  0
  186.0140  176.9360  145.2120 C   0  0  0  0  0  3  0  0  0  0  0  0
  188.1760  175.9520  143.5260 C   0  0  0  0  0  3  0  0  0  0  0  0
  188.4140  176.6380  144.8140 C   0  0  0  0  0  0  0  0  0  0  0  0
  190.0000  177.4380  146.4780 C   0  0  0  0  0  3  0  0  0  0  0  0
  190.8840  176.2410  144.4570 C   0  0  2  0  0  3  0  0  0  0  0  0
  190.5610  176.2420  142.9570 C   0  0  0  0  0  2  0  0  0  0  0  0
  188.9490  177.9030  147.2670 C   0  0  0  0  0  3  0  0  0  0  0  0
  188.9200  174.9710  141.4230 C   0  0  0  0  0  0  0  0  0  0  0  0
  189.5140  173.6800  141.2180 N   0  0  0  0  0  2  0  0  0  0  0  0
  188.1720  175.4820  140.5460 O   0  0  0  0  0  0  0  0  0  0  0  0
  189.5880  172.9400  139.9900 C   0  0  0  0  0  0  0  0  0  0  0  0
  188.2690  172.6670  139.0540 S   0  0  0  0  0  0  0  0  0  0  0  0
  190.9090  172.4280  139.5190 C   0  0  2  0  0  3  0  0  0  0  0  0
  191.5330  173.4180  138.5360 C   0  0  0  0  0  2  0  0  0  0  0  0
  192.8320  171.3880  137.7020 C   0  0  0  0  0  2  0  0  0  0  0  0
  190.7610  171.1720  138.9060 O   0  0  0  0  0  0  0  0  0  0  0  0
  192.8770  172.8870  138.0180 C   0  0  2  0  0  3  0  0  0  0  0  0
  192.0540  170.6340  138.7810 C   0  0  0  0  0  2  0  0  0  0  0  0
  194.0590  173.2760  138.9110 C   0  0  0  0  0  2  0  0  0  0  0  0
  194.2290  174.7820  139.0600 C   0  0  0  0  0  2  0  0  0  0  0  0
  195.5690  175.1690  138.6550 N   0  0  0  0  0  0  0  0  0  0  0  0
  197.8480  174.2340  138.4110 C   0  0  0  0  0  2  0  0  0  0  0  0
  197.0010  175.3530  136.6410 C   0  0  0  0  0  2  0  0  0  0  0  0
  197.9400  175.4400  137.6870 O   0  0  0  0  0  0  0  0  0  0  0  0
  195.5660  175.2840  137.1930 C   0  0  0  0  0  2  0  0  0  0  0  0
  196.4620  174.0810  139.0630 C   0  0  0  0  0  2  0  0  0  0  0  0
  191.1430  174.9320  144.8800 O   0  0  0  0  0  0  0  0  0  0  0  0
  194.1260  175.5190  144.1440 N   0  0  0  0  0  0  0  0  0  0  0  0
  193.1620  173.7830  145.3190 C   0  0  0  0  0  2  0  0  0  0  0  0
  193.1810  176.1260  145.0640 C   0  0  0  0  0  2  0  0  0  0  0  0
  192.3350  175.0080  145.6060 C   0  0  1  0  0  3  0  0  0  0  0  0
  194.3690  174.2180  144.6250 N   0  0  0  0  0  2  0  0  0  0  0  0
  195.3710  176.2590  144.2630 C   0  0  0  0  0  2  0  0  0  0  0  0
  197.5690  176.0310  143.1170 C   0  0  0  0  0  1  0  0  0  0  0  0
  196.0880  176.3030  142.9250 C   0  0  0  0  0  2  0  0  0  0  0  0
  1  8  1  0  0  0  0
  1  6  1  0  0  0  0
  2 12  1  0  0  0  0
  3 14  1  0  0  0  0
  3 10  2  0  0  0  0
  4 15  1  0  0  0  0
  4  8  2  0  0  0  0
  5  1  2  0  0  0  0
  7  4  1  0  0  0  0
  9  7  2  0  0  0  0
  9  5  1  0  0  0  0
 10 11  1  0  0  0  0
 11  2  2  0  0  0  0
 11  7  1  0  0  0  0
 12 15  2  0  0  0  0
 13 35  1  1  0  0  0
 13  2  1  0  0  0  0
 14 13  1  0  0  0  0
 16  3  1  0  0  0  0
 17 16  1  0  0  0  0
 18 16  2  0  0  0  0
 19 17  1  0  0  0  0
 20 19  2  0  0  0  0
 21 19  1  6  0  0  0
 22 21  1  0  0  0  0
 23 25  1  0  0  0  0
 23 26  1  0  0  0  0
 24 21  1  0  0  0  0
 25 22  1  0  0  0  0
 25 27  1  1  0  0  0
 26 24  1  0  0  0  0
 27 28  1  0  0  0  0
 29 28  1  0  0  0  0
 29 34  1  0  0  0  0
 30 34  1  0  0  0  0
 31 33  1  0  0  0  0
 31 32  1  0  0  0  0
 32 30  1  0  0  0  0
 33 29  1  0  0  0  0
 36 41  1  0  0  0  0
 36 40  1  0  0  0  0
 36 38  1  0  0  0  0
 37 39  1  0  0  0  0
 38 39  1  0  0  0  0
 39 35  1  6  0  0  0
 40 37  1  0  0  0  0
 43 42  1  0  0  0  0
 43 41  1  0  0  0  0
M  END
>  <MODEL>
8

>  <REMARK>
 VINA RESULT:      -6.7      4.300      8.735
  Name = 
  10 active torsions:
  status: ('A' for Active; 'I' for Inactive)
    1  A    between atoms: O_1  and  C_34
    2  A    between atoms: O_1  and  C_35
    3  A    between atoms: C_2  and  C_13
    4  A    between atoms: C_3  and  C_12
    5  A    between atoms: N_6  and  C_12
    6  A    between atoms: C_9  and  N_19
    7  A    between atoms: C_9  and  C_37
    8  A    between atoms: N_11  and  C_14
    9  A    between atoms: C_14  and  C_41
   10  A    between atoms: C_22  and  C_41
                            x       y       z     vdW  Elec       q    Type
                         _______ _______ _______ _____ _____    ______ ____

>  <TORSDO>
F 10

$$$$
=
 OpenBabel11052420573D

 43 48  0  0  1  0  0  0  0  0999 V2000
  187.8040  177.5410  145.8800 C   0  0  0  0  0  0  0  0  0  0  0  0
  192.7050  176.3070  145.9300 C   0  0  0  0  0  0  0  0  0  0  0  0
  193.5110  176.2130  143.1820 C   0  0  0  0  0  0  0  0  0  0  0  0
  190.0640  176.9900  146.5640 C   0  0  0  0  0  0  0  0  0  0  0  0
  188.1700  177.3920  144.5390 C   0  0  0  0  0  3  0  0  0  0  0  0
  186.5400  177.8910  146.2020 F   0  0  0  0  0  0  0  0  0  0  0  0
  190.4410  176.8430  145.2080 C   0  0  0  0  0  0  0  0  0  0  0  0
  188.7500  177.3410  146.8900 C   0  0  0  0  0  3  0  0  0  0  0  0
  189.4810  177.0450  144.2040 C   0  0  0  0  0  3  0  0  0  0  0  0
  192.2140  176.3290  143.4920 C   0  0  0  0  0  3  0  0  0  0  0  0
  191.7710  176.5040  144.8920 C   0  0  0  0  0  0  0  0  0  0  0  0
  192.3120  176.4420  147.2640 C   0  0  0  0  0  3  0  0  0  0  0  0
  194.1030  175.8470  145.6100 C   0  0  2  0  0  3  0  0  0  0  0  0
  194.5620  176.3930  144.2520 C   0  0  0  0  0  2  0  0  0  0  0  0
  190.9990  176.7880  147.5800 C   0  0  0  0  0  3  0  0  0  0  0  0
  193.9180  175.9840  141.7860 C   0  0  0  0  0  0  0  0  0  0  0  0
  193.3170  174.9200  141.0330 N   0  0  0  0  0  2  0  0  0  0  0  0
  194.7880  176.7310  141.2620 O   0  0  0  0  0  0  0  0  0  0  0  0
  193.7530  174.3880  139.7730 C   0  0  0  0  0  0  0  0  0  0  0  0
  195.3160  173.9750  139.4950 S   0  0  0  0  0  0  0  0  0  0  0  0
  192.7570  174.1640  138.6840 C   0  0  2  0  0  3  0  0  0  0  0  0
  192.0110  172.8500  138.9210 C   0  0  0  0  0  2  0  0  0  0  0  0
  191.5770  172.9340  136.4090 C   0  0  0  0  0  2  0  0  0  0  0  0
  193.3930  174.1360  137.4310 O   0  0  0  0  0  0  0  0  0  0  0  0
  191.0060  172.5910  137.7900 C   0  0  2  0  0  3  0  0  0  0  0  0
  192.3770  174.2370  136.4660 C   0  0  0  0  0  2  0  0  0  0  0  0
  189.6380  173.2280  138.0460 C   0  0  0  0  0  2  0  0  0  0  0  0
  188.6990  172.3320  138.8430 C   0  0  0  0  0  2  0  0  0  0  0  0
  188.2120  173.0440  140.0120 N   0  0  0  0  0  0  0  0  0  0  0  0
  188.8620  173.5920  142.3370 C   0  0  0  0  0  2  0  0  0  0  0  0
  188.1910  175.3040  141.0270 C   0  0  0  0  0  2  0  0  0  0  0  0
  187.7990  174.4870  142.1040 O   0  0  0  0  0  0  0  0  0  0  0  0
  188.3540  174.4770  139.7380 C   0  0  0  0  0  2  0  0  0  0  0  0
  189.0840  172.6650  141.1270 C   0  0  0  0  0  2  0  0  0  0  0  0
  194.1460  174.4480  145.5910 O   0  0  0  0  0  0  0  0  0  0  0  0
  195.8690  171.8430  145.4230 N   0  0  0  0  0  0  0  0  0  0  0  0
  196.4000  173.9750  146.1250 C   0  0  0  0  0  2  0  0  0  0  0  0
  195.3180  172.7460  144.4300 C   0  0  0  0  0  2  0  0  0  0  0  0
  195.3830  174.1250  145.0260 C   0  0  1  0  0  3  0  0  0  0  0  0
  196.8270  172.5810  146.1440 N   0  0  0  0  0  2  0  0  0  0  0  0
  196.5840  170.8030  144.7010 C   0  0  0  0  0  2  0  0  0  0  0  0
  196.0170  169.0140  146.3370 C   0  0  0  0  0  1  0  0  0  0  0  0
  195.8960  169.4620  144.8920 C   0  0  0  0  0  2  0  0  0  0  0  0
  1  6  1  0  0  0  0
  1  8  1  0  0  0  0
  2 12  1  0  0  0  0
  3 10  2  0  0  0  0
  3 14  1  0  0  0  0
  4  8  2  0  0  0  0
  4 15  1  0  0  0  0
  5  1  2  0  0  0  0
  7  4  1  0  0  0  0
  9  5  1  0  0  0  0
  9  7  2  0  0  0  0
 10 11  1  0  0  0  0
 11  7  1  0  0  0  0
 11  2  2  0  0  0  0
 12 15  2  0  0  0  0
 13 35  1  6  0  0  0
 13  2  1  0  0  0  0
 14 13  1  0  0  0  0
 16  3  1  0  0  0  0
 17 16  1  0  0  0  0
 18 16  2  0  0  0  0
 19 17  1  0  0  0  0
 20 19  2  0  0  0  0
 21 22  1  0  0  0  0
 21 19  1  1  0  0  0
 23 26  1  0  0  0  0
 23 25  1  0  0  0  0
 24 21  1  0  0  0  0
 25 27  1  1  0  0  0
 25 22  1  0  0  0  0
 26 24  1  0  0  0  0
 27 28  1  0  0  0  0
 28 29  1  0  0  0  0
 29 34  1  0  0  0  0
 31 32  1  0  0  0  0
 32 30  1  0  0  0  0
 33 29  1  0  0  0  0
 33 31  1  0  0  0  0
 34 30  1  0  0  0  0
 36 40  1  0  0  0  0
 37 40  1  0  0  0  0
 38 39  1  0  0  0  0
 38 36  1  0  0  0  0
 39 35  1  1  0  0  0
 39 37  1  0  0  0  0
 41 43  1  0  0  0  0
 41 36  1  0  0  0  0
 43 42  1  0  0  0  0
M  END
>  <MODEL>
9

>  <REMARK>
 VINA RESULT:      -6.6      3.723      8.046
  Name = 
  10 active torsions:
  status: ('A' for Active; 'I' for Inactive)
    1  A    between atoms: O_1  and  C_34
    2  A    between atoms: O_1  and  C_35
    3  A    between atoms: C_2  and  C_13
    4  A    between atoms: C_3  and  C_12
    5  A    between atoms: N_6  and  C_12
    6  A    between atoms: C_9  and  N_19
    7  A    between atoms: C_9  and  C_37
    8  A    between atoms: N_11  and  C_14
    9  A    between atoms: C_14  and  C_41
   10  A    between atoms: C_22  and  C_41
                            x       y       z     vdW  Elec       q    Type
                         _______ _______ _______ _____ _____    ______ ____

>  <TORSDO>
F 10

$$$$
