=
 OpenBabel11052418413D

 34 38  0  0  1  0  0  0  0  0999 V2000
  186.1350  177.6710  142.1420 C   0  0  0  0  0  0  0  0  0  0  0  0
  185.3220  177.9440  144.5310 C   0  0  1  0  0  3  0  0  0  0  0  0
  187.2600  176.4520  143.9210 C   0  0  0  0  0  0  0  0  0  0  0  0
  188.8840  175.2670  147.2250 C   0  0  0  0  0  1  0  0  0  0  0  0
  185.6420  179.4120  144.7920 C   0  0  0  0  0  1  0  0  0  0  0  0
  186.5620  177.0290  146.2510 C   0  0  0  0  0  2  0  0  0  0  0  0
  186.2490  177.3340  143.5010 C   0  0  0  0  0  0  0  0  0  0  0  0
  188.8140  175.7970  145.7930 C   0  0  1  0  0  0  0  0  0  0  0  0
  188.1620  175.8940  142.9950 C   0  0  0  0  0  0  0  0  0  0  0  0
  187.0410  177.1250  141.2210 C   0  0  0  0  0  3  0  0  0  0  0  0
  185.2580  177.1990  145.7370 O   0  0  0  0  0  0  0  0  0  0  0  0
  189.3190  174.6730  144.8880 C   0  0  0  0  0  2  0  0  0  0  0  0
  189.2330  175.0330  143.4630 N   0  0  0  0  0  0  0  0  0  0  0  0
  187.3490  176.0560  145.3680 C   0  0  2  0  0  3  0  0  0  0  0  0
  188.0450  176.2530  141.6440 C   0  0  0  0  0  3  0  0  0  0  0  0
  190.8970  172.6760  141.0590 C   0  0  0  0  0  0  0  0  0  0  0  0
  192.1300  173.3040  140.8790 C   0  0  0  0  0  3  0  0  0  0  0  0
  190.2040  174.4460  142.5770 C   0  0  0  0  0  0  0  0  0  0  0  0
  192.4100  174.4980  141.5510 C   0  0  0  0  0  3  0  0  0  0  0  0
  189.9400  173.2410  141.9060 C   0  0  0  0  0  3  0  0  0  0  0  0
  191.4520  175.0640  142.3960 C   0  0  0  0  0  3  0  0  0  0  0  0
  190.5450  171.1810  140.2190 Cl  0  0  0  0  0  0  0  0  0  0  0  0
  184.2830  178.2910  140.6170 C   0  0  0  0  0  1  0  0  0  0  0  0
  185.1290  178.5530  141.7290 O   0  0  0  0  0  0  0  0  0  0  0  0
  189.6720  176.9120  145.5920 O   0  0  0  0  0  0  0  0  0  0  0  0
  190.8090  176.8280  146.4120 C   0  0  0  0  0  2  0  0  0  0  0  0
  192.0510  176.7930  145.5440 C   0  0  0  0  0  2  0  0  0  0  0  0
  194.5860  176.4160  144.1910 C   0  0  0  0  0  1  0  0  0  0  0  0
  193.0830  175.8470  146.1480 C   0  0  2  0  0  3  0  0  0  0  0  0
  194.5190  176.0830  145.6870 C   0  0  1  0  0  3  0  0  0  0  0  0
  196.4550  174.4680  145.2290 C   0  0  0  0  0  1  0  0  0  0  0  0
  194.1130  173.6850  145.7310 C   0  0  0  0  0  2  0  0  0  0  0  0
  192.7710  174.3960  145.8270 C   0  0  0  0  0  2  0  0  0  0  0  0
  195.1700  174.7410  145.9960 C   0  0  2  0  0  3  0  0  0  0  0  0
  1  7  1  0  0  0  0
  2  5  1  1  0  0  0
  2 11  1  0  0  0  0
  3 14  1  0  0  0  0
  7  3  2  0  0  0  0
  7  2  1  0  0  0  0
  8  4  1  1  0  0  0
  9 13  1  0  0  0  0
  9  3  1  0  0  0  0
 10 15  1  0  0  0  0
 10  1  2  0  0  0  0
 11  6  1  0  0  0  0
 12  8  1  0  0  0  0
 13 12  1  0  0  0  0
 14  8  1  0  0  0  0
 14  6  1  1  0  0  0
 15  9  2  0  0  0  0
 16 20  1  0  0  0  0
 17 16  2  0  0  0  0
 17 19  1  0  0  0  0
 18 13  1  0  0  0  0
 19 21  2  0  0  0  0
 20 18  2  0  0  0  0
 21 18  1  0  0  0  0
 22 16  1  0  0  0  0
 23 24  1  0  0  0  0
 24  1  1  0  0  0  0
 25  8  1  0  0  0  0
 25 26  1  0  0  0  0
 27 26  1  0  0  0  0
 29 27  1  6  0  0  0
 30 28  1  6  0  0  0
 30 34  1  0  0  0  0
 30 29  1  0  0  0  0
 32 33  1  0  0  0  0
 32 34  1  0  0  0  0
 33 29  1  0  0  0  0
 34 31  1  6  0  0  0
M  END
>  <MODEL>
1

>  <REMARK>
 VINA RESULT:      -7.9      0.000      0.000
  Name = 
  6 active torsions:
  status: ('A' for Active; 'I' for Inactive)
    1  A    between atoms: C_1  and  O_19
    2  A    between atoms: C_3  and  C_13
    3  A    between atoms: C_3  and  C_17
    4  A    between atoms: C_12  and  N_28
    5  A    between atoms: C_17  and  O_29
    6  A    between atoms: C_18  and  O_29
                            x       y       z     vdW  Elec       q    Type
                         _______ _______ _______ _____ _____    ______ ____

>  <TORSDO>
F 6

$$$$
=
 OpenBabel11052418413D

 34 38  0  0  1  0  0  0  0  0999 V2000
  189.6510  172.6500  142.1960 C   0  0  0  0  0  0  0  0  0  0  0  0
  191.8350  173.3140  143.3080 C   0  0  1  0  0  3  0  0  0  0  0  0
  190.1120  175.0080  142.5830 C   0  0  0  0  0  0  0  0  0  0  0  0
  191.2290  178.4450  143.9590 C   0  0  0  0  0  1  0  0  0  0  0  0
  191.6610  172.7110  144.6970 C   0  0  0  0  0  1  0  0  0  0  0  0
  192.1490  175.5120  143.9430 C   0  0  0  0  0  2  0  0  0  0  0  0
  190.5070  173.6600  142.6670 C   0  0  0  0  0  0  0  0  0  0  0  0
  190.2770  177.2990  143.6170 C   0  0  1  0  0  0  0  0  0  0  0  0
  188.8690  175.3620  142.0270 C   0  0  0  0  0  0  0  0  0  0  0  0
  188.4070  173.0030  141.6530 C   0  0  0  0  0  3  0  0  0  0  0  0
  192.7490  174.3990  143.3170 O   0  0  0  0  0  0  0  0  0  0  0  0
  189.3840  177.7990  142.4810 C   0  0  0  0  0  2  0  0  0  0  0  0
  188.4620  176.7550  142.0050 N   0  0  0  0  0  0  0  0  0  0  0  0
  191.0500  176.0870  143.0430 C   0  0  2  0  0  3  0  0  0  0  0  0
  188.0190  174.3410  141.5760 C   0  0  0  0  0  3  0  0  0  0  0  0
  184.8970  177.9180  141.7910 C   0  0  0  0  0  0  0  0  0  0  0  0
  184.7240  177.9970  140.4090 C   0  0  0  0  0  3  0  0  0  0  0  0
  187.1960  177.1880  141.4730 C   0  0  0  0  0  0  0  0  0  0  0  0
  185.7790  177.6650  139.5530 C   0  0  0  0  0  3  0  0  0  0  0  0
  186.1250  177.5130  142.3210 C   0  0  0  0  0  3  0  0  0  0  0  0
  187.0070  177.2610  140.0830 C   0  0  0  0  0  3  0  0  0  0  0  0
  183.5780  178.3340  142.8640 Cl  0  0  0  0  0  0  0  0  0  0  0  0
  190.5900  170.5920  141.1870 C   0  0  0  0  0  1  0  0  0  0  0  0
  190.0460  171.3100  142.2870 O   0  0  0  0  0  0  0  0  0  0  0  0
  189.4240  176.9690  144.7040 O   0  0  0  0  0  0  0  0  0  0  0  0
  189.8890  177.5380  145.9010 C   0  0  0  0  0  2  0  0  0  0  0  0
  188.7200  177.7480  146.8420 C   0  0  0  0  0  2  0  0  0  0  0  0
  186.3860  179.2680  147.6470 C   0  0  0  0  0  1  0  0  0  0  0  0
  187.4060  177.5440  146.0970 C   0  0  2  0  0  3  0  0  0  0  0  0
  186.4090  178.6920  146.2250 C   0  0  1  0  0  3  0  0  0  0  0  0
  183.8500  178.7270  146.3670 C   0  0  0  0  0  1  0  0  0  0  0  0
  185.1920  176.5960  146.4290 C   0  0  0  0  0  2  0  0  0  0  0  0
  186.6780  176.2990  146.5730 C   0  0  0  0  0  2  0  0  0  0  0  0
  185.0950  178.0050  145.8750 C   0  0  2  0  0  3  0  0  0  0  0  0
  1 24  1  0  0  0  0
  1  7  1  0  0  0  0
  2 11  1  0  0  0  0
  2  5  1  1  0  0  0
  3  7  2  0  0  0  0
  3 14  1  0  0  0  0
  7  2  1  0  0  0  0
  8  4  1  1  0  0  0
  8 25  1  0  0  0  0
  9  3  1  0  0  0  0
 10  1  2  0  0  0  0
 11  6  1  0  0  0  0
 12  8  1  0  0  0  0
 13  9  1  0  0  0  0
 13 12  1  0  0  0  0
 14  8  1  0  0  0  0
 14  6  1  1  0  0  0
 15 10  1  0  0  0  0
 15  9  2  0  0  0  0
 16 20  1  0  0  0  0
 16 22  1  0  0  0  0
 17 16  2  0  0  0  0
 18 13  1  0  0  0  0
 18 20  2  0  0  0  0
 19 21  2  0  0  0  0
 19 17  1  0  0  0  0
 21 18  1  0  0  0  0
 23 24  1  0  0  0  0
 25 26  1  0  0  0  0
 26 27  1  0  0  0  0
 29 30  1  0  0  0  0
 29 33  1  0  0  0  0
 29 27  1  1  0  0  0
 30 28  1  1  0  0  0
 32 33  1  0  0  0  0
 34 30  1  0  0  0  0
 34 31  1  1  0  0  0
 34 32  1  0  0  0  0
M  END
>  <MODEL>
2

>  <REMARK>
 VINA RESULT:      -7.8      2.910      6.928
  Name = 
  6 active torsions:
  status: ('A' for Active; 'I' for Inactive)
    1  A    between atoms: C_1  and  O_19
    2  A    between atoms: C_3  and  C_13
    3  A    between atoms: C_3  and  C_17
    4  A    between atoms: C_12  and  N_28
    5  A    between atoms: C_17  and  O_29
    6  A    between atoms: C_18  and  O_29
                            x       y       z     vdW  Elec       q    Type
                         _______ _______ _______ _____ _____    ______ ____

>  <TORSDO>
F 6

$$$$
=
 OpenBabel11052418413D

 34 38  0  0  1  0  0  0  0  0999 V2000
  189.3160  173.5480  141.1060 C   0  0  0  0  0  0  0  0  0  0  0  0
  191.8320  173.7310  140.8170 C   0  0  1  0  0  3  0  0  0  0  0  0
  190.5510  175.1430  142.4680 C   0  0  0  0  0  0  0  0  0  0  0  0
  193.1470  177.0290  144.6260 C   0  0  0  0  0  1  0  0  0  0  0  0
  192.2900  172.3590  141.2990 C   0  0  0  0  0  1  0  0  0  0  0  0
  193.0420  175.0200  142.3020 C   0  0  0  0  0  2  0  0  0  0  0  0
  190.5310  174.1560  141.4650 C   0  0  0  0  0  0  0  0  0  0  0  0
  191.8890  176.2190  144.3110 C   0  0  1  0  0  0  0  0  0  0  0  0
  189.3650  175.5360  143.1170 C   0  0  0  0  0  0  0  0  0  0  0  0
  188.1370  173.9320  141.7620 C   0  0  0  0  0  3  0  0  0  0  0  0
  192.8600  174.7010  140.9390 O   0  0  0  0  0  0  0  0  0  0  0  0
  190.7010  177.1560  144.5310 C   0  0  0  0  0  2  0  0  0  0  0  0
  189.4220  176.5140  144.1880 N   0  0  0  0  0  0  0  0  0  0  0  0
  191.8430  175.8250  142.8150 C   0  0  2  0  0  3  0  0  0  0  0  0
  188.1630  174.9080  142.7580 C   0  0  0  0  0  3  0  0  0  0  0  0
  186.3320  178.4170  145.1540 C   0  0  0  0  0  0  0  0  0  0  0  0
  186.0000  177.7940  146.3580 C   0  0  0  0  0  3  0  0  0  0  0  0
  188.2540  176.9460  144.9110 C   0  0  0  0  0  0  0  0  0  0  0  0
  186.7940  176.7540  146.8480 C   0  0  0  0  0  3  0  0  0  0  0  0
  187.4550  177.9980  144.4350 C   0  0  0  0  0  3  0  0  0  0  0  0
  187.9170  176.3350  146.1290 C   0  0  0  0  0  3  0  0  0  0  0  0
  185.3380  179.7200  144.5380 Cl  0  0  0  0  0  0  0  0  0  0  0  0
  188.5120  172.6700  138.9340 C   0  0  0  0  0  1  0  0  0  0  0  0
  189.3020  172.5630  140.1120 O   0  0  0  0  0  0  0  0  0  0  0  0
  191.7240  175.1200  145.1960 O   0  0  0  0  0  0  0  0  0  0  0  0
  192.8670  174.9350  145.9900 C   0  0  0  0  0  2  0  0  0  0  0  0
  193.4340  173.5530  145.7370 C   0  0  0  0  0  2  0  0  0  0  0  0
  195.1430  171.2120  145.6830 C   0  0  0  0  0  1  0  0  0  0  0  0
  194.8270  173.6620  145.1280 C   0  0  2  0  0  3  0  0  0  0  0  0
  195.4410  172.3380  144.6840 C   0  0  1  0  0  3  0  0  0  0  0  0
  197.8550  171.4770  144.7150 C   0  0  0  0  0  1  0  0  0  0  0  0
  197.1670  173.6500  145.7880 C   0  0  0  0  0  2  0  0  0  0  0  0
  195.8170  174.2820  146.0990 C   0  0  0  0  0  2  0  0  0  0  0  0
  196.9250  172.6790  144.6480 C   0  0  2  0  0  3  0  0  0  0  0  0
  1  7  2  0  0  0  0
  1 10  1  0  0  0  0
  2 11  1  0  0  0  0
  2  5  1  1  0  0  0
  2  7  1  0  0  0  0
  3 14  1  0  0  0  0
  3  9  2  0  0  0  0
  7  3  1  0  0  0  0
  8 12  1  0  0  0  0
  8  4  1  1  0  0  0
  8 25  1  0  0  0  0
  9 13  1  0  0  0  0
 10 15  2  0  0  0  0
 11  6  1  0  0  0  0
 13 12  1  0  0  0  0
 13 18  1  0  0  0  0
 14  6  1  1  0  0  0
 14  8  1  0  0  0  0
 15  9  1  0  0  0  0
 16 17  1  0  0  0  0
 17 19  2  0  0  0  0
 18 21  2  0  0  0  0
 20 18  1  0  0  0  0
 20 16  2  0  0  0  0
 21 19  1  0  0  0  0
 22 16  1  0  0  0  0
 23 24  1  0  0  0  0
 24  1  1  0  0  0  0
 25 26  1  0  0  0  0
 27 26  1  0  0  0  0
 29 27  1  1  0  0  0
 29 33  1  0  0  0  0
 30 29  1  0  0  0  0
 30 28  1  1  0  0  0
 32 33  1  0  0  0  0
 34 30  1  0  0  0  0
 34 31  1  1  0  0  0
 34 32  1  0  0  0  0
M  END
>  <MODEL>
3

>  <REMARK>
 VINA RESULT:      -7.3      3.047      5.811
  Name = 
  6 active torsions:
  status: ('A' for Active; 'I' for Inactive)
    1  A    between atoms: C_1  and  O_19
    2  A    between atoms: C_3  and  C_13
    3  A    between atoms: C_3  and  C_17
    4  A    between atoms: C_12  and  N_28
    5  A    between atoms: C_17  and  O_29
    6  A    between atoms: C_18  and  O_29
                            x       y       z     vdW  Elec       q    Type
                         _______ _______ _______ _____ _____    ______ ____

>  <TORSDO>
F 6

$$$$
=
 OpenBabel11052418413D

 34 38  0  0  1  0  0  0  0  0999 V2000
  187.4090  178.0060  146.9460 C   0  0  0  0  0  0  0  0  0  0  0  0
  185.5100  178.7750  145.4460 C   0  0  1  0  0  3  0  0  0  0  0  0
  187.6970  177.9140  144.5320 C   0  0  0  0  0  0  0  0  0  0  0  0
  187.2790  177.5420  140.7050 C   0  0  0  0  0  1  0  0  0  0  0  0
  184.4410  177.7350  145.7570 C   0  0  0  0  0  1  0  0  0  0  0  0
  185.6620  178.4160  143.1690 C   0  0  0  0  0  2  0  0  0  0  0  0
  186.9090  178.2330  145.6530 C   0  0  0  0  0  0  0  0  0  0  0  0
  187.7000  177.1670  142.1260 C   0  0  1  0  0  0  0  0  0  0  0  0
  188.9880  177.3740  144.6880 C   0  0  0  0  0  0  0  0  0  0  0  0
  188.6900  177.4560  147.1000 C   0  0  0  0  0  3  0  0  0  0  0  0
  185.3210  179.3560  144.1650 O   0  0  0  0  0  0  0  0  0  0  0  0
  189.2250  177.2680  142.1690 C   0  0  0  0  0  2  0  0  0  0  0  0
  189.7570  177.0000  143.5140 N   0  0  0  0  0  0  0  0  0  0  0  0
  187.1790  178.2020  143.1520 C   0  0  2  0  0  3  0  0  0  0  0  0
  189.4660  177.1390  145.9850 C   0  0  0  0  0  3  0  0  0  0  0  0
  192.6490  174.8680  144.6090 C   0  0  0  0  0  0  0  0  0  0  0  0
  193.6580  175.3340  143.7660 C   0  0  0  0  0  3  0  0  0  0  0  0
  191.0730  176.4220  143.5980 C   0  0  0  0  0  0  0  0  0  0  0  0
  193.3860  176.3480  142.8440 C   0  0  0  0  0  3  0  0  0  0  0  0
  191.3630  175.4110  144.5290 C   0  0  0  0  0  3  0  0  0  0  0  0
  192.1000  176.8900  142.7630 C   0  0  0  0  0  3  0  0  0  0  0  0
  192.9890  173.5970  145.7640 Cl  0  0  0  0  0  0  0  0  0  0  0  0
  186.7110  179.5630  148.7420 C   0  0  0  0  0  1  0  0  0  0  0  0
  186.6180  178.3200  148.0580 O   0  0  0  0  0  0  0  0  0  0  0  0
  187.3620  175.8250  142.4480 O   0  0  0  0  0  0  0  0  0  0  0  0
  187.8890  174.9310  141.5020 C   0  0  0  0  0  2  0  0  0  0  0  0
  187.8870  173.5310  142.0810 C   0  0  0  0  0  2  0  0  0  0  0  0
  189.6160  172.3510  144.0860 C   0  0  0  0  0  1  0  0  0  0  0  0
  189.1370  172.7800  141.6370 C   0  0  2  0  0  3  0  0  0  0  0  0
  189.6910  171.7920  142.6590 C   0  0  1  0  0  3  0  0  0  0  0  0
  192.0900  171.1080  143.2490 C   0  0  0  0  0  1  0  0  0  0  0  0
  191.5590  172.9930  141.6640 C   0  0  0  0  0  2  0  0  0  0  0  0
  190.2760  173.7300  141.3080 C   0  0  0  0  0  2  0  0  0  0  0  0
  191.1320  171.6350  142.1910 C   0  0  2  0  0  3  0  0  0  0  0  0
  1 10  1  0  0  0  0
  1 24  1  0  0  0  0
  2  7  1  0  0  0  0
  2  5  1  6  0  0  0
  3  9  2  0  0  0  0
  3  7  1  0  0  0  0
  6 11  1  0  0  0  0
  7  1  2  0  0  0  0
  8  4  1  6  0  0  0
  8 12  1  0  0  0  0
  8 25  1  0  0  0  0
  8 14  1  0  0  0  0
  9 15  1  0  0  0  0
 11  2  1  0  0  0  0
 12 13  1  0  0  0  0
 13 18  1  0  0  0  0
 13  9  1  0  0  0  0
 14  6  1  1  0  0  0
 14  3  1  0  0  0  0
 15 10  2  0  0  0  0
 16 22  1  0  0  0  0
 17 16  2  0  0  0  0
 18 20  2  0  0  0  0
 19 17  1  0  0  0  0
 20 16  1  0  0  0  0
 21 19  2  0  0  0  0
 21 18  1  0  0  0  0
 24 23  1  0  0  0  0
 26 27  1  0  0  0  0
 26 25  1  0  0  0  0
 29 27  1  1  0  0  0
 29 30  1  0  0  0  0
 30 28  1  1  0  0  0
 32 34  1  0  0  0  0
 33 29  1  0  0  0  0
 33 32  1  0  0  0  0
 34 30  1  0  0  0  0
 34 31  1  1  0  0  0
M  END
>  <MODEL>
4

>  <REMARK>
 VINA RESULT:      -7.0      2.227      4.842
  Name = 
  6 active torsions:
  status: ('A' for Active; 'I' for Inactive)
    1  A    between atoms: C_1  and  O_19
    2  A    between atoms: C_3  and  C_13
    3  A    between atoms: C_3  and  C_17
    4  A    between atoms: C_12  and  N_28
    5  A    between atoms: C_17  and  O_29
    6  A    between atoms: C_18  and  O_29
                            x       y       z     vdW  Elec       q    Type
                         _______ _______ _______ _____ _____    ______ ____

>  <TORSDO>
F 6

$$$$
=
 OpenBabel11052418413D

 34 38  0  0  1  0  0  0  0  0999 V2000
  194.7040  172.8380  143.6490 C   0  0  0  0  0  0  0  0  0  0  0  0
  195.5250  175.0170  144.6590 C   0  0  1  0  0  3  0  0  0  0  0  0
  193.2820  174.8080  143.5250 C   0  0  0  0  0  0  0  0  0  0  0  0
  191.3660  178.1090  144.1500 C   0  0  0  0  0  1  0  0  0  0  0  0
  195.5790  174.6610  146.1400 C   0  0  0  0  0  1  0  0  0  0  0  0
  194.0700  176.8050  144.8070 C   0  0  0  0  0  2  0  0  0  0  0  0
  194.4890  174.2000  143.9150 C   0  0  0  0  0  0  0  0  0  0  0  0
  191.5870  176.6010  144.0370 C   0  0  1  0  0  0  0  0  0  0  0  0
  192.2830  174.0700  142.8640 C   0  0  0  0  0  0  0  0  0  0  0  0
  193.7020  172.0990  143.0010 C   0  0  0  0  0  3  0  0  0  0  0  0
  195.3820  176.4150  144.4610 O   0  0  0  0  0  0  0  0  0  0  0  0
  190.8300  176.1420  142.7900 C   0  0  0  0  0  2  0  0  0  0  0  0
  191.0240  174.7070  142.5250 N   0  0  0  0  0  0  0  0  0  0  0  0
  193.0760  176.2760  143.7680 C   0  0  2  0  0  3  0  0  0  0  0  0
  192.5060  172.7060  142.6200 C   0  0  0  0  0  3  0  0  0  0  0  0
  188.8680  173.1920  139.8490 C   0  0  0  0  0  0  0  0  0  0  0  0
  187.8220  172.6700  140.6110 C   0  0  0  0  0  3  0  0  0  0  0  0
  189.9490  174.0080  141.8690 C   0  0  0  0  0  0  0  0  0  0  0  0
  187.8290  172.8210  142.0010 C   0  0  0  0  0  3  0  0  0  0  0  0
  189.9240  173.8610  140.4730 C   0  0  0  0  0  3  0  0  0  0  0  0
  188.8860  173.4890  142.6250 C   0  0  0  0  0  3  0  0  0  0  0  0
  188.8610  173.0030  138.1080 Cl  0  0  0  0  0  0  0  0  0  0  0  0
  195.9530  171.1160  144.9200 C   0  0  0  0  0  1  0  0  0  0  0  0
  195.9040  172.2350  144.0440 O   0  0  0  0  0  0  0  0  0  0  0  0
  191.0400  175.8940  145.1410 O   0  0  0  0  0  0  0  0  0  0  0  0
  190.2200  176.7290  145.9170 C   0  0  0  0  0  2  0  0  0  0  0  0
  188.7980  176.2060  145.8820 C   0  0  0  0  0  2  0  0  0  0  0  0
  186.2790  176.7980  147.1910 C   0  0  0  0  0  1  0  0  0  0  0  0
  187.8710  177.2540  145.2750 C   0  0  2  0  0  3  0  0  0  0  0  0
  186.8590  177.8570  146.2440 C   0  0  1  0  0  3  0  0  0  0  0  0
  184.4370  178.6330  145.9250 C   0  0  0  0  0  1  0  0  0  0  0  0
  185.7320  177.4270  144.1320 C   0  0  0  0  0  2  0  0  0  0  0  0
  187.0630  176.6880  144.1200 C   0  0  0  0  0  2  0  0  0  0  0  0
  185.8010  178.4010  145.2930 C   0  0  2  0  0  3  0  0  0  0  0  0
  1  7  1  0  0  0  0
  1 24  1  0  0  0  0
  2  5  1  1  0  0  0
  3 14  1  0  0  0  0
  3  7  2  0  0  0  0
  7  2  1  0  0  0  0
  8  4  1  1  0  0  0
  8 25  1  0  0  0  0
  9  3  1  0  0  0  0
 10  1  2  0  0  0  0
 11  2  1  0  0  0  0
 11  6  1  0  0  0  0
 12  8  1  0  0  0  0
 13 12  1  0  0  0  0
 13  9  1  0  0  0  0
 14  8  1  0  0  0  0
 14  6  1  1  0  0  0
 15  9  2  0  0  0  0
 15 10  1  0  0  0  0
 16 20  2  0  0  0  0
 16 17  1  0  0  0  0
 17 19  2  0  0  0  0
 18 13  1  0  0  0  0
 18 21  2  0  0  0  0
 19 21  1  0  0  0  0
 20 18  1  0  0  0  0
 22 16  1  0  0  0  0
 24 23  1  0  0  0  0
 25 26  1  0  0  0  0
 27 26  1  0  0  0  0
 29 27  1  1  0  0  0
 29 30  1  0  0  0  0
 30 28  1  1  0  0  0
 32 34  1  0  0  0  0
 33 32  1  0  0  0  0
 33 29  1  0  0  0  0
 34 31  1  1  0  0  0
 34 30  1  0  0  0  0
M  END
>  <MODEL>
5

>  <REMARK>
 VINA RESULT:      -6.9      2.409      7.358
  Name = 
  6 active torsions:
  status: ('A' for Active; 'I' for Inactive)
    1  A    between atoms: C_1  and  O_19
    2  A    between atoms: C_3  and  C_13
    3  A    between atoms: C_3  and  C_17
    4  A    between atoms: C_12  and  N_28
    5  A    between atoms: C_17  and  O_29
    6  A    between atoms: C_18  and  O_29
                            x       y       z     vdW  Elec       q    Type
                         _______ _______ _______ _____ _____    ______ ____

>  <TORSDO>
F 6

$$$$
=
 OpenBabel11052418413D

 34 38  0  0  1  0  0  0  0  0999 V2000
  187.3600  177.9700  146.9510 C   0  0  0  0  0  0  0  0  0  0  0  0
  185.5700  178.8830  145.4000 C   0  0  1  0  0  3  0  0  0  0  0  0
  187.7300  177.9010  144.5470 C   0  0  0  0  0  0  0  0  0  0  0  0
  187.4270  177.6210  140.7020 C   0  0  0  0  0  1  0  0  0  0  0  0
  184.4260  177.9080  145.6530 C   0  0  0  0  0  1  0  0  0  0  0  0
  185.7810  178.5540  143.1240 C   0  0  0  0  0  2  0  0  0  0  0  0
  186.9230  178.2500  145.6450 C   0  0  0  0  0  0  0  0  0  0  0  0
  187.7720  177.1960  142.1280 C   0  0  1  0  0  0  0  0  0  0  0  0
  188.9780  177.2770  144.7370 C   0  0  0  0  0  0  0  0  0  0  0  0
  188.5980  177.3380  147.1390 C   0  0  0  0  0  3  0  0  0  0  0  0
  185.4630  179.4970  144.1250 O   0  0  0  0  0  0  0  0  0  0  0  0
  189.2980  177.2000  142.2270 C   0  0  0  0  0  2  0  0  0  0  0  0
  189.7630  176.8750  143.5850 N   0  0  0  0  0  0  0  0  0  0  0  0
  187.2810  178.2450  143.1550 C   0  0  2  0  0  3  0  0  0  0  0  0
  189.3920  176.9900  146.0460 C   0  0  0  0  0  3  0  0  0  0  0  0
  193.2800  175.7630  142.8780 C   0  0  0  0  0  0  0  0  0  0  0  0
  193.5000  174.8820  143.9380 C   0  0  0  0  0  3  0  0  0  0  0  0
  191.0370  176.2130  143.7030 C   0  0  0  0  0  0  0  0  0  0  0  0
  192.4910  174.6550  144.8780 C   0  0  0  0  0  3  0  0  0  0  0  0
  192.0540  176.4230  142.7590 C   0  0  0  0  0  3  0  0  0  0  0  0
  191.2650  175.3160  144.7590 C   0  0  0  0  0  3  0  0  0  0  0  0
  194.5440  176.0480  141.7000 Cl  0  0  0  0  0  0  0  0  0  0  0  0
  186.7240  179.5190  148.7760 C   0  0  0  0  0  1  0  0  0  0  0  0
  186.5520  178.3150  148.0400 O   0  0  0  0  0  0  0  0  0  0  0  0
  187.3390  175.8730  142.4120 O   0  0  0  0  0  0  0  0  0  0  0  0
  187.7550  174.9800  141.4120 C   0  0  0  0  0  2  0  0  0  0  0  0
  187.8940  173.5930  142.0050 C   0  0  0  0  0  2  0  0  0  0  0  0
  189.8400  172.3830  140.2280 C   0  0  0  0  0  1  0  0  0  0  0  0
  189.3200  173.3770  142.4990 C   0  0  2  0  0  3  0  0  0  0  0  0
  190.3670  173.2250  141.3990 C   0  0  1  0  0  3  0  0  0  0  0  0
  192.4840  171.7890  141.2390 C   0  0  0  0  0  1  0  0  0  0  0  0
  190.8330  171.5810  143.1310 C   0  0  0  0  0  2  0  0  0  0  0  0
  189.4330  172.1330  143.3630 C   0  0  0  0  0  2  0  0  0  0  0  0
  191.4950  172.5170  142.1370 C   0  0  2  0  0  3  0  0  0  0  0  0
  1 10  1  0  0  0  0
  1 24  1  0  0  0  0
  2  7  1  0  0  0  0
  2  5  1  6  0  0  0
  3  9  2  0  0  0  0
  3  7  1  0  0  0  0
  6 11  1  0  0  0  0
  7  1  2  0  0  0  0
  8  4  1  6  0  0  0
  8 12  1  0  0  0  0
  8 25  1  0  0  0  0
  8 14  1  0  0  0  0
  9 15  1  0  0  0  0
 11  2  1  0  0  0  0
 12 13  1  0  0  0  0
 13 18  1  0  0  0  0
 13  9  1  0  0  0  0
 14  6  1  1  0  0  0
 14  3  1  0  0  0  0
 15 10  2  0  0  0  0
 16 17  1  0  0  0  0
 17 19  2  0  0  0  0
 18 21  2  0  0  0  0
 20 16  2  0  0  0  0
 20 18  1  0  0  0  0
 21 19  1  0  0  0  0
 22 16  1  0  0  0  0
 24 23  1  0  0  0  0
 26 27  1  0  0  0  0
 26 25  1  0  0  0  0
 29 27  1  6  0  0  0
 29 33  1  0  0  0  0
 30 28  1  6  0  0  0
 30 34  1  0  0  0  0
 30 29  1  0  0  0  0
 32 33  1  0  0  0  0
 34 31  1  6  0  0  0
 34 32  1  0  0  0  0
M  END
>  <MODEL>
6

>  <REMARK>
 VINA RESULT:      -6.8      2.226      4.816
  Name = 
  6 active torsions:
  status: ('A' for Active; 'I' for Inactive)
    1  A    between atoms: C_1  and  O_19
    2  A    between atoms: C_3  and  C_13
    3  A    between atoms: C_3  and  C_17
    4  A    between atoms: C_12  and  N_28
    5  A    between atoms: C_17  and  O_29
    6  A    between atoms: C_18  and  O_29
                            x       y       z     vdW  Elec       q    Type
                         _______ _______ _______ _____ _____    ______ ____

>  <TORSDO>
F 6

$$$$
=
 OpenBabel11052418413D

 34 38  0  0  1  0  0  0  0  0999 V2000
  192.4800  176.5230  144.0180 C   0  0  0  0  0  0  0  0  0  0  0  0
  192.7870  174.1160  143.2720 C   0  0  1  0  0  3  0  0  0  0  0  0
  190.5200  175.2100  143.4240 C   0  0  0  0  0  0  0  0  0  0  0  0
  187.9600  172.7730  141.8540 C   0  0  0  0  0  1  0  0  0  0  0  0
  193.5510  174.3010  141.9660 C   0  0  0  0  0  1  0  0  0  0  0  0
  190.9730  172.9620  142.4280 C   0  0  0  0  0  2  0  0  0  0  0  0
  191.9130  175.3100  143.5940 C   0  0  0  0  0  0  0  0  0  0  0  0
  188.6460  174.1060  142.1520 C   0  0  1  0  0  0  0  0  0  0  0  0
  189.6810  176.3110  143.6790 C   0  0  0  0  0  0  0  0  0  0  0  0
  191.6450  177.6240  144.2600 C   0  0  0  0  0  3  0  0  0  0  0  0
  192.0830  172.8850  143.2980 O   0  0  0  0  0  0  0  0  0  0  0  0
  187.6780  174.9100  143.0190 C   0  0  0  0  0  2  0  0  0  0  0  0
  188.2540  176.1980  143.4400 N   0  0  0  0  0  0  0  0  0  0  0  0
  189.9130  173.8980  143.0170 C   0  0  2  0  0  3  0  0  0  0  0  0
  190.2650  177.5200  144.0870 C   0  0  0  0  0  3  0  0  0  0  0  0
  185.9770  178.6540  145.1400 C   0  0  0  0  0  0  0  0  0  0  0  0
  185.5270  179.4000  144.0500 C   0  0  0  0  0  3  0  0  0  0  0  0
  187.3390  177.2890  143.6570 C   0  0  0  0  0  0  0  0  0  0  0  0
  185.9710  179.0910  142.7610 C   0  0  0  0  0  3  0  0  0  0  0  0
  186.8760  177.6010  144.9450 C   0  0  0  0  0  3  0  0  0  0  0  0
  186.8710  178.0390  142.5670 C   0  0  0  0  0  3  0  0  0  0  0  0
  185.4220  179.0400  146.7550 Cl  0  0  0  0  0  0  0  0  0  0  0  0
  194.4870  176.7350  145.4550 C   0  0  0  0  0  1  0  0  0  0  0  0
  193.8670  176.6200  144.1810 O   0  0  0  0  0  0  0  0  0  0  0  0
  188.8790  174.8640  140.9730 O   0  0  0  0  0  0  0  0  0  0  0  0
  188.3280  174.2290  139.8490 C   0  0  0  0  0  2  0  0  0  0  0  0
  189.4450  173.7910  138.9230 C   0  0  0  0  0  2  0  0  0  0  0  0
  191.3280  171.5900  139.0300 C   0  0  0  0  0  1  0  0  0  0  0  0
  189.0830  172.4690  138.2560 C   0  0  2  0  0  3  0  0  0  0  0  0
  189.8530  171.2570  138.7710 C   0  0  1  0  0  3  0  0  0  0  0  0
  190.7240  169.1560  137.5880 C   0  0  0  0  0  1  0  0  0  0  0  0
  189.7100  171.1000  136.3470 C   0  0  0  0  0  2  0  0  0  0  0  0
  189.3190  172.5130  136.7560 C   0  0  0  0  0  2  0  0  0  0  0  0
  189.6910  170.2730  137.6190 C   0  0  2  0  0  3  0  0  0  0  0  0
  1 24  1  0  0  0  0
  1 10  1  0  0  0  0
  2  5  1  6  0  0  0
  2 11  1  0  0  0  0
  2  7  1  0  0  0  0
  3  7  1  0  0  0  0
  3  9  2  0  0  0  0
  6 11  1  0  0  0  0
  7  1  2  0  0  0  0
  8  4  1  6  0  0  0
  8 14  1  0  0  0  0
  8 12  1  0  0  0  0
  9 15  1  0  0  0  0
 12 13  1  0  0  0  0
 13 18  1  0  0  0  0
 13  9  1  0  0  0  0
 14  6  1  6  0  0  0
 14  3  1  0  0  0  0
 15 10  2  0  0  0  0
 16 22  1  0  0  0  0
 17 16  2  0  0  0  0
 18 20  2  0  0  0  0
 19 17  1  0  0  0  0
 20 16  1  0  0  0  0
 21 19  2  0  0  0  0
 21 18  1  0  0  0  0
 24 23  1  0  0  0  0
 25  8  1  0  0  0  0
 26 25  1  0  0  0  0
 27 26  1  0  0  0  0
 29 30  1  0  0  0  0
 29 27  1  1  0  0  0
 30 28  1  6  0  0  0
 32 33  1  0  0  0  0
 32 34  1  0  0  0  0
 33 29  1  0  0  0  0
 34 31  1  6  0  0  0
 34 30  1  0  0  0  0
M  END
>  <MODEL>
7

>  <REMARK>
 VINA RESULT:      -6.7      3.329      7.683
  Name = 
  6 active torsions:
  status: ('A' for Active; 'I' for Inactive)
    1  A    between atoms: C_1  and  O_19
    2  A    between atoms: C_3  and  C_13
    3  A    between atoms: C_3  and  C_17
    4  A    between atoms: C_12  and  N_28
    5  A    between atoms: C_17  and  O_29
    6  A    between atoms: C_18  and  O_29
                            x       y       z     vdW  Elec       q    Type
                         _______ _______ _______ _____ _____    ______ ____

>  <TORSDO>
F 6

$$$$
=
 OpenBabel11052418413D

 34 38  0  0  1  0  0  0  0  0999 V2000
  193.9020  174.0630  140.9500 C   0  0  0  0  0  0  0  0  0  0  0  0
  192.4110  173.0410  139.1670 C   0  0  1  0  0  3  0  0  0  0  0  0
  191.5810  173.5700  141.4890 C   0  0  0  0  0  0  0  0  0  0  0  0
  187.7500  173.0460  141.4890 C   0  0  0  0  0  1  0  0  0  0  0  0
  192.3490  174.1690  138.1440 C   0  0  0  0  0  1  0  0  0  0  0  0
  190.1460  172.8460  139.5740 C   0  0  0  0  0  2  0  0  0  0  0  0
  192.6470  173.5580  140.5700 C   0  0  0  0  0  0  0  0  0  0  0  0
  189.0840  173.7280  141.7870 C   0  0  1  0  0  0  0  0  0  0  0  0
  191.7560  174.0780  142.7900 C   0  0  0  0  0  0  0  0  0  0  0  0
  194.0720  174.5800  142.2430 C   0  0  0  0  0  3  0  0  0  0  0  0
  191.2850  172.1830  139.0700 O   0  0  0  0  0  0  0  0  0  0  0  0
  189.3250  173.5760  143.2890 C   0  0  0  0  0  2  0  0  0  0  0  0
  190.6250  174.1320  143.6980 N   0  0  0  0  0  0  0  0  0  0  0  0
  190.2540  172.9860  141.0960 C   0  0  2  0  0  3  0  0  0  0  0  0
  193.0110  174.5920  143.1480 C   0  0  0  0  0  3  0  0  0  0  0  0
  191.9450  175.8750  146.7520 C   0  0  0  0  0  0  0  0  0  0  0  0
  190.9100  175.6450  147.6590 C   0  0  0  0  0  3  0  0  0  0  0  0
  190.7240  174.6580  145.0350 C   0  0  0  0  0  0  0  0  0  0  0  0
  189.7840  174.9160  147.2650 C   0  0  0  0  0  3  0  0  0  0  0  0
  191.8550  175.3810  145.4480 C   0  0  0  0  0  3  0  0  0  0  0  0
  189.6940  174.4240  145.9600 C   0  0  0  0  0  3  0  0  0  0  0  0
  193.3550  176.7880  147.2450 Cl  0  0  0  0  0  0  0  0  0  0  0  0
  195.7190  175.2140  139.7200 C   0  0  0  0  0  1  0  0  0  0  0  0
  194.9580  174.0530  140.0300 O   0  0  0  0  0  0  0  0  0  0  0  0
  189.0480  175.1210  141.5090 O   0  0  0  0  0  0  0  0  0  0  0  0
  187.7510  175.6340  141.6720 C   0  0  0  0  0  2  0  0  0  0  0  0
  187.8130  176.8920  142.5130 C   0  0  0  0  0  2  0  0  0  0  0  0
  185.3400  177.8410  143.6930 C   0  0  0  0  0  1  0  0  0  0  0  0
  187.5090  176.5620  143.9700 C   0  0  2  0  0  3  0  0  0  0  0  0
  186.0340  176.6420  144.3540 C   0  0  1  0  0  3  0  0  0  0  0  0
  184.8660  177.3870  146.5100 C   0  0  0  0  0  1  0  0  0  0  0  0
  187.3450  177.6430  146.1420 C   0  0  0  0  0  2  0  0  0  0  0  0
  188.2430  177.4910  144.9220 C   0  0  0  0  0  2  0  0  0  0  0  0
  186.1130  176.8010  145.8670 C   0  0  2  0  0  3  0  0  0  0  0  0
  1 10  1  0  0  0  0
  2  5  1  6  0  0  0
  2  7  1  0  0  0  0
  3  9  2  0  0  0  0
  7  1  2  0  0  0  0
  7  3  1  0  0  0  0
  8  4  1  6  0  0  0
  8 12  1  0  0  0  0
  9 15  1  0  0  0  0
  9 13  1  0  0  0  0
 10 15  2  0  0  0  0
 11  2  1  0  0  0  0
 11  6  1  0  0  0  0
 12 13  1  0  0  0  0
 13 18  1  0  0  0  0
 14  6  1  6  0  0  0
 14  3  1  0  0  0  0
 14  8  1  0  0  0  0
 16 22  1  0  0  0  0
 16 17  1  0  0  0  0
 18 20  1  0  0  0  0
 18 21  2  0  0  0  0
 19 17  2  0  0  0  0
 20 16  2  0  0  0  0
 21 19  1  0  0  0  0
 23 24  1  0  0  0  0
 24  1  1  0  0  0  0
 25 26  1  0  0  0  0
 25  8  1  0  0  0  0
 26 27  1  0  0  0  0
 29 27  1  6  0  0  0
 29 30  1  0  0  0  0
 29 33  1  0  0  0  0
 30 28  1  6  0  0  0
 30 34  1  0  0  0  0
 33 32  1  0  0  0  0
 34 32  1  0  0  0  0
 34 31  1  6  0  0  0
M  END
>  <MODEL>
8

>  <REMARK>
 VINA RESULT:      -6.6      3.055      7.492
  Name = 
  6 active torsions:
  status: ('A' for Active; 'I' for Inactive)
    1  A    between atoms: C_1  and  O_19
    2  A    between atoms: C_3  and  C_13
    3  A    between atoms: C_3  and  C_17
    4  A    between atoms: C_12  and  N_28
    5  A    between atoms: C_17  and  O_29
    6  A    between atoms: C_18  and  O_29
                            x       y       z     vdW  Elec       q    Type
                         _______ _______ _______ _____ _____    ______ ____

>  <TORSDO>
F 6

$$$$
=
 OpenBabel11052418413D

 34 38  0  0  1  0  0  0  0  0999 V2000
  186.4800  176.7540  142.3680 C   0  0  0  0  0  0  0  0  0  0  0  0
  185.9480  177.4350  144.7550 C   0  0  1  0  0  3  0  0  0  0  0  0
  187.7790  175.7960  144.1880 C   0  0  0  0  0  0  0  0  0  0  0  0
  189.7470  175.0980  147.4430 C   0  0  0  0  0  1  0  0  0  0  0  0
  186.3220  178.9130  144.7370 C   0  0  0  0  0  1  0  0  0  0  0  0
  187.3600  176.7630  146.4550 C   0  0  0  0  0  2  0  0  0  0  0  0
  186.7410  176.6350  143.7430 C   0  0  0  0  0  0  0  0  0  0  0  0
  189.5240  175.3950  145.9600 C   0  0  1  0  0  0  0  0  0  0  0  0
  188.5600  175.0660  143.2720 C   0  0  0  0  0  0  0  0  0  0  0  0
  187.2660  176.0360  141.4550 C   0  0  0  0  0  3  0  0  0  0  0  0
  186.0090  176.8940  146.0650 O   0  0  0  0  0  0  0  0  0  0  0  0
  189.9030  174.1230  145.2000 C   0  0  0  0  0  2  0  0  0  0  0  0
  189.6620  174.2530  143.7540 N   0  0  0  0  0  0  0  0  0  0  0  0
  188.0250  175.6340  145.6610 C   0  0  2  0  0  3  0  0  0  0  0  0
  188.2960  175.2090  141.9010 C   0  0  0  0  0  3  0  0  0  0  0  0
  191.5640  173.1640  140.7040 C   0  0  0  0  0  0  0  0  0  0  0  0
  192.1580  171.9900  141.1660 C   0  0  0  0  0  3  0  0  0  0  0  0
  190.5160  173.4980  142.8740 C   0  0  0  0  0  0  0  0  0  0  0  0
  191.9300  171.5590  142.4760 C   0  0  0  0  0  3  0  0  0  0  0  0
  190.7430  173.9140  141.5520 C   0  0  0  0  0  3  0  0  0  0  0  0
  191.1110  172.3090  143.3240 C   0  0  0  0  0  3  0  0  0  0  0  0
  191.8500  173.7050  139.0640 Cl  0  0  0  0  0  0  0  0  0  0  0  0
  185.3940  178.1220  140.6100 C   0  0  0  0  0  1  0  0  0  0  0  0
  185.4490  177.5950  141.9290 O   0  0  0  0  0  0  0  0  0  0  0  0
  190.3730  176.4320  145.4880 O   0  0  0  0  0  0  0  0  0  0  0  0
  191.5220  176.5460  146.2860 C   0  0  0  0  0  2  0  0  0  0  0  0
  192.7430  176.6420  145.3950 C   0  0  0  0  0  2  0  0  0  0  0  0
  195.2340  175.3010  146.0300 C   0  0  0  0  0  1  0  0  0  0  0  0
  193.0390  175.2850  144.7660 C   0  0  2  0  0  3  0  0  0  0  0  0
  194.0730  174.4440  145.5090 C   0  0  1  0  0  3  0  0  0  0  0  0
  195.8800  172.8280  144.6760 C   0  0  0  0  0  1  0  0  0  0  0  0
  194.5100  174.2630  143.1220 C   0  0  0  0  0  2  0  0  0  0  0  0
  193.5530  175.4250  143.3430 C   0  0  0  0  0  2  0  0  0  0  0  0
  194.5290  173.4790  144.4220 C   0  0  2  0  0  3  0  0  0  0  0  0
  1  7  1  0  0  0  0
  2  5  1  1  0  0  0
  2 11  1  0  0  0  0
  3 14  1  0  0  0  0
  7  3  2  0  0  0  0
  7  2  1  0  0  0  0
  8  4  1  1  0  0  0
  9 13  1  0  0  0  0
  9  3  1  0  0  0  0
 10 15  1  0  0  0  0
 10  1  2  0  0  0  0
 11  6  1  0  0  0  0
 12  8  1  0  0  0  0
 13 12  1  0  0  0  0
 14  8  1  0  0  0  0
 14  6  1  1  0  0  0
 15  9  2  0  0  0  0
 16 17  2  0  0  0  0
 16 20  1  0  0  0  0
 17 19  1  0  0  0  0
 18 21  1  0  0  0  0
 18 13  1  0  0  0  0
 19 21  2  0  0  0  0
 20 18  2  0  0  0  0
 22 16  1  0  0  0  0
 23 24  1  0  0  0  0
 24  1  1  0  0  0  0
 25  8  1  0  0  0  0
 25 26  1  0  0  0  0
 27 26  1  0  0  0  0
 29 27  1  1  0  0  0
 29 30  1  0  0  0  0
 30 28  1  6  0  0  0
 32 33  1  0  0  0  0
 32 34  1  0  0  0  0
 33 29  1  0  0  0  0
 34 31  1  1  0  0  0
 34 30  1  0  0  0  0
M  END
>  <MODEL>
9

>  <REMARK>
 VINA RESULT:      -6.6      1.273      1.560
  Name = 
  6 active torsions:
  status: ('A' for Active; 'I' for Inactive)
    1  A    between atoms: C_1  and  O_19
    2  A    between atoms: C_3  and  C_13
    3  A    between atoms: C_3  and  C_17
    4  A    between atoms: C_12  and  N_28
    5  A    between atoms: C_17  and  O_29
    6  A    between atoms: C_18  and  O_29
                            x       y       z     vdW  Elec       q    Type
                         _______ _______ _______ _____ _____    ______ ____

>  <TORSDO>
F 6

$$$$
