=
 OpenBabel11052418263D

 27 30  0  0  1  0  0  0  0  0999 V2000
  188.5140  176.2420  144.7270 C   0  0  0  0  0  0  0  0  0  0  0  0
  190.1470  173.7630  141.6260 C   0  0  0  0  0  2  0  0  0  0  0  0
  189.4890  172.4150  141.6980 C   0  0  0  0  0  3  0  0  0  0  0  0
  187.9820  176.1240  143.5460 N   0  0  0  0  0  0  0  0  0  0  0  0
  189.6870  173.1750  144.7330 C   0  0  0  0  0  2  0  0  0  0  0  0
  190.2950  171.9610  144.0340 C   0  0  0  0  0  2  0  0  0  0  0  0
  190.1940  174.4700  144.1040 C   0  0  1  0  0  3  0  0  0  0  0  0
  187.8730  177.0130  145.7540 N   0  0  0  0  0  2  0  0  0  0  0  0
  189.5540  171.6130  142.7720 C   0  0  0  0  0  3  0  0  0  0  0  0
  189.6380  174.6440  142.7180 C   0  0  0  0  0  0  0  0  0  0  0  0
  189.8760  175.6660  145.0040 C   0  0  1  0  0  3  0  0  0  0  0  0
  188.5840  175.3770  142.5150 N   0  0  0  0  0  0  0  0  0  0  0  0
  184.0630  178.8670  145.6280 C   0  0  0  0  0  3  0  0  0  0  0  0
  186.5950  177.6600  145.6940 C   0  0  0  0  0  0  0  0  0  0  0  0
  186.3440  178.7380  144.8300 C   0  0  0  0  0  3  0  0  0  0  0  0
  185.0830  179.3400  144.7980 C   0  0  0  0  0  3  0  0  0  0  0  0
  184.3050  177.7920  146.4890 C   0  0  0  0  0  3  0  0  0  0  0  0
  185.5670  177.1920  146.5200 C   0  0  0  0  0  3  0  0  0  0  0  0
  190.8920  176.6940  144.8180 N   0  0  0  0  0  2  0  0  0  0  0  0
  191.7500  176.5600  147.8810 Cl  0  0  0  0  0  0  0  0  0  0  0  0
  194.5520  176.3060  144.3250 C   0  0  0  0  0  0  0  0  0  0  0  0
  195.5080  176.1790  143.1960 C   0  0  0  0  0  1  0  0  0  0  0  0
  192.7860  176.5310  146.4620 C   0  0  0  0  0  0  0  0  0  0  0  0
  193.1850  176.4270  144.0800 C   0  0  0  0  0  3  0  0  0  0  0  0
  195.0100  176.3050  145.6400 C   0  0  0  0  0  3  0  0  0  0  0  0
  194.1270  176.4110  146.6670 N   0  0  0  0  0  0  0  0  0  0  0  0
  192.2830  176.5580  145.1380 C   0  0  0  0  0  0  0  0  0  0  0  0
  1 11  1  0  0  0  0
  1  8  1  0  0  0  0
  2  3  1  0  0  0  0
  2 10  1  0  0  0  0
  3  9  2  0  0  0  0
  4  1  2  0  0  0  0
  6  5  1  0  0  0  0
  7  5  1  1  0  0  0
  7 11  1  0  0  0  0
  9  6  1  0  0  0  0
 10  7  1  0  0  0  0
 11 19  1  6  0  0  0
 12 10  2  0  0  0  0
 12  4  1  0  0  0  0
 13 17  1  0  0  0  0
 14  8  1  0  0  0  0
 14 18  1  0  0  0  0
 15 14  2  0  0  0  0
 16 15  1  0  0  0  0
 16 13  2  0  0  0  0
 17 18  2  0  0  0  0
 19 27  1  0  0  0  0
 21 25  1  0  0  0  0
 22 21  1  0  0  0  0
 23 26  1  0  0  0  0
 23 20  1  0  0  0  0
 24 21  2  0  0  0  0
 24 27  1  0  0  0  0
 25 26  2  0  0  0  0
 27 23  2  0  0  0  0
M  END
>  <MODEL>
1

>  <REMARK>
 VINA RESULT:      -8.1      0.000      0.000
  Name = 
  3 active torsions:
  status: ('A' for Active; 'I' for Inactive)
    1  A    between atoms: N_3  and  C_19
    2  A    between atoms: N_3  and  C_26
    3  A    between atoms: C_9  and  N_15
                            x       y       z     vdW  Elec       q    Type
                         _______ _______ _______ _____ _____    ______ ____

>  <TORSDO>
F 3

$$$$
=
 OpenBabel11052418263D

 27 30  0  0  1  0  0  0  0  0999 V2000
  188.8320  176.1100  144.7780 C   0  0  0  0  0  0  0  0  0  0  0  0
  192.5350  174.9620  146.6210 C   0  0  0  0  0  2  0  0  0  0  0  0
  193.4250  176.1690  146.6940 C   0  0  0  0  0  3  0  0  0  0  0  0
  189.0630  176.2130  146.0540 N   0  0  0  0  0  0  0  0  0  0  0  0
  191.9680  176.6320  143.9570 C   0  0  0  0  0  2  0  0  0  0  0  0
  193.4690  176.4930  144.2020 C   0  0  0  0  0  2  0  0  0  0  0  0
  191.2250  175.3920  144.4440 C   0  0  1  0  0  3  0  0  0  0  0  0
  187.6090  176.5940  144.2050 N   0  0  0  0  0  2  0  0  0  0  0  0
  193.8400  176.8530  145.6150 C   0  0  0  0  0  3  0  0  0  0  0  0
  191.2510  175.3090  145.9460 C   0  0  0  0  0  0  0  0  0  0  0  0
  189.7970  175.3680  143.8930 C   0  0  1  0  0  3  0  0  0  0  0  0
  190.2500  175.7480  146.6490 N   0  0  0  0  0  0  0  0  0  0  0  0
  184.5150  178.7640  146.1260 C   0  0  0  0  0  3  0  0  0  0  0  0
  186.5530  177.3040  144.8660 C   0  0  0  0  0  0  0  0  0  0  0  0
  185.7110  176.6840  145.8030 C   0  0  0  0  0  3  0  0  0  0  0  0
  184.6950  177.4120  146.4300 C   0  0  0  0  0  3  0  0  0  0  0  0
  185.3510  179.3870  145.1950 C   0  0  0  0  0  3  0  0  0  0  0  0
  186.3660  178.6580  144.5690 C   0  0  0  0  0  3  0  0  0  0  0  0
  189.3620  173.9870  143.7380 N   0  0  0  0  0  2  0  0  0  0  0  0
  191.6070  171.7580  144.1000 Cl  0  0  0  0  0  0  0  0  0  0  0  0
  189.1810  172.4990  140.3410 C   0  0  0  0  0  0  0  0  0  0  0  0
  188.3880  172.6750  139.0980 C   0  0  0  0  0  1  0  0  0  0  0  0
  190.6780  172.1390  142.6570 C   0  0  0  0  0  0  0  0  0  0  0  0
  188.9200  173.2880  141.4600 C   0  0  0  0  0  3  0  0  0  0  0  0
  190.1940  171.5450  140.4030 C   0  0  0  0  0  3  0  0  0  0  0  0
  190.9070  171.3840  141.5470 N   0  0  0  0  0  0  0  0  0  0  0  0
  189.6710  173.1340  142.6280 C   0  0  0  0  0  0  0  0  0  0  0  0
  1  4  2  0  0  0  0
  2  3  1  0  0  0  0
  4 12  1  0  0  0  0
  5  6  1  0  0  0  0
  6  9  1  0  0  0  0
  7  5  1  1  0  0  0
  7 10  1  0  0  0  0
  8  1  1  0  0  0  0
  8 14  1  0  0  0  0
  9  3  2  0  0  0  0
 10  2  1  0  0  0  0
 10 12  2  0  0  0  0
 11 19  1  1  0  0  0
 11  7  1  0  0  0  0
 11  1  1  0  0  0  0
 13 16  1  0  0  0  0
 14 15  1  0  0  0  0
 15 16  2  0  0  0  0
 17 13  2  0  0  0  0
 18 14  2  0  0  0  0
 18 17  1  0  0  0  0
 21 25  2  0  0  0  0
 21 24  1  0  0  0  0
 22 21  1  0  0  0  0
 23 20  1  0  0  0  0
 24 27  2  0  0  0  0
 25 26  1  0  0  0  0
 26 23  2  0  0  0  0
 27 23  1  0  0  0  0
 27 19  1  0  0  0  0
M  END
>  <MODEL>
2

>  <REMARK>
 VINA RESULT:      -7.8      1.958      5.024
  Name = 
  3 active torsions:
  status: ('A' for Active; 'I' for Inactive)
    1  A    between atoms: N_3  and  C_19
    2  A    between atoms: N_3  and  C_26
    3  A    between atoms: C_9  and  N_15
                            x       y       z     vdW  Elec       q    Type
                         _______ _______ _______ _____ _____    ______ ____

>  <TORSDO>
F 3

$$$$
=
 OpenBabel11052418263D

 27 30  0  0  1  0  0  0  0  0999 V2000
  189.1820  175.3300  142.7930 C   0  0  0  0  0  0  0  0  0  0  0  0
  192.1460  176.9120  145.4640 C   0  0  0  0  0  2  0  0  0  0  0  0
  192.6780  175.7870  146.3050 C   0  0  0  0  0  3  0  0  0  0  0  0
  190.4540  175.3530  142.5230 N   0  0  0  0  0  0  0  0  0  0  0  0
  189.6610  174.9830  146.0220 C   0  0  0  0  0  2  0  0  0  0  0  0
  190.4360  175.2570  147.3100 C   0  0  0  0  0  2  0  0  0  0  0  0
  189.6960  176.1990  145.1020 C   0  0  1  0  0  3  0  0  0  0  0  0
  188.2470  174.7050  141.9010 N   0  0  0  0  0  2  0  0  0  0  0  0
  191.9150  175.0490  147.1270 C   0  0  0  0  0  3  0  0  0  0  0  0
  191.0790  176.4110  144.5490 C   0  0  0  0  0  0  0  0  0  0  0  0
  188.6500  176.0660  143.9930 C   0  0  1  0  0  3  0  0  0  0  0  0
  191.3980  175.9580  143.3740 N   0  0  0  0  0  0  0  0  0  0  0  0
  189.0570  172.6050  138.3090 C   0  0  0  0  0  3  0  0  0  0  0  0
  188.5350  173.9750  140.7010 C   0  0  0  0  0  0  0  0  0  0  0  0
  189.1300  172.7040  140.7260 C   0  0  0  0  0  3  0  0  0  0  0  0
  189.3910  172.0220  139.5330 C   0  0  0  0  0  3  0  0  0  0  0  0
  188.4620  173.8700  138.2770 C   0  0  0  0  0  3  0  0  0  0  0  0
  188.2020  174.5500  139.4700 C   0  0  0  0  0  3  0  0  0  0  0  0
  188.1950  177.3910  143.5960 N   0  0  0  0  0  2  0  0  0  0  0  0
  186.8480  177.7330  140.7310 Cl  0  0  0  0  0  0  0  0  0  0  0  0
  184.8120  178.4240  144.7230 C   0  0  0  0  0  0  0  0  0  0  0  0
  184.0860  178.6270  146.0030 C   0  0  0  0  0  1  0  0  0  0  0  0
  186.1380  178.0440  142.3080 C   0  0  0  0  0  0  0  0  0  0  0  0
  186.1380  177.9990  144.7250 C   0  0  0  0  0  3  0  0  0  0  0  0
  184.1740  178.6570  143.5070 C   0  0  0  0  0  3  0  0  0  0  0  0
  184.8410  178.4590  142.3410 N   0  0  0  0  0  0  0  0  0  0  0  0
  186.8280  177.8170  143.5240 C   0  0  0  0  0  0  0  0  0  0  0  0
  1 11  1  0  0  0  0
  2  3  1  0  0  0  0
  3  9  2  0  0  0  0
  4  1  2  0  0  0  0
  4 12  1  0  0  0  0
  5  6  1  0  0  0  0
  7  5  1  6  0  0  0
  8  1  1  0  0  0  0
  9  6  1  0  0  0  0
 10  7  1  0  0  0  0
 10  2  1  0  0  0  0
 11 19  1  6  0  0  0
 11  7  1  0  0  0  0
 12 10  2  0  0  0  0
 13 16  1  0  0  0  0
 14 15  1  0  0  0  0
 14  8  1  0  0  0  0
 16 15  2  0  0  0  0
 17 13  2  0  0  0  0
 17 18  1  0  0  0  0
 18 14  2  0  0  0  0
 20 23  1  0  0  0  0
 21 24  1  0  0  0  0
 21 22  1  0  0  0  0
 23 26  2  0  0  0  0
 23 27  1  0  0  0  0
 25 21  2  0  0  0  0
 26 25  1  0  0  0  0
 27 19  1  0  0  0  0
 27 24  2  0  0  0  0
M  END
>  <MODEL>
3

>  <REMARK>
 VINA RESULT:      -7.8      2.587      7.183
  Name = 
  3 active torsions:
  status: ('A' for Active; 'I' for Inactive)
    1  A    between atoms: N_3  and  C_19
    2  A    between atoms: N_3  and  C_26
    3  A    between atoms: C_9  and  N_15
                            x       y       z     vdW  Elec       q    Type
                         _______ _______ _______ _____ _____    ______ ____

>  <TORSDO>
F 3

$$$$
=
 OpenBabel11052418263D

 27 30  0  0  1  0  0  0  0  0999 V2000
  188.8340  175.8180  145.7530 C   0  0  0  0  0  0  0  0  0  0  0  0
  190.6610  174.1600  142.2400 C   0  0  0  0  0  2  0  0  0  0  0  0
  189.9030  172.9240  141.8480 C   0  0  0  0  0  3  0  0  0  0  0  0
  188.4480  176.0970  144.5420 N   0  0  0  0  0  0  0  0  0  0  0  0
  189.7730  172.7700  144.9760 C   0  0  0  0  0  2  0  0  0  0  0  0
  190.3750  171.7450  144.0160 C   0  0  0  0  0  2  0  0  0  0  0  0
  190.4470  174.1280  144.8080 C   0  0  1  0  0  3  0  0  0  0  0  0
  188.1260  176.3310  146.8910 N   0  0  0  0  0  2  0  0  0  0  0  0
  189.7750  171.8490  142.6400 C   0  0  0  0  0  3  0  0  0  0  0  0
  190.0830  174.7450  143.4860 C   0  0  0  0  0  0  0  0  0  0  0  0
  190.1060  175.0470  145.9830 C   0  0  1  0  0  3  0  0  0  0  0  0
  189.1190  175.6120  143.4030 N   0  0  0  0  0  0  0  0  0  0  0  0
  184.5850  178.6600  146.9600 C   0  0  0  0  0  3  0  0  0  0  0  0
  186.9160  177.1000  146.8970 C   0  0  0  0  0  0  0  0  0  0  0  0
  185.7310  176.6300  146.3090 C   0  0  0  0  0  3  0  0  0  0  0  0
  184.5700  177.4080  146.3400 C   0  0  0  0  0  3  0  0  0  0  0  0
  185.7610  179.1330  147.5500 C   0  0  0  0  0  3  0  0  0  0  0  0
  186.9210  178.3530  147.5180 C   0  0  0  0  0  3  0  0  0  0  0  0
  191.2080  175.9720  146.2090 N   0  0  0  0  0  2  0  0  0  0  0  0
  191.6940  177.9410  143.7550 Cl  0  0  0  0  0  0  0  0  0  0  0  0
  194.7030  174.9910  145.4290 C   0  0  0  0  0  0  0  0  0  0  0  0
  195.7380  174.0690  145.9630 C   0  0  0  0  0  1  0  0  0  0  0  0
  192.7900  176.7340  144.4110 C   0  0  0  0  0  0  0  0  0  0  0  0
  193.4560  175.0800  146.0440 C   0  0  0  0  0  3  0  0  0  0  0  0
  194.9680  175.7760  144.3100 C   0  0  0  0  0  3  0  0  0  0  0  0
  194.0190  176.6240  143.8340 N   0  0  0  0  0  0  0  0  0  0  0  0
  192.4750  175.9370  145.5390 C   0  0  0  0  0  0  0  0  0  0  0  0
  1 11  1  0  0  0  0
  1  8  1  0  0  0  0
  2 10  1  0  0  0  0
  3  2  1  0  0  0  0
  3  9  2  0  0  0  0
  4  1  2  0  0  0  0
  6  5  1  0  0  0  0
  7  5  1  1  0  0  0
  7 11  1  0  0  0  0
  8 14  1  0  0  0  0
  9  6  1  0  0  0  0
 10  7  1  0  0  0  0
 11 19  1  6  0  0  0
 12 10  2  0  0  0  0
 12  4  1  0  0  0  0
 13 17  1  0  0  0  0
 14 18  1  0  0  0  0
 15 16  1  0  0  0  0
 15 14  2  0  0  0  0
 16 13  2  0  0  0  0
 18 17  2  0  0  0  0
 20 23  1  0  0  0  0
 21 22  1  0  0  0  0
 21 24  1  0  0  0  0
 23 27  1  0  0  0  0
 25 21  2  0  0  0  0
 26 25  1  0  0  0  0
 26 23  2  0  0  0  0
 27 24  2  0  0  0  0
 27 19  1  0  0  0  0
M  END
>  <MODEL>
4

>  <REMARK>
 VINA RESULT:      -7.6      1.530      1.865
  Name = 
  3 active torsions:
  status: ('A' for Active; 'I' for Inactive)
    1  A    between atoms: N_3  and  C_19
    2  A    between atoms: N_3  and  C_26
    3  A    between atoms: C_9  and  N_15
                            x       y       z     vdW  Elec       q    Type
                         _______ _______ _______ _____ _____    ______ ____

>  <TORSDO>
F 3

$$$$
=
 OpenBabel11052418263D

 27 30  0  0  1  0  0  0  0  0999 V2000
  188.8270  176.1300  144.7240 C   0  0  0  0  0  0  0  0  0  0  0  0
  192.5330  174.9120  146.5140 C   0  0  0  0  0  2  0  0  0  0  0  0
  193.4400  176.1070  146.5900 C   0  0  0  0  0  3  0  0  0  0  0  0
  189.0720  176.2160  145.9980 N   0  0  0  0  0  0  0  0  0  0  0  0
  191.9600  176.6180  143.8740 C   0  0  0  0  0  2  0  0  0  0  0  0
  193.4620  176.4570  144.1020 C   0  0  0  0  0  2  0  0  0  0  0  0
  191.2060  175.3830  144.3560 C   0  0  1  0  0  3  0  0  0  0  0  0
  187.6040  176.6370  144.1690 N   0  0  0  0  0  2  0  0  0  0  0  0
  193.8530  176.7960  145.5140 C   0  0  0  0  0  3  0  0  0  0  0  0
  191.2470  175.2830  145.8560 C   0  0  0  0  0  0  0  0  0  0  0  0
  189.7720  175.3840  143.8200 C   0  0  1  0  0  3  0  0  0  0  0  0
  190.2600  175.7280  146.5760 N   0  0  0  0  0  0  0  0  0  0  0  0
  184.5550  178.8250  146.1410 C   0  0  0  0  0  3  0  0  0  0  0  0
  186.5650  177.3530  144.8490 C   0  0  0  0  0  0  0  0  0  0  0  0
  185.8000  176.7670  145.8710 C   0  0  0  0  0  3  0  0  0  0  0  0
  184.7980  177.5010  146.5130 C   0  0  0  0  0  3  0  0  0  0  0  0
  185.3140  179.4160  145.1260 C   0  0  0  0  0  3  0  0  0  0  0  0
  186.3160  178.6800  144.4850 C   0  0  0  0  0  3  0  0  0  0  0  0
  189.3160  174.0110  143.6560 N   0  0  0  0  0  2  0  0  0  0  0  0
  188.1930  175.0330  140.8580 Cl  0  0  0  0  0  0  0  0  0  0  0  0
  190.4870  171.1840  141.5530 C   0  0  0  0  0  0  0  0  0  0  0  0
  191.2670  169.9310  141.7180 C   0  0  0  0  0  1  0  0  0  0  0  0
  189.0310  173.5280  141.2060 C   0  0  0  0  0  0  0  0  0  0  0  0
  190.2640  172.0240  142.6420 C   0  0  0  0  0  3  0  0  0  0  0  0
  189.9710  171.5330  140.3070 C   0  0  0  0  0  3  0  0  0  0  0  0
  189.2670  172.6860  140.1620 N   0  0  0  0  0  0  0  0  0  0  0  0
  189.5220  173.1980  142.4930 C   0  0  0  0  0  0  0  0  0  0  0  0
  1  4  2  0  0  0  0
  2  3  1  0  0  0  0
  4 12  1  0  0  0  0
  5  6  1  0  0  0  0
  6  9  1  0  0  0  0
  7  5  1  1  0  0  0
  7 10  1  0  0  0  0
  8  1  1  0  0  0  0
  8 14  1  0  0  0  0
  9  3  2  0  0  0  0
 10  2  1  0  0  0  0
 10 12  2  0  0  0  0
 11 19  1  1  0  0  0
 11  7  1  0  0  0  0
 11  1  1  0  0  0  0
 13 16  1  0  0  0  0
 14 15  1  0  0  0  0
 15 16  2  0  0  0  0
 17 13  2  0  0  0  0
 18 14  2  0  0  0  0
 18 17  1  0  0  0  0
 20 23  1  0  0  0  0
 21 22  1  0  0  0  0
 21 24  1  0  0  0  0
 23 27  1  0  0  0  0
 25 21  2  0  0  0  0
 26 25  1  0  0  0  0
 26 23  2  0  0  0  0
 27 24  2  0  0  0  0
 27 19  1  0  0  0  0
M  END
>  <MODEL>
5

>  <REMARK>
 VINA RESULT:      -7.6      2.103      5.107
  Name = 
  3 active torsions:
  status: ('A' for Active; 'I' for Inactive)
    1  A    between atoms: N_3  and  C_19
    2  A    between atoms: N_3  and  C_26
    3  A    between atoms: C_9  and  N_15
                            x       y       z     vdW  Elec       q    Type
                         _______ _______ _______ _____ _____    ______ ____

>  <TORSDO>
F 3

$$$$
=
 OpenBabel11052418263D

 27 30  0  0  1  0  0  0  0  0999 V2000
  189.1420  175.3660  142.9780 C   0  0  0  0  0  0  0  0  0  0  0  0
  192.0990  177.0140  145.6180 C   0  0  0  0  0  2  0  0  0  0  0  0
  192.6790  175.8980  146.4390 C   0  0  0  0  0  3  0  0  0  0  0  0
  190.4090  175.4320  142.6880 N   0  0  0  0  0  0  0  0  0  0  0  0
  189.6850  175.0030  146.1960 C   0  0  0  0  0  2  0  0  0  0  0  0
  190.4710  175.2890  147.4730 C   0  0  0  0  0  2  0  0  0  0  0  0
  189.6670  176.2280  145.2870 C   0  0  1  0  0  3  0  0  0  0  0  0
  188.2130  174.7210  142.0950 N   0  0  0  0  0  2  0  0  0  0  0  0
  191.9530  175.1280  147.2650 C   0  0  0  0  0  3  0  0  0  0  0  0
  191.0330  176.4890  144.7150 C   0  0  0  0  0  0  0  0  0  0  0  0
  188.6070  176.0730  144.1940 C   0  0  1  0  0  3  0  0  0  0  0  0
  191.3470  176.0570  143.5300 N   0  0  0  0  0  0  0  0  0  0  0  0
  189.1160  172.5680  138.5570 C   0  0  0  0  0  3  0  0  0  0  0  0
  188.5040  174.0130  140.8830 C   0  0  0  0  0  0  0  0  0  0  0  0
  188.1920  174.5370  139.6190 C   0  0  0  0  0  3  0  0  0  0  0  0
  188.4960  173.8160  138.4600 C   0  0  0  0  0  3  0  0  0  0  0  0
  189.4310  172.0410  139.8130 C   0  0  0  0  0  3  0  0  0  0  0  0
  189.1260  172.7630  140.9700 C   0  0  0  0  0  3  0  0  0  0  0  0
  188.1050  177.3880  143.8180 N   0  0  0  0  0  2  0  0  0  0  0  0
  186.2520  177.9400  146.3470 Cl  0  0  0  0  0  0  0  0  0  0  0  0
  184.9580  178.1660  142.0080 C   0  0  0  0  0  0  0  0  0  0  0  0
  184.4920  178.2910  140.6030 C   0  0  0  0  0  1  0  0  0  0  0  0
  185.8000  177.9480  144.6490 C   0  0  0  0  0  0  0  0  0  0  0  0
  186.2880  177.8540  142.2830 C   0  0  0  0  0  3  0  0  0  0  0  0
  184.0710  178.3580  143.0640 C   0  0  0  0  0  3  0  0  0  0  0  0
  184.5080  178.2510  144.3460 N   0  0  0  0  0  0  0  0  0  0  0  0
  186.7280  177.7240  143.6020 C   0  0  0  0  0  0  0  0  0  0  0  0
  1 11  1  0  0  0  0
  2  3  1  0  0  0  0
  3  9  2  0  0  0  0
  4  1  2  0  0  0  0
  4 12  1  0  0  0  0
  5  6  1  0  0  0  0
  7  5  1  6  0  0  0
  8  1  1  0  0  0  0
  9  6  1  0  0  0  0
 10  7  1  0  0  0  0
 10  2  1  0  0  0  0
 11 19  1  6  0  0  0
 11  7  1  0  0  0  0
 12 10  2  0  0  0  0
 13 17  1  0  0  0  0
 14 18  1  0  0  0  0
 14  8  1  0  0  0  0
 15 14  2  0  0  0  0
 16 13  2  0  0  0  0
 16 15  1  0  0  0  0
 17 18  2  0  0  0  0
 21 24  2  0  0  0  0
 21 25  1  0  0  0  0
 22 21  1  0  0  0  0
 23 20  1  0  0  0  0
 24 27  1  0  0  0  0
 25 26  2  0  0  0  0
 26 23  1  0  0  0  0
 27 19  1  0  0  0  0
 27 23  2  0  0  0  0
M  END
>  <MODEL>
6

>  <REMARK>
 VINA RESULT:      -7.5      2.408      6.941
  Name = 
  3 active torsions:
  status: ('A' for Active; 'I' for Inactive)
    1  A    between atoms: N_3  and  C_19
    2  A    between atoms: N_3  and  C_26
    3  A    between atoms: C_9  and  N_15
                            x       y       z     vdW  Elec       q    Type
                         _______ _______ _______ _____ _____    ______ ____

>  <TORSDO>
F 3

$$$$
=
 OpenBabel11052418263D

 27 30  0  0  1  0  0  0  0  0999 V2000
  189.5760  175.6250  144.2390 C   0  0  0  0  0  0  0  0  0  0  0  0
  186.9450  177.2930  147.1920 C   0  0  0  0  0  2  0  0  0  0  0  0
  185.5330  177.1700  146.6960 C   0  0  0  0  0  3  0  0  0  0  0  0
  189.0080  174.9230  145.1760 N   0  0  0  0  0  0  0  0  0  0  0  0
  187.0820  177.7500  144.0340 C   0  0  0  0  0  2  0  0  0  0  0  0
  185.9520  178.5710  144.6530 C   0  0  0  0  0  2  0  0  0  0  0  0
  188.2560  177.6330  145.0000 C   0  0  1  0  0  3  0  0  0  0  0  0
  190.3730  174.9980  143.2250 N   0  0  0  0  0  2  0  0  0  0  0  0
  185.0910  177.7390  145.5630 C   0  0  0  0  0  3  0  0  0  0  0  0
  187.8970  176.7630  146.1740 C   0  0  0  0  0  0  0  0  0  0  0  0
  189.5050  177.1280  144.2720 C   0  0  1  0  0  3  0  0  0  0  0  0
  188.2210  175.5050  146.1880 N   0  0  0  0  0  0  0  0  0  0  0  0
  191.0940  170.8580  142.6670 C   0  0  0  0  0  3  0  0  0  0  0  0
  190.5920  173.5950  143.0240 C   0  0  0  0  0  0  0  0  0  0  0  0
  189.7010  172.8000  142.2850 C   0  0  0  0  0  3  0  0  0  0  0  0
  189.9520  171.4360  142.1090 C   0  0  0  0  0  3  0  0  0  0  0  0
  191.9860  171.6440  143.4030 C   0  0  0  0  0  3  0  0  0  0  0  0
  191.7340  173.0080  143.5780 C   0  0  0  0  0  3  0  0  0  0  0  0
  190.6930  177.6630  144.9240 N   0  0  0  0  0  2  0  0  0  0  0  0
  191.0770  176.3270  147.7880 Cl  0  0  0  0  0  0  0  0  0  0  0  0
  194.0140  176.1090  144.3400 C   0  0  0  0  0  0  0  0  0  0  0  0
  194.9930  175.9740  143.2310 C   0  0  0  0  0  1  0  0  0  0  0  0
  192.1990  176.3340  146.4350 C   0  0  0  0  0  0  0  0  0  0  0  0
  192.8170  176.7950  144.1430 C   0  0  0  0  0  3  0  0  0  0  0  0
  194.2820  175.5510  145.5880 C   0  0  0  0  0  3  0  0  0  0  0  0
  193.3770  175.6700  146.5940 N   0  0  0  0  0  0  0  0  0  0  0  0
  191.8990  176.9330  145.1870 C   0  0  0  0  0  0  0  0  0  0  0  0
  1 11  1  0  0  0  0
  1  4  2  0  0  0  0
  3  2  1  0  0  0  0
  4 12  1  0  0  0  0
  5  6  1  0  0  0  0
  6  9  1  0  0  0  0
  7  5  1  6  0  0  0
  7 10  1  0  0  0  0
  8  1  1  0  0  0  0
  9  3  2  0  0  0  0
 10 12  2  0  0  0  0
 10  2  1  0  0  0  0
 11 19  1  1  0  0  0
 11  7  1  0  0  0  0
 13 17  1  0  0  0  0
 14  8  1  0  0  0  0
 14 18  1  0  0  0  0
 15 14  2  0  0  0  0
 16 15  1  0  0  0  0
 16 13  2  0  0  0  0
 17 18  2  0  0  0  0
 19 27  1  0  0  0  0
 21 25  1  0  0  0  0
 22 21  1  0  0  0  0
 23 26  1  0  0  0  0
 23 20  1  0  0  0  0
 24 21  2  0  0  0  0
 24 27  1  0  0  0  0
 25 26  2  0  0  0  0
 27 23  2  0  0  0  0
M  END
>  <MODEL>
7

>  <REMARK>
 VINA RESULT:      -7.0      1.269      5.550
  Name = 
  3 active torsions:
  status: ('A' for Active; 'I' for Inactive)
    1  A    between atoms: N_3  and  C_19
    2  A    between atoms: N_3  and  C_26
    3  A    between atoms: C_9  and  N_15
                            x       y       z     vdW  Elec       q    Type
                         _______ _______ _______ _____ _____    ______ ____

>  <TORSDO>
F 3

$$$$
=
 OpenBabel11052418263D

 27 30  0  0  1  0  0  0  0  0999 V2000
  188.6490  176.4760  143.4320 C   0  0  0  0  0  0  0  0  0  0  0  0
  186.3290  177.4260  146.9160 C   0  0  0  0  0  2  0  0  0  0  0  0
  184.8860  177.5340  146.5130 C   0  0  0  0  0  3  0  0  0  0  0  0
  188.0790  175.5800  144.1830 N   0  0  0  0  0  0  0  0  0  0  0  0
  186.3290  178.7280  143.9990 C   0  0  0  0  0  2  0  0  0  0  0  0
  185.3050  179.4150  144.9010 C   0  0  0  0  0  2  0  0  0  0  0  0
  187.5410  178.2750  144.8070 C   0  0  1  0  0  3  0  0  0  0  0  0
  189.3360  176.1050  142.2280 N   0  0  0  0  0  2  0  0  0  0  0  0
  184.4310  178.4200  145.6130 C   0  0  0  0  0  3  0  0  0  0  0  0
  187.1770  177.1390  145.7230 C   0  0  0  0  0  0  0  0  0  0  0  0
  188.7020  177.9120  143.8770 C   0  0  1  0  0  3  0  0  0  0  0  0
  187.3980  175.9080  145.3710 N   0  0  0  0  0  0  0  0  0  0  0  0
  189.6840  172.2400  140.5200 C   0  0  0  0  0  3  0  0  0  0  0  0
  189.4280  174.8010  141.6390 C   0  0  0  0  0  0  0  0  0  0  0  0
  188.4830  174.3330  140.7120 C   0  0  0  0  0  3  0  0  0  0  0  0
  188.6100  173.0570  140.1560 C   0  0  0  0  0  3  0  0  0  0  0  0
  190.6300  172.7010  141.4410 C   0  0  0  0  0  3  0  0  0  0  0  0
  190.5010  173.9780  141.9960 C   0  0  0  0  0  3  0  0  0  0  0  0
  189.9640  178.1710  144.5580 N   0  0  0  0  0  2  0  0  0  0  0  0
  192.3930  177.1650  142.7620 Cl  0  0  0  0  0  0  0  0  0  0  0  0
  191.4370  175.7580  146.9650 C   0  0  0  0  0  0  0  0  0  0  0  0
  191.1910  175.2910  148.3530 C   0  0  0  0  0  1  0  0  0  0  0  0
  191.9310  176.6180  144.3670 C   0  0  0  0  0  0  0  0  0  0  0  0
  190.6240  176.7370  146.3970 C   0  0  0  0  0  3  0  0  0  0  0  0
  192.4830  175.2230  146.2160 C   0  0  0  0  0  3  0  0  0  0  0  0
  192.7070  175.6630  144.9510 N   0  0  0  0  0  0  0  0  0  0  0  0
  190.8450  177.1710  145.0880 C   0  0  0  0  0  0  0  0  0  0  0  0
  1 11  1  0  0  0  0
  1  4  2  0  0  0  0
  3  2  1  0  0  0  0
  4 12  1  0  0  0  0
  5  6  1  0  0  0  0
  6  9  1  0  0  0  0
  7  5  1  6  0  0  0
  7 10  1  0  0  0  0
  8  1  1  0  0  0  0
  9  3  2  0  0  0  0
 10  2  1  0  0  0  0
 11 19  1  1  0  0  0
 11  7  1  0  0  0  0
 12 10  2  0  0  0  0
 13 17  1  0  0  0  0
 14 18  1  0  0  0  0
 14  8  1  0  0  0  0
 15 14  2  0  0  0  0
 16 13  2  0  0  0  0
 16 15  1  0  0  0  0
 17 18  2  0  0  0  0
 19 27  1  0  0  0  0
 20 23  1  0  0  0  0
 21 22  1  0  0  0  0
 23 26  2  0  0  0  0
 23 27  1  0  0  0  0
 24 21  1  0  0  0  0
 25 21  2  0  0  0  0
 26 25  1  0  0  0  0
 27 24  2  0  0  0  0
M  END
>  <MODEL>
8

>  <REMARK>
 VINA RESULT:      -7.0      2.003      5.872
  Name = 
  3 active torsions:
  status: ('A' for Active; 'I' for Inactive)
    1  A    between atoms: N_3  and  C_19
    2  A    between atoms: N_3  and  C_26
    3  A    between atoms: C_9  and  N_15
                            x       y       z     vdW  Elec       q    Type
                         _______ _______ _______ _____ _____    ______ ____

>  <TORSDO>
F 3

$$$$
=
 OpenBabel11052418263D

 27 30  0  0  1  0  0  0  0  0999 V2000
  188.1090  176.0700  143.7050 C   0  0  0  0  0  0  0  0  0  0  0  0
  189.0450  174.5180  139.8140 C   0  0  0  0  0  2  0  0  0  0  0  0
  188.1920  173.3070  139.5670 C   0  0  0  0  0  3  0  0  0  0  0  0
  187.4610  176.3970  142.6250 N   0  0  0  0  0  0  0  0  0  0  0  0
  188.7810  173.0400  142.6340 C   0  0  0  0  0  2  0  0  0  0  0  0
  189.1250  172.0440  141.5280 C   0  0  0  0  0  2  0  0  0  0  0  0
  189.4260  174.3950  142.3590 C   0  0  1  0  0  3  0  0  0  0  0  0
  187.6930  176.5500  144.9920 N   0  0  0  0  0  2  0  0  0  0  0  0
  188.2270  172.2040  140.3320 C   0  0  0  0  0  3  0  0  0  0  0  0
  188.7810  175.0640  141.1770 C   0  0  0  0  0  0  0  0  0  0  0  0
  189.3840  175.2750  143.6110 C   0  0  1  0  0  3  0  0  0  0  0  0
  187.8420  175.9460  141.3470 N   0  0  0  0  0  0  0  0  0  0  0  0
  184.2300  178.8000  145.9500 C   0  0  0  0  0  3  0  0  0  0  0  0
  186.5330  177.3330  145.3010 C   0  0  0  0  0  0  0  0  0  0  0  0
  186.3150  178.6000  144.7360 C   0  0  0  0  0  3  0  0  0  0  0  0
  185.1680  179.3300  145.0600 C   0  0  0  0  0  3  0  0  0  0  0  0
  184.4400  177.5380  146.5150 C   0  0  0  0  0  3  0  0  0  0  0  0
  185.5870  176.8090  146.1890 C   0  0  0  0  0  3  0  0  0  0  0  0
  190.5270  176.1770  143.6060 N   0  0  0  0  0  2  0  0  0  0  0  0
  193.5930  176.0690  142.7540 Cl  0  0  0  0  0  0  0  0  0  0  0  0
  192.0270  176.5200  146.9850 C   0  0  0  0  0  0  0  0  0  0  0  0
  191.5680  176.7070  148.3850 C   0  0  0  0  0  1  0  0  0  0  0  0
  192.9200  176.1780  144.3740 C   0  0  0  0  0  0  0  0  0  0  0  0
  191.1030  176.4460  145.9450 C   0  0  0  0  0  3  0  0  0  0  0  0
  193.3860  176.4150  146.6970 C   0  0  0  0  0  3  0  0  0  0  0  0
  193.7970  176.2540  145.4130 N   0  0  0  0  0  0  0  0  0  0  0  0
  191.5290  176.2590  144.6280 C   0  0  0  0  0  0  0  0  0  0  0  0
  1  8  1  0  0  0  0
  2 10  1  0  0  0  0
  3  2  1  0  0  0  0
  3  9  2  0  0  0  0
  4  1  2  0  0  0  0
  6  5  1  0  0  0  0
  7  5  1  1  0  0  0
  7 11  1  0  0  0  0
  8 14  1  0  0  0  0
  9  6  1  0  0  0  0
 10 12  2  0  0  0  0
 10  7  1  0  0  0  0
 11 19  1  6  0  0  0
 11  1  1  0  0  0  0
 12  4  1  0  0  0  0
 13 17  1  0  0  0  0
 14 18  1  0  0  0  0
 15 16  1  0  0  0  0
 15 14  2  0  0  0  0
 16 13  2  0  0  0  0
 18 17  2  0  0  0  0
 19 27  1  0  0  0  0
 20 23  1  0  0  0  0
 21 22  1  0  0  0  0
 23 27  2  0  0  0  0
 23 26  1  0  0  0  0
 24 21  2  0  0  0  0
 25 21  1  0  0  0  0
 26 25  2  0  0  0  0
 27 24  1  0  0  0  0
M  END
>  <MODEL>
9

>  <REMARK>
 VINA RESULT:      -7.0      1.660      2.399
  Name = 
  3 active torsions:
  status: ('A' for Active; 'I' for Inactive)
    1  A    between atoms: N_3  and  C_19
    2  A    between atoms: N_3  and  C_26
    3  A    between atoms: C_9  and  N_15
                            x       y       z     vdW  Elec       q    Type
                         _______ _______ _______ _____ _____    ______ ____

>  <TORSDO>
F 3

$$$$
