=
 OpenBabel11052421423D

 32 36  0  0  1  0  0  0  0  0999 V2000
  190.8420  175.2910  147.6470 C   0  0  0  0  0  2  0  0  0  0  0  0
  189.4420  174.9130  147.1810 C   0  0  0  0  0  2  0  0  0  0  0  0
  190.3420  175.7480  146.2930 C   0  0  0  0  0  0  0  0  0  0  0  0
  185.9250  177.8330  143.3170 C   0  0  0  0  0  0  0  0  0  0  0  0
  189.0920  177.7030  147.1840 O   0  0  0  0  0  0  0  0  0  0  0  0
  187.1570  177.3930  145.7880 C   0  0  0  0  0  0  0  0  0  0  0  0
  189.4330  177.6780  144.7500 C   0  0  0  0  0  2  0  0  0  0  0  0
  187.3200  177.8480  143.4140 C   0  0  0  0  0  3  0  0  0  0  0  0
  189.9310  177.2350  146.1420 C   0  0  2  0  0  3  0  0  0  0  0  0
  185.1480  177.5790  144.4520 C   0  0  0  0  0  3  0  0  0  0  0  0
  187.9390  177.6190  144.6470 C   0  0  0  0  0  0  0  0  0  0  0  0
  185.7630  177.3550  145.6870 C   0  0  0  0  0  3  0  0  0  0  0  0
  187.8280  177.0790  147.0900 C   0  0  0  0  0  2  0  0  0  0  0  0
  185.2680  178.0500  141.9990 C   0  0  0  0  0  2  0  0  0  0  0  0
  182.9130  178.1320  141.1090 C   0  0  0  0  0  0  0  0  0  0  0  0
  183.8390  178.2430  142.1890 N   0  0  0  0  0  2  0  0  0  0  0  0
  181.4630  178.3390  141.3610 C   0  0  0  0  0  1  0  0  0  0  0  0
  183.3110  177.8590  139.9460 O   0  0  0  0  0  0  0  0  0  0  0  0
  190.8810  174.9620  145.0980 C   0  0  1  0  0  3  0  0  0  0  0  0
  193.2180  172.0290  144.8350 C   0  0  0  0  0  0  0  0  0  0  0  0
  194.5100  172.5950  145.2560 C   0  0  0  0  0  0  0  0  0  0  0  0
  196.9320  173.7350  146.0710 C   0  0  0  0  0  3  0  0  0  0  0  0
  192.0980  174.1190  145.4900 C   0  0  2  0  0  3  0  0  0  0  0  0
  196.8490  172.3580  145.8410 C   0  0  0  0  0  3  0  0  0  0  0  0
  195.6400  171.7870  145.4320 C   0  0  0  0  0  3  0  0  0  0  0  0
  193.4090  174.8680  145.2360 C   0  0  0  0  0  2  0  0  0  0  0  0
  193.1260  170.8310  144.4550 O   0  0  0  0  0  0  0  0  0  0  0  0
  195.8060  174.5440  145.8930 C   0  0  0  0  0  3  0  0  0  0  0  0
  192.0860  172.8460  144.8360 O   0  0  0  0  0  0  0  0  0  0  0  0
  194.5910  173.9790  145.4960 C   0  0  0  0  0  0  0  0  0  0  0  0
  189.6570  174.5440  142.6680 S   0  0  0  0  0  1  0  0  0  0  0  0
  189.7790  174.1400  144.4340 C   0  0  0  0  0  2  0  0  0  0  0  0
  2  1  1  0  0  0  0
  3  2  1  0  0  0  0
  3  1  1  0  0  0  0
  4  8  2  0  0  0  0
  4 10  1  0  0  0  0
  6 13  1  0  0  0  0
  8 11  1  0  0  0  0
  9  7  1  6  0  0  0
  9  3  1  0  0  0  0
  9  5  1  0  0  0  0
 10 12  2  0  0  0  0
 11  7  1  0  0  0  0
 11  6  2  0  0  0  0
 12  6  1  0  0  0  0
 13  5  1  0  0  0  0
 14 16  1  0  0  0  0
 14  4  1  0  0  0  0
 15 17  1  0  0  0  0
 15 16  1  0  0  0  0
 18 15  2  0  0  0  0
 19 32  1  1  0  0  0
 19  3  1  0  0  0  0
 20 29  1  0  0  0  0
 20 21  1  0  0  0  0
 21 25  2  0  0  0  0
 21 30  1  0  0  0  0
 23 19  1  6  0  0  0
 24 22  2  0  0  0  0
 25 24  1  0  0  0  0
 26 23  1  0  0  0  0
 26 30  1  0  0  0  0
 27 20  2  0  0  0  0
 28 22  1  0  0  0  0
 29 23  1  0  0  0  0
 30 28  2  0  0  0  0
 31 32  1  0  0  0  0
M  END
>  <MODEL>
1

>  <REMARK>
 VINA RESULT:      -8.7      0.000      0.000
  Name = 
  6 active torsions:
  status: ('A' for Active; 'I' for Inactive)
    1  A    between atoms: C_2  and  C_24
    2  A    between atoms: N_10  and  C_24
    3  A    between atoms: C_14  and  C_15
    4  A    between atoms: C_15  and  C_26
    5  A    between atoms: C_16  and  C_26
    6  A    between atoms: C_25  and  C_26
                            x       y       z     vdW  Elec       q    Type
                         _______ _______ _______ _____ _____    ______ ____

>  <TORSDO>
F 6

$$$$
=
 OpenBabel11052421423D

 32 36  0  0  1  0  0  0  0  0999 V2000
  191.1370  173.4870  143.7900 C   0  0  0  0  0  2  0  0  0  0  0  0
  190.2230  173.3760  145.0040 C   0  0  0  0  0  2  0  0  0  0  0  0
  190.4370  174.7170  144.3300 C   0  0  0  0  0  0  0  0  0  0  0  0
  196.0880  174.5810  145.2020 C   0  0  0  0  0  0  0  0  0  0  0  0
  191.7110  176.8510  144.3680 O   0  0  0  0  0  0  0  0  0  0  0  0
  193.8690  175.8340  144.0510 C   0  0  0  0  0  0  0  0  0  0  0  0
  192.4240  175.1570  145.9990 C   0  0  0  0  0  2  0  0  0  0  0  0
  194.8500  174.5460  145.8530 C   0  0  0  0  0  3  0  0  0  0  0  0
  191.2870  175.7350  145.1320 C   0  0  2  0  0  3  0  0  0  0  0  0
  196.2100  175.2270  143.9670 C   0  0  0  0  0  3  0  0  0  0  0  0
  193.7360  175.1630  145.2750 C   0  0  0  0  0  0  0  0  0  0  0  0
  195.1000  175.8500  143.3890 C   0  0  0  0  0  3  0  0  0  0  0  0
  192.6560  176.4320  143.4050 C   0  0  0  0  0  2  0  0  0  0  0  0
  197.2650  173.9010  145.8050 C   0  0  0  0  0  2  0  0  0  0  0  0
  197.2650  171.3990  145.5120 C   0  0  0  0  0  0  0  0  0  0  0  0
  196.8900  172.5650  146.2430 N   0  0  0  0  0  2  0  0  0  0  0  0
  196.8550  170.0590  146.0060 C   0  0  0  0  0  1  0  0  0  0  0  0
  197.9410  171.4930  144.4540 O   0  0  0  0  0  0  0  0  0  0  0  0
  189.2150  175.1750  143.5340 C   0  0  1  0  0  3  0  0  0  0  0  0
  186.8720  178.1120  143.6820 C   0  0  0  0  0  0  0  0  0  0  0  0
  186.4810  178.1530  145.1000 C   0  0  0  0  0  0  0  0  0  0  0  0
  185.7830  178.1770  147.8100 C   0  0  0  0  0  3  0  0  0  0  0  0
  188.5370  176.3760  144.2000 C   0  0  2  0  0  3  0  0  0  0  0  0
  185.3610  179.2110  146.9700 C   0  0  0  0  0  3  0  0  0  0  0  0
  185.7060  179.2000  145.6150 C   0  0  0  0  0  3  0  0  0  0  0  0
  187.6770  175.9490  145.3940 C   0  0  0  0  0  2  0  0  0  0  0  0
  186.3840  178.9220  142.8490 O   0  0  0  0  0  0  0  0  0  0  0  0
  186.5530  177.1280  147.2980 C   0  0  0  0  0  3  0  0  0  0  0  0
  187.7800  177.1400  143.2560 O   0  0  0  0  0  0  0  0  0  0  0  0
  186.9140  177.1170  145.9480 C   0  0  0  0  0  0  0  0  0  0  0  0
  188.6450  174.3120  140.9840 S   0  0  0  0  0  1  0  0  0  0  0  0
  189.5720  175.4310  142.0720 C   0  0  0  0  0  2  0  0  0  0  0  0
  1  3  1  0  0  0  0
  1  2  1  0  0  0  0
  3  2  1  0  0  0  0
  4 14  1  0  0  0  0
  4  8  1  0  0  0  0
  5  9  1  0  0  0  0
  6 11  1  0  0  0  0
  9  3  1  6  0  0  0
  9  7  1  0  0  0  0
 10  4  2  0  0  0  0
 11  8  2  0  0  0  0
 11  7  1  0  0  0  0
 12 10  1  0  0  0  0
 12  6  2  0  0  0  0
 13  6  1  0  0  0  0
 13  5  1  0  0  0  0
 14 16  1  0  0  0  0
 15 17  1  0  0  0  0
 15 16  1  0  0  0  0
 18 15  2  0  0  0  0
 19 32  1  6  0  0  0
 19  3  1  0  0  0  0
 20 21  1  0  0  0  0
 21 25  2  0  0  0  0
 21 30  1  0  0  0  0
 23 19  1  6  0  0  0
 23 26  1  0  0  0  0
 24 22  2  0  0  0  0
 25 24  1  0  0  0  0
 26 30  1  0  0  0  0
 27 20  2  0  0  0  0
 28 22  1  0  0  0  0
 29 20  1  0  0  0  0
 29 23  1  0  0  0  0
 30 28  2  0  0  0  0
 31 32  1  0  0  0  0
M  END
>  <MODEL>
2

>  <REMARK>
 VINA RESULT:      -8.3      3.589      9.550
  Name = 
  6 active torsions:
  status: ('A' for Active; 'I' for Inactive)
    1  A    between atoms: C_2  and  C_24
    2  A    between atoms: N_10  and  C_24
    3  A    between atoms: C_14  and  C_15
    4  A    between atoms: C_15  and  C_26
    5  A    between atoms: C_16  and  C_26
    6  A    between atoms: C_25  and  C_26
                            x       y       z     vdW  Elec       q    Type
                         _______ _______ _______ _____ _____    ______ ____

>  <TORSDO>
F 6

$$$$
=
 OpenBabel11052421423D

 32 36  0  0  1  0  0  0  0  0999 V2000
  191.1000  178.2150  144.1130 C   0  0  0  0  0  2  0  0  0  0  0  0
  191.6730  177.2420  143.0910 C   0  0  0  0  0  2  0  0  0  0  0  0
  191.3730  176.7770  144.5020 C   0  0  0  0  0  0  0  0  0  0  0  0
  194.2130  171.8370  145.0020 C   0  0  0  0  0  0  0  0  0  0  0  0
  193.8450  176.8180  144.7620 O   0  0  0  0  0  0  0  0  0  0  0  0
  194.1750  174.5080  144.1750 C   0  0  0  0  0  0  0  0  0  0  0  0
  192.6640  175.1230  146.0930 C   0  0  0  0  0  2  0  0  0  0  0  0
  193.4630  172.7790  145.7160 C   0  0  0  0  0  3  0  0  0  0  0  0
  192.6140  176.4940  145.3860 C   0  0  2  0  0  3  0  0  0  0  0  0
  194.9270  172.2290  143.8650 C   0  0  0  0  0  3  0  0  0  0  0  0
  193.4350  174.1130  145.2990 C   0  0  0  0  0  0  0  0  0  0  0  0
  194.9060  173.5630  143.4480 C   0  0  0  0  0  3  0  0  0  0  0  0
  194.0830  175.9240  143.6940 C   0  0  0  0  0  2  0  0  0  0  0  0
  194.2200  170.4120  145.4310 C   0  0  0  0  0  2  0  0  0  0  0  0
  195.6830  169.1880  147.0760 C   0  0  0  0  0  0  0  0  0  0  0  0
  195.5290  170.0660  145.9630 N   0  0  0  0  0  2  0  0  0  0  0  0
  197.0450  168.8680  147.5770 C   0  0  0  0  0  1  0  0  0  0  0  0
  194.6770  168.6780  147.6370 O   0  0  0  0  0  0  0  0  0  0  0  0
  190.1420  175.8740  144.5730 C   0  0  1  0  0  3  0  0  0  0  0  0
  186.5700  176.7520  143.7970 C   0  0  0  0  0  0  0  0  0  0  0  0
  186.0890  177.3330  145.0610 C   0  0  0  0  0  0  0  0  0  0  0  0
  185.2410  178.4310  147.4920 C   0  0  0  0  0  3  0  0  0  0  0  0
  188.8560  176.6970  144.7030 C   0  0  2  0  0  3  0  0  0  0  0  0
  184.4020  178.4720  146.3760 C   0  0  0  0  0  3  0  0  0  0  0  0
  184.8210  177.9220  145.1610 C   0  0  0  0  0  3  0  0  0  0  0  0
  188.2650  176.6020  146.1120 C   0  0  0  0  0  2  0  0  0  0  0  0
  185.7970  176.6120  142.8120 O   0  0  0  0  0  0  0  0  0  0  0  0
  186.5050  177.8400  147.3970 C   0  0  0  0  0  3  0  0  0  0  0  0
  187.8970  176.3290  143.7060 O   0  0  0  0  0  0  0  0  0  0  0  0
  186.9380  177.2990  146.1830 C   0  0  0  0  0  0  0  0  0  0  0  0
  189.9620  173.1880  144.0010 S   0  0  0  0  0  1  0  0  0  0  0  0
  190.1050  174.8960  143.4020 C   0  0  0  0  0  2  0  0  0  0  0  0
  1  3  1  0  0  0  0
  2  1  1  0  0  0  0
  2  3  1  0  0  0  0
  3 19  1  0  0  0  0
  4 14  1  0  0  0  0
  4  8  1  0  0  0  0
  5  9  1  0  0  0  0
  6 11  1  0  0  0  0
  9  3  1  6  0  0  0
  9  7  1  0  0  0  0
 10  4  2  0  0  0  0
 11  8  2  0  0  0  0
 11  7  1  0  0  0  0
 12 10  1  0  0  0  0
 12  6  2  0  0  0  0
 13  6  1  0  0  0  0
 13  5  1  0  0  0  0
 14 16  1  0  0  0  0
 15 17  1  0  0  0  0
 15 18  2  0  0  0  0
 16 15  1  0  0  0  0
 19 32  1  6  0  0  0
 20 21  1  0  0  0  0
 21 25  2  0  0  0  0
 21 30  1  0  0  0  0
 23 19  1  1  0  0  0
 23 26  1  0  0  0  0
 24 22  2  0  0  0  0
 25 24  1  0  0  0  0
 26 30  1  0  0  0  0
 27 20  2  0  0  0  0
 28 22  1  0  0  0  0
 29 20  1  0  0  0  0
 29 23  1  0  0  0  0
 30 28  2  0  0  0  0
 32 31  1  0  0  0  0
M  END
>  <MODEL>
3

>  <REMARK>
 VINA RESULT:      -8.3      3.552      9.640
  Name = 
  6 active torsions:
  status: ('A' for Active; 'I' for Inactive)
    1  A    between atoms: C_2  and  C_24
    2  A    between atoms: N_10  and  C_24
    3  A    between atoms: C_14  and  C_15
    4  A    between atoms: C_15  and  C_26
    5  A    between atoms: C_16  and  C_26
    6  A    between atoms: C_25  and  C_26
                            x       y       z     vdW  Elec       q    Type
                         _______ _______ _______ _____ _____    ______ ____

>  <TORSDO>
F 6

$$$$
=
 OpenBabel11052421423D

 32 36  0  0  1  0  0  0  0  0999 V2000
  189.3240  173.1490  145.2940 C   0  0  0  0  0  2  0  0  0  0  0  0
  190.8310  173.3620  145.3630 C   0  0  0  0  0  2  0  0  0  0  0  0
  189.9470  174.3830  144.6750 C   0  0  0  0  0  0  0  0  0  0  0  0
  186.8750  177.5800  141.0620 C   0  0  0  0  0  0  0  0  0  0  0  0
  191.0490  175.3390  142.6620 O   0  0  0  0  0  0  0  0  0  0  0  0
  189.3460  176.9820  142.2280 C   0  0  0  0  0  0  0  0  0  0  0  0
  188.7490  174.5380  142.3360 C   0  0  0  0  0  2  0  0  0  0  0  0
  187.1820  176.2600  141.4120 C   0  0  0  0  0  3  0  0  0  0  0  0
  190.0670  174.4300  143.1300 C   0  0  2  0  0  3  0  0  0  0  0  0
  187.7970  178.6010  141.3130 C   0  0  0  0  0  3  0  0  0  0  0  0
  188.4120  175.9600  142.0040 C   0  0  0  0  0  0  0  0  0  0  0  0
  189.0310  178.3040  141.9000 C   0  0  0  0  0  3  0  0  0  0  0  0
  190.6320  176.6620  142.9260 C   0  0  0  0  0  2  0  0  0  0  0  0
  185.5540  177.9020  140.4570 C   0  0  0  0  0  2  0  0  0  0  0  0
  183.2020  178.2890  141.2700 C   0  0  0  0  0  0  0  0  0  0  0  0
  184.6090  178.2590  141.5030 N   0  0  0  0  0  2  0  0  0  0  0  0
  182.2820  178.6620  142.3770 C   0  0  0  0  0  1  0  0  0  0  0  0
  182.7310  178.0030  140.1380 O   0  0  0  0  0  0  0  0  0  0  0  0
  189.7940  175.6690  145.4850 C   0  0  1  0  0  3  0  0  0  0  0  0
  186.5950  176.4190  147.3120 C   0  0  0  0  0  0  0  0  0  0  0  0
  185.9690  177.4550  146.4740 C   0  0  0  0  0  0  0  0  0  0  0  0
  184.8340  179.4170  144.8330 C   0  0  0  0  0  3  0  0  0  0  0  0
  188.3240  176.0860  145.5950 C   0  0  2  0  0  3  0  0  0  0  0  0
  184.1090  178.9010  145.9110 C   0  0  0  0  0  3  0  0  0  0  0  0
  184.6750  177.9230  146.7340 C   0  0  0  0  0  3  0  0  0  0  0  0
  188.1130  177.5330  145.1420 C   0  0  0  0  0  2  0  0  0  0  0  0
  186.0580  176.0410  148.3880 O   0  0  0  0  0  0  0  0  0  0  0  0
  186.1290  178.9550  144.5740 C   0  0  0  0  0  3  0  0  0  0  0  0
  187.8150  175.8700  146.9150 O   0  0  0  0  0  0  0  0  0  0  0  0
  186.6970  177.9680  145.3840 C   0  0  0  0  0  0  0  0  0  0  0  0
  192.0150  176.5210  146.8710 S   0  0  0  0  0  1  0  0  0  0  0  0
  190.4800  175.5520  146.8450 C   0  0  0  0  0  2  0  0  0  0  0  0
  1  2  1  0  0  0  0
  3  1  1  0  0  0  0
  3  2  1  0  0  0  0
  3 19  1  0  0  0  0
  4 10  2  0  0  0  0
  4  8  1  0  0  0  0
  5 13  1  0  0  0  0
  5  9  1  0  0  0  0
  6 13  1  0  0  0  0
  8 11  2  0  0  0  0
  9  7  1  6  0  0  0
  9  3  1  0  0  0  0
 10 12  1  0  0  0  0
 11  6  1  0  0  0  0
 11  7  1  0  0  0  0
 12  6  2  0  0  0  0
 14  4  1  0  0  0  0
 14 16  1  0  0  0  0
 15 16  1  0  0  0  0
 15 17  1  0  0  0  0
 18 15  2  0  0  0  0
 19 32  1  1  0  0  0
 20 27  2  0  0  0  0
 21 25  1  0  0  0  0
 21 20  1  0  0  0  0
 22 24  1  0  0  0  0
 23 19  1  1  0  0  0
 23 29  1  0  0  0  0
 24 25  2  0  0  0  0
 26 30  1  0  0  0  0
 26 23  1  0  0  0  0
 28 22  2  0  0  0  0
 28 30  1  0  0  0  0
 29 20  1  0  0  0  0
 30 21  2  0  0  0  0
 32 31  1  0  0  0  0
M  END
>  <MODEL>
4

>  <REMARK>
 VINA RESULT:      -8.1      2.932      6.430
  Name = 
  6 active torsions:
  status: ('A' for Active; 'I' for Inactive)
    1  A    between atoms: C_2  and  C_24
    2  A    between atoms: N_10  and  C_24
    3  A    between atoms: C_14  and  C_15
    4  A    between atoms: C_15  and  C_26
    5  A    between atoms: C_16  and  C_26
    6  A    between atoms: C_25  and  C_26
                            x       y       z     vdW  Elec       q    Type
                         _______ _______ _______ _____ _____    ______ ____

>  <TORSDO>
F 6

$$$$
=
 OpenBabel11052421423D

 32 36  0  0  1  0  0  0  0  0999 V2000
  190.6570  175.2830  147.5290 C   0  0  0  0  0  2  0  0  0  0  0  0
  189.2780  174.8750  147.0240 C   0  0  0  0  0  2  0  0  0  0  0  0
  190.1400  175.8190  146.2100 C   0  0  0  0  0  0  0  0  0  0  0  0
  185.5840  177.8980  143.4450 C   0  0  0  0  0  0  0  0  0  0  0  0
  188.8130  177.6430  147.2550 O   0  0  0  0  0  0  0  0  0  0  0  0
  186.8730  177.3410  145.8640 C   0  0  0  0  0  0  0  0  0  0  0  0
  189.1170  177.8100  144.8220 C   0  0  0  0  0  2  0  0  0  0  0  0
  186.9790  177.9730  143.5270 C   0  0  0  0  0  3  0  0  0  0  0  0
  189.6570  177.2920  146.1710 C   0  0  2  0  0  3  0  0  0  0  0  0
  184.8370  177.5260  144.5680 C   0  0  0  0  0  3  0  0  0  0  0  0
  187.6270  177.6860  144.7320 C   0  0  0  0  0  0  0  0  0  0  0  0
  185.4810  177.2440  145.7770 C   0  0  0  0  0  3  0  0  0  0  0  0
  187.5790  176.9670  147.1310 C   0  0  0  0  0  2  0  0  0  0  0  0
  184.8980  178.1770  142.1550 C   0  0  0  0  0  2  0  0  0  0  0  0
  182.5240  178.1650  141.3150 C   0  0  0  0  0  0  0  0  0  0  0  0
  183.4660  178.3010  142.3770 N   0  0  0  0  0  2  0  0  0  0  0  0
  181.0710  178.3010  141.6000 C   0  0  0  0  0  1  0  0  0  0  0  0
  182.9080  177.9280  140.1400 O   0  0  0  0  0  0  0  0  0  0  0  0
  190.7210  175.1560  144.9620 C   0  0  1  0  0  3  0  0  0  0  0  0
  194.4580  175.4770  145.2250 C   0  0  0  0  0  0  0  0  0  0  0  0
  194.8520  175.8840  143.8660 C   0  0  0  0  0  0  0  0  0  0  0  0
  195.5320  176.6590  141.2640 C   0  0  0  0  0  3  0  0  0  0  0  0
  192.0920  175.7420  144.6080 C   0  0  2  0  0  3  0  0  0  0  0  0
  196.5080  176.6350  142.2640 C   0  0  0  0  0  3  0  0  0  0  0  0
  196.1720  176.2450  143.5640 C   0  0  0  0  0  3  0  0  0  0  0  0
  192.4680  175.4560  143.1510 C   0  0  0  0  0  2  0  0  0  0  0  0
  195.3220  175.2770  146.1190 O   0  0  0  0  0  0  0  0  0  0  0  0
  194.2150  176.2950  141.5610 C   0  0  0  0  0  3  0  0  0  0  0  0
  193.1050  175.2880  145.5110 O   0  0  0  0  0  0  0  0  0  0  0  0
  193.8670  175.9170  142.8610 C   0  0  0  0  0  0  0  0  0  0  0  0
  189.7870  172.8570  143.7720 S   0  0  0  0  0  1  0  0  0  0  0  0
  190.7450  173.6360  145.1030 C   0  0  0  0  0  2  0  0  0  0  0  0
  2  1  1  0  0  0  0
  3  2  1  0  0  0  0
  3  1  1  0  0  0  0
  4  8  2  0  0  0  0
  4 10  1  0  0  0  0
  6 13  1  0  0  0  0
  8 11  1  0  0  0  0
  9  7  1  6  0  0  0
  9  3  1  0  0  0  0
  9  5  1  0  0  0  0
 10 12  2  0  0  0  0
 11  7  1  0  0  0  0
 11  6  2  0  0  0  0
 12  6  1  0  0  0  0
 13  5  1  0  0  0  0
 14 16  1  0  0  0  0
 14  4  1  0  0  0  0
 15 17  1  0  0  0  0
 15 16  1  0  0  0  0
 18 15  2  0  0  0  0
 19 32  1  1  0  0  0
 19  3  1  0  0  0  0
 20 29  1  0  0  0  0
 20 27  2  0  0  0  0
 21 20  1  0  0  0  0
 22 28  2  0  0  0  0
 22 24  1  0  0  0  0
 23 19  1  1  0  0  0
 23 29  1  0  0  0  0
 24 25  2  0  0  0  0
 25 21  1  0  0  0  0
 26 23  1  0  0  0  0
 28 30  1  0  0  0  0
 30 26  1  0  0  0  0
 30 21  2  0  0  0  0
 31 32  1  0  0  0  0
M  END
>  <MODEL>
5

>  <REMARK>
 VINA RESULT:      -8.0      1.944      2.514
  Name = 
  6 active torsions:
  status: ('A' for Active; 'I' for Inactive)
    1  A    between atoms: C_2  and  C_24
    2  A    between atoms: N_10  and  C_24
    3  A    between atoms: C_14  and  C_15
    4  A    between atoms: C_15  and  C_26
    5  A    between atoms: C_16  and  C_26
    6  A    between atoms: C_25  and  C_26
                            x       y       z     vdW  Elec       q    Type
                         _______ _______ _______ _____ _____    ______ ____

>  <TORSDO>
F 6

$$$$
=
 OpenBabel11052421423D

 32 36  0  0  1  0  0  0  0  0999 V2000
  190.2560  176.7020  143.4410 C   0  0  0  0  0  2  0  0  0  0  0  0
  190.6820  175.6860  142.3880 C   0  0  0  0  0  2  0  0  0  0  0  0
  189.6720  175.3040  143.4520 C   0  0  0  0  0  0  0  0  0  0  0  0
  194.9600  174.9840  145.6090 C   0  0  0  0  0  0  0  0  0  0  0  0
  189.9700  174.7640  145.8600 O   0  0  0  0  0  0  0  0  0  0  0  0
  192.2450  175.5380  145.9880 C   0  0  0  0  0  0  0  0  0  0  0  0
  191.6080  173.7510  144.3320 C   0  0  0  0  0  2  0  0  0  0  0  0
  193.9940  174.2690  144.8920 C   0  0  0  0  0  3  0  0  0  0  0  0
  190.1870  174.3180  144.5320 C   0  0  2  0  0  3  0  0  0  0  0  0
  194.5670  175.9890  146.5000 C   0  0  0  0  0  3  0  0  0  0  0  0
  192.6360  174.5510  145.0720 C   0  0  0  0  0  0  0  0  0  0  0  0
  193.2100  176.2690  146.6870 C   0  0  0  0  0  3  0  0  0  0  0  0
  190.7930  175.8810  146.1230 C   0  0  0  0  0  2  0  0  0  0  0  0
  196.4050  174.7030  145.3960 C   0  0  0  0  0  2  0  0  0  0  0  0
  196.9250  175.5760  143.0920 C   0  0  0  0  0  0  0  0  0  0  0  0
  196.6610  174.4920  143.9800 N   0  0  0  0  0  2  0  0  0  0  0  0
  197.1810  175.3010  141.6530 C   0  0  0  0  0  1  0  0  0  0  0  0
  196.9460  176.7620  143.5130 O   0  0  0  0  0  0  0  0  0  0  0  0
  188.2530  175.1840  142.8990 C   0  0  1  0  0  3  0  0  0  0  0  0
  185.2780  177.4790  142.7620 C   0  0  0  0  0  0  0  0  0  0  0  0
  185.0420  177.8010  144.1790 C   0  0  0  0  0  0  0  0  0  0  0  0
  184.6530  178.3760  146.8900 C   0  0  0  0  0  3  0  0  0  0  0  0
  187.3690  176.3400  143.3780 C   0  0  2  0  0  3  0  0  0  0  0  0
  183.8980  179.0390  145.9190 C   0  0  0  0  0  3  0  0  0  0  0  0
  184.0890  178.7520  144.5640 C   0  0  0  0  0  3  0  0  0  0  0  0
  186.7770  176.0610  144.7620 C   0  0  0  0  0  2  0  0  0  0  0  0
  184.5160  177.9200  141.8600 O   0  0  0  0  0  0  0  0  0  0  0  0
  185.6030  177.4220  146.5090 C   0  0  0  0  0  3  0  0  0  0  0  0
  186.3490  176.6500  142.4230 O   0  0  0  0  0  0  0  0  0  0  0  0
  185.8090  177.1390  145.1560 C   0  0  0  0  0  0  0  0  0  0  0  0
  188.2490  173.2810  140.9100 S   0  0  0  0  0  1  0  0  0  0  0  0
  188.2620  175.0350  141.3790 C   0  0  0  0  0  2  0  0  0  0  0  0
  1  3  1  0  0  0  0
  2  1  1  0  0  0  0
  2  3  1  0  0  0  0
  4 10  1  0  0  0  0
  5 13  1  0  0  0  0
  6 13  1  0  0  0  0
  6 12  1  0  0  0  0
  7  9  1  0  0  0  0
  7 11  1  0  0  0  0
  8 11  1  0  0  0  0
  8  4  2  0  0  0  0
  9  3  1  6  0  0  0
  9  5  1  0  0  0  0
 10 12  2  0  0  0  0
 11  6  2  0  0  0  0
 14  4  1  0  0  0  0
 15 18  2  0  0  0  0
 15 16  1  0  0  0  0
 16 14  1  0  0  0  0
 17 15  1  0  0  0  0
 19 32  1  6  0  0  0
 19  3  1  0  0  0  0
 20 21  1  0  0  0  0
 21 25  2  0  0  0  0
 21 30  1  0  0  0  0
 23 19  1  6  0  0  0
 23 26  1  0  0  0  0
 24 22  2  0  0  0  0
 25 24  1  0  0  0  0
 26 30  1  0  0  0  0
 27 20  2  0  0  0  0
 28 22  1  0  0  0  0
 29 20  1  0  0  0  0
 29 23  1  0  0  0  0
 30 28  2  0  0  0  0
 31 32  1  0  0  0  0
M  END
>  <MODEL>
6

>  <REMARK>
 VINA RESULT:      -8.0      3.340      9.259
  Name = 
  6 active torsions:
  status: ('A' for Active; 'I' for Inactive)
    1  A    between atoms: C_2  and  C_24
    2  A    between atoms: N_10  and  C_24
    3  A    between atoms: C_14  and  C_15
    4  A    between atoms: C_15  and  C_26
    5  A    between atoms: C_16  and  C_26
    6  A    between atoms: C_25  and  C_26
                            x       y       z     vdW  Elec       q    Type
                         _______ _______ _______ _____ _____    ______ ____

>  <TORSDO>
F 6

$$$$
=
 OpenBabel11052421423D

 32 36  0  0  1  0  0  0  0  0999 V2000
  195.1830  176.0120  143.2100 C   0  0  0  0  0  2  0  0  0  0  0  0
  195.8280  175.5550  144.5120 C   0  0  0  0  0  2  0  0  0  0  0  0
  194.3200  175.6550  144.4030 C   0  0  0  0  0  0  0  0  0  0  0  0
  188.7540  176.4560  145.4500 C   0  0  0  0  0  0  0  0  0  0  0  0
  193.6200  176.5960  146.5950 O   0  0  0  0  0  0  0  0  0  0  0  0
  191.3210  175.9080  146.4150 C   0  0  0  0  0  0  0  0  0  0  0  0
  192.3440  177.3780  144.6460 C   0  0  0  0  0  2  0  0  0  0  0  0
  189.8720  177.0180  144.8230 C   0  0  0  0  0  3  0  0  0  0  0  0
  193.6730  176.8190  145.1960 C   0  0  2  0  0  3  0  0  0  0  0  0
  188.9240  175.6050  146.5480 C   0  0  0  0  0  3  0  0  0  0  0  0
  191.1570  176.7380  145.2970 C   0  0  0  0  0  0  0  0  0  0  0  0
  190.2070  175.3270  147.0280 C   0  0  0  0  0  3  0  0  0  0  0  0
  192.7040  175.5570  146.8730 C   0  0  0  0  0  2  0  0  0  0  0  0
  187.3890  176.7330  144.9280 C   0  0  0  0  0  2  0  0  0  0  0  0
  185.2640  177.8050  145.7510 C   0  0  0  0  0  0  0  0  0  0  0  0
  186.5420  177.2250  146.0030 N   0  0  0  0  0  2  0  0  0  0  0  0
  184.4400  178.2900  146.8890 C   0  0  0  0  0  1  0  0  0  0  0  0
  184.8250  177.9090  144.5750 O   0  0  0  0  0  0  0  0  0  0  0  0
  193.6440  174.2870  144.3340 C   0  0  1  0  0  3  0  0  0  0  0  0
  192.2680  173.0050  141.0780 C   0  0  0  0  0  0  0  0  0  0  0  0
  190.8130  173.1510  141.2520 C   0  0  0  0  0  0  0  0  0  0  0  0
  188.0600  173.4600  141.6480 C   0  0  0  0  0  3  0  0  0  0  0  0
  192.6330  174.2220  143.1840 C   0  0  2  0  0  3  0  0  0  0  0  0
  188.5470  173.0650  140.3990 C   0  0  0  0  0  3  0  0  0  0  0  0
  189.9220  172.9070  140.2000 C   0  0  0  0  0  3  0  0  0  0  0  0
  191.2600  173.7450  143.6660 C   0  0  0  0  0  2  0  0  0  0  0  0
  192.7480  172.4940  140.0320 O   0  0  0  0  0  0  0  0  0  0  0  0
  188.9470  173.6990  142.7030 C   0  0  0  0  0  3  0  0  0  0  0  0
  193.1190  173.4190  142.1040 O   0  0  0  0  0  0  0  0  0  0  0  0
  190.3240  173.5570  142.5080 C   0  0  0  0  0  0  0  0  0  0  0  0
  194.1970  171.8050  145.3880 S   0  0  0  0  0  1  0  0  0  0  0  0
  194.6750  173.1620  144.2810 C   0  0  0  0  0  2  0  0  0  0  0  0
  1  3  1  0  0  0  0
  1  2  1  0  0  0  0
  3  2  1  0  0  0  0
  4 10  1  0  0  0  0
  5 13  1  0  0  0  0
  6 13  1  0  0  0  0
  6 12  1  0  0  0  0
  7  9  1  0  0  0  0
  7 11  1  0  0  0  0
  8 11  1  0  0  0  0
  8  4  2  0  0  0  0
  9  3  1  6  0  0  0
  9  5  1  0  0  0  0
 10 12  2  0  0  0  0
 11  6  2  0  0  0  0
 14  4  1  0  0  0  0
 14 16  1  0  0  0  0
 15 16  1  0  0  0  0
 15 17  1  0  0  0  0
 18 15  2  0  0  0  0
 19 32  1  6  0  0  0
 19  3  1  0  0  0  0
 20 21  1  0  0  0  0
 20 29  1  0  0  0  0
 21 30  1  0  0  0  0
 22 28  1  0  0  0  0
 23 26  1  0  0  0  0
 23 19  1  1  0  0  0
 24 22  2  0  0  0  0
 25 24  1  0  0  0  0
 25 21  2  0  0  0  0
 27 20  2  0  0  0  0
 29 23  1  0  0  0  0
 30 28  2  0  0  0  0
 30 26  1  0  0  0  0
 32 31  1  0  0  0  0
M  END
>  <MODEL>
7

>  <REMARK>
 VINA RESULT:      -7.8      2.919      5.345
  Name = 
  6 active torsions:
  status: ('A' for Active; 'I' for Inactive)
    1  A    between atoms: C_2  and  C_24
    2  A    between atoms: N_10  and  C_24
    3  A    between atoms: C_14  and  C_15
    4  A    between atoms: C_15  and  C_26
    5  A    between atoms: C_16  and  C_26
    6  A    between atoms: C_25  and  C_26
                            x       y       z     vdW  Elec       q    Type
                         _______ _______ _______ _____ _____    ______ ____

>  <TORSDO>
F 6

$$$$
=
 OpenBabel11052421423D

 32 36  0  0  1  0  0  0  0  0999 V2000
  189.3620  174.7800  146.8850 C   0  0  0  0  0  2  0  0  0  0  0  0
  190.8470  175.0370  146.6570 C   0  0  0  0  0  2  0  0  0  0  0  0
  189.9430  174.7000  145.4880 C   0  0  0  0  0  0  0  0  0  0  0  0
  189.9670  173.3120  139.9400 C   0  0  0  0  0  0  0  0  0  0  0  0
  191.5100  172.9470  144.6820 O   0  0  0  0  0  0  0  0  0  0  0  0
  191.3510  173.5500  142.3580 C   0  0  0  0  0  0  0  0  0  0  0  0
  189.2800  172.9350  143.6510 C   0  0  0  0  0  2  0  0  0  0  0  0
  189.3020  173.0890  141.1500 C   0  0  0  0  0  3  0  0  0  0  0  0
  190.1490  173.2910  144.8740 C   0  0  2  0  0  3  0  0  0  0  0  0
  191.3190  173.6720  139.9410 C   0  0  0  0  0  3  0  0  0  0  0  0
  189.9890  173.2170  142.3610 C   0  0  0  0  0  0  0  0  0  0  0  0
  192.0100  173.7950  141.1500 C   0  0  0  0  0  3  0  0  0  0  0  0
  192.0610  173.7530  143.6610 C   0  0  0  0  0  2  0  0  0  0  0  0
  189.2270  173.2030  138.6530 C   0  0  0  0  0  2  0  0  0  0  0  0
  187.8610  174.9460  137.4540 C   0  0  0  0  0  0  0  0  0  0  0  0
  188.1500  174.1790  138.6210 N   0  0  0  0  0  2  0  0  0  0  0  0
  186.7470  175.9300  137.4780 C   0  0  0  0  0  1  0  0  0  0  0  0
  188.5390  174.7980  136.4030 O   0  0  0  0  0  0  0  0  0  0  0  0
  189.6640  175.9070  144.5940 C   0  0  1  0  0  3  0  0  0  0  0  0
  186.7900  177.9110  145.9600 C   0  0  0  0  0  0  0  0  0  0  0  0
  185.8910  178.0340  144.8010 C   0  0  0  0  0  0  0  0  0  0  0  0
  184.2260  178.2250  142.5600 C   0  0  0  0  0  3  0  0  0  0  0  0
  188.1980  176.3440  144.6910 C   0  0  2  0  0  3  0  0  0  0  0  0
  183.7870  178.6980  143.7990 C   0  0  0  0  0  3  0  0  0  0  0  0
  184.6180  178.6060  144.9200 C   0  0  0  0  0  3  0  0  0  0  0  0
  187.7210  177.0080  143.3960 C   0  0  0  0  0  2  0  0  0  0  0  0
  186.5160  178.4670  147.0570 O   0  0  0  0  0  0  0  0  0  0  0  0
  185.4990  177.6580  142.4360 C   0  0  0  0  0  3  0  0  0  0  0  0
  187.9760  177.1870  145.8260 O   0  0  0  0  0  0  0  0  0  0  0  0
  186.3300  177.5500  143.5550 C   0  0  0  0  0  0  0  0  0  0  0  0
  191.5610  177.4880  143.3790 S   0  0  0  0  0  1  0  0  0  0  0  0
  190.6410  177.0450  144.8800 C   0  0  0  0  0  2  0  0  0  0  0  0
  2  1  1  0  0  0  0
  3  2  1  0  0  0  0
  3  1  1  0  0  0  0
  4 10  2  0  0  0  0
  4  8  1  0  0  0  0
  5  9  1  0  0  0  0
  6 11  1  0  0  0  0
  6 13  1  0  0  0  0
  8 11  2  0  0  0  0
  9  7  1  6  0  0  0
  9  3  1  0  0  0  0
 10 12  1  0  0  0  0
 11  7  1  0  0  0  0
 12  6  2  0  0  0  0
 13  5  1  0  0  0  0
 14  4  1  0  0  0  0
 15 17  1  0  0  0  0
 15 16  1  0  0  0  0
 16 14  1  0  0  0  0
 18 15  2  0  0  0  0
 19 32  1  1  0  0  0
 19  3  1  0  0  0  0
 20 27  2  0  0  0  0
 21 25  1  0  0  0  0
 21 20  1  0  0  0  0
 22 24  1  0  0  0  0
 23 19  1  6  0  0  0
 23 29  1  0  0  0  0
 24 25  2  0  0  0  0
 26 30  1  0  0  0  0
 26 23  1  0  0  0  0
 28 22  2  0  0  0  0
 28 30  1  0  0  0  0
 29 20  1  0  0  0  0
 30 21  2  0  0  0  0
 31 32  1  0  0  0  0
M  END
>  <MODEL>
8

>  <REMARK>
 VINA RESULT:      -7.8      3.202      7.643
  Name = 
  6 active torsions:
  status: ('A' for Active; 'I' for Inactive)
    1  A    between atoms: C_2  and  C_24
    2  A    between atoms: N_10  and  C_24
    3  A    between atoms: C_14  and  C_15
    4  A    between atoms: C_15  and  C_26
    5  A    between atoms: C_16  and  C_26
    6  A    between atoms: C_25  and  C_26
                            x       y       z     vdW  Elec       q    Type
                         _______ _______ _______ _____ _____    ______ ____

>  <TORSDO>
F 6

$$$$
=
 OpenBabel11052421423D

 32 36  0  0  1  0  0  0  0  0999 V2000
  189.6510  173.6620  144.6060 C   0  0  0  0  0  2  0  0  0  0  0  0
  191.1030  173.8490  145.0270 C   0  0  0  0  0  2  0  0  0  0  0  0
  190.3020  175.0260  144.5080 C   0  0  0  0  0  0  0  0  0  0  0  0
  189.9570  172.1570  139.5720 C   0  0  0  0  0  0  0  0  0  0  0  0
  189.6740  176.2470  142.4360 O   0  0  0  0  0  0  0  0  0  0  0  0
  189.0960  174.2790  141.1780 C   0  0  0  0  0  0  0  0  0  0  0  0
  191.3980  174.5160  142.1690 C   0  0  0  0  0  2  0  0  0  0  0  0
  190.8520  172.7760  140.4510 C   0  0  0  0  0  3  0  0  0  0  0  0
  190.7030  175.5320  143.0990 C   0  0  2  0  0  3  0  0  0  0  0  0
  188.6270  172.5880  139.5120 C   0  0  0  0  0  3  0  0  0  0  0  0
  190.4220  173.8310  141.2620 C   0  0  0  0  0  0  0  0  0  0  0  0
  188.1950  173.6460  140.3170 C   0  0  0  0  0  3  0  0  0  0  0  0
  188.6250  175.3620  142.1000 C   0  0  0  0  0  2  0  0  0  0  0  0
  190.4090  171.0170  138.7300 C   0  0  0  0  0  2  0  0  0  0  0  0
  190.2930  171.5760  136.2770 C   0  0  0  0  0  0  0  0  0  0  0  0
  189.7040  171.0360  137.4580 N   0  0  0  0  0  2  0  0  0  0  0  0
  189.5270  171.5690  135.0040 C   0  0  0  0  0  1  0  0  0  0  0  0
  191.4570  172.0570  136.3010 O   0  0  0  0  0  0  0  0  0  0  0  0
  189.9230  176.0120  145.6120 C   0  0  1  0  0  3  0  0  0  0  0  0
  186.5500  176.7710  147.0890 C   0  0  0  0  0  0  0  0  0  0  0  0
  185.9530  177.6850  146.1010 C   0  0  0  0  0  0  0  0  0  0  0  0
  184.8770  179.4120  144.1800 C   0  0  0  0  0  3  0  0  0  0  0  0
  188.4320  176.3600  145.5600 C   0  0  2  0  0  3  0  0  0  0  0  0
  184.0860  178.9680  145.2440 C   0  0  0  0  0  3  0  0  0  0  0  0
  184.6220  178.1080  146.2060 C   0  0  0  0  0  3  0  0  0  0  0  0
  188.1970  177.7430  144.9440 C   0  0  0  0  0  2  0  0  0  0  0  0
  185.9400  176.4750  148.1520 O   0  0  0  0  0  0  0  0  0  0  0  0
  186.2080  178.9950  144.0750 C   0  0  0  0  0  3  0  0  0  0  0  0
  187.8230  176.2500  146.8500 O   0  0  0  0  0  0  0  0  0  0  0  0
  186.7470  178.1240  145.0260 C   0  0  0  0  0  0  0  0  0  0  0  0
  191.4100  176.7360  147.8130 S   0  0  0  0  0  1  0  0  0  0  0  0
  190.3650  175.5040  146.9830 C   0  0  0  0  0  2  0  0  0  0  0  0
  1  2  1  0  0  0  0
  3  1  1  0  0  0  0
  3  2  1  0  0  0  0
  3 19  1  0  0  0  0
  4  8  1  0  0  0  0
  5  9  1  0  0  0  0
  6 11  1  0  0  0  0
  6 13  1  0  0  0  0
  8 11  2  0  0  0  0
  9  7  1  6  0  0  0
  9  3  1  0  0  0  0
 10  4  2  0  0  0  0
 10 12  1  0  0  0  0
 11  7  1  0  0  0  0
 12  6  2  0  0  0  0
 13  5  1  0  0  0  0
 14  4  1  0  0  0  0
 15 18  2  0  0  0  0
 15 16  1  0  0  0  0
 16 14  1  0  0  0  0
 17 15  1  0  0  0  0
 19 32  1  1  0  0  0
 20 27  2  0  0  0  0
 21 25  1  0  0  0  0
 21 20  1  0  0  0  0
 22 24  1  0  0  0  0
 23 19  1  1  0  0  0
 23 29  1  0  0  0  0
 24 25  2  0  0  0  0
 26 30  1  0  0  0  0
 26 23  1  0  0  0  0
 28 22  2  0  0  0  0
 28 30  1  0  0  0  0
 29 20  1  0  0  0  0
 30 21  2  0  0  0  0
 32 31  1  0  0  0  0
M  END
>  <MODEL>
9

>  <REMARK>
 VINA RESULT:      -7.8      4.409      8.150
  Name = 
  6 active torsions:
  status: ('A' for Active; 'I' for Inactive)
    1  A    between atoms: C_2  and  C_24
    2  A    between atoms: N_10  and  C_24
    3  A    between atoms: C_14  and  C_15
    4  A    between atoms: C_15  and  C_26
    5  A    between atoms: C_16  and  C_26
    6  A    between atoms: C_25  and  C_26
                            x       y       z     vdW  Elec       q    Type
                         _______ _______ _______ _____ _____    ______ ____

>  <TORSDO>
F 6

$$$$
