=
 OpenBabel11052417303D

 25 29  0  0  1  0  0  0  0  0999 V2000
  185.6010  177.0210  144.4730 C   0  0  2  0  0  3  0  0  0  0  0  0
  186.8200  177.6150  143.7830 C   0  0  1  0  0  3  0  0  0  0  0  0
  184.3910  178.8850  143.3360 N   0  0  0  0  0  2  0  0  0  0  0  0
  185.9770  177.2270  146.9830 N   0  0  2  0  0  0  0  0  0  0  0  0
  188.1090  174.3270  142.7150 C   0  0  0  0  0  2  0  0  0  0  0  0
  186.9750  179.1250  147.8800 C   0  0  0  0  0  2  0  0  0  0  0  0
  184.9680  178.2250  142.2380 N   0  0  0  0  0  2  0  0  0  0  0  0
  185.0270  178.3370  147.0530 C   0  0  1  0  0  3  0  0  0  0  0  0
  185.5710  179.3060  147.9320 O   0  0  0  0  0  0  0  0  0  0  0  0
  187.0420  177.5740  141.2100 C   0  0  0  0  0  0  0  0  0  0  0  0
  186.8400  178.0700  140.0720 O   0  0  0  0  0  0  0  0  0  0  0  0
  189.4560  175.0050  142.4940 C   0  0  1  0  0  3  0  0  0  0  0  0
  188.0650  176.7330  143.8190 C   0  0  0  0  0  2  0  0  0  0  0  0
  187.2660  177.8690  147.0780 C   0  0  0  0  0  2  0  0  0  0  0  0
  184.4890  178.0720  144.5620 C   0  0  2  0  0  3  0  0  0  0  0  0
  184.7810  179.0250  145.7040 C   0  0  0  0  0  2  0  0  0  0  0  0
  187.8120  176.3840  141.3170 N   0  0  0  0  0  2  0  0  0  0  0  0
  185.8820  176.3360  145.8160 C   0  0  0  0  0  2  0  0  0  0  0  0
  188.1810  175.8260  142.5960 C   0  0  2  0  0  0  0  0  0  0  0  0
  186.4260  178.2270  142.4060 C   0  0  2  0  0  3  0  0  0  0  0  0
  190.2750  174.9090  143.7850 C   0  0  0  0  0  2  0  0  0  0  0  0
  191.5070  175.6070  143.6430 O   0  0  0  0  0  0  0  0  0  0  0  0
  191.7730  176.7900  144.3310 C   0  0  0  0  0  0  0  0  0  0  0  0
  191.4220  178.0990  143.7030 C   0  0  0  0  0  1  0  0  0  0  0  0
  192.2810  176.7790  145.4870 O   0  0  0  0  0  0  0  0  0  0  0  0
  1 15  1  0  0  0  0
  1 18  1  1  0  0  0
  2 13  1  6  0  0  0
  2  1  1  0  0  0  0
  3 15  1  0  0  0  0
  4 18  1  6  0  0  0
  4  8  1  0  0  0  0
  4 14  1  0  0  0  0
  6  9  1  0  0  0  0
  7 20  1  0  0  0  0
  7  3  1  0  0  0  0
  8 16  1  6  0  0  0
  8  9  1  0  0  0  0
 10 17  1  0  0  0  0
 11 10  2  0  0  0  0
 12 19  1  0  0  0  0
 12  5  1  0  0  0  0
 12 21  1  1  0  0  0
 14  6  1  0  0  0  0
 15 16  1  1  0  0  0
 17 19  1  0  0  0  0
 19  5  1  1  0  0  0
 19 13  1  0  0  0  0
 20 10  1  6  0  0  0
 20  2  1  0  0  0  0
 22 21  1  0  0  0  0
 22 23  1  0  0  0  0
 23 25  2  0  0  0  0
 24 23  1  0  0  0  0
M  END
>  <MODEL>
1

>  <REMARK>
 VINA RESULT:      -6.6      0.000      0.000
  Name = 
  3 active torsions:
  status: ('A' for Active; 'I' for Inactive)
    1  A    between atoms: C_2  and  O_21
    2  A    between atoms: C_15  and  C_25
    3  A    between atoms: O_21  and  C_25
                            x       y       z     vdW  Elec       q    Type
                         _______ _______ _______ _____ _____    ______ ____

>  <TORSDO>
F 3

$$$$
=
 OpenBabel11052417303D

 25 29  0  0  1  0  0  0  0  0999 V2000
  186.9090  178.1940  143.3240 C   0  0  2  0  0  3  0  0  0  0  0  0
  186.5590  176.9200  144.0780 C   0  0  1  0  0  3  0  0  0  0  0  0
  184.4310  178.4690  143.1910 N   0  0  0  0  0  2  0  0  0  0  0  0
  188.1280  177.5050  141.1970 N   0  0  2  0  0  0  0  0  0  0  0  0
  189.0940  177.4940  146.6960 C   0  0  0  0  0  2  0  0  0  0  0  0
  187.4550  175.6280  140.0020 C   0  0  0  0  0  2  0  0  0  0  0  0
  184.6230  178.4000  144.5810 N   0  0  0  0  0  2  0  0  0  0  0  0
  186.9360  177.7890  140.4000 C   0  0  1  0  0  3  0  0  0  0  0  0
  186.8130  176.7570  139.4370 O   0  0  0  0  0  0  0  0  0  0  0  0
  185.4040  177.0160  146.3860 C   0  0  0  0  0  0  0  0  0  0  0  0
  184.3770  177.0730  147.1110 O   0  0  0  0  0  0  0  0  0  0  0  0
  188.9580  176.0180  147.0540 C   0  0  1  0  0  3  0  0  0  0  0  0
  187.7350  176.2580  144.7900 C   0  0  0  0  0  2  0  0  0  0  0  0
  188.1530  176.0640  141.2770 C   0  0  0  0  0  2  0  0  0  0  0  0
  185.7110  178.6470  142.4810 C   0  0  2  0  0  3  0  0  0  0  0  0
  185.6370  177.8140  141.2170 C   0  0  0  0  0  2  0  0  0  0  0  0
  186.6780  176.9080  147.0060 N   0  0  0  0  0  2  0  0  0  0  0  0
  188.2150  178.1390  142.5230 C   0  0  0  0  0  2  0  0  0  0  0  0
  187.8860  176.7220  146.2370 C   0  0  2  0  0  0  0  0  0  0  0  0
  185.2510  177.1130  144.9020 C   0  0  2  0  0  3  0  0  0  0  0  0
  189.9770  175.2160  146.2400 C   0  0  0  0  0  2  0  0  0  0  0  0
  189.5700  173.8570  146.1360 O   0  0  0  0  0  0  0  0  0  0  0  0
  189.7760  173.1070  144.9790 C   0  0  0  0  0  0  0  0  0  0  0  0
  190.3210  173.7750  143.7580 C   0  0  0  0  0  1  0  0  0  0  0  0
  189.5350  171.8680  144.9460 O   0  0  0  0  0  0  0  0  0  0  0  0
  1 18  1  6  0  0  0
  1  2  1  0  0  0  0
  2 13  1  1  0  0  0
  2 20  1  0  0  0  0
  3  7  1  0  0  0  0
  4 14  1  1  0  0  0
  4 18  1  0  0  0  0
  5 12  1  0  0  0  0
  6 14  1  0  0  0  0
  8  4  1  0  0  0  0
  8 16  1  1  0  0  0
  9  6  1  0  0  0  0
  9  8  1  0  0  0  0
 10 17  1  0  0  0  0
 10 11  2  0  0  0  0
 12 21  1  6  0  0  0
 15 16  1  6  0  0  0
 15  3  1  0  0  0  0
 15  1  1  0  0  0  0
 19 13  1  6  0  0  0
 19  5  1  0  0  0  0
 19 17  1  0  0  0  0
 19 12  1  0  0  0  0
 20  7  1  1  0  0  0
 20 10  1  0  0  0  0
 22 21  1  0  0  0  0
 23 22  1  0  0  0  0
 24 23  1  0  0  0  0
 25 23  2  0  0  0  0
M  END
>  <MODEL>
2

>  <REMARK>
 VINA RESULT:      -6.6      1.990      4.981
  Name = 
  3 active torsions:
  status: ('A' for Active; 'I' for Inactive)
    1  A    between atoms: C_2  and  O_21
    2  A    between atoms: C_15  and  C_25
    3  A    between atoms: O_21  and  C_25
                            x       y       z     vdW  Elec       q    Type
                         _______ _______ _______ _____ _____    ______ ____

>  <TORSDO>
F 3

$$$$
=
 OpenBabel11052417303D

 25 29  0  0  1  0  0  0  0  0999 V2000
  190.9810  176.0200  143.4400 C   0  0  2  0  0  3  0  0  0  0  0  0
  189.5840  175.4180  143.4420 C   0  0  1  0  0  3  0  0  0  0  0  0
  191.6740  173.7170  142.7700 N   0  0  0  0  0  2  0  0  0  0  0  0
  191.4950  176.7520  145.8240 N   0  0  2  0  0  0  0  0  0  0  0  0
  188.0880  178.2930  141.6780 C   0  0  0  0  0  2  0  0  0  0  0  0
  190.8220  175.4540  147.6320 C   0  0  0  0  0  2  0  0  0  0  0  0
  190.7690  174.0380  141.7440 N   0  0  0  0  0  2  0  0  0  0  0  0
  192.3810  175.6020  146.0060 C   0  0  1  0  0  3  0  0  0  0  0  0
  192.1510  175.0900  147.3060 O   0  0  0  0  0  0  0  0  0  0  0  0
  188.4840  174.6040  141.2520 C   0  0  0  0  0  0  0  0  0  0  0  0
  188.2660  173.7220  140.3820 O   0  0  0  0  0  0  0  0  0  0  0  0
  186.7310  177.7940  142.1620 C   0  0  1  0  0  3  0  0  0  0  0  0
  188.4520  176.4370  143.5310 C   0  0  0  0  0  2  0  0  0  0  0  0
  190.3030  176.3850  146.5520 C   0  0  0  0  0  2  0  0  0  0  0  0
  192.0290  174.9080  143.5640 C   0  0  2  0  0  3  0  0  0  0  0  0
  192.1270  174.4630  145.0100 C   0  0  0  0  0  2  0  0  0  0  0  0
  187.8290  175.8600  141.1380 N   0  0  0  0  0  2  0  0  0  0  0  0
  191.2010  177.1600  144.4410 C   0  0  0  0  0  2  0  0  0  0  0  0
  187.9410  176.8740  142.1600 C   0  0  2  0  0  0  0  0  0  0  0  0
  189.4600  174.3170  142.3470 C   0  0  2  0  0  3  0  0  0  0  0  0
  186.4140  178.4520  143.5070 C   0  0  0  0  0  2  0  0  0  0  0  0
  185.1110  178.0840  143.9440 O   0  0  0  0  0  0  0  0  0  0  0  0
  184.8060  177.8960  145.2910 C   0  0  0  0  0  0  0  0  0  0  0  0
  185.4730  176.7960  146.0490 C   0  0  0  0  0  1  0  0  0  0  0  0
  183.9940  178.6540  145.8940 O   0  0  0  0  0  0  0  0  0  0  0  0
  1  2  1  0  0  0  0
  1 15  1  0  0  0  0
  1 18  1  1  0  0  0
  2 13  1  6  0  0  0
  3 15  1  0  0  0  0
  4 18  1  6  0  0  0
  4  8  1  0  0  0  0
  4 14  1  0  0  0  0
  5 12  1  0  0  0  0
  7 20  1  0  0  0  0
  7  3  1  0  0  0  0
  8 16  1  6  0  0  0
  8  9  1  0  0  0  0
  9  6  1  0  0  0  0
 11 10  2  0  0  0  0
 12 21  1  1  0  0  0
 14  6  1  0  0  0  0
 15 16  1  1  0  0  0
 17 10  1  0  0  0  0
 17 19  1  0  0  0  0
 19  5  1  6  0  0  0
 19 12  1  0  0  0  0
 19 13  1  0  0  0  0
 20 10  1  6  0  0  0
 20  2  1  0  0  0  0
 21 22  1  0  0  0  0
 22 23  1  0  0  0  0
 23 25  2  0  0  0  0
 23 24  1  0  0  0  0
M  END
>  <MODEL>
3

>  <REMARK>
 VINA RESULT:      -6.5      2.595      5.920
  Name = 
  3 active torsions:
  status: ('A' for Active; 'I' for Inactive)
    1  A    between atoms: C_2  and  O_21
    2  A    between atoms: C_15  and  C_25
    3  A    between atoms: O_21  and  C_25
                            x       y       z     vdW  Elec       q    Type
                         _______ _______ _______ _____ _____    ______ ____

>  <TORSDO>
F 3

$$$$
=
 OpenBabel11052417303D

 25 29  0  0  1  0  0  0  0  0999 V2000
  190.4010  174.4010  143.3250 C   0  0  2  0  0  3  0  0  0  0  0  0
  189.7570  175.7150  142.9110 C   0  0  1  0  0  3  0  0  0  0  0  0
  192.3820  175.3030  142.1010 N   0  0  0  0  0  2  0  0  0  0  0  0
  189.0870  172.5280  142.2070 N   0  0  2  0  0  0  0  0  0  0  0  0
  188.2740  176.3050  146.2380 C   0  0  0  0  0  2  0  0  0  0  0  0
  188.2950  172.7700  140.0350 C   0  0  0  0  0  2  0  0  0  0  0  0
  192.1680  176.3120  143.0550 N   0  0  0  0  0  2  0  0  0  0  0  0
  190.1590  172.3310  141.2320 C   0  0  1  0  0  3  0  0  0  0  0  0
  189.5520  172.1180  139.9710 O   0  0  0  0  0  0  0  0  0  0  0  0
  190.6110  177.9660  143.8460 C   0  0  0  0  0  0  0  0  0  0  0  0
  191.3770  178.9640  143.8080 O   0  0  0  0  0  0  0  0  0  0  0  0
  187.3440  177.3090  145.5680 C   0  0  1  0  0  3  0  0  0  0  0  0
  188.4360  176.0240  143.6100 C   0  0  0  0  0  2  0  0  0  0  0  0
  188.0690  173.2300  141.4620 C   0  0  0  0  0  2  0  0  0  0  0  0
  191.5950  174.0950  142.4130 C   0  0  2  0  0  3  0  0  0  0  0  0
  191.0960  173.5380  141.0940 C   0  0  0  0  0  2  0  0  0  0  0  0
  189.6050  177.9080  144.8480 N   0  0  0  0  0  2  0  0  0  0  0  0
  189.4370  173.2160  143.4600 C   0  0  0  0  0  2  0  0  0  0  0  0
  188.6200  176.8540  144.8790 C   0  0  2  0  0  0  0  0  0  0  0  0
  190.8170  176.8550  142.8670 C   0  0  2  0  0  3  0  0  0  0  0  0
  186.0690  176.5840  145.1260 C   0  0  0  0  0  2  0  0  0  0  0  0
  185.2480  177.4510  144.3530 O   0  0  0  0  0  0  0  0  0  0  0  0
  184.8470  178.7030  144.8170 C   0  0  0  0  0  0  0  0  0  0  0  0
  185.3680  179.9350  144.1530 C   0  0  0  0  0  1  0  0  0  0  0  0
  184.0310  178.8190  145.7750 O   0  0  0  0  0  0  0  0  0  0  0  0
  1 18  1  6  0  0  0
  2  1  1  0  0  0  0
  2 13  1  1  0  0  0
  3 15  1  0  0  0  0
  3  7  1  0  0  0  0
  4 14  1  6  0  0  0
  4 18  1  0  0  0  0
  6 14  1  0  0  0  0
  8 16  1  6  0  0  0
  8  4  1  0  0  0  0
  9  6  1  0  0  0  0
  9  8  1  0  0  0  0
 10 17  1  0  0  0  0
 11 10  2  0  0  0  0
 12 21  1  6  0  0  0
 12  5  1  0  0  0  0
 15 16  1  6  0  0  0
 15  1  1  0  0  0  0
 17 19  1  0  0  0  0
 19 13  1  6  0  0  0
 19 12  1  0  0  0  0
 19  5  1  0  0  0  0
 20  2  1  0  0  0  0
 20  7  1  1  0  0  0
 20 10  1  0  0  0  0
 22 23  1  0  0  0  0
 22 21  1  0  0  0  0
 23 25  2  0  0  0  0
 24 23  1  0  0  0  0
M  END
>  <MODEL>
4

>  <REMARK>
 VINA RESULT:      -6.4      2.800      6.855
  Name = 
  3 active torsions:
  status: ('A' for Active; 'I' for Inactive)
    1  A    between atoms: C_2  and  O_21
    2  A    between atoms: C_15  and  C_25
    3  A    between atoms: O_21  and  C_25
                            x       y       z     vdW  Elec       q    Type
                         _______ _______ _______ _____ _____    ______ ____

>  <TORSDO>
F 3

$$$$
=
 OpenBabel11052417303D

 25 29  0  0  1  0  0  0  0  0999 V2000
  187.1270  178.2910  144.8350 C   0  0  2  0  0  3  0  0  0  0  0  0
  187.1230  176.7700  144.8380 C   0  0  1  0  0  3  0  0  0  0  0  0
  186.0590  178.0240  147.0760 N   0  0  0  0  0  2  0  0  0  0  0  0
  185.6390  179.0470  142.9110 N   0  0  2  0  0  0  0  0  0  0  0  0
  190.5780  176.5260  143.5650 C   0  0  0  0  0  2  0  0  0  0  0  0
  183.6690  177.9160  142.4220 C   0  0  0  0  0  2  0  0  0  0  0  0
  187.2610  177.3190  147.2610 N   0  0  0  0  0  2  0  0  0  0  0  0
  184.5790  179.4110  143.8500 C   0  0  1  0  0  3  0  0  0  0  0  0
  183.3490  178.9960  143.2810 O   0  0  0  0  0  0  0  0  0  0  0  0
  188.5660  175.4410  146.5180 C   0  0  0  0  0  0  0  0  0  0  0  0
  188.7450  174.8950  147.6380 O   0  0  0  0  0  0  0  0  0  0  0  0
  190.2650  175.0820  143.1920 C   0  0  1  0  0  3  0  0  0  0  0  0
  187.9660  176.1290  143.7390 C   0  0  0  0  0  2  0  0  0  0  0  0
  185.1790  177.8060  142.3350 C   0  0  0  0  0  2  0  0  0  0  0  0
  186.0890  178.8170  145.8330 C   0  0  2  0  0  3  0  0  0  0  0  0
  184.7050  178.7300  145.2190 C   0  0  0  0  0  2  0  0  0  0  0  0
  189.5810  175.3330  145.5300 N   0  0  0  0  0  2  0  0  0  0  0  0
  187.0040  178.9400  143.4510 C   0  0  0  0  0  2  0  0  0  0  0  0
  189.3950  175.8330  144.1880 C   0  0  2  0  0  0  0  0  0  0  0  0
  187.3150  176.2250  146.2850 C   0  0  2  0  0  3  0  0  0  0  0  0
  189.7310  175.0460  141.7570 C   0  0  0  0  0  2  0  0  0  0  0  0
  189.6830  173.7070  141.2790 O   0  0  0  0  0  0  0  0  0  0  0  0
  188.4800  173.0690  140.9810 C   0  0  0  0  0  0  0  0  0  0  0  0
  188.1920  172.6660  139.5720 C   0  0  0  0  0  1  0  0  0  0  0  0
  187.6360  172.8000  141.8820 O   0  0  0  0  0  0  0  0  0  0  0  0
  1 18  1  6  0  0  0
  1  2  1  0  0  0  0
  1 15  1  0  0  0  0
  2 13  1  6  0  0  0
  2 20  1  0  0  0  0
  3  7  1  0  0  0  0
  4 14  1  1  0  0  0
  4 18  1  0  0  0  0
  4  8  1  0  0  0  0
  6  9  1  0  0  0  0
  8 16  1  1  0  0  0
  9  8  1  0  0  0  0
 10 11  2  0  0  0  0
 12 21  1  6  0  0  0
 12  5  1  0  0  0  0
 12 19  1  0  0  0  0
 13 19  1  0  0  0  0
 14  6  1  0  0  0  0
 15 16  1  6  0  0  0
 15  3  1  0  0  0  0
 17 10  1  0  0  0  0
 19  5  1  1  0  0  0
 19 17  1  0  0  0  0
 20 10  1  6  0  0  0
 20  7  1  0  0  0  0
 22 21  1  0  0  0  0
 23 22  1  0  0  0  0
 23 25  2  0  0  0  0
 24 23  1  0  0  0  0
M  END
>  <MODEL>
5

>  <REMARK>
 VINA RESULT:      -6.4      2.489      4.588
  Name = 
  3 active torsions:
  status: ('A' for Active; 'I' for Inactive)
    1  A    between atoms: C_2  and  O_21
    2  A    between atoms: C_15  and  C_25
    3  A    between atoms: O_21  and  C_25
                            x       y       z     vdW  Elec       q    Type
                         _______ _______ _______ _____ _____    ______ ____

>  <TORSDO>
F 3

$$$$
=
 OpenBabel11052417303D

 25 29  0  0  1  0  0  0  0  0999 V2000
  187.0710  178.1450  143.4480 C   0  0  2  0  0  3  0  0  0  0  0  0
  186.8400  176.8460  144.2060 C   0  0  1  0  0  3  0  0  0  0  0  0
  184.5790  178.3000  143.5050 N   0  0  0  0  0  2  0  0  0  0  0  0
  188.1570  177.5410  141.2250 N   0  0  2  0  0  0  0  0  0  0  0  0
  189.5360  177.5120  146.6350 C   0  0  0  0  0  2  0  0  0  0  0  0
  187.4870  175.6470  140.0550 C   0  0  0  0  0  2  0  0  0  0  0  0
  184.8790  178.2230  144.8760 N   0  0  0  0  0  2  0  0  0  0  0  0
  186.8960  177.7760  140.5240 C   0  0  1  0  0  3  0  0  0  0  0  0
  186.7500  176.7500  139.5580 O   0  0  0  0  0  0  0  0  0  0  0  0
  185.8600  176.8590  146.5960 C   0  0  0  0  0  0  0  0  0  0  0  0
  184.8890  176.8560  147.3960 O   0  0  0  0  0  0  0  0  0  0  0  0
  189.4990  176.0280  146.9790 C   0  0  1  0  0  3  0  0  0  0  0  0
  188.0970  176.2340  144.8170 C   0  0  0  0  0  2  0  0  0  0  0  0
  188.2580  176.1020  141.2810 C   0  0  0  0  0  2  0  0  0  0  0  0
  185.7930  178.5480  142.7040 C   0  0  2  0  0  3  0  0  0  0  0  0
  185.6630  177.7270  141.4360 C   0  0  0  0  0  2  0  0  0  0  0  0
  187.1810  176.8060  147.1160 N   0  0  0  0  0  2  0  0  0  0  0  0
  188.3130  178.1630  142.5500 C   0  0  0  0  0  2  0  0  0  0  0  0
  188.3350  176.6880  146.2560 C   0  0  2  0  0  0  0  0  0  0  0  0
  185.5910  176.9650  145.1290 C   0  0  2  0  0  3  0  0  0  0  0  0
  190.4900  175.2870  146.0780 C   0  0  0  0  0  2  0  0  0  0  0  0
  191.7730  175.2340  146.6910 O   0  0  0  0  0  0  0  0  0  0  0  0
  192.8960  175.8230  146.1120 C   0  0  0  0  0  0  0  0  0  0  0  0
  192.7360  176.6670  144.8900 C   0  0  0  0  0  1  0  0  0  0  0  0
  194.0470  175.6780  146.6120 O   0  0  0  0  0  0  0  0  0  0  0  0
  1 18  1  6  0  0  0
  1  2  1  0  0  0  0
  2 13  1  1  0  0  0
  2 20  1  0  0  0  0
  3  7  1  0  0  0  0
  4 14  1  1  0  0  0
  4 18  1  0  0  0  0
  5 12  1  0  0  0  0
  6 14  1  0  0  0  0
  8  4  1  0  0  0  0
  8 16  1  1  0  0  0
  9  6  1  0  0  0  0
  9  8  1  0  0  0  0
 10 17  1  0  0  0  0
 10 11  2  0  0  0  0
 12 21  1  6  0  0  0
 15 16  1  6  0  0  0
 15  1  1  0  0  0  0
 15  3  1  0  0  0  0
 19 13  1  6  0  0  0
 19  5  1  0  0  0  0
 19 12  1  0  0  0  0
 19 17  1  0  0  0  0
 20  7  1  1  0  0  0
 20 10  1  0  0  0  0
 21 22  1  0  0  0  0
 23 25  2  0  0  0  0
 23 22  1  0  0  0  0
 24 23  1  0  0  0  0
M  END
>  <MODEL>
6

>  <REMARK>
 VINA RESULT:      -6.3      1.757      4.739
  Name = 
  3 active torsions:
  status: ('A' for Active; 'I' for Inactive)
    1  A    between atoms: C_2  and  O_21
    2  A    between atoms: C_15  and  C_25
    3  A    between atoms: O_21  and  C_25
                            x       y       z     vdW  Elec       q    Type
                         _______ _______ _______ _____ _____    ______ ____

>  <TORSDO>
F 3

$$$$
=
 OpenBabel11052417303D

 25 29  0  0  1  0  0  0  0  0999 V2000
  188.6950  177.5860  144.3170 C   0  0  2  0  0  3  0  0  0  0  0  0
  188.6010  176.0730  144.4340 C   0  0  1  0  0  3  0  0  0  0  0  0
  186.8250  177.5550  145.9720 N   0  0  0  0  0  2  0  0  0  0  0  0
  188.1200  178.1960  141.9120 N   0  0  2  0  0  0  0  0  0  0  0  0
  192.2580  175.6280  144.6430 C   0  0  0  0  0  2  0  0  0  0  0  0
  186.4320  177.0720  140.7760 C   0  0  0  0  0  2  0  0  0  0  0  0
  187.8170  176.8410  146.6670 N   0  0  0  0  0  2  0  0  0  0  0  0
  186.8010  178.6710  142.3280 C   0  0  1  0  0  3  0  0  0  0  0  0
  185.8680  178.2350  141.3550 O   0  0  0  0  0  0  0  0  0  0  0  0
  189.1960  174.8720  146.6420 C   0  0  0  0  0  0  0  0  0  0  0  0
  188.8920  174.4280  147.7800 O   0  0  0  0  0  0  0  0  0  0  0  0
  192.0300  174.1640  144.2880 C   0  0  1  0  0  3  0  0  0  0  0  0
  189.7660  175.3120  143.8070 C   0  0  0  0  0  2  0  0  0  0  0  0
  187.8490  176.9190  141.2970 C   0  0  0  0  0  2  0  0  0  0  0  0
  187.3830  178.2270  144.7840 C   0  0  2  0  0  3  0  0  0  0  0  0
  186.3450  178.1170  143.6840 C   0  0  0  0  0  2  0  0  0  0  0  0
  190.5070  174.6470  146.1430 N   0  0  0  0  0  2  0  0  0  0  0  0
  189.1590  178.1060  142.9510 C   0  0  0  0  0  2  0  0  0  0  0  0
  190.8880  175.0250  144.8020 C   0  0  2  0  0  0  0  0  0  0  0  0
  188.1820  175.6600  145.8760 C   0  0  2  0  0  3  0  0  0  0  0  0
  192.0960  174.0080  142.7660 C   0  0  0  0  0  2  0  0  0  0  0  0
  191.8370  172.6590  142.3940 O   0  0  0  0  0  0  0  0  0  0  0  0
  190.6160  172.2610  141.8510 C   0  0  0  0  0  0  0  0  0  0  0  0
  189.5220  171.8040  142.7600 C   0  0  0  0  0  1  0  0  0  0  0  0
  190.4050  172.3030  140.6060 O   0  0  0  0  0  0  0  0  0  0  0  0
  1 18  1  6  0  0  0
  1  2  1  0  0  0  0
  1 15  1  0  0  0  0
  2 13  1  1  0  0  0
  2 20  1  0  0  0  0
  3  7  1  0  0  0  0
  4 14  1  1  0  0  0
  4  8  1  0  0  0  0
  4 18  1  0  0  0  0
  5 19  1  0  0  0  0
  6 14  1  0  0  0  0
  6  9  1  0  0  0  0
  8 16  1  1  0  0  0
  9  8  1  0  0  0  0
 10 11  2  0  0  0  0
 12 21  1  6  0  0  0
 12  5  1  0  0  0  0
 12 19  1  0  0  0  0
 15 16  1  6  0  0  0
 15  3  1  0  0  0  0
 17 10  1  0  0  0  0
 19 13  1  6  0  0  0
 19 17  1  0  0  0  0
 20 10  1  1  0  0  0
 20  7  1  0  0  0  0
 22 21  1  0  0  0  0
 23 22  1  0  0  0  0
 23 24  1  0  0  0  0
 25 23  2  0  0  0  0
M  END
>  <MODEL>
7

>  <REMARK>
 VINA RESULT:      -6.2      2.585      5.094
  Name = 
  3 active torsions:
  status: ('A' for Active; 'I' for Inactive)
    1  A    between atoms: C_2  and  O_21
    2  A    between atoms: C_15  and  C_25
    3  A    between atoms: O_21  and  C_25
                            x       y       z     vdW  Elec       q    Type
                         _______ _______ _______ _____ _____    ______ ____

>  <TORSDO>
F 3

$$$$
=
 OpenBabel11052417303D

 25 29  0  0  1  0  0  0  0  0999 V2000
  189.7320  177.4100  144.7610 C   0  0  2  0  0  3  0  0  0  0  0  0
  190.2560  176.0210  145.0890 C   0  0  1  0  0  3  0  0  0  0  0  0
  188.0370  176.8870  146.5180 N   0  0  0  0  0  2  0  0  0  0  0  0
  188.9550  177.3750  142.3360 N   0  0  2  0  0  0  0  0  0  0  0  0
  193.7830  177.1030  145.1280 C   0  0  0  0  0  2  0  0  0  0  0  0
  187.8590  175.5160  141.4710 C   0  0  0  0  0  2  0  0  0  0  0  0
  189.2340  176.7390  147.2410 N   0  0  0  0  0  2  0  0  0  0  0  0
  187.5570  177.3420  142.7650 C   0  0  1  0  0  3  0  0  0  0  0  0
  186.8760  176.4310  141.9210 O   0  0  0  0  0  0  0  0  0  0  0  0
  191.2890  175.5000  147.3980 C   0  0  0  0  0  0  0  0  0  0  0  0
  191.1920  175.1480  148.6020 O   0  0  0  0  0  0  0  0  0  0  0  0
  194.1630  175.6330  144.9900 C   0  0  1  0  0  3  0  0  0  0  0  0
  191.6260  175.7010  144.4990 C   0  0  0  0  0  2  0  0  0  0  0  0
  189.2190  176.0180  141.9190 C   0  0  0  0  0  2  0  0  0  0  0  0
  188.2740  177.5400  145.2170 C   0  0  2  0  0  3  0  0  0  0  0  0
  187.3660  176.8630  144.2100 C   0  0  0  0  0  2  0  0  0  0  0  0
  192.5780  175.7430  146.8530 N   0  0  0  0  0  2  0  0  0  0  0  0
  189.9440  177.8610  143.3110 C   0  0  0  0  0  2  0  0  0  0  0  0
  192.7720  176.0360  145.4530 C   0  0  2  0  0  0  0  0  0  0  0  0
  190.0420  175.6960  146.5970 C   0  0  2  0  0  3  0  0  0  0  0  0
  194.2820  175.2900  143.5030 C   0  0  0  0  0  2  0  0  0  0  0  0
  195.6500  175.1950  143.1240 O   0  0  0  0  0  0  0  0  0  0  0  0
  196.3600  176.2880  142.6290 C   0  0  0  0  0  0  0  0  0  0  0  0
  196.1070  176.7580  141.2340 C   0  0  0  0  0  1  0  0  0  0  0  0
  197.1980  176.9070  143.3440 O   0  0  0  0  0  0  0  0  0  0  0  0
  1 18  1  6  0  0  0
  1  2  1  0  0  0  0
  1 15  1  0  0  0  0
  2 13  1  1  0  0  0
  2 20  1  0  0  0  0
  3  7  1  0  0  0  0
  4 14  1  1  0  0  0
  4  8  1  0  0  0  0
  4 18  1  0  0  0  0
  5 19  1  0  0  0  0
  6 14  1  0  0  0  0
  6  9  1  0  0  0  0
  8 16  1  1  0  0  0
  9  8  1  0  0  0  0
 10 11  2  0  0  0  0
 12 21  1  6  0  0  0
 12  5  1  0  0  0  0
 12 19  1  0  0  0  0
 15 16  1  6  0  0  0
 15  3  1  0  0  0  0
 17 10  1  0  0  0  0
 19 13  1  6  0  0  0
 19 17  1  0  0  0  0
 20  7  1  1  0  0  0
 20 10  1  0  0  0  0
 22 21  1  0  0  0  0
 23 22  1  0  0  0  0
 23 25  2  0  0  0  0
 24 23  1  0  0  0  0
M  END
>  <MODEL>
8

>  <REMARK>
 VINA RESULT:      -6.1      3.137      5.788
  Name = 
  3 active torsions:
  status: ('A' for Active; 'I' for Inactive)
    1  A    between atoms: C_2  and  O_21
    2  A    between atoms: C_15  and  C_25
    3  A    between atoms: O_21  and  C_25
                            x       y       z     vdW  Elec       q    Type
                         _______ _______ _______ _____ _____    ______ ____

>  <TORSDO>
F 3

$$$$
=
 OpenBabel11052417303D

 25 29  0  0  1  0  0  0  0  0999 V2000
  190.6540  172.9440  144.6910 C   0  0  2  0  0  3  0  0  0  0  0  0
  190.8970  174.4010  144.3320 C   0  0  1  0  0  3  0  0  0  0  0  0
  193.1390  172.7730  144.5180 N   0  0  0  0  0  2  0  0  0  0  0  0
  189.2760  171.9190  142.8110 N   0  0  2  0  0  0  0  0  0  0  0  0
  188.5560  175.6650  146.8880 C   0  0  0  0  0  2  0  0  0  0  0  0
  189.6880  172.4880  140.5950 C   0  0  0  0  0  2  0  0  0  0  0  0
  193.0020  173.7710  145.4980 N   0  0  0  0  0  2  0  0  0  0  0  0
  190.4560  171.2220  142.3010 C   0  0  1  0  0  3  0  0  0  0  0  0
  190.4240  171.3130  140.8870 O   0  0  0  0  0  0  0  0  0  0  0  0
  192.1550  175.9770  145.9460 C   0  0  0  0  0  0  0  0  0  0  0  0
  193.2130  176.4840  146.4000 O   0  0  0  0  0  0  0  0  0  0  0  0
  188.5460  176.9860  146.1260 C   0  0  1  0  0  3  0  0  0  0  0  0
  189.6880  175.3130  144.5210 C   0  0  0  0  0  2  0  0  0  0  0  0
  189.0980  173.0160  141.8890 C   0  0  0  0  0  2  0  0  0  0  0  0
  191.8560  172.0940  144.2620 C   0  0  2  0  0  3  0  0  0  0  0  0
  191.7840  171.8300  142.7710 C   0  0  0  0  0  2  0  0  0  0  0  0
  190.9050  176.4190  146.4560 N   0  0  0  0  0  2  0  0  0  0  0  0
  189.3160  172.3680  144.2120 C   0  0  0  0  0  2  0  0  0  0  0  0
  189.6520  175.9670  145.9010 C   0  0  2  0  0  0  0  0  0  0  0  0
  192.2530  174.8930  144.9210 C   0  0  2  0  0  3  0  0  0  0  0  0
  187.4120  176.9560  145.0980 C   0  0  0  0  0  2  0  0  0  0  0  0
  187.1790  178.2600  144.5790 O   0  0  0  0  0  0  0  0  0  0  0  0
  185.9930  178.9530  144.8190 C   0  0  0  0  0  0  0  0  0  0  0  0
  185.4630  179.0400  146.2130 C   0  0  0  0  0  1  0  0  0  0  0  0
  185.3680  179.5320  143.8860 O   0  0  0  0  0  0  0  0  0  0  0  0
  1 18  1  6  0  0  0
  2 13  1  1  0  0  0
  2  1  1  0  0  0  0
  2 20  1  0  0  0  0
  3  7  1  0  0  0  0
  4 14  1  6  0  0  0
  4 18  1  0  0  0  0
  6  9  1  0  0  0  0
  6 14  1  0  0  0  0
  8 16  1  1  0  0  0
  8  4  1  0  0  0  0
  9  8  1  0  0  0  0
 10 11  2  0  0  0  0
 10 17  1  0  0  0  0
 12 21  1  6  0  0  0
 12  5  1  0  0  0  0
 15 16  1  6  0  0  0
 15  3  1  0  0  0  0
 15  1  1  0  0  0  0
 19 13  1  6  0  0  0
 19 12  1  0  0  0  0
 19 17  1  0  0  0  0
 19  5  1  0  0  0  0
 20  7  1  1  0  0  0
 20 10  1  0  0  0  0
 22 23  1  0  0  0  0
 22 21  1  0  0  0  0
 23 24  1  0  0  0  0
 25 23  2  0  0  0  0
M  END
>  <MODEL>
9

>  <REMARK>
 VINA RESULT:      -6.1      3.509      7.539
  Name = 
  3 active torsions:
  status: ('A' for Active; 'I' for Inactive)
    1  A    between atoms: C_2  and  O_21
    2  A    between atoms: C_15  and  C_25
    3  A    between atoms: O_21  and  C_25
                            x       y       z     vdW  Elec       q    Type
                         _______ _______ _______ _____ _____    ______ ____

>  <TORSDO>
F 3

$$$$
