=
 OpenBabel11052417553D

 31 35  0  0  1  0  0  0  0  0999 V2000
  185.8690  178.0730  140.8340 C   0  0  0  0  0  0  0  0  0  0  0  0
  187.9930  177.7750  143.9250 N   0  0  0  0  0  0  0  0  0  0  0  0
  187.1290  177.7960  145.0830 C   0  0  0  0  0  0  0  0  0  0  0  0
  191.0800  173.9500  142.1020 O   0  0  0  0  0  0  0  0  0  0  0  0
  191.6350  174.4680  143.1100 C   0  0  0  0  0  0  0  0  0  0  0  0
  185.0200  178.3060  146.1780 C   0  0  0  0  0  0  0  0  0  0  0  0
  187.4780  177.6090  142.5890 C   0  0  0  0  0  0  0  0  0  0  0  0
  186.5320  177.1790  139.9860 C   0  0  0  0  0  3  0  0  0  0  0  0
  185.8250  178.3140  145.0350 C   0  0  0  0  0  3  0  0  0  0  0  0
  189.9040  176.3330  143.3160 C   0  0  0  0  0  0  0  0  0  0  0  0
  184.7670  178.7290  140.3970 F   0  0  0  0  0  0  0  0  0  0  0  0
  188.9810  176.6930  146.3100 C   0  0  0  0  0  2  0  0  0  0  0  0
  183.6410  178.8570  146.1170 C   0  0  0  0  0  1  0  0  0  0  0  0
  189.3130  176.0250  142.1950 N   0  0  0  0  0  0  0  0  0  0  0  0
  189.4450  177.5460  144.0920 C   0  0  2  0  0  3  0  0  0  0  0  0
  191.0800  175.6280  143.7380 N   0  0  0  0  0  2  0  0  0  0  0  0
  186.3390  178.2860  142.1320 C   0  0  0  0  0  3  0  0  0  0  0  0
  185.5090  177.7760  147.3750 C   0  0  0  0  0  3  0  0  0  0  0  0
  188.1500  176.7230  141.7270 C   0  0  0  0  0  0  0  0  0  0  0  0
  187.6700  176.5030  140.4330 C   0  0  0  0  0  3  0  0  0  0  0  0
  189.8730  177.5200  145.5010 N   0  0  0  0  0  2  0  0  0  0  0  0
  187.6110  177.2780  146.2910 C   0  0  0  0  0  0  0  0  0  0  0  0
  186.8050  177.2570  147.4320 C   0  0  0  0  0  3  0  0  0  0  0  0
  194.0730  175.5620  145.7880 C   0  0  1  0  0  3  0  0  0  0  0  0
  192.7340  173.5300  145.1670 C   0  0  0  0  0  2  0  0  0  0  0  0
  194.3380  175.0750  141.9780 C   0  0  0  0  0  1  0  0  0  0  0  0
  194.0860  176.8090  146.6470 C   0  0  0  0  0  1  0  0  0  0  0  0
  192.7810  174.7880  146.0370 C   0  0  0  0  0  2  0  0  0  0  0  0
  194.1560  174.7090  143.4400 C   0  0  2  0  0  3  0  0  0  0  0  0
  192.8890  173.8660  143.6800 C   0  0  2  0  0  3  0  0  0  0  0  0
  194.1790  175.9590  144.3180 C   0  0  0  0  0  2  0  0  0  0  0  0
  1 17  1  0  0  0  0
  2 15  1  0  0  0  0
  2  3  1  0  0  0  0
  3 22  1  0  0  0  0
  4  5  2  0  0  0  0
  5 16  1  0  0  0  0
  6 18  2  0  0  0  0
  7  2  1  0  0  0  0
  8 20  1  0  0  0  0
  8  1  2  0  0  0  0
  9  3  2  0  0  0  0
  9  6  1  0  0  0  0
 10 16  1  0  0  0  0
 11  1  1  0  0  0  0
 13  6  1  0  0  0  0
 14 10  2  0  0  0  0
 15 10  1  1  0  0  0
 15 21  1  0  0  0  0
 17  7  2  0  0  0  0
 18 23  1  0  0  0  0
 19 14  1  0  0  0  0
 19  7  1  0  0  0  0
 20 19  2  0  0  0  0
 21 12  1  0  0  0  0
 22 12  1  0  0  0  0
 22 23  2  0  0  0  0
 24 28  1  0  0  0  0
 24 27  1  1  0  0  0
 25 28  1  0  0  0  0
 29 26  1  6  0  0  0
 29 30  1  0  0  0  0
 29 31  1  0  0  0  0
 30  5  1  1  0  0  0
 30 25  1  0  0  0  0
 31 24  1  0  0  0  0
M  END
>  <MODEL>
1

>  <REMARK>
 VINA RESULT:      -9.6      0.000      0.000
  Name = 
  1 active torsions:
  status: ('A' for Active; 'I' for Inactive)
    1  A    between atoms: C_9  and  C_22
                            x       y       z     vdW  Elec       q    Type
                         _______ _______ _______ _____ _____    ______ ____

>  <TORSDO>
F 1

$$$$
=
 OpenBabel11052417553D

 31 35  0  0  1  0  0  0  0  0999 V2000
  185.1680  177.9860  146.9550 C   0  0  0  0  0  0  0  0  0  0  0  0
  186.6100  176.6440  143.7500 N   0  0  0  0  0  0  0  0  0  0  0  0
  185.8530  177.1820  142.6420 C   0  0  0  0  0  0  0  0  0  0  0  0
  191.6330  177.3750  145.0620 O   0  0  0  0  0  0  0  0  0  0  0  0
  191.5850  176.5850  144.0800 C   0  0  0  0  0  0  0  0  0  0  0  0
  183.8660  178.2190  141.7030 C   0  0  0  0  0  0  0  0  0  0  0  0
  186.4800  177.1630  145.0890 C   0  0  0  0  0  0  0  0  0  0  0  0
  186.3400  178.2120  147.6840 C   0  0  0  0  0  3  0  0  0  0  0  0
  184.5590  177.7000  142.8010 C   0  0  0  0  0  3  0  0  0  0  0  0
  189.0390  176.4060  144.1300 C   0  0  0  0  0  0  0  0  0  0  0  0
  183.9630  178.2790  147.5040 F   0  0  0  0  0  0  0  0  0  0  0  0
  187.8290  176.6760  141.2300 C   0  0  0  0  0  2  0  0  0  0  0  0
  182.4960  178.7640  141.8810 C   0  0  0  0  0  1  0  0  0  0  0  0
  188.9290  177.0720  145.2460 N   0  0  0  0  0  0  0  0  0  0  0  0
  187.8050  175.8110  143.4920 C   0  0  2  0  0  3  0  0  0  0  0  0
  190.3310  176.0990  143.5880 N   0  0  0  0  0  2  0  0  0  0  0  0
  185.2370  177.4660  145.6600 C   0  0  0  0  0  3  0  0  0  0  0  0
  184.4640  178.2290  140.4390 C   0  0  0  0  0  3  0  0  0  0  0  0
  187.6550  177.3770  145.8320 C   0  0  0  0  0  0  0  0  0  0  0  0
  187.5830  177.9100  147.1220 C   0  0  0  0  0  3  0  0  0  0  0  0
  187.9950  175.4890  142.0680 N   0  0  0  0  0  2  0  0  0  0  0  0
  186.4380  177.1880  141.3700 C   0  0  0  0  0  0  0  0  0  0  0  0
  185.7540  177.7170  140.2730 C   0  0  0  0  0  3  0  0  0  0  0  0
  193.6250  173.3990  144.1610 C   0  0  1  0  0  3  0  0  0  0  0  0
  192.6080  174.9500  142.4670 C   0  0  0  0  0  2  0  0  0  0  0  0
  194.2810  177.0170  145.3060 C   0  0  0  0  0  1  0  0  0  0  0  0
  193.4090  172.1200  144.9410 C   0  0  0  0  0  1  0  0  0  0  0  0
  192.4230  173.6520  143.2550 C   0  0  0  0  0  2  0  0  0  0  0  0
  194.0180  175.8600  144.3580 C   0  0  2  0  0  3  0  0  0  0  0  0
  192.8500  176.1440  143.3960 C   0  0  2  0  0  3  0  0  0  0  0  0
  193.8100  174.5600  145.1340 C   0  0  0  0  0  2  0  0  0  0  0  0
  1 11  1  0  0  0  0
  1  8  1  0  0  0  0
  2  7  1  0  0  0  0
  3  9  1  0  0  0  0
  3  2  1  0  0  0  0
  5  4  2  0  0  0  0
  6 13  1  0  0  0  0
  6  9  2  0  0  0  0
  7 17  1  0  0  0  0
  7 19  2  0  0  0  0
 10 14  2  0  0  0  0
 12 22  1  0  0  0  0
 12 21  1  0  0  0  0
 14 19  1  0  0  0  0
 15 21  1  6  0  0  0
 15  2  1  0  0  0  0
 15 10  1  0  0  0  0
 16  5  1  0  0  0  0
 16 10  1  0  0  0  0
 17  1  2  0  0  0  0
 18  6  1  0  0  0  0
 19 20  1  0  0  0  0
 20  8  2  0  0  0  0
 22  3  2  0  0  0  0
 23 18  2  0  0  0  0
 23 22  1  0  0  0  0
 24 27  1  1  0  0  0
 24 31  1  0  0  0  0
 25 28  1  0  0  0  0
 25 30  1  0  0  0  0
 28 24  1  0  0  0  0
 29 31  1  0  0  0  0
 29 26  1  1  0  0  0
 30  5  1  1  0  0  0
 30 29  1  0  0  0  0
M  END
>  <MODEL>
2

>  <REMARK>
 VINA RESULT:      -9.0      2.065      4.363
  Name = 
  1 active torsions:
  status: ('A' for Active; 'I' for Inactive)
    1  A    between atoms: C_9  and  C_22
                            x       y       z     vdW  Elec       q    Type
                         _______ _______ _______ _____ _____    ______ ____

>  <TORSDO>
F 1

$$$$
=
 OpenBabel11052417553D

 31 35  0  0  1  0  0  0  0  0999 V2000
  193.8010  174.4440  144.5720 C   0  0  0  0  0  0  0  0  0  0  0  0
  190.5330  175.6440  143.1460 N   0  0  0  0  0  0  0  0  0  0  0  0
  190.2400  174.8790  141.9550 C   0  0  0  0  0  0  0  0  0  0  0  0
  187.9810  175.8490  147.7210 O   0  0  0  0  0  0  0  0  0  0  0  0
  187.3300  176.5130  146.8680 C   0  0  0  0  0  0  0  0  0  0  0  0
  190.9050  173.4510  140.1040 C   0  0  0  0  0  0  0  0  0  0  0  0
  191.5720  175.2580  144.0670 C   0  0  0  0  0  0  0  0  0  0  0  0
  193.5080  174.4840  145.9400 C   0  0  0  0  0  3  0  0  0  0  0  0
  191.2340  174.1860  141.2470 C   0  0  0  0  0  3  0  0  0  0  0  0
  189.1330  176.2970  145.0740 C   0  0  0  0  0  0  0  0  0  0  0  0
  195.0200  174.0280  144.1530 F   0  0  0  0  0  0  0  0  0  0  0  0
  187.8700  175.5330  142.2870 C   0  0  0  0  0  2  0  0  0  0  0  0
  191.9640  172.7210  139.3610 C   0  0  0  0  0  1  0  0  0  0  0  0
  189.9940  175.7450  145.8840 N   0  0  0  0  0  0  0  0  0  0  0  0
  189.5460  176.6200  143.6560 C   0  0  2  0  0  3  0  0  0  0  0  0
  187.8580  176.7420  145.5570 N   0  0  0  0  0  2  0  0  0  0  0  0
  192.8350  174.8280  143.6380 C   0  0  0  0  0  3  0  0  0  0  0  0
  189.5790  173.3990  139.6630 C   0  0  0  0  0  3  0  0  0  0  0  0
  191.2880  175.3100  145.4430 C   0  0  0  0  0  0  0  0  0  0  0  0
  192.2520  174.9140  146.3750 C   0  0  0  0  0  3  0  0  0  0  0  0
  188.3960  176.8130  142.7560 N   0  0  0  0  0  2  0  0  0  0  0  0
  188.9170  174.8280  141.4970 C   0  0  0  0  0  0  0  0  0  0  0  0
  188.5820  174.0840  140.3630 C   0  0  0  0  0  3  0  0  0  0  0  0
  185.0400  179.0220  145.2000 C   0  0  1  0  0  3  0  0  0  0  0  0
  184.9270  176.7010  146.1560 C   0  0  0  0  0  2  0  0  0  0  0  0
  187.0070  178.9940  148.5110 C   0  0  0  0  0  1  0  0  0  0  0  0
  185.2250  179.8170  143.9250 C   0  0  0  0  0  1  0  0  0  0  0  0
  185.0940  177.5300  144.8810 C   0  0  0  0  0  2  0  0  0  0  0  0
  185.9690  178.5860  147.4790 C   0  0  2  0  0  3  0  0  0  0  0  0
  185.9760  177.0700  147.2090 C   0  0  2  0  0  3  0  0  0  0  0  0
  186.1390  179.3920  146.1930 C   0  0  0  0  0  2  0  0  0  0  0  0
  1  8  1  0  0  0  0
  2 15  1  0  0  0  0
  2  7  1  0  0  0  0
  3  2  1  0  0  0  0
  5  4  2  0  0  0  0
  6  9  1  0  0  0  0
  7 19  2  0  0  0  0
  8 20  2  0  0  0  0
  9  3  2  0  0  0  0
 10 16  1  0  0  0  0
 10 14  2  0  0  0  0
 11  1  1  0  0  0  0
 12 21  1  0  0  0  0
 13  6  1  0  0  0  0
 15 21  1  6  0  0  0
 15 10  1  0  0  0  0
 16  5  1  0  0  0  0
 17  7  1  0  0  0  0
 17  1  2  0  0  0  0
 18  6  2  0  0  0  0
 18 23  1  0  0  0  0
 19 14  1  0  0  0  0
 19 20  1  0  0  0  0
 22  3  1  0  0  0  0
 22 12  1  0  0  0  0
 23 22  2  0  0  0  0
 24 27  1  6  0  0  0
 24 31  1  0  0  0  0
 25 30  1  0  0  0  0
 28 24  1  0  0  0  0
 28 25  1  0  0  0  0
 29 26  1  1  0  0  0
 30  5  1  6  0  0  0
 30 29  1  0  0  0  0
 31 29  1  0  0  0  0
M  END
>  <MODEL>
3

>  <REMARK>
 VINA RESULT:      -8.7      3.033      7.744
  Name = 
  1 active torsions:
  status: ('A' for Active; 'I' for Inactive)
    1  A    between atoms: C_9  and  C_22
                            x       y       z     vdW  Elec       q    Type
                         _______ _______ _______ _____ _____    ______ ____

>  <TORSDO>
F 1

$$$$
=
 OpenBabel11052417553D

 31 35  0  0  1  0  0  0  0  0999 V2000
  184.5920  178.5100  146.2750 C   0  0  0  0  0  0  0  0  0  0  0  0
  186.8070  176.4350  144.0510 N   0  0  0  0  0  0  0  0  0  0  0  0
  186.6000  176.8450  142.6810 C   0  0  0  0  0  0  0  0  0  0  0  0
  191.0880  176.7910  147.0570 O   0  0  0  0  0  0  0  0  0  0  0  0
  191.2490  175.8440  146.2390 C   0  0  0  0  0  0  0  0  0  0  0  0
  185.2930  177.9200  140.9360 C   0  0  0  0  0  0  0  0  0  0  0  0
  186.3090  177.2040  145.1640 C   0  0  0  0  0  0  0  0  0  0  0  0
  185.4520  178.7250  147.3570 C   0  0  0  0  0  3  0  0  0  0  0  0
  185.4480  177.5340  142.2710 C   0  0  0  0  0  3  0  0  0  0  0  0
  188.8610  175.9830  145.3480 C   0  0  0  0  0  0  0  0  0  0  0  0
  183.3450  179.0410  146.2860 F   0  0  0  0  0  0  0  0  0  0  0  0
  188.8220  175.8540  142.1960 C   0  0  0  0  0  2  0  0  0  0  0  0
  184.0690  178.6480  140.5130 C   0  0  0  0  0  1  0  0  0  0  0  0
  188.4850  176.8520  146.2440 N   0  0  0  0  0  0  0  0  0  0  0  0
  187.8460  175.4320  144.3720 C   0  0  2  0  0  3  0  0  0  0  0  0
  190.1840  175.4280  145.3770 N   0  0  0  0  0  2  0  0  0  0  0  0
  185.0190  177.7540  145.1800 C   0  0  0  0  0  3  0  0  0  0  0  0
  186.2900  177.6240  140.0020 C   0  0  0  0  0  3  0  0  0  0  0  0
  187.1640  177.4100  146.2610 C   0  0  0  0  0  0  0  0  0  0  0  0
  186.7380  178.1770  147.3490 C   0  0  0  0  0  3  0  0  0  0  0  0
  188.4660  174.8320  143.1790 N   0  0  0  0  0  2  0  0  0  0  0  0
  187.5870  176.5460  141.7340 C   0  0  0  0  0  0  0  0  0  0  0  0
  187.4410  176.9400  140.4020 C   0  0  0  0  0  3  0  0  0  0  0  0
  193.9730  175.7330  143.6150 C   0  0  1  0  0  3  0  0  0  0  0  0
  193.7420  176.1230  146.0860 C   0  0  0  0  0  2  0  0  0  0  0  0
  191.5080  173.1250  145.0130 C   0  0  0  0  0  1  0  0  0  0  0  0
  194.0590  176.4160  142.2670 C   0  0  0  0  0  1  0  0  0  0  0  0
  193.8490  176.7870  144.7120 C   0  0  0  0  0  2  0  0  0  0  0  0
  192.6590  174.1150  144.9960 C   0  0  2  0  0  3  0  0  0  0  0  0
  192.5720  175.1360  146.1460 C   0  0  2  0  0  3  0  0  0  0  0  0
  192.7630  174.8020  143.6350 C   0  0  0  0  0  2  0  0  0  0  0  0
  1 11  1  0  0  0  0
  1  8  1  0  0  0  0
  2 15  1  0  0  0  0
  2  7  1  0  0  0  0
  3  2  1  0  0  0  0
  5  4  2  0  0  0  0
  6  9  2  0  0  0  0
  7 17  1  0  0  0  0
  7 19  2  0  0  0  0
  9  3  1  0  0  0  0
 10 16  1  0  0  0  0
 10 14  2  0  0  0  0
 12 21  1  0  0  0  0
 13  6  1  0  0  0  0
 14 19  1  0  0  0  0
 15 21  1  6  0  0  0
 15 10  1  0  0  0  0
 16  5  1  0  0  0  0
 17  1  2  0  0  0  0
 18 23  2  0  0  0  0
 18  6  1  0  0  0  0
 19 20  1  0  0  0  0
 20  8  2  0  0  0  0
 22 12  1  0  0  0  0
 22  3  2  0  0  0  0
 23 22  1  0  0  0  0
 24 27  1  6  0  0  0
 24 31  1  0  0  0  0
 24 28  1  0  0  0  0
 25 30  1  0  0  0  0
 28 25  1  0  0  0  0
 29 26  1  6  0  0  0
 29 30  1  0  0  0  0
 30  5  1  6  0  0  0
 31 29  1  0  0  0  0
M  END
>  <MODEL>
4

>  <REMARK>
 VINA RESULT:      -8.6      1.916      4.439
  Name = 
  1 active torsions:
  status: ('A' for Active; 'I' for Inactive)
    1  A    between atoms: C_9  and  C_22
                            x       y       z     vdW  Elec       q    Type
                         _______ _______ _______ _____ _____    ______ ____

>  <TORSDO>
F 1

$$$$
=
 OpenBabel11052417553D

 31 35  0  0  1  0  0  0  0  0999 V2000
  185.3490  178.3320  140.8370 C   0  0  0  0  0  0  0  0  0  0  0  0
  187.7820  177.7800  143.6530 N   0  0  0  0  0  0  0  0  0  0  0  0
  187.0440  177.7020  144.8930 C   0  0  0  0  0  0  0  0  0  0  0  0
  190.6360  174.1280  141.2030 O   0  0  0  0  0  0  0  0  0  0  0  0
  191.2960  174.5600  142.1870 C   0  0  0  0  0  0  0  0  0  0  0  0
  185.0650  178.1140  146.2420 C   0  0  0  0  0  0  0  0  0  0  0  0
  187.1300  177.7260  142.3690 C   0  0  0  0  0  0  0  0  0  0  0  0
  185.9130  177.5130  139.8530 C   0  0  0  0  0  3  0  0  0  0  0  0
  185.7460  178.2200  145.0260 C   0  0  0  0  0  3  0  0  0  0  0  0
  189.6090  176.3980  142.7290 C   0  0  0  0  0  0  0  0  0  0  0  0
  184.2110  179.0200  140.5750 F   0  0  0  0  0  0  0  0  0  0  0  0
  189.0070  176.5040  145.8230 C   0  0  0  0  0  2  0  0  0  0  0  0
  183.6910  178.6660  146.3730 C   0  0  0  0  0  1  0  0  0  0  0  0
  188.9020  176.1840  141.6540 N   0  0  0  0  0  0  0  0  0  0  0  0
  189.2420  177.5410  143.6480 C   0  0  2  0  0  3  0  0  0  0  0  0
  190.8180  175.6630  142.9650 N   0  0  0  0  0  2  0  0  0  0  0  0
  185.9540  178.4360  142.0930 C   0  0  0  0  0  3  0  0  0  0  0  0
  185.6730  177.4870  147.3330 C   0  0  0  0  0  3  0  0  0  0  0  0
  187.7010  176.9160  141.3710 C   0  0  0  0  0  0  0  0  0  0  0  0
  187.0870  176.8040  140.1210 C   0  0  0  0  0  3  0  0  0  0  0  0
  189.8150  177.3980  144.9970 N   0  0  0  0  0  2  0  0  0  0  0  0
  187.6470  177.0850  145.9960 C   0  0  0  0  0  0  0  0  0  0  0  0
  186.9650  176.9670  147.2090 C   0  0  0  0  0  3  0  0  0  0  0  0
  193.1890  171.5390  140.9200 C   0  0  1  0  0  3  0  0  0  0  0  0
  193.6160  173.9630  141.4260 C   0  0  0  0  0  2  0  0  0  0  0  0
  191.4440  172.3910  144.2450 C   0  0  0  0  0  1  0  0  0  0  0  0
  192.8390  170.5570  139.8220 C   0  0  0  0  0  1  0  0  0  0  0  0
  193.2800  172.9460  140.3330 C   0  0  0  0  0  2  0  0  0  0  0  0
  192.4550  172.4820  143.1150 C   0  0  2  0  0  3  0  0  0  0  0  0
  192.5990  173.9160  142.5710 C   0  0  2  0  0  3  0  0  0  0  0  0
  192.1190  171.4860  142.0070 C   0  0  0  0  0  2  0  0  0  0  0  0
  1 17  1  0  0  0  0
  2  3  1  0  0  0  0
  3  9  2  0  0  0  0
  3 22  1  0  0  0  0
  4  5  2  0  0  0  0
  5 16  1  0  0  0  0
  6 13  1  0  0  0  0
  6 18  2  0  0  0  0
  7  2  1  0  0  0  0
  8 20  1  0  0  0  0
  8  1  2  0  0  0  0
  9  6  1  0  0  0  0
 10 16  1  0  0  0  0
 11  1  1  0  0  0  0
 12 22  1  0  0  0  0
 14 10  2  0  0  0  0
 15 10  1  6  0  0  0
 15  2  1  0  0  0  0
 15 21  1  0  0  0  0
 17  7  2  0  0  0  0
 19 14  1  0  0  0  0
 19  7  1  0  0  0  0
 20 19  2  0  0  0  0
 21 12  1  0  0  0  0
 22 23  2  0  0  0  0
 23 18  1  0  0  0  0
 24 27  1  6  0  0  0
 24 31  1  0  0  0  0
 25 30  1  0  0  0  0
 28 24  1  0  0  0  0
 28 25  1  0  0  0  0
 29 26  1  1  0  0  0
 30  5  1  6  0  0  0
 30 29  1  0  0  0  0
 31 29  1  0  0  0  0
M  END
>  <MODEL>
5

>  <REMARK>
 VINA RESULT:      -8.5      1.615      2.818
  Name = 
  1 active torsions:
  status: ('A' for Active; 'I' for Inactive)
    1  A    between atoms: C_9  and  C_22
                            x       y       z     vdW  Elec       q    Type
                         _______ _______ _______ _____ _____    ______ ____

>  <TORSDO>
F 1

$$$$
=
 OpenBabel11052417553D

 31 35  0  0  1  0  0  0  0  0999 V2000
  185.7610  178.0110  147.2490 C   0  0  0  0  0  0  0  0  0  0  0  0
  187.0740  176.4940  144.0670 N   0  0  0  0  0  0  0  0  0  0  0  0
  186.3110  177.0190  142.9560 C   0  0  0  0  0  0  0  0  0  0  0  0
  192.1510  177.0800  145.2340 O   0  0  0  0  0  0  0  0  0  0  0  0
  192.0500  176.2550  144.2850 C   0  0  0  0  0  0  0  0  0  0  0  0
  184.3420  178.0950  142.0220 C   0  0  0  0  0  0  0  0  0  0  0  0
  186.9960  177.0680  145.3860 C   0  0  0  0  0  0  0  0  0  0  0  0
  186.9590  178.2190  147.9420 C   0  0  0  0  0  3  0  0  0  0  0  0
  185.0420  177.5920  143.1240 C   0  0  0  0  0  3  0  0  0  0  0  0
  189.5010  176.1770  144.4000 C   0  0  0  0  0  0  0  0  0  0  0  0
  184.5830  178.3710  147.8130 F   0  0  0  0  0  0  0  0  0  0  0  0
  188.2320  176.3830  141.5200 C   0  0  0  0  0  2  0  0  0  0  0  0
  182.9980  178.6990  142.2100 C   0  0  0  0  0  1  0  0  0  0  0  0
  189.4430  176.8880  145.4910 N   0  0  0  0  0  0  0  0  0  0  0  0
  188.2300  175.6060  143.8140 C   0  0  2  0  0  3  0  0  0  0  0  0
  190.7670  175.8000  143.8410 N   0  0  0  0  0  2  0  0  0  0  0  0
  185.7790  177.4400  145.9740 C   0  0  0  0  0  3  0  0  0  0  0  0
  184.9100  178.0340  140.7460 C   0  0  0  0  0  3  0  0  0  0  0  0
  188.1960  177.2640  146.0940 C   0  0  0  0  0  0  0  0  0  0  0  0
  188.1750  177.8480  147.3630 C   0  0  0  0  0  3  0  0  0  0  0  0
  188.3730  175.2240  142.3990 N   0  0  0  0  0  2  0  0  0  0  0  0
  186.8650  176.9540  141.6710 C   0  0  0  0  0  0  0  0  0  0  0  0
  186.1750  177.4670  140.5700 C   0  0  0  0  0  3  0  0  0  0  0  0
  192.7770  173.1890  142.1900 C   0  0  1  0  0  3  0  0  0  0  0  0
  193.0920  175.6780  142.0710 C   0  0  0  0  0  2  0  0  0  0  0  0
  193.9770  174.4090  145.6400 C   0  0  0  0  0  1  0  0  0  0  0  0
  191.8720  172.0450  141.7850 C   0  0  0  0  0  1  0  0  0  0  0  0
  192.2040  174.5010  141.6610 C   0  0  0  0  0  2  0  0  0  0  0  0
  193.7900  174.3920  144.1330 C   0  0  2  0  0  3  0  0  0  0  0  0
  193.2800  175.7400  143.5900 C   0  0  2  0  0  3  0  0  0  0  0  0
  192.8880  173.2340  143.7120 C   0  0  0  0  0  2  0  0  0  0  0  0
  1 11  1  0  0  0  0
  1  8  1  0  0  0  0
  2  7  1  0  0  0  0
  3  9  1  0  0  0  0
  3  2  1  0  0  0  0
  5  4  2  0  0  0  0
  6 13  1  0  0  0  0
  6  9  2  0  0  0  0
  7 17  1  0  0  0  0
  7 19  2  0  0  0  0
 10 14  2  0  0  0  0
 12 22  1  0  0  0  0
 12 21  1  0  0  0  0
 14 19  1  0  0  0  0
 15 21  1  6  0  0  0
 15  2  1  0  0  0  0
 15 10  1  0  0  0  0
 16  5  1  0  0  0  0
 16 10  1  0  0  0  0
 17  1  2  0  0  0  0
 18  6  1  0  0  0  0
 19 20  1  0  0  0  0
 20  8  2  0  0  0  0
 22  3  2  0  0  0  0
 23 18  2  0  0  0  0
 23 22  1  0  0  0  0
 24 27  1  1  0  0  0
 24 31  1  0  0  0  0
 25 30  1  0  0  0  0
 28 25  1  0  0  0  0
 28 24  1  0  0  0  0
 29 26  1  1  0  0  0
 30 29  1  0  0  0  0
 30  5  1  1  0  0  0
 31 29  1  0  0  0  0
M  END
>  <MODEL>
6

>  <REMARK>
 VINA RESULT:      -8.3      2.102      4.518
  Name = 
  1 active torsions:
  status: ('A' for Active; 'I' for Inactive)
    1  A    between atoms: C_9  and  C_22
                            x       y       z     vdW  Elec       q    Type
                         _______ _______ _______ _____ _____    ______ ____

>  <TORSDO>
F 1

$$$$
=
 OpenBabel11052417553D

 31 35  0  0  1  0  0  0  0  0999 V2000
  192.2890  169.4240  142.9660 C   0  0  0  0  0  0  0  0  0  0  0  0
  192.5080  172.6850  144.8290 N   0  0  0  0  0  0  0  0  0  0  0  0
  193.8930  172.9350  145.1610 C   0  0  0  0  0  0  0  0  0  0  0  0
  189.2740  175.3390  141.6710 O   0  0  0  0  0  0  0  0  0  0  0  0
  189.4040  175.9850  142.7470 C   0  0  0  0  0  0  0  0  0  0  0  0
  196.1830  172.2010  145.5090 C   0  0  0  0  0  0  0  0  0  0  0  0
  192.1190  171.6580  143.8960 C   0  0  0  0  0  0  0  0  0  0  0  0
  191.3240  169.7470  142.0060 C   0  0  0  0  0  3  0  0  0  0  0  0
  194.8520  171.9120  145.1920 C   0  0  0  0  0  3  0  0  0  0  0  0
  190.7450  174.1390  143.8910 C   0  0  0  0  0  0  0  0  0  0  0  0
  192.8430  168.1870  142.9790 F   0  0  0  0  0  0  0  0  0  0  0  0
  193.2620  175.3250  145.3760 C   0  0  0  0  0  2  0  0  0  0  0  0
  197.1910  171.1100  145.5390 C   0  0  0  0  0  1  0  0  0  0  0  0
  190.5580  173.2850  142.9230 N   0  0  0  0  0  0  0  0  0  0  0  0
  191.4800  173.7030  145.1380 C   0  0  2  0  0  3  0  0  0  0  0  0
  190.1290  175.4330  143.8510 N   0  0  0  0  0  2  0  0  0  0  0  0
  192.6880  170.3770  143.9070 C   0  0  0  0  0  3  0  0  0  0  0  0
  196.5650  173.5150  145.7930 C   0  0  0  0  0  3  0  0  0  0  0  0
  191.1380  171.9720  142.9390 C   0  0  0  0  0  0  0  0  0  0  0  0
  190.7510  171.0210  141.9910 C   0  0  0  0  0  3  0  0  0  0  0  0
  191.9980  174.8360  145.9230 N   0  0  0  0  0  2  0  0  0  0  0  0
  194.2850  174.2460  145.4570 C   0  0  0  0  0  0  0  0  0  0  0  0
  195.6160  174.5410  145.7630 C   0  0  0  0  0  3  0  0  0  0  0  0
  186.7090  177.4480  144.9640 C   0  0  1  0  0  3  0  0  0  0  0  0
  189.0710  177.9550  144.2720 C   0  0  0  0  0  2  0  0  0  0  0  0
  187.0030  176.8350  141.1740 C   0  0  0  0  0  1  0  0  0  0  0  0
  185.8550  176.7910  146.0270 C   0  0  0  0  0  1  0  0  0  0  0  0
  188.1830  177.3130  145.3400 C   0  0  0  0  0  2  0  0  0  0  0  0
  187.3080  177.4300  142.5370 C   0  0  2  0  0  3  0  0  0  0  0  0
  188.8070  177.3580  142.8870 C   0  0  2  0  0  3  0  0  0  0  0  0
  186.4430  176.7820  143.6170 C   0  0  0  0  0  2  0  0  0  0  0  0
  1 11  1  0  0  0  0
  1 17  1  0  0  0  0
  2 15  1  0  0  0  0
  2  3  1  0  0  0  0
  3  9  2  0  0  0  0
  3 22  1  0  0  0  0
  4  5  2  0  0  0  0
  5 16  1  0  0  0  0
  6 13  1  0  0  0  0
  6 18  2  0  0  0  0
  7 17  2  0  0  0  0
  7  2  1  0  0  0  0
  8  1  2  0  0  0  0
  9  6  1  0  0  0  0
 12 22  1  0  0  0  0
 12 21  1  0  0  0  0
 14 19  1  0  0  0  0
 14 10  2  0  0  0  0
 15 10  1  6  0  0  0
 15 21  1  0  0  0  0
 16 10  1  0  0  0  0
 19  7  1  0  0  0  0
 20  8  1  0  0  0  0
 20 19  2  0  0  0  0
 22 23  2  0  0  0  0
 23 18  1  0  0  0  0
 24 28  1  0  0  0  0
 24 27  1  1  0  0  0
 25 28  1  0  0  0  0
 29 26  1  6  0  0  0
 29 30  1  0  0  0  0
 29 31  1  0  0  0  0
 30  5  1  1  0  0  0
 30 25  1  0  0  0  0
 31 24  1  0  0  0  0
M  END
>  <MODEL>
7

>  <REMARK>
 VINA RESULT:      -8.0      3.472      8.091
  Name = 
  1 active torsions:
  status: ('A' for Active; 'I' for Inactive)
    1  A    between atoms: C_9  and  C_22
                            x       y       z     vdW  Elec       q    Type
                         _______ _______ _______ _____ _____    ______ ____

>  <TORSDO>
F 1

$$$$
=
 OpenBabel11052417553D

 31 35  0  0  1  0  0  0  0  0999 V2000
  191.0140  172.2590  141.3650 C   0  0  0  0  0  0  0  0  0  0  0  0
  189.9900  174.6280  144.1030 N   0  0  0  0  0  0  0  0  0  0  0  0
  191.1530  174.9410  144.9020 C   0  0  0  0  0  0  0  0  0  0  0  0
  187.0580  177.7380  141.0670 O   0  0  0  0  0  0  0  0  0  0  0  0
  186.7690  177.9660  142.2730 C   0  0  0  0  0  0  0  0  0  0  0  0
  193.4020  174.4720  145.6940 C   0  0  0  0  0  0  0  0  0  0  0  0
  190.0930  173.9600  142.8300 C   0  0  0  0  0  0  0  0  0  0  0  0
  190.2570  172.7610  140.3020 C   0  0  0  0  0  3  0  0  0  0  0  0
  192.2950  174.1260  144.9130 C   0  0  0  0  0  3  0  0  0  0  0  0
  188.2040  176.0490  143.1570 C   0  0  0  0  0  0  0  0  0  0  0  0
  191.8300  171.1940  141.1720 F   0  0  0  0  0  0  0  0  0  0  0  0
  189.9320  176.9750  145.6270 C   0  0  0  0  0  2  0  0  0  0  0  0
  194.6070  173.6030  145.6990 C   0  0  0  0  0  1  0  0  0  0  0  0
  188.4640  175.5810  141.9670 N   0  0  0  0  0  0  0  0  0  0  0  0
  188.7030  175.3060  144.3750 C   0  0  2  0  0  3  0  0  0  0  0  0
  187.3210  177.1670  143.3250 N   0  0  0  0  0  2  0  0  0  0  0  0
  190.9350  172.8580  142.6260 C   0  0  0  0  0  3  0  0  0  0  0  0
  193.3770  175.6380  146.4650 C   0  0  0  0  0  3  0  0  0  0  0  0
  189.3220  174.4500  141.7610 C   0  0  0  0  0  0  0  0  0  0  0  0
  189.4130  173.8570  140.4990 C   0  0  0  0  0  3  0  0  0  0  0  0
  188.7300  176.1440  145.5850 N   0  0  0  0  0  2  0  0  0  0  0  0
  191.1360  176.1000  145.6870 C   0  0  0  0  0  0  0  0  0  0  0  0
  192.2440  176.4560  146.4590 C   0  0  0  0  0  3  0  0  0  0  0  0
  184.5680  178.6860  145.2650 C   0  0  1  0  0  3  0  0  0  0  0  0
  186.3170  179.8440  143.8820 C   0  0  0  0  0  2  0  0  0  0  0  0
  183.8630  177.9180  141.5590 C   0  0  0  0  0  1  0  0  0  0  0  0
  184.3340  177.8780  146.5240 C   0  0  0  0  0  1  0  0  0  0  0  0
  186.0490  179.0400  145.1560 C   0  0  0  0  0  2  0  0  0  0  0  0
  184.3670  178.6760  142.7740 C   0  0  2  0  0  3  0  0  0  0  0  0
  185.8430  179.0950  142.6330 C   0  0  2  0  0  3  0  0  0  0  0  0
  184.1250  177.8740  144.0520 C   0  0  0  0  0  2  0  0  0  0  0  0
  1 17  1  0  0  0  0
  2 15  1  0  0  0  0
  2  3  1  0  0  0  0
  3  9  2  0  0  0  0
  3 22  1  0  0  0  0
  4  5  2  0  0  0  0
  5 16  1  0  0  0  0
  6 13  1  0  0  0  0
  6 18  2  0  0  0  0
  7  2  1  0  0  0  0
  8 20  1  0  0  0  0
  8  1  2  0  0  0  0
  9  6  1  0  0  0  0
 10 16  1  0  0  0  0
 11  1  1  0  0  0  0
 12 22  1  0  0  0  0
 14 10  2  0  0  0  0
 15 10  1  6  0  0  0
 15 21  1  0  0  0  0
 17  7  2  0  0  0  0
 19 14  1  0  0  0  0
 19  7  1  0  0  0  0
 20 19  2  0  0  0  0
 21 12  1  0  0  0  0
 22 23  2  0  0  0  0
 23 18  1  0  0  0  0
 24 27  1  1  0  0  0
 25 28  1  0  0  0  0
 28 24  1  0  0  0  0
 29 26  1  6  0  0  0
 29 31  1  0  0  0  0
 30  5  1  1  0  0  0
 30 29  1  0  0  0  0
 30 25  1  0  0  0  0
 31 24  1  0  0  0  0
M  END
>  <MODEL>
8

>  <REMARK>
 VINA RESULT:      -7.9      2.759      7.157
  Name = 
  1 active torsions:
  status: ('A' for Active; 'I' for Inactive)
    1  A    between atoms: C_9  and  C_22
                            x       y       z     vdW  Elec       q    Type
                         _______ _______ _______ _____ _____    ______ ____

>  <TORSDO>
F 1

$$$$
=
 OpenBabel11052417553D

 31 35  0  0  1  0  0  0  0  0999 V2000
  186.7680  177.8370  144.7990 C   0  0  0  0  0  0  0  0  0  0  0  0
  189.9950  176.2330  143.7160 N   0  0  0  0  0  0  0  0  0  0  0  0
  190.8110  176.0010  144.8860 C   0  0  0  0  0  0  0  0  0  0  0  0
  187.8160  172.8050  140.4000 O   0  0  0  0  0  0  0  0  0  0  0  0
  189.0510  172.8770  140.1510 C   0  0  0  0  0  0  0  0  0  0  0  0
  191.4150  176.4290  147.2010 C   0  0  0  0  0  0  0  0  0  0  0  0
  188.6020  176.5910  143.8130 C   0  0  0  0  0  0  0  0  0  0  0  0
  185.8660  177.1820  143.9540 C   0  0  0  0  0  3  0  0  0  0  0  0
  190.6070  176.6910  146.0900 C   0  0  0  0  0  3  0  0  0  0  0  0
  189.4410  174.8050  141.7770 C   0  0  0  0  0  0  0  0  0  0  0  0
  186.3190  178.7540  145.6890 F   0  0  0  0  0  0  0  0  0  0  0  0
  192.0080  174.2960  143.5390 C   0  0  0  0  0  2  0  0  0  0  0  0
  191.1910  177.1660  148.4710 C   0  0  0  0  0  1  0  0  0  0  0  0
  188.1710  174.9720  142.0180 N   0  0  0  0  0  0  0  0  0  0  0  0
  190.4480  175.7500  142.3930 C   0  0  2  0  0  3  0  0  0  0  0  0
  189.8810  173.8360  140.8150 N   0  0  0  0  0  2  0  0  0  0  0  0
  188.1330  177.5410  144.7310 C   0  0  0  0  0  3  0  0  0  0  0  0
  192.4280  175.4700  147.1170 C   0  0  0  0  0  3  0  0  0  0  0  0
  187.6920  175.9480  142.9550 C   0  0  0  0  0  0  0  0  0  0  0  0
  186.3270  176.2370  143.0340 C   0  0  0  0  0  3  0  0  0  0  0  0
  191.8140  175.2010  142.4080 N   0  0  0  0  0  2  0  0  0  0  0  0
  191.8360  175.0500  144.8110 C   0  0  0  0  0  0  0  0  0  0  0  0
  192.6370  174.7750  145.9220 C   0  0  0  0  0  3  0  0  0  0  0  0
  192.5650  172.4710  138.8080 C   0  0  1  0  0  3  0  0  0  0  0  0
  190.7450  171.0530  139.8010 C   0  0  0  0  0  2  0  0  0  0  0  0
  189.2180  173.5500  137.2390 C   0  0  0  0  0  1  0  0  0  0  0  0
  193.8270  173.2470  139.1220 C   0  0  0  0  0  1  0  0  0  0  0  0
  192.0320  171.8300  140.0870 C   0  0  0  0  0  2  0  0  0  0  0  0
  190.2420  172.6460  137.9030 C   0  0  2  0  0  3  0  0  0  0  0  0
  189.6800  171.9430  139.1530 C   0  0  2  0  0  3  0  0  0  0  0  0
  191.5240  173.4160  138.2140 C   0  0  0  0  0  2  0  0  0  0  0  0
  1 11  1  0  0  0  0
  2  7  1  0  0  0  0
  2  3  1  0  0  0  0
  3  9  1  0  0  0  0
  5  4  2  0  0  0  0
  5 16  1  0  0  0  0
  6 13  1  0  0  0  0
  7 17  2  0  0  0  0
  8  1  2  0  0  0  0
  9  6  2  0  0  0  0
 10 14  2  0  0  0  0
 12 22  1  0  0  0  0
 14 19  1  0  0  0  0
 15 10  1  1  0  0  0
 15 21  1  0  0  0  0
 15  2  1  0  0  0  0
 16 10  1  0  0  0  0
 17  1  1  0  0  0  0
 18  6  1  0  0  0  0
 19 20  2  0  0  0  0
 19  7  1  0  0  0  0
 20  8  1  0  0  0  0
 21 12  1  0  0  0  0
 22  3  2  0  0  0  0
 22 23  1  0  0  0  0
 23 18  2  0  0  0  0
 24 27  1  1  0  0  0
 24 28  1  0  0  0  0
 25 28  1  0  0  0  0
 29 26  1  1  0  0  0
 29 31  1  0  0  0  0
 29 30  1  0  0  0  0
 30 25  1  0  0  0  0
 30  5  1  1  0  0  0
 31 24  1  0  0  0  0
M  END
>  <MODEL>
9

>  <REMARK>
 VINA RESULT:      -7.9      3.055      5.303
  Name = 
  1 active torsions:
  status: ('A' for Active; 'I' for Inactive)
    1  A    between atoms: C_9  and  C_22
                            x       y       z     vdW  Elec       q    Type
                         _______ _______ _______ _____ _____    ______ ____

>  <TORSDO>
F 1

$$$$
