=
 OpenBabel11052419003D

 34 39  0  0  1  0  0  0  0  0999 V2000
  187.0190  178.3830  143.4910 N   0  0  0  0  0  0  0  0  0  0  0  0
  186.2530  178.0680  145.8010 C   0  0  0  0  0  0  0  0  0  0  0  0
  188.1810  176.9070  144.8640 C   0  0  0  0  0  0  0  0  0  0  0  0
  189.1590  175.0200  146.0970 O   0  0  0  0  0  0  0  0  0  0  0  0
  185.2360  179.8460  144.2910 C   0  0  0  0  0  2  0  0  0  0  0  0
  190.2720  177.3590  143.4090 C   0  0  2  0  0  3  0  0  0  0  0  0
  192.4660  176.9290  142.5110 O   0  0  0  0  0  1  0  0  0  0  0  0
  185.0590  178.9520  145.5380 C   0  0  0  0  0  2  0  0  0  0  0  0
  187.3520  176.3020  147.0610 C   0  0  0  0  0  3  0  0  0  0  0  0
  191.3830  174.9750  143.4120 C   0  0  2  0  0  3  0  0  0  0  0  0
  187.1710  177.8420  144.7770 C   0  0  0  0  0  0  0  0  0  0  0  0
  191.2670  174.2170  141.1560 F   0  0  0  0  0  0  0  0  0  0  0  0
  191.1270  174.2820  144.7590 C   0  0  2  0  0  3  0  0  0  0  0  0
  190.5080  175.1680  145.8020 C   0  0  0  0  0  0  0  0  0  0  0  0
  185.7950  179.0620  143.0870 C   0  0  0  0  0  2  0  0  0  0  0  0
  188.8360  176.7470  143.4950 C   0  0  2  0  0  0  0  0  0  0  0  0
  191.5470  176.4980  143.4720 C   0  0  2  0  0  3  0  0  0  0  0  0
  187.9160  177.6310  142.6780 C   0  0  0  0  0  0  0  0  0  0  0  0
  186.3530  177.2870  146.9600 C   0  0  0  0  0  3  0  0  0  0  0  0
  189.4400  175.2900  141.9610 O   0  0  0  0  0  0  0  0  0  0  0  0
  190.5000  174.4300  142.2810 C   0  0  2  0  0  3  0  0  0  0  0  0
  188.7320  175.4060  143.0680 O   0  0  0  0  0  0  0  0  0  0  0  0
  191.1700  176.1010  146.3390 O   0  0  0  0  0  0  0  0  0  0  0  0
  190.4120  178.5240  144.1750 O   0  0  0  0  0  1  0  0  0  0  0  0
  188.2640  176.0870  146.0090 C   0  0  0  0  0  0  0  0  0  0  0  0
  187.9380  177.7160  141.4210 O   0  0  0  0  0  0  0  0  0  0  0  0
  192.3510  173.5090  145.2550 C   0  0  0  0  0  2  0  0  0  0  0  0
  195.6750  175.1410  145.0940 C   0  0  0  0  0  2  0  0  0  0  0  0
  193.5760  173.9690  144.6150 N   0  0  0  0  0  0  0  0  0  0  0  0
  194.3350  174.6660  145.6520 C   0  0  0  0  0  2  0  0  0  0  0  0
  195.7250  172.8510  144.3510 O   0  0  0  0  0  0  0  0  0  0  0  0
  193.9890  172.4450  142.7200 C   0  0  0  0  0  1  0  0  0  0  0  0
  194.3170  172.7680  144.1700 C   0  0  2  0  0  3  0  0  0  0  0  0
  196.1600  174.1530  144.0380 C   0  0  0  0  0  2  0  0  0  0  0  0
  1 11  1  0  0  0  0
  2 19  1  0  0  0  0
  3 25  2  0  0  0  0
  5  8  1  0  0  0  0
  6 17  1  0  0  0  0
  6 16  1  0  0  0  0
  6 24  1  1  0  0  0
  7 17  1  0  0  0  0
  8  2  1  0  0  0  0
 10 17  1  0  0  0  0
 10 13  1  0  0  0  0
 11  3  1  0  0  0  0
 11  2  2  0  0  0  0
 12 21  1  0  0  0  0
 13 27  1  0  0  0  0
 13 14  1  0  0  0  0
 14  4  1  0  0  0  0
 14 23  2  0  0  0  0
 15  1  1  0  0  0  0
 15  5  1  0  0  0  0
 16  3  1  0  0  0  0
 18  1  1  0  0  0  0
 18 16  1  0  0  0  0
 19  9  2  0  0  0  0
 20 21  1  0  0  0  0
 20 22  1  0  0  0  0
 21 10  1  0  0  0  0
 22 16  1  0  0  0  0
 25  4  1  0  0  0  0
 25  9  1  0  0  0  0
 26 18  2  0  0  0  0
 28 30  1  0  0  0  0
 29 27  1  0  0  0  0
 29 30  1  0  0  0  0
 32 33  1  0  0  0  0
 33 31  1  0  0  0  0
 33 29  1  0  0  0  0
 34 31  1  0  0  0  0
 34 28  1  0  0  0  0
M  END
>  <MODEL>
1

>  <REMARK>
 VINA RESULT:      -9.0      0.000      0.000
  Name = 
  2 active torsions:
  status: ('A' for Active; 'I' for Inactive)
    1  A    between atoms: C_3  and  N_13
    2  A    between atoms: C_3  and  C_17
                            x       y       z     vdW  Elec       q    Type
                         _______ _______ _______ _____ _____    ______ ____

>  <TORSDO>
F 2

$$$$
=
 OpenBabel11052419003D

 34 39  0  0  1  0  0  0  0  0999 V2000
  194.6420  174.6410  145.6200 N   0  0  0  0  0  0  0  0  0  0  0  0
  194.1570  172.4280  144.6750 C   0  0  0  0  0  0  0  0  0  0  0  0
  192.4680  174.1660  144.9400 C   0  0  0  0  0  0  0  0  0  0  0  0
  190.0960  173.5810  144.6740 O   0  0  0  0  0  0  0  0  0  0  0  0
  196.5370  173.1590  145.2040 C   0  0  0  0  0  2  0  0  0  0  0  0
  192.1380  176.7050  144.5660 C   0  0  2  0  0  3  0  0  0  0  0  0
  190.8900  178.7430  144.2630 O   0  0  0  0  0  1  0  0  0  0  0  0
  195.5670  171.9800  144.9740 C   0  0  0  0  0  2  0  0  0  0  0  0
  191.8130  171.9310  144.2630 C   0  0  0  0  0  3  0  0  0  0  0  0
  189.6310  176.9770  145.3120 C   0  0  2  0  0  3  0  0  0  0  0  0
  193.7750  173.7280  144.9990 C   0  0  0  0  0  0  0  0  0  0  0  0
  189.6940  178.3360  147.2690 F   0  0  0  0  0  0  0  0  0  0  0  0
  188.8380  175.7140  144.9460 C   0  0  2  0  0  3  0  0  0  0  0  0
  189.5910  174.7360  144.0900 C   0  0  0  0  0  0  0  0  0  0  0  0
  195.9400  174.2300  146.1380 C   0  0  0  0  0  2  0  0  0  0  0  0
  192.3700  175.5430  145.5880 C   0  0  2  0  0  0  0  0  0  0  0  0
  190.7590  177.3540  144.3450 C   0  0  2  0  0  3  0  0  0  0  0  0
  193.7880  175.6730  146.1060 C   0  0  0  0  0  0  0  0  0  0  0  0
  193.1580  171.5210  144.2980 C   0  0  0  0  0  3  0  0  0  0  0  0
  191.2960  176.7430  147.0880 O   0  0  0  0  0  0  0  0  0  0  0  0
  189.9600  177.0650  146.8090 C   0  0  2  0  0  3  0  0  0  0  0  0
  191.4570  175.5040  146.6630 O   0  0  0  0  0  0  0  0  0  0  0  0
  189.8530  174.9960  142.8830 O   0  0  0  0  0  0  0  0  0  0  0  0
  192.7970  176.4950  143.3480 O   0  0  0  0  0  1  0  0  0  0  0  0
  191.4500  173.2490  144.6020 C   0  0  0  0  0  0  0  0  0  0  0  0
  194.1880  176.5910  146.8710 O   0  0  0  0  0  0  0  0  0  0  0  0
  187.4380  176.0410  144.4190 C   0  0  0  0  0  2  0  0  0  0  0  0
  185.8050  179.3670  144.3440 C   0  0  0  0  0  2  0  0  0  0  0  0
  186.9270  177.2830  144.9810 N   0  0  0  0  0  0  0  0  0  0  0  0
  186.4220  178.0590  143.8500 C   0  0  0  0  0  2  0  0  0  0  0  0
  184.7090  177.8260  145.8330 O   0  0  0  0  0  0  0  0  0  0  0  0
  186.3090  176.7910  147.3190 C   0  0  0  0  0  1  0  0  0  0  0  0
  185.8110  176.9300  145.8870 C   0  0  2  0  0  3  0  0  0  0  0  0
  185.1860  179.1470  145.7190 C   0  0  0  0  0  2  0  0  0  0  0  0
  1 18  1  0  0  0  0
  1 15  1  0  0  0  0
  2  8  1  0  0  0  0
  2 11  1  0  0  0  0
  3 11  2  0  0  0  0
  3 16  1  0  0  0  0
  5 15  1  0  0  0  0
  6 24  1  6  0  0  0
  6 16  1  0  0  0  0
  7 17  1  0  0  0  0
  8  5  1  0  0  0  0
  9 19  1  0  0  0  0
  9 25  2  0  0  0  0
 10 21  1  0  0  0  0
 11  1  1  0  0  0  0
 13 10  1  0  0  0  0
 14  4  1  0  0  0  0
 14 13  1  0  0  0  0
 16 18  1  0  0  0  0
 16 22  1  0  0  0  0
 17  6  1  0  0  0  0
 17 10  1  0  0  0  0
 18 26  2  0  0  0  0
 19  2  2  0  0  0  0
 21 20  1  0  0  0  0
 21 12  1  0  0  0  0
 22 20  1  0  0  0  0
 23 14  2  0  0  0  0
 25  4  1  0  0  0  0
 25  3  1  0  0  0  0
 27 13  1  0  0  0  0
 27 29  1  0  0  0  0
 28 34  1  0  0  0  0
 29 33  1  0  0  0  0
 30 28  1  0  0  0  0
 30 29  1  0  0  0  0
 31 33  1  0  0  0  0
 33 32  1  0  0  0  0
 34 31  1  0  0  0  0
M  END
>  <MODEL>
2

>  <REMARK>
 VINA RESULT:      -8.7      2.112      7.655
  Name = 
  2 active torsions:
  status: ('A' for Active; 'I' for Inactive)
    1  A    between atoms: C_3  and  N_13
    2  A    between atoms: C_3  and  C_17
                            x       y       z     vdW  Elec       q    Type
                         _______ _______ _______ _____ _____    ______ ____

>  <TORSDO>
F 2

$$$$
=
 OpenBabel11052419003D

 34 39  0  0  1  0  0  0  0  0999 V2000
  191.5750  172.3360  142.0210 N   0  0  0  0  0  0  0  0  0  0  0  0
  190.2690  172.9000  140.0210 C   0  0  0  0  0  0  0  0  0  0  0  0
  190.0400  174.0790  142.1420 C   0  0  0  0  0  0  0  0  0  0  0  0
  188.1380  175.6020  142.4670 O   0  0  0  0  0  0  0  0  0  0  0  0
  192.1630  171.2010  139.9410 C   0  0  0  0  0  2  0  0  0  0  0  0
  191.4870  175.0880  144.0350 C   0  0  2  0  0  3  0  0  0  0  0  0
  191.9660  176.4970  145.9290 O   0  0  0  0  0  1  0  0  0  0  0  0
  190.8640  171.7230  139.2870 C   0  0  0  0  0  2  0  0  0  0  0  0
  188.4970  174.5370  140.3270 C   0  0  0  0  0  3  0  0  0  0  0  0
  189.6160  176.0920  145.5860 C   0  0  2  0  0  3  0  0  0  0  0  0
  190.6620  173.1510  141.3340 C   0  0  0  0  0  0  0  0  0  0  0  0
  189.7200  174.8310  147.6050 F   0  0  0  0  0  0  0  0  0  0  0  0
  188.4440  176.5960  144.7310 C   0  0  2  0  0  3  0  0  0  0  0  0
  188.7110  176.5940  143.2530 C   0  0  0  0  0  0  0  0  0  0  0  0
  192.0300  171.0660  141.4710 C   0  0  0  0  0  2  0  0  0  0  0  0
  190.5510  173.9240  143.5720 C   0  0  2  0  0  0  0  0  0  0  0  0
  191.0050  176.2270  144.9510 C   0  0  2  0  0  3  0  0  0  0  0  0
  191.4140  172.6920  143.3910 C   0  0  0  0  0  0  0  0  0  0  0  0
  189.1730  173.6100  139.5130 C   0  0  0  0  0  3  0  0  0  0  0  0
  189.9450  173.6710  145.6720 O   0  0  0  0  0  0  0  0  0  0  0  0
  189.3170  174.7620  146.2900 C   0  0  2  0  0  3  0  0  0  0  0  0
  189.4740  173.6440  144.4390 O   0  0  0  0  0  0  0  0  0  0  0  0
  189.5190  177.4160  142.7380 O   0  0  0  0  0  0  0  0  0  0  0  0
  192.2920  175.5800  143.0000 O   0  0  0  0  0  1  0  0  0  0  0  0
  188.9080  174.7680  141.6550 C   0  0  0  0  0  0  0  0  0  0  0  0
  191.9500  172.0510  144.3350 O   0  0  0  0  0  0  0  0  0  0  0  0
  187.8710  177.9160  145.2510 C   0  0  0  0  0  2  0  0  0  0  0  0
  184.4530  178.1960  146.6590 C   0  0  0  0  0  2  0  0  0  0  0  0
  186.4150  177.9250  145.2140 N   0  0  0  0  0  0  0  0  0  0  0  0
  185.9780  178.1130  146.5960 C   0  0  0  0  0  2  0  0  0  0  0  0
  184.8640  179.7760  144.8900 O   0  0  0  0  0  0  0  0  0  0  0  0
  185.7790  178.6660  142.9490 C   0  0  0  0  0  1  0  0  0  0  0  0
  186.0040  179.0860  144.3940 C   0  0  2  0  0  3  0  0  0  0  0  0
  183.9300  178.8440  145.3820 C   0  0  0  0  0  2  0  0  0  0  0  0
  1 18  1  0  0  0  0
  2 11  1  0  0  0  0
  3 16  1  0  0  0  0
  4 14  1  0  0  0  0
  5 15  1  0  0  0  0
  6 24  1  6  0  0  0
  6 17  1  0  0  0  0
  8  5  1  0  0  0  0
  8  2  1  0  0  0  0
  9 25  2  0  0  0  0
 10 21  1  0  0  0  0
 11  1  1  0  0  0  0
 11  3  2  0  0  0  0
 13 27  1  0  0  0  0
 13 10  1  0  0  0  0
 14 13  1  0  0  0  0
 15  1  1  0  0  0  0
 16  6  1  0  0  0  0
 16 22  1  0  0  0  0
 17 10  1  0  0  0  0
 17  7  1  0  0  0  0
 18 16  1  0  0  0  0
 18 26  2  0  0  0  0
 19  2  2  0  0  0  0
 19  9  1  0  0  0  0
 20 21  1  0  0  0  0
 21 12  1  0  0  0  0
 22 20  1  0  0  0  0
 23 14  2  0  0  0  0
 25  3  1  0  0  0  0
 25  4  1  0  0  0  0
 29 27  1  0  0  0  0
 29 30  1  0  0  0  0
 30 28  1  0  0  0  0
 31 34  1  0  0  0  0
 32 33  1  0  0  0  0
 33 31  1  0  0  0  0
 33 29  1  0  0  0  0
 34 28  1  0  0  0  0
M  END
>  <MODEL>
3

>  <REMARK>
 VINA RESULT:      -8.3      2.448      7.460
  Name = 
  2 active torsions:
  status: ('A' for Active; 'I' for Inactive)
    1  A    between atoms: C_3  and  N_13
    2  A    between atoms: C_3  and  C_17
                            x       y       z     vdW  Elec       q    Type
                         _______ _______ _______ _____ _____    ______ ____

>  <TORSDO>
F 2

$$$$
=
 OpenBabel11052419003D

 34 39  0  0  1  0  0  0  0  0999 V2000
  187.9170  177.1030  146.5230 N   0  0  0  0  0  0  0  0  0  0  0  0
  186.1950  176.7920  144.8020 C   0  0  0  0  0  0  0  0  0  0  0  0
  188.5490  176.2640  144.4460 C   0  0  0  0  0  0  0  0  0  0  0  0
  189.3450  175.8180  142.1650 O   0  0  0  0  0  0  0  0  0  0  0  0
  185.5930  177.4440  147.1870 C   0  0  0  0  0  2  0  0  0  0  0  0
  190.5390  175.1100  145.6300 C   0  0  2  0  0  3  0  0  0  0  0  0
  192.6850  174.0270  145.7810 O   0  0  0  0  0  1  0  0  0  0  0  0
  185.1640  177.4250  145.7030 C   0  0  0  0  0  2  0  0  0  0  0  0
  186.9940  176.1850  142.5860 C   0  0  0  0  0  3  0  0  0  0  0  0
  192.3960  175.3430  143.7830 C   0  0  2  0  0  3  0  0  0  0  0  0
  187.5040  176.6530  145.2590 C   0  0  0  0  0  0  0  0  0  0  0  0
  194.0400  176.7950  144.7150 F   0  0  0  0  0  0  0  0  0  0  0  0
  191.7600  175.2470  142.3890 C   0  0  2  0  0  3  0  0  0  0  0  0
  190.3120  174.8480  142.3950 C   0  0  0  0  0  0  0  0  0  0  0  0
  187.0500  177.9140  147.3660 C   0  0  0  0  0  2  0  0  0  0  0  0
  189.8650  176.4530  145.1950 C   0  0  2  0  0  0  0  0  0  0  0  0
  191.7310  174.4960  144.8740 C   0  0  2  0  0  3  0  0  0  0  0  0
  189.3400  177.1240  146.4480 C   0  0  0  0  0  0  0  0  0  0  0  0
  185.9410  176.5490  143.4460 C   0  0  0  0  0  3  0  0  0  0  0  0
  191.8730  177.3440  145.0870 O   0  0  0  0  0  0  0  0  0  0  0  0
  192.7740  176.7780  144.1730 C   0  0  2  0  0  3  0  0  0  0  0  0
  190.7020  177.3350  144.4800 O   0  0  0  0  0  0  0  0  0  0  0  0
  189.9640  173.6730  142.7020 O   0  0  0  0  0  0  0  0  0  0  0  0
  189.6070  174.1270  145.9870 O   0  0  0  0  0  1  0  0  0  0  0  0
  188.3110  176.0580  143.0700 C   0  0  0  0  0  0  0  0  0  0  0  0
  190.0670  177.6350  147.3420 O   0  0  0  0  0  0  0  0  0  0  0  0
  192.6180  174.4370  141.4140 C   0  0  0  0  0  2  0  0  0  0  0  0
  195.7260  172.6430  142.3420 C   0  0  0  0  0  2  0  0  0  0  0  0
  193.9920  174.3130  141.8800 N   0  0  0  0  0  0  0  0  0  0  0  0
  194.2770  172.8800  141.9180 C   0  0  0  0  0  2  0  0  0  0  0  0
  196.0800  174.2910  140.6220 O   0  0  0  0  0  0  0  0  0  0  0  0
  195.1290  176.4160  141.2680 C   0  0  0  0  0  1  0  0  0  0  0  0
  194.8570  174.9710  140.8750 C   0  0  2  0  0  3  0  0  0  0  0  0
  196.5940  173.7890  141.8340 C   0  0  0  0  0  2  0  0  0  0  0  0
  1 15  1  0  0  0  0
  2 11  1  0  0  0  0
  2  8  1  0  0  0  0
  3 16  1  0  0  0  0
  3 11  2  0  0  0  0
  4 14  1  0  0  0  0
  4 25  1  0  0  0  0
  5 15  1  0  0  0  0
  6 24  1  6  0  0  0
  8  5  1  0  0  0  0
  9 25  2  0  0  0  0
  9 19  1  0  0  0  0
 10 21  1  0  0  0  0
 10 17  1  0  0  0  0
 11  1  1  0  0  0  0
 13 14  1  0  0  0  0
 13 10  1  0  0  0  0
 14 23  2  0  0  0  0
 16  6  1  0  0  0  0
 16 18  1  0  0  0  0
 17  6  1  0  0  0  0
 17  7  1  0  0  0  0
 18  1  1  0  0  0  0
 18 26  2  0  0  0  0
 19  2  2  0  0  0  0
 21 12  1  0  0  0  0
 21 20  1  0  0  0  0
 22 20  1  0  0  0  0
 22 16  1  0  0  0  0
 25  3  1  0  0  0  0
 27 29  1  0  0  0  0
 27 13  1  0  0  0  0
 29 30  1  0  0  0  0
 30 28  1  0  0  0  0
 31 33  1  0  0  0  0
 31 34  1  0  0  0  0
 33 32  1  0  0  0  0
 33 29  1  0  0  0  0
 34 28  1  0  0  0  0
M  END
>  <MODEL>
4

>  <REMARK>
 VINA RESULT:      -8.3      2.099      3.652
  Name = 
  2 active torsions:
  status: ('A' for Active; 'I' for Inactive)
    1  A    between atoms: C_3  and  N_13
    2  A    between atoms: C_3  and  C_17
                            x       y       z     vdW  Elec       q    Type
                         _______ _______ _______ _____ _____    ______ ____

>  <TORSDO>
F 2

$$$$
=
 OpenBabel11052419003D

 34 39  0  0  1  0  0  0  0  0999 V2000
  188.5750  176.2150  146.1050 N   0  0  0  0  0  0  0  0  0  0  0  0
  187.8030  177.3860  144.0910 C   0  0  0  0  0  0  0  0  0  0  0  0
  190.0740  176.5410  144.3550 C   0  0  0  0  0  0  0  0  0  0  0  0
  191.8080  177.2460  142.7630 O   0  0  0  0  0  0  0  0  0  0  0  0
  186.1950  176.7340  145.9530 C   0  0  0  0  0  2  0  0  0  0  0  0
  191.3420  174.4430  145.1840 C   0  0  2  0  0  3  0  0  0  0  0  0
  193.2080  172.9340  145.3880 O   0  0  0  0  0  1  0  0  0  0  0  0
  186.4720  177.6590  144.7460 C   0  0  0  0  0  2  0  0  0  0  0  0
  189.5110  177.9280  142.4470 C   0  0  0  0  0  3  0  0  0  0  0  0
  193.8250  175.1580  144.6940 C   0  0  2  0  0  3  0  0  0  0  0  0
  188.7730  176.6740  144.7930 C   0  0  0  0  0  0  0  0  0  0  0  0
  194.8660  175.3440  146.8290 F   0  0  0  0  0  0  0  0  0  0  0  0
  193.8760  176.0270  143.4290 C   0  0  2  0  0  3  0  0  0  0  0  0
  192.5820  176.0950  142.6710 C   0  0  0  0  0  0  0  0  0  0  0  0
  187.4150  176.6170  146.8880 C   0  0  0  0  0  2  0  0  0  0  0  0
  190.9170  175.9220  145.4660 C   0  0  2  0  0  0  0  0  0  0  0  0
  192.7520  174.0610  144.7000 C   0  0  2  0  0  3  0  0  0  0  0  0
  189.8830  175.8930  146.5730 C   0  0  0  0  0  0  0  0  0  0  0  0
  188.1820  178.0170  142.8990 C   0  0  0  0  0  3  0  0  0  0  0  0
  192.7540  176.1480  146.6560 O   0  0  0  0  0  0  0  0  0  0  0  0
  193.9730  175.9700  145.9870 C   0  0  2  0  0  3  0  0  0  0  0  0
  191.9750  176.7910  145.8070 O   0  0  0  0  0  0  0  0  0  0  0  0
  192.1460  175.0930  142.0370 O   0  0  0  0  0  0  0  0  0  0  0  0
  190.3590  173.7190  144.4960 O   0  0  0  0  0  1  0  0  0  0  0  0
  190.4760  177.2070  143.1780 C   0  0  0  0  0  0  0  0  0  0  0  0
  190.1290  175.6050  147.7750 O   0  0  0  0  0  0  0  0  0  0  0  0
  195.0870  175.7020  142.5510 C   0  0  0  0  0  2  0  0  0  0  0  0
  195.7670  172.1600  141.6980 C   0  0  0  0  0  2  0  0  0  0  0  0
  195.5740  174.3490  142.7830 N   0  0  0  0  0  0  0  0  0  0  0  0
  195.2420  173.5900  141.5790 C   0  0  0  0  0  2  0  0  0  0  0  0
  197.7560  173.3650  142.3220 O   0  0  0  0  0  0  0  0  0  0  0  0
  197.4220  174.5410  144.4060 C   0  0  0  0  0  1  0  0  0  0  0  0
  197.0440  174.4320  142.9360 C   0  0  2  0  0  3  0  0  0  0  0  0
  197.0530  172.1600  142.5170 C   0  0  0  0  0  2  0  0  0  0  0  0
  1 18  1  0  0  0  0
  1 15  1  0  0  0  0
  2  8  1  0  0  0  0
  2 11  1  0  0  0  0
  3 11  2  0  0  0  0
  3 16  1  0  0  0  0
  4 25  1  0  0  0  0
  5 15  1  0  0  0  0
  6 24  1  6  0  0  0
  6 16  1  0  0  0  0
  8  5  1  0  0  0  0
  9 19  1  0  0  0  0
  9 25  2  0  0  0  0
 10 17  1  0  0  0  0
 10 21  1  0  0  0  0
 11  1  1  0  0  0  0
 13 10  1  0  0  0  0
 14  4  1  0  0  0  0
 14 13  1  0  0  0  0
 16 22  1  0  0  0  0
 16 18  1  0  0  0  0
 17  6  1  0  0  0  0
 17  7  1  0  0  0  0
 18 26  2  0  0  0  0
 19  2  2  0  0  0  0
 21 20  1  0  0  0  0
 21 12  1  0  0  0  0
 22 20  1  0  0  0  0
 23 14  2  0  0  0  0
 25  3  1  0  0  0  0
 27 29  1  0  0  0  0
 27 13  1  0  0  0  0
 28 34  1  0  0  0  0
 29 33  1  0  0  0  0
 30 28  1  0  0  0  0
 30 29  1  0  0  0  0
 31 34  1  0  0  0  0
 31 33  1  0  0  0  0
 33 32  1  0  0  0  0
M  END
>  <MODEL>
5

>  <REMARK>
 VINA RESULT:      -8.2      2.249      4.204
  Name = 
  2 active torsions:
  status: ('A' for Active; 'I' for Inactive)
    1  A    between atoms: C_3  and  N_13
    2  A    between atoms: C_3  and  C_17
                            x       y       z     vdW  Elec       q    Type
                         _______ _______ _______ _____ _____    ______ ____

>  <TORSDO>
F 2

$$$$
=
 OpenBabel11052419003D

 34 39  0  0  1  0  0  0  0  0999 V2000
  193.8050  174.8150  143.2790 N   0  0  0  0  0  0  0  0  0  0  0  0
  194.4320  175.4270  145.5720 C   0  0  0  0  0  0  0  0  0  0  0  0
  192.1400  175.5190  144.7440 C   0  0  0  0  0  0  0  0  0  0  0  0
  190.4310  176.6760  146.0780 O   0  0  0  0  0  0  0  0  0  0  0  0
  196.1090  174.3900  143.9630 C   0  0  0  0  0  2  0  0  0  0  0  0
  190.4630  174.1310  143.3470 C   0  0  2  0  0  3  0  0  0  0  0  0
  188.2960  173.4550  142.5410 O   0  0  0  0  0  1  0  0  0  0  0  0
  195.8900  175.2390  145.2350 C   0  0  0  0  0  2  0  0  0  0  0  0
  192.6760  176.4180  146.9330 C   0  0  0  0  0  3  0  0  0  0  0  0
  188.3380  175.6760  143.4750 C   0  0  2  0  0  3  0  0  0  0  0  0
  193.4720  175.1950  144.5890 C   0  0  0  0  0  0  0  0  0  0  0  0
  187.9640  176.4280  141.2460 F   0  0  0  0  0  0  0  0  0  0  0  0
  188.2910  176.3850  144.8370 C   0  0  2  0  0  3  0  0  0  0  0  0
  189.3100  175.8950  145.8250 C   0  0  0  0  0  0  0  0  0  0  0  0
  195.1830  174.8210  142.8090 C   0  0  0  0  0  2  0  0  0  0  0  0
  191.4250  175.3630  143.4060 C   0  0  2  0  0  0  0  0  0  0  0  0
  188.9350  174.2630  143.4850 C   0  0  2  0  0  3  0  0  0  0  0  0
  192.6180  175.0480  142.5260 C   0  0  0  0  0  0  0  0  0  0  0  0
  194.0220  176.0440  146.7610 C   0  0  0  0  0  3  0  0  0  0  0  0
  190.1180  176.3650  141.9470 O   0  0  0  0  0  0  0  0  0  0  0  0
  188.7910  176.5970  142.3350 C   0  0  2  0  0  3  0  0  0  0  0  0
  190.8460  176.5910  143.0240 O   0  0  0  0  0  0  0  0  0  0  0  0
  189.2090  174.7510  146.3500 O   0  0  0  0  0  0  0  0  0  0  0  0
  190.9420  173.0340  144.0740 O   0  0  0  0  0  1  0  0  0  0  0  0
  191.7250  176.1790  145.9210 C   0  0  0  0  0  0  0  0  0  0  0  0
  192.5800  174.9830  141.2680 O   0  0  0  0  0  0  0  0  0  0  0  0
  186.8700  176.4590  145.4020 C   0  0  0  0  0  2  0  0  0  0  0  0
  184.6710  178.5610  143.2840 C   0  0  0  0  0  2  0  0  0  0  0  0
  186.1900  177.6810  144.9950 N   0  0  0  0  0  0  0  0  0  0  0  0
  185.4710  177.3520  143.7660 C   0  0  0  0  0  2  0  0  0  0  0  0
  183.9820  178.5220  145.5910 O   0  0  0  0  0  0  0  0  0  0  0  0
  185.8490  179.0070  147.0470 C   0  0  0  0  0  1  0  0  0  0  0  0
  185.2270  178.0250  146.0650 C   0  0  2  0  0  3  0  0  0  0  0  0
  184.2070  179.3710  144.4890 C   0  0  0  0  0  2  0  0  0  0  0  0
  1 11  1  0  0  0  0
  2 19  1  0  0  0  0
  3 25  2  0  0  0  0
  5  8  1  0  0  0  0
  6 16  1  0  0  0  0
  6 17  1  0  0  0  0
  6 24  1  1  0  0  0
  7 17  1  0  0  0  0
  8  2  1  0  0  0  0
 10 17  1  0  0  0  0
 10 13  1  0  0  0  0
 11  3  1  0  0  0  0
 11  2  2  0  0  0  0
 12 21  1  0  0  0  0
 13 27  1  0  0  0  0
 13 14  1  0  0  0  0
 14  4  1  0  0  0  0
 14 23  2  0  0  0  0
 15  1  1  0  0  0  0
 15  5  1  0  0  0  0
 16  3  1  0  0  0  0
 18  1  1  0  0  0  0
 18 16  1  0  0  0  0
 19  9  2  0  0  0  0
 20 21  1  0  0  0  0
 20 22  1  0  0  0  0
 21 10  1  0  0  0  0
 22 16  1  0  0  0  0
 25  4  1  0  0  0  0
 25  9  1  0  0  0  0
 26 18  2  0  0  0  0
 28 30  1  0  0  0  0
 28 34  1  0  0  0  0
 29 27  1  0  0  0  0
 29 33  1  0  0  0  0
 30 29  1  0  0  0  0
 31 33  1  0  0  0  0
 33 32  1  0  0  0  0
 34 31  1  0  0  0  0
M  END
>  <MODEL>
6

>  <REMARK>
 VINA RESULT:      -8.1      1.938      7.304
  Name = 
  2 active torsions:
  status: ('A' for Active; 'I' for Inactive)
    1  A    between atoms: C_3  and  N_13
    2  A    between atoms: C_3  and  C_17
                            x       y       z     vdW  Elec       q    Type
                         _______ _______ _______ _____ _____    ______ ____

>  <TORSDO>
F 2

$$$$
=
 OpenBabel11052419003D

 34 39  0  0  1  0  0  0  0  0999 V2000
  187.0790  178.3420  143.4960 N   0  0  0  0  0  0  0  0  0  0  0  0
  186.2770  177.9650  145.7840 C   0  0  0  0  0  0  0  0  0  0  0  0
  188.2890  176.9220  144.8860 C   0  0  0  0  0  0  0  0  0  0  0  0
  189.3410  175.0810  146.1280 O   0  0  0  0  0  0  0  0  0  0  0  0
  185.1980  179.6970  144.2630 C   0  0  0  0  0  2  0  0  0  0  0  0
  190.3860  177.5020  143.4860 C   0  0  2  0  0  3  0  0  0  0  0  0
  192.6210  177.2030  142.6380 O   0  0  0  0  0  1  0  0  0  0  0  0
  185.0420  178.7820  145.4980 C   0  0  0  0  0  2  0  0  0  0  0  0
  187.4430  176.2520  147.0580 C   0  0  0  0  0  3  0  0  0  0  0  0
  191.6270  175.1830  143.4980 C   0  0  2  0  0  3  0  0  0  0  0  0
  187.2300  177.7990  144.7820 C   0  0  0  0  0  0  0  0  0  0  0  0
  191.6080  174.4400  141.2340 F   0  0  0  0  0  0  0  0  0  0  0  0
  191.3780  174.4660  144.8330 C   0  0  2  0  0  3  0  0  0  0  0  0
  190.6870  175.3070  145.8680 C   0  0  0  0  0  0  0  0  0  0  0  0
  185.8290  178.9550  143.0670 C   0  0  0  0  0  2  0  0  0  0  0  0
  188.9840  176.8100  143.5320 C   0  0  2  0  0  0  0  0  0  0  0  0
  191.7050  176.7130  143.5730 C   0  0  2  0  0  3  0  0  0  0  0  0
  188.0360  177.6480  142.6990 C   0  0  0  0  0  0  0  0  0  0  0  0
  186.3920  177.1810  146.9400 C   0  0  0  0  0  3  0  0  0  0  0  0
  189.7060  175.4030  142.0020 O   0  0  0  0  0  0  0  0  0  0  0  0
  190.8040  174.6000  142.3420 C   0  0  2  0  0  3  0  0  0  0  0  0
  188.9660  175.4690  143.0930 O   0  0  0  0  0  0  0  0  0  0  0  0
  191.2820  176.2700  146.4270 O   0  0  0  0  0  0  0  0  0  0  0  0
  190.4420  178.6660  144.2630 O   0  0  0  0  0  1  0  0  0  0  0  0
  188.3900  176.0970  146.0270 C   0  0  0  0  0  0  0  0  0  0  0  0
  188.0830  177.7450  141.4440 O   0  0  0  0  0  0  0  0  0  0  0  0
  192.6320  173.7580  145.3530 C   0  0  0  0  0  2  0  0  0  0  0  0
  191.6390  170.7060  143.4980 C   0  0  0  0  0  2  0  0  0  0  0  0
  192.8420  172.4780  144.6900 N   0  0  0  0  0  0  0  0  0  0  0  0
  191.5200  172.0230  144.2630 C   0  0  0  0  0  2  0  0  0  0  0  0
  193.3300  171.9810  142.3550 O   0  0  0  0  0  0  0  0  0  0  0  0
  195.1600  172.5030  143.8450 C   0  0  0  0  0  1  0  0  0  0  0  0
  193.6940  172.7310  143.5060 C   0  0  2  0  0  3  0  0  0  0  0  0
  192.9630  170.6780  142.7420 C   0  0  0  0  0  2  0  0  0  0  0  0
  1 11  1  0  0  0  0
  2 19  1  0  0  0  0
  3 25  2  0  0  0  0
  5  8  1  0  0  0  0
  6 16  1  0  0  0  0
  6 17  1  0  0  0  0
  6 24  1  1  0  0  0
  7 17  1  0  0  0  0
  8  2  1  0  0  0  0
 10 17  1  0  0  0  0
 10 13  1  0  0  0  0
 11  3  1  0  0  0  0
 11  2  2  0  0  0  0
 12 21  1  0  0  0  0
 13 27  1  0  0  0  0
 13 14  1  0  0  0  0
 14  4  1  0  0  0  0
 14 23  2  0  0  0  0
 15  1  1  0  0  0  0
 15  5  1  0  0  0  0
 16  3  1  0  0  0  0
 18  1  1  0  0  0  0
 18 16  1  0  0  0  0
 19  9  2  0  0  0  0
 20 21  1  0  0  0  0
 20 22  1  0  0  0  0
 21 10  1  0  0  0  0
 22 16  1  0  0  0  0
 25  4  1  0  0  0  0
 25  9  1  0  0  0  0
 26 18  2  0  0  0  0
 28 30  1  0  0  0  0
 29 27  1  0  0  0  0
 30 29  1  0  0  0  0
 31 34  1  0  0  0  0
 31 33  1  0  0  0  0
 33 32  1  0  0  0  0
 33 29  1  0  0  0  0
 34 28  1  0  0  0  0
M  END
>  <MODEL>
7

>  <REMARK>
 VINA RESULT:      -7.9      0.993      1.693
  Name = 
  2 active torsions:
  status: ('A' for Active; 'I' for Inactive)
    1  A    between atoms: C_3  and  N_13
    2  A    between atoms: C_3  and  C_17
                            x       y       z     vdW  Elec       q    Type
                         _______ _______ _______ _____ _____    ______ ____

>  <TORSDO>
F 2

$$$$
=
 OpenBabel11052419003D

 34 39  0  0  1  0  0  0  0  0999 V2000
  187.9060  177.1930  146.5500 N   0  0  0  0  0  0  0  0  0  0  0  0
  186.1910  176.7910  144.8410 C   0  0  0  0  0  0  0  0  0  0  0  0
  188.5300  176.1670  144.5570 C   0  0  0  0  0  0  0  0  0  0  0  0
  189.3340  175.5090  142.3300 O   0  0  0  0  0  0  0  0  0  0  0  0
  185.5870  177.6560  147.1570 C   0  0  0  0  0  2  0  0  0  0  0  0
  190.4740  175.0570  145.8550 C   0  0  2  0  0  3  0  0  0  0  0  0
  192.5850  173.9280  146.1200 O   0  0  0  0  0  1  0  0  0  0  0  0
  185.1710  177.5270  145.6740 C   0  0  0  0  0  2  0  0  0  0  0  0
  186.9910  175.9790  142.6920 C   0  0  0  0  0  3  0  0  0  0  0  0
  192.3540  175.0810  144.0170 C   0  0  2  0  0  3  0  0  0  0  0  0
  187.4910  176.6520  145.3230 C   0  0  0  0  0  0  0  0  0  0  0  0
  194.0320  176.5560  144.8440 F   0  0  0  0  0  0  0  0  0  0  0  0
  191.7270  174.8880  142.6280 C   0  0  2  0  0  3  0  0  0  0  0  0
  190.2690  174.5330  142.6510 C   0  0  0  0  0  0  0  0  0  0  0  0
  187.0560  178.0970  147.3130 C   0  0  0  0  0  2  0  0  0  0  0  0
  189.8440  176.3780  145.3030 C   0  0  2  0  0  0  0  0  0  0  0  0
  191.6530  174.3470  145.1670 C   0  0  2  0  0  3  0  0  0  0  0  0
  189.3290  177.1660  146.4900 C   0  0  0  0  0  0  0  0  0  0  0  0
  185.9410  176.4430  143.5060 C   0  0  0  0  0  3  0  0  0  0  0  0
  191.8800  177.1980  145.1450 O   0  0  0  0  0  0  0  0  0  0  0  0
  192.7710  176.5320  144.2910 C   0  0  2  0  0  3  0  0  0  0  0  0
  190.7140  177.1730  144.5270 O   0  0  0  0  0  0  0  0  0  0  0  0
  189.8820  173.3990  143.0500 O   0  0  0  0  0  0  0  0  0  0  0  0
  189.5090  174.1340  146.2820 O   0  0  0  0  0  1  0  0  0  0  0  0
  188.2990  175.8540  143.2000 C   0  0  0  0  0  0  0  0  0  0  0  0
  190.0630  177.7280  147.3470 O   0  0  0  0  0  0  0  0  0  0  0  0
  192.5690  173.9750  141.7340 C   0  0  0  0  0  2  0  0  0  0  0  0
  194.1930  175.2800  138.6680 C   0  0  0  0  0  2  0  0  0  0  0  0
  192.6220  174.4620  140.3620 N   0  0  0  0  0  0  0  0  0  0  0  0
  194.0190  174.8100  140.1120 C   0  0  0  0  0  2  0  0  0  0  0  0
  192.9640  173.2470  138.2770 O   0  0  0  0  0  0  0  0  0  0  0  0
  190.7280  173.4160  139.1770 C   0  0  0  0  0  1  0  0  0  0  0  0
  192.2170  173.3420  139.4830 C   0  0  2  0  0  3  0  0  0  0  0  0
  193.2050  174.5410  137.7730 C   0  0  0  0  0  2  0  0  0  0  0  0
  1 15  1  0  0  0  0
  2 11  1  0  0  0  0
  2  8  1  0  0  0  0
  3 16  1  0  0  0  0
  3 11  2  0  0  0  0
  4 14  1  0  0  0  0
  4 25  1  0  0  0  0
  5 15  1  0  0  0  0
  6 24  1  6  0  0  0
  8  5  1  0  0  0  0
  9 25  2  0  0  0  0
  9 19  1  0  0  0  0
 10 21  1  0  0  0  0
 10 17  1  0  0  0  0
 11  1  1  0  0  0  0
 13 14  1  0  0  0  0
 13 10  1  0  0  0  0
 14 23  2  0  0  0  0
 16  6  1  0  0  0  0
 16 18  1  0  0  0  0
 17  6  1  0  0  0  0
 17  7  1  0  0  0  0
 18  1  1  0  0  0  0
 18 26  2  0  0  0  0
 19  2  2  0  0  0  0
 21 12  1  0  0  0  0
 21 20  1  0  0  0  0
 22 20  1  0  0  0  0
 22 16  1  0  0  0  0
 25  3  1  0  0  0  0
 27 13  1  0  0  0  0
 28 30  1  0  0  0  0
 29 27  1  0  0  0  0
 30 29  1  0  0  0  0
 31 33  1  0  0  0  0
 32 33  1  0  0  0  0
 33 29  1  0  0  0  0
 34 31  1  0  0  0  0
 34 28  1  0  0  0  0
M  END
>  <MODEL>
8

>  <REMARK>
 VINA RESULT:      -7.8      2.596      4.162
  Name = 
  2 active torsions:
  status: ('A' for Active; 'I' for Inactive)
    1  A    between atoms: C_3  and  N_13
    2  A    between atoms: C_3  and  C_17
                            x       y       z     vdW  Elec       q    Type
                         _______ _______ _______ _____ _____    ______ ____

>  <TORSDO>
F 2

$$$$
=
 OpenBabel11052419003D

 34 39  0  0  1  0  0  0  0  0999 V2000
  188.0450  176.0050  145.9040 N   0  0  0  0  0  0  0  0  0  0  0  0
  187.6940  177.6230  144.0930 C   0  0  0  0  0  0  0  0  0  0  0  0
  189.5750  176.0720  144.1530 C   0  0  0  0  0  0  0  0  0  0  0  0
  191.4480  176.4000  142.5970 O   0  0  0  0  0  0  0  0  0  0  0  0
  185.9550  177.2680  145.9170 C   0  0  0  0  0  2  0  0  0  0  0  0
  190.1020  173.5890  144.6510 C   0  0  2  0  0  3  0  0  0  0  0  0
  191.3870  171.5530  144.5820 O   0  0  0  0  0  1  0  0  0  0  0  0
  186.5180  178.2120  144.8310 C   0  0  0  0  0  2  0  0  0  0  0  0
  189.4910  177.8120  142.4650 C   0  0  0  0  0  3  0  0  0  0  0  0
  192.6840  173.5380  144.1570 C   0  0  2  0  0  3  0  0  0  0  0  0
  188.3830  176.5510  144.6560 C   0  0  0  0  0  0  0  0  0  0  0  0
  193.7230  173.0930  146.2550 F   0  0  0  0  0  0  0  0  0  0  0  0
  193.0160  174.5100  143.0150 C   0  0  2  0  0  3  0  0  0  0  0  0
  191.8130  175.0870  142.3250 C   0  0  0  0  0  0  0  0  0  0  0  0
  187.0710  176.6440  146.7790 C   0  0  0  0  0  2  0  0  0  0  0  0
  190.1710  175.0730  145.1390 C   0  0  2  0  0  0  0  0  0  0  0  0
  191.3180  172.8490  144.0650 C   0  0  2  0  0  3  0  0  0  0  0  0
  189.1790  175.2250  146.2730 C   0  0  0  0  0  0  0  0  0  0  0  0
  188.2580  178.2560  142.9770 C   0  0  0  0  0  3  0  0  0  0  0  0
  191.9800  174.5410  146.2740 O   0  0  0  0  0  0  0  0  0  0  0  0
  193.0810  174.0780  145.5380 C   0  0  2  0  0  3  0  0  0  0  0  0
  191.4510  175.5070  145.5470 O   0  0  0  0  0  0  0  0  0  0  0  0
  191.0820  174.3710  141.5850 O   0  0  0  0  0  0  0  0  0  0  0  0
  188.9410  173.3140  143.9150 O   0  0  0  0  0  1  0  0  0  0  0  0
  190.1720  176.7300  143.0570 C   0  0  0  0  0  0  0  0  0  0  0  0
  189.3160  174.7130  147.4170 O   0  0  0  0  0  0  0  0  0  0  0  0
  194.0620  173.9400  142.0540 C   0  0  0  0  0  2  0  0  0  0  0  0
  196.2060  176.8580  141.2630 C   0  0  0  0  0  2  0  0  0  0  0  0
  195.2850  174.7300  142.0580 N   0  0  0  0  0  0  0  0  0  0  0  0
  194.9940  175.9270  141.2710 C   0  0  0  0  0  2  0  0  0  0  0  0
  196.0510  176.4300  143.6270 O   0  0  0  0  0  0  0  0  0  0  0  0
  196.5130  174.1070  144.1050 C   0  0  0  0  0  1  0  0  0  0  0  0
  195.5610  175.1060  143.4630 C   0  0  2  0  0  3  0  0  0  0  0  0
  196.9520  176.7280  142.5860 C   0  0  0  0  0  2  0  0  0  0  0  0
  1 18  1  0  0  0  0
  1 15  1  0  0  0  0
  2 11  1  0  0  0  0
  2  8  1  0  0  0  0
  3 11  2  0  0  0  0
  3 16  1  0  0  0  0
  4 25  1  0  0  0  0
  5 15  1  0  0  0  0
  6 24  1  6  0  0  0
  6 16  1  0  0  0  0
  8  5  1  0  0  0  0
  9 19  1  0  0  0  0
  9 25  2  0  0  0  0
 10 21  1  0  0  0  0
 11  1  1  0  0  0  0
 13 10  1  0  0  0  0
 14  4  1  0  0  0  0
 14 13  1  0  0  0  0
 16 22  1  0  0  0  0
 16 18  1  0  0  0  0
 17 10  1  0  0  0  0
 17  7  1  0  0  0  0
 17  6  1  0  0  0  0
 18 26  2  0  0  0  0
 19  2  2  0  0  0  0
 21 12  1  0  0  0  0
 21 20  1  0  0  0  0
 22 20  1  0  0  0  0
 23 14  2  0  0  0  0
 25  3  1  0  0  0  0
 27 29  1  0  0  0  0
 27 13  1  0  0  0  0
 28 30  1  0  0  0  0
 28 34  1  0  0  0  0
 29 33  1  0  0  0  0
 30 29  1  0  0  0  0
 33 31  1  0  0  0  0
 33 32  1  0  0  0  0
 34 31  1  0  0  0  0
M  END
>  <MODEL>
9

>  <REMARK>
 VINA RESULT:      -7.8      2.207      4.024
  Name = 
  2 active torsions:
  status: ('A' for Active; 'I' for Inactive)
    1  A    between atoms: C_3  and  N_13
    2  A    between atoms: C_3  and  C_17
                            x       y       z     vdW  Elec       q    Type
                         _______ _______ _______ _____ _____    ______ ____

>  <TORSDO>
F 2

$$$$
