=
 OpenBabel11052421043D

 43 48  0  0  1  0  0  0  0  0999 V2000
  185.1240  178.1500  146.9730 C   0  0  0  0  0  0  0  0  0  0  0  0
  188.2120  176.0380  143.5640 C   0  0  0  0  0  0  0  0  0  0  0  0
  190.7500  176.1220  144.7170 C   0  0  0  0  0  0  0  0  0  0  0  0
  186.0300  177.0760  145.0000 C   0  0  0  0  0  0  0  0  0  0  0  0
  186.4010  178.1960  147.5390 C   0  0  0  0  0  3  0  0  0  0  0  0
  184.0640  178.6490  147.6530 F   0  0  0  0  0  0  0  0  0  0  0  0
  187.3270  177.1180  145.5680 C   0  0  0  0  0  0  0  0  0  0  0  0
  184.9390  177.5920  145.7050 C   0  0  0  0  0  3  0  0  0  0  0  0
  187.4980  177.6820  146.8410 C   0  0  0  0  0  3  0  0  0  0  0  0
  189.6730  176.6190  145.3790 N   0  0  0  0  0  0  0  0  0  0  0  0
  188.4180  176.5960  144.8490 C   0  0  0  0  0  0  0  0  0  0  0  0
  186.9180  176.0020  143.0230 C   0  0  0  0  0  3  0  0  0  0  0  0
  189.3150  175.5270  142.8570 C   0  0  0  0  0  0  0  0  0  0  0  0
  190.5830  175.5680  143.4410 C   0  0  0  0  0  3  0  0  0  0  0  0
  185.8360  176.5180  143.7360 C   0  0  0  0  0  3  0  0  0  0  0  0
  192.0700  176.1830  145.3600 C   0  0  0  0  0  3  0  0  0  0  0  0
  193.1210  176.7720  144.7910 C   0  0  0  0  0  3  0  0  0  0  0  0
  195.0070  178.0830  145.2920 F   0  0  0  0  0  0  0  0  0  0  0  0
  194.4550  176.8240  145.4620 C   0  0  1  0  0  0  0  0  0  0  0  0
  194.2950  176.5350  146.9470 C   0  0  0  0  0  1  0  0  0  0  0  0
  195.3500  175.7660  144.8200 C   0  0  0  0  0  2  0  0  0  0  0  0
  195.4070  174.4680  145.6180 C   0  0  2  0  0  3  0  0  0  0  0  0
  196.1610  171.6200  144.9460 C   0  0  0  0  0  2  0  0  0  0  0  0
  195.1100  172.4100  144.1430 C   0  0  2  0  0  3  0  0  0  0  0  0
  196.8500  173.9440  145.6710 C   0  0  0  0  0  2  0  0  0  0  0  0
  194.4120  173.4580  145.0260 C   0  0  1  0  0  3  0  0  0  0  0  0
  193.7130  172.8410  146.0500 F   0  0  0  0  0  0  0  0  0  0  0  0
  196.8760  172.4580  146.0130 C   0  0  0  0  0  2  0  0  0  0  0  0
  194.1060  171.4750  143.4520 C   0  0  0  0  0  3  0  0  0  0  0  0
  193.3270  172.9540  141.5760 C   0  0  0  0  0  2  0  0  0  0  0  0
  194.9960  171.5130  141.1010 C   0  0  0  0  0  2  0  0  0  0  0  0
  193.7630  172.0050  140.6350 O   0  0  0  0  0  0  0  0  0  0  0  0
  194.7750  170.6470  142.3440 C   0  0  0  0  0  2  0  0  0  0  0  0
  192.9150  172.2520  142.8720 C   0  0  0  0  0  2  0  0  0  0  0  0
  189.1680  174.9450  141.4820 C   0  0  0  0  0  2  0  0  0  0  0  0
  189.5370  173.4660  141.4600 C   0  0  1  0  0  3  0  0  0  0  0  0
  188.4170  172.6410  142.0670 C   0  0  0  0  0  1  0  0  0  0  0  0
  189.8740  172.9710  140.0540 C   0  0  0  0  0  2  0  0  0  0  0  0
  190.7040  174.0500  137.7830 O   0  0  0  0  0  1  0  0  0  0  0  0
  188.4630  174.5440  137.1000 O   0  0  0  0  0  1  0  0  0  0  0  0
  188.8030  173.2840  139.1120 N   0  0  0  0  0  0  0  0  0  0  0  0
  189.3410  173.7260  137.8090 C   0  0  0  0  0  0  0  0  0  0  0  0
  188.9670  172.3390  137.9820 C   0  0  0  0  0  2  0  0  0  0  0  0
  1  5  1  0  0  0  0
  1  6  1  0  0  0  0
  2 11  1  0  0  0  0
  3 16  1  0  0  0  0
  3 10  1  0  0  0  0
  4  7  2  0  0  0  0
  4  8  1  0  0  0  0
  7  9  1  0  0  0  0
  8  1  2  0  0  0  0
  9  5  2  0  0  0  0
 11 10  2  0  0  0  0
 11  7  1  0  0  0  0
 12  2  1  0  0  0  0
 12 15  2  0  0  0  0
 13 14  1  0  0  0  0
 13  2  2  0  0  0  0
 14  3  2  0  0  0  0
 15  4  1  0  0  0  0
 17 16  2  0  0  0  0
 17 19  1  0  0  0  0
 18 19  1  0  0  0  0
 19 20  1  1  0  0  0
 21 19  1  0  0  0  0
 22 21  1  6  0  0  0
 22 25  1  0  0  0  0
 23 28  1  0  0  0  0
 24 29  1  1  0  0  0
 24 23  1  0  0  0  0
 24 26  1  0  0  0  0
 25 28  1  0  0  0  0
 26 22  1  0  0  0  0
 26 27  1  1  0  0  0
 30 34  1  0  0  0  0
 31 33  1  0  0  0  0
 32 31  1  0  0  0  0
 32 30  1  0  0  0  0
 33 29  1  0  0  0  0
 34 29  1  0  0  0  0
 35 13  1  0  0  0  0
 36 35  1  0  0  0  0
 36 37  1  6  0  0  0
 38 36  1  0  0  0  0
 39 42  1  0  0  0  0
 40 42  1  0  0  0  0
 41 38  1  0  0  0  0
 42 43  1  0  0  0  0
 42 41  1  0  0  0  0
 43 41  1  0  0  0  0
M  END
>  <MODEL>
1

>  <REMARK>
 VINA RESULT:      -8.2      0.000      0.000
  Name = 
  9 active torsions:
  status: ('A' for Active; 'I' for Inactive)
    1  A    between atoms: C_1  and  C_9
    2  A    between atoms: C_1  and  C_35
    3  A    between atoms: C_2  and  C_13
    4  A    between atoms: C_3  and  C_4
    5  A    between atoms: C_3  and  C_12
    6  A    between atoms: C_6  and  C_12
    7  A    between atoms: C_9  and  N_32
    8  A    between atoms: C_11  and  C_14
    9  A    between atoms: C_34  and  C_35
                            x       y       z     vdW  Elec       q    Type
                         _______ _______ _______ _____ _____    ______ ____

>  <TORSDO>
F 9

$$$$
=
 OpenBabel11052421043D

 43 48  0  0  1  0  0  0  0  0999 V2000
  184.2350  178.4750  143.8270 C   0  0  0  0  0  0  0  0  0  0  0  0
  188.3440  176.3550  145.8860 C   0  0  0  0  0  0  0  0  0  0  0  0
  189.3620  174.6600  143.9200 C   0  0  0  0  0  0  0  0  0  0  0  0
  186.0270  177.8460  145.3310 C   0  0  0  0  0  0  0  0  0  0  0  0
  184.7470  177.6170  142.8510 C   0  0  0  0  0  3  0  0  0  0  0  0
  183.1170  179.1970  143.5730 F   0  0  0  0  0  0  0  0  0  0  0  0
  186.5510  176.9740  144.3460 C   0  0  0  0  0  0  0  0  0  0  0  0
  184.8730  178.5900  145.0650 C   0  0  0  0  0  3  0  0  0  0  0  0
  185.9000  176.8690  143.1070 C   0  0  0  0  0  3  0  0  0  0  0  0
  188.2400  175.3920  143.6890 N   0  0  0  0  0  0  0  0  0  0  0  0
  187.7130  176.2310  144.6240 C   0  0  0  0  0  0  0  0  0  0  0  0
  187.8100  177.2290  146.8440 C   0  0  0  0  0  3  0  0  0  0  0  0
  189.5000  175.6000  146.1490 C   0  0  0  0  0  0  0  0  0  0  0  0
  190.0080  174.7550  145.1590 C   0  0  0  0  0  3  0  0  0  0  0  0
  186.6590  177.9680  146.5680 C   0  0  0  0  0  3  0  0  0  0  0  0
  189.8670  173.7800  142.8570 C   0  0  0  0  0  3  0  0  0  0  0  0
  190.3520  172.5630  143.1000 C   0  0  0  0  0  3  0  0  0  0  0  0
  190.0190  170.5920  141.8630 F   0  0  0  0  0  0  0  0  0  0  0  0
  190.8610  171.6830  142.0050 C   0  0  1  0  0  0  0  0  0  0  0  0
  190.9090  172.4620  140.7000 C   0  0  0  0  0  1  0  0  0  0  0  0
  192.2660  171.2180  142.3850 C   0  0  0  0  0  2  0  0  0  0  0  0
  193.0700  172.2870  143.1170 C   0  0  2  0  0  3  0  0  0  0  0  0
  195.8940  172.4260  144.1860 C   0  0  0  0  0  2  0  0  0  0  0  0
  194.9240  171.2870  144.5540 C   0  0  2  0  0  3  0  0  0  0  0  0
  194.2730  172.7190  142.2650 C   0  0  0  0  0  2  0  0  0  0  0  0
  193.4630  171.7670  144.5090 C   0  0  1  0  0  3  0  0  0  0  0  0
  193.2500  172.7590  145.4510 F   0  0  0  0  0  0  0  0  0  0  0  0
  195.3380  173.3880  143.1270 C   0  0  0  0  0  2  0  0  0  0  0  0
  195.2830  170.6550  145.9070 C   0  0  0  0  0  3  0  0  0  0  0  0
  195.4560  168.2370  145.2460 C   0  0  0  0  0  2  0  0  0  0  0  0
  197.3790  169.4150  145.2850 C   0  0  0  0  0  2  0  0  0  0  0  0
  196.7900  168.2020  145.6880 O   0  0  0  0  0  0  0  0  0  0  0  0
  196.8040  170.5720  146.1060 C   0  0  0  0  0  2  0  0  0  0  0  0
  194.6620  169.2590  146.0630 C   0  0  0  0  0  2  0  0  0  0  0  0
  190.2010  175.6690  147.4740 C   0  0  0  0  0  2  0  0  0  0  0  0
  191.3700  176.6480  147.4360 C   0  0  1  0  0  3  0  0  0  0  0  0
  191.5880  177.2490  148.8130 C   0  0  0  0  0  1  0  0  0  0  0  0
  192.6530  176.0030  146.9170 C   0  0  0  0  0  2  0  0  0  0  0  0
  195.0870  175.2230  146.2230 O   0  0  0  0  0  1  0  0  0  0  0  0
  195.4210  177.1770  144.8800 O   0  0  0  0  0  1  0  0  0  0  0  0
  193.2680  176.8150  145.8710 N   0  0  0  0  0  0  0  0  0  0  0  0
  194.5470  176.2330  145.4160 C   0  0  0  0  0  0  0  0  0  0  0  0
  193.3400  175.9460  144.6720 C   0  0  0  0  0  2  0  0  0  0  0  0
  1  8  1  0  0  0  0
  2 13  1  0  0  0  0
  2 12  1  0  0  0  0
  3 14  1  0  0  0  0
  4 15  1  0  0  0  0
  5  9  1  0  0  0  0
  5  1  2  0  0  0  0
  6  1  1  0  0  0  0
  7 11  1  0  0  0  0
  7  4  1  0  0  0  0
  8  4  2  0  0  0  0
  9  7  2  0  0  0  0
 10  3  2  0  0  0  0
 10 11  1  0  0  0  0
 11  2  2  0  0  0  0
 13 35  1  0  0  0  0
 14 13  2  0  0  0  0
 15 12  2  0  0  0  0
 16 17  2  0  0  0  0
 16  3  1  0  0  0  0
 18 19  1  0  0  0  0
 19 20  1  6  0  0  0
 19 21  1  0  0  0  0
 19 17  1  0  0  0  0
 22 21  1  6  0  0  0
 22 26  1  0  0  0  0
 23 24  1  0  0  0  0
 24 29  1  1  0  0  0
 25 22  1  0  0  0  0
 25 28  1  0  0  0  0
 26 24  1  0  0  0  0
 26 27  1  1  0  0  0
 28 23  1  0  0  0  0
 29 34  1  0  0  0  0
 29 33  1  0  0  0  0
 30 32  1  0  0  0  0
 30 34  1  0  0  0  0
 31 32  1  0  0  0  0
 31 33  1  0  0  0  0
 36 35  1  0  0  0  0
 36 37  1  1  0  0  0
 38 36  1  0  0  0  0
 40 42  1  0  0  0  0
 41 38  1  0  0  0  0
 42 41  1  0  0  0  0
 42 39  1  0  0  0  0
 43 42  1  0  0  0  0
 43 41  1  0  0  0  0
M  END
>  <MODEL>
2

>  <REMARK>
 VINA RESULT:      -8.1      3.106      5.560
  Name = 
  9 active torsions:
  status: ('A' for Active; 'I' for Inactive)
    1  A    between atoms: C_1  and  C_9
    2  A    between atoms: C_1  and  C_35
    3  A    between atoms: C_2  and  C_13
    4  A    between atoms: C_3  and  C_4
    5  A    between atoms: C_3  and  C_12
    6  A    between atoms: C_6  and  C_12
    7  A    between atoms: C_9  and  N_32
    8  A    between atoms: C_11  and  C_14
    9  A    between atoms: C_34  and  C_35
                            x       y       z     vdW  Elec       q    Type
                         _______ _______ _______ _____ _____    ______ ____

>  <TORSDO>
F 9

$$$$
=
 OpenBabel11052421043D

 43 48  0  0  1  0  0  0  0  0999 V2000
  191.3620  177.1560  148.1620 C   0  0  0  0  0  0  0  0  0  0  0  0
  188.7010  176.2110  143.9620 C   0  0  0  0  0  0  0  0  0  0  0  0
  190.4110  174.7400  142.3210 C   0  0  0  0  0  0  0  0  0  0  0  0
  189.6180  177.0440  146.4850 C   0  0  0  0  0  0  0  0  0  0  0  0
  192.2150  176.4260  147.3300 C   0  0  0  0  0  3  0  0  0  0  0  0
  191.7920  177.5660  149.3800 F   0  0  0  0  0  0  0  0  0  0  0  0
  190.4770  176.3030  145.6370 C   0  0  0  0  0  0  0  0  0  0  0  0
  190.0650  177.4650  147.7400 C   0  0  0  0  0  3  0  0  0  0  0  0
  191.7750  176.0010  146.0730 C   0  0  0  0  0  3  0  0  0  0  0  0
  190.8220  175.1650  143.5450 N   0  0  0  0  0  0  0  0  0  0  0  0
  190.0150  175.8850  144.3750 C   0  0  0  0  0  0  0  0  0  0  0  0
  187.8650  176.9410  144.8210 C   0  0  0  0  0  3  0  0  0  0  0  0
  188.2590  175.7900  142.6950 C   0  0  0  0  0  0  0  0  0  0  0  0
  189.1180  175.0510  141.8790 C   0  0  0  0  0  3  0  0  0  0  0  0
  188.3220  177.3540  146.0720 C   0  0  0  0  0  3  0  0  0  0  0  0
  191.3410  173.9660  141.4890 C   0  0  0  0  0  3  0  0  0  0  0  0
  192.4260  174.5030  140.9320 C   0  0  0  0  0  3  0  0  0  0  0  0
  192.7780  172.4780  139.7920 F   0  0  0  0  0  0  0  0  0  0  0  0
  193.3610  173.6980  140.0880 C   0  0  1  0  0  0  0  0  0  0  0  0
  193.6610  174.4460  138.7980 C   0  0  0  0  0  1  0  0  0  0  0  0
  194.6510  173.4880  140.8790 C   0  0  0  0  0  2  0  0  0  0  0  0
  195.0690  174.7180  141.6790 C   0  0  2  0  0  3  0  0  0  0  0  0
  197.0730  175.2060  143.8860 C   0  0  0  0  0  2  0  0  0  0  0  0
  195.9940  174.1100  143.9750 C   0  0  2  0  0  3  0  0  0  0  0  0
  196.5470  175.0400  141.4170 C   0  0  0  0  0  2  0  0  0  0  0  0
  194.7450  174.4960  143.1640 C   0  0  1  0  0  3  0  0  0  0  0  0
  194.1620  175.6380  143.6860 F   0  0  0  0  0  0  0  0  0  0  0  0
  197.1170  175.9160  142.5270 C   0  0  0  0  0  2  0  0  0  0  0  0
  195.6540  173.7690  145.4340 C   0  0  0  0  0  3  0  0  0  0  0  0
  194.8070  171.4190  145.1640 C   0  0  0  0  0  2  0  0  0  0  0  0
  196.9790  171.6530  145.7250 C   0  0  0  0  0  2  0  0  0  0  0  0
  195.8020  170.9500  146.0400 O   0  0  0  0  0  0  0  0  0  0  0  0
  196.8430  173.1170  146.1530 C   0  0  0  0  0  2  0  0  0  0  0  0
  194.4240  172.8540  145.5290 C   0  0  0  0  0  2  0  0  0  0  0  0
  186.8870  176.1240  142.1890 C   0  0  0  0  0  2  0  0  0  0  0  0
  186.8720  177.4590  141.4520 C   0  0  1  0  0  3  0  0  0  0  0  0
  186.7830  177.2240  139.9550 C   0  0  0  0  0  1  0  0  0  0  0  0
  185.7440  178.3730  141.9250 C   0  0  0  0  0  2  0  0  0  0  0  0
  185.5120  179.7900  144.1500 O   0  0  0  0  0  1  0  0  0  0  0  0
  184.4810  177.9650  145.3060 O   0  0  0  0  0  1  0  0  0  0  0  0
  184.9440  177.7320  142.9650 N   0  0  0  0  0  0  0  0  0  0  0  0
  184.7160  178.6380  144.1090 C   0  0  0  0  0  0  0  0  0  0  0  0
  183.7050  178.5380  143.0790 C   0  0  0  0  0  2  0  0  0  0  0  0
  1  6  1  0  0  0  0
  2 11  1  0  0  0  0
  2 12  1  0  0  0  0
  3 10  1  0  0  0  0
  4  8  2  0  0  0  0
  5  1  2  0  0  0  0
  7  9  2  0  0  0  0
  7  4  1  0  0  0  0
  8  1  1  0  0  0  0
  9  5  1  0  0  0  0
 10 11  2  0  0  0  0
 11  7  1  0  0  0  0
 12 15  2  0  0  0  0
 13  2  2  0  0  0  0
 14  3  2  0  0  0  0
 14 13  1  0  0  0  0
 15  4  1  0  0  0  0
 16  3  1  0  0  0  0
 17 16  2  0  0  0  0
 18 19  1  0  0  0  0
 19 20  1  6  0  0  0
 19 21  1  0  0  0  0
 19 17  1  0  0  0  0
 22 21  1  6  0  0  0
 22 26  1  0  0  0  0
 23 24  1  0  0  0  0
 24 29  1  1  0  0  0
 25 22  1  0  0  0  0
 25 28  1  0  0  0  0
 26 27  1  1  0  0  0
 26 24  1  0  0  0  0
 28 23  1  0  0  0  0
 29 34  1  0  0  0  0
 29 33  1  0  0  0  0
 30 34  1  0  0  0  0
 30 32  1  0  0  0  0
 31 32  1  0  0  0  0
 31 33  1  0  0  0  0
 35 13  1  0  0  0  0
 36 37  1  6  0  0  0
 36 38  1  0  0  0  0
 36 35  1  0  0  0  0
 38 41  1  0  0  0  0
 41 43  1  0  0  0  0
 41 42  1  0  0  0  0
 42 39  1  0  0  0  0
 42 40  1  0  0  0  0
 43 42  1  0  0  0  0
M  END
>  <MODEL>
3

>  <REMARK>
 VINA RESULT:      -8.1      3.343      5.394
  Name = 
  9 active torsions:
  status: ('A' for Active; 'I' for Inactive)
    1  A    between atoms: C_1  and  C_9
    2  A    between atoms: C_1  and  C_35
    3  A    between atoms: C_2  and  C_13
    4  A    between atoms: C_3  and  C_4
    5  A    between atoms: C_3  and  C_12
    6  A    between atoms: C_6  and  C_12
    7  A    between atoms: C_9  and  N_32
    8  A    between atoms: C_11  and  C_14
    9  A    between atoms: C_34  and  C_35
                            x       y       z     vdW  Elec       q    Type
                         _______ _______ _______ _____ _____    ______ ____

>  <TORSDO>
F 9

$$$$
=
 OpenBabel11052421043D

 43 48  0  0  1  0  0  0  0  0999 V2000
  184.9470  178.3800  146.1920 C   0  0  0  0  0  0  0  0  0  0  0  0
  188.2200  176.0580  143.1070 C   0  0  0  0  0  0  0  0  0  0  0  0
  190.6660  176.1230  144.4450 C   0  0  0  0  0  0  0  0  0  0  0  0
  185.9670  177.2060  144.3340 C   0  0  0  0  0  0  0  0  0  0  0  0
  186.1780  178.4150  146.8510 C   0  0  0  0  0  3  0  0  0  0  0  0
  183.8530  178.9310  146.7710 F   0  0  0  0  0  0  0  0  0  0  0  0
  187.2180  177.2380  144.9970 C   0  0  0  0  0  0  0  0  0  0  0  0
  184.8410  177.7760  144.9350 C   0  0  0  0  0  3  0  0  0  0  0  0
  187.3090  177.8470  146.2580 C   0  0  0  0  0  3  0  0  0  0  0  0
  189.5560  176.6730  145.0050 N   0  0  0  0  0  0  0  0  0  0  0  0
  188.3440  176.6610  144.3820 C   0  0  0  0  0  0  0  0  0  0  0  0
  186.9690  176.0330  142.4710 C   0  0  0  0  0  3  0  0  0  0  0  0
  189.3570  175.4920  142.5050 C   0  0  0  0  0  0  0  0  0  0  0  0
  190.5790  175.5240  143.1820 C   0  0  0  0  0  3  0  0  0  0  0  0
  185.8520  176.6040  143.0810 C   0  0  0  0  0  3  0  0  0  0  0  0
  191.9350  176.1760  145.1830 C   0  0  0  0  0  3  0  0  0  0  0  0
  193.0400  176.7210  144.6770 C   0  0  0  0  0  3  0  0  0  0  0  0
  194.8740  178.0320  145.3440 F   0  0  0  0  0  0  0  0  0  0  0  0
  194.3220  176.7650  145.4440 C   0  0  1  0  0  0  0  0  0  0  0  0
  194.0560  176.4400  146.9060 C   0  0  0  0  0  1  0  0  0  0  0  0
  195.2690  175.7280  144.8450 C   0  0  0  0  0  2  0  0  0  0  0  0
  195.2850  174.4150  145.6200 C   0  0  2  0  0  3  0  0  0  0  0  0
  196.2560  171.6220  145.0010 C   0  0  0  0  0  2  0  0  0  0  0  0
  195.2810  172.3830  144.0820 C   0  0  2  0  0  3  0  0  0  0  0  0
  196.7320  173.9560  145.8510 C   0  0  0  0  0  2  0  0  0  0  0  0
  194.4250  173.3760  144.8850 C   0  0  1  0  0  3  0  0  0  0  0  0
  193.6300  172.7030  145.7980 F   0  0  0  0  0  0  0  0  0  0  0  0
  196.7860  172.4660  146.1670 C   0  0  0  0  0  2  0  0  0  0  0  0
  194.4220  171.4190  143.2490 C   0  0  0  0  0  3  0  0  0  0  0  0
  194.0120  172.8270  141.2080 C   0  0  0  0  0  2  0  0  0  0  0  0
  195.7360  171.3760  141.1070 C   0  0  0  0  0  2  0  0  0  0  0  0
  194.6140  171.8460  140.4010 O   0  0  0  0  0  0  0  0  0  0  0  0
  195.2840  170.5550  142.3170 C   0  0  0  0  0  2  0  0  0  0  0  0
  193.3630  172.1710  142.4290 C   0  0  0  0  0  2  0  0  0  0  0  0
  189.2970  174.8610  141.1460 C   0  0  0  0  0  2  0  0  0  0  0  0
  189.8100  173.4250  141.1740 C   0  0  1  0  0  3  0  0  0  0  0  0
  188.9170  172.5710  142.0550 C   0  0  0  0  0  1  0  0  0  0  0  0
  189.9290  172.8220  139.7760 C   0  0  0  0  0  2  0  0  0  0  0  0
  189.6140  170.4290  138.6860 O   0  0  0  0  0  1  0  0  0  0  0  0
  191.8780  169.8180  139.1680 O   0  0  0  0  0  1  0  0  0  0  0  0
  191.1660  172.0600  139.6300 N   0  0  0  0  0  0  0  0  0  0  0  0
  190.9480  170.8120  138.8710 C   0  0  0  0  0  0  0  0  0  0  0  0
  191.4280  171.9860  138.1730 C   0  0  0  0  0  2  0  0  0  0  0  0
  1  6  1  0  0  0  0
  1  5  1  0  0  0  0
  2 11  1  0  0  0  0
  3 10  1  0  0  0  0
  3 16  1  0  0  0  0
  4  8  1  0  0  0  0
  4  7  2  0  0  0  0
  7  9  1  0  0  0  0
  8  1  2  0  0  0  0
  9  5  2  0  0  0  0
 11  7  1  0  0  0  0
 11 10  2  0  0  0  0
 12 15  2  0  0  0  0
 12  2  1  0  0  0  0
 13  2  2  0  0  0  0
 13 14  1  0  0  0  0
 14  3  2  0  0  0  0
 15  4  1  0  0  0  0
 17 16  2  0  0  0  0
 17 19  1  0  0  0  0
 18 19  1  0  0  0  0
 19 20  1  1  0  0  0
 21 19  1  0  0  0  0
 22 21  1  6  0  0  0
 22 25  1  0  0  0  0
 23 28  1  0  0  0  0
 24 29  1  1  0  0  0
 24 26  1  0  0  0  0
 24 23  1  0  0  0  0
 25 28  1  0  0  0  0
 26 22  1  0  0  0  0
 26 27  1  1  0  0  0
 30 34  1  0  0  0  0
 31 33  1  0  0  0  0
 32 31  1  0  0  0  0
 32 30  1  0  0  0  0
 33 29  1  0  0  0  0
 34 29  1  0  0  0  0
 35 36  1  0  0  0  0
 35 13  1  0  0  0  0
 36 37  1  1  0  0  0
 38 36  1  0  0  0  0
 39 42  1  0  0  0  0
 41 38  1  0  0  0  0
 42 40  1  0  0  0  0
 42 41  1  0  0  0  0
 43 42  1  0  0  0  0
 43 41  1  0  0  0  0
M  END
>  <MODEL>
4

>  <REMARK>
 VINA RESULT:      -7.7      1.203      1.436
  Name = 
  9 active torsions:
  status: ('A' for Active; 'I' for Inactive)
    1  A    between atoms: C_1  and  C_9
    2  A    between atoms: C_1  and  C_35
    3  A    between atoms: C_2  and  C_13
    4  A    between atoms: C_3  and  C_4
    5  A    between atoms: C_3  and  C_12
    6  A    between atoms: C_6  and  C_12
    7  A    between atoms: C_9  and  N_32
    8  A    between atoms: C_11  and  C_14
    9  A    between atoms: C_34  and  C_35
                            x       y       z     vdW  Elec       q    Type
                         _______ _______ _______ _____ _____    ______ ____

>  <TORSDO>
F 9

$$$$
=
 OpenBabel11052421043D

 43 48  0  0  1  0  0  0  0  0999 V2000
  196.0710  169.0360  147.4840 C   0  0  0  0  0  0  0  0  0  0  0  0
  195.8440  172.5860  143.8830 C   0  0  0  0  0  0  0  0  0  0  0  0
  193.1620  172.7000  143.1290 C   0  0  0  0  0  0  0  0  0  0  0  0
  196.6180  170.7740  145.8870 C   0  0  0  0  0  0  0  0  0  0  0  0
  194.7300  169.0950  147.0940 C   0  0  0  0  0  3  0  0  0  0  0  0
  196.4580  168.1660  148.4470 F   0  0  0  0  0  0  0  0  0  0  0  0
  195.2610  170.8380  145.4880 C   0  0  0  0  0  0  0  0  0  0  0  0
  197.0130  169.8740  146.8820 C   0  0  0  0  0  3  0  0  0  0  0  0
  194.3260  169.9910  146.1010 C   0  0  0  0  0  3  0  0  0  0  0  0
  193.5730  171.8330  144.0910 N   0  0  0  0  0  0  0  0  0  0  0  0
  194.8750  171.7480  144.4860 C   0  0  0  0  0  0  0  0  0  0  0  0
  197.1820  172.5090  144.2990 C   0  0  0  0  0  3  0  0  0  0  0  0
  195.4410  173.4830  142.8790 C   0  0  0  0  0  0  0  0  0  0  0  0
  194.0960  173.5400  142.5080 C   0  0  0  0  0  3  0  0  0  0  0  0
  197.5650  171.6080  145.2930 C   0  0  0  0  0  3  0  0  0  0  0  0
  191.7400  172.7310  142.7620 C   0  0  0  0  0  3  0  0  0  0  0  0
  191.0910  173.8630  142.4880 C   0  0  0  0  0  3  0  0  0  0  0  0
  189.4010  174.9200  141.2420 F   0  0  0  0  0  0  0  0  0  0  0  0
  189.6440  173.8730  142.1170 C   0  0  1  0  0  0  0  0  0  0  0  0
  189.2750  172.5570  141.4490 C   0  0  0  0  0  1  0  0  0  0  0  0
  188.8270  174.0540  143.3950 C   0  0  0  0  0  2  0  0  0  0  0  0
  189.4540  175.0470  144.3680 C   0  0  2  0  0  3  0  0  0  0  0  0
  188.3590  176.8170  146.5590 C   0  0  0  0  0  2  0  0  0  0  0  0
  187.8040  176.8370  145.1220 C   0  0  2  0  0  3  0  0  0  0  0  0
  189.2500  174.5690  145.8130 C   0  0  0  0  0  2  0  0  0  0  0  0
  188.8880  176.4500  144.1030 C   0  0  1  0  0  3  0  0  0  0  0  0
  189.9190  177.3750  144.1180 F   0  0  0  0  0  0  0  0  0  0  0  0
  189.4100  175.7250  146.7950 C   0  0  0  0  0  2  0  0  0  0  0  0
  187.1500  178.1870  144.7880 C   0  0  0  0  0  3  0  0  0  0  0  0
  185.1610  177.4120  143.4620 C   0  0  0  0  0  2  0  0  0  0  0  0
  184.8260  177.7930  145.6600 C   0  0  0  0  0  2  0  0  0  0  0  0
  184.2970  178.0350  144.3790 O   0  0  0  0  0  0  0  0  0  0  0  0
  186.1180  178.5930  145.8500 C   0  0  0  0  0  2  0  0  0  0  0  0
  186.4900  178.1680  143.4010 C   0  0  0  0  0  2  0  0  0  0  0  0
  196.4230  174.3810  142.1850 C   0  0  0  0  0  2  0  0  0  0  0  0
  196.3440  175.8090  142.7130 C   0  0  1  0  0  3  0  0  0  0  0  0
  196.4540  176.7950  141.5630 C   0  0  0  0  0  1  0  0  0  0  0  0
  195.0730  176.0610  143.5220 C   0  0  0  0  0  2  0  0  0  0  0  0
  193.1180  177.2250  144.8760 O   0  0  0  0  0  1  0  0  0  0  0  0
  194.5260  177.5660  146.7820 O   0  0  0  0  0  1  0  0  0  0  0  0
  195.3810  176.3090  144.9280 N   0  0  0  0  0  0  0  0  0  0  0  0
  194.1990  176.8050  145.6620 C   0  0  0  0  0  0  0  0  0  0  0  0
  194.5100  175.3920  145.7020 C   0  0  0  0  0  2  0  0  0  0  0  0
  1  6  1  0  0  0  0
  2 12  1  0  0  0  0
  2 11  1  0  0  0  0
  3 10  1  0  0  0  0
  4  8  1  0  0  0  0
  5  1  1  0  0  0  0
  7  4  2  0  0  0  0
  7  9  1  0  0  0  0
  8  1  2  0  0  0  0
  9  5  2  0  0  0  0
 10 11  2  0  0  0  0
 11  7  1  0  0  0  0
 12 15  2  0  0  0  0
 13  2  2  0  0  0  0
 14 13  1  0  0  0  0
 14  3  2  0  0  0  0
 15  4  1  0  0  0  0
 16  3  1  0  0  0  0
 17 16  2  0  0  0  0
 18 19  1  0  0  0  0
 19 20  1  6  0  0  0
 19 17  1  0  0  0  0
 19 21  1  0  0  0  0
 22 21  1  6  0  0  0
 22 25  1  0  0  0  0
 23 28  1  0  0  0  0
 24 29  1  6  0  0  0
 24 23  1  0  0  0  0
 25 28  1  0  0  0  0
 26 27  1  1  0  0  0
 26 22  1  0  0  0  0
 26 24  1  0  0  0  0
 29 33  1  0  0  0  0
 30 32  1  0  0  0  0
 31 33  1  0  0  0  0
 32 31  1  0  0  0  0
 34 30  1  0  0  0  0
 34 29  1  0  0  0  0
 35 36  1  0  0  0  0
 35 13  1  0  0  0  0
 36 37  1  6  0  0  0
 36 38  1  0  0  0  0
 38 41  1  0  0  0  0
 39 42  1  0  0  0  0
 41 42  1  0  0  0  0
 41 43  1  0  0  0  0
 42 43  1  0  0  0  0
 42 40  1  0  0  0  0
M  END
>  <MODEL>
5

>  <REMARK>
 VINA RESULT:      -7.6      3.410      9.435
  Name = 
  9 active torsions:
  status: ('A' for Active; 'I' for Inactive)
    1  A    between atoms: C_1  and  C_9
    2  A    between atoms: C_1  and  C_35
    3  A    between atoms: C_2  and  C_13
    4  A    between atoms: C_3  and  C_4
    5  A    between atoms: C_3  and  C_12
    6  A    between atoms: C_6  and  C_12
    7  A    between atoms: C_9  and  N_32
    8  A    between atoms: C_11  and  C_14
    9  A    between atoms: C_34  and  C_35
                            x       y       z     vdW  Elec       q    Type
                         _______ _______ _______ _____ _____    ______ ____

>  <TORSDO>
F 9

$$$$
=
 OpenBabel11052421043D

 43 48  0  0  1  0  0  0  0  0999 V2000
  196.9890  175.4820  136.0850 C   0  0  0  0  0  0  0  0  0  0  0  0
  195.6150  174.7620  140.9030 C   0  0  0  0  0  0  0  0  0  0  0  0
  192.9000  174.1290  140.8090 C   0  0  0  0  0  0  0  0  0  0  0  0
  196.9770  175.2750  138.4990 C   0  0  0  0  0  0  0  0  0  0  0  0
  195.6270  175.1710  136.0480 C   0  0  0  0  0  3  0  0  0  0  0  0
  197.6570  175.7330  134.9340 F   0  0  0  0  0  0  0  0  0  0  0  0
  195.5970  174.9590  138.4680 C   0  0  0  0  0  0  0  0  0  0  0  0
  197.6630  175.5330  137.3080 C   0  0  0  0  0  3  0  0  0  0  0  0
  194.9330  174.9110  137.2330 C   0  0  0  0  0  3  0  0  0  0  0  0
  193.5900  174.3880  139.6670 N   0  0  0  0  0  0  0  0  0  0  0  0
  194.9170  174.7010  139.6730 C   0  0  0  0  0  0  0  0  0  0  0  0
  196.9830  175.0710  140.9090 C   0  0  0  0  0  3  0  0  0  0  0  0
  194.9180  174.5080  142.0970 C   0  0  0  0  0  0  0  0  0  0  0  0
  193.5590  174.1870  142.0430 C   0  0  0  0  0  3  0  0  0  0  0  0
  197.6580  175.3260  139.7150 C   0  0  0  0  0  3  0  0  0  0  0  0
  191.4730  173.7970  140.7160 C   0  0  0  0  0  3  0  0  0  0  0  0
  190.5880  174.1540  141.6460 C   0  0  0  0  0  3  0  0  0  0  0  0
  188.6540  174.2500  140.3140 F   0  0  0  0  0  0  0  0  0  0  0  0
  189.1390  173.8060  141.5330 C   0  0  1  0  0  0  0  0  0  0  0  0
  188.9630  172.2990  141.6330 C   0  0  0  0  0  1  0  0  0  0  0  0
  188.3970  174.4930  142.6780 C   0  0  0  0  0  2  0  0  0  0  0  0
  189.3310  175.0390  143.7530 C   0  0  2  0  0  3  0  0  0  0  0  0
  188.9910  175.7360  146.6740 C   0  0  0  0  0  2  0  0  0  0  0  0
  188.0750  176.3060  145.5740 C   0  0  2  0  0  3  0  0  0  0  0  0
  189.4850  174.0150  144.8870 C   0  0  0  0  0  2  0  0  0  0  0  0
  188.8180  176.4060  144.2310 C   0  0  1  0  0  3  0  0  0  0  0  0
  189.8790  177.2900  144.3290 F   0  0  0  0  0  0  0  0  0  0  0  0
  189.9850  174.6860  146.1610 C   0  0  0  0  0  2  0  0  0  0  0  0
  187.4560  177.6480  145.9940 C   0  0  0  0  0  3  0  0  0  0  0  0
  185.3900  177.6610  144.5630 C   0  0  0  0  0  2  0  0  0  0  0  0
  185.1560  176.8930  146.6710 C   0  0  0  0  0  2  0  0  0  0  0  0
  184.5840  177.7490  145.7120 O   0  0  0  0  0  0  0  0  0  0  0  0
  186.4810  177.4770  147.1680 C   0  0  0  0  0  2  0  0  0  0  0  0
  186.7400  178.3330  144.8200 C   0  0  0  0  0  2  0  0  0  0  0  0
  195.5940  174.5810  143.4340 C   0  0  0  0  0  2  0  0  0  0  0  0
  194.8720  173.7270  144.4720 C   0  0  1  0  0  3  0  0  0  0  0  0
  195.8830  172.9960  145.3370 C   0  0  0  0  0  1  0  0  0  0  0  0
  193.9130  174.5450  145.3340 C   0  0  0  0  0  2  0  0  0  0  0  0
  193.2030  176.9460  144.4700 O   0  0  0  0  0  1  0  0  0  0  0  0
  194.9600  178.0030  145.7060 O   0  0  0  0  0  1  0  0  0  0  0  0
  194.6040  175.6500  145.9940 N   0  0  0  0  0  0  0  0  0  0  0  0
  194.0480  176.9560  145.5880 C   0  0  0  0  0  0  0  0  0  0  0  0
  193.5780  176.3410  146.8100 C   0  0  0  0  0  2  0  0  0  0  0  0
  1  8  1  0  0  0  0
  2 12  1  0  0  0  0
  2 13  1  0  0  0  0
  3 14  1  0  0  0  0
  4 15  1  0  0  0  0
  5  1  2  0  0  0  0
  5  9  1  0  0  0  0
  6  1  1  0  0  0  0
  7  4  1  0  0  0  0
  7 11  1  0  0  0  0
  8  4  2  0  0  0  0
  9  7  2  0  0  0  0
 10 11  1  0  0  0  0
 10  3  2  0  0  0  0
 11  2  2  0  0  0  0
 13 35  1  0  0  0  0
 14 13  2  0  0  0  0
 15 12  2  0  0  0  0
 16  3  1  0  0  0  0
 16 17  2  0  0  0  0
 18 19  1  0  0  0  0
 19 20  1  1  0  0  0
 19 17  1  0  0  0  0
 19 21  1  0  0  0  0
 22 21  1  6  0  0  0
 22 26  1  0  0  0  0
 22 25  1  0  0  0  0
 24 29  1  1  0  0  0
 24 23  1  0  0  0  0
 25 28  1  0  0  0  0
 26 27  1  1  0  0  0
 26 24  1  0  0  0  0
 28 23  1  0  0  0  0
 29 33  1  0  0  0  0
 30 34  1  0  0  0  0
 30 32  1  0  0  0  0
 31 33  1  0  0  0  0
 32 31  1  0  0  0  0
 34 29  1  0  0  0  0
 35 36  1  0  0  0  0
 36 38  1  0  0  0  0
 36 37  1  1  0  0  0
 38 41  1  0  0  0  0
 39 42  1  0  0  0  0
 41 43  1  0  0  0  0
 42 40  1  0  0  0  0
 42 41  1  0  0  0  0
 42 43  1  0  0  0  0
M  END
>  <MODEL>
6

>  <REMARK>
 VINA RESULT:      -7.5      4.197      9.773
  Name = 
  9 active torsions:
  status: ('A' for Active; 'I' for Inactive)
    1  A    between atoms: C_1  and  C_9
    2  A    between atoms: C_1  and  C_35
    3  A    between atoms: C_2  and  C_13
    4  A    between atoms: C_3  and  C_4
    5  A    between atoms: C_3  and  C_12
    6  A    between atoms: C_6  and  C_12
    7  A    between atoms: C_9  and  N_32
    8  A    between atoms: C_11  and  C_14
    9  A    between atoms: C_34  and  C_35
                            x       y       z     vdW  Elec       q    Type
                         _______ _______ _______ _____ _____    ______ ____

>  <TORSDO>
F 9

$$$$
=
 OpenBabel11052421043D

 43 48  0  0  1  0  0  0  0  0999 V2000
  196.3150  169.2870  146.3460 C   0  0  0  0  0  0  0  0  0  0  0  0
  195.2530  173.9990  144.8360 C   0  0  0  0  0  0  0  0  0  0  0  0
  192.7150  173.8510  143.6880 C   0  0  0  0  0  0  0  0  0  0  0  0
  196.4100  171.6630  145.8850 C   0  0  0  0  0  0  0  0  0  0  0  0
  195.0470  169.2200  145.7620 C   0  0  0  0  0  3  0  0  0  0  0  0
  196.8850  168.1680  146.8540 F   0  0  0  0  0  0  0  0  0  0  0  0
  195.1260  171.6030  145.2920 C   0  0  0  0  0  0  0  0  0  0  0  0
  196.9960  170.5060  146.4080 C   0  0  0  0  0  3  0  0  0  0  0  0
  194.4540  170.3720  145.2370 C   0  0  0  0  0  3  0  0  0  0  0  0
  193.3080  172.7410  144.2010 N   0  0  0  0  0  0  0  0  0  0  0  0
  194.5470  172.7740  144.7690 C   0  0  0  0  0  0  0  0  0  0  0  0
  196.5210  174.0370  145.4330 C   0  0  0  0  0  3  0  0  0  0  0  0
  194.6610  175.1580  144.3020 C   0  0  0  0  0  0  0  0  0  0  0  0
  193.3880  175.0780  143.7320 C   0  0  0  0  0  3  0  0  0  0  0  0
  197.0950  172.8760  145.9530 C   0  0  0  0  0  3  0  0  0  0  0  0
  191.3770  173.7310  143.0940 C   0  0  0  0  0  3  0  0  0  0  0  0
  190.5990  174.7850  142.8540 C   0  0  0  0  0  3  0  0  0  0  0  0
  189.1810  175.3730  141.0730 F   0  0  0  0  0  0  0  0  0  0  0  0
  189.2400  174.6430  142.2480 C   0  0  1  0  0  0  0  0  0  0  0  0
  188.9620  173.1770  141.9510 C   0  0  0  0  0  1  0  0  0  0  0  0
  188.2160  175.1740  143.2510 C   0  0  0  0  0  2  0  0  0  0  0  0
  188.8500  175.9740  144.3840 C   0  0  2  0  0  3  0  0  0  0  0  0
  187.7840  177.2440  146.9090 C   0  0  0  0  0  2  0  0  0  0  0  0
  187.1820  177.5300  145.5200 C   0  0  2  0  0  3  0  0  0  0  0  0
  188.7040  175.2150  145.7110 C   0  0  0  0  0  2  0  0  0  0  0  0
  188.2430  177.3840  144.4170 C   0  0  1  0  0  3  0  0  0  0  0  0
  189.2510  178.3180  144.5870 F   0  0  0  0  0  0  0  0  0  0  0  0
  188.8670  176.1580  146.8970 C   0  0  0  0  0  2  0  0  0  0  0  0
  186.4860  178.8990  145.4770 C   0  0  0  0  0  3  0  0  0  0  0  0
  184.4660  178.3370  144.0920 C   0  0  0  0  0  2  0  0  0  0  0  0
  184.2060  178.2750  146.3310 C   0  0  0  0  0  2  0  0  0  0  0  0
  183.6230  178.7450  145.1400 O   0  0  0  0  0  0  0  0  0  0  0  0
  185.4850  179.0600  146.6310 C   0  0  0  0  0  2  0  0  0  0  0  0
  185.7740  179.1300  144.1360 C   0  0  0  0  0  2  0  0  0  0  0  0
  195.3670  176.4820  144.3200 C   0  0  0  0  0  2  0  0  0  0  0  0
  196.1180  176.7320  143.0170 C   0  0  1  0  0  3  0  0  0  0  0  0
  197.5670  176.3050  143.1620 C   0  0  0  0  0  1  0  0  0  0  0  0
  195.4640  176.0340  141.8250 C   0  0  0  0  0  2  0  0  0  0  0  0
  195.3650  173.4440  141.2850 O   0  0  0  0  0  1  0  0  0  0  0  0
  197.4140  173.5360  140.0510 O   0  0  0  0  0  1  0  0  0  0  0  0
  196.4650  175.5830  140.8610 N   0  0  0  0  0  0  0  0  0  0  0  0
  196.2510  174.1720  140.4800 C   0  0  0  0  0  0  0  0  0  0  0  0
  195.7130  175.2170  139.6370 C   0  0  0  0  0  2  0  0  0  0  0  0
  1  8  1  0  0  0  0
  1  6  1  0  0  0  0
  2 12  1  0  0  0  0
  3 14  2  0  0  0  0
  3 10  1  0  0  0  0
  4 15  1  0  0  0  0
  4  8  2  0  0  0  0
  5  1  2  0  0  0  0
  7  4  1  0  0  0  0
  9  7  2  0  0  0  0
  9  5  1  0  0  0  0
 10 11  2  0  0  0  0
 11  2  1  0  0  0  0
 11  7  1  0  0  0  0
 12 15  2  0  0  0  0
 13 35  1  0  0  0  0
 13  2  2  0  0  0  0
 14 13  1  0  0  0  0
 16  3  1  0  0  0  0
 17 16  2  0  0  0  0
 18 19  1  0  0  0  0
 19 20  1  6  0  0  0
 19 17  1  0  0  0  0
 19 21  1  0  0  0  0
 22 21  1  6  0  0  0
 22 26  1  0  0  0  0
 22 25  1  0  0  0  0
 24 29  1  1  0  0  0
 24 23  1  0  0  0  0
 25 28  1  0  0  0  0
 26 27  1  1  0  0  0
 26 24  1  0  0  0  0
 28 23  1  0  0  0  0
 29 33  1  0  0  0  0
 30 34  1  0  0  0  0
 30 32  1  0  0  0  0
 31 33  1  0  0  0  0
 32 31  1  0  0  0  0
 34 29  1  0  0  0  0
 36 37  1  1  0  0  0
 36 35  1  0  0  0  0
 38 36  1  0  0  0  0
 40 42  1  0  0  0  0
 41 38  1  0  0  0  0
 42 41  1  0  0  0  0
 42 39  1  0  0  0  0
 43 42  1  0  0  0  0
 43 41  1  0  0  0  0
M  END
>  <MODEL>
7

>  <REMARK>
 VINA RESULT:      -7.5      3.250      9.346
  Name = 
  9 active torsions:
  status: ('A' for Active; 'I' for Inactive)
    1  A    between atoms: C_1  and  C_9
    2  A    between atoms: C_1  and  C_35
    3  A    between atoms: C_2  and  C_13
    4  A    between atoms: C_3  and  C_4
    5  A    between atoms: C_3  and  C_12
    6  A    between atoms: C_6  and  C_12
    7  A    between atoms: C_9  and  N_32
    8  A    between atoms: C_11  and  C_14
    9  A    between atoms: C_34  and  C_35
                            x       y       z     vdW  Elec       q    Type
                         _______ _______ _______ _____ _____    ______ ____

>  <TORSDO>
F 9

$$$$
=
 OpenBabel11052421043D

 43 48  0  0  1  0  0  0  0  0999 V2000
  189.9690  171.5130  138.7280 C   0  0  0  0  0  0  0  0  0  0  0  0
  193.0440  171.6710  142.7460 C   0  0  0  0  0  0  0  0  0  0  0  0
  191.7100  173.2320  144.6330 C   0  0  0  0  0  0  0  0  0  0  0  0
  191.8200  171.2020  140.2590 C   0  0  0  0  0  0  0  0  0  0  0  0
  189.3120  172.3010  139.6770 C   0  0  0  0  0  3  0  0  0  0  0  0
  189.3920  171.2810  137.5250 F   0  0  0  0  0  0  0  0  0  0  0  0
  191.1600  171.9990  141.2250 C   0  0  0  0  0  0  0  0  0  0  0  0
  191.2210  170.9640  139.0190 C   0  0  0  0  0  3  0  0  0  0  0  0
  189.9030  172.5430  140.9200 C   0  0  0  0  0  3  0  0  0  0  0  0
  191.1520  172.9880  143.4180 N   0  0  0  0  0  0  0  0  0  0  0  0
  191.7730  172.2310  142.4710 C   0  0  0  0  0  0  0  0  0  0  0  0
  193.6770  170.8800  141.7760 C   0  0  0  0  0  3  0  0  0  0  0  0
  193.6440  171.9180  143.9920 C   0  0  0  0  0  0  0  0  0  0  0  0
  192.9700  172.6980  144.9360 C   0  0  0  0  0  3  0  0  0  0  0  0
  193.0690  170.6480  140.5420 C   0  0  0  0  0  3  0  0  0  0  0  0
  190.9750  174.0570  145.6000 C   0  0  0  0  0  3  0  0  0  0  0  0
  191.3500  175.2940  145.9230 C   0  0  0  0  0  3  0  0  0  0  0  0
  189.6220  175.3320  147.5170 F   0  0  0  0  0  0  0  0  0  0  0  0
  190.5870  176.1190  146.9100 C   0  0  1  0  0  0  0  0  0  0  0  0
  191.5370  176.6650  147.9650 C   0  0  0  0  0  1  0  0  0  0  0  0
  189.9290  177.2720  146.1550 C   0  0  0  0  0  2  0  0  0  0  0  0
  189.5480  176.9090  144.7240 C   0  0  2  0  0  3  0  0  0  0  0  0
  187.5790  178.0310  142.7250 C   0  0  0  0  0  2  0  0  0  0  0  0
  187.1670  177.6110  144.1480 C   0  0  2  0  0  3  0  0  0  0  0  0
  189.8800  178.0720  143.7780 C   0  0  0  0  0  2  0  0  0  0  0  0
  188.0720  176.4870  144.6790 C   0  0  1  0  0  3  0  0  0  0  0  0
  187.9400  175.3490  143.8990 F   0  0  0  0  0  0  0  0  0  0  0  0
  189.0920  177.9570  142.4780 C   0  0  0  0  0  2  0  0  0  0  0  0
  185.6780  177.2360  144.2170 C   0  0  0  0  0  3  0  0  0  0  0  0
  185.0490  178.2780  146.4150 C   0  0  0  0  0  2  0  0  0  0  0  0
  184.6550  179.5050  144.5640 C   0  0  0  0  0  2  0  0  0  0  0  0
  184.0810  179.0690  145.7720 O   0  0  0  0  0  0  0  0  0  0  0  0
  184.7920  178.3260  143.5970 C   0  0  0  0  0  2  0  0  0  0  0  0
  185.2300  176.9590  145.6600 C   0  0  0  0  0  2  0  0  0  0  0  0
  194.9990  171.3740  144.3370 C   0  0  0  0  0  2  0  0  0  0  0  0
  196.0240  172.4910  144.4990 C   0  0  1  0  0  3  0  0  0  0  0  0
  197.3350  171.9220  145.0120 C   0  0  0  0  0  1  0  0  0  0  0  0
  196.2420  173.2740  143.2060 C   0  0  0  0  0  2  0  0  0  0  0  0
  197.9410  175.2880  143.4680 O   0  0  0  0  0  1  0  0  0  0  0  0
  196.1660  176.8470  143.8530 O   0  0  0  0  0  1  0  0  0  0  0  0
  195.6100  174.5890  143.2700 N   0  0  0  0  0  0  0  0  0  0  0  0
  196.6120  175.6730  143.2490 C   0  0  0  0  0  0  0  0  0  0  0  0
  195.9780  175.2780  142.0100 C   0  0  0  0  0  2  0  0  0  0  0  0
  1  8  2  0  0  0  0
  1  5  1  0  0  0  0
  2 13  1  0  0  0  0
  3 14  1  0  0  0  0
  3 16  1  0  0  0  0
  4 15  2  0  0  0  0
  4  7  1  0  0  0  0
  5  9  2  0  0  0  0
  6  1  1  0  0  0  0
  7 11  2  0  0  0  0
  8  4  1  0  0  0  0
  9  7  1  0  0  0  0
 10  3  2  0  0  0  0
 11  2  1  0  0  0  0
 11 10  1  0  0  0  0
 12  2  2  0  0  0  0
 13 35  1  0  0  0  0
 13 14  2  0  0  0  0
 15 12  1  0  0  0  0
 16 17  2  0  0  0  0
 17 19  1  0  0  0  0
 19 18  1  0  0  0  0
 19 20  1  1  0  0  0
 21 19  1  0  0  0  0
 22 21  1  1  0  0  0
 23 24  1  0  0  0  0
 24 29  1  6  0  0  0
 24 26  1  0  0  0  0
 25 22  1  0  0  0  0
 26 27  1  6  0  0  0
 26 22  1  0  0  0  0
 28 23  1  0  0  0  0
 28 25  1  0  0  0  0
 29 34  1  0  0  0  0
 31 32  1  0  0  0  0
 32 30  1  0  0  0  0
 33 29  1  0  0  0  0
 33 31  1  0  0  0  0
 34 30  1  0  0  0  0
 35 36  1  0  0  0  0
 36 37  1  6  0  0  0
 38 41  1  0  0  0  0
 38 36  1  0  0  0  0
 42 41  1  0  0  0  0
 42 39  1  0  0  0  0
 42 40  1  0  0  0  0
 43 42  1  0  0  0  0
 43 41  1  0  0  0  0
M  END
>  <MODEL>
8

>  <REMARK>
 VINA RESULT:      -7.5      3.491      8.660
  Name = 
  9 active torsions:
  status: ('A' for Active; 'I' for Inactive)
    1  A    between atoms: C_1  and  C_9
    2  A    between atoms: C_1  and  C_35
    3  A    between atoms: C_2  and  C_13
    4  A    between atoms: C_3  and  C_4
    5  A    between atoms: C_3  and  C_12
    6  A    between atoms: C_6  and  C_12
    7  A    between atoms: C_9  and  N_32
    8  A    between atoms: C_11  and  C_14
    9  A    between atoms: C_34  and  C_35
                            x       y       z     vdW  Elec       q    Type
                         _______ _______ _______ _____ _____    ______ ____

>  <TORSDO>
F 9

$$$$
=
 OpenBabel11052421043D

 43 48  0  0  1  0  0  0  0  0999 V2000
  189.4420  173.0490  138.9510 C   0  0  0  0  0  0  0  0  0  0  0  0
  188.8160  175.9820  143.0280 C   0  0  0  0  0  0  0  0  0  0  0  0
  191.2910  175.9950  144.3140 C   0  0  0  0  0  0  0  0  0  0  0  0
  188.5230  174.5070  140.6540 C   0  0  0  0  0  0  0  0  0  0  0  0
  190.6760  173.0550  139.6060 C   0  0  0  0  0  3  0  0  0  0  0  0
  189.2860  172.3410  137.8070 F   0  0  0  0  0  0  0  0  0  0  0  0
  189.7710  174.5170  141.3230 C   0  0  0  0  0  0  0  0  0  0  0  0
  188.3670  173.7740  139.4740 C   0  0  0  0  0  3  0  0  0  0  0  0
  190.8410  173.7850  140.7870 C   0  0  0  0  0  3  0  0  0  0  0  0
  191.1110  175.2890  143.1670 N   0  0  0  0  0  0  0  0  0  0  0  0
  189.9170  175.2580  142.5110 C   0  0  0  0  0  0  0  0  0  0  0  0
  187.5900  175.9620  142.3460 C   0  0  0  0  0  3  0  0  0  0  0  0
  188.9770  176.7120  144.2190 C   0  0  0  0  0  0  0  0  0  0  0  0
  190.2210  176.7180  144.8570 C   0  0  0  0  0  3  0  0  0  0  0  0
  187.4460  175.2290  141.1680 C   0  0  0  0  0  3  0  0  0  0  0  0
  192.6100  175.9780  144.9590 C   0  0  0  0  0  3  0  0  0  0  0  0
  193.7490  176.0050  144.2690 C   0  0  0  0  0  3  0  0  0  0  0  0
  195.7830  177.1340  144.6080 F   0  0  0  0  0  0  0  0  0  0  0  0
  195.0830  175.9870  144.9440 C   0  0  1  0  0  0  0  0  0  0  0  0
  194.8940  175.9300  146.4520 C   0  0  0  0  0  1  0  0  0  0  0  0
  195.8390  174.7490  144.4670 C   0  0  0  0  0  2  0  0  0  0  0  0
  195.6910  173.5590  145.4100 C   0  0  2  0  0  3  0  0  0  0  0  0
  195.9840  170.5700  145.0810 C   0  0  0  0  0  2  0  0  0  0  0  0
  195.0710  171.4170  144.1760 C   0  0  2  0  0  3  0  0  0  0  0  0
  197.0330  172.8250  145.5460 C   0  0  0  0  0  2  0  0  0  0  0  0
  194.5480  172.6570  144.9200 C   0  0  1  0  0  3  0  0  0  0  0  0
  193.7620  172.2810  145.9970 F   0  0  0  0  0  0  0  0  0  0  0  0
  196.8250  171.4030  146.0570 C   0  0  0  0  0  2  0  0  0  0  0  0
  193.9300  170.5780  143.5790 C   0  0  0  0  0  3  0  0  0  0  0  0
  193.8530  171.5090  141.2470 C   0  0  0  0  0  2  0  0  0  0  0  0
  195.0740  169.6370  141.5490 C   0  0  0  0  0  2  0  0  0  0  0  0
  194.1060  170.2310  140.7190 O   0  0  0  0  0  0  0  0  0  0  0  0
  194.4600  169.3010  142.9090 C   0  0  0  0  0  2  0  0  0  0  0  0
  193.0980  171.3860  142.5720 C   0  0  0  0  0  2  0  0  0  0  0  0
  187.8440  177.4800  144.8330 C   0  0  0  0  0  2  0  0  0  0  0  0
  186.9540  176.5790  145.6830 C   0  0  1  0  0  3  0  0  0  0  0  0
  187.4930  176.5040  147.1000 C   0  0  0  0  0  1  0  0  0  0  0  0
  185.4960  177.0330  145.6810 C   0  0  0  0  0  2  0  0  0  0  0  0
  184.4260  178.0380  143.4780 O   0  0  0  0  0  1  0  0  0  0  0  0
  184.9790  180.2750  144.1280 O   0  0  0  0  0  1  0  0  0  0  0  0
  185.3940  178.4900  145.6740 N   0  0  0  0  0  0  0  0  0  0  0  0
  184.6430  178.9740  144.4970 C   0  0  0  0  0  0  0  0  0  0  0  0
  183.9460  178.7960  145.7530 C   0  0  0  0  0  2  0  0  0  0  0  0
  1  8  2  0  0  0  0
  1  5  1  0  0  0  0
  2 13  1  0  0  0  0
  3 14  1  0  0  0  0
  3 16  1  0  0  0  0
  4 15  2  0  0  0  0
  4  7  1  0  0  0  0
  5  9  2  0  0  0  0
  6  1  1  0  0  0  0
  7 11  2  0  0  0  0
  8  4  1  0  0  0  0
  9  7  1  0  0  0  0
 10  3  2  0  0  0  0
 11  2  1  0  0  0  0
 11 10  1  0  0  0  0
 12  2  2  0  0  0  0
 13 35  1  0  0  0  0
 13 14  2  0  0  0  0
 15 12  1  0  0  0  0
 17 19  1  0  0  0  0
 17 16  2  0  0  0  0
 18 19  1  0  0  0  0
 19 20  1  1  0  0  0
 21 19  1  0  0  0  0
 22 21  1  6  0  0  0
 22 25  1  0  0  0  0
 23 28  1  0  0  0  0
 24 29  1  1  0  0  0
 24 26  1  0  0  0  0
 24 23  1  0  0  0  0
 25 28  1  0  0  0  0
 26 22  1  0  0  0  0
 26 27  1  1  0  0  0
 30 34  1  0  0  0  0
 31 33  1  0  0  0  0
 32 30  1  0  0  0  0
 32 31  1  0  0  0  0
 33 29  1  0  0  0  0
 34 29  1  0  0  0  0
 35 36  1  0  0  0  0
 36 37  1  1  0  0  0
 38 36  1  0  0  0  0
 39 42  1  0  0  0  0
 40 42  1  0  0  0  0
 41 38  1  0  0  0  0
 41 43  1  0  0  0  0
 42 41  1  0  0  0  0
 42 43  1  0  0  0  0
M  END
>  <MODEL>
9

>  <REMARK>
 VINA RESULT:      -7.4      2.770      5.465
  Name = 
  9 active torsions:
  status: ('A' for Active; 'I' for Inactive)
    1  A    between atoms: C_1  and  C_9
    2  A    between atoms: C_1  and  C_35
    3  A    between atoms: C_2  and  C_13
    4  A    between atoms: C_3  and  C_4
    5  A    between atoms: C_3  and  C_12
    6  A    between atoms: C_6  and  C_12
    7  A    between atoms: C_9  and  N_32
    8  A    between atoms: C_11  and  C_14
    9  A    between atoms: C_34  and  C_35
                            x       y       z     vdW  Elec       q    Type
                         _______ _______ _______ _____ _____    ______ ____

>  <TORSDO>
F 9

$$$$
