=
 OpenBabel11052418163D

 28 31  0  0  1  0  0  0  0  0999 V2000
  192.7400  175.5840  145.5170 C   0  0  2  0  0  0  0  0  0  0  0  0
  192.7620  173.4290  144.3590 N   0  0  0  0  0  0  0  0  0  0  0  0
  192.7670  174.0710  145.6820 C   0  0  0  0  0  2  0  0  0  0  0  0
  191.7660  172.3730  144.4090 C   0  0  0  0  0  1  0  0  0  0  0  0
  192.3040  174.4080  143.3750 C   0  0  2  0  0  3  0  0  0  0  0  0
  191.0250  176.6130  143.8670 C   0  0  2  0  0  3  0  0  0  0  0  0
  192.3860  177.0710  143.3570 C   0  0  0  0  0  2  0  0  0  0  0  0
  193.2640  174.4230  142.1960 C   0  0  0  0  0  1  0  0  0  0  0  0
  191.8260  176.1220  146.4270 O   0  0  0  0  0  1  0  0  0  0  0  0
  192.2690  175.7440  144.0860 C   0  0  1  0  0  0  0  0  0  0  0  0
  190.2250  176.1480  142.7390 N   0  0  0  0  0  2  0  0  0  0  0  0
  188.6300  175.6500  144.6130 C   0  0  0  0  0  2  0  0  0  0  0  0
  188.4180  177.0950  144.1630 C   0  0  1  0  0  3  0  0  0  0  0  0
  188.8330  176.0240  143.1610 C   0  0  1  0  0  0  0  0  0  0  0  0
  185.1810  178.9480  143.2120 C   0  0  0  0  0  2  0  0  0  0  0  0
  186.9270  177.4150  144.1440 C   0  0  2  0  0  3  0  0  0  0  0  0
  184.9560  178.0670  145.5440 C   0  0  1  0  0  3  0  0  0  0  0  0
  186.6690  178.6120  143.2300 C   0  0  0  0  0  2  0  0  0  0  0  0
  186.4440  177.7280  145.5590 C   0  0  0  0  0  2  0  0  0  0  0  0
  184.4220  178.4610  147.1930 Cl  0  0  0  0  0  0  0  0  0  0  0  0
  184.6940  179.2570  144.6260 C   0  0  0  0  0  2  0  0  0  0  0  0
  187.8340  175.9190  141.0140 O   0  0  0  0  0  0  0  0  0  0  0  0
  187.8260  175.5160  142.1660 C   0  0  0  0  0  3  0  0  0  0  0  0
  194.1230  176.1990  145.7780 C   0  0  0  0  0  2  0  0  0  0  0  0
  195.2620  175.1820  145.8570 C   0  0  0  0  0  2  0  0  0  0  0  0
  196.0920  175.1820  144.5810 C   0  0  0  0  0  2  0  0  0  0  0  0
  196.0170  176.5260  143.8710 C   0  0  0  0  0  2  0  0  0  0  0  0
  196.4850  176.3920  142.4340 C   0  0  0  0  0  1  0  0  0  0  0  0
  1  3  1  0  0  0  0
  1 24  1  0  0  0  0
  1  9  1  1  0  0  0
  2  4  1  0  0  0  0
  2  3  1  0  0  0  0
  5  8  1  6  0  0  0
  5 10  1  0  0  0  0
  5  2  1  0  0  0  0
  6 11  1  6  0  0  0
  6 10  1  0  0  0  0
  7  6  1  0  0  0  0
 10  7  1  6  0  0  0
 10  1  1  0  0  0  0
 11 14  1  0  0  0  0
 13 12  1  1  0  0  0
 14 23  1  6  0  0  0
 14 13  1  0  0  0  0
 14 12  1  0  0  0  0
 15 18  1  0  0  0  0
 15 21  1  0  0  0  0
 16 18  1  6  0  0  0
 16 13  1  0  0  0  0
 16 19  1  0  0  0  0
 17 19  1  0  0  0  0
 17 20  1  1  0  0  0
 21 17  1  0  0  0  0
 22 23  2  0  0  0  0
 24 25  1  0  0  0  0
 26 25  1  0  0  0  0
 27 26  1  0  0  0  0
 28 27  1  0  0  0  0
M  END
>  <MODEL>
1

>  <REMARK>
 VINA RESULT:      -6.2      0.000      0.000
  Name = 
  8 active torsions:
  status: ('A' for Active; 'I' for Inactive)
    1  A    between atoms: C_1  and  C_11
    2  A    between atoms: C_6  and  C_8
    3  A    between atoms: C_6  and  C_22
    4  A    between atoms: C_8  and  C_11
    5  A    between atoms: C_9  and  C_18
    6  A    between atoms: N_10  and  C_17
    7  A    between atoms: N_10  and  C_25
    8  A    between atoms: C_20  and  C_25
                            x       y       z     vdW  Elec       q    Type
                         _______ _______ _______ _____ _____    ______ ____

>  <TORSDO>
F 8

$$$$
=
 OpenBabel11052418163D

 28 31  0  0  1  0  0  0  0  0999 V2000
  190.3920  175.1240  145.8680 C   0  0  2  0  0  0  0  0  0  0  0  0
  191.3530  175.4630  143.6430 N   0  0  0  0  0  0  0  0  0  0  0  0
  191.0220  174.4500  144.6560 C   0  0  0  0  0  2  0  0  0  0  0  0
  190.8710  174.9560  142.3700 C   0  0  0  0  0  1  0  0  0  0  0  0
  190.5920  176.6760  143.9390 C   0  0  2  0  0  3  0  0  0  0  0  0
  188.5010  176.8530  145.4690 C   0  0  2  0  0  3  0  0  0  0  0  0
  189.5840  177.6190  146.2180 C   0  0  0  0  0  2  0  0  0  0  0  0
  191.5270  177.8740  143.9180 C   0  0  0  0  0  1  0  0  0  0  0  0
  189.2890  174.3710  146.2800 O   0  0  0  0  0  1  0  0  0  0  0  0
  189.9760  176.4690  145.3080 C   0  0  1  0  0  0  0  0  0  0  0  0
  188.0230  177.6680  144.3570 N   0  0  0  0  0  2  0  0  0  0  0  0
  185.5930  177.3100  144.8740 C   0  0  0  0  0  2  0  0  0  0  0  0
  185.7020  178.2380  143.6640 C   0  0  1  0  0  3  0  0  0  0  0  0
  186.7390  177.1450  143.9010 C   0  0  1  0  0  0  0  0  0  0  0  0
  184.0760  177.8670  140.1950 C   0  0  0  0  0  2  0  0  0  0  0  0
  184.6400  177.8680  142.6350 C   0  0  2  0  0  3  0  0  0  0  0  0
  182.2810  178.2700  141.8940 C   0  0  1  0  0  3  0  0  0  0  0  0
  185.1360  178.2220  141.2330 C   0  0  0  0  0  2  0  0  0  0  0  0
  183.3440  178.6220  142.9320 C   0  0  0  0  0  2  0  0  0  0  0  0
  180.7950  179.1810  142.2370 Cl  0  0  0  0  0  0  0  0  0  0  0  0
  182.7780  178.6140  140.4930 C   0  0  0  0  0  2  0  0  0  0  0  0
  187.4890  175.8430  142.0680 O   0  0  0  0  0  0  0  0  0  0  0  0
  186.7350  175.9230  143.0240 C   0  0  0  0  0  3  0  0  0  0  0  0
  191.3890  175.2260  147.0320 C   0  0  0  0  0  2  0  0  0  0  0  0
  192.8570  175.1450  146.6150 C   0  0  0  0  0  2  0  0  0  0  0  0
  193.5230  176.5130  146.6700 C   0  0  0  0  0  2  0  0  0  0  0  0
  194.8490  176.5150  145.9250 C   0  0  0  0  0  2  0  0  0  0  0  0
  194.6820  175.9010  144.5480 C   0  0  0  0  0  1  0  0  0  0  0  0
  1  9  1  1  0  0  0
  1 24  1  0  0  0  0
  2  5  1  0  0  0  0
  2  3  1  0  0  0  0
  3  1  1  0  0  0  0
  4  2  1  0  0  0  0
  5  8  1  1  0  0  0
  5 10  1  0  0  0  0
  6 11  1  6  0  0  0
  6  7  1  0  0  0  0
 10  6  1  0  0  0  0
 10  1  1  0  0  0  0
 10  7  1  1  0  0  0
 13 14  1  0  0  0  0
 13 12  1  1  0  0  0
 14 23  1  6  0  0  0
 14 11  1  0  0  0  0
 14 12  1  0  0  0  0
 15 21  1  0  0  0  0
 15 18  1  0  0  0  0
 16 18  1  6  0  0  0
 16 19  1  0  0  0  0
 16 13  1  0  0  0  0
 17 20  1  1  0  0  0
 17 19  1  0  0  0  0
 21 17  1  0  0  0  0
 22 23  2  0  0  0  0
 25 26  1  0  0  0  0
 25 24  1  0  0  0  0
 27 26  1  0  0  0  0
 28 27  1  0  0  0  0
M  END
>  <MODEL>
2

>  <REMARK>
 VINA RESULT:      -6.1      2.273      3.287
  Name = 
  8 active torsions:
  status: ('A' for Active; 'I' for Inactive)
    1  A    between atoms: C_1  and  C_11
    2  A    between atoms: C_6  and  C_8
    3  A    between atoms: C_6  and  C_22
    4  A    between atoms: C_8  and  C_11
    5  A    between atoms: C_9  and  C_18
    6  A    between atoms: N_10  and  C_17
    7  A    between atoms: N_10  and  C_25
    8  A    between atoms: C_20  and  C_25
                            x       y       z     vdW  Elec       q    Type
                         _______ _______ _______ _____ _____    ______ ____

>  <TORSDO>
F 8

$$$$
=
 OpenBabel11052418163D

 28 31  0  0  1  0  0  0  0  0999 V2000
  193.4410  172.9720  144.6830 C   0  0  2  0  0  0  0  0  0  0  0  0
  194.4460  174.5940  143.1500 N   0  0  0  0  0  0  0  0  0  0  0  0
  194.1530  173.1670  143.3500 C   0  0  0  0  0  2  0  0  0  0  0  0
  194.0390  174.9200  141.7950 C   0  0  0  0  0  1  0  0  0  0  0  0
  193.5960  175.3690  144.0530 C   0  0  2  0  0  3  0  0  0  0  0  0
  191.4510  174.5330  145.2550 C   0  0  2  0  0  3  0  0  0  0  0  0
  192.4560  174.7480  146.3800 C   0  0  0  0  0  2  0  0  0  0  0  0
  194.4490  176.3820  144.8010 C   0  0  0  0  0  1  0  0  0  0  0  0
  192.3790  172.0820  144.5010 O   0  0  0  0  0  1  0  0  0  0  0  0
  192.9540  174.3720  144.9950 C   0  0  1  0  0  0  0  0  0  0  0  0
  190.9550  175.8300  144.8060 N   0  0  0  0  0  2  0  0  0  0  0  0
  188.6950  175.6080  145.8770 C   0  0  0  0  0  2  0  0  0  0  0  0
  188.7640  176.9560  145.1590 C   0  0  1  0  0  3  0  0  0  0  0  0
  189.5110  175.7450  144.6100 C   0  0  1  0  0  0  0  0  0  0  0  0
  186.3390  178.5110  142.6070 C   0  0  0  0  0  2  0  0  0  0  0  0
  187.4380  177.2330  144.4580 C   0  0  2  0  0  3  0  0  0  0  0  0
  185.1130  178.1140  144.7530 C   0  0  1  0  0  3  0  0  0  0  0  0
  187.6610  178.2160  143.3080 C   0  0  0  0  0  2  0  0  0  0  0  0
  186.4360  177.8170  145.4530 C   0  0  0  0  0  2  0  0  0  0  0  0
  183.9730  178.8220  145.9180 Cl  0  0  0  0  0  0  0  0  0  0  0  0
  185.3330  179.0880  143.6000 C   0  0  0  0  0  2  0  0  0  0  0  0
  189.5980  175.1510  142.3180 O   0  0  0  0  0  0  0  0  0  0  0  0
  188.9960  175.0590  143.3740 C   0  0  0  0  0  3  0  0  0  0  0  0
  194.3920  172.4030  145.7460 C   0  0  0  0  0  2  0  0  0  0  0  0
  195.4730  171.4730  145.1950 C   0  0  0  0  0  2  0  0  0  0  0  0
  196.8540  171.8760  145.6930 C   0  0  0  0  0  2  0  0  0  0  0  0
  196.8990  173.3490  146.0710 C   0  0  0  0  0  2  0  0  0  0  0  0
  197.6070  174.1500  144.9950 C   0  0  0  0  0  1  0  0  0  0  0  0
  1  9  1  6  0  0  0
  1 10  1  0  0  0  0
  1 24  1  0  0  0  0
  2  3  1  0  0  0  0
  2  5  1  0  0  0  0
  3  1  1  0  0  0  0
  4  2  1  0  0  0  0
  5  8  1  1  0  0  0
  5 10  1  0  0  0  0
  6 11  1  6  0  0  0
  6  7  1  0  0  0  0
 10  6  1  0  0  0  0
 10  7  1  1  0  0  0
 13 12  1  1  0  0  0
 14 23  1  6  0  0  0
 14 11  1  0  0  0  0
 14 13  1  0  0  0  0
 14 12  1  0  0  0  0
 15 18  1  0  0  0  0
 15 21  1  0  0  0  0
 16 18  1  6  0  0  0
 16 13  1  0  0  0  0
 16 19  1  0  0  0  0
 17 19  1  0  0  0  0
 17 20  1  1  0  0  0
 21 17  1  0  0  0  0
 22 23  2  0  0  0  0
 25 26  1  0  0  0  0
 25 24  1  0  0  0  0
 26 27  1  0  0  0  0
 28 27  1  0  0  0  0
M  END
>  <MODEL>
3

>  <REMARK>
 VINA RESULT:      -6.0      1.907      2.647
  Name = 
  8 active torsions:
  status: ('A' for Active; 'I' for Inactive)
    1  A    between atoms: C_1  and  C_11
    2  A    between atoms: C_6  and  C_8
    3  A    between atoms: C_6  and  C_22
    4  A    between atoms: C_8  and  C_11
    5  A    between atoms: C_9  and  C_18
    6  A    between atoms: N_10  and  C_17
    7  A    between atoms: N_10  and  C_25
    8  A    between atoms: C_20  and  C_25
                            x       y       z     vdW  Elec       q    Type
                         _______ _______ _______ _____ _____    ______ ____

>  <TORSDO>
F 8

$$$$
=
 OpenBabel11052418163D

 28 31  0  0  1  0  0  0  0  0999 V2000
  193.7560  175.7410  143.2530 C   0  0  2  0  0  0  0  0  0  0  0  0
  194.3310  175.7620  145.6310 N   0  0  0  0  0  0  0  0  0  0  0  0
  194.5650  176.4320  144.3430 C   0  0  0  0  0  2  0  0  0  0  0  0
  194.0770  176.8070  146.6070 C   0  0  0  0  0  1  0  0  0  0  0  0
  193.1080  174.9680  145.5220 C   0  0  2  0  0  3  0  0  0  0  0  0
  191.2590  175.2180  143.7170 C   0  0  2  0  0  3  0  0  0  0  0  0
  191.8960  173.8660  143.4210 C   0  0  0  0  0  2  0  0  0  0  0  0
  193.3740  173.5630  146.0390 C   0  0  0  0  0  1  0  0  0  0  0  0
  193.1550  176.7150  142.4520 O   0  0  0  0  0  1  0  0  0  0  0  0
  192.7320  174.9630  144.0550 C   0  0  1  0  0  0  0  0  0  0  0  0
  190.3990  175.0930  144.8900 N   0  0  0  0  0  2  0  0  0  0  0  0
  189.2930  177.0830  143.8320 C   0  0  0  0  0  2  0  0  0  0  0  0
  188.2410  176.3020  144.6190 C   0  0  1  0  0  3  0  0  0  0  0  0
  189.6880  176.3520  145.0960 C   0  0  1  0  0  0  0  0  0  0  0  0
  185.8500  177.5760  147.3530 C   0  0  0  0  0  2  0  0  0  0  0  0
  187.3180  177.2730  145.3480 C   0  0  2  0  0  3  0  0  0  0  0  0
  185.2150  178.6210  145.1680 C   0  0  1  0  0  3  0  0  0  0  0  0
  186.7850  176.6180  146.6220 C   0  0  0  0  0  2  0  0  0  0  0  0
  186.1530  177.6630  144.4380 C   0  0  0  0  0  2  0  0  0  0  0  0
  183.8510  179.0370  144.1080 Cl  0  0  0  0  0  0  0  0  0  0  0  0
  184.6880  177.9730  146.4460 C   0  0  0  0  0  2  0  0  0  0  0  0
  190.5150  176.6630  147.2950 O   0  0  0  0  0  0  0  0  0  0  0  0
  190.0410  177.1830  146.2980 C   0  0  0  0  0  3  0  0  0  0  0  0
  194.6480  174.8530  142.3740 C   0  0  0  0  0  2  0  0  0  0  0  0
  196.1300  174.8770  142.7490 C   0  0  0  0  0  2  0  0  0  0  0  0
  196.5120  173.6480  143.5630 C   0  0  0  0  0  2  0  0  0  0  0  0
  197.5030  173.9990  144.6640 C   0  0  0  0  0  2  0  0  0  0  0  0
  197.0370  173.4380  145.9940 C   0  0  0  0  0  1  0  0  0  0  0  0
  1  9  1  6  0  0  0
  1 10  1  0  0  0  0
  1  3  1  0  0  0  0
  2  4  1  0  0  0  0
  3  2  1  0  0  0  0
  5  2  1  0  0  0  0
  5  8  1  6  0  0  0
  6 10  1  0  0  0  0
  6 11  1  1  0  0  0
  7  6  1  0  0  0  0
 10  7  1  6  0  0  0
 10  5  1  0  0  0  0
 11 14  1  0  0  0  0
 12 14  1  0  0  0  0
 13 12  1  6  0  0  0
 13 14  1  0  0  0  0
 13 16  1  0  0  0  0
 14 23  1  1  0  0  0
 16 19  1  6  0  0  0
 16 18  1  0  0  0  0
 17 20  1  6  0  0  0
 17 21  1  0  0  0  0
 18 15  1  0  0  0  0
 19 17  1  0  0  0  0
 21 15  1  0  0  0  0
 23 22  2  0  0  0  0
 24 25  1  0  0  0  0
 24  1  1  0  0  0  0
 25 26  1  0  0  0  0
 26 27  1  0  0  0  0
 27 28  1  0  0  0  0
M  END
>  <MODEL>
4

>  <REMARK>
 VINA RESULT:      -5.9      1.941      3.312
  Name = 
  8 active torsions:
  status: ('A' for Active; 'I' for Inactive)
    1  A    between atoms: C_1  and  C_11
    2  A    between atoms: C_6  and  C_8
    3  A    between atoms: C_6  and  C_22
    4  A    between atoms: C_8  and  C_11
    5  A    between atoms: C_9  and  C_18
    6  A    between atoms: N_10  and  C_17
    7  A    between atoms: N_10  and  C_25
    8  A    between atoms: C_20  and  C_25
                            x       y       z     vdW  Elec       q    Type
                         _______ _______ _______ _____ _____    ______ ____

>  <TORSDO>
F 8

$$$$
=
 OpenBabel11052418163D

 28 31  0  0  1  0  0  0  0  0999 V2000
  190.3510  173.5920  142.2940 C   0  0  2  0  0  0  0  0  0  0  0  0
  192.6560  174.3670  142.5680 N   0  0  0  0  0  0  0  0  0  0  0  0
  191.5140  174.3290  141.6420 C   0  0  0  0  0  2  0  0  0  0  0  0
  193.1510  175.7320  142.5700 C   0  0  0  0  0  1  0  0  0  0  0  0
  192.1650  174.0850  143.9160 C   0  0  2  0  0  3  0  0  0  0  0  0
  189.7010  174.2220  144.7230 C   0  0  2  0  0  3  0  0  0  0  0  0
  190.0350  172.7360  144.7770 C   0  0  0  0  0  2  0  0  0  0  0  0
  193.0360  173.0140  144.5540 C   0  0  0  0  0  1  0  0  0  0  0  0
  189.1740  174.3030  142.0490 O   0  0  0  0  0  1  0  0  0  0  0  0
  190.7310  173.6220  143.7600 C   0  0  1  0  0  0  0  0  0  0  0  0
  190.3350  174.8930  145.8530 N   0  0  0  0  0  2  0  0  0  0  0  0
  189.6490  177.0100  144.6900 C   0  0  0  0  0  2  0  0  0  0  0  0
  188.4100  176.3780  145.3240 C   0  0  1  0  0  3  0  0  0  0  0  0
  189.7770  176.2360  145.9840 C   0  0  1  0  0  0  0  0  0  0  0  0
  185.7680  177.9360  147.6490 C   0  0  0  0  0  2  0  0  0  0  0  0
  187.5370  177.4660  145.9410 C   0  0  2  0  0  3  0  0  0  0  0  0
  185.7730  179.1820  145.4770 C   0  0  1  0  0  3  0  0  0  0  0  0
  186.6550  176.8590  147.0320 C   0  0  0  0  0  2  0  0  0  0  0  0
  186.6630  178.1040  144.8620 C   0  0  0  0  0  2  0  0  0  0  0  0
  184.7420  179.8890  144.2140 Cl  0  0  0  0  0  0  0  0  0  0  0  0
  184.8980  178.5810  146.5720 C   0  0  0  0  0  2  0  0  0  0  0  0
  191.0980  176.8060  147.8670 O   0  0  0  0  0  0  0  0  0  0  0  0
  190.0780  177.0170  147.2330 C   0  0  0  0  0  3  0  0  0  0  0  0
  190.2030  172.1730  141.7280 C   0  0  0  0  0  2  0  0  0  0  0  0
  190.7670  171.9910  140.3190 C   0  0  0  0  0  2  0  0  0  0  0  0
  189.6610  172.0310  139.2720 C   0  0  0  0  0  2  0  0  0  0  0  0
  189.6670  173.3460  138.5080 C   0  0  0  0  0  2  0  0  0  0  0  0
  188.3260  174.0420  138.6420 C   0  0  0  0  0  1  0  0  0  0  0  0
  1  9  1  6  0  0  0
  1 10  1  0  0  0  0
  2  4  1  0  0  0  0
  2  5  1  0  0  0  0
  3  1  1  0  0  0  0
  3  2  1  0  0  0  0
  5  8  1  6  0  0  0
  6  7  1  0  0  0  0
  6 11  1  1  0  0  0
 10  5  1  0  0  0  0
 10  6  1  0  0  0  0
 10  7  1  1  0  0  0
 11 14  1  0  0  0  0
 12 14  1  0  0  0  0
 13 12  1  6  0  0  0
 13 16  1  0  0  0  0
 13 14  1  0  0  0  0
 14 23  1  1  0  0  0
 16 19  1  6  0  0  0
 16 18  1  0  0  0  0
 17 20  1  6  0  0  0
 17 21  1  0  0  0  0
 18 15  1  0  0  0  0
 19 17  1  0  0  0  0
 21 15  1  0  0  0  0
 23 22  2  0  0  0  0
 24  1  1  0  0  0  0
 25 24  1  0  0  0  0
 26 25  1  0  0  0  0
 27 28  1  0  0  0  0
 27 26  1  0  0  0  0
M  END
>  <MODEL>
5

>  <REMARK>
 VINA RESULT:      -5.8      2.484      4.886
  Name = 
  8 active torsions:
  status: ('A' for Active; 'I' for Inactive)
    1  A    between atoms: C_1  and  C_11
    2  A    between atoms: C_6  and  C_8
    3  A    between atoms: C_6  and  C_22
    4  A    between atoms: C_8  and  C_11
    5  A    between atoms: C_9  and  C_18
    6  A    between atoms: N_10  and  C_17
    7  A    between atoms: N_10  and  C_25
    8  A    between atoms: C_20  and  C_25
                            x       y       z     vdW  Elec       q    Type
                         _______ _______ _______ _____ _____    ______ ____

>  <TORSDO>
F 8

$$$$
=
 OpenBabel11052418163D

 28 31  0  0  1  0  0  0  0  0999 V2000
  190.7700  174.2440  144.8990 C   0  0  2  0  0  0  0  0  0  0  0  0
  190.3120  172.4940  143.2510 N   0  0  0  0  0  0  0  0  0  0  0  0
  190.2390  172.8330  144.6800 C   0  0  0  0  0  2  0  0  0  0  0  0
  189.0310  171.9120  142.8920 C   0  0  0  0  0  1  0  0  0  0  0  0
  190.4490  173.7350  142.4900 C   0  0  2  0  0  3  0  0  0  0  0  0
  189.9250  176.1330  143.3360 C   0  0  2  0  0  3  0  0  0  0  0  0
  191.4380  176.1180  143.1540 C   0  0  0  0  0  2  0  0  0  0  0  0
  191.5950  173.5940  141.5000 C   0  0  0  0  0  1  0  0  0  0  0  0
  189.9150  174.9160  145.7770 O   0  0  0  0  0  1  0  0  0  0  0  0
  190.7140  174.8300  143.5030 C   0  0  1  0  0  0  0  0  0  0  0  0
  189.2890  176.2240  142.0260 N   0  0  0  0  0  2  0  0  0  0  0  0
  187.0010  175.4340  142.6920 C   0  0  0  0  0  2  0  0  0  0  0  0
  187.4400  176.5300  143.6630 C   0  0  1  0  0  3  0  0  0  0  0  0
  187.8800  176.5640  142.2030 C   0  0  1  0  0  0  0  0  0  0  0  0
  185.4290  179.8050  143.8780 C   0  0  0  0  0  2  0  0  0  0  0  0
  186.2600  177.4460  143.9720 C   0  0  2  0  0  3  0  0  0  0  0  0
  184.7720  178.3230  145.7860 C   0  0  1  0  0  3  0  0  0  0  0  0
  186.5980  178.8780  143.5610 C   0  0  0  0  0  2  0  0  0  0  0  0
  185.9420  177.3950  145.4660 C   0  0  0  0  0  2  0  0  0  0  0  0
  184.4390  178.2760  147.5310 Cl  0  0  0  0  0  0  0  0  0  0  0  0
  185.1040  179.7530  145.3690 C   0  0  0  0  0  2  0  0  0  0  0  0
  186.8290  177.2230  140.1840 O   0  0  0  0  0  0  0  0  0  0  0  0
  187.2640  177.5690  141.2700 C   0  0  0  0  0  3  0  0  0  0  0  0
  192.1830  174.2220  145.4980 C   0  0  0  0  0  2  0  0  0  0  0  0
  192.3330  175.0200  146.7940 C   0  0  0  0  0  2  0  0  0  0  0  0
  192.9080  176.4040  146.5260 C   0  0  0  0  0  2  0  0  0  0  0  0
  194.4260  176.3650  146.4320 C   0  0  0  0  0  2  0  0  0  0  0  0
  194.8760  176.6640  145.0140 C   0  0  0  0  0  1  0  0  0  0  0  0
  1 24  1  0  0  0  0
  1  9  1  1  0  0  0
  2  3  1  0  0  0  0
  3  1  1  0  0  0  0
  4  2  1  0  0  0  0
  5  8  1  6  0  0  0
  5  2  1  0  0  0  0
  5 10  1  0  0  0  0
  6 11  1  6  0  0  0
  6 10  1  0  0  0  0
  7  6  1  0  0  0  0
 10  7  1  6  0  0  0
 10  1  1  0  0  0  0
 11 14  1  0  0  0  0
 13 12  1  6  0  0  0
 13 16  1  0  0  0  0
 14 23  1  6  0  0  0
 14 12  1  0  0  0  0
 14 13  1  0  0  0  0
 15 21  1  0  0  0  0
 16 18  1  1  0  0  0
 16 19  1  0  0  0  0
 17 20  1  1  0  0  0
 18 15  1  0  0  0  0
 19 17  1  0  0  0  0
 21 17  1  0  0  0  0
 22 23  2  0  0  0  0
 24 25  1  0  0  0  0
 26 25  1  0  0  0  0
 27 26  1  0  0  0  0
 28 27  1  0  0  0  0
M  END
>  <MODEL>
6

>  <REMARK>
 VINA RESULT:      -5.8      1.553      2.148
  Name = 
  8 active torsions:
  status: ('A' for Active; 'I' for Inactive)
    1  A    between atoms: C_1  and  C_11
    2  A    between atoms: C_6  and  C_8
    3  A    between atoms: C_6  and  C_22
    4  A    between atoms: C_8  and  C_11
    5  A    between atoms: C_9  and  C_18
    6  A    between atoms: N_10  and  C_17
    7  A    between atoms: N_10  and  C_25
    8  A    between atoms: C_20  and  C_25
                            x       y       z     vdW  Elec       q    Type
                         _______ _______ _______ _____ _____    ______ ____

>  <TORSDO>
F 8

$$$$
=
 OpenBabel11052418163D

 28 31  0  0  1  0  0  0  0  0999 V2000
  193.7360  175.7820  143.1350 C   0  0  2  0  0  0  0  0  0  0  0  0
  194.5820  175.6410  145.4260 N   0  0  0  0  0  0  0  0  0  0  0  0
  194.6680  176.3990  144.1690 C   0  0  0  0  0  2  0  0  0  0  0  0
  194.4450  176.6140  146.4950 C   0  0  0  0  0  1  0  0  0  0  0  0
  193.3520  174.8500  145.4040 C   0  0  2  0  0  3  0  0  0  0  0  0
  191.3080  175.2170  143.8450 C   0  0  2  0  0  3  0  0  0  0  0  0
  191.9020  173.8920  143.3850 C   0  0  0  0  0  2  0  0  0  0  0  0
  193.6710  173.4140  145.7880 C   0  0  0  0  0  1  0  0  0  0  0  0
  193.0510  176.8070  142.4770 O   0  0  0  0  0  1  0  0  0  0  0  0
  192.8090  174.9460  143.9930 C   0  0  1  0  0  0  0  0  0  0  0  0
  190.5880  175.0070  145.0980 N   0  0  0  0  0  2  0  0  0  0  0  0
  189.8790  177.3180  144.4210 C   0  0  0  0  0  2  0  0  0  0  0  0
  188.6320  176.5120  144.7860 C   0  0  1  0  0  3  0  0  0  0  0  0
  189.9550  176.2590  145.5000 C   0  0  1  0  0  0  0  0  0  0  0  0
  185.8680  177.3900  147.3170 C   0  0  0  0  0  2  0  0  0  0  0  0
  187.6640  177.3900  145.5730 C   0  0  2  0  0  3  0  0  0  0  0  0
  185.7450  178.9880  145.3940 C   0  0  1  0  0  3  0  0  0  0  0  0
  186.8490  176.5240  146.5330 C   0  0  0  0  0  2  0  0  0  0  0  0
  186.7280  178.1220  144.6120 C   0  0  0  0  0  2  0  0  0  0  0  0
  184.6450  179.8050  144.2620 Cl  0  0  0  0  0  0  0  0  0  0  0  0
  184.9360  178.1270  146.3600 C   0  0  0  0  0  2  0  0  0  0  0  0
  190.8250  176.0960  147.6980 O   0  0  0  0  0  0  0  0  0  0  0  0
  190.1280  176.7250  146.9190 C   0  0  0  0  0  3  0  0  0  0  0  0
  194.5180  174.9610  142.0990 C   0  0  0  0  0  2  0  0  0  0  0  0
  196.0040  175.3100  142.0060 C   0  0  0  0  0  2  0  0  0  0  0  0
  196.2790  176.2480  140.8390 C   0  0  0  0  0  2  0  0  0  0  0  0
  197.3970  175.7170  139.9530 C   0  0  0  0  0  2  0  0  0  0  0  0
  197.9300  174.4070  140.5020 C   0  0  0  0  0  1  0  0  0  0  0  0
  1  9  1  6  0  0  0
  1 10  1  0  0  0  0
  1  3  1  0  0  0  0
  2  4  1  0  0  0  0
  3  2  1  0  0  0  0
  5  2  1  0  0  0  0
  5  8  1  6  0  0  0
  6 10  1  0  0  0  0
  6 11  1  1  0  0  0
  7  6  1  0  0  0  0
 10  7  1  6  0  0  0
 10  5  1  0  0  0  0
 11 14  1  0  0  0  0
 12 14  1  0  0  0  0
 13 12  1  6  0  0  0
 13 14  1  0  0  0  0
 13 16  1  0  0  0  0
 14 23  1  1  0  0  0
 16 19  1  6  0  0  0
 16 18  1  0  0  0  0
 17 20  1  6  0  0  0
 17 21  1  0  0  0  0
 18 15  1  0  0  0  0
 19 17  1  0  0  0  0
 21 15  1  0  0  0  0
 23 22  2  0  0  0  0
 24  1  1  0  0  0  0
 25 24  1  0  0  0  0
 26 25  1  0  0  0  0
 27 28  1  0  0  0  0
 27 26  1  0  0  0  0
M  END
>  <MODEL>
7

>  <REMARK>
 VINA RESULT:      -5.7      1.961      3.473
  Name = 
  8 active torsions:
  status: ('A' for Active; 'I' for Inactive)
    1  A    between atoms: C_1  and  C_11
    2  A    between atoms: C_6  and  C_8
    3  A    between atoms: C_6  and  C_22
    4  A    between atoms: C_8  and  C_11
    5  A    between atoms: C_9  and  C_18
    6  A    between atoms: N_10  and  C_17
    7  A    between atoms: N_10  and  C_25
    8  A    between atoms: C_20  and  C_25
                            x       y       z     vdW  Elec       q    Type
                         _______ _______ _______ _____ _____    ______ ____

>  <TORSDO>
F 8

$$$$
=
 OpenBabel11052418163D

 28 31  0  0  1  0  0  0  0  0999 V2000
  192.3000  173.1590  144.1140 C   0  0  2  0  0  0  0  0  0  0  0  0
  190.9380  172.0360  142.4200 N   0  0  0  0  0  0  0  0  0  0  0  0
  191.4390  171.9420  143.8000 C   0  0  0  0  0  2  0  0  0  0  0  0
  189.5190  171.7290  142.4680 C   0  0  0  0  0  1  0  0  0  0  0  0
  191.0630  173.4240  141.9780 C   0  0  2  0  0  3  0  0  0  0  0  0
  191.3900  175.5060  143.4950 C   0  0  2  0  0  3  0  0  0  0  0  0
  192.7050  175.3810  142.7350 C   0  0  0  0  0  2  0  0  0  0  0  0
  191.7360  173.4580  140.6150 C   0  0  0  0  0  1  0  0  0  0  0  0
  191.9680  173.6290  145.3870 O   0  0  0  0  0  1  0  0  0  0  0  0
  191.8910  174.1340  143.0300 C   0  0  1  0  0  0  0  0  0  0  0  0
  190.3730  176.0490  142.5990 N   0  0  0  0  0  2  0  0  0  0  0  0
  188.6950  177.9070  142.4090 C   0  0  0  0  0  2  0  0  0  0  0  0
  188.2290  176.9370  143.4950 C   0  0  1  0  0  3  0  0  0  0  0  0
  189.7150  177.1760  143.2540 C   0  0  1  0  0  0  0  0  0  0  0  0
  187.2780  177.6890  147.1480 C   0  0  0  0  0  2  0  0  0  0  0  0
  187.6610  177.7200  144.6750 C   0  0  2  0  0  3  0  0  0  0  0  0
  185.5960  178.7610  145.6350 C   0  0  1  0  0  3  0  0  0  0  0  0
  187.8540  176.9210  145.9630 C   0  0  0  0  0  2  0  0  0  0  0  0
  186.1750  177.9930  144.4500 C   0  0  0  0  0  2  0  0  0  0  0  0
  183.8610  179.0390  145.3710 Cl  0  0  0  0  0  0  0  0  0  0  0  0
  185.7940  177.9690  146.9250 C   0  0  0  0  0  2  0  0  0  0  0  0
  191.0800  179.0020  143.9010 O   0  0  0  0  0  0  0  0  0  0  0  0
  190.5030  177.9850  144.2480 C   0  0  0  0  0  3  0  0  0  0  0  0
  193.7950  172.8060  144.0880 C   0  0  0  0  0  2  0  0  0  0  0  0
  194.5590  173.1950  145.3540 C   0  0  0  0  0  2  0  0  0  0  0  0
  195.3340  174.4910  145.1540 C   0  0  0  0  0  2  0  0  0  0  0  0
  194.9210  175.5460  146.1680 C   0  0  0  0  0  2  0  0  0  0  0  0
  194.6990  176.8810  145.4820 C   0  0  0  0  0  1  0  0  0  0  0  0
  1  9  1  1  0  0  0
  2  4  1  0  0  0  0
  2  3  1  0  0  0  0
  3  1  1  0  0  0  0
  5  8  1  6  0  0  0
  5  2  1  0  0  0  0
  5 10  1  0  0  0  0
  6 11  1  6  0  0  0
  7  6  1  0  0  0  0
 10  7  1  6  0  0  0
 10  6  1  0  0  0  0
 10  1  1  0  0  0  0
 11 14  1  0  0  0  0
 12 14  1  0  0  0  0
 13 12  1  6  0  0  0
 13 16  1  0  0  0  0
 14 13  1  0  0  0  0
 14 23  1  1  0  0  0
 16 19  1  6  0  0  0
 16 18  1  0  0  0  0
 17 20  1  6  0  0  0
 17 21  1  0  0  0  0
 18 15  1  0  0  0  0
 19 17  1  0  0  0  0
 21 15  1  0  0  0  0
 22 23  2  0  0  0  0
 24  1  1  0  0  0  0
 24 25  1  0  0  0  0
 26 25  1  0  0  0  0
 26 27  1  0  0  0  0
 28 27  1  0  0  0  0
M  END
>  <MODEL>
8

>  <REMARK>
 VINA RESULT:      -5.7      1.937      2.740
  Name = 
  8 active torsions:
  status: ('A' for Active; 'I' for Inactive)
    1  A    between atoms: C_1  and  C_11
    2  A    between atoms: C_6  and  C_8
    3  A    between atoms: C_6  and  C_22
    4  A    between atoms: C_8  and  C_11
    5  A    between atoms: C_9  and  C_18
    6  A    between atoms: N_10  and  C_17
    7  A    between atoms: N_10  and  C_25
    8  A    between atoms: C_20  and  C_25
                            x       y       z     vdW  Elec       q    Type
                         _______ _______ _______ _____ _____    ______ ____

>  <TORSDO>
F 8

$$$$
=
 OpenBabel11052418163D

 28 31  0  0  1  0  0  0  0  0999 V2000
  188.1870  176.3840  144.8890 C   0  0  2  0  0  0  0  0  0  0  0  0
  189.5110  178.1710  143.8690 N   0  0  0  0  0  0  0  0  0  0  0  0
  189.1440  177.5410  145.1460 C   0  0  0  0  0  2  0  0  0  0  0  0
  190.9540  178.3400  143.8840 C   0  0  0  0  0  1  0  0  0  0  0  0
  189.1990  177.2380  142.7880 C   0  0  2  0  0  3  0  0  0  0  0  0
  188.7820  174.6850  143.0230 C   0  0  2  0  0  3  0  0  0  0  0  0
  187.4270  175.2550  142.6200 C   0  0  0  0  0  2  0  0  0  0  0  0
  188.4100  177.9630  141.7100 C   0  0  0  0  0  1  0  0  0  0  0  0
  188.5760  175.2950  145.6730 O   0  0  0  0  0  1  0  0  0  0  0  0
  188.3940  176.1160  143.4130 C   0  0  1  0  0  0  0  0  0  0  0  0
  189.6520  174.6540  141.8520 N   0  0  0  0  0  2  0  0  0  0  0  0
  192.0260  174.1810  141.1870 C   0  0  0  0  0  2  0  0  0  0  0  0
  192.0360  175.1010  142.4070 C   0  0  1  0  0  3  0  0  0  0  0  0
  190.9340  174.0640  142.2260 C   0  0  1  0  0  0  0  0  0  0  0  0
  193.8580  174.6420  145.7660 C   0  0  0  0  0  2  0  0  0  0  0  0
  193.1390  174.6690  143.3690 C   0  0  2  0  0  3  0  0  0  0  0  0
  195.5600  174.9260  143.9520 C   0  0  1  0  0  3  0  0  0  0  0  0
  192.7570  175.0580  144.7960 C   0  0  0  0  0  2  0  0  0  0  0  0
  194.4560  175.3400  142.9820 C   0  0  0  0  0  2  0  0  0  0  0  0
  197.0750  175.7410  143.5060 Cl  0  0  0  0  0  0  0  0  0  0  0  0
  195.1780  175.3050  145.3800 C   0  0  0  0  0  2  0  0  0  0  0  0
  190.6880  171.7390  142.6150 O   0  0  0  0  0  0  0  0  0  0  0  0
  190.9280  172.8350  143.0930 C   0  0  0  0  0  3  0  0  0  0  0  0
  186.7430  176.7650  145.2460 C   0  0  0  0  0  2  0  0  0  0  0  0
  186.6170  177.9890  146.1530 C   0  0  0  0  0  2  0  0  0  0  0  0
  185.6200  178.9930  145.5910 C   0  0  0  0  0  2  0  0  0  0  0  0
  185.7960  179.1680  144.0900 C   0  0  0  0  0  2  0  0  0  0  0  0
  184.5400  178.7380  143.3560 C   0  0  0  0  0  1  0  0  0  0  0  0
  1  3  1  0  0  0  0
  1 24  1  0  0  0  0
  1  9  1  1  0  0  0
  2  4  1  0  0  0  0
  2  3  1  0  0  0  0
  5  8  1  6  0  0  0
  5 10  1  0  0  0  0
  5  2  1  0  0  0  0
  6 11  1  6  0  0  0
  6 10  1  0  0  0  0
  7  6  1  0  0  0  0
 10  7  1  6  0  0  0
 10  1  1  0  0  0  0
 11 14  1  0  0  0  0
 12 14  1  0  0  0  0
 13 12  1  6  0  0  0
 13 16  1  0  0  0  0
 14 13  1  0  0  0  0
 14 23  1  1  0  0  0
 16 19  1  6  0  0  0
 16 18  1  0  0  0  0
 17 20  1  6  0  0  0
 17 21  1  0  0  0  0
 18 15  1  0  0  0  0
 19 17  1  0  0  0  0
 21 15  1  0  0  0  0
 22 23  2  0  0  0  0
 24 25  1  0  0  0  0
 26 25  1  0  0  0  0
 27 26  1  0  0  0  0
 28 27  1  0  0  0  0
M  END
>  <MODEL>
9

>  <REMARK>
 VINA RESULT:      -5.7      3.121      7.493
  Name = 
  8 active torsions:
  status: ('A' for Active; 'I' for Inactive)
    1  A    between atoms: C_1  and  C_11
    2  A    between atoms: C_6  and  C_8
    3  A    between atoms: C_6  and  C_22
    4  A    between atoms: C_8  and  C_11
    5  A    between atoms: C_9  and  C_18
    6  A    between atoms: N_10  and  C_17
    7  A    between atoms: N_10  and  C_25
    8  A    between atoms: C_20  and  C_25
                            x       y       z     vdW  Elec       q    Type
                         _______ _______ _______ _____ _____    ______ ____

>  <TORSDO>
F 8

$$$$
