=
 OpenBabel11052418313D

 27 30  0  0  1  0  0  0  0  0999 V2000
  190.0190  176.6260  145.2300 C   0  0  2  0  0  3  0  0  0  0  0  0
  188.6820  177.0880  145.6710 C   0  0  0  0  0  0  0  0  0  0  0  0
  188.5990  176.8620  143.3460 C   0  0  2  0  0  3  0  0  0  0  0  0
  184.5620  178.6360  145.9180 S   0  0  0  0  0  0  0  0  0  0  0  0
  183.3460  178.7550  143.3850 C   0  0  0  0  0  1  0  0  0  0  0  0
  188.2620  177.4420  146.9660 C   0  0  0  0  0  3  0  0  0  0  0  0
  185.6790  177.9360  143.7420 N   0  0  0  0  0  0  0  0  0  0  0  0
  186.5750  177.7330  144.7410 C   0  0  0  0  0  0  0  0  0  0  0  0
  184.5190  178.4300  144.2360 C   0  0  0  0  0  0  0  0  0  0  0  0
  186.1350  178.0650  146.0160 C   0  0  0  0  0  0  0  0  0  0  0  0
  189.8950  176.3110  143.7930 N   0  0  0  0  0  0  0  0  0  0  0  0
  187.8650  177.2290  144.5820 C   0  0  0  0  0  0  0  0  0  0  0  0
  186.9530  177.9340  147.1470 C   0  0  0  0  0  3  0  0  0  0  0  0
  188.3780  174.4560  142.5370 C   0  0  0  0  0  1  0  0  0  0  0  0
  187.7680  176.3380  141.0360 C   0  0  0  0  0  1  0  0  0  0  0  0
  187.8180  175.8670  142.4750 C   0  0  0  0  0  3  0  0  0  0  0  0
  190.5430  175.4320  146.0370 C   0  0  0  0  0  2  0  0  0  0  0  0
  194.8250  175.1260  146.0980 C   0  0  0  0  0  3  0  0  0  0  0  0
  192.0340  175.3270  146.0660 C   0  0  0  0  0  0  0  0  0  0  0  0
  192.8100  176.3980  146.5260 C   0  0  0  0  0  3  0  0  0  0  0  0
  194.2040  176.2960  146.5430 C   0  0  0  0  0  3  0  0  0  0  0  0
  194.0520  174.0550  145.6360 C   0  0  0  0  0  3  0  0  0  0  0  0
  192.6580  174.1570  145.6200 C   0  0  0  0  0  3  0  0  0  0  0  0
  190.9380  177.0480  143.0980 C   0  0  0  0  0  2  0  0  0  0  0  0
  191.9910  176.1070  142.6250 C   0  0  0  0  0  0  0  0  0  0  0  0
  191.6680  175.0620  142.0040 O   0  0  0  0  0  0  0  0  0  0  0  0
  193.3260  176.3610  142.9080 O   0  0  0  0  0  1  0  0  0  0  0  0
  1  2  1  0  0  0  0
  1 17  1  1  0  0  0
  2  6  1  0  0  0  0
  3 16  1  1  0  0  0
  3 11  1  0  0  0  0
  3 12  1  0  0  0  0
  4 10  1  0  0  0  0
  5  9  1  0  0  0  0
  6 13  2  0  0  0  0
  7  9  2  0  0  0  0
  7  8  1  0  0  0  0
  8 10  2  0  0  0  0
  9  4  1  0  0  0  0
 10 13  1  0  0  0  0
 11  1  1  0  0  0  0
 12  8  1  0  0  0  0
 12  2  2  0  0  0  0
 15 16  1  0  0  0  0
 16 14  1  0  0  0  0
 17 19  1  0  0  0  0
 18 21  1  0  0  0  0
 19 20  1  0  0  0  0
 20 21  2  0  0  0  0
 22 18  2  0  0  0  0
 23 22  1  0  0  0  0
 23 19  2  0  0  0  0
 24 11  1  0  0  0  0
 25 27  1  0  0  0  0
 25 24  1  0  0  0  0
 26 25  2  0  0  0  0
M  END
>  <MODEL>
1

>  <REMARK>
 VINA RESULT:      -7.1      0.000      0.000
  Name = 
  5 active torsions:
  status: ('A' for Active; 'I' for Inactive)
    1  A    between atoms: C_1  and  C_15
    2  A    between atoms: C_3  and  C_26
    3  A    between atoms: C_9  and  C_15
    4  A    between atoms: C_10  and  C_24
    5  A    between atoms: N_18  and  C_24
                            x       y       z     vdW  Elec       q    Type
                         _______ _______ _______ _____ _____    ______ ____

>  <TORSDO>
F 5

$$$$
=
 OpenBabel11052418313D

 27 30  0  0  1  0  0  0  0  0999 V2000
  190.1680  177.0740  145.8410 C   0  0  2  0  0  3  0  0  0  0  0  0
  188.7240  177.3170  146.0690 C   0  0  0  0  0  0  0  0  0  0  0  0
  189.0620  177.2980  143.7550 C   0  0  2  0  0  3  0  0  0  0  0  0
  184.4420  178.2940  145.6870 S   0  0  0  0  0  0  0  0  0  0  0  0
  183.6600  178.4890  142.9930 C   0  0  0  0  0  1  0  0  0  0  0  0
  188.0490  177.4930  147.2900 C   0  0  0  0  0  3  0  0  0  0  0  0
  185.9940  177.9470  143.7010 N   0  0  0  0  0  0  0  0  0  0  0  0
  186.7310  177.7690  144.8260 C   0  0  0  0  0  0  0  0  0  0  0  0
  184.7090  178.2410  144.0150 C   0  0  0  0  0  0  0  0  0  0  0  0
  186.0430  177.9230  146.0240 C   0  0  0  0  0  0  0  0  0  0  0  0
  190.3310  176.8790  144.3860 N   0  0  0  0  0  0  0  0  0  0  0  0
  188.0880  177.4520  144.8650 C   0  0  0  0  0  0  0  0  0  0  0  0
  186.6710  177.7940  147.2690 C   0  0  0  0  0  3  0  0  0  0  0  0
  189.6290  175.2420  142.3610 C   0  0  0  0  0  1  0  0  0  0  0  0
  188.1590  177.0150  141.4310 C   0  0  0  0  0  1  0  0  0  0  0  0
  188.5860  176.2950  142.6940 C   0  0  0  0  0  3  0  0  0  0  0  0
  190.7150  175.8870  146.6440 C   0  0  0  0  0  2  0  0  0  0  0  0
  190.8150  172.2100  144.4290 C   0  0  0  0  0  3  0  0  0  0  0  0
  190.7560  174.6030  145.8780 C   0  0  0  0  0  0  0  0  0  0  0  0
  191.9550  174.1550  145.3110 C   0  0  0  0  0  3  0  0  0  0  0  0
  191.9840  172.9590  144.5890 C   0  0  0  0  0  3  0  0  0  0  0  0
  189.6150  172.6570  144.9920 C   0  0  0  0  0  3  0  0  0  0  0  0
  189.5860  173.8530  145.7160 C   0  0  0  0  0  3  0  0  0  0  0  0
  191.3590  177.8050  143.9390 C   0  0  0  0  0  2  0  0  0  0  0  0
  192.6540  177.0840  143.7860 C   0  0  0  0  0  0  0  0  0  0  0  0
  193.5100  177.1270  144.7050 O   0  0  0  0  0  1  0  0  0  0  0  0
  192.9320  176.4020  142.6090 O   0  0  0  0  0  0  0  0  0  0  0  0
  1  2  1  0  0  0  0
  1 17  1  1  0  0  0
  2  6  1  0  0  0  0
  3 16  1  6  0  0  0
  3 11  1  0  0  0  0
  3 12  1  0  0  0  0
  4 10  1  0  0  0  0
  5  9  1  0  0  0  0
  7  9  2  0  0  0  0
  7  8  1  0  0  0  0
  8 12  1  0  0  0  0
  8 10  2  0  0  0  0
  9  4  1  0  0  0  0
 10 13  1  0  0  0  0
 11  1  1  0  0  0  0
 12  2  2  0  0  0  0
 13  6  2  0  0  0  0
 14 16  1  0  0  0  0
 15 16  1  0  0  0  0
 18 21  2  0  0  0  0
 18 22  1  0  0  0  0
 19 17  1  0  0  0  0
 20 19  2  0  0  0  0
 21 20  1  0  0  0  0
 22 23  2  0  0  0  0
 23 19  1  0  0  0  0
 24 11  1  0  0  0  0
 25 24  1  0  0  0  0
 25 26  1  0  0  0  0
 27 25  2  0  0  0  0
M  END
>  <MODEL>
2

>  <REMARK>
 VINA RESULT:      -6.8      1.337      2.069
  Name = 
  5 active torsions:
  status: ('A' for Active; 'I' for Inactive)
    1  A    between atoms: C_1  and  C_15
    2  A    between atoms: C_3  and  C_26
    3  A    between atoms: C_9  and  C_15
    4  A    between atoms: C_10  and  C_24
    5  A    between atoms: N_18  and  C_24
                            x       y       z     vdW  Elec       q    Type
                         _______ _______ _______ _____ _____    ______ ____

>  <TORSDO>
F 5

$$$$
=
 OpenBabel11052418313D

 27 30  0  0  1  0  0  0  0  0999 V2000
  188.5840  177.1020  144.2530 C   0  0  2  0  0  3  0  0  0  0  0  0
  187.7200  177.4460  143.0990 C   0  0  0  0  0  0  0  0  0  0  0  0
  186.3480  177.3810  144.9910 C   0  0  2  0  0  3  0  0  0  0  0  0
  184.3510  178.2530  140.3740 S   0  0  0  0  0  0  0  0  0  0  0  0
  181.9150  178.4430  141.7670 C   0  0  0  0  0  1  0  0  0  0  0  0
  188.0680  177.5240  141.7390 C   0  0  0  0  0  3  0  0  0  0  0  0
  184.1000  178.0010  142.8940 N   0  0  0  0  0  0  0  0  0  0  0  0
  185.4160  177.8470  142.6000 C   0  0  0  0  0  0  0  0  0  0  0  0
  183.3850  178.2330  141.7670 C   0  0  0  0  0  0  0  0  0  0  0  0
  185.7460  177.9520  141.2540 C   0  0  0  0  0  0  0  0  0  0  0  0
  187.7440  177.2490  145.4580 N   0  0  0  0  0  0  0  0  0  0  0  0
  186.4290  177.6000  143.5250 C   0  0  0  0  0  0  0  0  0  0  0  0
  187.0590  177.7930  140.7920 C   0  0  0  0  0  3  0  0  0  0  0  0
  186.4070  179.1290  146.8440 C   0  0  0  0  0  1  0  0  0  0  0  0
  184.2660  178.0270  146.2360 C   0  0  0  0  0  1  0  0  0  0  0  0
  185.6020  178.5130  145.7120 C   0  0  0  0  0  3  0  0  0  0  0  0
  189.8550  177.9570  144.3320 C   0  0  0  0  0  2  0  0  0  0  0  0
  193.4680  175.7590  143.5900 C   0  0  0  0  0  3  0  0  0  0  0  0
  191.1150  177.1970  144.0680 C   0  0  0  0  0  0  0  0  0  0  0  0
  191.3800  176.6870  142.7910 C   0  0  0  0  0  3  0  0  0  0  0  0
  192.5550  175.9710  142.5520 C   0  0  0  0  0  3  0  0  0  0  0  0
  193.2050  176.2650  144.8680 C   0  0  0  0  0  3  0  0  0  0  0  0
  192.0290  176.9830  145.1050 C   0  0  0  0  0  3  0  0  0  0  0  0
  187.8320  176.0020  146.2010 C   0  0  0  0  0  2  0  0  0  0  0  0
  189.0680  175.9970  147.0320 C   0  0  0  0  0  0  0  0  0  0  0  0
  189.6500  174.9110  147.2870 O   0  0  0  0  0  0  0  0  0  0  0  0
  189.5530  177.1850  147.5610 O   0  0  0  0  0  1  0  0  0  0  0  0
  1 17  1  1  0  0  0
  1 11  1  0  0  0  0
  2 12  1  0  0  0  0
  2  1  1  0  0  0  0
  3 11  1  0  0  0  0
  3 16  1  1  0  0  0
  4 10  1  0  0  0  0
  4  9  1  0  0  0  0
  5  9  1  0  0  0  0
  6  2  2  0  0  0  0
  8  7  1  0  0  0  0
  8 12  2  0  0  0  0
  9  7  2  0  0  0  0
 10  8  1  0  0  0  0
 11 24  1  0  0  0  0
 12  3  1  0  0  0  0
 13 10  2  0  0  0  0
 13  6  1  0  0  0  0
 16 15  1  0  0  0  0
 16 14  1  0  0  0  0
 18 22  1  0  0  0  0
 19 17  1  0  0  0  0
 19 23  1  0  0  0  0
 20 19  2  0  0  0  0
 21 20  1  0  0  0  0
 21 18  2  0  0  0  0
 22 23  2  0  0  0  0
 24 25  1  0  0  0  0
 25 26  2  0  0  0  0
 25 27  1  0  0  0  0
M  END
>  <MODEL>
3

>  <REMARK>
 VINA RESULT:      -6.8      2.532      4.196
  Name = 
  5 active torsions:
  status: ('A' for Active; 'I' for Inactive)
    1  A    between atoms: C_1  and  C_15
    2  A    between atoms: C_3  and  C_26
    3  A    between atoms: C_9  and  C_15
    4  A    between atoms: C_10  and  C_24
    5  A    between atoms: N_18  and  C_24
                            x       y       z     vdW  Elec       q    Type
                         _______ _______ _______ _____ _____    ______ ____

>  <TORSDO>
F 5

$$$$
=
 OpenBabel11052418313D

 27 30  0  0  1  0  0  0  0  0999 V2000
  188.6310  177.4040  144.5670 C   0  0  2  0  0  3  0  0  0  0  0  0
  190.0290  177.1920  144.1260 C   0  0  0  0  0  0  0  0  0  0  0  0
  189.8250  176.2350  146.2500 C   0  0  2  0  0  3  0  0  0  0  0  0
  194.3340  176.2850  143.8570 S   0  0  0  0  0  0  0  0  0  0  0  0
  195.2530  174.9290  146.1430 C   0  0  0  0  0  1  0  0  0  0  0  0
  190.6570  177.6550  142.9560 C   0  0  0  0  0  3  0  0  0  0  0  0
  192.8780  175.6450  145.8430 N   0  0  0  0  0  0  0  0  0  0  0  0
  192.0830  176.2790  144.9450 C   0  0  0  0  0  0  0  0  0  0  0  0
  194.1500  175.5690  145.3820 C   0  0  0  0  0  0  0  0  0  0  0  0
  192.7130  176.7080  143.7830 C   0  0  0  0  0  0  0  0  0  0  0  0
  188.4700  176.6360  145.8190 N   0  0  0  0  0  0  0  0  0  0  0  0
  190.7180  176.5230  145.1000 C   0  0  0  0  0  0  0  0  0  0  0  0
  192.0310  177.3990  142.7730 C   0  0  0  0  0  3  0  0  0  0  0  0
  189.6890  173.7960  145.5260 C   0  0  0  0  0  1  0  0  0  0  0  0
  188.8580  174.4820  147.7630 C   0  0  0  0  0  1  0  0  0  0  0  0
  189.8810  174.7630  146.6820 C   0  0  0  0  0  3  0  0  0  0  0  0
  187.5950  177.0020  143.5100 C   0  0  0  0  0  2  0  0  0  0  0  0
  184.0240  179.3840  143.5840 C   0  0  0  0  0  3  0  0  0  0  0  0
  186.3470  177.8250  143.5390 C   0  0  0  0  0  0  0  0  0  0  0  0
  185.1960  177.3900  142.8710 C   0  0  0  0  0  3  0  0  0  0  0  0
  184.0350  178.1680  142.8950 C   0  0  0  0  0  3  0  0  0  0  0  0
  185.1730  179.8230  144.2500 C   0  0  0  0  0  3  0  0  0  0  0  0
  186.3330  179.0430  144.2270 C   0  0  0  0  0  3  0  0  0  0  0  0
  187.9520  177.5520  146.8230 C   0  0  0  0  0  2  0  0  0  0  0  0
  186.5620  177.1630  147.1910 C   0  0  0  0  0  0  0  0  0  0  0  0
  185.9440  176.3110  146.5020 O   0  0  0  0  0  0  0  0  0  0  0  0
  185.9330  177.7740  148.2670 O   0  0  0  0  0  1  0  0  0  0  0  0
  1 17  1  6  0  0  0
  1 11  1  0  0  0  0
  2  1  1  0  0  0  0
  2 12  1  0  0  0  0
  3 16  1  6  0  0  0
  4  9  1  0  0  0  0
  6  2  2  0  0  0  0
  8 12  2  0  0  0  0
  8  7  1  0  0  0  0
  9  7  2  0  0  0  0
  9  5  1  0  0  0  0
 10  4  1  0  0  0  0
 10  8  1  0  0  0  0
 11  3  1  0  0  0  0
 11 24  1  0  0  0  0
 12  3  1  0  0  0  0
 13  6  1  0  0  0  0
 13 10  2  0  0  0  0
 14 16  1  0  0  0  0
 16 15  1  0  0  0  0
 17 19  1  0  0  0  0
 18 22  1  0  0  0  0
 19 23  1  0  0  0  0
 20 21  1  0  0  0  0
 20 19  2  0  0  0  0
 21 18  2  0  0  0  0
 23 22  2  0  0  0  0
 24 25  1  0  0  0  0
 25 27  1  0  0  0  0
 26 25  2  0  0  0  0
M  END
>  <MODEL>
4

>  <REMARK>
 VINA RESULT:      -6.7      3.308      7.428
  Name = 
  5 active torsions:
  status: ('A' for Active; 'I' for Inactive)
    1  A    between atoms: C_1  and  C_15
    2  A    between atoms: C_3  and  C_26
    3  A    between atoms: C_9  and  C_15
    4  A    between atoms: C_10  and  C_24
    5  A    between atoms: N_18  and  C_24
                            x       y       z     vdW  Elec       q    Type
                         _______ _______ _______ _____ _____    ______ ____

>  <TORSDO>
F 5

$$$$
=
 OpenBabel11052418313D

 27 30  0  0  1  0  0  0  0  0999 V2000
  188.0460  176.0670  143.3070 C   0  0  2  0  0  3  0  0  0  0  0  0
  188.5120  174.7270  142.8820 C   0  0  0  0  0  0  0  0  0  0  0  0
  189.8230  175.3630  144.7110 C   0  0  2  0  0  3  0  0  0  0  0  0
  190.7330  170.9670  142.2800 S   0  0  0  0  0  0  0  0  0  0  0  0
  192.7680  170.6470  144.1950 C   0  0  0  0  0  1  0  0  0  0  0  0
  188.0900  173.9630  141.7790 C   0  0  0  0  0  3  0  0  0  0  0  0
  191.2420  172.6250  144.1420 N   0  0  0  0  0  0  0  0  0  0  0  0
  190.2000  173.1230  143.4290 C   0  0  0  0  0  0  0  0  0  0  0  0
  191.6450  171.4380  143.6290 C   0  0  0  0  0  0  0  0  0  0  0  0
  189.7800  172.3440  142.3580 C   0  0  0  0  0  0  0  0  0  0  0  0
  188.7510  176.3700  144.5690 N   0  0  0  0  0  0  0  0  0  0  0  0
  189.5420  174.3240  143.6890 C   0  0  0  0  0  0  0  0  0  0  0  0
  188.7320  172.7350  141.5150 C   0  0  0  0  0  3  0  0  0  0  0  0
  188.7080  175.1980  146.9960 C   0  0  0  0  0  1  0  0  0  0  0  0
  191.1850  175.1710  146.8110 C   0  0  0  0  0  1  0  0  0  0  0  0
  189.8860  174.7840  146.1320 C   0  0  0  0  0  3  0  0  0  0  0  0
  186.5230  176.1550  143.4660 C   0  0  0  0  0  2  0  0  0  0  0  0
  185.2210  179.0600  146.3470 C   0  0  0  0  0  3  0  0  0  0  0  0
  186.0750  177.1640  144.4750 C   0  0  0  0  0  0  0  0  0  0  0  0
  185.6720  176.7570  145.7530 C   0  0  0  0  0  3  0  0  0  0  0  0
  185.2470  177.7040  146.6880 C   0  0  0  0  0  3  0  0  0  0  0  0
  185.6200  179.4690  145.0710 C   0  0  0  0  0  3  0  0  0  0  0  0
  186.0470  178.5210  144.1360 C   0  0  0  0  0  3  0  0  0  0  0  0
  189.3960  177.6630  144.4030 C   0  0  0  0  0  2  0  0  0  0  0  0
  189.9120  177.7930  143.0120 C   0  0  0  0  0  0  0  0  0  0  0  0
  191.1000  177.4730  142.7490 O   0  0  0  0  0  1  0  0  0  0  0  0
  189.0960  178.3090  142.0150 O   0  0  0  0  0  0  0  0  0  0  0  0
  1 17  1  1  0  0  0
  1 11  1  0  0  0  0
  2  1  1  0  0  0  0
  2 12  1  0  0  0  0
  3 16  1  1  0  0  0
  4 10  1  0  0  0  0
  4  9  1  0  0  0  0
  6  2  2  0  0  0  0
  8 12  2  0  0  0  0
  8  7  1  0  0  0  0
  9  7  2  0  0  0  0
  9  5  1  0  0  0  0
 10  8  1  0  0  0  0
 11  3  1  0  0  0  0
 12  3  1  0  0  0  0
 13  6  1  0  0  0  0
 13 10  2  0  0  0  0
 16 15  1  0  0  0  0
 16 14  1  0  0  0  0
 17 19  1  0  0  0  0
 18 21  1  0  0  0  0
 19 20  1  0  0  0  0
 20 21  2  0  0  0  0
 22 18  2  0  0  0  0
 23 19  2  0  0  0  0
 23 22  1  0  0  0  0
 24 11  1  0  0  0  0
 25 24  1  0  0  0  0
 26 25  1  0  0  0  0
 27 25  2  0  0  0  0
M  END
>  <MODEL>
5

>  <REMARK>
 VINA RESULT:      -6.6      2.902      6.833
  Name = 
  5 active torsions:
  status: ('A' for Active; 'I' for Inactive)
    1  A    between atoms: C_1  and  C_15
    2  A    between atoms: C_3  and  C_26
    3  A    between atoms: C_9  and  C_15
    4  A    between atoms: C_10  and  C_24
    5  A    between atoms: N_18  and  C_24
                            x       y       z     vdW  Elec       q    Type
                         _______ _______ _______ _____ _____    ______ ____

>  <TORSDO>
F 5

$$$$
=
 OpenBabel11052418313D

 27 30  0  0  1  0  0  0  0  0999 V2000
  188.7530  176.2720  144.8400 C   0  0  2  0  0  3  0  0  0  0  0  0
  188.4450  175.8050  143.4680 C   0  0  0  0  0  0  0  0  0  0  0  0
  190.5400  174.9360  144.0350 C   0  0  2  0  0  3  0  0  0  0  0  0
  188.5780  174.1370  139.3900 S   0  0  0  0  0  0  0  0  0  0  0  0
  190.9400  172.6770  138.9440 C   0  0  0  0  0  1  0  0  0  0  0  0
  187.3380  176.1280  142.6630 C   0  0  0  0  0  3  0  0  0  0  0  0
  190.4190  173.8020  141.1140 N   0  0  0  0  0  0  0  0  0  0  0  0
  189.4510  174.5530  141.6960 C   0  0  0  0  0  0  0  0  0  0  0  0
  190.0790  173.4920  139.8400 C   0  0  0  0  0  0  0  0  0  0  0  0
  188.3540  174.8430  140.8950 C   0  0  0  0  0  0  0  0  0  0  0  0
  189.9840  175.5670  145.2500 N   0  0  0  0  0  0  0  0  0  0  0  0
  189.4790  175.0400  143.0020 C   0  0  0  0  0  0  0  0  0  0  0  0
  187.2840  175.6270  141.3460 C   0  0  0  0  0  3  0  0  0  0  0  0
  189.9590  172.6880  145.0830 C   0  0  0  0  0  1  0  0  0  0  0  0
  192.3230  173.4420  144.9760 C   0  0  0  0  0  1  0  0  0  0  0  0
  190.9760  173.4860  144.2840 C   0  0  0  0  0  3  0  0  0  0  0  0
  187.6040  176.0440  145.8300 C   0  0  0  0  0  2  0  0  0  0  0  0
  184.5730  179.0800  145.6840 C   0  0  0  0  0  3  0  0  0  0  0  0
  186.5480  177.1010  145.7880 C   0  0  0  0  0  0  0  0  0  0  0  0
  185.2770  176.8530  146.3210 C   0  0  0  0  0  3  0  0  0  0  0  0
  184.2910  177.8420  146.2700 C   0  0  0  0  0  3  0  0  0  0  0  0
  185.8400  179.3290  145.1480 C   0  0  0  0  0  3  0  0  0  0  0  0
  186.8270  178.3390  145.2000 C   0  0  0  0  0  3  0  0  0  0  0  0
  190.9360  176.5770  145.6840 C   0  0  0  0  0  2  0  0  0  0  0  0
  191.4200  176.2570  147.0560 C   0  0  0  0  0  0  0  0  0  0  0  0
  192.4910  176.7630  147.4790 O   0  0  0  0  0  0  0  0  0  0  0  0
  190.7130  175.3650  147.8510 O   0  0  0  0  0  1  0  0  0  0  0  0
  1 11  1  0  0  0  0
  1 17  1  1  0  0  0
  2  1  1  0  0  0  0
  3 16  1  1  0  0  0
  3 11  1  0  0  0  0
  4  9  1  0  0  0  0
  4 10  1  0  0  0  0
  5  9  1  0  0  0  0
  6  2  2  0  0  0  0
  7  8  1  0  0  0  0
  8 12  2  0  0  0  0
  9  7  2  0  0  0  0
 10 13  2  0  0  0  0
 10  8  1  0  0  0  0
 11 24  1  0  0  0  0
 12  2  1  0  0  0  0
 12  3  1  0  0  0  0
 13  6  1  0  0  0  0
 16 15  1  0  0  0  0
 16 14  1  0  0  0  0
 18 21  1  0  0  0  0
 19 17  1  0  0  0  0
 19 20  1  0  0  0  0
 21 20  2  0  0  0  0
 22 23  1  0  0  0  0
 22 18  2  0  0  0  0
 23 19  2  0  0  0  0
 24 25  1  0  0  0  0
 25 26  2  0  0  0  0
 25 27  1  0  0  0  0
M  END
>  <MODEL>
6

>  <REMARK>
 VINA RESULT:      -6.6      2.921      6.410
  Name = 
  5 active torsions:
  status: ('A' for Active; 'I' for Inactive)
    1  A    between atoms: C_1  and  C_15
    2  A    between atoms: C_3  and  C_26
    3  A    between atoms: C_9  and  C_15
    4  A    between atoms: C_10  and  C_24
    5  A    between atoms: N_18  and  C_24
                            x       y       z     vdW  Elec       q    Type
                         _______ _______ _______ _____ _____    ______ ____

>  <TORSDO>
F 5

$$$$
=
 OpenBabel11052418313D

 27 30  0  0  1  0  0  0  0  0999 V2000
  188.9960  176.4300  143.9690 C   0  0  2  0  0  3  0  0  0  0  0  0
  190.3350  175.9420  143.5630 C   0  0  0  0  0  0  0  0  0  0  0  0
  190.3430  176.1110  145.8950 C   0  0  2  0  0  3  0  0  0  0  0  0
  194.5690  174.7300  143.3870 S   0  0  0  0  0  0  0  0  0  0  0  0
  195.7030  174.5480  145.9540 C   0  0  0  0  0  1  0  0  0  0  0  0
  190.8420  175.7580  142.2640 C   0  0  0  0  0  3  0  0  0  0  0  0
  193.3230  175.1960  145.5560 N   0  0  0  0  0  0  0  0  0  0  0  0
  192.4480  175.3860  144.5360 C   0  0  0  0  0  0  0  0  0  0  0  0
  194.5370  174.8290  145.0780 C   0  0  0  0  0  0  0  0  0  0  0  0
  192.9580  175.1770  143.2610 C   0  0  0  0  0  0  0  0  0  0  0  0
  188.9570  176.3520  145.4430 N   0  0  0  0  0  0  0  0  0  0  0  0
  191.1130  175.7650  144.6740 C   0  0  0  0  0  0  0  0  0  0  0  0
  192.1840  175.3560  142.1070 C   0  0  0  0  0  3  0  0  0  0  0  0
  189.0530  174.4950  147.3840 C   0  0  0  0  0  1  0  0  0  0  0  0
  191.1770  175.5040  148.1830 C   0  0  0  0  0  1  0  0  0  0  0  0
  190.4180  175.0140  146.9670 C   0  0  0  0  0  3  0  0  0  0  0  0
  187.8460  175.6480  143.3220 C   0  0  0  0  0  2  0  0  0  0  0  0
  185.3650  177.9970  140.7220 C   0  0  0  0  0  3  0  0  0  0  0  0
  186.9820  176.4730  142.4220 C   0  0  0  0  0  0  0  0  0  0  0  0
  185.7800  177.0130  142.8950 C   0  0  0  0  0  3  0  0  0  0  0  0
  184.9730  177.7750  142.0460 C   0  0  0  0  0  3  0  0  0  0  0  0
  186.5650  177.4570  140.2470 C   0  0  0  0  0  3  0  0  0  0  0  0
  187.3720  176.6950  141.0970 C   0  0  0  0  0  3  0  0  0  0  0  0
  188.5670  177.6640  145.9350 C   0  0  0  0  0  2  0  0  0  0  0  0
  187.2850  177.5610  146.6860 C   0  0  0  0  0  0  0  0  0  0  0  0
  187.0430  178.3570  147.6290 O   0  0  0  0  0  1  0  0  0  0  0  0
  186.3770  176.5580  146.3740 O   0  0  0  0  0  0  0  0  0  0  0  0
  1 17  1  6  0  0  0
  1 11  1  0  0  0  0
  2  1  1  0  0  0  0
  2 12  1  0  0  0  0
  3 16  1  1  0  0  0
  4  9  1  0  0  0  0
  6  2  2  0  0  0  0
  8 12  2  0  0  0  0
  8  7  1  0  0  0  0
  9  7  2  0  0  0  0
  9  5  1  0  0  0  0
 10  4  1  0  0  0  0
 10  8  1  0  0  0  0
 11  3  1  0  0  0  0
 11 24  1  0  0  0  0
 12  3  1  0  0  0  0
 13  6  1  0  0  0  0
 13 10  2  0  0  0  0
 16 14  1  0  0  0  0
 16 15  1  0  0  0  0
 18 21  1  0  0  0  0
 19 20  1  0  0  0  0
 19 17  1  0  0  0  0
 21 20  2  0  0  0  0
 22 18  2  0  0  0  0
 22 23  1  0  0  0  0
 23 19  2  0  0  0  0
 24 25  1  0  0  0  0
 25 26  1  0  0  0  0
 27 25  2  0  0  0  0
M  END
>  <MODEL>
7

>  <REMARK>
 VINA RESULT:      -6.5      3.363      7.480
  Name = 
  5 active torsions:
  status: ('A' for Active; 'I' for Inactive)
    1  A    between atoms: C_1  and  C_15
    2  A    between atoms: C_3  and  C_26
    3  A    between atoms: C_9  and  C_15
    4  A    between atoms: C_10  and  C_24
    5  A    between atoms: N_18  and  C_24
                            x       y       z     vdW  Elec       q    Type
                         _______ _______ _______ _____ _____    ______ ____

>  <TORSDO>
F 5

$$$$
=
 OpenBabel11052418313D

 27 30  0  0  1  0  0  0  0  0999 V2000
  188.1470  176.2620  143.4160 C   0  0  2  0  0  3  0  0  0  0  0  0
  188.5740  175.4060  142.2840 C   0  0  0  0  0  0  0  0  0  0  0  0
  190.2340  175.2570  143.9240 C   0  0  2  0  0  3  0  0  0  0  0  0
  190.7940  172.8610  139.4510 S   0  0  0  0  0  0  0  0  0  0  0  0
  193.2290  171.9740  140.5430 C   0  0  0  0  0  1  0  0  0  0  0  0
  187.9500  175.2310  141.0360 C   0  0  0  0  0  3  0  0  0  0  0  0
  191.6290  173.4370  141.7850 N   0  0  0  0  0  0  0  0  0  0  0  0
  190.4260  174.0440  141.6230 C   0  0  0  0  0  0  0  0  0  0  0  0
  191.9660  172.7440  140.6700 C   0  0  0  0  0  0  0  0  0  0  0  0
  189.8120  173.8410  140.3930 C   0  0  0  0  0  0  0  0  0  0  0  0
  189.1060  176.0110  144.5100 N   0  0  0  0  0  0  0  0  0  0  0  0
  189.7810  174.8320  142.5760 C   0  0  0  0  0  0  0  0  0  0  0  0
  188.5790  174.4200  140.0680 C   0  0  0  0  0  3  0  0  0  0  0  0
  189.6900  173.8080  145.9480 C   0  0  0  0  0  1  0  0  0  0  0  0
  192.0540  174.2740  145.3450 C   0  0  0  0  0  1  0  0  0  0  0  0
  190.6540  174.0710  144.8030 C   0  0  0  0  0  3  0  0  0  0  0  0
  186.6990  176.0080  143.8530 C   0  0  0  0  0  2  0  0  0  0  0  0
  185.0340  179.1290  146.2860 C   0  0  0  0  0  3  0  0  0  0  0  0
  186.1240  177.0930  144.7070 C   0  0  0  0  0  0  0  0  0  0  0  0
  185.5640  176.7910  145.9540 C   0  0  0  0  0  3  0  0  0  0  0  0
  185.0210  177.8080  146.7440 C   0  0  0  0  0  3  0  0  0  0  0  0
  185.5900  179.4330  145.0390 C   0  0  0  0  0  3  0  0  0  0  0  0
  186.1340  178.4160  144.2510 C   0  0  0  0  0  3  0  0  0  0  0  0
  189.6260  177.3020  144.9320 C   0  0  0  0  0  2  0  0  0  0  0  0
  189.6540  177.3720  146.4200 C   0  0  0  0  0  0  0  0  0  0  0  0
  188.6350  177.7540  147.0510 O   0  0  0  0  0  0  0  0  0  0  0  0
  190.8180  177.0580  147.1080 O   0  0  0  0  0  1  0  0  0  0  0  0
  1 17  1  1  0  0  0
  1 11  1  0  0  0  0
  2 12  1  0  0  0  0
  2  1  1  0  0  0  0
  3 11  1  0  0  0  0
  3 16  1  1  0  0  0
  4 10  1  0  0  0  0
  4  9  1  0  0  0  0
  5  9  1  0  0  0  0
  6  2  2  0  0  0  0
  8  7  1  0  0  0  0
  8 12  2  0  0  0  0
  9  7  2  0  0  0  0
 10  8  1  0  0  0  0
 11 24  1  0  0  0  0
 12  3  1  0  0  0  0
 13 10  2  0  0  0  0
 13  6  1  0  0  0  0
 16 15  1  0  0  0  0
 16 14  1  0  0  0  0
 17 19  1  0  0  0  0
 18 21  1  0  0  0  0
 19 20  1  0  0  0  0
 20 21  2  0  0  0  0
 22 18  2  0  0  0  0
 23 19  2  0  0  0  0
 23 22  1  0  0  0  0
 24 25  1  0  0  0  0
 25 26  2  0  0  0  0
 25 27  1  0  0  0  0
M  END
>  <MODEL>
8

>  <REMARK>
 VINA RESULT:      -6.5      3.239      6.973
  Name = 
  5 active torsions:
  status: ('A' for Active; 'I' for Inactive)
    1  A    between atoms: C_1  and  C_15
    2  A    between atoms: C_3  and  C_26
    3  A    between atoms: C_9  and  C_15
    4  A    between atoms: C_10  and  C_24
    5  A    between atoms: N_18  and  C_24
                            x       y       z     vdW  Elec       q    Type
                         _______ _______ _______ _____ _____    ______ ____

>  <TORSDO>
F 5

$$$$
=
 OpenBabel11052418313D

 27 30  0  0  1  0  0  0  0  0999 V2000
  188.2690  176.3220  145.3700 C   0  0  2  0  0  3  0  0  0  0  0  0
  188.9210  175.1470  144.7460 C   0  0  0  0  0  0  0  0  0  0  0  0
  187.7040  176.2300  143.0680 C   0  0  2  0  0  3  0  0  0  0  0  0
  190.1830  171.8800  142.0680 S   0  0  0  0  0  0  0  0  0  0  0  0
  189.1970  172.2390  139.4590 C   0  0  0  0  0  1  0  0  0  0  0  0
  189.6920  174.1440  145.3620 C   0  0  0  0  0  3  0  0  0  0  0  0
  188.7460  173.8430  141.3220 N   0  0  0  0  0  0  0  0  0  0  0  0
  189.0220  174.0200  142.6380 C   0  0  0  0  0  0  0  0  0  0  0  0
  189.3200  172.7040  140.8640 C   0  0  0  0  0  0  0  0  0  0  0  0
  189.8040  173.0340  143.2250 C   0  0  0  0  0  0  0  0  0  0  0  0
  187.6630  177.0940  144.2660 N   0  0  0  0  0  0  0  0  0  0  0  0
  188.5890  175.0910  143.4190 C   0  0  0  0  0  0  0  0  0  0  0  0
  190.1540  173.0650  144.5810 C   0  0  0  0  0  3  0  0  0  0  0  0
  188.8970  178.2910  142.1630 C   0  0  0  0  0  1  0  0  0  0  0  0
  187.0400  177.2580  140.8770 C   0  0  0  0  0  1  0  0  0  0  0  0
  188.1910  176.9890  141.8260 C   0  0  0  0  0  3  0  0  0  0  0  0
  189.2320  177.1750  146.2050 C   0  0  0  0  0  2  0  0  0  0  0  0
  193.3760  176.5980  145.2420 C   0  0  0  0  0  3  0  0  0  0  0  0
  190.6740  176.9660  145.8710 C   0  0  0  0  0  0  0  0  0  0  0  0
  191.5440  176.4000  146.8120 C   0  0  0  0  0  3  0  0  0  0  0  0
  192.8930  176.2150  146.4960 C   0  0  0  0  0  3  0  0  0  0  0  0
  192.5100  177.1660  144.3010 C   0  0  0  0  0  3  0  0  0  0  0  0
  191.1600  177.3500  144.6170 C   0  0  0  0  0  3  0  0  0  0  0  0
  186.2620  177.2970  144.6010 C   0  0  0  0  0  2  0  0  0  0  0  0
  185.9490  178.7530  144.5930 C   0  0  0  0  0  0  0  0  0  0  0  0
  185.7840  179.3670  145.6790 O   0  0  0  0  0  1  0  0  0  0  0  0
  185.7950  179.4240  143.3870 O   0  0  0  0  0  0  0  0  0  0  0  0
  1 17  1  6  0  0  0
  2  6  1  0  0  0  0
  2  1  1  0  0  0  0
  3 16  1  6  0  0  0
  3 12  1  0  0  0  0
  3 11  1  0  0  0  0
  4 10  1  0  0  0  0
  5  9  1  0  0  0  0
  7  8  1  0  0  0  0
  8 10  2  0  0  0  0
  8 12  1  0  0  0  0
  9  7  2  0  0  0  0
  9  4  1  0  0  0  0
 10 13  1  0  0  0  0
 11 24  1  0  0  0  0
 11  1  1  0  0  0  0
 12  2  2  0  0  0  0
 13  6  2  0  0  0  0
 15 16  1  0  0  0  0
 16 14  1  0  0  0  0
 18 21  1  0  0  0  0
 19 17  1  0  0  0  0
 19 20  1  0  0  0  0
 21 20  2  0  0  0  0
 22 23  1  0  0  0  0
 22 18  2  0  0  0  0
 23 19  2  0  0  0  0
 25 24  1  0  0  0  0
 25 26  1  0  0  0  0
 27 25  2  0  0  0  0
M  END
>  <MODEL>
9

>  <REMARK>
 VINA RESULT:      -6.5      3.310      5.090
  Name = 
  5 active torsions:
  status: ('A' for Active; 'I' for Inactive)
    1  A    between atoms: C_1  and  C_15
    2  A    between atoms: C_3  and  C_26
    3  A    between atoms: C_9  and  C_15
    4  A    between atoms: C_10  and  C_24
    5  A    between atoms: N_18  and  C_24
                            x       y       z     vdW  Elec       q    Type
                         _______ _______ _______ _____ _____    ______ ____

>  <TORSDO>
F 5

$$$$
