=
 OpenBabel11052417143D

 30 30  0  0  1  0  0  0  0  0999 V2000
  189.2400  176.6060  145.0910 C   0  0  0  0  0  2  0  0  0  0  0  0
  190.3250  177.5210  144.5450 C   0  0  0  0  0  2  0  0  0  0  0  0
  192.1910  176.7240  143.2810 O   0  0  0  0  0  1  0  0  0  0  0  0
  191.6640  176.8060  144.5730 C   0  0  2  0  0  3  0  0  0  0  0  0
  191.5340  175.4130  145.2140 C   0  0  2  0  0  3  0  0  0  0  0  0
  193.3380  176.4570  146.6220 C   0  0  0  0  0  1  0  0  0  0  0  0
  192.3340  175.3210  146.5200 C   0  0  0  0  0  3  0  0  0  0  0  0
  191.4130  175.3990  147.7280 C   0  0  0  0  0  1  0  0  0  0  0  0
  191.9530  174.3110  144.2370 C   0  0  0  0  0  2  0  0  0  0  0  0
  191.0640  172.1190  144.5640 O   0  0  0  0  0  1  0  0  0  0  0  0
  190.8000  173.3540  143.9670 C   0  0  2  0  0  3  0  0  0  0  0  0
  188.3440  174.1690  142.5400 O   0  0  0  0  0  1  0  0  0  0  0  0
  190.5900  173.1780  142.5310 N   0  0  0  0  0  2  0  0  0  0  0  0
  189.3930  173.5720  141.8490 C   0  0  0  0  0  0  0  0  0  0  0  0
  189.2910  173.3760  140.6090 O   0  0  0  0  0  0  0  0  0  0  0  0
  188.5020  177.2830  146.2280 C   0  0  0  0  0  2  0  0  0  0  0  0
  187.6310  176.2970  146.9870 C   0  0  0  0  0  2  0  0  0  0  0  0
  186.2120  176.8320  147.0750 C   0  0  0  0  0  2  0  0  0  0  0  0
  185.5370  176.6530  145.7970 N   0  0  0  0  0  2  0  0  0  0  0  0
  184.7400  177.8470  145.5560 C   0  0  1  0  0  3  0  0  0  0  0  0
  184.4800  178.5490  146.8720 C   0  0  0  0  0  1  0  0  0  0  0  0
  185.4930  178.7930  144.6280 C   0  0  0  0  0  2  0  0  0  0  0  0
  186.3570  177.3130  140.6890 C   0  0  1  0  0  3  0  0  0  0  0  0
  188.4670  177.0490  141.7630 F   0  0  0  0  0  0  0  0  0  0  0  0
  186.6620  177.2180  139.3300 O   0  0  0  0  0  1  0  0  0  0  0  0
  185.8370  178.1100  143.3150 C   0  0  2  0  0  3  0  0  0  0  0  0
  187.5160  177.9950  141.4330 C   0  0  2  0  0  3  0  0  0  0  0  0
  185.0480  178.0740  140.8700 C   0  0  0  0  0  2  0  0  0  0  0  0
  187.0750  178.7500  142.6950 C   0  0  0  0  0  2  0  0  0  0  0  0
  184.6420  178.1590  142.3480 C   0  0  0  0  0  2  0  0  0  0  0  0
  1 16  1  0  0  0  0
  2  4  1  0  0  0  0
  2  1  1  0  0  0  0
  4  3  1  6  0  0  0
  4  5  1  0  0  0  0
  5  9  1  6  0  0  0
  5  7  1  0  0  0  0
  7  6  1  0  0  0  0
  7  8  1  0  0  0  0
 11  9  1  0  0  0  0
 11 10  1  1  0  0  0
 13 11  1  0  0  0  0
 14 13  1  0  0  0  0
 14 12  1  0  0  0  0
 15 14  2  0  0  0  0
 16 17  1  0  0  0  0
 17 18  1  0  0  0  0
 19 18  1  0  0  0  0
 20 19  1  0  0  0  0
 20 21  1  1  0  0  0
 22 20  1  0  0  0  0
 23 25  1  6  0  0  0
 23 28  1  0  0  0  0
 23 27  1  0  0  0  0
 26 22  1  1  0  0  0
 27 24  1  1  0  0  0
 27 29  1  0  0  0  0
 28 30  1  0  0  0  0
 29 26  1  0  0  0  0
 30 26  1  0  0  0  0
M  END
>  <MODEL>
1

>  <REMARK>
 VINA RESULT:      -6.0      0.000      0.000
  Name = 
  14 active torsions:
  status: ('A' for Active; 'I' for Inactive)
    1  A    between atoms: C_3  and  C_11
    2  A    between atoms: C_3  and  C_19
    3  A    between atoms: C_4  and  C_13
    4  A    between atoms: C_7  and  C_16
    5  A    between atoms: C_7  and  C_30
    6  A    between atoms: C_8  and  C_12
    7  A    between atoms: C_8  and  C_13
    8  A    between atoms: N_9  and  C_12
    9  A    between atoms: C_10  and  C_15
   10  A    between atoms: C_10  and  N_25
   11  A    between atoms: C_11  and  N_25
   12  A    between atoms: C_13  and  C_30
   13  A    between atoms: C_15  and  C_26
   14  A    between atoms: C_16  and  C_26
                            x       y       z     vdW  Elec       q    Type
                         _______ _______ _______ _____ _____    ______ ____

>  <TORSDO>
F 14

$$$$
=
 OpenBabel11052417143D

 30 30  0  0  1  0  0  0  0  0999 V2000
  188.0100  176.6860  146.8500 C   0  0  0  0  0  2  0  0  0  0  0  0
  188.5660  175.8840  145.6840 C   0  0  0  0  0  2  0  0  0  0  0  0
  189.5260  174.8100  147.5920 O   0  0  0  0  0  1  0  0  0  0  0  0
  189.3810  174.7130  146.2050 C   0  0  2  0  0  3  0  0  0  0  0  0
  190.7490  174.6360  145.5030 C   0  0  2  0  0  3  0  0  0  0  0  0
  189.6710  172.4930  144.7450 C   0  0  0  0  0  1  0  0  0  0  0  0
  190.9800  173.2520  144.8820 C   0  0  0  0  0  3  0  0  0  0  0  0
  191.5980  173.3740  143.4970 C   0  0  0  0  0  1  0  0  0  0  0  0
  191.8860  175.0020  146.4610 C   0  0  0  0  0  2  0  0  0  0  0  0
  191.7450  177.0470  145.2370 O   0  0  0  0  0  1  0  0  0  0  0  0
  192.6140  176.2540  145.9890 C   0  0  2  0  0  3  0  0  0  0  0  0
  194.9610  178.0160  145.6460 O   0  0  0  0  0  1  0  0  0  0  0  0
  193.7890  175.9080  145.1920 N   0  0  0  0  0  2  0  0  0  0  0  0
  194.9200  176.7710  145.0270 C   0  0  0  0  0  0  0  0  0  0  0  0
  195.8890  176.3980  144.3140 O   0  0  0  0  0  0  0  0  0  0  0  0
  186.5050  176.8090  146.7360 C   0  0  0  0  0  2  0  0  0  0  0  0
  185.9910  178.0270  147.4850 C   0  0  0  0  0  2  0  0  0  0  0  0
  185.0610  178.8230  146.5860 C   0  0  0  0  0  2  0  0  0  0  0  0
  184.5690  177.9760  145.5090 N   0  0  0  0  0  2  0  0  0  0  0  0
  184.4140  178.8170  144.3310 C   0  0  1  0  0  3  0  0  0  0  0  0
  185.4800  179.8930  144.3410 C   0  0  0  0  0  1  0  0  0  0  0  0
  184.5680  177.9760  143.0700 C   0  0  0  0  0  2  0  0  0  0  0  0
  188.4450  176.3280  142.2270 C   0  0  1  0  0  3  0  0  0  0  0  0
  188.7960  178.6300  141.7270 F   0  0  0  0  0  0  0  0  0  0  0  0
  189.5250  175.6870  141.6160 O   0  0  0  0  0  1  0  0  0  0  0  0
  186.0030  177.5030  142.9030 C   0  0  2  0  0  3  0  0  0  0  0  0
  188.0180  177.5400  141.3840 C   0  0  2  0  0  3  0  0  0  0  0  0
  187.2980  175.3390  142.4080 C   0  0  0  0  0  2  0  0  0  0  0  0
  186.5330  177.8960  141.5280 C   0  0  0  0  0  2  0  0  0  0  0  0
  186.1030  175.9840  143.1250 C   0  0  0  0  0  2  0  0  0  0  0  0
  2  4  1  0  0  0  0
  2  1  1  0  0  0  0
  4  3  1  1  0  0  0
  5  4  1  0  0  0  0
  5  9  1  1  0  0  0
  6  7  1  0  0  0  0
  7  5  1  0  0  0  0
  8  7  1  0  0  0  0
 11 10  1  6  0  0  0
 11  9  1  0  0  0  0
 13 11  1  0  0  0  0
 14 13  1  0  0  0  0
 14 12  1  0  0  0  0
 15 14  2  0  0  0  0
 16  1  1  0  0  0  0
 16 17  1  0  0  0  0
 18 17  1  0  0  0  0
 19 18  1  0  0  0  0
 20 21  1  6  0  0  0
 20 19  1  0  0  0  0
 22 20  1  0  0  0  0
 23 25  1  6  0  0  0
 23 28  1  0  0  0  0
 26 22  1  6  0  0  0
 26 30  1  0  0  0  0
 27 29  1  0  0  0  0
 27 24  1  1  0  0  0
 27 23  1  0  0  0  0
 28 30  1  0  0  0  0
 29 26  1  0  0  0  0
M  END
>  <MODEL>
2

>  <REMARK>
 VINA RESULT:      -5.9      2.082      3.920
  Name = 
  14 active torsions:
  status: ('A' for Active; 'I' for Inactive)
    1  A    between atoms: C_3  and  C_11
    2  A    between atoms: C_3  and  C_19
    3  A    between atoms: C_4  and  C_13
    4  A    between atoms: C_7  and  C_16
    5  A    between atoms: C_7  and  C_30
    6  A    between atoms: C_8  and  C_12
    7  A    between atoms: C_8  and  C_13
    8  A    between atoms: N_9  and  C_12
    9  A    between atoms: C_10  and  C_15
   10  A    between atoms: C_10  and  N_25
   11  A    between atoms: C_11  and  N_25
   12  A    between atoms: C_13  and  C_30
   13  A    between atoms: C_15  and  C_26
   14  A    between atoms: C_16  and  C_26
                            x       y       z     vdW  Elec       q    Type
                         _______ _______ _______ _____ _____    ______ ____

>  <TORSDO>
F 14

$$$$
=
 OpenBabel11052417143D

 30 30  0  0  1  0  0  0  0  0999 V2000
  191.0060  177.8980  143.1150 C   0  0  0  0  0  2  0  0  0  0  0  0
  191.5230  176.5510  143.5960 C   0  0  0  0  0  2  0  0  0  0  0  0
  193.1160  177.4520  145.1340 O   0  0  0  0  0  1  0  0  0  0  0  0
  191.9710  176.6570  145.0430 C   0  0  2  0  0  3  0  0  0  0  0  0
  192.2080  175.2630  145.6510 C   0  0  2  0  0  3  0  0  0  0  0  0
  191.0900  176.1330  147.7300 C   0  0  0  0  0  1  0  0  0  0  0  0
  191.2010  174.9610  146.7690 C   0  0  0  0  0  3  0  0  0  0  0  0
  189.8180  174.6920  146.1960 C   0  0  0  0  0  1  0  0  0  0  0  0
  193.6460  175.1150  146.1570 C   0  0  0  0  0  2  0  0  0  0  0  0
  194.9280  173.1850  145.5810 O   0  0  0  0  0  1  0  0  0  0  0  0
  194.5240  174.4370  145.1130 C   0  0  2  0  0  3  0  0  0  0  0  0
  194.8680  175.9550  142.6010 O   0  0  0  0  0  0  0  0  0  0  0  0
  195.6960  175.2540  144.8030 N   0  0  0  0  0  2  0  0  0  0  0  0
  195.8560  175.9830  143.5800 C   0  0  0  0  0  0  0  0  0  0  0  0
  196.9030  176.6560  143.3890 O   0  0  0  0  0  1  0  0  0  0  0  0
  189.4950  177.8780  143.0180 C   0  0  0  0  0  2  0  0  0  0  0  0
  189.0050  176.6570  142.2570 C   0  0  0  0  0  2  0  0  0  0  0  0
  187.7740  177.0230  141.4450 C   0  0  0  0  0  2  0  0  0  0  0  0
  187.3200  178.3570  141.8080 N   0  0  0  0  0  2  0  0  0  0  0  0
  185.8680  178.3620  141.7150 C   0  0  1  0  0  3  0  0  0  0  0  0
  185.4510  177.8280  140.3600 C   0  0  0  0  0  1  0  0  0  0  0  0
  185.2750  177.4740  142.8030 C   0  0  0  0  0  2  0  0  0  0  0  0
  186.1720  178.4400  146.8910 C   0  0  1  0  0  3  0  0  0  0  0  0
  188.2960  177.7000  146.1080 F   0  0  0  0  0  0  0  0  0  0  0  0
  186.2980  178.4000  148.2810 O   0  0  0  0  0  1  0  0  0  0  0  0
  185.7090  177.9390  144.1830 C   0  0  2  0  0  3  0  0  0  0  0  0
  186.9840  177.2960  146.2640 C   0  0  2  0  0  3  0  0  0  0  0  0
  184.6980  178.3580  146.5070 C   0  0  0  0  0  2  0  0  0  0  0  0
  186.4250  176.8120  144.9200 C   0  0  0  0  0  2  0  0  0  0  0  0
  184.5030  178.4520  144.9880 C   0  0  0  0  0  2  0  0  0  0  0  0
  1  2  1  0  0  0  0
  2  4  1  0  0  0  0
  4  3  1  6  0  0  0
  4  5  1  0  0  0  0
  5  9  1  1  0  0  0
  5  7  1  0  0  0  0
  7  6  1  0  0  0  0
  8  7  1  0  0  0  0
 11 10  1  1  0  0  0
 11  9  1  0  0  0  0
 12 14  2  0  0  0  0
 13 11  1  0  0  0  0
 14 13  1  0  0  0  0
 15 14  1  0  0  0  0
 16  1  1  0  0  0  0
 17 16  1  0  0  0  0
 18 19  1  0  0  0  0
 18 17  1  0  0  0  0
 20 21  1  6  0  0  0
 20 19  1  0  0  0  0
 20 22  1  0  0  0  0
 23 25  1  1  0  0  0
 26 22  1  6  0  0  0
 26 29  1  0  0  0  0
 26 30  1  0  0  0  0
 27 24  1  6  0  0  0
 27 23  1  0  0  0  0
 28 23  1  0  0  0  0
 29 27  1  0  0  0  0
 30 28  1  0  0  0  0
M  END
>  <MODEL>
3

>  <REMARK>
 VINA RESULT:      -5.7      3.183      4.660
  Name = 
  14 active torsions:
  status: ('A' for Active; 'I' for Inactive)
    1  A    between atoms: C_3  and  C_11
    2  A    between atoms: C_3  and  C_19
    3  A    between atoms: C_4  and  C_13
    4  A    between atoms: C_7  and  C_16
    5  A    between atoms: C_7  and  C_30
    6  A    between atoms: C_8  and  C_12
    7  A    between atoms: C_8  and  C_13
    8  A    between atoms: N_9  and  C_12
    9  A    between atoms: C_10  and  C_15
   10  A    between atoms: C_10  and  N_25
   11  A    between atoms: C_11  and  N_25
   12  A    between atoms: C_13  and  C_30
   13  A    between atoms: C_15  and  C_26
   14  A    between atoms: C_16  and  C_26
                            x       y       z     vdW  Elec       q    Type
                         _______ _______ _______ _____ _____    ______ ____

>  <TORSDO>
F 14

$$$$
=
 OpenBabel11052417143D

 30 30  0  0  1  0  0  0  0  0999 V2000
  189.4380  172.8110  143.2110 C   0  0  0  0  0  2  0  0  0  0  0  0
  190.8880  173.1860  143.4700 C   0  0  0  0  0  2  0  0  0  0  0  0
  192.1580  174.9560  142.4840 O   0  0  0  0  0  1  0  0  0  0  0  0
  191.0690  174.6860  143.3180 C   0  0  2  0  0  3  0  0  0  0  0  0
  191.2320  175.3650  144.6890 C   0  0  2  0  0  3  0  0  0  0  0  0
  189.4830  175.0570  146.4700 C   0  0  0  0  0  1  0  0  0  0  0  0
  189.8840  175.8490  145.2380 C   0  0  0  0  0  3  0  0  0  0  0  0
  189.9510  177.3190  145.6270 C   0  0  0  0  0  1  0  0  0  0  0  0
  192.2410  176.5160  144.6230 C   0  0  0  0  0  2  0  0  0  0  0  0
  193.2040  176.6150  146.8040 O   0  0  0  0  0  1  0  0  0  0  0  0
  193.4590  176.2240  145.4890 C   0  0  2  0  0  3  0  0  0  0  0  0
  195.3510  175.0680  143.5350 O   0  0  0  0  0  0  0  0  0  0  0  0
  194.6410  176.9190  144.9820 N   0  0  0  0  0  2  0  0  0  0  0  0
  195.5550  176.3480  144.0390 C   0  0  0  0  0  0  0  0  0  0  0  0
  196.5550  177.0130  143.6600 O   0  0  0  0  0  1  0  0  0  0  0  0
  188.9750  173.3780  141.8850 C   0  0  0  0  0  2  0  0  0  0  0  0
  187.9080  174.4420  142.0790 C   0  0  0  0  0  2  0  0  0  0  0  0
  188.0900  175.5410  141.0460 C   0  0  0  0  0  2  0  0  0  0  0  0
  187.1540  176.6250  141.3070 N   0  0  0  0  0  2  0  0  0  0  0  0
  187.6770  177.3890  142.4300 C   0  0  1  0  0  3  0  0  0  0  0  0
  189.0770  177.8660  142.1020 C   0  0  0  0  0  1  0  0  0  0  0  0
  186.7880  178.5990  142.6930 C   0  0  0  0  0  2  0  0  0  0  0  0
  185.0870  178.5190  146.6360 C   0  0  1  0  0  3  0  0  0  0  0  0
  186.9760  177.0930  146.9110 F   0  0  0  0  0  0  0  0  0  0  0  0
  184.2910  178.2320  147.7460 O   0  0  0  0  0  1  0  0  0  0  0  0
  186.3440  178.6440  144.1450 C   0  0  2  0  0  3  0  0  0  0  0  0
  185.8140  177.2440  146.1780 C   0  0  2  0  0  3  0  0  0  0  0  0
  184.2250  179.1040  145.5230 C   0  0  0  0  0  2  0  0  0  0  0  0
  186.1400  177.2290  144.6790 C   0  0  0  0  0  2  0  0  0  0  0  0
  185.0650  179.4850  144.2970 C   0  0  0  0  0  2  0  0  0  0  0  0
  1  2  1  0  0  0  0
  4  3  1  6  0  0  0
  4  2  1  0  0  0  0
  4  5  1  0  0  0  0
  5  9  1  6  0  0  0
  5  7  1  0  0  0  0
  7  8  1  0  0  0  0
  7  6  1  0  0  0  0
  9 11  1  0  0  0  0
 11 10  1  1  0  0  0
 12 14  2  0  0  0  0
 13 11  1  0  0  0  0
 14 13  1  0  0  0  0
 15 14  1  0  0  0  0
 16 17  1  0  0  0  0
 16  1  1  0  0  0  0
 18 19  1  0  0  0  0
 18 17  1  0  0  0  0
 19 20  1  0  0  0  0
 20 21  1  6  0  0  0
 20 22  1  0  0  0  0
 23 25  1  1  0  0  0
 26 22  1  6  0  0  0
 26 30  1  0  0  0  0
 26 29  1  0  0  0  0
 27 23  1  0  0  0  0
 27 24  1  1  0  0  0
 28 23  1  0  0  0  0
 29 27  1  0  0  0  0
 30 28  1  0  0  0  0
M  END
>  <MODEL>
4

>  <REMARK>
 VINA RESULT:      -5.6      2.851      5.007
  Name = 
  14 active torsions:
  status: ('A' for Active; 'I' for Inactive)
    1  A    between atoms: C_3  and  C_11
    2  A    between atoms: C_3  and  C_19
    3  A    between atoms: C_4  and  C_13
    4  A    between atoms: C_7  and  C_16
    5  A    between atoms: C_7  and  C_30
    6  A    between atoms: C_8  and  C_12
    7  A    between atoms: C_8  and  C_13
    8  A    between atoms: N_9  and  C_12
    9  A    between atoms: C_10  and  C_15
   10  A    between atoms: C_10  and  N_25
   11  A    between atoms: C_11  and  N_25
   12  A    between atoms: C_13  and  C_30
   13  A    between atoms: C_15  and  C_26
   14  A    between atoms: C_16  and  C_26
                            x       y       z     vdW  Elec       q    Type
                         _______ _______ _______ _____ _____    ______ ____

>  <TORSDO>
F 14

$$$$
=
 OpenBabel11052417143D

 30 30  0  0  1  0  0  0  0  0999 V2000
  188.8590  175.1320  146.7040 C   0  0  0  0  0  2  0  0  0  0  0  0
  188.0330  176.3990  146.8600 C   0  0  0  0  0  2  0  0  0  0  0  0
  188.9670  177.8920  145.2430 O   0  0  0  0  0  1  0  0  0  0  0  0
  187.8650  177.0750  145.5110 C   0  0  2  0  0  3  0  0  0  0  0  0
  186.5500  177.8730  145.4520 C   0  0  2  0  0  3  0  0  0  0  0  0
  186.0050  179.2980  147.4530 C   0  0  0  0  0  1  0  0  0  0  0  0
  185.8640  177.9220  146.8240 C   0  0  0  0  0  3  0  0  0  0  0  0
  184.3800  177.6120  146.7020 C   0  0  0  0  0  1  0  0  0  0  0  0
  185.6040  177.3070  144.3890 C   0  0  0  0  0  2  0  0  0  0  0  0
  185.6060  179.5690  143.6250 O   0  0  0  0  0  1  0  0  0  0  0  0
  185.5060  178.2460  143.1930 C   0  0  2  0  0  3  0  0  0  0  0  0
  185.1980  178.5590  140.2710 O   0  0  0  0  0  0  0  0  0  0  0  0
  184.2470  178.0510  142.4760 N   0  0  0  0  0  2  0  0  0  0  0  0
  184.1070  178.2100  141.0590 C   0  0  0  0  0  0  0  0  0  0  0  0
  182.9820  178.0310  140.5210 O   0  0  0  0  0  1  0  0  0  0  0  0
  190.1690  175.2610  147.4520 C   0  0  0  0  0  2  0  0  0  0  0  0
  191.2500  175.8710  146.5760 C   0  0  0  0  0  2  0  0  0  0  0  0
  192.5570  175.1250  146.7830 C   0  0  0  0  0  2  0  0  0  0  0  0
  192.5810  173.9300  145.9520 N   0  0  0  0  0  2  0  0  0  0  0  0
  192.3400  174.3500  144.5790 C   0  0  1  0  0  3  0  0  0  0  0  0
  193.6580  174.4090  143.8350 C   0  0  0  0  0  1  0  0  0  0  0  0
  191.4210  173.3530  143.8850 C   0  0  0  0  0  2  0  0  0  0  0  0
  188.1280  175.4380  142.0790 C   0  0  1  0  0  3  0  0  0  0  0  0
  187.3280  173.1940  142.0610 F   0  0  0  0  0  0  0  0  0  0  0  0
  187.2930  176.0950  141.1740 O   0  0  0  0  0  1  0  0  0  0  0  0
  190.1560  174.0320  143.3870 C   0  0  2  0  0  3  0  0  0  0  0  0
  188.3630  173.9930  141.6110 C   0  0  2  0  0  3  0  0  0  0  0  0
  189.4400  176.2030  142.2150 C   0  0  0  0  0  2  0  0  0  0  0  0
  189.7060  173.4100  142.0690 C   0  0  0  0  0  2  0  0  0  0  0  0
  190.3740  175.5470  143.2410 C   0  0  0  0  0  2  0  0  0  0  0  0
  1  2  1  0  0  0  0
  1 16  1  0  0  0  0
  4  3  1  1  0  0  0
  4  2  1  0  0  0  0
  5  9  1  6  0  0  0
  5  4  1  0  0  0  0
  5  7  1  0  0  0  0
  7  6  1  0  0  0  0
  8  7  1  0  0  0  0
 11 10  1  1  0  0  0
 11  9  1  0  0  0  0
 12 14  2  0  0  0  0
 13 11  1  0  0  0  0
 14 13  1  0  0  0  0
 15 14  1  0  0  0  0
 17 18  1  0  0  0  0
 17 16  1  0  0  0  0
 19 18  1  0  0  0  0
 20 21  1  6  0  0  0
 20 19  1  0  0  0  0
 22 20  1  0  0  0  0
 23 25  1  6  0  0  0
 23 28  1  0  0  0  0
 26 22  1  6  0  0  0
 27 24  1  1  0  0  0
 27 29  1  0  0  0  0
 27 23  1  0  0  0  0
 28 30  1  0  0  0  0
 29 26  1  0  0  0  0
 30 26  1  0  0  0  0
M  END
>  <MODEL>
5

>  <REMARK>
 VINA RESULT:      -5.6      2.381      6.312
  Name = 
  14 active torsions:
  status: ('A' for Active; 'I' for Inactive)
    1  A    between atoms: C_3  and  C_11
    2  A    between atoms: C_3  and  C_19
    3  A    between atoms: C_4  and  C_13
    4  A    between atoms: C_7  and  C_16
    5  A    between atoms: C_7  and  C_30
    6  A    between atoms: C_8  and  C_12
    7  A    between atoms: C_8  and  C_13
    8  A    between atoms: N_9  and  C_12
    9  A    between atoms: C_10  and  C_15
   10  A    between atoms: C_10  and  N_25
   11  A    between atoms: C_11  and  N_25
   12  A    between atoms: C_13  and  C_30
   13  A    between atoms: C_15  and  C_26
   14  A    between atoms: C_16  and  C_26
                            x       y       z     vdW  Elec       q    Type
                         _______ _______ _______ _____ _____    ______ ____

>  <TORSDO>
F 14

$$$$
=
 OpenBabel11052417143D

 30 30  0  0  1  0  0  0  0  0999 V2000
  190.9040  174.2860  141.6950 C   0  0  0  0  0  2  0  0  0  0  0  0
  191.6620  174.5270  142.9910 C   0  0  0  0  0  2  0  0  0  0  0  0
  193.5630  175.9510  142.7220 O   0  0  0  0  0  1  0  0  0  0  0  0
  192.1970  175.9480  143.0180 C   0  0  2  0  0  3  0  0  0  0  0  0
  191.9180  176.6180  144.3760 C   0  0  2  0  0  3  0  0  0  0  0  0
  190.4630  177.9240  142.7920 C   0  0  0  0  0  1  0  0  0  0  0  0
  190.9370  177.7880  144.2290 C   0  0  0  0  0  3  0  0  0  0  0  0
  189.7120  177.5840  145.1090 C   0  0  0  0  0  1  0  0  0  0  0  0
  193.2160  177.0740  145.0480 C   0  0  0  0  0  2  0  0  0  0  0  0
  194.5940  175.6000  146.3250 O   0  0  0  0  0  1  0  0  0  0  0  0
  193.4230  176.3580  146.3760 C   0  0  2  0  0  3  0  0  0  0  0  0
  191.4030  176.9660  148.4460 O   0  0  0  0  0  1  0  0  0  0  0  0
  192.2840  175.4960  146.6890 N   0  0  0  0  0  2  0  0  0  0  0  0
  191.3130  175.7970  147.6980 C   0  0  0  0  0  0  0  0  0  0  0  0
  190.3670  174.9940  147.9100 O   0  0  0  0  0  0  0  0  0  0  0  0
  189.4130  174.2310  141.9580 C   0  0  0  0  0  2  0  0  0  0  0  0
  188.6190  174.3540  140.6680 C   0  0  0  0  0  2  0  0  0  0  0  0
  187.8170  175.6440  140.6840 C   0  0  0  0  0  2  0  0  0  0  0  0
  187.3660  175.9290  142.0380 N   0  0  0  0  0  2  0  0  0  0  0  0
  186.8450  177.2880  142.0450 C   0  0  1  0  0  3  0  0  0  0  0  0
  186.3690  177.6490  140.6530 C   0  0  0  0  0  1  0  0  0  0  0  0
  185.6710  177.3880  143.0130 C   0  0  0  0  0  2  0  0  0  0  0  0
  186.5320  178.3240  147.1160 C   0  0  1  0  0  3  0  0  0  0  0  0
  187.3380  176.0870  146.9660 F   0  0  0  0  0  0  0  0  0  0  0  0
  186.4270  178.5470  148.4900 O   0  0  0  0  0  1  0  0  0  0  0  0
  186.1510  177.6920  144.4220 C   0  0  2  0  0  3  0  0  0  0  0  0
  186.2010  176.8560  146.8030 C   0  0  2  0  0  3  0  0  0  0  0  0
  185.6080  179.2790  146.3680 C   0  0  0  0  0  2  0  0  0  0  0  0
  185.6270  176.6420  145.3970 C   0  0  0  0  0  2  0  0  0  0  0  0
  185.7270  179.1080  144.8480 C   0  0  0  0  0  2  0  0  0  0  0  0
  1 16  1  0  0  0  0
  1  2  1  0  0  0  0
  2  4  1  0  0  0  0
  4  3  1  1  0  0  0
  4  5  1  0  0  0  0
  5  9  1  6  0  0  0
  6  7  1  0  0  0  0
  7  5  1  0  0  0  0
  7  8  1  0  0  0  0
  9 11  1  0  0  0  0
 11 10  1  6  0  0  0
 11 13  1  0  0  0  0
 13 14  1  0  0  0  0
 14 15  2  0  0  0  0
 14 12  1  0  0  0  0
 17 18  1  0  0  0  0
 17 16  1  0  0  0  0
 18 19  1  0  0  0  0
 19 20  1  0  0  0  0
 20 21  1  6  0  0  0
 20 22  1  0  0  0  0
 23 25  1  1  0  0  0
 26 22  1  6  0  0  0
 26 30  1  0  0  0  0
 26 29  1  0  0  0  0
 27 24  1  6  0  0  0
 27 23  1  0  0  0  0
 28 23  1  0  0  0  0
 29 27  1  0  0  0  0
 30 28  1  0  0  0  0
M  END
>  <MODEL>
6

>  <REMARK>
 VINA RESULT:      -5.6      2.824      5.088
  Name = 
  14 active torsions:
  status: ('A' for Active; 'I' for Inactive)
    1  A    between atoms: C_3  and  C_11
    2  A    between atoms: C_3  and  C_19
    3  A    between atoms: C_4  and  C_13
    4  A    between atoms: C_7  and  C_16
    5  A    between atoms: C_7  and  C_30
    6  A    between atoms: C_8  and  C_12
    7  A    between atoms: C_8  and  C_13
    8  A    between atoms: N_9  and  C_12
    9  A    between atoms: C_10  and  C_15
   10  A    between atoms: C_10  and  N_25
   11  A    between atoms: C_11  and  N_25
   12  A    between atoms: C_13  and  C_30
   13  A    between atoms: C_15  and  C_26
   14  A    between atoms: C_16  and  C_26
                            x       y       z     vdW  Elec       q    Type
                         _______ _______ _______ _____ _____    ______ ____

>  <TORSDO>
F 14

$$$$
=
 OpenBabel11052417143D

 30 30  0  0  1  0  0  0  0  0999 V2000
  189.5820  177.5350  145.4630 C   0  0  0  0  0  2  0  0  0  0  0  0
  190.2570  176.6610  144.4190 C   0  0  0  0  0  2  0  0  0  0  0  0
  191.8300  177.3490  142.7550 O   0  0  0  0  0  1  0  0  0  0  0  0
  191.6530  177.1840  144.1320 C   0  0  2  0  0  3  0  0  0  0  0  0
  192.7250  176.2540  144.7260 C   0  0  2  0  0  3  0  0  0  0  0  0
  192.4180  175.0180  146.8960 C   0  0  0  0  0  1  0  0  0  0  0  0
  192.7640  176.3520  146.2570 C   0  0  0  0  0  3  0  0  0  0  0  0
  194.1490  176.7580  146.7400 C   0  0  0  0  0  1  0  0  0  0  0  0
  194.1040  176.5400  144.1240 C   0  0  0  0  0  2  0  0  0  0  0  0
  195.2880  174.4670  144.1230 O   0  0  0  0  0  1  0  0  0  0  0  0
  194.5950  175.3570  143.3010 C   0  0  2  0  0  3  0  0  0  0  0  0
  194.5500  174.2080  140.5780 O   0  0  0  0  0  1  0  0  0  0  0  0
  195.4600  175.8010  142.2090 N   0  0  0  0  0  2  0  0  0  0  0  0
  195.4340  175.2350  140.8930 C   0  0  0  0  0  0  0  0  0  0  0  0
  196.2200  175.6710  140.0120 O   0  0  0  0  0  0  0  0  0  0  0  0
  188.1020  177.2190  145.5400 C   0  0  0  0  0  2  0  0  0  0  0  0
  187.7470  176.5480  146.8560 C   0  0  0  0  0  2  0  0  0  0  0  0
  186.2560  176.6870  147.1130 C   0  0  0  0  0  2  0  0  0  0  0  0
  185.5560  176.9060  145.8560 N   0  0  0  0  0  2  0  0  0  0  0  0
  184.5170  177.8950  146.1030 C   0  0  1  0  0  3  0  0  0  0  0  0
  184.7900  178.5880  147.4220 C   0  0  0  0  0  1  0  0  0  0  0  0
  184.5150  178.9340  144.9880 C   0  0  0  0  0  2  0  0  0  0  0  0
  185.8060  177.6850  141.0860 C   0  0  1  0  0  3  0  0  0  0  0  0
  187.8710  177.7250  142.2720 F   0  0  0  0  0  0  0  0  0  0  0  0
  186.1930  177.6670  139.7440 O   0  0  0  0  0  1  0  0  0  0  0  0
  185.0300  178.3390  143.6870 C   0  0  2  0  0  3  0  0  0  0  0  0
  186.8040  178.5220  141.9010 C   0  0  2  0  0  3  0  0  0  0  0  0
  184.3870  178.2330  141.2020 C   0  0  0  0  0  2  0  0  0  0  0  0
  186.1860  179.1730  143.1450 C   0  0  0  0  0  2  0  0  0  0  0  0
  183.8950  178.2240  142.6560 C   0  0  0  0  0  2  0  0  0  0  0  0
  1 16  1  0  0  0  0
  2  1  1  0  0  0  0
  4  3  1  6  0  0  0
  4  2  1  0  0  0  0
  4  5  1  0  0  0  0
  5  9  1  6  0  0  0
  5  7  1  0  0  0  0
  7  8  1  0  0  0  0
  7  6  1  0  0  0  0
 11 10  1  1  0  0  0
 11  9  1  0  0  0  0
 12 14  1  0  0  0  0
 13 11  1  0  0  0  0
 14 13  1  0  0  0  0
 15 14  2  0  0  0  0
 16 17  1  0  0  0  0
 17 18  1  0  0  0  0
 19 20  1  0  0  0  0
 19 18  1  0  0  0  0
 20 21  1  1  0  0  0
 22 20  1  0  0  0  0
 23 25  1  6  0  0  0
 23 28  1  0  0  0  0
 23 27  1  0  0  0  0
 26 22  1  1  0  0  0
 27 24  1  1  0  0  0
 27 29  1  0  0  0  0
 28 30  1  0  0  0  0
 29 26  1  0  0  0  0
 30 26  1  0  0  0  0
M  END
>  <MODEL>
7

>  <REMARK>
 VINA RESULT:      -5.5      2.259      2.876
  Name = 
  14 active torsions:
  status: ('A' for Active; 'I' for Inactive)
    1  A    between atoms: C_3  and  C_11
    2  A    between atoms: C_3  and  C_19
    3  A    between atoms: C_4  and  C_13
    4  A    between atoms: C_7  and  C_16
    5  A    between atoms: C_7  and  C_30
    6  A    between atoms: C_8  and  C_12
    7  A    between atoms: C_8  and  C_13
    8  A    between atoms: N_9  and  C_12
    9  A    between atoms: C_10  and  C_15
   10  A    between atoms: C_10  and  N_25
   11  A    between atoms: C_11  and  N_25
   12  A    between atoms: C_13  and  C_30
   13  A    between atoms: C_15  and  C_26
   14  A    between atoms: C_16  and  C_26
                            x       y       z     vdW  Elec       q    Type
                         _______ _______ _______ _____ _____    ______ ____

>  <TORSDO>
F 14

$$$$
=
 OpenBabel11052417143D

 30 30  0  0  1  0  0  0  0  0999 V2000
  189.8730  177.9600  144.6670 C   0  0  0  0  0  2  0  0  0  0  0  0
  190.4780  177.0980  145.7640 C   0  0  0  0  0  2  0  0  0  0  0  0
  189.6280  174.9130  146.2310 O   0  0  0  0  0  1  0  0  0  0  0  0
  190.4390  175.6370  145.3530 C   0  0  2  0  0  3  0  0  0  0  0  0
  191.8580  175.0440  145.2840 C   0  0  2  0  0  3  0  0  0  0  0  0
  193.8970  175.8950  146.4880 C   0  0  0  0  0  1  0  0  0  0  0  0
  192.9270  176.1430  145.3450 C   0  0  0  0  0  3  0  0  0  0  0  0
  193.7280  176.1950  144.0530 C   0  0  0  0  0  1  0  0  0  0  0  0
  192.0370  174.1760  144.0350 C   0  0  0  0  0  2  0  0  0  0  0  0
  193.0770  172.2880  145.0610 O   0  0  0  0  0  1  0  0  0  0  0  0
  191.9290  172.6970  144.3800 C   0  0  2  0  0  3  0  0  0  0  0  0
  189.3120  172.1660  143.1130 O   0  0  0  0  0  1  0  0  0  0  0  0
  191.7510  171.8890  143.1750 N   0  0  0  0  0  2  0  0  0  0  0  0
  190.4770  171.6330  142.5710 C   0  0  0  0  0  0  0  0  0  0  0  0
  190.4110  170.9180  141.5360 O   0  0  0  0  0  0  0  0  0  0  0  0
  189.9750  177.2590  143.3290 C   0  0  0  0  0  2  0  0  0  0  0  0
  189.2760  178.0490  142.2350 C   0  0  0  0  0  2  0  0  0  0  0  0
  188.2010  177.1900  141.5930 C   0  0  0  0  0  2  0  0  0  0  0  0
  187.1880  178.0400  140.9830 N   0  0  0  0  0  2  0  0  0  0  0  0
  186.0500  178.0790  141.8900 C   0  0  1  0  0  3  0  0  0  0  0  0
  184.7720  178.1810  141.0850 C   0  0  0  0  0  1  0  0  0  0  0  0
  186.0100  176.8060  142.7270 C   0  0  0  0  0  2  0  0  0  0  0  0
  185.4820  177.8710  146.8540 C   0  0  1  0  0  3  0  0  0  0  0  0
  183.8020  179.1980  145.8090 F   0  0  0  0  0  0  0  0  0  0  0  0
  185.6220  178.4480  148.1180 O   0  0  0  0  0  1  0  0  0  0  0  0
  185.6540  177.1140  144.1720 C   0  0  2  0  0  3  0  0  0  0  0  0
  185.1640  178.9620  145.8200 C   0  0  2  0  0  3  0  0  0  0  0  0
  186.7530  177.1100  146.4940 C   0  0  0  0  0  2  0  0  0  0  0  0
  185.6430  178.6220  144.4020 C   0  0  0  0  0  2  0  0  0  0  0  0
  186.6280  176.4120  145.1330 C   0  0  0  0  0  2  0  0  0  0  0  0
  1  2  1  0  0  0  0
  4  2  1  0  0  0  0
  4  3  1  1  0  0  0
  5  9  1  6  0  0  0
  5  7  1  0  0  0  0
  5  4  1  0  0  0  0
  7  6  1  0  0  0  0
  8  7  1  0  0  0  0
  9 11  1  0  0  0  0
 11 10  1  6  0  0  0
 13 11  1  0  0  0  0
 14 12  1  0  0  0  0
 14 13  1  0  0  0  0
 15 14  2  0  0  0  0
 16  1  1  0  0  0  0
 17 16  1  0  0  0  0
 18 17  1  0  0  0  0
 19 18  1  0  0  0  0
 19 20  1  0  0  0  0
 20 21  1  6  0  0  0
 20 22  1  0  0  0  0
 23 25  1  1  0  0  0
 26 22  1  6  0  0  0
 26 29  1  0  0  0  0
 26 30  1  0  0  0  0
 27 24  1  6  0  0  0
 27 23  1  0  0  0  0
 28 23  1  0  0  0  0
 29 27  1  0  0  0  0
 30 28  1  0  0  0  0
M  END
>  <MODEL>
8

>  <REMARK>
 VINA RESULT:      -5.4      2.580      3.998
  Name = 
  14 active torsions:
  status: ('A' for Active; 'I' for Inactive)
    1  A    between atoms: C_3  and  C_11
    2  A    between atoms: C_3  and  C_19
    3  A    between atoms: C_4  and  C_13
    4  A    between atoms: C_7  and  C_16
    5  A    between atoms: C_7  and  C_30
    6  A    between atoms: C_8  and  C_12
    7  A    between atoms: C_8  and  C_13
    8  A    between atoms: N_9  and  C_12
    9  A    between atoms: C_10  and  C_15
   10  A    between atoms: C_10  and  N_25
   11  A    between atoms: C_11  and  N_25
   12  A    between atoms: C_13  and  C_30
   13  A    between atoms: C_15  and  C_26
   14  A    between atoms: C_16  and  C_26
                            x       y       z     vdW  Elec       q    Type
                         _______ _______ _______ _____ _____    ______ ____

>  <TORSDO>
F 14

$$$$
=
 OpenBabel11052417143D

 30 30  0  0  1  0  0  0  0  0999 V2000
  189.3420  177.2270  142.8490 C   0  0  0  0  0  2  0  0  0  0  0  0
  189.4370  177.5940  144.3220 C   0  0  0  0  0  2  0  0  0  0  0  0
  191.7700  177.2820  143.9030 O   0  0  0  0  0  1  0  0  0  0  0  0
  190.7780  177.1490  144.8780 C   0  0  2  0  0  3  0  0  0  0  0  0
  190.7050  175.7060  145.4090 C   0  0  2  0  0  3  0  0  0  0  0  0
  192.8610  175.5520  146.6970 C   0  0  0  0  0  1  0  0  0  0  0  0
  191.3450  175.5890  146.7990 C   0  0  0  0  0  3  0  0  0  0  0  0
  190.9630  176.7730  147.6750 C   0  0  0  0  0  1  0  0  0  0  0  0
  191.3450  174.7200  144.4280 C   0  0  0  0  0  2  0  0  0  0  0  0
  189.7350  173.0610  145.0200 O   0  0  0  0  0  1  0  0  0  0  0  0
  190.3240  173.7060  143.9310 C   0  0  2  0  0  3  0  0  0  0  0  0
  189.5440  173.2740  141.1140 O   0  0  0  0  0  1  0  0  0  0  0  0
  190.9490  172.7220  143.0490 N   0  0  0  0  0  2  0  0  0  0  0  0
  190.5600  172.5160  141.6850 C   0  0  0  0  0  0  0  0  0  0  0  0
  191.1460  171.6400  140.9960 O   0  0  0  0  0  0  0  0  0  0  0  0
  188.5270  178.2600  142.1000 C   0  0  0  0  0  2  0  0  0  0  0  0
  187.8230  177.6470  140.9010 C   0  0  0  0  0  2  0  0  0  0  0  0
  186.4070  177.2550  141.2870 C   0  0  0  0  0  2  0  0  0  0  0  0
  185.5590  178.4370  141.3220 N   0  0  0  0  0  2  0  0  0  0  0  0
  184.8010  178.3920  142.5640 C   0  0  1  0  0  3  0  0  0  0  0  0
  183.3230  178.3000  142.2460 C   0  0  0  0  0  1  0  0  0  0  0  0
  185.2110  177.1700  143.3770 C   0  0  0  0  0  2  0  0  0  0  0  0
  186.6680  178.4310  147.2160 C   0  0  1  0  0  3  0  0  0  0  0  0
  187.4160  176.1700  147.1510 F   0  0  0  0  0  0  0  0  0  0  0  0
  186.7660  178.7740  148.5660 O   0  0  0  0  0  1  0  0  0  0  0  0
  185.8940  177.5810  144.6710 C   0  0  2  0  0  3  0  0  0  0  0  0
  186.2770  176.9500  147.0850 C   0  0  2  0  0  3  0  0  0  0  0  0
  185.6580  179.3420  146.5270 C   0  0  0  0  0  2  0  0  0  0  0  0
  185.5020  176.6320  145.8000 C   0  0  0  0  0  2  0  0  0  0  0  0
  185.5540  179.0380  145.0260 C   0  0  0  0  0  2  0  0  0  0  0  0
  1  2  1  0  0  0  0
  2  4  1  0  0  0  0
  4  3  1  6  0  0  0
  4  5  1  0  0  0  0
  5  9  1  6  0  0  0
  5  7  1  0  0  0  0
  6  7  1  0  0  0  0
  7  8  1  0  0  0  0
 11  9  1  0  0  0  0
 11 10  1  1  0  0  0
 12 14  1  0  0  0  0
 13 11  1  0  0  0  0
 14 13  1  0  0  0  0
 15 14  2  0  0  0  0
 16  1  1  0  0  0  0
 17 18  1  0  0  0  0
 17 16  1  0  0  0  0
 18 19  1  0  0  0  0
 19 20  1  0  0  0  0
 20 21  1  6  0  0  0
 20 22  1  0  0  0  0
 23 25  1  1  0  0  0
 26 22  1  6  0  0  0
 26 30  1  0  0  0  0
 26 29  1  0  0  0  0
 27 24  1  6  0  0  0
 27 23  1  0  0  0  0
 28 23  1  0  0  0  0
 29 27  1  0  0  0  0
 30 28  1  0  0  0  0
M  END
>  <MODEL>
9

>  <REMARK>
 VINA RESULT:      -5.4      2.256      3.829
  Name = 
  14 active torsions:
  status: ('A' for Active; 'I' for Inactive)
    1  A    between atoms: C_3  and  C_11
    2  A    between atoms: C_3  and  C_19
    3  A    between atoms: C_4  and  C_13
    4  A    between atoms: C_7  and  C_16
    5  A    between atoms: C_7  and  C_30
    6  A    between atoms: C_8  and  C_12
    7  A    between atoms: C_8  and  C_13
    8  A    between atoms: N_9  and  C_12
    9  A    between atoms: C_10  and  C_15
   10  A    between atoms: C_10  and  N_25
   11  A    between atoms: C_11  and  N_25
   12  A    between atoms: C_13  and  C_30
   13  A    between atoms: C_15  and  C_26
   14  A    between atoms: C_16  and  C_26
                            x       y       z     vdW  Elec       q    Type
                         _______ _______ _______ _____ _____    ______ ____

>  <TORSDO>
F 14

$$$$
