=
 OpenBabel11052418243D

 27 31  0  0  1  0  0  0  0  0999 V2000
  188.5210  175.6260  145.7700 C   0  0  0  0  0  2  0  0  0  0  0  0
  187.4640  176.0390  143.7360 C   0  0  2  0  0  3  0  0  0  0  0  0
  189.7970  175.2520  143.1990 N   0  0  0  0  0  2  0  0  0  0  0  0
  187.3290  176.0860  139.0850 C   0  0  0  0  0  3  0  0  0  0  0  0
  188.3990  174.1860  138.0310 C   0  0  0  0  0  1  0  0  0  0  0  0
  187.0420  176.9790  142.6940 N   0  0  0  0  0  2  0  0  0  0  0  0
  188.4060  174.4690  140.4720 C   0  0  0  0  0  0  0  0  0  0  0  0
  192.8620  176.0220  144.7640 C   0  0  0  0  0  3  0  0  0  0  0  0
  189.0740  173.4070  140.6020 O   0  0  0  0  0  0  0  0  0  0  0  0
  192.8730  176.4130  146.0360 C   0  0  0  0  0  3  0  0  0  0  0  0
  188.0300  175.2070  141.5960 C   0  0  0  0  0  0  0  0  0  0  0  0
  188.1000  176.7120  144.8830 N   0  0  1  0  0  0  0  0  0  0  0  0
  188.0370  174.9240  139.2310 N   0  0  0  0  0  0  0  0  0  0  0  0
  187.3270  176.3670  141.4550 C   0  0  0  0  0  0  0  0  0  0  0  0
  189.9880  175.3950  145.6310 C   0  0  0  0  0  0  0  0  0  0  0  0
  188.3690  174.9800  143.0270 C   0  0  2  0  0  3  0  0  0  0  0  0
  192.0110  174.8950  144.2830 C   0  0  0  0  0  2  0  0  0  0  0  0
  186.9550  176.8450  140.2030 C   0  0  0  0  0  3  0  0  0  0  0  0
  191.9970  175.8560  147.0830 C   0  0  0  0  0  3  0  0  0  0  0  0
  190.7490  175.4060  146.9010 C   0  0  0  0  0  3  0  0  0  0  0  0
  190.5540  175.1990  144.4190 C   0  0  0  0  0  0  0  0  0  0  0  0
  185.2590  178.8360  147.2470 C   0  0  0  0  0  2  0  0  0  0  0  0
  187.0990  177.5320  145.6000 C   0  0  0  0  0  3  0  0  0  0  0  0
  187.6110  177.9300  147.0010 C   0  0  0  0  0  2  0  0  0  0  0  0
  186.5030  178.3460  147.9800 C   0  0  0  0  0  2  0  0  0  0  0  0
  184.6810  177.7370  146.3470 C   0  0  0  0  0  2  0  0  0  0  0  0
  185.7510  176.8050  145.7630 C   0  0  0  0  0  2  0  0  0  0  0  0
  2  6  1  6  0  0  0
  2 12  1  0  0  0  0
  3 21  1  0  0  0  0
  4 13  1  0  0  0  0
  4 18  2  0  0  0  0
  5 13  1  0  0  0  0
  7  9  2  0  0  0  0
  7 11  1  0  0  0  0
  8 10  2  0  0  0  0
 10 19  1  0  0  0  0
 12 23  1  1  0  0  0
 12  1  1  0  0  0  0
 13  7  1  0  0  0  0
 14 11  2  0  0  0  0
 14  6  1  0  0  0  0
 15  1  1  0  0  0  0
 15 20  1  0  0  0  0
 16 11  1  6  0  0  0
 16  3  1  0  0  0  0
 16  2  1  0  0  0  0
 17 21  1  0  0  0  0
 17  8  1  0  0  0  0
 18 14  1  0  0  0  0
 20 19  2  0  0  0  0
 21 15  2  0  0  0  0
 22 25  1  0  0  0  0
 23 27  1  0  0  0  0
 23 24  1  0  0  0  0
 24 25  1  0  0  0  0
 26 22  1  0  0  0  0
 27 26  1  0  0  0  0
M  END
>  <MODEL>
1

>  <REMARK>
 VINA RESULT:      -7.8      0.000      0.000
  Name = 
  1 active torsions:
  status: ('A' for Active; 'I' for Inactive)
    1  A    between atoms: C_9  and  N_15
                            x       y       z     vdW  Elec       q    Type
                         _______ _______ _______ _____ _____    ______ ____

>  <TORSDO>
F 1

$$$$
=
 OpenBabel11052418243D

 27 31  0  0  1  0  0  0  0  0999 V2000
  186.5150  176.5290  144.0790 C   0  0  0  0  0  2  0  0  0  0  0  0
  188.7590  176.5100  143.4550 C   0  0  2  0  0  3  0  0  0  0  0  0
  188.7000  176.8550  145.9510 N   0  0  0  0  0  2  0  0  0  0  0  0
  193.3130  176.6690  144.4030 C   0  0  0  0  0  3  0  0  0  0  0  0
  193.9620  175.4780  146.4090 C   0  0  0  0  0  1  0  0  0  0  0  0
  189.9330  177.2050  142.9210 N   0  0  0  0  0  2  0  0  0  0  0  0
  191.6080  175.6430  145.7210 C   0  0  0  0  0  0  0  0  0  0  0  0
  186.5410  178.8400  147.9100 C   0  0  0  0  0  3  0  0  0  0  0  0
  191.2560  174.9810  146.7360 O   0  0  0  0  0  0  0  0  0  0  0  0
  185.3290  179.1460  147.4510 C   0  0  0  0  0  3  0  0  0  0  0  0
  190.6520  176.0950  144.8100 C   0  0  0  0  0  0  0  0  0  0  0  0
  187.5490  177.3500  143.4440 N   0  0  1  0  0  0  0  0  0  0  0  0
  192.9290  175.9340  145.4910 N   0  0  0  0  0  0  0  0  0  0  0  0
  191.0300  176.8300  143.7240 C   0  0  0  0  0  0  0  0  0  0  0  0
  186.3030  176.9750  145.4860 C   0  0  0  0  0  0  0  0  0  0  0  0
  189.1700  175.9870  144.8700 C   0  0  2  0  0  3  0  0  0  0  0  0
  187.1210  177.4710  147.7760 C   0  0  0  0  0  2  0  0  0  0  0  0
  192.3630  177.1420  143.4840 C   0  0  0  0  0  3  0  0  0  0  0  0
  184.4710  178.2200  146.6900 C   0  0  0  0  0  3  0  0  0  0  0  0
  184.8980  177.2720  145.8460 C   0  0  0  0  0  3  0  0  0  0  0  0
  187.3390  177.0950  146.3460 C   0  0  0  0  0  0  0  0  0  0  0  0
  186.0340  177.9240  139.5010 C   0  0  0  0  0  2  0  0  0  0  0  0
  187.1350  177.6160  142.0490 C   0  0  0  0  0  3  0  0  0  0  0  0
  185.7100  178.2060  141.9980 C   0  0  0  0  0  2  0  0  0  0  0  0
  185.0200  178.0650  140.6320 C   0  0  0  0  0  2  0  0  0  0  0  0
  186.9110  176.6810  139.6990 C   0  0  0  0  0  2  0  0  0  0  0  0
  187.1690  176.3490  141.1740 C   0  0  0  0  0  2  0  0  0  0  0  0
  1 15  1  0  0  0  0
  2  6  1  1  0  0  0
  2 16  1  0  0  0  0
  3 21  1  0  0  0  0
  4 13  1  0  0  0  0
  6 14  1  0  0  0  0
  7  9  2  0  0  0  0
 10  8  2  0  0  0  0
 11  7  1  0  0  0  0
 12 23  1  6  0  0  0
 12  2  1  0  0  0  0
 12  1  1  0  0  0  0
 13  7  1  0  0  0  0
 13  5  1  0  0  0  0
 14 11  2  0  0  0  0
 15 20  1  0  0  0  0
 15 21  2  0  0  0  0
 16 11  1  6  0  0  0
 16  3  1  0  0  0  0
 17  8  1  0  0  0  0
 18 14  1  0  0  0  0
 18  4  2  0  0  0  0
 19 10  1  0  0  0  0
 20 19  2  0  0  0  0
 21 17  1  0  0  0  0
 22 26  1  0  0  0  0
 22 25  1  0  0  0  0
 24 23  1  0  0  0  0
 25 24  1  0  0  0  0
 26 27  1  0  0  0  0
 27 23  1  0  0  0  0
M  END
>  <MODEL>
2

>  <REMARK>
 VINA RESULT:      -7.8      2.062      5.976
  Name = 
  1 active torsions:
  status: ('A' for Active; 'I' for Inactive)
    1  A    between atoms: C_9  and  N_15
                            x       y       z     vdW  Elec       q    Type
                         _______ _______ _______ _____ _____    ______ ____

>  <TORSDO>
F 1

$$$$
=
 OpenBabel11052418243D

 27 31  0  0  1  0  0  0  0  0999 V2000
  188.6670  175.4560  145.1060 C   0  0  0  0  0  2  0  0  0  0  0  0
  188.4550  174.7730  142.8900 C   0  0  2  0  0  3  0  0  0  0  0  0
  190.6550  173.8700  143.7240 N   0  0  0  0  0  2  0  0  0  0  0  0
  189.9220  172.4790  139.1160 C   0  0  0  0  0  3  0  0  0  0  0  0
  190.9350  170.3290  139.5790 C   0  0  0  0  0  1  0  0  0  0  0  0
  188.5850  175.0540  141.4580 N   0  0  0  0  0  2  0  0  0  0  0  0
  190.1600  171.7980  141.3910 C   0  0  0  0  0  0  0  0  0  0  0  0
  193.0890  175.3830  145.7790 C   0  0  0  0  0  3  0  0  0  0  0  0
  190.5470  170.9580  142.2490 O   0  0  0  0  0  0  0  0  0  0  0  0
  192.7340  176.3580  146.6130 C   0  0  0  0  0  3  0  0  0  0  0  0
  189.5600  172.9920  141.7950 C   0  0  0  0  0  0  0  0  0  0  0  0
  188.7700  175.9430  143.7290 N   0  0  1  0  0  0  0  0  0  0  0  0
  190.3220  171.5620  140.0490 N   0  0  0  0  0  0  0  0  0  0  0  0
  189.1620  173.9100  140.8680 C   0  0  0  0  0  0  0  0  0  0  0  0
  190.0290  175.2160  145.6660 C   0  0  0  0  0  0  0  0  0  0  0  0
  189.3470  173.5190  143.1690 C   0  0  2  0  0  3  0  0  0  0  0  0
  192.2680  174.1490  145.6010 C   0  0  0  0  0  2  0  0  0  0  0  0
  189.3290  173.6890  139.5060 C   0  0  0  0  0  3  0  0  0  0  0  0
  191.4710  176.3830  147.3720 C   0  0  0  0  0  3  0  0  0  0  0  0
  190.3010  175.8770  146.9620 C   0  0  0  0  0  3  0  0  0  0  0  0
  190.9290  174.4510  145.0100 C   0  0  0  0  0  0  0  0  0  0  0  0
  185.6740  178.8640  143.5020 C   0  0  0  0  0  2  0  0  0  0  0  0
  187.7450  176.9910  143.5320 C   0  0  0  0  0  3  0  0  0  0  0  0
  187.6510  177.9120  144.7660 C   0  0  0  0  0  2  0  0  0  0  0  0
  186.3350  178.6980  144.8670 C   0  0  0  0  0  2  0  0  0  0  0  0
  185.3450  177.5010  142.8790 C   0  0  0  0  0  2  0  0  0  0  0  0
  186.3480  176.4040  143.2560 C   0  0  0  0  0  2  0  0  0  0  0  0
  1 15  1  0  0  0  0
  2  6  1  6  0  0  0
  2 16  1  0  0  0  0
  2 12  1  0  0  0  0
  3 21  1  0  0  0  0
  4 18  2  0  0  0  0
  4 13  1  0  0  0  0
  5 13  1  0  0  0  0
  7 11  1  0  0  0  0
  7  9  2  0  0  0  0
  8 10  2  0  0  0  0
 10 19  1  0  0  0  0
 12 23  1  1  0  0  0
 12  1  1  0  0  0  0
 13  7  1  0  0  0  0
 14  6  1  0  0  0  0
 14 11  2  0  0  0  0
 15 20  1  0  0  0  0
 16 11  1  6  0  0  0
 16  3  1  0  0  0  0
 17  8  1  0  0  0  0
 18 14  1  0  0  0  0
 20 19  2  0  0  0  0
 21 17  1  0  0  0  0
 21 15  2  0  0  0  0
 22 25  1  0  0  0  0
 23 24  1  0  0  0  0
 24 25  1  0  0  0  0
 26 27  1  0  0  0  0
 26 22  1  0  0  0  0
 27 23  1  0  0  0  0
M  END
>  <MODEL>
3

>  <REMARK>
 VINA RESULT:      -7.6      2.096      2.689
  Name = 
  1 active torsions:
  status: ('A' for Active; 'I' for Inactive)
    1  A    between atoms: C_9  and  N_15
                            x       y       z     vdW  Elec       q    Type
                         _______ _______ _______ _____ _____    ______ ____

>  <TORSDO>
F 1

$$$$
=
 OpenBabel11052418243D

 27 31  0  0  1  0  0  0  0  0999 V2000
  188.7710  176.5130  143.1830 C   0  0  0  0  0  2  0  0  0  0  0  0
  190.5950  176.9620  144.5600 C   0  0  2  0  0  3  0  0  0  0  0  0
  191.2320  174.9900  143.1250 N   0  0  0  0  0  2  0  0  0  0  0  0
  194.9410  176.2000  146.0380 C   0  0  0  0  0  3  0  0  0  0  0  0
  196.5220  175.6800  144.2790 C   0  0  0  0  0  1  0  0  0  0  0  0
  191.2700  176.8280  145.8530 N   0  0  0  0  0  2  0  0  0  0  0  0
  194.1380  176.0310  143.7970 C   0  0  0  0  0  0  0  0  0  0  0  0
  189.3170  172.1980  142.1360 C   0  0  0  0  0  3  0  0  0  0  0  0
  194.3440  175.8100  142.5720 O   0  0  0  0  0  0  0  0  0  0  0  0
  187.9900  172.2910  142.0930 C   0  0  0  0  0  3  0  0  0  0  0  0
  192.8520  176.3300  144.2510 C   0  0  0  0  0  0  0  0  0  0  0  0
  189.2500  176.3580  144.5580 N   0  0  1  0  0  0  0  0  0  0  0  0
  195.1640  175.9800  144.7060 N   0  0  0  0  0  0  0  0  0  0  0  0
  192.6250  176.5480  145.5780 C   0  0  0  0  0  0  0  0  0  0  0  0
  188.8930  175.2190  142.4510 C   0  0  0  0  0  0  0  0  0  0  0  0
  191.5720  176.3650  143.4950 C   0  0  2  0  0  3  0  0  0  0  0  0
  190.2090  173.2820  141.6280 C   0  0  0  0  0  2  0  0  0  0  0  0
  193.6530  176.4890  146.5130 C   0  0  0  0  0  3  0  0  0  0  0  0
  187.2550  173.4840  141.6370 C   0  0  0  0  0  3  0  0  0  0  0  0
  187.6560  174.7540  141.7860 C   0  0  0  0  0  3  0  0  0  0  0  0
  190.0630  174.5410  142.4200 C   0  0  0  0  0  0  0  0  0  0  0  0
  186.4130  178.2910  147.0850 C   0  0  0  0  0  2  0  0  0  0  0  0
  188.3540  177.1270  145.4480 C   0  0  0  0  0  3  0  0  0  0  0  0
  187.8180  176.2410  146.5930 C   0  0  0  0  0  2  0  0  0  0  0  0
  186.5450  176.7810  147.2630 C   0  0  0  0  0  2  0  0  0  0  0  0
  186.3410  178.6670  145.6000 C   0  0  0  0  0  2  0  0  0  0  0  0
  187.1530  177.7300  144.6960 C   0  0  0  0  0  2  0  0  0  0  0  0
  1 12  1  0  0  0  0
  2  6  1  1  0  0  0
  4 18  2  0  0  0  0
  5 13  1  0  0  0  0
  7 11  1  0  0  0  0
  7 13  1  0  0  0  0
  9  7  2  0  0  0  0
 10  8  2  0  0  0  0
 11 14  2  0  0  0  0
 12  2  1  0  0  0  0
 12 23  1  1  0  0  0
 13  4  1  0  0  0  0
 14  6  1  0  0  0  0
 14 18  1  0  0  0  0
 15  1  1  0  0  0  0
 16  3  1  1  0  0  0
 16 11  1  0  0  0  0
 16  2  1  0  0  0  0
 17  8  1  0  0  0  0
 17 21  1  0  0  0  0
 19 20  2  0  0  0  0
 19 10  1  0  0  0  0
 20 15  1  0  0  0  0
 21 15  2  0  0  0  0
 21  3  1  0  0  0  0
 22 25  1  0  0  0  0
 23 24  1  0  0  0  0
 24 25  1  0  0  0  0
 26 22  1  0  0  0  0
 27 23  1  0  0  0  0
 27 26  1  0  0  0  0
M  END
>  <MODEL>
4

>  <REMARK>
 VINA RESULT:      -7.4      2.387      5.559
  Name = 
  1 active torsions:
  status: ('A' for Active; 'I' for Inactive)
    1  A    between atoms: C_9  and  N_15
                            x       y       z     vdW  Elec       q    Type
                         _______ _______ _______ _____ _____    ______ ____

>  <TORSDO>
F 1

$$$$
=
 OpenBabel11052418243D

 27 31  0  0  1  0  0  0  0  0999 V2000
  189.1760  177.5330  145.1950 C   0  0  0  0  0  2  0  0  0  0  0  0
  189.4240  176.3920  143.1790 C   0  0  2  0  0  3  0  0  0  0  0  0
  187.0100  177.1020  143.3230 N   0  0  0  0  0  2  0  0  0  0  0  0
  187.8160  174.7760  139.1220 C   0  0  0  0  0  3  0  0  0  0  0  0
  186.3020  176.2760  137.9740 C   0  0  0  0  0  1  0  0  0  0  0  0
  189.4900  175.1310  142.4350 N   0  0  0  0  0  2  0  0  0  0  0  0
  187.2260  176.8310  140.1830 C   0  0  0  0  0  0  0  0  0  0  0  0
  184.8120  177.1040  146.0810 C   0  0  0  0  0  3  0  0  0  0  0  0
  186.5830  177.9160  140.1890 O   0  0  0  0  0  0  0  0  0  0  0  0
  185.3040  177.1670  147.3160 C   0  0  0  0  0  3  0  0  0  0  0  0
  188.0440  176.4910  141.2620 C   0  0  0  0  0  0  0  0  0  0  0  0
  189.3110  176.1860  144.6340 N   0  0  1  0  0  0  0  0  0  0  0  0
  187.1360  175.9630  139.1240 N   0  0  0  0  0  0  0  0  0  0  0  0
  188.7230  175.3080  141.2650 C   0  0  0  0  0  0  0  0  0  0  0  0
  187.7510  177.7990  145.5460 C   0  0  0  0  0  0  0  0  0  0  0  0
  188.2480  177.2080  142.5490 C   0  0  2  0  0  3  0  0  0  0  0  0
  185.3420  177.9470  144.9680 C   0  0  0  0  0  2  0  0  0  0  0  0
  188.6330  174.4140  140.2040 C   0  0  0  0  0  3  0  0  0  0  0  0
  186.4660  177.9850  147.7070 C   0  0  0  0  0  3  0  0  0  0  0  0
  187.5220  178.2650  146.9320 C   0  0  0  0  0  3  0  0  0  0  0  0
  186.7620  177.6120  144.6430 C   0  0  0  0  0  0  0  0  0  0  0  0
  192.9250  174.7610  146.3900 C   0  0  0  0  0  2  0  0  0  0  0  0
  190.5610  175.5920  145.1550 C   0  0  0  0  0  3  0  0  0  0  0  0
  190.5010  175.4330  146.6890 C   0  0  0  0  0  2  0  0  0  0  0  0
  191.8750  175.2910  147.3610 C   0  0  0  0  0  2  0  0  0  0  0  0
  193.0970  175.7080  145.1950 C   0  0  0  0  0  2  0  0  0  0  0  0
  191.8030  176.4320  144.8020 C   0  0  0  0  0  2  0  0  0  0  0  0
  1 15  1  0  0  0  0
  2  6  1  6  0  0  0
  2 12  1  0  0  0  0
  3 21  1  0  0  0  0
  4 13  1  0  0  0  0
  4 18  2  0  0  0  0
  5 13  1  0  0  0  0
  7  9  2  0  0  0  0
  7 11  1  0  0  0  0
  8 10  2  0  0  0  0
 10 19  1  0  0  0  0
 11 14  2  0  0  0  0
 12 23  1  1  0  0  0
 12  1  1  0  0  0  0
 13  7  1  0  0  0  0
 14  6  1  0  0  0  0
 15 20  1  0  0  0  0
 16 11  1  6  0  0  0
 16  2  1  0  0  0  0
 16  3  1  0  0  0  0
 17  8  1  0  0  0  0
 18 14  1  0  0  0  0
 20 19  2  0  0  0  0
 21 17  1  0  0  0  0
 21 15  2  0  0  0  0
 22 25  1  0  0  0  0
 23 24  1  0  0  0  0
 24 25  1  0  0  0  0
 26 22  1  0  0  0  0
 27 23  1  0  0  0  0
 27 26  1  0  0  0  0
M  END
>  <MODEL>
5

>  <REMARK>
 VINA RESULT:      -7.3      1.475      4.801
  Name = 
  1 active torsions:
  status: ('A' for Active; 'I' for Inactive)
    1  A    between atoms: C_9  and  N_15
                            x       y       z     vdW  Elec       q    Type
                         _______ _______ _______ _____ _____    ______ ____

>  <TORSDO>
F 1

$$$$
=
 OpenBabel11052418243D

 27 31  0  0  1  0  0  0  0  0999 V2000
  189.6420  174.9540  145.3770 C   0  0  0  0  0  2  0  0  0  0  0  0
  188.6540  174.6410  143.2910 C   0  0  2  0  0  3  0  0  0  0  0  0
  191.1430  174.4250  142.9590 N   0  0  0  0  0  2  0  0  0  0  0  0
  188.8270  173.7000  138.7370 C   0  0  0  0  0  3  0  0  0  0  0  0
  190.4280  171.9880  138.1270 C   0  0  0  0  0  1  0  0  0  0  0  0
  188.0720  175.1980  142.0670 N   0  0  0  0  0  2  0  0  0  0  0  0
  190.1940  172.7540  140.4500 C   0  0  0  0  0  0  0  0  0  0  0  0
  193.7840  176.3000  144.3530 C   0  0  0  0  0  3  0  0  0  0  0  0
  191.1080  171.9630  140.8120 O   0  0  0  0  0  0  0  0  0  0  0  0
  193.6050  176.9300  145.5120 C   0  0  0  0  0  3  0  0  0  0  0  0
  189.5630  173.5760  141.3860 C   0  0  0  0  0  0  0  0  0  0  0  0
  189.0110  175.6810  144.2730 N   0  0  1  0  0  0  0  0  0  0  0  0
  189.8040  172.8290  139.1370 N   0  0  0  0  0  0  0  0  0  0  0  0
  188.5900  174.4470  140.9920 C   0  0  0  0  0  0  0  0  0  0  0  0
  191.1240  175.1070  145.3060 C   0  0  0  0  0  0  0  0  0  0  0  0
  189.8520  173.7460  142.8350 C   0  0  2  0  0  3  0  0  0  0  0  0
  193.2940  174.9100  144.1170 C   0  0  0  0  0  2  0  0  0  0  0  0
  188.1910  174.5410  139.6630 C   0  0  0  0  0  3  0  0  0  0  0  0
  192.8380  176.3810  146.6450 C   0  0  0  0  0  3  0  0  0  0  0  0
  191.7670  175.5820  146.5510 C   0  0  0  0  0  3  0  0  0  0  0  0
  191.8020  174.8280  144.1700 C   0  0  0  0  0  0  0  0  0  0  0  0
  185.6920  177.8430  145.8480 C   0  0  0  0  0  2  0  0  0  0  0  0
  187.7840  176.3270  144.7880 C   0  0  0  0  0  3  0  0  0  0  0  0
  187.6260  177.7510  144.2150 C   0  0  0  0  0  2  0  0  0  0  0  0
  186.6900  178.6560  145.0300 C   0  0  0  0  0  2  0  0  0  0  0  0
  186.4130  176.9220  146.8400 C   0  0  0  0  0  2  0  0  0  0  0  0
  187.7660  176.4160  146.3250 C   0  0  0  0  0  2  0  0  0  0  0  0
  2  6  1  6  0  0  0
  2 12  1  0  0  0  0
  3 21  1  0  0  0  0
  4 13  1  0  0  0  0
  4 18  2  0  0  0  0
  5 13  1  0  0  0  0
  7  9  2  0  0  0  0
  7 11  1  0  0  0  0
  8 10  2  0  0  0  0
 10 19  1  0  0  0  0
 12 23  1  1  0  0  0
 12  1  1  0  0  0  0
 13  7  1  0  0  0  0
 14 11  2  0  0  0  0
 14  6  1  0  0  0  0
 15  1  1  0  0  0  0
 15 20  1  0  0  0  0
 16 11  1  6  0  0  0
 16  3  1  0  0  0  0
 16  2  1  0  0  0  0
 17 21  1  0  0  0  0
 17  8  1  0  0  0  0
 18 14  1  0  0  0  0
 20 19  2  0  0  0  0
 21 15  2  0  0  0  0
 22 26  1  0  0  0  0
 23 27  1  0  0  0  0
 24 23  1  0  0  0  0
 24 25  1  0  0  0  0
 25 22  1  0  0  0  0
 27 26  1  0  0  0  0
M  END
>  <MODEL>
6

>  <REMARK>
 VINA RESULT:      -7.3      1.519      2.050
  Name = 
  1 active torsions:
  status: ('A' for Active; 'I' for Inactive)
    1  A    between atoms: C_9  and  N_15
                            x       y       z     vdW  Elec       q    Type
                         _______ _______ _______ _____ _____    ______ ____

>  <TORSDO>
F 1

$$$$
=
 OpenBabel11052418243D

 27 31  0  0  1  0  0  0  0  0999 V2000
  190.8620  174.9180  146.3290 C   0  0  0  0  0  2  0  0  0  0  0  0
  190.0650  173.5820  144.5950 C   0  0  2  0  0  3  0  0  0  0  0  0
  192.5820  173.5160  144.4700 N   0  0  0  0  0  2  0  0  0  0  0  0
  190.6650  170.6970  140.9920 C   0  0  0  0  0  3  0  0  0  0  0  0
  192.4480  169.0850  141.2850 C   0  0  0  0  0  1  0  0  0  0  0  0
  189.5330  173.4520  143.2360 N   0  0  0  0  0  2  0  0  0  0  0  0
  191.9730  170.7930  142.9860 C   0  0  0  0  0  0  0  0  0  0  0  0
  194.9390  176.1000  144.9170 C   0  0  0  0  0  3  0  0  0  0  0  0
  192.9210  170.3610  143.6970 O   0  0  0  0  0  0  0  0  0  0  0  0
  194.6190  177.1640  145.6510 C   0  0  0  0  0  3  0  0  0  0  0  0
  191.2050  171.8750  143.4200 C   0  0  0  0  0  0  0  0  0  0  0  0
  190.2560  174.9870  144.9970 N   0  0  1  0  0  0  0  0  0  0  0  0
  191.6790  170.2190  141.7760 N   0  0  0  0  0  0  0  0  0  0  0  0
  190.1940  172.3570  142.6420 C   0  0  0  0  0  0  0  0  0  0  0  0
  192.3270  175.1850  146.2370 C   0  0  0  0  0  0  0  0  0  0  0  0
  191.3670  172.7170  144.6360 C   0  0  2  0  0  3  0  0  0  0  0  0
  194.5890  174.7110  145.3340 C   0  0  0  0  0  2  0  0  0  0  0  0
  189.8910  171.7910  141.4080 C   0  0  0  0  0  3  0  0  0  0  0  0
  193.8180  177.1100  146.8870 C   0  0  0  0  0  3  0  0  0  0  0  0
  192.8300  176.2430  147.1410 C   0  0  0  0  0  3  0  0  0  0  0  0
  193.1110  174.4970  145.3770 C   0  0  0  0  0  0  0  0  0  0  0  0
  186.6620  177.2400  145.4160 C   0  0  0  0  0  2  0  0  0  0  0  0
  188.9430  175.6560  145.1220 C   0  0  0  0  0  3  0  0  0  0  0  0
  188.8730  176.9100  144.2250 C   0  0  0  0  0  2  0  0  0  0  0  0
  187.7840  177.9140  144.6320 C   0  0  0  0  0  2  0  0  0  0  0  0
  187.1970  176.6010  146.7040 C   0  0  0  0  0  2  0  0  0  0  0  0
  188.6310  176.0750  146.5700 C   0  0  0  0  0  2  0  0  0  0  0  0
  2  6  1  6  0  0  0
  2 16  1  0  0  0  0
  2 12  1  0  0  0  0
  3 16  1  0  0  0  0
  3 21  1  0  0  0  0
  4 18  2  0  0  0  0
  4 13  1  0  0  0  0
  5 13  1  0  0  0  0
  7 11  1  0  0  0  0
  7  9  2  0  0  0  0
  8 17  1  0  0  0  0
  8 10  2  0  0  0  0
 10 19  1  0  0  0  0
 12 23  1  1  0  0  0
 12  1  1  0  0  0  0
 13  7  1  0  0  0  0
 14  6  1  0  0  0  0
 14 11  2  0  0  0  0
 15  1  1  0  0  0  0
 15 20  1  0  0  0  0
 16 11  1  6  0  0  0
 17 21  1  0  0  0  0
 18 14  1  0  0  0  0
 19 20  2  0  0  0  0
 21 15  2  0  0  0  0
 22 26  1  0  0  0  0
 23 27  1  0  0  0  0
 24 25  1  0  0  0  0
 24 23  1  0  0  0  0
 25 22  1  0  0  0  0
 27 26  1  0  0  0  0
M  END
>  <MODEL>
7

>  <REMARK>
 VINA RESULT:      -7.2      2.937      4.135
  Name = 
  1 active torsions:
  status: ('A' for Active; 'I' for Inactive)
    1  A    between atoms: C_9  and  N_15
                            x       y       z     vdW  Elec       q    Type
                         _______ _______ _______ _____ _____    ______ ____

>  <TORSDO>
F 1

$$$$
=
 OpenBabel11052418243D

 27 31  0  0  1  0  0  0  0  0999 V2000
  188.4100  177.9280  143.7930 C   0  0  0  0  0  2  0  0  0  0  0  0
  189.1320  175.8530  143.0210 C   0  0  2  0  0  3  0  0  0  0  0  0
  187.0450  176.4260  141.7300 N   0  0  0  0  0  2  0  0  0  0  0  0
  188.8220  172.1520  140.2160 C   0  0  0  0  0  3  0  0  0  0  0  0
  188.1910  172.6720  137.9370 C   0  0  0  0  0  1  0  0  0  0  0  0
  189.1970  174.3970  143.1710 N   0  0  0  0  0  2  0  0  0  0  0  0
  188.3360  174.4210  139.6570 C   0  0  0  0  0  0  0  0  0  0  0  0
  184.0430  177.9150  142.8270 C   0  0  0  0  0  3  0  0  0  0  0  0
  187.9810  175.2900  138.8140 O   0  0  0  0  0  0  0  0  0  0  0  0
  184.0480  178.6890  143.9100 C   0  0  0  0  0  3  0  0  0  0  0  0
  188.6080  174.7890  140.9760 C   0  0  0  0  0  0  0  0  0  0  0  0
  188.4520  176.5090  144.1520 N   0  0  1  0  0  0  0  0  0  0  0  0
  188.4570  173.1020  139.3010 N   0  0  0  0  0  0  0  0  0  0  0  0
  188.9690  173.8450  141.8930 C   0  0  0  0  0  0  0  0  0  0  0  0
  187.0480  178.2920  143.3080 C   0  0  0  0  0  0  0  0  0  0  0  0
  188.4720  176.1180  141.6290 C   0  0  2  0  0  3  0  0  0  0  0  0
  185.1100  177.9930  141.7870 C   0  0  0  0  0  2  0  0  0  0  0  0
  189.0870  172.5030  141.5490 C   0  0  0  0  0  3  0  0  0  0  0  0
  185.1310  179.6280  144.2550 C   0  0  0  0  0  3  0  0  0  0  0  0
  186.4310  179.4560  143.9830 C   0  0  0  0  0  3  0  0  0  0  0  0
  186.4440  177.5870  142.3250 C   0  0  0  0  0  0  0  0  0  0  0  0
  190.8150  176.4800  147.7000 C   0  0  0  0  0  2  0  0  0  0  0  0
  189.2660  176.3660  145.3780 C   0  0  0  0  0  3  0  0  0  0  0  0
  188.7100  177.2460  146.5180 C   0  0  0  0  0  2  0  0  0  0  0  0
  189.7210  177.5410  147.6350 C   0  0  0  0  0  2  0  0  0  0  0  0
  191.5980  176.4150  146.3820 C   0  0  0  0  0  2  0  0  0  0  0  0
  190.7420  176.7410  145.1510 C   0  0  0  0  0  2  0  0  0  0  0  0
  1 12  1  0  0  0  0
  2  6  1  1  0  0  0
  2 12  1  0  0  0  0
  3 21  1  0  0  0  0
  4 18  2  0  0  0  0
  5 13  1  0  0  0  0
  7 11  1  0  0  0  0
  8 10  2  0  0  0  0
  9  7  2  0  0  0  0
 10 19  1  0  0  0  0
 11 14  2  0  0  0  0
 12 23  1  1  0  0  0
 13  7  1  0  0  0  0
 13  4  1  0  0  0  0
 14  6  1  0  0  0  0
 15  1  1  0  0  0  0
 15 20  1  0  0  0  0
 16 11  1  6  0  0  0
 16  3  1  0  0  0  0
 16  2  1  0  0  0  0
 17 21  1  0  0  0  0
 17  8  1  0  0  0  0
 18 14  1  0  0  0  0
 20 19  2  0  0  0  0
 21 15  2  0  0  0  0
 23 24  1  0  0  0  0
 24 25  1  0  0  0  0
 25 22  1  0  0  0  0
 26 22  1  0  0  0  0
 27 23  1  0  0  0  0
 27 26  1  0  0  0  0
M  END
>  <MODEL>
8

>  <REMARK>
 VINA RESULT:      -7.1      1.950      4.858
  Name = 
  1 active torsions:
  status: ('A' for Active; 'I' for Inactive)
    1  A    between atoms: C_9  and  N_15
                            x       y       z     vdW  Elec       q    Type
                         _______ _______ _______ _____ _____    ______ ____

>  <TORSDO>
F 1

$$$$
=
 OpenBabel11052418243D

 27 31  0  0  1  0  0  0  0  0999 V2000
  188.0570  176.8740  141.9850 C   0  0  0  0  0  2  0  0  0  0  0  0
  188.8710  177.2860  144.1280 C   0  0  2  0  0  3  0  0  0  0  0  0
  190.3220  175.4820  143.1310 N   0  0  0  0  0  2  0  0  0  0  0  0
  191.8950  176.6070  147.6000 C   0  0  0  0  0  3  0  0  0  0  0  0
  194.1920  176.3210  146.8880 C   0  0  0  0  0  1  0  0  0  0  0  0
  188.7980  177.0710  145.5760 N   0  0  0  0  0  2  0  0  0  0  0  0
  192.3710  176.5990  145.2610 C   0  0  0  0  0  0  0  0  0  0  0  0
  189.4350  172.7000  141.1540 C   0  0  0  0  0  3  0  0  0  0  0  0
  193.1930  176.4970  144.3100 O   0  0  0  0  0  0  0  0  0  0  0  0
  188.3140  172.7320  140.4350 C   0  0  0  0  0  3  0  0  0  0  0  0
  191.0140  176.7940  145.0000 C   0  0  0  0  0  0  0  0  0  0  0  0
  187.7760  176.6210  143.4000 N   0  0  1  0  0  0  0  0  0  0  0  0
  192.7860  176.5170  146.5660 N   0  0  0  0  0  0  0  0  0  0  0  0
  190.1210  176.8820  146.0270 C   0  0  0  0  0  0  0  0  0  0  0  0
  188.6490  175.6570  141.3570 C   0  0  0  0  0  0  0  0  0  0  0  0
  190.3030  176.8330  143.6930 C   0  0  2  0  0  3  0  0  0  0  0  0
  190.3620  173.8660  141.2360 C   0  0  0  0  0  2  0  0  0  0  0  0
  190.5260  176.7910  147.3540 C   0  0  0  0  0  3  0  0  0  0  0  0
  187.8160  173.9250  139.7270 C   0  0  0  0  0  3  0  0  0  0  0  0
  187.9720  175.1940  140.1260 C   0  0  0  0  0  3  0  0  0  0  0  0
  189.7230  175.0420  141.9010 C   0  0  0  0  0  0  0  0  0  0  0  0
  184.0900  178.6660  144.0400 C   0  0  0  0  0  2  0  0  0  0  0  0
  186.4870  177.2640  143.7370 C   0  0  0  0  0  3  0  0  0  0  0  0
  185.4950  177.1660  142.5590 C   0  0  0  0  0  2  0  0  0  0  0  0
  184.3490  178.1870  142.6150 C   0  0  0  0  0  2  0  0  0  0  0  0
  185.3350  179.3440  144.6280 C   0  0  0  0  0  2  0  0  0  0  0  0
  186.6510  178.7490  144.1120 C   0  0  0  0  0  2  0  0  0  0  0  0
  1 12  1  0  0  0  0
  2  6  1  1  0  0  0
  6 14  1  0  0  0  0
  7 13  1  0  0  0  0
  8 17  1  0  0  0  0
  9  7  2  0  0  0  0
 10  8  2  0  0  0  0
 11  7  1  0  0  0  0
 11 14  2  0  0  0  0
 12 23  1  1  0  0  0
 12  2  1  0  0  0  0
 13  5  1  0  0  0  0
 13  4  1  0  0  0  0
 14 18  1  0  0  0  0
 15 21  2  0  0  0  0
 15  1  1  0  0  0  0
 16  3  1  1  0  0  0
 16  2  1  0  0  0  0
 16 11  1  0  0  0  0
 17 21  1  0  0  0  0
 18  4  2  0  0  0  0
 19 20  2  0  0  0  0
 19 10  1  0  0  0  0
 20 15  1  0  0  0  0
 21  3  1  0  0  0  0
 22 26  1  0  0  0  0
 23 27  1  0  0  0  0
 24 25  1  0  0  0  0
 24 23  1  0  0  0  0
 25 22  1  0  0  0  0
 27 26  1  0  0  0  0
M  END
>  <MODEL>
9

>  <REMARK>
 VINA RESULT:      -7.0      2.300      5.734
  Name = 
  1 active torsions:
  status: ('A' for Active; 'I' for Inactive)
    1  A    between atoms: C_9  and  N_15
                            x       y       z     vdW  Elec       q    Type
                         _______ _______ _______ _____ _____    ______ ____

>  <TORSDO>
F 1

$$$$
