=
 OpenBabel11052419493D

 55 59  0  0  1  0  0  0  0  0999 V2000
  190.1410  178.2850  143.0720 O   0  0  0  0  0  0  0  0  0  0  0  0
  190.5520  176.4030  144.4020 N   0  0  0  0  0  0  0  0  0  0  0  0
  191.4000  178.4780  143.6470 C   0  0  0  0  0  2  0  0  0  0  0  0
  189.5330  177.2950  143.8630 C   0  0  2  0  0  3  0  0  0  0  0  0
  191.7510  177.2190  144.3940 C   0  0  0  0  0  2  0  0  0  0  0  0
  190.1960  176.1340  145.7890 C   0  0  0  0  0  2  0  0  0  0  0  0
  190.6760  174.7460  146.2020 C   0  0  0  0  0  2  0  0  0  0  0  0
  189.8340  172.6660  145.0270 C   0  0  0  0  0  1  0  0  0  0  0  0
  190.8290  173.8220  144.9960 C   0  0  2  0  0  3  0  0  0  0  0  0
  192.2620  173.3020  144.9010 C   0  0  0  0  0  2  0  0  0  0  0  0
  193.2110  174.0540  145.8260 C   0  0  0  0  0  2  0  0  0  0  0  0
  195.7930  174.7660  146.0750 O   0  0  0  0  0  0  0  0  0  0  0  0
  194.8970  173.8400  145.3000 S   0  0  0  0  0  0  0  0  0  0  0  0
  195.3230  172.4220  145.5460 O   0  0  0  0  0  0  0  0  0  0  0  0
  195.0940  173.1560  142.6210 C   0  0  0  0  0  0  0  0  0  0  0  0
  195.1300  171.9500  142.9790 O   0  0  0  0  0  0  0  0  0  0  0  0
  195.0350  174.1890  143.6100 N   0  0  0  0  0  2  0  0  0  0  0  0
  195.2340  173.5170  141.1490 C   0  0  2  0  0  0  0  0  0  0  0  0
  194.0280  175.1660  139.2960 O   0  0  0  0  0  1  0  0  0  0  0  0
  192.8050  173.8730  140.9660 C   0  0  1  0  0  3  0  0  0  0  0  0
  192.6290  173.2980  138.4150 C   0  0  0  0  0  1  0  0  0  0  0  0
  193.2980  174.0080  139.5850 C   0  0  1  0  0  0  0  0  0  0  0  0
  191.5900  172.9680  141.0980 C   0  0  0  0  0  1  0  0  0  0  0  0
  193.9660  173.0630  140.5150 N   0  0  0  0  0  0  0  0  0  0  0  0
  196.4400  172.7820  139.0160 C   0  0  0  0  0  2  0  0  0  0  0  0
  195.8630  171.6680  139.6520 O   0  0  0  0  0  0  0  0  0  0  0  0
  196.3720  172.6770  140.4940 C   0  0  2  0  0  3  0  0  0  0  0  0
  195.4350  174.9240  140.9840 O   0  0  0  0  0  0  0  0  0  0  0  0
  196.6960  175.2090  141.2590 O   0  0  0  0  0  1  0  0  0  0  0  0
  188.4790  176.5280  143.0600 C   0  0  1  0  0  3  0  0  0  0  0  0
  187.6240  177.4400  142.4340 O   0  0  0  0  0  0  0  0  0  0  0  0
  185.1860  176.1850  146.1360 C   0  0  0  0  0  1  0  0  0  0  0  0
  184.8250  178.4550  145.3860 C   0  0  2  0  0  3  0  0  0  0  0  0
  185.3360  177.1160  145.0260 N   0  0  0  0  0  0  0  0  0  0  0  0
  185.7020  178.8550  142.9970 C   0  0  1  0  0  3  0  0  0  0  0  0
  185.0100  179.4640  144.2380 C   0  0  0  0  0  2  0  0  0  0  0  0
  186.7510  177.1770  144.6600 C   0  0  0  0  0  2  0  0  0  0  0  0
  186.9860  178.1260  143.4720 C   0  0  1  0  0  3  0  0  0  0  0  0
  183.4130  178.3540  142.4010 C   0  0  0  0  0  2  0  0  0  0  0  0
  185.0590  178.1690  140.8130 C   0  0  0  0  0  2  0  0  0  0  0  0
  183.7720  177.8810  140.0770 C   0  0  0  0  0  2  0  0  0  0  0  0
  182.6840  178.0620  141.1080 C   0  0  2  0  0  3  0  0  0  0  0  0
  184.8110  177.9550  142.2350 N   0  0  1  0  0  0  0  0  0  0  0  0
  181.8590  179.1710  140.7740 O   0  0  0  0  0  0  0  0  0  0  0  0
  180.4640  179.0970  140.7780 C   0  0  0  0  0  0  0  0  0  0  0  0
  179.7100  180.1080  140.1210 N   0  0  0  0  0  1  0  0  0  0  0  0
  179.8670  178.1510  141.3600 O   0  0  0  0  0  0  0  0  0  0  0  0
  186.3360  179.8590  146.5980 O   0  0  0  0  0  0  0  0  0  0  0  0
  185.4080  179.0100  146.6580 C   0  0  0  0  0  0  0  0  0  0  0  0
  184.9210  178.6100  147.8970 O   0  0  0  0  0  1  0  0  0  0  0  0
  189.1100  175.6180  142.0070 C   0  0  0  0  0  2  0  0  0  0  0  0
  188.0150  173.4060  142.0820 C   0  0  0  0  0  1  0  0  0  0  0  0
  188.0570  174.7370  141.3560 C   0  0  2  0  0  3  0  0  0  0  0  0
  188.4000  174.5160  139.8900 C   0  0  0  0  0  2  0  0  0  0  0  0
  188.2890  173.0460  139.5330 C   0  0  0  0  0  1  0  0  0  0  0  0
  1  3  1  0  0  0  0
  1  4  1  0  0  0  0
  2  6  1  0  0  0  0
  3  5  1  0  0  0  0
  4 30  1  6  0  0  0
  4  2  1  0  0  0  0
  5  2  1  0  0  0  0
  6  7  1  0  0  0  0
  9  8  1  1  0  0  0
  9  7  1  0  0  0  0
 10  9  1  0  0  0  0
 10 11  1  0  0  0  0
 13 14  2  0  0  0  0
 13 11  1  0  0  0  0
 13 12  2  0  0  0  0
 15 16  2  0  0  0  0
 15 17  1  0  0  0  0
 17 13  1  0  0  0  0
 18 28  1  6  0  0  0
 18 15  1  0  0  0  0
 19 22  1  0  0  0  0
 20 23  1  6  0  0  0
 22 21  1  6  0  0  0
 22 24  1  0  0  0  0
 22 20  1  0  0  0  0
 24 20  1  0  0  0  0
 24 18  1  0  0  0  0
 25 26  1  0  0  0  0
 25 27  1  0  0  0  0
 26 27  1  0  0  0  0
 27 18  1  6  0  0  0
 28 29  1  0  0  0  0
 30 51  1  6  0  0  0
 31 30  1  0  0  0  0
 33 49  1  1  0  0  0
 34 33  1  0  0  0  0
 34 32  1  0  0  0  0
 35 38  1  0  0  0  0
 35 36  1  1  0  0  0
 36 33  1  0  0  0  0
 37 34  1  0  0  0  0
 38 31  1  6  0  0  0
 38 37  1  0  0  0  0
 41 40  1  0  0  0  0
 41 42  1  0  0  0  0
 42 44  1  6  0  0  0
 42 39  1  0  0  0  0
 43 40  1  6  0  0  0
 43 39  1  0  0  0  0
 43 35  1  0  0  0  0
 44 45  1  0  0  0  0
 45 47  2  0  0  0  0
 46 45  1  0  0  0  0
 48 49  2  0  0  0  0
 49 50  1  0  0  0  0
 53 51  1  0  0  0  0
 53 52  1  1  0  0  0
 54 53  1  0  0  0  0
 55 54  1  0  0  0  0
M  END
>  <MODEL>
1

>  <REMARK>
 VINA RESULT:      -6.0      0.000      0.000
  Name = 
  21 active torsions:
  status: ('A' for Active; 'I' for Inactive)
    1  A    between atoms: C_1  and  C_21
    2  A    between atoms: C_1  and  O_29
    3  A    between atoms: C_1  and  C_38
    4  A    between atoms: C_1  and  N_53
    5  A    between atoms: C_2  and  C_19
    6  A    between atoms: C_2  and  O_28
    7  A    between atoms: C_2  and  C_44
    8  A    between atoms: C_4  and  C_40
    9  A    between atoms: C_8  and  S_20
   10  A    between atoms: C_8  and  C_43
   11  A    between atoms: C_10  and  O_32
   12  A    between atoms: C_16  and  C_17
   13  A    between atoms: C_19  and  C_40
   14  A    between atoms: S_20  and  N_42
   15  A    between atoms: N_27  and  C_31
   16  A    between atoms: O_28  and  C_49
   17  A    between atoms: C_31  and  C_54
   18  A    between atoms: O_32  and  C_48
   19  A    between atoms: C_33  and  N_52
   20  A    between atoms: C_43  and  C_51
   21  A    between atoms: C_51  and  C_54
                            x       y       z     vdW  Elec       q    Type
                         _______ _______ _______ _____ _____    ______ ____

>  <TORSDO>
F 21

$$$$
=
 OpenBabel11052419493D

 55 59  0  0  1  0  0  0  0  0999 V2000
  190.4470  175.9270  144.4000 O   0  0  0  0  0  0  0  0  0  0  0  0
  191.0660  173.8530  145.2910 N   0  0  0  0  0  0  0  0  0  0  0  0
  189.2980  175.3950  144.9910 C   0  0  0  0  0  2  0  0  0  0  0  0
  191.3080  174.8280  144.2360 C   0  0  2  0  0  3  0  0  0  0  0  0
  189.7010  174.1270  145.6960 C   0  0  0  0  0  2  0  0  0  0  0  0
  191.1000  172.5340  144.6730 C   0  0  0  0  0  2  0  0  0  0  0  0
  189.7570  172.2150  144.0250 C   0  0  0  0  0  2  0  0  0  0  0  0
  191.3650  171.3430  142.2720 C   0  0  0  0  0  1  0  0  0  0  0  0
  189.9260  171.3480  142.7790 C   0  0  2  0  0  3  0  0  0  0  0  0
  188.9650  171.8000  141.6800 C   0  0  0  0  0  2  0  0  0  0  0  0
  188.3300  173.1500  141.9890 C   0  0  0  0  0  2  0  0  0  0  0  0
  190.4040  174.2890  140.7100 O   0  0  0  0  0  0  0  0  0  0  0  0
  188.9110  174.3890  140.8510 S   0  0  0  0  0  0  0  0  0  0  0  0
  188.2740  174.1740  139.5090 O   0  0  0  0  0  0  0  0  0  0  0  0
  187.3560  176.1900  142.2740 C   0  0  0  0  0  0  0  0  0  0  0  0
  186.5800  175.2360  142.5430 O   0  0  0  0  0  0  0  0  0  0  0  0
  188.4920  175.9640  141.4320 N   0  0  0  0  0  2  0  0  0  0  0  0
  187.0210  177.5980  142.7420 C   0  0  2  0  0  0  0  0  0  0  0  0
  186.0600  179.8400  144.0290 O   0  0  0  0  0  1  0  0  0  0  0  0
  186.4850  177.7110  145.1420 C   0  0  1  0  0  3  0  0  0  0  0  0
  184.0450  178.6170  144.8420 C   0  0  0  0  0  1  0  0  0  0  0  0
  185.5310  178.6390  144.5120 C   0  0  1  0  0  0  0  0  0  0  0  0
  185.8440  176.7470  146.1290 C   0  0  0  0  0  1  0  0  0  0  0  0
  185.9680  177.4240  143.7790 N   0  0  0  0  0  0  0  0  0  0  0  0
  185.0260  177.9130  141.1710 C   0  0  0  0  0  2  0  0  0  0  0  0
  186.1840  177.6240  140.4280 O   0  0  0  0  0  0  0  0  0  0  0  0
  186.3620  178.4080  141.5860 C   0  0  2  0  0  3  0  0  0  0  0  0
  188.1800  178.2510  143.2690 O   0  0  0  0  0  0  0  0  0  0  0  0
  188.9550  178.6210  142.2640 O   0  0  0  0  0  1  0  0  0  0  0  0
  192.7700  175.2810  144.2100 C   0  0  1  0  0  3  0  0  0  0  0  0
  193.3660  174.8430  143.0230 O   0  0  0  0  0  0  0  0  0  0  0  0
  197.0200  173.9340  145.6790 C   0  0  0  0  0  1  0  0  0  0  0  0
  196.5260  172.2660  143.9990 C   0  0  2  0  0  3  0  0  0  0  0  0
  196.3090  173.6610  144.4360 N   0  0  0  0  0  0  0  0  0  0  0  0
  194.9180  173.1380  142.1860 C   0  0  1  0  0  3  0  0  0  0  0  0
  195.7520  171.9460  142.7080 C   0  0  0  0  0  2  0  0  0  0  0  0
  194.8870  173.9280  144.6460 C   0  0  0  0  0  2  0  0  0  0  0  0
  194.0720  173.6840  143.3650 C   0  0  1  0  0  3  0  0  0  0  0  0
  196.9410  173.6100  140.9490 C   0  0  0  0  0  2  0  0  0  0  0  0
  195.0190  174.7620  140.4520 C   0  0  0  0  0  2  0  0  0  0  0  0
  196.0320  175.2360  139.4370 C   0  0  0  0  0  2  0  0  0  0  0  0
  197.2790  174.4340  139.7260 C   0  0  2  0  0  3  0  0  0  0  0  0
  195.7550  174.1940  141.5760 N   0  0  1  0  0  0  0  0  0  0  0  0
  197.5750  173.5640  138.6410 O   0  0  0  0  0  0  0  0  0  0  0  0
  197.0930  172.2540  138.5770 C   0  0  0  0  0  0  0  0  0  0  0  0
  197.9410  171.1790  138.9610 N   0  0  0  0  0  1  0  0  0  0  0  0
  195.9210  172.0140  138.1790 O   0  0  0  0  0  0  0  0  0  0  0  0
  197.1540  170.6190  145.6170 O   0  0  0  0  0  1  0  0  0  0  0  0
  196.2130  171.2390  145.0540 C   0  0  0  0  0  0  0  0  0  0  0  0
  194.9000  170.9810  145.4280 O   0  0  0  0  0  0  0  0  0  0  0  0
  192.9030  176.7990  144.3130 C   0  0  0  0  0  2  0  0  0  0  0  0
  194.8840  177.4310  145.6450 C   0  0  0  0  0  1  0  0  0  0  0  0
  193.3850  177.2050  145.6960 C   0  0  2  0  0  3  0  0  0  0  0  0
  193.0610  176.1100  146.7010 C   0  0  0  0  0  2  0  0  0  0  0  0
  191.9280  176.5400  147.6120 C   0  0  0  0  0  1  0  0  0  0  0  0
  1  3  1  0  0  0  0
  2  5  1  0  0  0  0
  3  5  1  0  0  0  0
  4 30  1  1  0  0  0
  4  1  1  0  0  0  0
  4  2  1  0  0  0  0
  6  2  1  0  0  0  0
  7  6  1  0  0  0  0
  9  8  1  6  0  0  0
  9  7  1  0  0  0  0
 10 11  1  0  0  0  0
 10  9  1  0  0  0  0
 12 13  2  0  0  0  0
 13 17  1  0  0  0  0
 13 11  1  0  0  0  0
 14 13  2  0  0  0  0
 15 16  2  0  0  0  0
 17 15  1  0  0  0  0
 18 15  1  6  0  0  0
 18 28  1  0  0  0  0
 18 24  1  0  0  0  0
 19 22  1  0  0  0  0
 20 23  1  1  0  0  0
 22 21  1  1  0  0  0
 22 20  1  0  0  0  0
 24 22  1  0  0  0  0
 24 20  1  0  0  0  0
 25 27  1  0  0  0  0
 26 25  1  0  0  0  0
 26 27  1  0  0  0  0
 27 18  1  1  0  0  0
 29 28  1  0  0  0  0
 30 51  1  6  0  0  0
 31 30  1  0  0  0  0
 33 34  1  0  0  0  0
 33 49  1  1  0  0  0
 34 37  1  0  0  0  0
 34 32  1  0  0  0  0
 35 36  1  1  0  0  0
 35 38  1  0  0  0  0
 36 33  1  0  0  0  0
 38 31  1  6  0  0  0
 38 37  1  0  0  0  0
 39 43  1  0  0  0  0
 41 42  1  0  0  0  0
 41 40  1  0  0  0  0
 42 44  1  6  0  0  0
 42 39  1  0  0  0  0
 43 40  1  6  0  0  0
 43 35  1  0  0  0  0
 45 44  1  0  0  0  0
 45 46  1  0  0  0  0
 47 45  2  0  0  0  0
 49 50  2  0  0  0  0
 49 48  1  0  0  0  0
 51 53  1  0  0  0  0
 53 52  1  6  0  0  0
 53 54  1  0  0  0  0
 54 55  1  0  0  0  0
M  END
>  <MODEL>
2

>  <REMARK>
 VINA RESULT:      -5.8      2.731     10.276
  Name = 
  21 active torsions:
  status: ('A' for Active; 'I' for Inactive)
    1  A    between atoms: C_1  and  C_21
    2  A    between atoms: C_1  and  O_29
    3  A    between atoms: C_1  and  C_38
    4  A    between atoms: C_1  and  N_53
    5  A    between atoms: C_2  and  C_19
    6  A    between atoms: C_2  and  O_28
    7  A    between atoms: C_2  and  C_44
    8  A    between atoms: C_4  and  C_40
    9  A    between atoms: C_8  and  S_20
   10  A    between atoms: C_8  and  C_43
   11  A    between atoms: C_10  and  O_32
   12  A    between atoms: C_16  and  C_17
   13  A    between atoms: C_19  and  C_40
   14  A    between atoms: S_20  and  N_42
   15  A    between atoms: N_27  and  C_31
   16  A    between atoms: O_28  and  C_49
   17  A    between atoms: C_31  and  C_54
   18  A    between atoms: O_32  and  C_48
   19  A    between atoms: C_33  and  N_52
   20  A    between atoms: C_43  and  C_51
   21  A    between atoms: C_51  and  C_54
                            x       y       z     vdW  Elec       q    Type
                         _______ _______ _______ _____ _____    ______ ____

>  <TORSDO>
F 21

$$$$
=
 OpenBabel11052419493D

 55 59  0  0  1  0  0  0  0  0999 V2000
  195.0060  175.1080  141.7560 O   0  0  0  0  0  0  0  0  0  0  0  0
  196.0110  174.9120  143.8610 N   0  0  0  0  0  0  0  0  0  0  0  0
  195.4930  176.3780  142.0780 C   0  0  0  0  0  2  0  0  0  0  0  0
  194.9600  174.4200  142.9810 C   0  0  2  0  0  3  0  0  0  0  0  0
  196.2680  176.2490  143.3630 C   0  0  0  0  0  2  0  0  0  0  0  0
  195.4350  175.0280  145.1940 C   0  0  0  0  0  2  0  0  0  0  0  0
  193.9120  175.0180  145.1190 C   0  0  0  0  0  2  0  0  0  0  0  0
  193.3830  176.6090  147.0190 C   0  0  0  0  0  1  0  0  0  0  0  0
  193.3200  176.3700  145.5130 C   0  0  2  0  0  3  0  0  0  0  0  0
  191.8860  176.4940  145.0030 C   0  0  0  0  0  2  0  0  0  0  0  0
  190.8760  176.5930  146.1390 C   0  0  0  0  0  2  0  0  0  0  0  0
  190.1300  174.0220  145.8810 O   0  0  0  0  0  0  0  0  0  0  0  0
  189.5630  175.4140  145.9120 S   0  0  0  0  0  0  0  0  0  0  0  0
  188.5890  175.5240  147.0490 O   0  0  0  0  0  0  0  0  0  0  0  0
  188.2220  177.0270  144.0990 C   0  0  0  0  0  0  0  0  0  0  0  0
  188.2930  177.9570  144.9460 O   0  0  0  0  0  0  0  0  0  0  0  0
  188.7370  175.7320  144.4250 N   0  0  0  0  0  2  0  0  0  0  0  0
  187.4880  177.2490  142.7860 C   0  0  2  0  0  0  0  0  0  0  0  0
  185.8790  178.3550  140.8380 O   0  0  0  0  0  1  0  0  0  0  0  0
  186.0360  179.2080  143.1190 C   0  0  1  0  0  3  0  0  0  0  0  0
  183.8380  178.0810  142.2450 C   0  0  0  0  0  1  0  0  0  0  0  0
  185.3230  178.3930  142.1210 C   0  0  1  0  0  0  0  0  0  0  0  0
  185.1550  179.6910  144.2610 C   0  0  0  0  0  1  0  0  0  0  0  0
  186.1330  177.7270  143.1730 N   0  0  0  0  0  0  0  0  0  0  0  0
  188.4750  175.3810  141.3420 C   0  0  0  0  0  2  0  0  0  0  0  0
  187.4260  176.0190  140.6560 O   0  0  0  0  0  0  0  0  0  0  0  0
  187.2760  175.8910  142.0510 C   0  0  2  0  0  3  0  0  0  0  0  0
  188.1740  178.2040  141.9700 O   0  0  0  0  0  0  0  0  0  0  0  0
  189.4490  178.2240  142.3190 O   0  0  0  0  0  1  0  0  0  0  0  0
  195.0690  172.9090  142.7610 C   0  0  1  0  0  3  0  0  0  0  0  0
  194.5660  172.5910  141.4960 O   0  0  0  0  0  0  0  0  0  0  0  0
  191.2640  169.4410  142.1280 C   0  0  0  0  0  1  0  0  0  0  0  0
  190.5180  171.5410  141.1890 C   0  0  2  0  0  3  0  0  0  0  0  0
  191.6780  170.6630  141.4520 N   0  0  0  0  0  0  0  0  0  0  0  0
  192.4660  172.9630  140.2850 C   0  0  1  0  0  3  0  0  0  0  0  0
  190.9410  172.8560  140.5100 C   0  0  0  0  0  2  0  0  0  0  0  0
  192.6690  171.3420  142.2870 C   0  0  0  0  0  2  0  0  0  0  0  0
  193.1740  172.6350  141.6250 C   0  0  1  0  0  3  0  0  0  0  0  0
  191.8360  171.7500  138.2900 C   0  0  0  0  0  2  0  0  0  0  0  0
  193.8350  172.8770  138.3420 C   0  0  0  0  0  2  0  0  0  0  0  0
  193.7310  172.3310  136.9370 C   0  0  0  0  0  2  0  0  0  0  0  0
  192.3880  171.6410  136.8850 C   0  0  2  0  0  3  0  0  0  0  0  0
  192.9400  172.0930  139.1870 N   0  0  1  0  0  0  0  0  0  0  0  0
  191.5160  172.3120  135.9860 O   0  0  0  0  0  0  0  0  0  0  0  0
  190.6500  173.3280  136.3970 C   0  0  0  0  0  0  0  0  0  0  0  0
  191.1370  174.6600  136.5000 N   0  0  0  0  0  1  0  0  0  0  0  0
  189.4480  173.0790  136.6840 O   0  0  0  0  0  0  0  0  0  0  0  0
  190.2180  171.7970  143.5490 O   0  0  0  0  0  1  0  0  0  0  0  0
  189.6860  171.8360  142.4080 C   0  0  0  0  0  0  0  0  0  0  0  0
  188.3420  172.1670  142.2880 O   0  0  0  0  0  0  0  0  0  0  0  0
  196.5100  172.4150  142.8730 C   0  0  0  0  0  2  0  0  0  0  0  0
  195.8750  170.0290  142.8700 C   0  0  0  0  0  1  0  0  0  0  0  0
  196.5750  171.1170  143.6610 C   0  0  2  0  0  3  0  0  0  0  0  0
  195.8960  171.2940  145.0100 C   0  0  0  0  0  2  0  0  0  0  0  0
  196.8310  171.9710  145.9930 C   0  0  0  0  0  1  0  0  0  0  0  0
  1  3  1  0  0  0  0
  1  4  1  0  0  0  0
  2  6  1  0  0  0  0
  3  5  1  0  0  0  0
  4 30  1  6  0  0  0
  4  2  1  0  0  0  0
  5  2  1  0  0  0  0
  7  6  1  0  0  0  0
  7  9  1  0  0  0  0
  9  8  1  1  0  0  0
 10  9  1  0  0  0  0
 10 11  1  0  0  0  0
 12 13  2  0  0  0  0
 13 11  1  0  0  0  0
 13 14  2  0  0  0  0
 15 17  1  0  0  0  0
 15 16  2  0  0  0  0
 17 13  1  0  0  0  0
 18 28  1  6  0  0  0
 18 24  1  0  0  0  0
 18 15  1  0  0  0  0
 19 22  1  0  0  0  0
 20 24  1  0  0  0  0
 20 23  1  1  0  0  0
 22 21  1  1  0  0  0
 22 20  1  0  0  0  0
 22 24  1  0  0  0  0
 25 27  1  0  0  0  0
 26 25  1  0  0  0  0
 26 27  1  0  0  0  0
 27 18  1  1  0  0  0
 28 29  1  0  0  0  0
 30 51  1  6  0  0  0
 31 30  1  0  0  0  0
 33 34  1  0  0  0  0
 33 49  1  1  0  0  0
 34 32  1  0  0  0  0
 34 37  1  0  0  0  0
 35 36  1  1  0  0  0
 35 38  1  0  0  0  0
 36 33  1  0  0  0  0
 38 31  1  6  0  0  0
 38 37  1  0  0  0  0
 40 43  1  0  0  0  0
 41 40  1  0  0  0  0
 42 44  1  6  0  0  0
 42 41  1  0  0  0  0
 42 39  1  0  0  0  0
 43 39  1  6  0  0  0
 43 35  1  0  0  0  0
 44 45  1  0  0  0  0
 45 46  1  0  0  0  0
 45 47  2  0  0  0  0
 49 48  1  0  0  0  0
 50 49  2  0  0  0  0
 51 53  1  0  0  0  0
 53 52  1  6  0  0  0
 53 54  1  0  0  0  0
 54 55  1  0  0  0  0
M  END
>  <MODEL>
3

>  <REMARK>
 VINA RESULT:      -5.6      2.759      8.859
  Name = 
  21 active torsions:
  status: ('A' for Active; 'I' for Inactive)
    1  A    between atoms: C_1  and  C_21
    2  A    between atoms: C_1  and  O_29
    3  A    between atoms: C_1  and  C_38
    4  A    between atoms: C_1  and  N_53
    5  A    between atoms: C_2  and  C_19
    6  A    between atoms: C_2  and  O_28
    7  A    between atoms: C_2  and  C_44
    8  A    between atoms: C_4  and  C_40
    9  A    between atoms: C_8  and  S_20
   10  A    between atoms: C_8  and  C_43
   11  A    between atoms: C_10  and  O_32
   12  A    between atoms: C_16  and  C_17
   13  A    between atoms: C_19  and  C_40
   14  A    between atoms: S_20  and  N_42
   15  A    between atoms: N_27  and  C_31
   16  A    between atoms: O_28  and  C_49
   17  A    between atoms: C_31  and  C_54
   18  A    between atoms: O_32  and  C_48
   19  A    between atoms: C_33  and  N_52
   20  A    between atoms: C_43  and  C_51
   21  A    between atoms: C_51  and  C_54
                            x       y       z     vdW  Elec       q    Type
                         _______ _______ _______ _____ _____    ______ ____

>  <TORSDO>
F 21

$$$$
=
 OpenBabel11052419493D

 55 59  0  0  1  0  0  0  0  0999 V2000
  193.4830  176.2020  142.7310 O   0  0  0  0  0  0  0  0  0  0  0  0
  193.2940  175.4260  144.9310 N   0  0  0  0  0  0  0  0  0  0  0  0
  192.4880  176.9750  143.3350 C   0  0  0  0  0  2  0  0  0  0  0  0
  193.6080  175.0700  143.5530 C   0  0  2  0  0  3  0  0  0  0  0  0
  192.4450  176.5930  144.7910 C   0  0  0  0  0  2  0  0  0  0  0  0
  192.4900  174.3430  145.4820 C   0  0  0  0  0  2  0  0  0  0  0  0
  192.1170  173.3480  144.3890 C   0  0  0  0  0  2  0  0  0  0  0  0
  189.7890  173.2010  145.3780 C   0  0  0  0  0  1  0  0  0  0  0  0
  190.6160  173.3590  144.1060 C   0  0  2  0  0  3  0  0  0  0  0  0
  190.2560  172.2790  143.0870 C   0  0  0  0  0  2  0  0  0  0  0  0
  188.8010  172.3640  142.6450 C   0  0  0  0  0  2  0  0  0  0  0  0
  189.9820  173.9850  140.8540 O   0  0  0  0  0  0  0  0  0  0  0  0
  188.6290  173.4830  141.2730 S   0  0  0  0  0  0  0  0  0  0  0  0
  187.9900  172.7670  140.1190 O   0  0  0  0  0  0  0  0  0  0  0  0
  188.1420  175.9290  142.4850 C   0  0  0  0  0  0  0  0  0  0  0  0
  189.3270  175.9020  142.9090 O   0  0  0  0  0  0  0  0  0  0  0  0
  187.6340  174.8250  141.7290 N   0  0  0  0  0  2  0  0  0  0  0  0
  187.2210  177.0740  142.8760 C   0  0  2  0  0  0  0  0  0  0  0  0
  186.1530  179.0940  144.4210 O   0  0  0  0  0  1  0  0  0  0  0  0
  187.6180  177.3460  145.2900 C   0  0  1  0  0  3  0  0  0  0  0  0
  185.0920  177.4610  145.9790 C   0  0  0  0  0  1  0  0  0  0  0  0
  186.2560  177.8670  145.0850 C   0  0  1  0  0  0  0  0  0  0  0  0
  187.7360  176.3800  146.4590 C   0  0  0  0  0  1  0  0  0  0  0  0
  186.7480  176.7430  144.2480 N   0  0  0  0  0  0  0  0  0  0  0  0
  186.1880  177.5640  140.5870 C   0  0  0  0  0  2  0  0  0  0  0  0
  185.6010  178.3840  141.5660 O   0  0  0  0  0  0  0  0  0  0  0  0
  185.9530  177.0800  141.9700 C   0  0  2  0  0  3  0  0  0  0  0  0
  187.9160  178.3250  142.8430 O   0  0  0  0  0  0  0  0  0  0  0  0
  188.9310  178.2260  142.0020 O   0  0  0  0  0  1  0  0  0  0  0  0
  195.0070  174.4600  143.4320 C   0  0  1  0  0  3  0  0  0  0  0  0
  195.2790  174.1960  142.0870 O   0  0  0  0  0  0  0  0  0  0  0  0
  196.4730  169.8710  141.0390 C   0  0  0  0  0  1  0  0  0  0  0  0
  194.2500  170.5230  140.3460 C   0  0  2  0  0  3  0  0  0  0  0  0
  195.5820  170.9940  140.7770 N   0  0  0  0  0  0  0  0  0  0  0  0
  193.9140  173.0770  140.3850 C   0  0  1  0  0  3  0  0  0  0  0  0
  193.2810  171.6950  140.1030 C   0  0  0  0  0  2  0  0  0  0  0  0
  195.4840  171.8010  141.9930 C   0  0  0  0  0  2  0  0  0  0  0  0
  194.5750  173.0250  141.7860 C   0  0  1  0  0  3  0  0  0  0  0  0
  194.5980  172.7850  138.0840 C   0  0  0  0  0  2  0  0  0  0  0  0
  194.6240  174.8840  139.0120 C   0  0  0  0  0  2  0  0  0  0  0  0
  195.0090  175.0920  137.5660 C   0  0  0  0  0  2  0  0  0  0  0  0
  194.9340  173.7190  136.9410 C   0  0  2  0  0  3  0  0  0  0  0  0
  194.8760  173.4850  139.3380 N   0  0  1  0  0  0  0  0  0  0  0  0
  193.8940  173.6670  135.9730 O   0  0  0  0  0  0  0  0  0  0  0  0
  193.5930  172.5070  135.2570 C   0  0  0  0  0  0  0  0  0  0  0  0
  192.2960  171.9340  135.3700 N   0  0  0  0  0  1  0  0  0  0  0  0
  194.4550  171.9590  134.5180 O   0  0  0  0  0  0  0  0  0  0  0  0
  193.0800  169.9240  142.3460 O   0  0  0  0  0  1  0  0  0  0  0  0
  193.6230  169.5240  141.2820 C   0  0  0  0  0  0  0  0  0  0  0  0
  193.6210  168.1680  140.9770 O   0  0  0  0  0  0  0  0  0  0  0  0
  196.0860  175.3830  143.9970 C   0  0  0  0  0  2  0  0  0  0  0  0
  197.9410  173.7530  144.0020 C   0  0  0  0  0  1  0  0  0  0  0  0
  197.0480  174.6080  144.8820 C   0  0  2  0  0  3  0  0  0  0  0  0
  196.2710  173.7240  145.8450 C   0  0  0  0  0  2  0  0  0  0  0  0
  196.7360  172.2840  145.7390 C   0  0  0  0  0  1  0  0  0  0  0  0
  1  3  1  0  0  0  0
  1  4  1  0  0  0  0
  2  6  1  0  0  0  0
  3  5  1  0  0  0  0
  4 30  1  1  0  0  0
  4  2  1  0  0  0  0
  5  2  1  0  0  0  0
  7  6  1  0  0  0  0
  9  7  1  0  0  0  0
  9  8  1  1  0  0  0
 10  9  1  0  0  0  0
 11 10  1  0  0  0  0
 12 13  2  0  0  0  0
 13 17  1  0  0  0  0
 13 11  1  0  0  0  0
 14 13  2  0  0  0  0
 15 16  2  0  0  0  0
 17 15  1  0  0  0  0
 18 15  1  6  0  0  0
 18 24  1  0  0  0  0
 19 22  1  0  0  0  0
 20 23  1  1  0  0  0
 22 20  1  0  0  0  0
 22 21  1  1  0  0  0
 24 22  1  0  0  0  0
 24 20  1  0  0  0  0
 25 26  1  0  0  0  0
 25 27  1  0  0  0  0
 26 27  1  0  0  0  0
 27 18  1  1  0  0  0
 28 18  1  0  0  0  0
 29 28  1  0  0  0  0
 30 51  1  6  0  0  0
 31 30  1  0  0  0  0
 33 34  1  0  0  0  0
 33 49  1  1  0  0  0
 34 32  1  0  0  0  0
 34 37  1  0  0  0  0
 35 36  1  6  0  0  0
 35 38  1  0  0  0  0
 36 33  1  0  0  0  0
 38 37  1  0  0  0  0
 38 31  1  6  0  0  0
 40 43  1  0  0  0  0
 41 40  1  0  0  0  0
 42 44  1  6  0  0  0
 42 41  1  0  0  0  0
 42 39  1  0  0  0  0
 43 39  1  6  0  0  0
 43 35  1  0  0  0  0
 45 46  1  0  0  0  0
 45 44  1  0  0  0  0
 47 45  2  0  0  0  0
 49 48  1  0  0  0  0
 50 49  2  0  0  0  0
 51 53  1  0  0  0  0
 53 52  1  6  0  0  0
 53 54  1  0  0  0  0
 55 54  1  0  0  0  0
M  END
>  <MODEL>
4

>  <REMARK>
 VINA RESULT:      -5.5      2.873      9.996
  Name = 
  21 active torsions:
  status: ('A' for Active; 'I' for Inactive)
    1  A    between atoms: C_1  and  C_21
    2  A    between atoms: C_1  and  O_29
    3  A    between atoms: C_1  and  C_38
    4  A    between atoms: C_1  and  N_53
    5  A    between atoms: C_2  and  C_19
    6  A    between atoms: C_2  and  O_28
    7  A    between atoms: C_2  and  C_44
    8  A    between atoms: C_4  and  C_40
    9  A    between atoms: C_8  and  S_20
   10  A    between atoms: C_8  and  C_43
   11  A    between atoms: C_10  and  O_32
   12  A    between atoms: C_16  and  C_17
   13  A    between atoms: C_19  and  C_40
   14  A    between atoms: S_20  and  N_42
   15  A    between atoms: N_27  and  C_31
   16  A    between atoms: O_28  and  C_49
   17  A    between atoms: C_31  and  C_54
   18  A    between atoms: O_32  and  C_48
   19  A    between atoms: C_33  and  N_52
   20  A    between atoms: C_43  and  C_51
   21  A    between atoms: C_51  and  C_54
                            x       y       z     vdW  Elec       q    Type
                         _______ _______ _______ _____ _____    ______ ____

>  <TORSDO>
F 21

$$$$
=
 OpenBabel11052419493D

 55 59  0  0  1  0  0  0  0  0999 V2000
  196.4470  173.9890  142.6330 O   0  0  0  0  0  0  0  0  0  0  0  0
  195.7700  173.9320  144.8720 N   0  0  0  0  0  0  0  0  0  0  0  0
  197.0140  175.1110  143.2430 C   0  0  0  0  0  2  0  0  0  0  0  0
  195.4160  173.5900  143.5010 C   0  0  2  0  0  3  0  0  0  0  0  0
  196.7120  175.0230  144.7150 C   0  0  0  0  0  2  0  0  0  0  0  0
  194.5680  174.4580  145.5070 C   0  0  0  0  0  2  0  0  0  0  0  0
  193.8270  175.3900  144.5550 C   0  0  0  0  0  2  0  0  0  0  0  0
  194.0830  176.8280  146.6250 C   0  0  0  0  0  1  0  0  0  0  0  0
  193.5470  176.7460  145.1990 C   0  0  2  0  0  3  0  0  0  0  0  0
  192.0520  177.0560  145.1620 C   0  0  0  0  0  2  0  0  0  0  0  0
  191.2030  175.8480  145.5400 C   0  0  0  0  0  2  0  0  0  0  0  0
  189.5820  175.0200  147.5200 O   0  0  0  0  0  0  0  0  0  0  0  0
  190.0550  176.2700  146.8320 S   0  0  0  0  0  0  0  0  0  0  0  0
  190.7330  177.1580  147.8340 O   0  0  0  0  0  0  0  0  0  0  0  0
  187.9390  176.5790  145.0670 C   0  0  0  0  0  0  0  0  0  0  0  0
  188.3090  175.5110  144.5110 O   0  0  0  0  0  0  0  0  0  0  0  0
  188.6960  177.1070  146.1610 N   0  0  0  0  0  2  0  0  0  0  0  0
  186.7650  177.3630  144.5030 C   0  0  2  0  0  0  0  0  0  0  0  0
  184.6070  177.3860  142.7850 O   0  0  0  0  0  1  0  0  0  0  0  0
  186.6860  176.1880  142.3410 C   0  0  1  0  0  3  0  0  0  0  0  0
  185.9960  178.2740  140.9130 C   0  0  0  0  0  1  0  0  0  0  0  0
  185.8470  177.3810  142.1380 C   0  0  1  0  0  0  0  0  0  0  0  0
  187.6960  175.9500  141.2290 C   0  0  0  0  0  1  0  0  0  0  0  0
  187.0240  177.4550  143.0400 N   0  0  0  0  0  0  0  0  0  0  0  0
  185.5040  179.2820  145.6330 C   0  0  0  0  0  2  0  0  0  0  0  0
  185.8930  179.6580  144.3350 O   0  0  0  0  0  0  0  0  0  0  0  0
  186.7850  178.8260  145.0400 C   0  0  2  0  0  3  0  0  0  0  0  0
  185.5260  176.7020  144.7810 O   0  0  0  0  0  0  0  0  0  0  0  0
  185.5220  176.3200  146.0460 O   0  0  0  0  0  1  0  0  0  0  0  0
  195.1230  172.0950  143.3480 C   0  0  1  0  0  3  0  0  0  0  0  0
  194.6860  171.8430  142.0440 O   0  0  0  0  0  0  0  0  0  0  0  0
  190.5060  169.9270  141.7550 C   0  0  0  0  0  1  0  0  0  0  0  0
  190.6340  172.2330  141.0380 C   0  0  2  0  0  3  0  0  0  0  0  0
  191.3950  170.9990  141.3270 N   0  0  0  0  0  0  0  0  0  0  0  0
  193.0570  173.0030  140.6250 C   0  0  1  0  0  3  0  0  0  0  0  0
  191.5600  173.3900  140.6210 C   0  0  0  0  0  2  0  0  0  0  0  0
  192.3840  171.2290  142.3790 C   0  0  0  0  0  2  0  0  0  0  0  0
  193.3780  172.3360  141.9870 C   0  0  1  0  0  3  0  0  0  0  0  0
  192.4680  172.2950  138.3890 C   0  0  0  0  0  2  0  0  0  0  0  0
  194.6760  172.6190  138.9260 C   0  0  0  0  0  2  0  0  0  0  0  0
  194.6770  172.2840  137.4530 C   0  0  0  0  0  2  0  0  0  0  0  0
  193.2200  172.1300  137.0860 C   0  0  2  0  0  3  0  0  0  0  0  0
  193.4210  172.1310  139.4870 N   0  0  1  0  0  0  0  0  0  0  0  0
  192.8220  173.1530  136.1830 O   0  0  0  0  0  0  0  0  0  0  0  0
  192.3500  174.3950  136.6150 C   0  0  0  0  0  0  0  0  0  0  0  0
  193.2810  175.4140  136.9570 N   0  0  0  0  0  1  0  0  0  0  0  0
  191.1130  174.6200  136.7120 O   0  0  0  0  0  0  0  0  0  0  0  0
  190.1780  173.4560  143.0430 O   0  0  0  0  0  1  0  0  0  0  0  0
  189.7340  172.6730  142.1620 C   0  0  0  0  0  0  0  0  0  0  0  0
  188.4150  172.2410  142.2270 O   0  0  0  0  0  0  0  0  0  0  0  0
  196.3500  171.2370  143.6470 C   0  0  0  0  0  2  0  0  0  0  0  0
  194.7980  170.5310  145.4330 C   0  0  0  0  0  1  0  0  0  0  0  0
  196.0010  170.1130  144.6080 C   0  0  2  0  0  3  0  0  0  0  0  0
  197.1820  169.8270  145.5240 C   0  0  0  0  0  2  0  0  0  0  0  0
  196.7000  169.3630  146.8850 C   0  0  0  0  0  1  0  0  0  0  0  0
  1  3  1  0  0  0  0
  1  4  1  0  0  0  0
  2  6  1  0  0  0  0
  3  5  1  0  0  0  0
  4 30  1  1  0  0  0
  4  2  1  0  0  0  0
  5  2  1  0  0  0  0
  7  9  1  0  0  0  0
  7  6  1  0  0  0  0
  9  8  1  1  0  0  0
 10  9  1  0  0  0  0
 10 11  1  0  0  0  0
 11 13  1  0  0  0  0
 13 12  2  0  0  0  0
 13 14  2  0  0  0  0
 15 17  1  0  0  0  0
 16 15  2  0  0  0  0
 17 13  1  0  0  0  0
 18 28  1  1  0  0  0
 18 15  1  0  0  0  0
 20 23  1  6  0  0  0
 20 24  1  0  0  0  0
 22 21  1  6  0  0  0
 22 20  1  0  0  0  0
 22 19  1  0  0  0  0
 22 24  1  0  0  0  0
 24 18  1  0  0  0  0
 26 27  1  0  0  0  0
 26 25  1  0  0  0  0
 27 18  1  6  0  0  0
 27 25  1  0  0  0  0
 28 29  1  0  0  0  0
 30 51  1  6  0  0  0
 31 30  1  0  0  0  0
 33 34  1  0  0  0  0
 33 49  1  1  0  0  0
 34 32  1  0  0  0  0
 34 37  1  0  0  0  0
 35 36  1  1  0  0  0
 35 38  1  0  0  0  0
 36 33  1  0  0  0  0
 38 31  1  6  0  0  0
 38 37  1  0  0  0  0
 40 43  1  0  0  0  0
 41 40  1  0  0  0  0
 42 44  1  6  0  0  0
 42 41  1  0  0  0  0
 42 39  1  0  0  0  0
 43 39  1  6  0  0  0
 43 35  1  0  0  0  0
 44 45  1  0  0  0  0
 45 47  2  0  0  0  0
 45 46  1  0  0  0  0
 49 50  2  0  0  0  0
 49 48  1  0  0  0  0
 51 53  1  0  0  0  0
 53 52  1  1  0  0  0
 53 54  1  0  0  0  0
 54 55  1  0  0  0  0
M  END
>  <MODEL>
5

>  <REMARK>
 VINA RESULT:      -5.4      2.885      9.387
  Name = 
  21 active torsions:
  status: ('A' for Active; 'I' for Inactive)
    1  A    between atoms: C_1  and  C_21
    2  A    between atoms: C_1  and  O_29
    3  A    between atoms: C_1  and  C_38
    4  A    between atoms: C_1  and  N_53
    5  A    between atoms: C_2  and  C_19
    6  A    between atoms: C_2  and  O_28
    7  A    between atoms: C_2  and  C_44
    8  A    between atoms: C_4  and  C_40
    9  A    between atoms: C_8  and  S_20
   10  A    between atoms: C_8  and  C_43
   11  A    between atoms: C_10  and  O_32
   12  A    between atoms: C_16  and  C_17
   13  A    between atoms: C_19  and  C_40
   14  A    between atoms: S_20  and  N_42
   15  A    between atoms: N_27  and  C_31
   16  A    between atoms: O_28  and  C_49
   17  A    between atoms: C_31  and  C_54
   18  A    between atoms: O_32  and  C_48
   19  A    between atoms: C_33  and  N_52
   20  A    between atoms: C_43  and  C_51
   21  A    between atoms: C_51  and  C_54
                            x       y       z     vdW  Elec       q    Type
                         _______ _______ _______ _____ _____    ______ ____

>  <TORSDO>
F 21

$$$$
=
 OpenBabel11052419493D

 55 59  0  0  1  0  0  0  0  0999 V2000
  196.2010  174.4110  145.8100 O   0  0  0  0  0  0  0  0  0  0  0  0
  195.4970  172.2940  145.1030 N   0  0  0  0  0  0  0  0  0  0  0  0
  197.1130  173.4970  146.3420 C   0  0  0  0  0  2  0  0  0  0  0  0
  195.0770  173.6400  145.4690 C   0  0  2  0  0  3  0  0  0  0  0  0
  196.7670  172.1410  145.7870 C   0  0  0  0  0  2  0  0  0  0  0  0
  194.5450  171.3680  145.7030 C   0  0  0  0  0  2  0  0  0  0  0  0
  193.7550  170.6410  144.6200 C   0  0  0  0  0  2  0  0  0  0  0  0
  194.7000  168.7100  145.9610 C   0  0  0  0  0  1  0  0  0  0  0  0
  193.7400  169.1320  144.8530 C   0  0  2  0  0  3  0  0  0  0  0  0
  194.0490  168.3880  143.5540 C   0  0  0  0  0  2  0  0  0  0  0  0
  193.3240  168.9920  142.3580 C   0  0  0  0  0  2  0  0  0  0  0  0
  195.6220  170.2310  141.7100 O   0  0  0  0  0  0  0  0  0  0  0  0
  194.4860  169.4610  141.0950 S   0  0  0  0  0  0  0  0  0  0  0  0
  195.0280  168.2300  140.4300 O   0  0  0  0  0  0  0  0  0  0  0  0
  192.7470  169.9130  138.9830 C   0  0  0  0  0  0  0  0  0  0  0  0
  192.5220  168.6740  138.9650 O   0  0  0  0  0  0  0  0  0  0  0  0
  193.7000  170.4470  139.9090 N   0  0  0  0  0  2  0  0  0  0  0  0
  192.0980  170.8190  137.9480 C   0  0  2  0  0  0  0  0  0  0  0  0
  191.4830  172.7990  136.1290 O   0  0  0  0  0  1  0  0  0  0  0  0
  193.7620  172.1480  136.7120 C   0  0  1  0  0  3  0  0  0  0  0  0
  192.8100  174.4930  137.3920 C   0  0  0  0  0  1  0  0  0  0  0  0
  192.6250  173.0660  136.8930 C   0  0  1  0  0  0  0  0  0  0  0  0
  195.1080  172.7580  137.0720 C   0  0  0  0  0  1  0  0  0  0  0  0
  192.9270  172.0550  137.9380 N   0  0  0  0  0  0  0  0  0  0  0  0
  190.6730  172.1190  139.6280 C   0  0  0  0  0  2  0  0  0  0  0  0
  190.3770  170.7470  139.7050 O   0  0  0  0  0  0  0  0  0  0  0  0
  190.6790  171.2520  138.4240 C   0  0  2  0  0  3  0  0  0  0  0  0
  192.0700  170.1900  136.6630 O   0  0  0  0  0  0  0  0  0  0  0  0
  190.8280  169.8240  136.3950 O   0  0  0  0  0  1  0  0  0  0  0  0
  194.2780  174.3070  144.3450 C   0  0  1  0  0  3  0  0  0  0  0  0
  193.1990  175.0020  144.8990 O   0  0  0  0  0  0  0  0  0  0  0  0
  189.9690  174.9200  141.6140 C   0  0  0  0  0  1  0  0  0  0  0  0
  189.3540  173.8450  143.6920 C   0  0  2  0  0  3  0  0  0  0  0  0
  190.2780  174.7910  143.0320 N   0  0  0  0  0  0  0  0  0  0  0  0
  190.9170  174.4900  145.6350 C   0  0  1  0  0  3  0  0  0  0  0  0
  189.6890  173.6660  145.1830 C   0  0  0  0  0  2  0  0  0  0  0  0
  191.6650  174.3460  143.1660 C   0  0  0  0  0  2  0  0  0  0  0  0
  192.0740  174.2100  144.6420 C   0  0  1  0  0  3  0  0  0  0  0  0
  189.1860  176.1780  145.6060 C   0  0  0  0  0  2  0  0  0  0  0  0
  190.9110  176.3560  147.1090 C   0  0  0  0  0  2  0  0  0  0  0  0
  189.9870  177.5050  147.4370 C   0  0  0  0  0  2  0  0  0  0  0  0
  188.8230  177.3530  146.4880 C   0  0  2  0  0  3  0  0  0  0  0  0
  190.6220  175.9350  145.7420 N   0  0  1  0  0  0  0  0  0  0  0  0
  187.6310  177.0510  147.2030 O   0  0  0  0  0  0  0  0  0  0  0  0
  186.3770  177.5150  146.8000 C   0  0  0  0  0  0  0  0  0  0  0  0
  185.7000  176.8610  145.7340 N   0  0  0  0  0  1  0  0  0  0  0  0
  185.8410  178.5070  147.3660 O   0  0  0  0  0  0  0  0  0  0  0  0
  190.1080  171.6070  143.3090 O   0  0  0  0  0  1  0  0  0  0  0  0
  189.2710  172.5020  143.0180 C   0  0  0  0  0  0  0  0  0  0  0  0
  188.2700  172.2310  142.0920 O   0  0  0  0  0  0  0  0  0  0  0  0
  195.1360  175.2700  143.5260 C   0  0  0  0  0  2  0  0  0  0  0  0
  196.8280  174.1060  142.1540 C   0  0  0  0  0  1  0  0  0  0  0  0
  195.4290  174.6940  142.1510 C   0  0  2  0  0  3  0  0  0  0  0  0
  195.3310  175.7880  141.0980 C   0  0  0  0  0  2  0  0  0  0  0  0
  196.4530  176.7930  141.2690 C   0  0  0  0  0  1  0  0  0  0  0  0
  1  3  1  0  0  0  0
  2  4  1  0  0  0  0
  2  6  1  0  0  0  0
  2  5  1  0  0  0  0
  4 30  1  6  0  0  0
  4  1  1  0  0  0  0
  5  3  1  0  0  0  0
  7  9  1  0  0  0  0
  7  6  1  0  0  0  0
  9  8  1  1  0  0  0
 10  9  1  0  0  0  0
 11 10  1  0  0  0  0
 13 12  2  0  0  0  0
 13 11  1  0  0  0  0
 14 13  2  0  0  0  0
 15 17  1  0  0  0  0
 16 15  2  0  0  0  0
 17 13  1  0  0  0  0
 18 28  1  6  0  0  0
 18 15  1  0  0  0  0
 19 22  1  0  0  0  0
 20 22  1  0  0  0  0
 20 23  1  1  0  0  0
 20 24  1  0  0  0  0
 22 21  1  1  0  0  0
 22 24  1  0  0  0  0
 24 18  1  0  0  0  0
 25 26  1  0  0  0  0
 27 18  1  1  0  0  0
 27 25  1  0  0  0  0
 27 26  1  0  0  0  0
 29 28  1  0  0  0  0
 30 51  1  1  0  0  0
 30 31  1  0  0  0  0
 32 34  1  0  0  0  0
 33 49  1  6  0  0  0
 33 36  1  0  0  0  0
 34 37  1  0  0  0  0
 34 33  1  0  0  0  0
 35 36  1  6  0  0  0
 35 43  1  0  0  0  0
 37 38  1  0  0  0  0
 38 31  1  1  0  0  0
 38 35  1  0  0  0  0
 39 42  1  0  0  0  0
 40 41  1  0  0  0  0
 42 44  1  1  0  0  0
 42 41  1  0  0  0  0
 43 39  1  1  0  0  0
 43 40  1  0  0  0  0
 45 44  1  0  0  0  0
 45 47  2  0  0  0  0
 46 45  1  0  0  0  0
 49 48  1  0  0  0  0
 50 49  2  0  0  0  0
 53 52  1  1  0  0  0
 53 51  1  0  0  0  0
 54 55  1  0  0  0  0
 54 53  1  0  0  0  0
M  END
>  <MODEL>
6

>  <REMARK>
 VINA RESULT:      -5.2      3.800      6.924
  Name = 
  21 active torsions:
  status: ('A' for Active; 'I' for Inactive)
    1  A    between atoms: C_1  and  C_21
    2  A    between atoms: C_1  and  O_29
    3  A    between atoms: C_1  and  C_38
    4  A    between atoms: C_1  and  N_53
    5  A    between atoms: C_2  and  C_19
    6  A    between atoms: C_2  and  O_28
    7  A    between atoms: C_2  and  C_44
    8  A    between atoms: C_4  and  C_40
    9  A    between atoms: C_8  and  S_20
   10  A    between atoms: C_8  and  C_43
   11  A    between atoms: C_10  and  O_32
   12  A    between atoms: C_16  and  C_17
   13  A    between atoms: C_19  and  C_40
   14  A    between atoms: S_20  and  N_42
   15  A    between atoms: N_27  and  C_31
   16  A    between atoms: O_28  and  C_49
   17  A    between atoms: C_31  and  C_54
   18  A    between atoms: O_32  and  C_48
   19  A    between atoms: C_33  and  N_52
   20  A    between atoms: C_43  and  C_51
   21  A    between atoms: C_51  and  C_54
                            x       y       z     vdW  Elec       q    Type
                         _______ _______ _______ _____ _____    ______ ____

>  <TORSDO>
F 21

$$$$
=
 OpenBabel11052419493D

 55 59  0  0  1  0  0  0  0  0999 V2000
  197.2180  173.6080  142.7320 O   0  0  0  0  0  0  0  0  0  0  0  0
  196.3620  173.2200  144.8760 N   0  0  0  0  0  0  0  0  0  0  0  0
  197.8820  174.4930  143.5860 C   0  0  0  0  0  2  0  0  0  0  0  0
  196.0760  173.2080  143.4470 C   0  0  2  0  0  3  0  0  0  0  0  0
  197.4540  174.1670  144.9920 C   0  0  0  0  0  2  0  0  0  0  0  0
  195.1970  173.7870  145.5420 C   0  0  0  0  0  2  0  0  0  0  0  0
  195.5210  175.1710  146.0960 C   0  0  0  0  0  2  0  0  0  0  0  0
  194.9440  177.5920  145.6250 C   0  0  0  0  0  1  0  0  0  0  0  0
  194.4090  176.1730  145.7910 C   0  0  2  0  0  3  0  0  0  0  0  0
  193.3330  176.1220  146.8750 C   0  0  0  0  0  2  0  0  0  0  0  0
  192.0460  175.4740  146.3790 C   0  0  0  0  0  2  0  0  0  0  0  0
  189.9890  174.8680  148.0020 O   0  0  0  0  0  0  0  0  0  0  0  0
  190.6550  176.0390  147.3330 S   0  0  0  0  0  0  0  0  0  0  0  0
  191.1250  177.0030  148.3820 O   0  0  0  0  0  0  0  0  0  0  0  0
  188.7430  176.1240  145.3270 C   0  0  0  0  0  0  0  0  0  0  0  0
  188.9430  174.8940  145.1490 O   0  0  0  0  0  0  0  0  0  0  0  0
  189.5160  176.8340  146.3000 N   0  0  0  0  0  2  0  0  0  0  0  0
  187.7690  176.8740  144.4300 C   0  0  2  0  0  0  0  0  0  0  0  0
  186.4190  179.2730  144.2660 O   0  0  0  0  0  1  0  0  0  0  0  0
  186.7520  178.0400  146.3450 C   0  0  1  0  0  3  0  0  0  0  0  0
  184.3670  178.2890  145.2870 C   0  0  0  0  0  1  0  0  0  0  0  0
  185.8850  178.3850  145.2060 C   0  0  1  0  0  0  0  0  0  0  0  0
  185.9910  177.5820  147.5800 C   0  0  0  0  0  1  0  0  0  0  0  0
  186.5420  177.0550  145.2530 N   0  0  0  0  0  0  0  0  0  0  0  0
  186.5520  176.6840  142.1880 C   0  0  0  0  0  2  0  0  0  0  0  0
  185.9560  175.8320  143.1350 O   0  0  0  0  0  0  0  0  0  0  0  0
  187.3540  175.9830  143.2210 C   0  0  2  0  0  3  0  0  0  0  0  0
  188.3190  178.1290  144.0160 O   0  0  0  0  0  0  0  0  0  0  0  0
  189.4550  177.9070  143.3790 O   0  0  0  0  0  1  0  0  0  0  0  0
  195.5940  171.8330  142.9790 C   0  0  1  0  0  3  0  0  0  0  0  0
  195.4490  171.8450  141.5880 O   0  0  0  0  0  0  0  0  0  0  0  0
  191.5970  170.8540  139.2630 C   0  0  0  0  0  1  0  0  0  0  0  0
  191.9900  173.2090  139.6510 C   0  0  2  0  0  3  0  0  0  0  0  0
  192.5910  171.8590  139.6160 N   0  0  0  0  0  0  0  0  0  0  0  0
  194.4170  173.6990  140.3590 C   0  0  1  0  0  3  0  0  0  0  0  0
  193.0160  174.2800  140.0600 C   0  0  0  0  0  2  0  0  0  0  0  0
  193.1650  171.5080  140.9140 C   0  0  0  0  0  2  0  0  0  0  0  0
  194.2450  172.5150  141.3450 C   0  0  1  0  0  3  0  0  0  0  0  0
  194.7190  174.1130  137.9960 C   0  0  0  0  0  2  0  0  0  0  0  0
  196.5460  173.6350  139.3010 C   0  0  0  0  0  2  0  0  0  0  0  0
  197.1100  173.9270  137.9300 C   0  0  0  0  0  2  0  0  0  0  0  0
  195.9150  174.3010  137.0880 C   0  0  2  0  0  3  0  0  0  0  0  0
  195.1370  173.2930  139.1330 N   0  0  1  0  0  0  0  0  0  0  0  0
  195.9910  175.6630  136.6880 O   0  0  0  0  0  0  0  0  0  0  0  0
  196.5690  176.0590  135.4800 C   0  0  0  0  0  0  0  0  0  0  0  0
  196.9330  175.0710  134.5240 N   0  0  0  0  0  1  0  0  0  0  0  0
  196.7760  177.2780  135.2290 O   0  0  0  0  0  0  0  0  0  0  0  0
  189.6280  173.1100  140.0190 O   0  0  0  0  0  0  0  0  0  0  0  0
  190.7660  173.3100  140.5210 C   0  0  0  0  0  0  0  0  0  0  0  0
  190.8780  173.6030  141.8740 O   0  0  0  0  0  1  0  0  0  0  0  0
  196.5620  170.7200  143.3780 C   0  0  0  0  0  2  0  0  0  0  0  0
  195.1380  168.9910  142.3380 C   0  0  0  0  0  1  0  0  0  0  0  0
  195.8160  169.4200  143.6260 C   0  0  2  0  0  3  0  0  0  0  0  0
  194.7740  169.6190  144.7160 C   0  0  0  0  0  2  0  0  0  0  0  0
  195.4320  170.0720  146.0060 C   0  0  0  0  0  1  0  0  0  0  0  0
  1  4  1  0  0  0  0
  1  3  1  0  0  0  0
  2  5  1  0  0  0  0
  2  6  1  0  0  0  0
  3  5  1  0  0  0  0
  4 30  1  6  0  0  0
  4  2  1  0  0  0  0
  6  7  1  0  0  0  0
  9  8  1  1  0  0  0
  9  7  1  0  0  0  0
  9 10  1  0  0  0  0
 11 10  1  0  0  0  0
 11 13  1  0  0  0  0
 13 12  2  0  0  0  0
 13 14  2  0  0  0  0
 15 17  1  0  0  0  0
 16 15  2  0  0  0  0
 17 13  1  0  0  0  0
 18 28  1  6  0  0  0
 18 24  1  0  0  0  0
 18 15  1  0  0  0  0
 19 22  1  0  0  0  0
 20 23  1  1  0  0  0
 22 24  1  0  0  0  0
 22 21  1  1  0  0  0
 22 20  1  0  0  0  0
 24 20  1  0  0  0  0
 25 26  1  0  0  0  0
 25 27  1  0  0  0  0
 26 27  1  0  0  0  0
 27 18  1  1  0  0  0
 29 28  1  0  0  0  0
 30 51  1  6  0  0  0
 31 30  1  0  0  0  0
 32 34  1  0  0  0  0
 33 36  1  0  0  0  0
 33 49  1  1  0  0  0
 34 33  1  0  0  0  0
 34 37  1  0  0  0  0
 35 36  1  6  0  0  0
 35 38  1  0  0  0  0
 37 38  1  0  0  0  0
 38 31  1  6  0  0  0
 41 40  1  0  0  0  0
 42 44  1  1  0  0  0
 42 41  1  0  0  0  0
 42 39  1  0  0  0  0
 43 39  1  6  0  0  0
 43 40  1  0  0  0  0
 43 35  1  0  0  0  0
 45 44  1  0  0  0  0
 46 45  1  0  0  0  0
 47 45  2  0  0  0  0
 48 49  2  0  0  0  0
 49 50  1  0  0  0  0
 51 53  1  0  0  0  0
 53 52  1  6  0  0  0
 53 54  1  0  0  0  0
 54 55  1  0  0  0  0
M  END
>  <MODEL>
7

>  <REMARK>
 VINA RESULT:      -5.2      3.038     10.047
  Name = 
  21 active torsions:
  status: ('A' for Active; 'I' for Inactive)
    1  A    between atoms: C_1  and  C_21
    2  A    between atoms: C_1  and  O_29
    3  A    between atoms: C_1  and  C_38
    4  A    between atoms: C_1  and  N_53
    5  A    between atoms: C_2  and  C_19
    6  A    between atoms: C_2  and  O_28
    7  A    between atoms: C_2  and  C_44
    8  A    between atoms: C_4  and  C_40
    9  A    between atoms: C_8  and  S_20
   10  A    between atoms: C_8  and  C_43
   11  A    between atoms: C_10  and  O_32
   12  A    between atoms: C_16  and  C_17
   13  A    between atoms: C_19  and  C_40
   14  A    between atoms: S_20  and  N_42
   15  A    between atoms: N_27  and  C_31
   16  A    between atoms: O_28  and  C_49
   17  A    between atoms: C_31  and  C_54
   18  A    between atoms: O_32  and  C_48
   19  A    between atoms: C_33  and  N_52
   20  A    between atoms: C_43  and  C_51
   21  A    between atoms: C_51  and  C_54
                            x       y       z     vdW  Elec       q    Type
                         _______ _______ _______ _____ _____    ______ ____

>  <TORSDO>
F 21

$$$$
=
 OpenBabel11052419493D

 55 59  0  0  1  0  0  0  0  0999 V2000
  190.6720  172.6490  144.6240 O   0  0  0  0  0  0  0  0  0  0  0  0
  192.5900  173.3280  143.4670 N   0  0  0  0  0  0  0  0  0  0  0  0
  191.2620  171.4850  144.1240 C   0  0  0  0  0  2  0  0  0  0  0  0
  191.2370  173.6910  143.8690 C   0  0  2  0  0  3  0  0  0  0  0  0
  192.5720  171.8790  143.4970 C   0  0  0  0  0  2  0  0  0  0  0  0
  192.7550  173.7510  142.0830 C   0  0  0  0  0  2  0  0  0  0  0  0
  193.9620  174.6750  141.9480 C   0  0  0  0  0  2  0  0  0  0  0  0
  196.0620  173.9060  143.1380 C   0  0  0  0  0  1  0  0  0  0  0  0
  195.2640  173.8860  141.8380 C   0  0  2  0  0  3  0  0  0  0  0  0
  196.1070  174.4070  140.6750 C   0  0  0  0  0  2  0  0  0  0  0  0
  195.2490  174.9110  139.5210 C   0  0  0  0  0  2  0  0  0  0  0  0
  195.8730  174.5770  136.9260 O   0  0  0  0  0  0  0  0  0  0  0  0
  195.3760  173.8160  138.1240 S   0  0  0  0  0  0  0  0  0  0  0  0
  196.3400  172.7100  138.4400 O   0  0  0  0  0  0  0  0  0  0  0  0
  192.7720  173.9000  137.1760 C   0  0  0  0  0  0  0  0  0  0  0  0
  192.9350  175.1320  136.9740 O   0  0  0  0  0  0  0  0  0  0  0  0
  193.8250  173.1340  137.7690 N   0  0  0  0  0  2  0  0  0  0  0  0
  191.4210  173.2570  136.9010 C   0  0  2  0  0  0  0  0  0  0  0  0
  189.2480  171.5700  136.6980 O   0  0  0  0  0  1  0  0  0  0  0  0
  190.3700  172.0970  138.8000 C   0  0  1  0  0  3  0  0  0  0  0  0
  190.4960  169.6920  137.7650 C   0  0  0  0  0  1  0  0  0  0  0  0
  190.1820  171.1790  137.6640 C   0  0  1  0  0  0  0  0  0  0  0  0
  190.9030  171.4200  140.0540 C   0  0  0  0  0  1  0  0  0  0  0  0
  191.4010  172.0230  137.7330 N   0  0  0  0  0  0  0  0  0  0  0  0
  192.5240  172.0160  134.9540 C   0  0  0  0  0  2  0  0  0  0  0  0
  192.3450  173.3710  134.6230 O   0  0  0  0  0  0  0  0  0  0  0  0
  191.3420  172.7820  135.4190 C   0  0  2  0  0  3  0  0  0  0  0  0
  190.3520  174.1450  137.2430 O   0  0  0  0  0  0  0  0  0  0  0  0
  189.9410  174.7580  136.1480 O   0  0  0  0  0  1  0  0  0  0  0  0
  191.2140  175.0060  144.6510 C   0  0  1  0  0  3  0  0  0  0  0  0
  189.9600  175.1630  145.2500 O   0  0  0  0  0  0  0  0  0  0  0  0
  189.3430  178.3700  142.0000 C   0  0  0  0  0  1  0  0  0  0  0  0
  187.4130  176.9890  142.4650 C   0  0  2  0  0  3  0  0  0  0  0  0
  188.7260  177.4570  142.9540 N   0  0  0  0  0  0  0  0  0  0  0  0
  187.6350  175.6990  144.6830 C   0  0  1  0  0  3  0  0  0  0  0  0
  186.7620  175.9930  143.4420 C   0  0  0  0  0  2  0  0  0  0  0  0
  189.6340  176.3320  143.1740 C   0  0  0  0  0  2  0  0  0  0  0  0
  189.0600  175.3340  144.1930 C   0  0  1  0  0  3  0  0  0  0  0  0
  186.9690  177.9880  145.0840 C   0  0  0  0  0  2  0  0  0  0  0  0
  186.8310  176.4580  146.7890 C   0  0  0  0  0  2  0  0  0  0  0  0
  186.2530  177.7320  147.3590 C   0  0  0  0  0  2  0  0  0  0  0  0
  186.2870  178.7210  146.2190 C   0  0  2  0  0  3  0  0  0  0  0  0
  187.6560  176.8240  145.6420 N   0  0  1  0  0  0  0  0  0  0  0  0
  184.9680  179.0750  145.8240 O   0  0  0  0  0  0  0  0  0  0  0  0
  184.6500  179.4390  144.5130 C   0  0  0  0  0  0  0  0  0  0  0  0
  183.6830  178.6820  143.7950 N   0  0  0  0  0  1  0  0  0  0  0  0
  185.2110  180.4230  143.9590 O   0  0  0  0  0  0  0  0  0  0  0  0
  186.9290  177.0310  140.1220 O   0  0  0  0  0  0  0  0  0  0  0  0
  187.4500  176.4010  141.0800 C   0  0  0  0  0  0  0  0  0  0  0  0
  188.0700  175.1800  140.8430 O   0  0  0  0  0  1  0  0  0  0  0  0
  192.2990  175.0540  145.7250 C   0  0  0  0  0  2  0  0  0  0  0  0
  192.8390  177.1130  144.4720 C   0  0  0  0  0  1  0  0  0  0  0  0
  192.8860  176.4510  145.8370 C   0  0  2  0  0  3  0  0  0  0  0  0
  194.3250  176.3730  146.3250 C   0  0  0  0  0  2  0  0  0  0  0  0
  194.8730  174.9710  146.1420 C   0  0  0  0  0  1  0  0  0  0  0  0
  2  5  1  0  0  0  0
  2  4  1  0  0  0  0
  3  1  1  0  0  0  0
  4  1  1  0  0  0  0
  4 30  1  1  0  0  0
  5  3  1  0  0  0  0
  6  2  1  0  0  0  0
  7  6  1  0  0  0  0
  9  7  1  0  0  0  0
  9  8  1  1  0  0  0
 10  9  1  0  0  0  0
 11 10  1  0  0  0  0
 12 13  2  0  0  0  0
 13 14  2  0  0  0  0
 13 11  1  0  0  0  0
 15 17  1  0  0  0  0
 16 15  2  0  0  0  0
 17 13  1  0  0  0  0
 18 15  1  1  0  0  0
 18 28  1  0  0  0  0
 18 24  1  0  0  0  0
 19 22  1  0  0  0  0
 20 23  1  1  0  0  0
 22 24  1  0  0  0  0
 22 21  1  1  0  0  0
 22 20  1  0  0  0  0
 24 20  1  0  0  0  0
 25 27  1  0  0  0  0
 26 25  1  0  0  0  0
 26 27  1  0  0  0  0
 27 18  1  1  0  0  0
 29 28  1  0  0  0  0
 30 31  1  0  0  0  0
 30 51  1  1  0  0  0
 32 34  1  0  0  0  0
 33 49  1  6  0  0  0
 33 34  1  0  0  0  0
 33 36  1  0  0  0  0
 34 37  1  0  0  0  0
 35 36  1  6  0  0  0
 35 43  1  0  0  0  0
 37 38  1  0  0  0  0
 38 35  1  0  0  0  0
 38 31  1  1  0  0  0
 39 42  1  0  0  0  0
 40 41  1  0  0  0  0
 42 44  1  6  0  0  0
 42 41  1  0  0  0  0
 43 39  1  6  0  0  0
 43 40  1  0  0  0  0
 45 44  1  0  0  0  0
 46 45  1  0  0  0  0
 47 45  2  0  0  0  0
 48 49  2  0  0  0  0
 50 49  1  0  0  0  0
 51 53  1  0  0  0  0
 53 52  1  6  0  0  0
 53 54  1  0  0  0  0
 55 54  1  0  0  0  0
M  END
>  <MODEL>
8

>  <REMARK>
 VINA RESULT:      -5.0      2.975      5.989
  Name = 
  21 active torsions:
  status: ('A' for Active; 'I' for Inactive)
    1  A    between atoms: C_1  and  C_21
    2  A    between atoms: C_1  and  O_29
    3  A    between atoms: C_1  and  C_38
    4  A    between atoms: C_1  and  N_53
    5  A    between atoms: C_2  and  C_19
    6  A    between atoms: C_2  and  O_28
    7  A    between atoms: C_2  and  C_44
    8  A    between atoms: C_4  and  C_40
    9  A    between atoms: C_8  and  S_20
   10  A    between atoms: C_8  and  C_43
   11  A    between atoms: C_10  and  O_32
   12  A    between atoms: C_16  and  C_17
   13  A    between atoms: C_19  and  C_40
   14  A    between atoms: S_20  and  N_42
   15  A    between atoms: N_27  and  C_31
   16  A    between atoms: O_28  and  C_49
   17  A    between atoms: C_31  and  C_54
   18  A    between atoms: O_32  and  C_48
   19  A    between atoms: C_33  and  N_52
   20  A    between atoms: C_43  and  C_51
   21  A    between atoms: C_51  and  C_54
                            x       y       z     vdW  Elec       q    Type
                         _______ _______ _______ _____ _____    ______ ____

>  <TORSDO>
F 21

$$$$
=
 OpenBabel11052419493D

 55 59  0  0  1  0  0  0  0  0999 V2000
  190.7500  173.0590  138.6940 O   0  0  0  0  0  0  0  0  0  0  0  0
  191.3110  172.5420  140.9070 N   0  0  0  0  0  0  0  0  0  0  0  0
  189.9070  173.8270  139.5020 C   0  0  0  0  0  2  0  0  0  0  0  0
  191.2330  172.0460  139.5390 C   0  0  2  0  0  3  0  0  0  0  0  0
  190.3420  173.6210  140.9290 C   0  0  0  0  0  2  0  0  0  0  0  0
  190.8260  171.4800  141.7780 C   0  0  0  0  0  2  0  0  0  0  0  0
  191.7240  171.3440  143.0030 C   0  0  0  0  0  2  0  0  0  0  0  0
  189.5960  172.2210  144.0610 C   0  0  0  0  0  1  0  0  0  0  0  0
  191.0930  171.9830  144.2380 C   0  0  2  0  0  3  0  0  0  0  0  0
  191.8110  173.2850  144.5910 C   0  0  0  0  0  2  0  0  0  0  0  0
  190.9940  174.1560  145.5370 C   0  0  0  0  0  2  0  0  0  0  0  0
  191.3730  176.8140  145.7020 O   0  0  0  0  0  0  0  0  0  0  0  0
  190.7320  175.7680  144.8320 S   0  0  0  0  0  0  0  0  0  0  0  0
  191.3460  175.8220  143.4630 O   0  0  0  0  0  0  0  0  0  0  0  0
  188.5170  177.1570  143.9090 C   0  0  0  0  0  0  0  0  0  0  0  0
  189.3110  177.9520  143.3400 O   0  0  0  0  0  0  0  0  0  0  0  0
  189.0350  176.0870  144.7050 N   0  0  0  0  0  2  0  0  0  0  0  0
  187.0170  177.4050  143.8470 C   0  0  2  0  0  0  0  0  0  0  0  0
  184.6870  178.6730  144.6030 O   0  0  0  0  0  1  0  0  0  0  0  0
  186.6570  178.4830  146.0310 C   0  0  1  0  0  3  0  0  0  0  0  0
  184.4400  177.2110  146.6080 C   0  0  0  0  0  1  0  0  0  0  0  0
  185.3250  177.9900  145.6440 C   0  0  1  0  0  0  0  0  0  0  0  0
  187.0490  178.1370  147.4590 C   0  0  0  0  0  1  0  0  0  0  0  0
  186.5350  177.2290  145.2440 N   0  0  0  0  0  0  0  0  0  0  0  0
  187.2550  175.3560  142.3330 C   0  0  0  0  0  2  0  0  0  0  0  0
  186.6310  176.4040  141.6330 O   0  0  0  0  0  0  0  0  0  0  0  0
  186.3220  176.2950  143.0040 C   0  0  2  0  0  3  0  0  0  0  0  0
  186.7360  178.7180  143.3510 O   0  0  0  0  0  0  0  0  0  0  0  0
  186.7610  178.6900  142.0300 O   0  0  0  0  0  1  0  0  0  0  0  0
  192.5870  171.5260  139.0490 C   0  0  1  0  0  3  0  0  0  0  0  0
  193.5870  171.9430  139.9320 O   0  0  0  0  0  0  0  0  0  0  0  0
  197.4730  172.7350  137.5880 C   0  0  0  0  0  1  0  0  0  0  0  0
  196.4620  174.6860  138.5970 C   0  0  2  0  0  3  0  0  0  0  0  0
  196.5280  173.2100  138.5890 N   0  0  0  0  0  0  0  0  0  0  0  0
  194.7090  174.0760  140.3820 C   0  0  1  0  0  3  0  0  0  0  0  0
  195.4400  175.2070  139.6230 C   0  0  0  0  0  2  0  0  0  0  0  0
  195.2160  172.6300  138.3020 C   0  0  0  0  0  2  0  0  0  0  0  0
  194.1660  173.0680  139.3370 C   0  0  1  0  0  3  0  0  0  0  0  0
  196.5090  174.3760  141.9680 C   0  0  0  0  0  2  0  0  0  0  0  0
  194.7360  173.0250  142.5160 C   0  0  0  0  0  2  0  0  0  0  0  0
  195.6010  173.0560  143.7540 C   0  0  0  0  0  2  0  0  0  0  0  0
  196.7360  173.9920  143.4140 C   0  0  2  0  0  3  0  0  0  0  0  0
  195.5720  173.4160  141.3850 N   0  0  1  0  0  0  0  0  0  0  0  0
  196.6790  175.1600  144.2230 O   0  0  0  0  0  0  0  0  0  0  0  0
  195.5080  175.5740  144.8620 C   0  0  0  0  0  0  0  0  0  0  0  0
  194.5700  176.3710  144.1500 N   0  0  0  0  0  1  0  0  0  0  0  0
  195.2750  175.2550  146.0600 O   0  0  0  0  0  0  0  0  0  0  0  0
  197.1510  175.7200  136.5520 O   0  0  0  0  0  0  0  0  0  0  0  0
  196.1910  175.2930  137.2460 C   0  0  0  0  0  0  0  0  0  0  0  0
  194.8950  175.3700  136.7490 O   0  0  0  0  0  1  0  0  0  0  0  0
  192.6100  170.0020  138.9380 C   0  0  0  0  0  2  0  0  0  0  0  0
  190.5080  168.8270  138.3910 C   0  0  0  0  0  1  0  0  0  0  0  0
  191.7160  169.5310  137.8030 C   0  0  2  0  0  3  0  0  0  0  0  0
  192.4830  168.5760  136.9010 C   0  0  0  0  0  2  0  0  0  0  0  0
  191.9360  168.6230  135.4870 C   0  0  0  0  0  1  0  0  0  0  0  0
  1  3  1  0  0  0  0
  1  4  1  0  0  0  0
  2  5  1  0  0  0  0
  2  6  1  0  0  0  0
  3  5  1  0  0  0  0
  4 30  1  6  0  0  0
  4  2  1  0  0  0  0
  6  7  1  0  0  0  0
  7  9  1  0  0  0  0
  9  8  1  6  0  0  0
  9 10  1  0  0  0  0
 10 11  1  0  0  0  0
 13 11  1  0  0  0  0
 13 12  2  0  0  0  0
 14 13  2  0  0  0  0
 15 17  1  0  0  0  0
 16 15  2  0  0  0  0
 17 13  1  0  0  0  0
 18 28  1  6  0  0  0
 18 15  1  0  0  0  0
 18 24  1  0  0  0  0
 19 22  1  0  0  0  0
 20 23  1  1  0  0  0
 22 20  1  0  0  0  0
 22 21  1  1  0  0  0
 24 22  1  0  0  0  0
 24 20  1  0  0  0  0
 25 27  1  0  0  0  0
 26 25  1  0  0  0  0
 26 27  1  0  0  0  0
 27 18  1  1  0  0  0
 29 28  1  0  0  0  0
 30 51  1  1  0  0  0
 30 31  1  0  0  0  0
 32 34  1  0  0  0  0
 33 49  1  6  0  0  0
 33 36  1  0  0  0  0
 34 33  1  0  0  0  0
 35 36  1  6  0  0  0
 35 43  1  0  0  0  0
 37 34  1  0  0  0  0
 37 38  1  0  0  0  0
 38 31  1  1  0  0  0
 38 35  1  0  0  0  0
 39 42  1  0  0  0  0
 40 41  1  0  0  0  0
 42 41  1  0  0  0  0
 42 44  1  1  0  0  0
 43 39  1  1  0  0  0
 43 40  1  0  0  0  0
 44 45  1  0  0  0  0
 45 47  2  0  0  0  0
 46 45  1  0  0  0  0
 48 49  2  0  0  0  0
 50 49  1  0  0  0  0
 53 52  1  1  0  0  0
 53 51  1  0  0  0  0
 54 53  1  0  0  0  0
 55 54  1  0  0  0  0
M  END
>  <MODEL>
9

>  <REMARK>
 VINA RESULT:      -5.0      2.870     10.308
  Name = 
  21 active torsions:
  status: ('A' for Active; 'I' for Inactive)
    1  A    between atoms: C_1  and  C_21
    2  A    between atoms: C_1  and  O_29
    3  A    between atoms: C_1  and  C_38
    4  A    between atoms: C_1  and  N_53
    5  A    between atoms: C_2  and  C_19
    6  A    between atoms: C_2  and  O_28
    7  A    between atoms: C_2  and  C_44
    8  A    between atoms: C_4  and  C_40
    9  A    between atoms: C_8  and  S_20
   10  A    between atoms: C_8  and  C_43
   11  A    between atoms: C_10  and  O_32
   12  A    between atoms: C_16  and  C_17
   13  A    between atoms: C_19  and  C_40
   14  A    between atoms: S_20  and  N_42
   15  A    between atoms: N_27  and  C_31
   16  A    between atoms: O_28  and  C_49
   17  A    between atoms: C_31  and  C_54
   18  A    between atoms: O_32  and  C_48
   19  A    between atoms: C_33  and  N_52
   20  A    between atoms: C_43  and  C_51
   21  A    between atoms: C_51  and  C_54
                            x       y       z     vdW  Elec       q    Type
                         _______ _______ _______ _____ _____    ______ ____

>  <TORSDO>
F 21

$$$$
