=
 OpenBabel11052421133D

 43 48  0  0  1  0  0  0  0  0999 V2000
  185.0800  178.2030  147.0190 C   0  0  0  0  0  0  0  0  0  0  0  0
  188.2330  176.1540  143.6510 C   0  0  0  0  0  0  0  0  0  0  0  0
  189.7300  176.7920  145.4530 O   0  0  0  0  0  0  0  0  0  0  0  0
  186.0600  177.1280  145.0490 C   0  0  0  0  0  0  0  0  0  0  0  0
  186.2620  178.3270  147.6240 C   0  0  0  0  0  3  0  0  0  0  0  0
  183.9610  178.6540  147.6340 F   0  0  0  0  0  0  0  0  0  0  0  0
  187.3390  177.2260  145.6290 C   0  0  0  0  0  0  0  0  0  0  0  0
  184.9800  177.5820  145.6880 C   0  0  0  0  0  3  0  0  0  0  0  0
  187.5410  177.8460  146.9920 C   0  0  0  0  0  3  0  0  0  0  0  0
  190.8320  176.2880  144.7460 C   0  0  0  0  0  0  0  0  0  0  0  0
  188.4350  176.7280  144.9180 C   0  0  0  0  0  0  0  0  0  0  0  0
  186.9710  176.0900  143.1450 N   0  0  0  0  0  2  0  0  0  0  0  0
  189.2850  175.6760  142.9590 C   0  0  0  0  0  0  0  0  0  0  0  0
  190.6450  175.7460  143.5370 C   0  0  0  0  0  3  0  0  0  0  0  0
  185.9210  176.5610  143.8220 N   0  0  0  0  0  0  0  0  0  0  0  0
  192.1710  176.3530  145.3470 C   0  0  0  0  0  0  0  0  0  0  0  0
  193.3190  176.1500  144.5220 N   0  0  0  0  0  2  0  0  0  0  0  0
  192.3090  176.5960  146.5780 O   0  0  0  0  0  0  0  0  0  0  0  0
  195.0490  175.4700  146.4040 O   0  0  0  0  0  0  0  0  0  0  0  0
  194.9350  176.2620  145.1310 S   0  0  0  0  0  0  0  0  0  0  0  0
  195.2660  177.7040  145.3990 O   0  0  0  0  0  0  0  0  0  0  0  0
  196.0710  175.6140  143.8990 C   0  0  2  0  0  3  0  0  0  0  0  0
  195.0550  175.1880  141.7870 C   0  0  0  0  0  2  0  0  0  0  0  0
  196.3450  176.6820  142.8700 C   0  0  0  0  0  2  0  0  0  0  0  0
  195.5120  174.4820  143.0610 C   0  0  1  0  0  0  0  0  0  0  0  0
  196.6640  173.5280  142.7430 C   0  0  0  0  0  1  0  0  0  0  0  0
  195.4120  176.5490  141.8310 O   0  0  0  0  0  0  0  0  0  0  0  0
  194.4540  173.8120  143.7300 O   0  0  0  0  0  0  0  0  0  0  0  0
  194.7810  172.4580  143.9230 C   0  0  0  0  0  3  0  0  0  0  0  0
  194.6060  170.6970  145.7870 C   0  0  0  0  0  2  0  0  0  0  0  0
  194.0780  170.0820  143.3950 C   0  0  0  0  0  2  0  0  0  0  0  0
  194.9370  169.7610  144.6270 C   0  0  0  0  0  2  0  0  0  0  0  0
  193.7250  171.5710  143.2640 C   0  0  0  0  0  2  0  0  0  0  0  0
  194.8970  172.1610  145.4250 C   0  0  0  0  0  2  0  0  0  0  0  0
  189.1070  175.0240  141.6220 C   0  0  0  0  0  2  0  0  0  0  0  0
  190.7400  171.7560  140.6080 C   0  0  0  0  0  3  0  0  0  0  0  0
  190.4060  170.9350  141.6900 C   0  0  0  0  0  0  0  0  0  0  0  0
  189.2490  172.7870  142.7370 C   0  0  0  0  0  3  0  0  0  0  0  0
  190.3280  173.0920  140.5900 C   0  0  0  0  0  3  0  0  0  0  0  0
  189.5870  173.6110  141.6590 C   0  0  0  0  0  0  0  0  0  0  0  0
  189.6610  171.4510  142.7550 C   0  0  0  0  0  3  0  0  0  0  0  0
  191.1680  168.4570  141.7220 N   0  0  0  0  0  0  0  0  0  0  0  0
  190.8270  169.5630  141.7070 C   0  0  0  0  0  0  0  0  0  0  0  0
  1  5  1  0  0  0  0
  1  6  1  0  0  0  0
  2 11  1  0  0  0  0
  4  7  1  0  0  0  0
  4  8  1  0  0  0  0
  7  9  1  0  0  0  0
  8  1  2  0  0  0  0
  9  5  2  0  0  0  0
 10 16  1  0  0  0  0
 10  3  1  0  0  0  0
 11  3  1  0  0  0  0
 11  7  2  0  0  0  0
 12  2  1  0  0  0  0
 12 15  1  0  0  0  0
 13 14  1  0  0  0  0
 13  2  2  0  0  0  0
 14 10  2  0  0  0  0
 15  4  2  0  0  0  0
 16 18  2  0  0  0  0
 17 20  1  0  0  0  0
 17 16  1  0  0  0  0
 20 21  2  0  0  0  0
 20 19  2  0  0  0  0
 22 20  1  1  0  0  0
 23 27  1  0  0  0  0
 23 25  1  0  0  0  0
 24 22  1  0  0  0  0
 25 26  1  6  0  0  0
 25 28  1  0  0  0  0
 25 22  1  0  0  0  0
 27 24  1  0  0  0  0
 28 29  1  0  0  0  0
 29 34  1  0  0  0  0
 31 32  1  0  0  0  0
 32 30  1  0  0  0  0
 33 31  1  0  0  0  0
 33 29  1  0  0  0  0
 34 30  1  0  0  0  0
 35 40  1  0  0  0  0
 35 13  1  0  0  0  0
 36 37  1  0  0  0  0
 37 43  1  0  0  0  0
 37 41  2  0  0  0  0
 38 41  1  0  0  0  0
 39 36  2  0  0  0  0
 39 40  1  0  0  0  0
 40 38  2  0  0  0  0
 43 42  3  0  0  0  0
M  END
>  <MODEL>
1

>  <REMARK>
 VINA RESULT:      -8.2      0.000      0.000
  Name = 
  8 active torsions:
  status: ('A' for Active; 'I' for Inactive)
    1  A    between atoms: C_1  and  C_34
    2  A    between atoms: C_1  and  C_35
    3  A    between atoms: C_2  and  C_27
    4  A    between atoms: C_4  and  S_12
    5  A    between atoms: N_6  and  S_12
    6  A    between atoms: C_11  and  O_14
    7  A    between atoms: O_14  and  C_22
    8  A    between atoms: C_19  and  C_37
                            x       y       z     vdW  Elec       q    Type
                         _______ _______ _______ _____ _____    ______ ____

>  <TORSDO>
F 8

$$$$
=
 OpenBabel11052421133D

 43 48  0  0  1  0  0  0  0  0999 V2000
  185.3280  179.0130  144.1480 C   0  0  0  0  0  0  0  0  0  0  0  0
  189.0560  175.9030  145.5310 C   0  0  0  0  0  0  0  0  0  0  0  0
  188.3860  174.9970  143.3800 O   0  0  0  0  0  0  0  0  0  0  0  0
  187.1500  177.8920  145.3390 C   0  0  0  0  0  0  0  0  0  0  0  0
  185.3780  178.1580  143.1260 C   0  0  0  0  0  3  0  0  0  0  0  0
  184.4220  180.0200  144.1360 F   0  0  0  0  0  0  0  0  0  0  0  0
  187.2590  176.9540  144.2950 C   0  0  0  0  0  0  0  0  0  0  0  0
  186.2460  178.8730  145.2900 C   0  0  0  0  0  3  0  0  0  0  0  0
  186.3610  177.0180  143.0810 C   0  0  0  0  0  2  0  0  0  0  0  0
  189.3610  173.9930  143.4740 C   0  0  0  0  0  0  0  0  0  0  0  0
  188.2280  175.9510  144.3960 C   0  0  0  0  0  0  0  0  0  0  0  0
  188.9010  176.8400  146.5060 N   0  0  0  0  0  0  0  0  0  0  0  0
  189.9900  174.9380  145.6350 C   0  0  0  0  0  0  0  0  0  0  0  0
  190.1480  173.9400  144.5550 C   0  0  0  0  0  3  0  0  0  0  0  0
  187.9790  177.8010  146.4120 N   0  0  0  0  0  0  0  0  0  0  0  0
  189.5100  173.0230  142.3810 C   0  0  0  0  0  0  0  0  0  0  0  0
  189.7510  173.4940  141.0540 N   0  0  0  0  0  2  0  0  0  0  0  0
  189.4370  171.7840  142.6110 O   0  0  0  0  0  0  0  0  0  0  0  0
  188.6640  172.0560  139.1170 O   0  0  0  0  0  0  0  0  0  0  0  0
  189.9930  172.4230  139.7160 S   0  0  0  0  0  0  0  0  0  0  0  0
  190.6940  171.1820  140.1950 O   0  0  0  0  0  0  0  0  0  0  0  0
  191.0170  173.2440  138.4890 C   0  0  2  0  0  3  0  0  0  0  0  0
  193.0700  172.1220  138.0430 C   0  0  0  0  0  2  0  0  0  0  0  0
  191.0010  172.4400  137.2130 C   0  0  0  0  0  2  0  0  0  0  0  0
  192.4920  173.2950  138.8310 C   0  0  1  0  0  0  0  0  0  0  0  0
  193.0480  174.6110  138.2870 C   0  0  0  0  0  1  0  0  0  0  0  0
  192.0690  171.5320  137.2470 O   0  0  0  0  0  0  0  0  0  0  0  0
  192.7060  173.1800  140.2290 O   0  0  0  0  0  0  0  0  0  0  0  0
  193.4250  174.2920  140.7050 C   0  0  0  0  0  3  0  0  0  0  0  0
  193.3810  175.8690  142.7330 C   0  0  0  0  0  2  0  0  0  0  0  0
  195.5780  175.0190  141.8230 C   0  0  0  0  0  2  0  0  0  0  0  0
  194.7470  176.2610  142.1760 C   0  0  0  0  0  2  0  0  0  0  0  0
  194.7310  173.8290  141.3470 C   0  0  0  0  0  2  0  0  0  0  0  0
  192.5620  175.0780  141.7030 C   0  0  0  0  0  2  0  0  0  0  0  0
  190.9160  174.8740  146.8110 C   0  0  0  0  0  2  0  0  0  0  0  0
  194.1590  173.4980  145.4090 C   0  0  0  0  0  3  0  0  0  0  0  0
  195.0200  174.5830  145.5930 C   0  0  0  0  0  0  0  0  0  0  0  0
  193.1990  175.8650  146.5450 C   0  0  0  0  0  3  0  0  0  0  0  0
  192.8180  173.5940  145.7930 C   0  0  0  0  0  3  0  0  0  0  0  0
  192.3350  174.7820  146.3580 C   0  0  0  0  0  0  0  0  0  0  0  0
  194.5400  175.7670  146.1610 C   0  0  0  0  0  3  0  0  0  0  0  0
  197.5060  174.4030  144.8800 N   0  0  0  0  0  0  0  0  0  0  0  0
  196.3970  174.4830  145.1990 C   0  0  0  0  0  0  0  0  0  0  0  0
  1  8  1  0  0  0  0
  2 13  2  0  0  0  0
  2 12  1  0  0  0  0
  3 10  1  0  0  0  0
  3 11  1  0  0  0  0
  4 15  1  0  0  0  0
  5  1  2  0  0  0  0
  6  1  1  0  0  0  0
  7 11  2  0  0  0  0
  7  4  1  0  0  0  0
  8  4  2  0  0  0  0
  9  5  1  0  0  0  0
  9  7  1  0  0  0  0
 10 14  2  0  0  0  0
 11  2  1  0  0  0  0
 13 35  1  0  0  0  0
 14 13  1  0  0  0  0
 15 12  2  0  0  0  0
 16 18  2  0  0  0  0
 16 10  1  0  0  0  0
 17 16  1  0  0  0  0
 19 20  2  0  0  0  0
 20 21  2  0  0  0  0
 20 17  1  0  0  0  0
 22 25  1  0  0  0  0
 22 20  1  1  0  0  0
 23 25  1  0  0  0  0
 24 27  1  0  0  0  0
 24 22  1  0  0  0  0
 25 26  1  6  0  0  0
 25 28  1  0  0  0  0
 27 23  1  0  0  0  0
 28 29  1  0  0  0  0
 29 33  1  0  0  0  0
 29 34  1  0  0  0  0
 31 32  1  0  0  0  0
 32 30  1  0  0  0  0
 33 31  1  0  0  0  0
 34 30  1  0  0  0  0
 36 37  2  0  0  0  0
 36 39  1  0  0  0  0
 37 41  1  0  0  0  0
 39 40  2  0  0  0  0
 40 38  1  0  0  0  0
 40 35  1  0  0  0  0
 41 38  2  0  0  0  0
 42 43  3  0  0  0  0
 43 37  1  0  0  0  0
M  END
>  <MODEL>
2

>  <REMARK>
 VINA RESULT:      -7.7      3.370      5.711
  Name = 
  8 active torsions:
  status: ('A' for Active; 'I' for Inactive)
    1  A    between atoms: C_1  and  C_34
    2  A    between atoms: C_1  and  C_35
    3  A    between atoms: C_2  and  C_27
    4  A    between atoms: C_4  and  S_12
    5  A    between atoms: N_6  and  S_12
    6  A    between atoms: C_11  and  O_14
    7  A    between atoms: O_14  and  C_22
    8  A    between atoms: C_19  and  C_37
                            x       y       z     vdW  Elec       q    Type
                         _______ _______ _______ _____ _____    ______ ____

>  <TORSDO>
F 8

$$$$
=
 OpenBabel11052421133D

 43 48  0  0  1  0  0  0  0  0999 V2000
  184.6490  178.4360  145.4840 C   0  0  0  0  0  0  0  0  0  0  0  0
  189.3740  176.6960  145.8370 C   0  0  0  0  0  0  0  0  0  0  0  0
  188.7070  175.9600  143.6220 O   0  0  0  0  0  0  0  0  0  0  0  0
  186.9080  177.8720  146.2400 C   0  0  0  0  0  0  0  0  0  0  0  0
  184.8160  177.8290  144.3080 C   0  0  0  0  0  3  0  0  0  0  0  0
  183.4690  179.0400  145.7650 F   0  0  0  0  0  0  0  0  0  0  0  0
  187.1550  177.2130  145.0200 C   0  0  0  0  0  0  0  0  0  0  0  0
  185.7330  178.4570  146.4790 C   0  0  0  0  0  3  0  0  0  0  0  0
  186.1030  177.1400  143.9370 C   0  0  0  0  0  2  0  0  0  0  0  0
  189.9630  175.3720  143.4140 C   0  0  0  0  0  0  0  0  0  0  0  0
  188.4060  176.6220  144.8210 C   0  0  0  0  0  0  0  0  0  0  0  0
  189.0740  177.3480  146.9940 N   0  0  0  0  0  0  0  0  0  0  0  0
  190.5810  176.1260  145.6530 C   0  0  0  0  0  0  0  0  0  0  0  0
  190.8870  175.4350  144.3810 C   0  0  0  0  0  3  0  0  0  0  0  0
  187.8820  177.9160  147.1870 N   0  0  0  0  0  0  0  0  0  0  0  0
  190.2500  174.7050  142.1370 C   0  0  0  0  0  0  0  0  0  0  0  0
  191.5620  174.1950  141.8930 N   0  0  0  0  0  2  0  0  0  0  0  0
  189.3460  174.5740  141.2660 O   0  0  0  0  0  0  0  0  0  0  0  0
  193.4030  173.6450  140.0740 O   0  0  0  0  0  0  0  0  0  0  0  0
  191.9760  173.3480  140.4410 S   0  0  0  0  0  0  0  0  0  0  0  0
  191.0640  173.7910  139.3310 O   0  0  0  0  0  0  0  0  0  0  0  0
  191.7650  171.5850  140.7140 C   0  0  2  0  0  3  0  0  0  0  0  0
  190.7890  171.0480  142.8190 C   0  0  0  0  0  2  0  0  0  0  0  0
  190.2970  171.2450  140.6300 C   0  0  0  0  0  2  0  0  0  0  0  0
  192.1370  171.1130  142.1040 C   0  0  1  0  0  0  0  0  0  0  0  0
  192.7250  169.7080  141.9750 C   0  0  0  0  0  1  0  0  0  0  0  0
  189.7470  171.3350  141.9170 O   0  0  0  0  0  0  0  0  0  0  0  0
  193.0500  172.0020  142.7280 O   0  0  0  0  0  0  0  0  0  0  0  0
  194.0200  171.2790  143.4460 C   0  0  0  0  0  3  0  0  0  0  0  0
  196.4410  171.6030  144.2440 C   0  0  0  0  0  2  0  0  0  0  0  0
  194.7290  170.5340  145.7610 C   0  0  0  0  0  2  0  0  0  0  0  0
  196.0940  170.3730  145.0780 C   0  0  0  0  0  2  0  0  0  0  0  0
  193.7280  171.3640  144.9430 C   0  0  0  0  0  2  0  0  0  0  0  0
  195.4190  171.8240  143.1200 C   0  0  0  0  0  2  0  0  0  0  0  0
  191.6520  176.2150  146.6960 C   0  0  0  0  0  2  0  0  0  0  0  0
  194.8200  176.7450  144.6810 C   0  0  0  0  0  3  0  0  0  0  0  0
  195.4780  175.5270  144.8800 C   0  0  0  0  0  0  0  0  0  0  0  0
  193.6550  174.7710  146.2830 C   0  0  0  0  0  3  0  0  0  0  0  0
  193.5780  176.9760  145.2820 C   0  0  0  0  0  3  0  0  0  0  0  0
  192.9970  175.9900  146.0890 C   0  0  0  0  0  0  0  0  0  0  0  0
  194.8950  174.5410  145.6810 C   0  0  0  0  0  3  0  0  0  0  0  0
  197.7780  175.0980  143.7630 N   0  0  0  0  0  0  0  0  0  0  0  0
  196.7520  175.2900  144.2620 C   0  0  0  0  0  0  0  0  0  0  0  0
  1  6  1  0  0  0  0
  1  8  1  0  0  0  0
  2 12  1  0  0  0  0
  3 11  1  0  0  0  0
  4  8  2  0  0  0  0
  4 15  1  0  0  0  0
  5  1  2  0  0  0  0
  7  4  1  0  0  0  0
  9  5  1  0  0  0  0
  9  7  1  0  0  0  0
 10  3  1  0  0  0  0
 10 14  2  0  0  0  0
 11  7  2  0  0  0  0
 11  2  1  0  0  0  0
 12 15  2  0  0  0  0
 13  2  2  0  0  0  0
 13 35  1  0  0  0  0
 14 13  1  0  0  0  0
 16 10  1  0  0  0  0
 17 16  1  0  0  0  0
 18 16  2  0  0  0  0
 19 20  2  0  0  0  0
 20 17  1  0  0  0  0
 21 20  2  0  0  0  0
 22 20  1  1  0  0  0
 22 25  1  0  0  0  0
 24 22  1  0  0  0  0
 24 27  1  0  0  0  0
 25 26  1  6  0  0  0
 25 28  1  0  0  0  0
 25 23  1  0  0  0  0
 27 23  1  0  0  0  0
 28 29  1  0  0  0  0
 29 33  1  0  0  0  0
 30 32  1  0  0  0  0
 32 31  1  0  0  0  0
 33 31  1  0  0  0  0
 34 29  1  0  0  0  0
 34 30  1  0  0  0  0
 36 37  2  0  0  0  0
 36 39  1  0  0  0  0
 37 41  1  0  0  0  0
 39 40  2  0  0  0  0
 40 38  1  0  0  0  0
 40 35  1  0  0  0  0
 41 38  2  0  0  0  0
 42 43  3  0  0  0  0
 43 37  1  0  0  0  0
M  END
>  <MODEL>
3

>  <REMARK>
 VINA RESULT:      -7.6      2.683      5.070
  Name = 
  8 active torsions:
  status: ('A' for Active; 'I' for Inactive)
    1  A    between atoms: C_1  and  C_34
    2  A    between atoms: C_1  and  C_35
    3  A    between atoms: C_2  and  C_27
    4  A    between atoms: C_4  and  S_12
    5  A    between atoms: N_6  and  S_12
    6  A    between atoms: C_11  and  O_14
    7  A    between atoms: O_14  and  C_22
    8  A    between atoms: C_19  and  C_37
                            x       y       z     vdW  Elec       q    Type
                         _______ _______ _______ _____ _____    ______ ____

>  <TORSDO>
F 8

$$$$
=
 OpenBabel11052421133D

 43 48  0  0  1  0  0  0  0  0999 V2000
  184.6290  178.4840  145.5910 C   0  0  0  0  0  0  0  0  0  0  0  0
  188.8080  175.6780  145.2030 C   0  0  0  0  0  0  0  0  0  0  0  0
  187.8960  175.5770  142.9550 O   0  0  0  0  0  0  0  0  0  0  0  0
  186.7150  177.2790  146.0300 C   0  0  0  0  0  0  0  0  0  0  0  0
  184.5990  178.1050  144.3120 C   0  0  0  0  0  3  0  0  0  0  0  0
  183.6420  179.2710  146.0800 F   0  0  0  0  0  0  0  0  0  0  0  0
  186.7470  176.8410  144.6920 C   0  0  0  0  0  0  0  0  0  0  0  0
  185.7250  178.0560  146.4750 C   0  0  0  0  0  3  0  0  0  0  0  0
  185.6670  177.2310  143.7090 C   0  0  0  0  0  2  0  0  0  0  0  0
  188.9650  174.7730  142.5330 C   0  0  0  0  0  0  0  0  0  0  0  0
  187.8100  176.0330  144.2780 C   0  0  0  0  0  0  0  0  0  0  0  0
  188.7190  176.1340  146.4820 N   0  0  0  0  0  0  0  0  0  0  0  0
  189.8340  174.8980  144.8110 C   0  0  0  0  0  0  0  0  0  0  0  0
  189.9140  174.4270  143.4110 C   0  0  0  0  0  3  0  0  0  0  0  0
  187.7070  176.9070  146.8810 N   0  0  0  0  0  0  0  0  0  0  0  0
  189.0320  174.3300  141.1340 C   0  0  0  0  0  0  0  0  0  0  0  0
  189.9290  173.2780  140.7740 N   0  0  0  0  0  2  0  0  0  0  0  0
  188.2990  174.8660  140.2570 O   0  0  0  0  0  0  0  0  0  0  0  0
  190.4220  173.7620  138.2210 O   0  0  0  0  0  0  0  0  0  0  0  0
  190.0360  172.6560  139.1630 S   0  0  0  0  0  0  0  0  0  0  0  0
  188.7030  172.0880  138.7610 O   0  0  0  0  0  0  0  0  0  0  0  0
  191.2720  171.3520  139.1210 C   0  0  2  0  0  3  0  0  0  0  0  0
  191.9460  170.5990  141.2770 C   0  0  0  0  0  2  0  0  0  0  0  0
  190.6310  170.0510  139.5330 C   0  0  0  0  0  2  0  0  0  0  0  0
  192.3880  171.5090  140.1340 C   0  0  1  0  0  0  0  0  0  0  0  0
  193.6680  170.9660  139.5010 C   0  0  0  0  0  1  0  0  0  0  0  0
  190.7730  169.9060  140.9210 O   0  0  0  0  0  0  0  0  0  0  0  0
  192.5400  172.8630  140.5350 O   0  0  0  0  0  0  0  0  0  0  0  0
  193.8970  173.2310  140.4960 C   0  0  0  0  0  3  0  0  0  0  0  0
  195.2870  175.3880  140.3690 C   0  0  0  0  0  2  0  0  0  0  0  0
  195.9910  173.5030  141.8950 C   0  0  0  0  0  2  0  0  0  0  0  0
  196.4100  174.4210  140.7380 C   0  0  0  0  0  2  0  0  0  0  0  0
  194.4920  173.1690  141.9020 C   0  0  0  0  0  2  0  0  0  0  0  0
  194.0350  174.6380  139.8950 C   0  0  0  0  0  2  0  0  0  0  0  0
  190.9350  174.5270  145.7560 C   0  0  0  0  0  2  0  0  0  0  0  0
  193.4930  176.6780  143.9650 C   0  0  0  0  0  3  0  0  0  0  0  0
  194.6860  176.0420  144.3230 C   0  0  0  0  0  0  0  0  0  0  0  0
  193.4340  174.4360  145.6350 C   0  0  0  0  0  3  0  0  0  0  0  0
  192.2710  176.1940  144.4410 C   0  0  0  0  0  3  0  0  0  0  0  0
  192.2410  175.0740  145.2820 C   0  0  0  0  0  0  0  0  0  0  0  0
  194.6550  174.9210  145.1590 C   0  0  0  0  0  3  0  0  0  0  0  0
  196.9510  176.9380  143.4380 N   0  0  0  0  0  0  0  0  0  0  0  0
  195.9400  176.5380  143.8330 C   0  0  0  0  0  0  0  0  0  0  0  0
  1  6  1  0  0  0  0
  1  8  1  0  0  0  0
  2 12  1  0  0  0  0
  3 11  1  0  0  0  0
  4  8  2  0  0  0  0
  4 15  1  0  0  0  0
  5  1  2  0  0  0  0
  7  4  1  0  0  0  0
  9  5  1  0  0  0  0
  9  7  1  0  0  0  0
 10  3  1  0  0  0  0
 10 14  2  0  0  0  0
 11  7  2  0  0  0  0
 11  2  1  0  0  0  0
 12 15  2  0  0  0  0
 13  2  2  0  0  0  0
 13 35  1  0  0  0  0
 14 13  1  0  0  0  0
 16 10  1  0  0  0  0
 17 16  1  0  0  0  0
 18 16  2  0  0  0  0
 19 20  2  0  0  0  0
 20 17  1  0  0  0  0
 21 20  2  0  0  0  0
 22 20  1  1  0  0  0
 22 24  1  0  0  0  0
 22 25  1  0  0  0  0
 24 27  1  0  0  0  0
 25 26  1  6  0  0  0
 25 28  1  0  0  0  0
 25 23  1  0  0  0  0
 27 23  1  0  0  0  0
 29 28  1  0  0  0  0
 29 33  1  0  0  0  0
 30 32  1  0  0  0  0
 31 33  1  0  0  0  0
 32 31  1  0  0  0  0
 34 30  1  0  0  0  0
 34 29  1  0  0  0  0
 36 37  2  0  0  0  0
 36 39  1  0  0  0  0
 37 41  1  0  0  0  0
 39 40  2  0  0  0  0
 40 38  1  0  0  0  0
 40 35  1  0  0  0  0
 41 38  2  0  0  0  0
 42 43  3  0  0  0  0
 43 37  1  0  0  0  0
M  END
>  <MODEL>
4

>  <REMARK>
 VINA RESULT:      -7.6      3.186      5.727
  Name = 
  8 active torsions:
  status: ('A' for Active; 'I' for Inactive)
    1  A    between atoms: C_1  and  C_34
    2  A    between atoms: C_1  and  C_35
    3  A    between atoms: C_2  and  C_27
    4  A    between atoms: C_4  and  S_12
    5  A    between atoms: N_6  and  S_12
    6  A    between atoms: C_11  and  O_14
    7  A    between atoms: O_14  and  C_22
    8  A    between atoms: C_19  and  C_37
                            x       y       z     vdW  Elec       q    Type
                         _______ _______ _______ _____ _____    ______ ____

>  <TORSDO>
F 8

$$$$
=
 OpenBabel11052421133D

 43 48  0  0  1  0  0  0  0  0999 V2000
  195.3440  174.3760  145.7340 C   0  0  0  0  0  0  0  0  0  0  0  0
  191.7010  173.3380  142.3970 C   0  0  0  0  0  0  0  0  0  0  0  0
  190.8970  175.3810  143.4340 O   0  0  0  0  0  0  0  0  0  0  0  0
  193.9610  173.3660  143.9840 C   0  0  0  0  0  0  0  0  0  0  0  0
  194.4850  175.3780  145.9300 C   0  0  0  0  0  3  0  0  0  0  0  0
  196.4790  174.3130  146.4690 F   0  0  0  0  0  0  0  0  0  0  0  0
  193.0110  174.3940  144.1370 C   0  0  0  0  0  0  0  0  0  0  0  0
  195.0700  173.3390  144.7270 C   0  0  0  0  0  3  0  0  0  0  0  0
  193.2060  175.5040  145.1450 C   0  0  0  0  0  3  0  0  0  0  0  0
  189.7550  175.3720  142.6210 C   0  0  0  0  0  0  0  0  0  0  0  0
  191.8700  174.3770  143.3290 C   0  0  0  0  0  0  0  0  0  0  0  0
  192.6560  172.3740  142.2970 N   0  0  0  0  0  2  0  0  0  0  0  0
  190.6030  173.3140  141.6170 C   0  0  0  0  0  0  0  0  0  0  0  0
  189.5860  174.3820  141.7360 C   0  0  0  0  0  3  0  0  0  0  0  0
  193.7480  172.3880  143.0650 N   0  0  0  0  0  0  0  0  0  0  0  0
  188.7660  176.4510  142.7450 C   0  0  0  0  0  0  0  0  0  0  0  0
  187.4530  176.1480  143.2180 N   0  0  0  0  0  2  0  0  0  0  0  0
  189.0740  177.6380  142.4450 O   0  0  0  0  0  0  0  0  0  0  0  0
  185.1380  177.1690  142.4450 O   0  0  0  0  0  0  0  0  0  0  0  0
  186.2420  177.3630  143.4470 S   0  0  0  0  0  0  0  0  0  0  0  0
  186.8610  178.7210  143.2640 O   0  0  0  0  0  0  0  0  0  0  0  0
  185.5900  177.2300  145.1160 C   0  0  2  0  0  3  0  0  0  0  0  0
  186.0170  179.1430  146.4690 C   0  0  0  0  0  2  0  0  0  0  0  0
  184.4010  178.1480  145.2560 C   0  0  0  0  0  2  0  0  0  0  0  0
  186.5240  177.7280  146.1990 C   0  0  1  0  0  0  0  0  0  0  0  0
  186.3100  176.8540  147.4350 C   0  0  0  0  0  1  0  0  0  0  0  0
  184.8540  179.3930  145.7160 O   0  0  0  0  0  0  0  0  0  0  0  0
  187.8780  177.7000  145.7720 O   0  0  0  0  0  0  0  0  0  0  0  0
  188.6550  176.9440  146.6680 C   0  0  0  0  0  3  0  0  0  0  0  0
  189.9100  174.7010  146.6840 C   0  0  0  0  0  2  0  0  0  0  0  0
  190.9390  176.7490  147.7450 C   0  0  0  0  0  2  0  0  0  0  0  0
  190.4970  175.2950  147.9630 C   0  0  0  0  0  2  0  0  0  0  0  0
  190.0730  177.5080  146.7280 C   0  0  0  0  0  2  0  0  0  0  0  0
  188.6600  175.4710  146.2330 C   0  0  0  0  0  2  0  0  0  0  0  0
  190.4030  172.2450  140.5870 C   0  0  0  0  0  2  0  0  0  0  0  0
  190.8650  174.0190  137.2670 C   0  0  0  0  0  3  0  0  0  0  0  0
  189.5510  174.0610  136.7930 C   0  0  0  0  0  0  0  0  0  0  0  0
  188.7980  172.8970  138.7790 C   0  0  0  0  0  3  0  0  0  0  0  0
  191.1470  173.4160  138.4970 C   0  0  0  0  0  3  0  0  0  0  0  0
  190.1130  172.8490  139.2530 C   0  0  0  0  0  0  0  0  0  0  0  0
  188.5170  173.4990  137.5490 C   0  0  0  0  0  3  0  0  0  0  0  0
  189.0300  175.1790  134.5130 N   0  0  0  0  0  0  0  0  0  0  0  0
  189.2620  174.6800  135.5310 C   0  0  0  0  0  0  0  0  0  0  0  0
  1  5  1  0  0  0  0
  1  6  1  0  0  0  0
  2 11  1  0  0  0  0
  4  7  1  0  0  0  0
  4  8  1  0  0  0  0
  7  9  1  0  0  0  0
  8  1  2  0  0  0  0
  9  5  2  0  0  0  0
 10 16  1  0  0  0  0
 10  3  1  0  0  0  0
 11  3  1  0  0  0  0
 11  7  2  0  0  0  0
 12  2  1  0  0  0  0
 12 15  1  0  0  0  0
 13 14  1  0  0  0  0
 13  2  2  0  0  0  0
 14 10  2  0  0  0  0
 15  4  2  0  0  0  0
 16 17  1  0  0  0  0
 17 20  1  0  0  0  0
 18 16  2  0  0  0  0
 19 20  2  0  0  0  0
 21 20  2  0  0  0  0
 22 20  1  6  0  0  0
 22 24  1  0  0  0  0
 22 25  1  0  0  0  0
 24 27  1  0  0  0  0
 25 23  1  0  0  0  0
 25 26  1  1  0  0  0
 27 23  1  0  0  0  0
 28 25  1  0  0  0  0
 28 29  1  0  0  0  0
 29 33  1  0  0  0  0
 30 32  1  0  0  0  0
 31 32  1  0  0  0  0
 33 31  1  0  0  0  0
 34 29  1  0  0  0  0
 34 30  1  0  0  0  0
 35 13  1  0  0  0  0
 36 39  1  0  0  0  0
 37 36  2  0  0  0  0
 37 41  1  0  0  0  0
 38 40  1  0  0  0  0
 39 40  2  0  0  0  0
 40 35  1  0  0  0  0
 41 38  2  0  0  0  0
 42 43  3  0  0  0  0
 43 37  1  0  0  0  0
M  END
>  <MODEL>
5

>  <REMARK>
 VINA RESULT:      -7.6      3.831      7.886
  Name = 
  8 active torsions:
  status: ('A' for Active; 'I' for Inactive)
    1  A    between atoms: C_1  and  C_34
    2  A    between atoms: C_1  and  C_35
    3  A    between atoms: C_2  and  C_27
    4  A    between atoms: C_4  and  S_12
    5  A    between atoms: N_6  and  S_12
    6  A    between atoms: C_11  and  O_14
    7  A    between atoms: O_14  and  C_22
    8  A    between atoms: C_19  and  C_37
                            x       y       z     vdW  Elec       q    Type
                         _______ _______ _______ _____ _____    ______ ____

>  <TORSDO>
F 8

$$$$
=
 OpenBabel11052421133D

 43 48  0  0  1  0  0  0  0  0999 V2000
  190.6900  170.7160  139.3040 C   0  0  0  0  0  0  0  0  0  0  0  0
  189.1010  175.0840  141.2710 C   0  0  0  0  0  0  0  0  0  0  0  0
  191.1060  174.6260  142.5610 O   0  0  0  0  0  0  0  0  0  0  0  0
  189.4480  172.7620  139.8180 C   0  0  0  0  0  0  0  0  0  0  0  0
  191.6090  170.9570  140.2410 C   0  0  0  0  0  3  0  0  0  0  0  0
  190.7840  169.5990  138.5440 F   0  0  0  0  0  0  0  0  0  0  0  0
  190.3810  173.0790  140.8240 C   0  0  0  0  0  0  0  0  0  0  0  0
  189.5760  171.6520  139.0880 C   0  0  0  0  0  3  0  0  0  0  0  0
  191.5600  172.1800  141.1170 C   0  0  0  0  0  3  0  0  0  0  0  0
  190.9350  175.8110  143.2910 C   0  0  0  0  0  0  0  0  0  0  0  0
  190.2020  174.2580  141.5540 C   0  0  0  0  0  0  0  0  0  0  0  0
  188.2340  174.7220  140.2870 N   0  0  0  0  0  2  0  0  0  0  0  0
  188.9210  176.2200  141.9740 C   0  0  0  0  0  0  0  0  0  0  0  0
  189.8850  176.5980  143.0300 C   0  0  0  0  0  3  0  0  0  0  0  0
  188.4030  173.5990  139.5850 N   0  0  0  0  0  0  0  0  0  0  0  0
  191.9140  176.1750  144.3250 C   0  0  0  0  0  0  0  0  0  0  0  0
  193.2880  175.8290  144.1410 N   0  0  0  0  0  2  0  0  0  0  0  0
  191.5490  176.7950  145.3620 O   0  0  0  0  0  0  0  0  0  0  0  0
  194.2100  175.6450  146.6130 O   0  0  0  0  0  0  0  0  0  0  0  0
  194.5170  176.2640  145.2780 S   0  0  0  0  0  0  0  0  0  0  0  0
  194.5630  177.7610  145.4120 O   0  0  0  0  0  0  0  0  0  0  0  0
  196.1050  175.6750  144.6760 C   0  0  2  0  0  3  0  0  0  0  0  0
  195.9360  173.8630  143.1400 C   0  0  0  0  0  2  0  0  0  0  0  0
  196.2700  176.0880  143.2350 C   0  0  0  0  0  2  0  0  0  0  0  0
  196.2320  174.1670  144.6070 C   0  0  1  0  0  0  0  0  0  0  0  0
  197.6820  173.8090  144.9310 C   0  0  0  0  0  1  0  0  0  0  0  0
  195.7730  175.0610  142.4190 O   0  0  0  0  0  0  0  0  0  0  0  0
  195.3290  173.5270  145.4960 O   0  0  0  0  0  0  0  0  0  0  0  0
  194.8470  172.3350  144.9250 C   0  0  0  0  0  3  0  0  0  0  0  0
  194.5560  169.8740  145.6040 C   0  0  0  0  0  2  0  0  0  0  0  0
  192.7500  171.0610  144.2970 C   0  0  0  0  0  2  0  0  0  0  0  0
  193.7040  169.8580  144.3380 C   0  0  0  0  0  2  0  0  0  0  0  0
  193.3200  172.3190  144.9700 C   0  0  0  0  0  2  0  0  0  0  0  0
  195.4390  171.1290  145.6690 C   0  0  0  0  0  2  0  0  0  0  0  0
  187.7810  177.1460  141.6780 C   0  0  0  0  0  2  0  0  0  0  0  0
  185.9810  179.0570  144.4140 C   0  0  0  0  0  3  0  0  0  0  0  0
  185.6570  178.0260  145.3020 C   0  0  0  0  0  0  0  0  0  0  0  0
  186.6940  176.4210  143.8140 C   0  0  0  0  0  3  0  0  0  0  0  0
  186.6620  178.7710  143.2270 C   0  0  0  0  0  3  0  0  0  0  0  0
  187.0150  177.4500  142.9230 C   0  0  0  0  0  0  0  0  0  0  0  0
  186.0140  176.7080  145.0000 C   0  0  0  0  0  3  0  0  0  0  0  0
  184.3970  178.5590  147.5040 N   0  0  0  0  0  0  0  0  0  0  0  0
  184.9590  178.3210  146.5210 C   0  0  0  0  0  0  0  0  0  0  0  0
  1  5  1  0  0  0  0
  2 11  1  0  0  0  0
  2 13  2  0  0  0  0
  3 10  1  0  0  0  0
  4  7  1  0  0  0  0
  5  9  2  0  0  0  0
  6  1  1  0  0  0  0
  7  9  1  0  0  0  0
  7 11  2  0  0  0  0
  8  1  2  0  0  0  0
  8  4  1  0  0  0  0
 10 16  1  0  0  0  0
 11  3  1  0  0  0  0
 12  2  1  0  0  0  0
 13 14  1  0  0  0  0
 14 10  2  0  0  0  0
 15  4  2  0  0  0  0
 15 12  1  0  0  0  0
 16 18  2  0  0  0  0
 17 16  1  0  0  0  0
 17 20  1  0  0  0  0
 20 21  2  0  0  0  0
 20 19  2  0  0  0  0
 22 20  1  6  0  0  0
 23 25  1  0  0  0  0
 24 22  1  0  0  0  0
 25 22  1  0  0  0  0
 25 26  1  1  0  0  0
 25 28  1  0  0  0  0
 27 23  1  0  0  0  0
 27 24  1  0  0  0  0
 29 33  1  0  0  0  0
 29 28  1  0  0  0  0
 29 34  1  0  0  0  0
 30 34  1  0  0  0  0
 31 32  1  0  0  0  0
 31 33  1  0  0  0  0
 32 30  1  0  0  0  0
 35 13  1  0  0  0  0
 35 40  1  0  0  0  0
 36 37  1  0  0  0  0
 37 43  1  0  0  0  0
 38 41  1  0  0  0  0
 39 36  2  0  0  0  0
 40 39  1  0  0  0  0
 40 38  2  0  0  0  0
 41 37  2  0  0  0  0
 43 42  3  0  0  0  0
M  END
>  <MODEL>
6

>  <REMARK>
 VINA RESULT:      -7.5      2.867      6.018
  Name = 
  8 active torsions:
  status: ('A' for Active; 'I' for Inactive)
    1  A    between atoms: C_1  and  C_34
    2  A    between atoms: C_1  and  C_35
    3  A    between atoms: C_2  and  C_27
    4  A    between atoms: C_4  and  S_12
    5  A    between atoms: N_6  and  S_12
    6  A    between atoms: C_11  and  O_14
    7  A    between atoms: O_14  and  C_22
    8  A    between atoms: C_19  and  C_37
                            x       y       z     vdW  Elec       q    Type
                         _______ _______ _______ _____ _____    ______ ____

>  <TORSDO>
F 8

$$$$
=
 OpenBabel11052421133D

 43 48  0  0  1  0  0  0  0  0999 V2000
  196.4560  176.4870  143.0450 C   0  0  0  0  0  0  0  0  0  0  0  0
  191.7210  175.8800  144.6860 C   0  0  0  0  0  0  0  0  0  0  0  0
  191.5440  175.2850  142.3390 O   0  0  0  0  0  0  0  0  0  0  0  0
  194.4220  176.3800  144.4040 C   0  0  0  0  0  0  0  0  0  0  0  0
  195.8200  176.0980  141.9390 C   0  0  0  0  0  3  0  0  0  0  0  0
  197.7830  176.7540  142.9970 F   0  0  0  0  0  0  0  0  0  0  0  0
  193.6880  175.9650  143.2770 C   0  0  0  0  0  0  0  0  0  0  0  0
  195.7300  176.6310  144.3170 C   0  0  0  0  0  3  0  0  0  0  0  0
  194.3470  175.7870  141.9290 C   0  0  0  0  0  2  0  0  0  0  0  0
  190.1750  175.0210  142.4850 C   0  0  0  0  0  0  0  0  0  0  0  0
  192.3210  175.7100  143.4270 C   0  0  0  0  0  0  0  0  0  0  0  0
  192.4860  176.2840  145.7370 N   0  0  0  0  0  0  0  0  0  0  0  0
  190.4040  175.6390  144.8360 C   0  0  0  0  0  0  0  0  0  0  0  0
  189.5980  175.1870  143.6810 C   0  0  0  0  0  3  0  0  0  0  0  0
  193.7920  176.5260  145.5990 N   0  0  0  0  0  0  0  0  0  0  0  0
  189.3970  174.5580  141.3280 C   0  0  0  0  0  0  0  0  0  0  0  0
  190.0130  173.6960  140.3700 N   0  0  0  0  0  2  0  0  0  0  0  0
  188.1930  174.9090  141.1850 O   0  0  0  0  0  0  0  0  0  0  0  0
  188.7500  174.1840  138.0970 O   0  0  0  0  0  0  0  0  0  0  0  0
  189.1580  173.0590  139.0070 S   0  0  0  0  0  0  0  0  0  0  0  0
  187.9370  172.3240  139.4860 O   0  0  0  0  0  0  0  0  0  0  0  0
  190.2300  171.9150  138.1280 C   0  0  2  0  0  3  0  0  0  0  0  0
  192.3080  171.5150  139.2200 C   0  0  0  0  0  2  0  0  0  0  0  0
  190.2760  170.6070  138.8770 C   0  0  0  0  0  2  0  0  0  0  0  0
  191.6880  172.3250  138.0850 C   0  0  1  0  0  0  0  0  0  0  0  0
  192.2590  171.8640  136.7440 C   0  0  0  0  0  1  0  0  0  0  0  0
  191.3480  170.6500  139.7800 O   0  0  0  0  0  0  0  0  0  0  0  0
  191.8400  173.7260  138.2590 O   0  0  0  0  0  0  0  0  0  0  0  0
  192.8670  174.2100  137.4290 C   0  0  0  0  0  3  0  0  0  0  0  0
  193.3610  176.3070  136.0280 C   0  0  0  0  0  2  0  0  0  0  0  0
  195.1810  175.2410  137.4170 C   0  0  0  0  0  2  0  0  0  0  0  0
  194.7590  175.6930  136.0120 C   0  0  0  0  0  2  0  0  0  0  0  0
  194.0090  174.7590  138.2840 C   0  0  0  0  0  2  0  0  0  0  0  0
  192.3090  175.2880  136.4890 C   0  0  0  0  0  2  0  0  0  0  0  0
  189.7350  175.7730  146.1690 C   0  0  0  0  0  2  0  0  0  0  0  0
  187.0220  178.1370  144.9760 C   0  0  0  0  0  3  0  0  0  0  0  0
  185.9680  177.8000  145.8310 C   0  0  0  0  0  0  0  0  0  0  0  0
  187.3620  176.1240  146.8870 C   0  0  0  0  0  3  0  0  0  0  0  0
  188.2460  177.4690  145.0760 C   0  0  0  0  0  3  0  0  0  0  0  0
  188.4160  176.4570  146.0290 C   0  0  0  0  0  0  0  0  0  0  0  0
  186.1390  176.7920  146.7860 C   0  0  0  0  0  3  0  0  0  0  0  0
  183.7000  179.0410  145.6470 N   0  0  0  0  0  0  0  0  0  0  0  0
  184.7120  178.4860  145.7290 C   0  0  0  0  0  0  0  0  0  0  0  0
  1  8  1  0  0  0  0
  2 13  2  0  0  0  0
  2 12  1  0  0  0  0
  3 10  1  0  0  0  0
  3 11  1  0  0  0  0
  4 15  1  0  0  0  0
  5  1  2  0  0  0  0
  6  1  1  0  0  0  0
  7 11  2  0  0  0  0
  7  4  1  0  0  0  0
  8  4  2  0  0  0  0
  9  5  1  0  0  0  0
  9  7  1  0  0  0  0
 10 14  2  0  0  0  0
 11  2  1  0  0  0  0
 13 35  1  0  0  0  0
 14 13  1  0  0  0  0
 15 12  2  0  0  0  0
 16 10  1  0  0  0  0
 17 16  1  0  0  0  0
 18 16  2  0  0  0  0
 19 20  2  0  0  0  0
 20 21  2  0  0  0  0
 20 17  1  0  0  0  0
 22 24  1  0  0  0  0
 22 20  1  1  0  0  0
 23 27  1  0  0  0  0
 24 27  1  0  0  0  0
 25 26  1  6  0  0  0
 25 22  1  0  0  0  0
 25 28  1  0  0  0  0
 25 23  1  0  0  0  0
 29 28  1  0  0  0  0
 29 33  1  0  0  0  0
 30 34  1  0  0  0  0
 31 33  1  0  0  0  0
 32 30  1  0  0  0  0
 32 31  1  0  0  0  0
 34 29  1  0  0  0  0
 36 39  2  0  0  0  0
 36 37  1  0  0  0  0
 37 41  2  0  0  0  0
 39 40  1  0  0  0  0
 40 35  1  0  0  0  0
 40 38  2  0  0  0  0
 41 38  1  0  0  0  0
 42 43  3  0  0  0  0
 43 37  1  0  0  0  0
M  END
>  <MODEL>
7

>  <REMARK>
 VINA RESULT:      -7.4      4.272      8.239
  Name = 
  8 active torsions:
  status: ('A' for Active; 'I' for Inactive)
    1  A    between atoms: C_1  and  C_34
    2  A    between atoms: C_1  and  C_35
    3  A    between atoms: C_2  and  C_27
    4  A    between atoms: C_4  and  S_12
    5  A    between atoms: N_6  and  S_12
    6  A    between atoms: C_11  and  O_14
    7  A    between atoms: O_14  and  C_22
    8  A    between atoms: C_19  and  C_37
                            x       y       z     vdW  Elec       q    Type
                         _______ _______ _______ _____ _____    ______ ____

>  <TORSDO>
F 8

$$$$
=
 OpenBabel11052421133D

 43 48  0  0  1  0  0  0  0  0999 V2000
  185.8260  179.2030  143.7160 C   0  0  0  0  0  0  0  0  0  0  0  0
  188.9610  175.3000  144.3680 C   0  0  0  0  0  0  0  0  0  0  0  0
  188.7620  175.4170  141.9510 O   0  0  0  0  0  0  0  0  0  0  0  0
  187.2600  177.4560  144.6590 C   0  0  0  0  0  0  0  0  0  0  0  0
  186.0670  178.8200  142.4610 C   0  0  0  0  0  3  0  0  0  0  0  0
  185.0030  180.2530  143.9510 F   0  0  0  0  0  0  0  0  0  0  0  0
  187.5590  176.9980  143.3610 C   0  0  0  0  0  0  0  0  0  0  0  0
  186.4450  178.4960  144.8490 C   0  0  0  0  0  3  0  0  0  0  0  0
  186.9730  177.6610  142.1370 C   0  0  0  0  0  2  0  0  0  0  0  0
  189.6350  174.3290  141.8040 C   0  0  0  0  0  0  0  0  0  0  0  0
  188.4230  175.9080  143.2200 C   0  0  0  0  0  0  0  0  0  0  0  0
  188.6320  175.7900  145.5940 N   0  0  0  0  0  0  0  0  0  0  0  0
  189.7920  174.2480  144.2390 C   0  0  0  0  0  0  0  0  0  0  0  0
  190.1440  173.7430  142.8940 C   0  0  0  0  0  3  0  0  0  0  0  0
  187.8100  176.8330  145.7340 N   0  0  0  0  0  0  0  0  0  0  0  0
  189.9830  173.8550  140.4580 C   0  0  0  0  0  0  0  0  0  0  0  0
  191.2160  173.1630  140.2560 N   0  0  0  0  0  2  0  0  0  0  0  0
  189.1980  174.0470  139.4880 O   0  0  0  0  0  0  0  0  0  0  0  0
  191.8950  173.6490  137.7460 O   0  0  0  0  0  0  0  0  0  0  0  0
  191.6830  172.5220  138.7180 S   0  0  0  0  0  0  0  0  0  0  0  0
  190.6010  171.6100  138.2110 O   0  0  0  0  0  0  0  0  0  0  0  0
  193.2040  171.5830  138.9140 C   0  0  2  0  0  3  0  0  0  0  0  0
  194.2460  171.8750  141.0350 C   0  0  0  0  0  2  0  0  0  0  0  0
  192.9590  170.4410  139.8690 C   0  0  0  0  0  2  0  0  0  0  0  0
  194.3300  172.3420  139.5840 C   0  0  1  0  0  0  0  0  0  0  0  0
  195.6430  171.8690  138.9610 C   0  0  0  0  0  1  0  0  0  0  0  0
  193.2620  170.8760  141.1670 O   0  0  0  0  0  0  0  0  0  0  0  0
  194.1670  173.7460  139.4460 O   0  0  0  0  0  0  0  0  0  0  0  0
  194.6900  174.4090  140.5710 C   0  0  0  0  0  3  0  0  0  0  0  0
  196.1810  176.4420  141.0670 C   0  0  0  0  0  2  0  0  0  0  0  0
  194.1270  175.9930  142.4650 C   0  0  0  0  0  2  0  0  0  0  0  0
  195.6470  176.2080  142.4780 C   0  0  0  0  0  2  0  0  0  0  0  0
  193.6160  175.2990  141.1940 C   0  0  0  0  0  2  0  0  0  0  0  0
  195.9230  175.2290  140.1620 C   0  0  0  0  0  2  0  0  0  0  0  0
  190.4150  173.5960  145.4350 C   0  0  0  0  0  2  0  0  0  0  0  0
  194.0730  172.8560  144.7660 C   0  0  0  0  0  3  0  0  0  0  0  0
  194.6920  173.9400  145.3960 C   0  0  0  0  0  0  0  0  0  0  0  0
  192.5220  174.8110  146.0270 C   0  0  0  0  0  3  0  0  0  0  0  0
  192.6790  172.7480  144.7660 C   0  0  0  0  0  3  0  0  0  0  0  0
  191.9010  173.7300  145.3930 C   0  0  0  0  0  0  0  0  0  0  0  0
  193.9160  174.9180  146.0260 C   0  0  0  0  0  3  0  0  0  0  0  0
  197.2770  174.1380  145.3950 N   0  0  0  0  0  0  0  0  0  0  0  0
  196.1230  174.0490  145.3960 C   0  0  0  0  0  0  0  0  0  0  0  0
  1  6  1  0  0  0  0
  1  8  1  0  0  0  0
  2 12  1  0  0  0  0
  3 11  1  0  0  0  0
  4  8  2  0  0  0  0
  4 15  1  0  0  0  0
  5  1  2  0  0  0  0
  7  4  1  0  0  0  0
  9  5  1  0  0  0  0
  9  7  1  0  0  0  0
 10  3  1  0  0  0  0
 10 14  2  0  0  0  0
 11  7  2  0  0  0  0
 11  2  1  0  0  0  0
 12 15  2  0  0  0  0
 13  2  2  0  0  0  0
 13 35  1  0  0  0  0
 14 13  1  0  0  0  0
 16 10  1  0  0  0  0
 17 16  1  0  0  0  0
 18 16  2  0  0  0  0
 19 20  2  0  0  0  0
 20 17  1  0  0  0  0
 21 20  2  0  0  0  0
 22 20  1  1  0  0  0
 22 25  1  0  0  0  0
 22 24  1  0  0  0  0
 23 27  1  0  0  0  0
 24 27  1  0  0  0  0
 25 26  1  6  0  0  0
 25 23  1  0  0  0  0
 28 25  1  0  0  0  0
 28 29  1  0  0  0  0
 29 33  1  0  0  0  0
 30 32  1  0  0  0  0
 31 32  1  0  0  0  0
 33 31  1  0  0  0  0
 34 29  1  0  0  0  0
 34 30  1  0  0  0  0
 36 39  2  0  0  0  0
 36 37  1  0  0  0  0
 37 43  1  0  0  0  0
 37 41  2  0  0  0  0
 39 40  1  0  0  0  0
 40 35  1  0  0  0  0
 40 38  2  0  0  0  0
 41 38  1  0  0  0  0
 42 43  3  0  0  0  0
M  END
>  <MODEL>
8

>  <REMARK>
 VINA RESULT:      -7.3      3.274      5.530
  Name = 
  8 active torsions:
  status: ('A' for Active; 'I' for Inactive)
    1  A    between atoms: C_1  and  C_34
    2  A    between atoms: C_1  and  C_35
    3  A    between atoms: C_2  and  C_27
    4  A    between atoms: C_4  and  S_12
    5  A    between atoms: N_6  and  S_12
    6  A    between atoms: C_11  and  O_14
    7  A    between atoms: O_14  and  C_22
    8  A    between atoms: C_19  and  C_37
                            x       y       z     vdW  Elec       q    Type
                         _______ _______ _______ _____ _____    ______ ____

>  <TORSDO>
F 8

$$$$
=
 OpenBabel11052421133D

 43 48  0  0  1  0  0  0  0  0999 V2000
  196.8790  169.6640  146.0260 C   0  0  0  0  0  0  0  0  0  0  0  0
  196.3410  174.2750  144.0430 C   0  0  0  0  0  0  0  0  0  0  0  0
  194.3080  174.0230  145.3460 O   0  0  0  0  0  0  0  0  0  0  0  0
  197.1950  171.7610  144.8010 C   0  0  0  0  0  0  0  0  0  0  0  0
  195.6970  170.0460  146.5120 C   0  0  0  0  0  3  0  0  0  0  0  0
  197.3730  168.4450  146.3480 F   0  0  0  0  0  0  0  0  0  0  0  0
  195.9550  172.2290  145.2780 C   0  0  0  0  0  0  0  0  0  0  0  0
  197.6500  170.5530  145.1430 C   0  0  0  0  0  3  0  0  0  0  0  0
  195.0930  171.3880  146.1910 C   0  0  0  0  0  3  0  0  0  0  0  0
  193.8800  175.3040  144.9690 C   0  0  0  0  0  0  0  0  0  0  0  0
  195.5300  173.5040  144.8940 C   0  0  0  0  0  0  0  0  0  0  0  0
  197.5290  173.7650  143.6170 N   0  0  0  0  0  2  0  0  0  0  0  0
  195.9360  175.5030  143.6670 C   0  0  0  0  0  0  0  0  0  0  0  0
  194.6470  176.0400  144.1550 C   0  0  0  0  0  3  0  0  0  0  0  0
  197.9400  172.5500  143.9840 N   0  0  0  0  0  0  0  0  0  0  0  0
  192.6040  175.8230  145.4800 C   0  0  0  0  0  0  0  0  0  0  0  0
  191.4880  175.9300  144.5950 N   0  0  0  0  0  2  0  0  0  0  0  0
  192.4900  176.1640  146.6900 O   0  0  0  0  0  0  0  0  0  0  0  0
  189.9430  177.9770  145.2460 O   0  0  0  0  0  0  0  0  0  0  0  0
  189.9330  176.4790  145.1210 S   0  0  0  0  0  0  0  0  0  0  0  0
  189.6130  175.8600  146.4530 O   0  0  0  0  0  0  0  0  0  0  0  0
  188.6970  175.9690  143.9200 C   0  0  2  0  0  3  0  0  0  0  0  0
  188.2300  177.6170  142.2650 C   0  0  0  0  0  2  0  0  0  0  0  0
  189.3730  175.7060  142.5980 C   0  0  0  0  0  2  0  0  0  0  0  0
  187.6830  177.0380  143.5680 C   0  0  1  0  0  0  0  0  0  0  0  0
  186.3470  176.3420  143.3070 C   0  0  0  0  0  1  0  0  0  0  0  0
  189.3630  176.8920  141.8500 O   0  0  0  0  0  0  0  0  0  0  0  0
  187.5700  178.0080  144.5980 O   0  0  0  0  0  0  0  0  0  0  0  0
  186.3270  177.8870  145.2460 C   0  0  0  0  0  3  0  0  0  0  0  0
  185.3880  178.0900  147.6290 C   0  0  0  0  0  2  0  0  0  0  0  0
  184.1120  179.0410  145.6680 C   0  0  0  0  0  2  0  0  0  0  0  0
  184.0650  178.0840  146.8680 C   0  0  0  0  0  2  0  0  0  0  0  0
  185.5040  179.1560  145.0300 C   0  0  0  0  0  2  0  0  0  0  0  0
  186.5460  177.6140  146.7410 C   0  0  0  0  0  2  0  0  0  0  0  0
  196.7880  176.3710  142.7920 C   0  0  0  0  0  2  0  0  0  0  0  0
  195.1780  175.4990  139.4710 C   0  0  0  0  0  3  0  0  0  0  0  0
  196.3000  175.2110  138.6890 C   0  0  0  0  0  0  0  0  0  0  0  0
  197.7390  175.7050  140.5740 C   0  0  0  0  0  3  0  0  0  0  0  0
  195.3350  175.8900  140.8050 C   0  0  0  0  0  3  0  0  0  0  0  0
  196.6170  175.9980  141.3570 C   0  0  0  0  0  0  0  0  0  0  0  0
  197.5810  175.3140  139.2410 C   0  0  0  0  0  3  0  0  0  0  0  0
  196.0090  174.4860  136.2170 N   0  0  0  0  0  0  0  0  0  0  0  0
  196.1390  174.8100  137.3210 C   0  0  0  0  0  0  0  0  0  0  0  0
  1  6  1  0  0  0  0
  1  5  1  0  0  0  0
  2 11  1  0  0  0  0
  4  8  1  0  0  0  0
  4  7  1  0  0  0  0
  7  9  1  0  0  0  0
  8  1  2  0  0  0  0
  9  5  2  0  0  0  0
 10  3  1  0  0  0  0
 10 16  1  0  0  0  0
 11  7  2  0  0  0  0
 11  3  1  0  0  0  0
 12 15  1  0  0  0  0
 12  2  1  0  0  0  0
 13  2  2  0  0  0  0
 13 14  1  0  0  0  0
 14 10  2  0  0  0  0
 15  4  2  0  0  0  0
 16 18  2  0  0  0  0
 17 20  1  0  0  0  0
 17 16  1  0  0  0  0
 20 19  2  0  0  0  0
 20 21  2  0  0  0  0
 22 20  1  1  0  0  0
 23 25  1  0  0  0  0
 24 22  1  0  0  0  0
 25 26  1  6  0  0  0
 25 22  1  0  0  0  0
 25 28  1  0  0  0  0
 27 23  1  0  0  0  0
 27 24  1  0  0  0  0
 28 29  1  0  0  0  0
 29 34  1  0  0  0  0
 31 32  1  0  0  0  0
 32 30  1  0  0  0  0
 33 29  1  0  0  0  0
 33 31  1  0  0  0  0
 34 30  1  0  0  0  0
 35 13  1  0  0  0  0
 36 39  1  0  0  0  0
 37 41  1  0  0  0  0
 37 36  2  0  0  0  0
 38 40  1  0  0  0  0
 39 40  2  0  0  0  0
 40 35  1  0  0  0  0
 41 38  2  0  0  0  0
 42 43  3  0  0  0  0
 43 37  1  0  0  0  0
M  END
>  <MODEL>
9

>  <REMARK>
 VINA RESULT:      -7.2      3.904      9.288
  Name = 
  8 active torsions:
  status: ('A' for Active; 'I' for Inactive)
    1  A    between atoms: C_1  and  C_34
    2  A    between atoms: C_1  and  C_35
    3  A    between atoms: C_2  and  C_27
    4  A    between atoms: C_4  and  S_12
    5  A    between atoms: N_6  and  S_12
    6  A    between atoms: C_11  and  O_14
    7  A    between atoms: O_14  and  C_22
    8  A    between atoms: C_19  and  C_37
                            x       y       z     vdW  Elec       q    Type
                         _______ _______ _______ _____ _____    ______ ____

>  <TORSDO>
F 8

$$$$
