=
 OpenBabel11052419343D

 55 59  0  0  1  0  0  0  0  0999 V2000
  193.4250  174.1530  141.2080 C   0  0  0  0  0  3  0  0  0  0  0  0
  188.3400  174.3030  140.1810 C   0  0  0  0  0  2  0  0  0  0  0  0
  189.6890  171.8530  139.7640 O   0  0  0  0  0  0  0  0  0  0  0  0
  191.6130  170.6540  136.5740 C   0  0  0  0  0  2  0  0  0  0  0  0
  191.2100  169.2740  136.0700 C   0  0  0  0  0  2  0  0  0  0  0  0
  192.6840  169.4540  138.5240 C   0  0  0  0  0  0  0  0  0  0  0  0
  192.8400  168.3640  137.7640 C   0  0  0  0  0  3  0  0  0  0  0  0
  191.2840  172.9460  138.4880 O   0  0  0  0  0  0  0  0  0  0  0  0
  192.3380  168.2800  136.3470 C   0  0  0  0  0  2  0  0  0  0  0  0
  193.6450  174.5740  143.6190 C   0  0  0  0  0  2  0  0  0  0  0  0
  191.8010  170.6000  138.0930 C   0  0  1  0  0  3  0  0  0  0  0  0
  191.4730  176.4650  143.2170 C   0  0  1  0  0  3  0  0  0  0  0  0
  193.1010  173.0180  140.6500 C   0  0  0  0  0  0  0  0  0  0  0  0
  192.3220  176.0080  142.1730 O   0  0  0  0  0  0  0  0  0  0  0  0
  193.3150  170.5720  140.6260 C   0  0  0  0  0  0  0  0  0  0  0  0
  187.9790  175.6540  140.1960 O   0  0  0  0  0  0  0  0  0  0  0  0
  193.2500  169.4630  139.8730 C   0  0  0  0  0  3  0  0  0  0  0  0
  189.0460  173.9750  138.8730 C   0  0  0  0  0  2  0  0  0  0  0  0
  190.0160  172.8610  139.0830 C   0  0  0  0  0  0  0  0  0  0  0  0
  193.4470  175.7320  144.5900 C   0  0  0  0  0  2  0  0  0  0  0  0
  188.0690  176.0170  141.5450 C   0  0  1  0  0  3  0  0  0  0  0  0
  192.7100  174.6700  142.4070 C   0  0  1  0  0  3  0  0  0  0  0  0
  192.2970  171.9450  138.6350 C   0  0  2  0  0  3  0  0  0  0  0  0
  192.8220  171.8780  140.0610 C   0  0  0  0  0  0  0  0  0  0  0  0
  189.4220  176.6480  141.8170 C   0  0  0  0  0  2  0  0  0  0  0  0
  190.0410  175.9840  143.0370 C   0  0  0  0  0  2  0  0  0  0  0  0
  191.9810  176.1340  144.6310 C   0  0  0  0  0  2  0  0  0  0  0  0
  193.1740  170.7470  143.1310 C   0  0  0  0  0  3  0  0  0  0  0  0
  195.0100  170.0750  144.5800 C   0  0  0  0  0  0  0  0  0  0  0  0
  195.2190  169.9230  142.1600 C   0  0  0  0  0  3  0  0  0  0  0  0
  195.7590  169.7500  143.4370 C   0  0  0  0  0  3  0  0  0  0  0  0
  193.7110  170.5740  144.4130 C   0  0  0  0  0  3  0  0  0  0  0  0
  193.9240  170.4360  141.9850 C   0  0  0  0  0  0  0  0  0  0  0  0
  195.5610  169.8830  145.8970 N   0  0  0  0  0  0  0  0  0  0  0  0
  196.7740  170.5900  146.3150 C   0  0  0  0  0  1  0  0  0  0  0  0
  194.9560  168.9540  146.8460 C   0  0  0  0  0  1  0  0  0  0  0  0
  186.2120  177.5580  140.7590 C   0  0  0  0  0  1  0  0  0  0  0  0
  186.9500  176.9760  141.9580 C   0  0  2  0  0  3  0  0  0  0  0  0
  187.3530  177.9520  142.9300 O   0  0  0  0  0  0  0  0  0  0  0  0
  186.6450  178.2970  144.1030 C   0  0  0  0  0  0  0  0  0  0  0  0
  186.0440  179.4040  144.1340 O   0  0  0  0  0  0  0  0  0  0  0  0
  186.5950  177.3860  145.3010 C   0  0  2  0  0  3  0  0  0  0  0  0
  185.1900  176.9010  145.6120 C   0  0  0  0  0  1  0  0  0  0  0  0
  187.3760  177.8660  146.5410 C   0  0  1  0  0  3  0  0  0  0  0  0
  186.4150  178.2740  147.6220 C   0  0  0  0  0  0  0  0  0  0  0  0
  186.0240  179.4710  147.6900 O   0  0  0  0  0  0  0  0  0  0  0  0
  185.9480  177.3470  148.5540 O   0  0  0  0  0  1  0  0  0  0  0  0
  188.4920  176.9370  147.0800 C   0  0  2  0  0  3  0  0  0  0  0  0
  189.7690  177.7430  147.3660 C   0  0  1  0  0  3  0  0  0  0  0  0
  189.5190  178.7670  148.2750 O   0  0  0  0  0  1  0  0  0  0  0  0
  190.9060  176.8660  147.8720 C   0  0  0  0  0  2  0  0  0  0  0  0
  191.5190  177.4680  148.9810 O   0  0  0  0  0  1  0  0  0  0  0  0
  188.7970  175.7310  146.1830 C   0  0  0  0  0  2  0  0  0  0  0  0
  189.8940  173.9180  146.5300 O   0  0  0  0  0  1  0  0  0  0  0  0
  188.8280  174.5630  146.9560 O   0  0  0  0  0  0  0  0  0  0  0  0
  2 16  1  0  0  0  0
  5  9  1  0  0  0  0
  5  4  1  0  0  0  0
  6 17  1  0  0  0  0
  7  6  2  0  0  0  0
  8 19  1  0  0  0  0
  9  7  1  0  0  0  0
 10 20  1  0  0  0  0
 11  4  1  6  0  0  0
 11  6  1  0  0  0  0
 11 23  1  0  0  0  0
 12 26  1  6  0  0  0
 12 27  1  0  0  0  0
 13  1  2  0  0  0  0
 14 22  1  0  0  0  0
 14 12  1  0  0  0  0
 15 33  1  0  0  0  0
 16 21  1  0  0  0  0
 17 15  2  0  0  0  0
 18 19  1  0  0  0  0
 18  2  1  0  0  0  0
 19  3  2  0  0  0  0
 20 27  1  0  0  0  0
 21 25  1  0  0  0  0
 21 38  1  6  0  0  0
 22  1  1  6  0  0  0
 22 10  1  0  0  0  0
 23  8  1  1  0  0  0
 23 24  1  0  0  0  0
 24 15  1  0  0  0  0
 24 13  2  0  0  0  0
 25 26  1  0  0  0  0
 28 32  1  0  0  0  0
 29 34  1  0  0  0  0
 30 31  2  0  0  0  0
 31 29  1  0  0  0  0
 32 29  2  0  0  0  0
 33 30  1  0  0  0  0
 33 28  2  0  0  0  0
 34 35  1  0  0  0  0
 34 36  1  0  0  0  0
 38 37  1  6  0  0  0
 38 39  1  0  0  0  0
 39 40  1  0  0  0  0
 40 41  2  0  0  0  0
 40 42  1  0  0  0  0
 42 43  1  1  0  0  0
 42 44  1  0  0  0  0
 44 48  1  0  0  0  0
 44 45  1  1  0  0  0
 45 46  2  0  0  0  0
 45 47  1  0  0  0  0
 48 53  1  6  0  0  0
 48 49  1  0  0  0  0
 49 51  1  0  0  0  0
 49 50  1  1  0  0  0
 51 52  1  0  0  0  0
 53 55  1  0  0  0  0
 54 55  1  0  0  0  0
M  END
>  <MODEL>
1

>  <REMARK>
 VINA RESULT:      -6.7      0.000      0.000
  Name = 
  13 active torsions:
  status: ('A' for Active; 'I' for Inactive)
    1  A    between atoms: C_1  and  C_53
    2  A    between atoms: C_3  and  O_14
    3  A    between atoms: C_3  and  C_38
    4  A    between atoms: C_6  and  C_20
    5  A    between atoms: C_6  and  C_53
    6  A    between atoms: C_8  and  O_22
    7  A    between atoms: C_8  and  C_43
    8  A    between atoms: N_10  and  C_32
    9  A    between atoms: C_11  and  C_29
   10  A    between atoms: C_20  and  O_22
   11  A    between atoms: C_29  and  C_38
   12  A    between atoms: C_33  and  C_52
   13  A    between atoms: C_38  and  C_53
                            x       y       z     vdW  Elec       q    Type
                         _______ _______ _______ _____ _____    ______ ____

>  <TORSDO>
F 13

$$$$
=
 OpenBabel11052419343D

 55 59  0  0  1  0  0  0  0  0999 V2000
  191.9190  170.4930  140.0600 C   0  0  0  0  0  3  0  0  0  0  0  0
  190.3740  174.4060  143.0970 C   0  0  0  0  0  2  0  0  0  0  0  0
  193.1120  173.7050  143.1560 O   0  0  0  0  0  0  0  0  0  0  0  0
  194.8770  170.9890  145.3520 C   0  0  0  0  0  2  0  0  0  0  0  0
  196.0990  171.4840  146.1140 C   0  0  0  0  0  2  0  0  0  0  0  0
  196.2830  171.2160  143.2640 C   0  0  0  0  0  0  0  0  0  0  0  0
  197.3910  171.0420  143.9940 C   0  0  0  0  0  3  0  0  0  0  0  0
  192.5410  171.4930  143.5310 O   0  0  0  0  0  0  0  0  0  0  0  0
  197.3630  170.8890  145.4920 C   0  0  0  0  0  2  0  0  0  0  0  0
  191.5220  171.2260  137.7480 C   0  0  0  0  0  2  0  0  0  0  0  0
  194.9460  171.4930  143.9070 C   0  0  1  0  0  3  0  0  0  0  0  0
  189.1080  172.4340  138.8290 C   0  0  1  0  0  3  0  0  0  0  0  0
  192.9310  170.8310  140.8130 C   0  0  0  0  0  0  0  0  0  0  0  0
  189.8080  171.3720  139.4630 O   0  0  0  0  0  0  0  0  0  0  0  0
  195.3380  171.2800  140.9900 C   0  0  0  0  0  0  0  0  0  0  0  0
  188.9750  174.3700  143.0980 O   0  0  0  0  0  0  0  0  0  0  0  0
  196.4020  171.3030  141.8090 C   0  0  0  0  0  3  0  0  0  0  0  0
  190.9170  173.3200  144.0160 C   0  0  0  0  0  2  0  0  0  0  0  0
  192.2520  172.8660  143.5330 C   0  0  0  0  0  0  0  0  0  0  0  0
  190.3330  171.5110  136.8380 C   0  0  0  0  0  2  0  0  0  0  0  0
  188.6200  174.7750  141.8070 C   0  0  1  0  0  3  0  0  0  0  0  0
  191.1950  171.4890  139.2240 C   0  0  1  0  0  3  0  0  0  0  0  0
  193.7820  170.9430  143.0760 C   0  0  2  0  0  3  0  0  0  0  0  0
  193.9600  171.1200  141.5750 C   0  0  0  0  0  0  0  0  0  0  0  0
  188.3880  173.5570  140.9320 C   0  0  0  0  0  2  0  0  0  0  0  0
  189.1710  173.7200  139.6390 C   0  0  0  0  0  2  0  0  0  0  0  0
  189.5350  172.6890  137.3730 C   0  0  0  0  0  2  0  0  0  0  0  0
  195.9960  170.2300  138.8020 C   0  0  0  0  0  3  0  0  0  0  0  0
  196.0150  171.4880  136.7180 C   0  0  0  0  0  0  0  0  0  0  0  0
  195.4100  172.5670  138.8140 C   0  0  0  0  0  3  0  0  0  0  0  0
  195.6140  172.6290  137.4320 C   0  0  0  0  0  3  0  0  0  0  0  0
  196.2010  170.2870  137.4170 C   0  0  0  0  0  3  0  0  0  0  0  0
  195.6090  171.3720  139.5220 C   0  0  0  0  0  0  0  0  0  0  0  0
  196.2120  171.5470  135.2920 N   0  0  0  0  0  0  0  0  0  0  0  0
  196.0960  172.8150  134.5690 C   0  0  0  0  0  1  0  0  0  0  0  0
  196.4950  170.3460  134.5140 C   0  0  0  0  0  1  0  0  0  0  0  0
  187.6140  176.9910  141.0900 C   0  0  0  0  0  1  0  0  0  0  0  0
  187.3770  175.6670  141.8050 C   0  0  2  0  0  3  0  0  0  0  0  0
  186.7540  175.7960  143.0910 O   0  0  0  0  0  0  0  0  0  0  0  0
  186.0520  176.9260  143.5640 C   0  0  0  0  0  0  0  0  0  0  0  0
  185.5760  177.7310  142.7210 O   0  0  0  0  0  0  0  0  0  0  0  0
  185.8620  177.1870  145.0360 C   0  0  2  0  0  3  0  0  0  0  0  0
  184.6200  178.0080  145.3320 C   0  0  0  0  0  1  0  0  0  0  0  0
  187.1160  177.6610  145.7990 C   0  0  1  0  0  3  0  0  0  0  0  0
  186.8230  177.7210  147.2730 C   0  0  0  0  0  0  0  0  0  0  0  0
  187.1830  178.7290  147.9400 O   0  0  0  0  0  1  0  0  0  0  0  0
  186.1600  176.6750  147.9150 O   0  0  0  0  0  0  0  0  0  0  0  0
  188.4470  176.9260  145.5030 C   0  0  2  0  0  3  0  0  0  0  0  0
  188.9250  176.1600  146.7480 C   0  0  1  0  0  3  0  0  0  0  0  0
  188.8690  174.7860  146.5390 O   0  0  0  0  0  1  0  0  0  0  0  0
  190.3300  176.5640  147.1710 C   0  0  0  0  0  2  0  0  0  0  0  0
  190.9120  175.5440  147.9380 O   0  0  0  0  0  1  0  0  0  0  0  0
  189.5590  177.8300  144.9580 C   0  0  0  0  0  2  0  0  0  0  0  0
  190.6870  177.8580  143.1300 O   0  0  0  0  0  1  0  0  0  0  0  0
  189.4460  177.9290  143.5640 O   0  0  0  0  0  0  0  0  0  0  0  0
  1 13  2  0  0  0  0
  2 16  1  0  0  0  0
  2 18  1  0  0  0  0
  3 19  2  0  0  0  0
  4  5  1  0  0  0  0
  6 11  1  0  0  0  0
  6  7  2  0  0  0  0
  7  9  1  0  0  0  0
  8 19  1  0  0  0  0
  9  5  1  0  0  0  0
 11  4  1  1  0  0  0
 12 27  1  6  0  0  0
 12 14  1  0  0  0  0
 12 26  1  0  0  0  0
 13 24  2  0  0  0  0
 15 24  1  0  0  0  0
 15 17  2  0  0  0  0
 17  6  1  0  0  0  0
 19 18  1  0  0  0  0
 20 27  1  0  0  0  0
 20 10  1  0  0  0  0
 21 38  1  1  0  0  0
 21 16  1  0  0  0  0
 22 10  1  6  0  0  0
 22 14  1  0  0  0  0
 22  1  1  0  0  0  0
 23 24  1  6  0  0  0
 23  8  1  0  0  0  0
 23 11  1  0  0  0  0
 25 21  1  0  0  0  0
 26 25  1  0  0  0  0
 28 33  1  0  0  0  0
 29 32  1  0  0  0  0
 29 31  2  0  0  0  0
 30 33  2  0  0  0  0
 31 30  1  0  0  0  0
 32 28  2  0  0  0  0
 33 15  1  0  0  0  0
 34 29  1  0  0  0  0
 35 34  1  0  0  0  0
 36 34  1  0  0  0  0
 38 37  1  1  0  0  0
 38 39  1  0  0  0  0
 39 40  1  0  0  0  0
 40 42  1  0  0  0  0
 41 40  2  0  0  0  0
 42 43  1  6  0  0  0
 42 44  1  0  0  0  0
 44 45  1  1  0  0  0
 45 47  2  0  0  0  0
 45 46  1  0  0  0  0
 48 53  1  1  0  0  0
 48 44  1  0  0  0  0
 48 49  1  0  0  0  0
 49 50  1  6  0  0  0
 49 51  1  0  0  0  0
 51 52  1  0  0  0  0
 54 55  1  0  0  0  0
 55 53  1  0  0  0  0
M  END
>  <MODEL>
2

>  <REMARK>
 VINA RESULT:      -6.6      2.616      5.678
  Name = 
  13 active torsions:
  status: ('A' for Active; 'I' for Inactive)
    1  A    between atoms: C_1  and  C_53
    2  A    between atoms: C_3  and  O_14
    3  A    between atoms: C_3  and  C_38
    4  A    between atoms: C_6  and  C_20
    5  A    between atoms: C_6  and  C_53
    6  A    between atoms: C_8  and  O_22
    7  A    between atoms: C_8  and  C_43
    8  A    between atoms: N_10  and  C_32
    9  A    between atoms: C_11  and  C_29
   10  A    between atoms: C_20  and  O_22
   11  A    between atoms: C_29  and  C_38
   12  A    between atoms: C_33  and  C_52
   13  A    between atoms: C_38  and  C_53
                            x       y       z     vdW  Elec       q    Type
                         _______ _______ _______ _____ _____    ______ ____

>  <TORSDO>
F 13

$$$$
=
 OpenBabel11052419343D

 55 59  0  0  1  0  0  0  0  0999 V2000
  195.0660  173.1120  142.6790 C   0  0  0  0  0  3  0  0  0  0  0  0
  191.1640  172.5990  139.2970 C   0  0  0  0  0  2  0  0  0  0  0  0
  193.1710  170.6090  139.2910 O   0  0  0  0  0  0  0  0  0  0  0  0
  196.5700  170.5940  137.3500 C   0  0  0  0  0  2  0  0  0  0  0  0
  196.8320  169.3320  136.5390 C   0  0  0  0  0  2  0  0  0  0  0  0
  196.9340  169.1620  139.4010 C   0  0  0  0  0  0  0  0  0  0  0  0
  197.7080  168.3380  138.6850 C   0  0  0  0  0  3  0  0  0  0  0  0
  194.7990  172.2480  139.1270 O   0  0  0  0  0  0  0  0  0  0  0  0
  197.9410  168.5170  137.2080 C   0  0  0  0  0  2  0  0  0  0  0  0
  194.0550  172.9590  144.9140 C   0  0  0  0  0  2  0  0  0  0  0  0
  196.0620  170.2020  138.7410 C   0  0  1  0  0  3  0  0  0  0  0  0
  191.8690  174.4710  143.7360 C   0  0  1  0  0  3  0  0  0  0  0  0
  195.3540  172.1090  141.8930 C   0  0  0  0  0  0  0  0  0  0  0  0
  193.1850  174.4440  143.2010 O   0  0  0  0  0  0  0  0  0  0  0  0
  196.2190  169.8230  141.6640 C   0  0  0  0  0  0  0  0  0  0  0  0
  190.4780  173.8190  139.3050 O   0  0  0  0  0  0  0  0  0  0  0  0
  196.8070  168.9400  140.8420 C   0  0  0  0  0  3  0  0  0  0  0  0
  192.4420  172.7350  138.4810 C   0  0  0  0  0  2  0  0  0  0  0  0
  193.4780  171.7950  138.9980 C   0  0  0  0  0  0  0  0  0  0  0  0
  193.1310  173.7880  145.7990 C   0  0  0  0  0  2  0  0  0  0  0  0
  189.8490  173.8490  140.5550 C   0  0  1  0  0  3  0  0  0  0  0  0
  193.7780  173.1820  143.4220 C   0  0  1  0  0  3  0  0  0  0  0  0
  195.8710  171.4390  139.6260 C   0  0  2  0  0  3  0  0  0  0  0  0
  195.6940  171.1190  141.1020 C   0  0  0  0  0  0  0  0  0  0  0  0
  190.7030  174.6250  141.5400 C   0  0  0  0  0  2  0  0  0  0  0  0
  190.8640  173.8020  142.8090 C   0  0  0  0  0  2  0  0  0  0  0  0
  191.7560  173.8990  145.1600 C   0  0  0  0  0  2  0  0  0  0  0  0
  197.2450  169.7740  143.9590 C   0  0  0  0  0  3  0  0  0  0  0  0
  196.0450  168.9140  145.8940 C   0  0  0  0  0  0  0  0  0  0  0  0
  195.0160  168.8980  143.6880 C   0  0  0  0  0  3  0  0  0  0  0  0
  194.9570  168.6190  145.0570 C   0  0  0  0  0  3  0  0  0  0  0  0
  197.1890  169.4970  145.3310 C   0  0  0  0  0  3  0  0  0  0  0  0
  196.1640  169.4680  143.1160 C   0  0  0  0  0  0  0  0  0  0  0  0
  195.9780  168.6400  147.3070 N   0  0  0  0  0  0  0  0  0  0  0  0
  197.1990  168.4800  148.0990 C   0  0  0  0  0  1  0  0  0  0  0  0
  194.6990  168.4760  147.9900 C   0  0  0  0  0  1  0  0  0  0  0  0
  187.9870  174.6810  139.0430 C   0  0  0  0  0  1  0  0  0  0  0  0
  188.4490  174.4620  140.4790 C   0  0  2  0  0  3  0  0  0  0  0  0
  188.2660  175.5990  141.3350 O   0  0  0  0  0  0  0  0  0  0  0  0
  187.1350  175.8620  142.1380 C   0  0  0  0  0  0  0  0  0  0  0  0
  186.6870  174.9350  142.8630 O   0  0  0  0  0  0  0  0  0  0  0  0
  186.4600  177.2090  142.1460 C   0  0  2  0  0  3  0  0  0  0  0  0
  186.7080  177.9990  140.8730 C   0  0  0  0  0  1  0  0  0  0  0  0
  186.6340  178.0380  143.4350 C   0  0  1  0  0  3  0  0  0  0  0  0
  185.4290  178.9130  143.6450 C   0  0  0  0  0  0  0  0  0  0  0  0
  184.2770  178.4520  143.4230 O   0  0  0  0  0  0  0  0  0  0  0  0
  185.5680  180.2310  144.0810 O   0  0  0  0  0  1  0  0  0  0  0  0
  187.0230  177.2710  144.7240 C   0  0  2  0  0  3  0  0  0  0  0  0
  185.9900  177.5270  145.8330 C   0  0  1  0  0  3  0  0  0  0  0  0
  185.1960  176.4030  146.0420 O   0  0  0  0  0  1  0  0  0  0  0  0
  186.6400  177.9540  147.1410 C   0  0  0  0  0  2  0  0  0  0  0  0
  186.2050  179.2400  147.4950 O   0  0  0  0  0  1  0  0  0  0  0  0
  188.4440  177.5600  145.2240 C   0  0  0  0  0  2  0  0  0  0  0  0
  190.5050  177.8010  144.6680 O   0  0  0  0  0  1  0  0  0  0  0  0
  189.3060  177.7200  144.1300 O   0  0  0  0  0  0  0  0  0  0  0  0
  2 16  1  0  0  0  0
  5  9  1  0  0  0  0
  5  4  1  0  0  0  0
  6 17  1  0  0  0  0
  7  6  2  0  0  0  0
  9  7  1  0  0  0  0
 10 20  1  0  0  0  0
 11  4  1  6  0  0  0
 11  6  1  0  0  0  0
 11 23  1  0  0  0  0
 12 26  1  6  0  0  0
 12 27  1  0  0  0  0
 13  1  2  0  0  0  0
 14 22  1  0  0  0  0
 14 12  1  0  0  0  0
 15 33  1  0  0  0  0
 16 21  1  0  0  0  0
 17 15  2  0  0  0  0
 18 19  1  0  0  0  0
 18  2  1  0  0  0  0
 19  8  1  0  0  0  0
 19  3  2  0  0  0  0
 21 38  1  6  0  0  0
 21 25  1  0  0  0  0
 22  1  1  6  0  0  0
 22 10  1  0  0  0  0
 23  8  1  6  0  0  0
 23 24  1  0  0  0  0
 24 15  1  0  0  0  0
 24 13  2  0  0  0  0
 25 26  1  0  0  0  0
 27 20  1  0  0  0  0
 28 32  1  0  0  0  0
 29 34  1  0  0  0  0
 30 31  2  0  0  0  0
 31 29  1  0  0  0  0
 32 29  2  0  0  0  0
 33 30  1  0  0  0  0
 33 28  2  0  0  0  0
 34 36  1  0  0  0  0
 34 35  1  0  0  0  0
 38 37  1  6  0  0  0
 38 39  1  0  0  0  0
 39 40  1  0  0  0  0
 40 42  1  0  0  0  0
 40 41  2  0  0  0  0
 42 43  1  6  0  0  0
 42 44  1  0  0  0  0
 44 45  1  1  0  0  0
 44 48  1  0  0  0  0
 45 47  1  0  0  0  0
 46 45  2  0  0  0  0
 48 53  1  1  0  0  0
 48 49  1  0  0  0  0
 49 50  1  1  0  0  0
 49 51  1  0  0  0  0
 51 52  1  0  0  0  0
 55 54  1  0  0  0  0
 55 53  1  0  0  0  0
M  END
>  <MODEL>
3

>  <REMARK>
 VINA RESULT:      -6.5      2.256      3.644
  Name = 
  13 active torsions:
  status: ('A' for Active; 'I' for Inactive)
    1  A    between atoms: C_1  and  C_53
    2  A    between atoms: C_3  and  O_14
    3  A    between atoms: C_3  and  C_38
    4  A    between atoms: C_6  and  C_20
    5  A    between atoms: C_6  and  C_53
    6  A    between atoms: C_8  and  O_22
    7  A    between atoms: C_8  and  C_43
    8  A    between atoms: N_10  and  C_32
    9  A    between atoms: C_11  and  C_29
   10  A    between atoms: C_20  and  O_22
   11  A    between atoms: C_29  and  C_38
   12  A    between atoms: C_33  and  C_52
   13  A    between atoms: C_38  and  C_53
                            x       y       z     vdW  Elec       q    Type
                         _______ _______ _______ _____ _____    ______ ____

>  <TORSDO>
F 13

$$$$
=
 OpenBabel11052419343D

 55 59  0  0  1  0  0  0  0  0999 V2000
  192.4200  169.5050  140.0080 C   0  0  0  0  0  3  0  0  0  0  0  0
  190.7450  173.3660  143.0430 C   0  0  0  0  0  2  0  0  0  0  0  0
  193.4820  172.6750  143.1950 O   0  0  0  0  0  0  0  0  0  0  0  0
  195.1730  169.9320  145.4160 C   0  0  0  0  0  2  0  0  0  0  0  0
  196.3640  170.4190  146.2310 C   0  0  0  0  0  2  0  0  0  0  0  0
  196.6570  170.1950  143.3860 C   0  0  0  0  0  0  0  0  0  0  0  0
  197.7370  170.0140  144.1540 C   0  0  0  0  0  3  0  0  0  0  0  0
  192.9060  170.4540  143.5160 O   0  0  0  0  0  0  0  0  0  0  0  0
  197.6540  169.8380  145.6480 C   0  0  0  0  0  2  0  0  0  0  0  0
  192.1060  170.2720  137.6950 C   0  0  0  0  0  2  0  0  0  0  0  0
  195.2950  170.4580  143.9820 C   0  0  1  0  0  3  0  0  0  0  0  0
  189.6480  171.4540  138.7020 C   0  0  1  0  0  3  0  0  0  0  0  0
  193.4010  169.8360  140.8040 C   0  0  0  0  0  0  0  0  0  0  0  0
  190.3290  170.3850  139.3460 O   0  0  0  0  0  0  0  0  0  0  0  0
  195.7980  170.2900  141.0790 C   0  0  0  0  0  0  0  0  0  0  0  0
  189.3470  173.3250  142.9920 O   0  0  0  0  0  0  0  0  0  0  0  0
  196.8300  170.3050  141.9370 C   0  0  0  0  0  3  0  0  0  0  0  0
  191.2570  172.2690  143.9660 C   0  0  0  0  0  2  0  0  0  0  0  0
  192.6120  171.8260  143.5270 C   0  0  0  0  0  0  0  0  0  0  0  0
  190.9510  170.5660  136.7450 C   0  0  0  0  0  2  0  0  0  0  0  0
  189.0400  173.7480  141.6940 C   0  0  1  0  0  3  0  0  0  0  0  0
  191.7230  170.5110  139.1610 C   0  0  1  0  0  3  0  0  0  0  0  0
  194.1660  169.9160  143.0990 C   0  0  2  0  0  3  0  0  0  0  0  0
  194.3990  170.1160  141.6090 C   0  0  0  0  0  0  0  0  0  0  0  0
  188.8450  172.5430  140.7930 C   0  0  0  0  0  2  0  0  0  0  0  0
  189.6760  172.7280  139.5330 C   0  0  0  0  0  2  0  0  0  0  0  0
  190.1290  171.7330  137.2670 C   0  0  0  0  0  2  0  0  0  0  0  0
  196.4320  169.2580  138.8750 C   0  0  0  0  0  3  0  0  0  0  0  0
  196.6290  170.5750  136.8380 C   0  0  0  0  0  0  0  0  0  0  0  0
  196.0520  171.6360  138.9520 C   0  0  0  0  0  3  0  0  0  0  0  0
  196.3060  171.7230  137.5800 C   0  0  0  0  0  3  0  0  0  0  0  0
  196.6860  169.3410  137.5000 C   0  0  0  0  0  3  0  0  0  0  0  0
  196.1230  170.4050  139.6230 C   0  0  0  0  0  0  0  0  0  0  0  0
  196.8760  170.6630  135.4220 N   0  0  0  0  0  0  0  0  0  0  0  0
  196.8520  169.4650  134.5790 C   0  0  0  0  0  1  0  0  0  0  0  0
  197.1960  171.9350  134.7830 C   0  0  0  0  0  1  0  0  0  0  0  0
  187.9190  175.7720  140.6510 C   0  0  0  0  0  1  0  0  0  0  0  0
  187.7930  174.6350  141.6590 C   0  0  2  0  0  3  0  0  0  0  0  0
  187.3370  175.0470  142.9550 O   0  0  0  0  0  0  0  0  0  0  0  0
  186.8100  176.3140  143.2870 C   0  0  0  0  0  0  0  0  0  0  0  0
  185.5860  176.5260  143.0800 O   0  0  0  0  0  0  0  0  0  0  0  0
  187.6680  177.4040  143.8760 C   0  0  2  0  0  3  0  0  0  0  0  0
  187.8640  178.5740  142.9280 C   0  0  0  0  0  1  0  0  0  0  0  0
  188.9670  176.9360  144.5630 C   0  0  1  0  0  3  0  0  0  0  0  0
  190.1580  177.4290  143.7900 C   0  0  0  0  0  0  0  0  0  0  0  0
  190.5580  176.7840  142.7820 O   0  0  0  0  0  0  0  0  0  0  0  0
  190.8310  178.5900  144.1710 O   0  0  0  0  0  1  0  0  0  0  0  0
  189.1070  177.2150  146.0810 C   0  0  2  0  0  3  0  0  0  0  0  0
  189.7630  176.0180  146.7870 C   0  0  1  0  0  3  0  0  0  0  0  0
  189.7200  174.8820  145.9860 O   0  0  0  0  0  1  0  0  0  0  0  0
  191.2000  176.3070  147.2000 C   0  0  0  0  0  2  0  0  0  0  0  0
  191.9680  175.1370  147.1160 O   0  0  0  0  0  1  0  0  0  0  0  0
  187.7950  177.6060  146.7730 C   0  0  0  0  0  2  0  0  0  0  0  0
  185.8070  176.8120  146.9430 O   0  0  0  0  0  1  0  0  0  0  0  0
  187.0650  176.4520  147.0870 O   0  0  0  0  0  0  0  0  0  0  0  0
  1 13  2  0  0  0  0
  2 18  1  0  0  0  0
  3 19  2  0  0  0  0
  4  5  1  0  0  0  0
  6 11  1  0  0  0  0
  6  7  2  0  0  0  0
  7  9  1  0  0  0  0
  8 19  1  0  0  0  0
  9  5  1  0  0  0  0
 11  4  1  1  0  0  0
 12 27  1  6  0  0  0
 12 14  1  0  0  0  0
 12 26  1  0  0  0  0
 13 24  2  0  0  0  0
 15 24  1  0  0  0  0
 15 17  2  0  0  0  0
 16  2  1  0  0  0  0
 17  6  1  0  0  0  0
 19 18  1  0  0  0  0
 20 27  1  0  0  0  0
 20 10  1  0  0  0  0
 21 38  1  1  0  0  0
 21 16  1  0  0  0  0
 22 10  1  6  0  0  0
 22 14  1  0  0  0  0
 22  1  1  0  0  0  0
 23 24  1  6  0  0  0
 23  8  1  0  0  0  0
 23 11  1  0  0  0  0
 25 21  1  0  0  0  0
 26 25  1  0  0  0  0
 28 33  1  0  0  0  0
 29 32  1  0  0  0  0
 29 31  2  0  0  0  0
 30 33  2  0  0  0  0
 31 30  1  0  0  0  0
 32 28  2  0  0  0  0
 33 15  1  0  0  0  0
 34 29  1  0  0  0  0
 35 34  1  0  0  0  0
 36 34  1  0  0  0  0
 38 37  1  6  0  0  0
 38 39  1  0  0  0  0
 39 40  1  0  0  0  0
 40 42  1  0  0  0  0
 41 40  2  0  0  0  0
 42 43  1  6  0  0  0
 42 44  1  0  0  0  0
 44 45  1  6  0  0  0
 44 48  1  0  0  0  0
 45 47  1  0  0  0  0
 46 45  2  0  0  0  0
 48 53  1  1  0  0  0
 48 49  1  0  0  0  0
 49 50  1  6  0  0  0
 49 51  1  0  0  0  0
 52 51  1  0  0  0  0
 53 55  1  0  0  0  0
 54 55  1  0  0  0  0
M  END
>  <MODEL>
4

>  <REMARK>
 VINA RESULT:      -6.3      2.773      6.063
  Name = 
  13 active torsions:
  status: ('A' for Active; 'I' for Inactive)
    1  A    between atoms: C_1  and  C_53
    2  A    between atoms: C_3  and  O_14
    3  A    between atoms: C_3  and  C_38
    4  A    between atoms: C_6  and  C_20
    5  A    between atoms: C_6  and  C_53
    6  A    between atoms: C_8  and  O_22
    7  A    between atoms: C_8  and  C_43
    8  A    between atoms: N_10  and  C_32
    9  A    between atoms: C_11  and  C_29
   10  A    between atoms: C_20  and  O_22
   11  A    between atoms: C_29  and  C_38
   12  A    between atoms: C_33  and  C_52
   13  A    between atoms: C_38  and  C_53
                            x       y       z     vdW  Elec       q    Type
                         _______ _______ _______ _____ _____    ______ ____

>  <TORSDO>
F 13

$$$$
=
 OpenBabel11052419343D

 55 59  0  0  1  0  0  0  0  0999 V2000
  195.0620  173.0850  142.4220 C   0  0  0  0  0  3  0  0  0  0  0  0
  190.3550  175.2560  142.1870 C   0  0  0  0  0  2  0  0  0  0  0  0
  190.5570  172.5000  141.5880 O   0  0  0  0  0  0  0  0  0  0  0  0
  191.3720  170.8160  138.1510 C   0  0  0  0  0  2  0  0  0  0  0  0
  190.3910  169.7310  137.7260 C   0  0  0  0  0  2  0  0  0  0  0  0
  192.1550  169.1930  139.9230 C   0  0  0  0  0  0  0  0  0  0  0  0
  191.7590  168.1700  139.1580 C   0  0  0  0  0  3  0  0  0  0  0  0
  192.2500  172.9510  140.0730 O   0  0  0  0  0  0  0  0  0  0  0  0
  191.0650  168.3630  137.8350 C   0  0  0  0  0  2  0  0  0  0  0  0
  195.7760  173.2590  144.7670 C   0  0  0  0  0  2  0  0  0  0  0  0
  191.7410  170.6130  139.6230 C   0  0  1  0  0  3  0  0  0  0  0  0
  194.4880  175.8640  144.6870 C   0  0  1  0  0  3  0  0  0  0  0  0
  194.2410  172.1960  141.9290 C   0  0  0  0  0  0  0  0  0  0  0  0
  194.9280  175.1690  143.5290 O   0  0  0  0  0  0  0  0  0  0  0  0
  193.4710  169.8650  141.8940 C   0  0  0  0  0  0  0  0  0  0  0  0
  190.5590  176.6390  142.2460 O   0  0  0  0  0  0  0  0  0  0  0  0
  192.8680  168.9100  141.1690 C   0  0  0  0  0  3  0  0  0  0  0  0
  190.6780  174.7480  140.7890 C   0  0  0  0  0  2  0  0  0  0  0  0
  191.1520  173.3360  140.8570 C   0  0  0  0  0  0  0  0  0  0  0  0
  196.1910  174.3500  145.7470 C   0  0  0  0  0  2  0  0  0  0  0  0
  190.9790  176.8670  143.5610 C   0  0  1  0  0  3  0  0  0  0  0  0
  194.7890  173.7750  143.7120 C   0  0  1  0  0  3  0  0  0  0  0  0
  192.7990  171.6280  140.0710 C   0  0  2  0  0  3  0  0  0  0  0  0
  193.4550  171.2880  141.4010 C   0  0  0  0  0  0  0  0  0  0  0  0
  192.4950  176.9060  143.6170 C   0  0  0  0  0  2  0  0  0  0  0  0
  192.9720  175.9890  144.7330 C   0  0  0  0  0  2  0  0  0  0  0  0
  195.0240  175.2880  146.0090 C   0  0  0  0  0  2  0  0  0  0  0  0
  195.5330  169.1030  143.1150 C   0  0  0  0  0  3  0  0  0  0  0  0
  195.5450  168.7170  145.5180 C   0  0  0  0  0  0  0  0  0  0  0  0
  193.5080  169.4140  144.3830 C   0  0  0  0  0  3  0  0  0  0  0  0
  194.1830  169.0570  145.5540 C   0  0  0  0  0  3  0  0  0  0  0  0
  196.2140  168.7470  144.2860 C   0  0  0  0  0  3  0  0  0  0  0  0
  194.1680  169.4310  143.1450 C   0  0  0  0  0  0  0  0  0  0  0  0
  196.2450  168.3640  146.7270 N   0  0  0  0  0  0  0  0  0  0  0  0
  195.5200  168.1660  147.9840 C   0  0  0  0  0  1  0  0  0  0  0  0
  197.6970  168.2270  146.7520 C   0  0  0  0  0  1  0  0  0  0  0  0
  190.1020  178.0560  145.6240 C   0  0  0  0  0  1  0  0  0  0  0  0
  190.3990  178.1620  144.1340 C   0  0  2  0  0  3  0  0  0  0  0  0
  189.3240  178.7090  143.3570 O   0  0  0  0  0  0  0  0  0  0  0  0
  188.1410  178.0350  142.9850 C   0  0  0  0  0  0  0  0  0  0  0  0
  187.8310  177.9990  141.7650 O   0  0  0  0  0  0  0  0  0  0  0  0
  187.2520  177.3660  144.0020 C   0  0  2  0  0  3  0  0  0  0  0  0
  186.3910  176.2710  143.3980 C   0  0  0  0  0  1  0  0  0  0  0  0
  186.4830  178.3130  144.9460 C   0  0  1  0  0  3  0  0  0  0  0  0
  185.3170  178.9210  144.2180 C   0  0  0  0  0  0  0  0  0  0  0  0
  185.3510  180.1400  143.8940 O   0  0  0  0  0  0  0  0  0  0  0  0
  184.1950  178.1570  143.8950 O   0  0  0  0  0  1  0  0  0  0  0  0
  186.0730  177.7540  146.3310 C   0  0  2  0  0  3  0  0  0  0  0  0
  185.4800  178.8710  147.2050 C   0  0  1  0  0  3  0  0  0  0  0  0
  184.2220  178.5150  147.6820 O   0  0  0  0  0  1  0  0  0  0  0  0
  186.3900  179.2410  148.3670 C   0  0  0  0  0  2  0  0  0  0  0  0
  186.3130  180.6190  148.6180 O   0  0  0  0  0  1  0  0  0  0  0  0
  187.1960  177.0190  147.0720 C   0  0  0  0  0  2  0  0  0  0  0  0
  188.5570  175.3650  146.9140 O   0  0  0  0  0  1  0  0  0  0  0  0
  187.3500  175.7320  146.5380 O   0  0  0  0  0  0  0  0  0  0  0  0
  2 16  1  0  0  0  0
  5  9  1  0  0  0  0
  5  4  1  0  0  0  0
  6 17  1  0  0  0  0
  7  6  2  0  0  0  0
  8 19  1  0  0  0  0
  9  7  1  0  0  0  0
 10 20  1  0  0  0  0
 11  4  1  6  0  0  0
 11  6  1  0  0  0  0
 11 23  1  0  0  0  0
 12 26  1  1  0  0  0
 12 27  1  0  0  0  0
 13  1  2  0  0  0  0
 14 22  1  0  0  0  0
 14 12  1  0  0  0  0
 15 33  1  0  0  0  0
 16 21  1  0  0  0  0
 17 15  2  0  0  0  0
 18 19  1  0  0  0  0
 18  2  1  0  0  0  0
 19  3  2  0  0  0  0
 20 27  1  0  0  0  0
 21 25  1  0  0  0  0
 21 38  1  6  0  0  0
 22  1  1  6  0  0  0
 22 10  1  0  0  0  0
 23  8  1  1  0  0  0
 23 24  1  0  0  0  0
 24 15  1  0  0  0  0
 24 13  2  0  0  0  0
 25 26  1  0  0  0  0
 28 33  2  0  0  0  0
 28 32  1  0  0  0  0
 29 31  1  0  0  0  0
 29 34  1  0  0  0  0
 30 31  2  0  0  0  0
 32 29  2  0  0  0  0
 33 30  1  0  0  0  0
 34 36  1  0  0  0  0
 34 35  1  0  0  0  0
 38 37  1  1  0  0  0
 39 38  1  0  0  0  0
 40 39  1  0  0  0  0
 40 42  1  0  0  0  0
 41 40  2  0  0  0  0
 42 43  1  6  0  0  0
 42 44  1  0  0  0  0
 44 45  1  6  0  0  0
 44 48  1  0  0  0  0
 46 45  2  0  0  0  0
 47 45  1  0  0  0  0
 48 53  1  1  0  0  0
 48 49  1  0  0  0  0
 49 50  1  1  0  0  0
 49 51  1  0  0  0  0
 51 52  1  0  0  0  0
 55 54  1  0  0  0  0
 55 53  1  0  0  0  0
M  END
>  <MODEL>
5

>  <REMARK>
 VINA RESULT:      -5.9      1.842      3.034
  Name = 
  13 active torsions:
  status: ('A' for Active; 'I' for Inactive)
    1  A    between atoms: C_1  and  C_53
    2  A    between atoms: C_3  and  O_14
    3  A    between atoms: C_3  and  C_38
    4  A    between atoms: C_6  and  C_20
    5  A    between atoms: C_6  and  C_53
    6  A    between atoms: C_8  and  O_22
    7  A    between atoms: C_8  and  C_43
    8  A    between atoms: N_10  and  C_32
    9  A    between atoms: C_11  and  C_29
   10  A    between atoms: C_20  and  O_22
   11  A    between atoms: C_29  and  C_38
   12  A    between atoms: C_33  and  C_52
   13  A    between atoms: C_38  and  C_53
                            x       y       z     vdW  Elec       q    Type
                         _______ _______ _______ _____ _____    ______ ____

>  <TORSDO>
F 13

$$$$
=
 OpenBabel11052419343D

 55 59  0  0  1  0  0  0  0  0999 V2000
  190.3090  172.4730  139.3690 C   0  0  0  0  0  3  0  0  0  0  0  0
  194.6220  173.9940  141.8210 C   0  0  0  0  0  2  0  0  0  0  0  0
  194.8010  173.4960  139.0440 O   0  0  0  0  0  0  0  0  0  0  0  0
  195.4830  170.0980  137.2260 C   0  0  0  0  0  2  0  0  0  0  0  0
  196.6020  170.1430  136.1940 C   0  0  0  0  0  2  0  0  0  0  0  0
  194.1440  171.4980  135.6030 C   0  0  0  0  0  0  0  0  0  0  0  0
  194.8560  170.9980  134.5870 C   0  0  0  0  0  3  0  0  0  0  0  0
  193.8210  171.4200  139.3510 O   0  0  0  0  0  0  0  0  0  0  0  0
  196.0040  170.0440  134.7890 C   0  0  0  0  0  2  0  0  0  0  0  0
  188.7230  174.3410  139.5580 C   0  0  0  0  0  2  0  0  0  0  0  0
  194.5750  171.3170  137.0390 C   0  0  1  0  0  3  0  0  0  0  0  0
  189.8150  174.6470  142.2350 C   0  0  1  0  0  3  0  0  0  0  0  0
  191.2980  172.3840  138.5210 C   0  0  0  0  0  0  0  0  0  0  0  0
  189.8980  173.4430  141.4850 O   0  0  0  0  0  0  0  0  0  0  0  0
  192.1280  172.7630  136.2420 C   0  0  0  0  0  0  0  0  0  0  0  0
  194.3450  173.9030  143.1900 O   0  0  0  0  0  0  0  0  0  0  0  0
  193.0130  172.3780  135.3080 C   0  0  0  0  0  3  0  0  0  0  0  0
  194.8980  172.6060  141.2600 C   0  0  0  0  0  2  0  0  0  0  0  0
  194.5030  172.5510  139.8230 C   0  0  0  0  0  0  0  0  0  0  0  0
  187.9060  175.0280  140.6450 C   0  0  0  0  0  2  0  0  0  0  0  0
  193.4330  174.9370  143.4250 C   0  0  1  0  0  3  0  0  0  0  0  0
  190.0200  173.7320  140.1080 C   0  0  1  0  0  3  0  0  0  0  0  0
  193.3800  171.2660  137.9970 C   0  0  2  0  0  3  0  0  0  0  0  0
  192.2710  172.2480  137.6500 C   0  0  0  0  0  0  0  0  0  0  0  0
  192.0170  174.3940  143.3710 C   0  0  0  0  0  2  0  0  0  0  0  0
  191.1830  175.2760  142.4550 C   0  0  0  0  0  2  0  0  0  0  0  0
  188.8300  175.6800  141.6610 C   0  0  0  0  0  2  0  0  0  0  0  0
  189.6830  173.2370  135.8980 C   0  0  0  0  0  3  0  0  0  0  0  0
  188.8840  175.3820  135.0730 C   0  0  0  0  0  0  0  0  0  0  0  0
  191.2670  174.9660  135.3460 C   0  0  0  0  0  3  0  0  0  0  0  0
  190.2170  175.8150  134.9830 C   0  0  0  0  0  3  0  0  0  0  0  0
  188.6280  174.0840  135.5370 C   0  0  0  0  0  3  0  0  0  0  0  0
  191.0180  173.6610  135.7970 C   0  0  0  0  0  0  0  0  0  0  0  0
  187.8010  176.2620  134.7120 N   0  0  0  0  0  0  0  0  0  0  0  0
  188.0200  177.7030  134.5700 C   0  0  0  0  0  1  0  0  0  0  0  0
  186.4470  175.7570  134.5140 C   0  0  0  0  0  1  0  0  0  0  0  0
  194.8700  175.0390  145.5130 C   0  0  0  0  0  1  0  0  0  0  0  0
  193.6790  175.6280  144.7680 C   0  0  2  0  0  3  0  0  0  0  0  0
  192.4980  175.7740  145.5690 O   0  0  0  0  0  0  0  0  0  0  0  0
  191.5610  176.8270  145.4840 C   0  0  0  0  0  0  0  0  0  0  0  0
  191.7770  177.7550  144.6600 O   0  0  0  0  0  0  0  0  0  0  0  0
  190.3260  176.8670  146.3470 C   0  0  2  0  0  3  0  0  0  0  0  0
  190.6400  176.7550  147.8280 C   0  0  0  0  0  1  0  0  0  0  0  0
  189.1600  175.9660  145.8880 C   0  0  1  0  0  3  0  0  0  0  0  0
  189.3550  174.5730  146.4180 C   0  0  0  0  0  0  0  0  0  0  0  0
  189.9440  173.7120  145.7090 O   0  0  0  0  0  0  0  0  0  0  0  0
  188.8900  174.2160  147.6840 O   0  0  0  0  0  1  0  0  0  0  0  0
  187.7230  176.4850  146.1390 C   0  0  2  0  0  3  0  0  0  0  0  0
  187.0180  176.7750  144.8040 C   0  0  1  0  0  3  0  0  0  0  0  0
  185.6360  176.7990  144.9660 O   0  0  0  0  0  1  0  0  0  0  0  0
  187.4890  178.0770  144.1720 C   0  0  0  0  0  2  0  0  0  0  0  0
  186.4020  178.9470  143.9990 O   0  0  0  0  0  1  0  0  0  0  0  0
  187.6450  177.6990  147.0720 C   0  0  0  0  0  2  0  0  0  0  0  0
  185.8940  178.8840  147.4540 O   0  0  0  0  0  1  0  0  0  0  0  0
  186.4090  177.7050  147.7360 O   0  0  0  0  0  0  0  0  0  0  0  0
  2 16  1  0  0  0  0
  3 19  2  0  0  0  0
  5  4  1  0  0  0  0
  6 11  1  0  0  0  0
  7  9  1  0  0  0  0
  7  6  2  0  0  0  0
  8 19  1  0  0  0  0
  9  5  1  0  0  0  0
 10 22  1  0  0  0  0
 10 20  1  0  0  0  0
 11  4  1  6  0  0  0
 11 23  1  0  0  0  0
 12 27  1  6  0  0  0
 12 26  1  0  0  0  0
 13  1  2  0  0  0  0
 14 12  1  0  0  0  0
 15 24  1  0  0  0  0
 16 21  1  0  0  0  0
 17  6  1  0  0  0  0
 17 15  2  0  0  0  0
 18  2  1  0  0  0  0
 19 18  1  0  0  0  0
 20 27  1  0  0  0  0
 21 38  1  1  0  0  0
 22  1  1  6  0  0  0
 22 14  1  0  0  0  0
 23 24  1  6  0  0  0
 23  8  1  0  0  0  0
 24 13  2  0  0  0  0
 25 21  1  0  0  0  0
 26 25  1  0  0  0  0
 29 32  1  0  0  0  0
 30 33  2  0  0  0  0
 31 29  2  0  0  0  0
 31 30  1  0  0  0  0
 32 28  2  0  0  0  0
 33 28  1  0  0  0  0
 33 15  1  0  0  0  0
 34 29  1  0  0  0  0
 35 34  1  0  0  0  0
 36 34  1  0  0  0  0
 38 37  1  1  0  0  0
 38 39  1  0  0  0  0
 40 39  1  0  0  0  0
 40 42  1  0  0  0  0
 41 40  2  0  0  0  0
 42 43  1  1  0  0  0
 44 48  1  0  0  0  0
 44 42  1  0  0  0  0
 44 45  1  1  0  0  0
 45 47  1  0  0  0  0
 46 45  2  0  0  0  0
 48 53  1  1  0  0  0
 49 50  1  1  0  0  0
 49 48  1  0  0  0  0
 51 49  1  0  0  0  0
 52 51  1  0  0  0  0
 53 55  1  0  0  0  0
 54 55  1  0  0  0  0
M  END
>  <MODEL>
6

>  <REMARK>
 VINA RESULT:      -5.9      3.220      6.844
  Name = 
  13 active torsions:
  status: ('A' for Active; 'I' for Inactive)
    1  A    between atoms: C_1  and  C_53
    2  A    between atoms: C_3  and  O_14
    3  A    between atoms: C_3  and  C_38
    4  A    between atoms: C_6  and  C_20
    5  A    between atoms: C_6  and  C_53
    6  A    between atoms: C_8  and  O_22
    7  A    between atoms: C_8  and  C_43
    8  A    between atoms: N_10  and  C_32
    9  A    between atoms: C_11  and  C_29
   10  A    between atoms: C_20  and  O_22
   11  A    between atoms: C_29  and  C_38
   12  A    between atoms: C_33  and  C_52
   13  A    between atoms: C_38  and  C_53
                            x       y       z     vdW  Elec       q    Type
                         _______ _______ _______ _____ _____    ______ ____

>  <TORSDO>
F 13

$$$$
=
 OpenBabel11052419343D

 55 59  0  0  1  0  0  0  0  0999 V2000
  189.9030  176.2000  141.9750 C   0  0  0  0  0  3  0  0  0  0  0  0
  191.2090  171.7760  144.3510 C   0  0  0  0  0  2  0  0  0  0  0  0
  190.1530  173.8560  145.9470 O   0  0  0  0  0  0  0  0  0  0  0  0
  192.0590  176.8330  147.6280 C   0  0  0  0  0  2  0  0  0  0  0  0
  191.7740  177.0120  149.1130 C   0  0  0  0  0  2  0  0  0  0  0  0
  189.6990  177.6500  147.2370 C   0  0  0  0  0  0  0  0  0  0  0  0
  189.7440  178.3240  148.3930 C   0  0  0  0  0  3  0  0  0  0  0  0
  191.6980  175.3310  145.0510 O   0  0  0  0  0  0  0  0  0  0  0  0
  190.9280  178.2690  149.3220 C   0  0  0  0  0  2  0  0  0  0  0  0
  188.0820  175.6290  140.4250 C   0  0  0  0  0  2  0  0  0  0  0  0
  190.7380  176.6130  146.8840 C   0  0  1  0  0  3  0  0  0  0  0  0
  189.5870  173.1820  139.9800 C   0  0  1  0  0  3  0  0  0  0  0  0
  189.7880  176.3940  143.2620 C   0  0  0  0  0  0  0  0  0  0  0  0
  190.1610  174.3760  140.4950 O   0  0  0  0  0  0  0  0  0  0  0  0
  188.4830  177.3290  145.1190 C   0  0  0  0  0  0  0  0  0  0  0  0
  191.9450  171.0350  143.4190 O   0  0  0  0  0  0  0  0  0  0  0  0
  188.5280  177.8040  146.3740 C   0  0  0  0  0  3  0  0  0  0  0  0
  192.0840  172.8710  144.9430 C   0  0  0  0  0  2  0  0  0  0  0  0
  191.2420  174.0360  145.3400 C   0  0  0  0  0  0  0  0  0  0  0  0
  187.8990  174.8400  139.1350 C   0  0  0  0  0  2  0  0  0  0  0  0
  190.9980  170.6470  142.4650 C   0  0  1  0  0  3  0  0  0  0  0  0
  189.2210  175.0690  141.2880 C   0  0  1  0  0  3  0  0  0  0  0  0
  190.9670  176.5200  145.3710 C   0  0  2  0  0  3  0  0  0  0  0  0
  189.6930  176.6370  144.5480 C   0  0  0  0  0  0  0  0  0  0  0  0
  191.0110  171.6240  141.3030 C   0  0  0  0  0  2  0  0  0  0  0  0
  189.5840  172.0630  141.0120 C   0  0  0  0  0  2  0  0  0  0  0  0
  188.1840  173.3670  139.3780 C   0  0  0  0  0  2  0  0  0  0  0  0
  186.6410  178.8410  144.3180 C   0  0  0  0  0  3  0  0  0  0  0  0
  184.9000  178.0690  142.8030 C   0  0  0  0  0  0  0  0  0  0  0  0
  186.6350  176.5490  143.5780 C   0  0  0  0  0  3  0  0  0  0  0  0
  185.4860  176.7930  142.8200 C   0  0  0  0  0  3  0  0  0  0  0  0
  185.4910  179.0920  143.5590 C   0  0  0  0  0  3  0  0  0  0  0  0
  187.2230  177.5630  144.3490 C   0  0  0  0  0  0  0  0  0  0  0  0
  183.7250  178.3260  142.0100 N   0  0  0  0  0  0  0  0  0  0  0  0
  182.4490  178.6650  142.6450 C   0  0  0  0  0  1  0  0  0  0  0  0
  183.7530  178.2220  140.5550 C   0  0  0  0  0  1  0  0  0  0  0  0
  192.6840  168.7730  142.1670 C   0  0  0  0  0  1  0  0  0  0  0  0
  191.2440  169.2250  141.9560 C   0  0  2  0  0  3  0  0  0  0  0  0
  190.7400  168.9870  140.6340 O   0  0  0  0  0  0  0  0  0  0  0  0
  191.4910  169.0320  139.4390 C   0  0  0  0  0  0  0  0  0  0  0  0
  192.4860  168.2670  139.3280 O   0  0  0  0  0  0  0  0  0  0  0  0
  191.1340  169.9620  138.3080 C   0  0  2  0  0  3  0  0  0  0  0  0
  189.6980  169.7970  137.8430 C   0  0  0  0  0  1  0  0  0  0  0  0
  192.1560  170.0380  137.1550 C   0  0  1  0  0  3  0  0  0  0  0  0
  191.5340  169.5220  135.8880 C   0  0  0  0  0  0  0  0  0  0  0  0
  190.9490  170.3230  135.1090 O   0  0  0  0  0  0  0  0  0  0  0  0
  191.5920  168.1670  135.5600 O   0  0  0  0  0  1  0  0  0  0  0  0
  192.8790  171.3900  136.9360 C   0  0  2  0  0  3  0  0  0  0  0  0
  194.2900  171.3480  137.5460 C   0  0  1  0  0  3  0  0  0  0  0  0
  195.2430  171.7760  136.6260 O   0  0  0  0  0  1  0  0  0  0  0  0
  194.3930  172.1720  138.8220 C   0  0  0  0  0  2  0  0  0  0  0  0
  195.3100  173.2180  138.6440 O   0  0  0  0  0  1  0  0  0  0  0  0
  192.1010  172.6100  137.4430 C   0  0  0  0  0  2  0  0  0  0  0  0
  190.3220  173.4220  136.5560 O   0  0  0  0  0  1  0  0  0  0  0  0
  191.6210  173.3490  136.3540 O   0  0  0  0  0  0  0  0  0  0  0  0
  1 13  2  0  0  0  0
  2 18  1  0  0  0  0
  4  5  1  0  0  0  0
  5  9  1  0  0  0  0
  6  7  2  0  0  0  0
  7  9  1  0  0  0  0
  8 19  1  0  0  0  0
  8 23  1  0  0  0  0
 11  6  1  0  0  0  0
 11  4  1  1  0  0  0
 12 27  1  1  0  0  0
 12 14  1  0  0  0  0
 12 26  1  0  0  0  0
 13 24  2  0  0  0  0
 14 22  1  0  0  0  0
 15 17  2  0  0  0  0
 16  2  1  0  0  0  0
 17  6  1  0  0  0  0
 18 19  1  0  0  0  0
 19  3  2  0  0  0  0
 20 27  1  0  0  0  0
 20 10  1  0  0  0  0
 21 38  1  6  0  0  0
 21 16  1  0  0  0  0
 22 10  1  6  0  0  0
 22  1  1  0  0  0  0
 23 24  1  6  0  0  0
 23 11  1  0  0  0  0
 24 15  1  0  0  0  0
 25 21  1  0  0  0  0
 26 25  1  0  0  0  0
 28 33  1  0  0  0  0
 29 31  2  0  0  0  0
 29 32  1  0  0  0  0
 30 33  2  0  0  0  0
 31 30  1  0  0  0  0
 32 28  2  0  0  0  0
 33 15  1  0  0  0  0
 34 35  1  0  0  0  0
 34 29  1  0  0  0  0
 36 34  1  0  0  0  0
 38 37  1  6  0  0  0
 39 38  1  0  0  0  0
 40 39  1  0  0  0  0
 41 40  2  0  0  0  0
 42 43  1  6  0  0  0
 42 40  1  0  0  0  0
 44 45  1  6  0  0  0
 44 42  1  0  0  0  0
 46 45  2  0  0  0  0
 47 45  1  0  0  0  0
 48 44  1  0  0  0  0
 48 53  1  1  0  0  0
 48 49  1  0  0  0  0
 49 50  1  6  0  0  0
 49 51  1  0  0  0  0
 52 51  1  0  0  0  0
 55 54  1  0  0  0  0
 55 53  1  0  0  0  0
M  END
>  <MODEL>
7

>  <REMARK>
 VINA RESULT:      -5.8      3.523     10.941
  Name = 
  13 active torsions:
  status: ('A' for Active; 'I' for Inactive)
    1  A    between atoms: C_1  and  C_53
    2  A    between atoms: C_3  and  O_14
    3  A    between atoms: C_3  and  C_38
    4  A    between atoms: C_6  and  C_20
    5  A    between atoms: C_6  and  C_53
    6  A    between atoms: C_8  and  O_22
    7  A    between atoms: C_8  and  C_43
    8  A    between atoms: N_10  and  C_32
    9  A    between atoms: C_11  and  C_29
   10  A    between atoms: C_20  and  O_22
   11  A    between atoms: C_29  and  C_38
   12  A    between atoms: C_33  and  C_52
   13  A    between atoms: C_38  and  C_53
                            x       y       z     vdW  Elec       q    Type
                         _______ _______ _______ _____ _____    ______ ____

>  <TORSDO>
F 13

$$$$
=
 OpenBabel11052419343D

 55 59  0  0  1  0  0  0  0  0999 V2000
  191.7720  171.6940  140.4660 C   0  0  0  0  0  3  0  0  0  0  0  0
  189.7740  175.9010  142.7540 C   0  0  0  0  0  2  0  0  0  0  0  0
  192.5870  175.6190  142.7600 O   0  0  0  0  0  0  0  0  0  0  0  0
  194.8300  173.6980  145.3280 C   0  0  0  0  0  2  0  0  0  0  0  0
  195.9920  174.5080  145.8870 C   0  0  0  0  0  2  0  0  0  0  0  0
  196.1010  173.6770  143.1430 C   0  0  0  0  0  0  0  0  0  0  0  0
  197.2500  173.8160  143.8130 C   0  0  0  0  0  3  0  0  0  0  0  0
  192.3730  173.4770  143.6130 O   0  0  0  0  0  0  0  0  0  0  0  0
  197.3060  173.9790  145.3100 C   0  0  0  0  0  2  0  0  0  0  0  0
  191.1750  171.8650  138.0880 C   0  0  0  0  0  2  0  0  0  0  0  0
  194.7640  173.8930  143.8100 C   0  0  1  0  0  3  0  0  0  0  0  0
  188.6510  172.9210  139.0710 C   0  0  1  0  0  3  0  0  0  0  0  0
  192.7500  172.3220  141.0620 C   0  0  0  0  0  0  0  0  0  0  0  0
  189.5300  172.1250  139.8550 O   0  0  0  0  0  0  0  0  0  0  0  0
  195.0670  173.1300  140.9750 C   0  0  0  0  0  0  0  0  0  0  0  0
  188.3980  175.6710  142.8620 O   0  0  0  0  0  0  0  0  0  0  0  0
  196.1460  173.4730  141.6950 C   0  0  0  0  0  3  0  0  0  0  0  0
  190.5120  175.1200  143.8320 C   0  0  0  0  0  2  0  0  0  0  0  0
  191.8800  174.7650  143.3580 C   0  0  0  0  0  0  0  0  0  0  0  0
  189.9210  171.7820  137.2250 C   0  0  0  0  0  2  0  0  0  0  0  0
  187.9350  175.7430  141.5440 C   0  0  1  0  0  3  0  0  0  0  0  0
  190.8720  172.3820  139.5000 C   0  0  1  0  0  3  0  0  0  0  0  0
  193.6640  173.0230  143.1910 C   0  0  2  0  0  3  0  0  0  0  0  0
  193.7530  172.9050  141.6760 C   0  0  0  0  0  0  0  0  0  0  0  0
  187.8550  174.3480  140.9510 C   0  0  0  0  0  2  0  0  0  0  0  0
  188.5520  174.3450  139.5990 C   0  0  0  0  0  2  0  0  0  0  0  0
  188.9760  172.9230  137.5680 C   0  0  0  0  0  2  0  0  0  0  0  0
  195.0000  174.0110  138.6210 C   0  0  0  0  0  3  0  0  0  0  0  0
  195.7320  172.6780  136.7200 C   0  0  0  0  0  0  0  0  0  0  0  0
  195.7790  171.7580  138.9730 C   0  0  0  0  0  3  0  0  0  0  0  0
  196.0070  171.6200  137.6000 C   0  0  0  0  0  3  0  0  0  0  0  0
  195.2270  173.8770  137.2460 C   0  0  0  0  0  3  0  0  0  0  0  0
  195.2610  172.9490  139.5030 C   0  0  0  0  0  0  0  0  0  0  0  0
  195.9800  172.5420  135.3080 N   0  0  0  0  0  0  0  0  0  0  0  0
  195.6100  171.3170  134.5950 C   0  0  0  0  0  1  0  0  0  0  0  0
  196.6400  173.5970  134.5460 C   0  0  0  0  0  1  0  0  0  0  0  0
  186.5860  177.6210  140.4970 C   0  0  0  0  0  1  0  0  0  0  0  0
  186.5710  176.4310  141.4500 C   0  0  2  0  0  3  0  0  0  0  0  0
  185.9720  176.7060  142.7240 O   0  0  0  0  0  0  0  0  0  0  0  0
  186.5800  177.3910  143.7990 C   0  0  0  0  0  0  0  0  0  0  0  0
  187.1810  178.4720  143.5560 O   0  0  0  0  0  0  0  0  0  0  0  0
  186.5290  176.8660  145.2100 C   0  0  2  0  0  3  0  0  0  0  0  0
  185.1160  176.5550  145.6700 C   0  0  0  0  0  1  0  0  0  0  0  0
  187.3630  177.6460  146.2460 C   0  0  1  0  0  3  0  0  0  0  0  0
  186.4510  178.4390  147.1410 C   0  0  0  0  0  0  0  0  0  0  0  0
  186.1910  178.0150  148.3000 O   0  0  0  0  0  1  0  0  0  0  0  0
  185.8860  179.6380  146.7070 O   0  0  0  0  0  0  0  0  0  0  0  0
  188.4170  176.8500  147.0540 C   0  0  2  0  0  3  0  0  0  0  0  0
  189.7660  177.5880  147.0500 C   0  0  1  0  0  3  0  0  0  0  0  0
  189.7800  178.6040  148.0010 O   0  0  0  0  0  1  0  0  0  0  0  0
  190.9400  176.6470  147.2790 C   0  0  0  0  0  2  0  0  0  0  0  0
  191.9760  176.9460  146.3810 O   0  0  0  0  0  1  0  0  0  0  0  0
  188.5890  175.3950  146.6020 C   0  0  0  0  0  2  0  0  0  0  0  0
  189.7300  174.0820  147.8630 O   0  0  0  0  0  1  0  0  0  0  0  0
  188.5060  174.5430  147.7120 O   0  0  0  0  0  0  0  0  0  0  0  0
  1 13  2  0  0  0  0
  2 16  1  0  0  0  0
  2 18  1  0  0  0  0
  3 19  2  0  0  0  0
  4  5  1  0  0  0  0
  6 11  1  0  0  0  0
  6  7  2  0  0  0  0
  7  9  1  0  0  0  0
  9  5  1  0  0  0  0
 11  4  1  1  0  0  0
 12 27  1  6  0  0  0
 12 26  1  0  0  0  0
 12 14  1  0  0  0  0
 13 24  2  0  0  0  0
 15 24  1  0  0  0  0
 15 17  2  0  0  0  0
 17  6  1  0  0  0  0
 19  8  1  0  0  0  0
 19 18  1  0  0  0  0
 20 27  1  0  0  0  0
 20 10  1  0  0  0  0
 21 38  1  1  0  0  0
 21 16  1  0  0  0  0
 22 10  1  6  0  0  0
 22 14  1  0  0  0  0
 22  1  1  0  0  0  0
 23 24  1  6  0  0  0
 23  8  1  0  0  0  0
 23 11  1  0  0  0  0
 25 21  1  0  0  0  0
 26 25  1  0  0  0  0
 28 33  1  0  0  0  0
 29 32  1  0  0  0  0
 29 31  2  0  0  0  0
 30 33  2  0  0  0  0
 31 30  1  0  0  0  0
 32 28  2  0  0  0  0
 33 15  1  0  0  0  0
 34 29  1  0  0  0  0
 35 34  1  0  0  0  0
 36 34  1  0  0  0  0
 38 37  1  1  0  0  0
 38 39  1  0  0  0  0
 39 40  1  0  0  0  0
 40 42  1  0  0  0  0
 41 40  2  0  0  0  0
 42 43  1  1  0  0  0
 42 44  1  0  0  0  0
 44 48  1  0  0  0  0
 44 45  1  1  0  0  0
 45 46  1  0  0  0  0
 47 45  2  0  0  0  0
 48 53  1  6  0  0  0
 49 48  1  0  0  0  0
 49 51  1  0  0  0  0
 49 50  1  1  0  0  0
 52 51  1  0  0  0  0
 53 55  1  0  0  0  0
 55 54  1  0  0  0  0
M  END
>  <MODEL>
8

>  <REMARK>
 VINA RESULT:      -5.6      2.581      5.687
  Name = 
  13 active torsions:
  status: ('A' for Active; 'I' for Inactive)
    1  A    between atoms: C_1  and  C_53
    2  A    between atoms: C_3  and  O_14
    3  A    between atoms: C_3  and  C_38
    4  A    between atoms: C_6  and  C_20
    5  A    between atoms: C_6  and  C_53
    6  A    between atoms: C_8  and  O_22
    7  A    between atoms: C_8  and  C_43
    8  A    between atoms: N_10  and  C_32
    9  A    between atoms: C_11  and  C_29
   10  A    between atoms: C_20  and  O_22
   11  A    between atoms: C_29  and  C_38
   12  A    between atoms: C_33  and  C_52
   13  A    between atoms: C_38  and  C_53
                            x       y       z     vdW  Elec       q    Type
                         _______ _______ _______ _____ _____    ______ ____

>  <TORSDO>
F 13

$$$$
=
 OpenBabel11052419343D

 55 59  0  0  1  0  0  0  0  0999 V2000
  189.9550  176.0070  141.6980 C   0  0  0  0  0  3  0  0  0  0  0  0
  191.1820  171.6050  144.1540 C   0  0  0  0  0  2  0  0  0  0  0  0
  190.1330  173.7210  145.7070 O   0  0  0  0  0  0  0  0  0  0  0  0
  192.0550  176.7010  147.3650 C   0  0  0  0  0  2  0  0  0  0  0  0
  191.7550  176.9060  148.8440 C   0  0  0  0  0  2  0  0  0  0  0  0
  189.7090  177.5390  146.9350 C   0  0  0  0  0  0  0  0  0  0  0  0
  189.7490  178.2300  148.0800 C   0  0  0  0  0  3  0  0  0  0  0  0
  191.7050  175.1640  144.8070 O   0  0  0  0  0  0  0  0  0  0  0  0
  190.9220  178.1760  149.0240 C   0  0  0  0  0  2  0  0  0  0  0  0
  188.1460  175.4340  140.1360 C   0  0  0  0  0  2  0  0  0  0  0  0
  190.7400  176.4860  146.6090 C   0  0  1  0  0  3  0  0  0  0  0  0
  189.6270  172.9630  139.7450 C   0  0  1  0  0  3  0  0  0  0  0  0
  189.8280  176.2220  142.9800 C   0  0  0  0  0  0  0  0  0  0  0  0
  190.2090  174.1580  140.2480 O   0  0  0  0  0  0  0  0  0  0  0  0
  188.5140  177.2000  144.8080 C   0  0  0  0  0  0  0  0  0  0  0  0
  191.9200  170.8420  143.2430 O   0  0  0  0  0  0  0  0  0  0  0  0
  188.5500  177.6940  146.0560 C   0  0  0  0  0  3  0  0  0  0  0  0
  192.0640  172.6990  144.7400 C   0  0  0  0  0  2  0  0  0  0  0  0
  191.2310  173.8790  145.1100 C   0  0  0  0  0  0  0  0  0  0  0  0
  187.9680  174.6280  138.8550 C   0  0  0  0  0  2  0  0  0  0  0  0
  190.9800  170.4500  142.2840 C   0  0  1  0  0  3  0  0  0  0  0  0
  189.2680  174.8740  141.0200 C   0  0  1  0  0  3  0  0  0  0  0  0
  190.9850  176.3660  145.1010 C   0  0  2  0  0  3  0  0  0  0  0  0
  189.7220  176.4860  144.2610 C   0  0  0  0  0  0  0  0  0  0  0  0
  191.0170  171.4090  141.1080 C   0  0  0  0  0  2  0  0  0  0  0  0
  189.5990  171.8600  140.7930 C   0  0  0  0  0  2  0  0  0  0  0  0
  188.2330  173.1550  139.1240 C   0  0  0  0  0  2  0  0  0  0  0  0
  186.0360  176.9300  144.4730 C   0  0  0  0  0  3  0  0  0  0  0  0
  184.8620  177.9700  142.6120 C   0  0  0  0  0  0  0  0  0  0  0  0
  187.2690  178.2320  142.8630 C   0  0  0  0  0  3  0  0  0  0  0  0
  186.0860  178.4910  142.1630 C   0  0  0  0  0  3  0  0  0  0  0  0
  184.8490  177.1890  143.7760 C   0  0  0  0  0  3  0  0  0  0  0  0
  187.2650  177.4380  144.0200 C   0  0  0  0  0  0  0  0  0  0  0  0
  183.6410  178.2490  141.9000 N   0  0  0  0  0  0  0  0  0  0  0  0
  182.4290  178.6540  142.6170 C   0  0  0  0  0  1  0  0  0  0  0  0
  183.5560  178.1030  140.4510 C   0  0  0  0  0  1  0  0  0  0  0  0
  191.9830  168.1800  142.8140 C   0  0  0  0  0  1  0  0  0  0  0  0
  191.2140  169.0180  141.8000 C   0  0  2  0  0  3  0  0  0  0  0  0
  191.7240  168.9340  140.4610 O   0  0  0  0  0  0  0  0  0  0  0  0
  193.0490  169.2090  140.0580 C   0  0  0  0  0  0  0  0  0  0  0  0
  193.9590  169.1680  140.9280 O   0  0  0  0  0  0  0  0  0  0  0  0
  193.3940  169.5440  138.6300 C   0  0  2  0  0  3  0  0  0  0  0  0
  194.8570  169.9080  138.4490 C   0  0  0  0  0  1  0  0  0  0  0  0
  192.4220  170.5040  137.9140 C   0  0  1  0  0  3  0  0  0  0  0  0
  193.0440  171.8670  137.7980 C   0  0  0  0  0  0  0  0  0  0  0  0
  193.4080  172.2940  136.6680 O   0  0  0  0  0  0  0  0  0  0  0  0
  193.2280  172.6690  138.9250 O   0  0  0  0  0  1  0  0  0  0  0  0
  191.8170  170.0280  136.5700 C   0  0  2  0  0  3  0  0  0  0  0  0
  190.2810  170.0250  136.6440 C   0  0  1  0  0  3  0  0  0  0  0  0
  189.8470  169.8290  137.9510 O   0  0  0  0  0  1  0  0  0  0  0  0
  189.6730  171.3010  136.0810 C   0  0  0  0  0  2  0  0  0  0  0  0
  190.4230  171.7470  134.9830 O   0  0  0  0  0  1  0  0  0  0  0  0
  192.3430  168.6710  136.0880 C   0  0  0  0  0  2  0  0  0  0  0  0
  194.2850  168.1750  135.3160 O   0  0  0  0  0  1  0  0  0  0  0  0
  193.2060  168.8600  134.9990 O   0  0  0  0  0  0  0  0  0  0  0  0
  1 13  2  0  0  0  0
  2 18  1  0  0  0  0
  4  5  1  0  0  0  0
  5  9  1  0  0  0  0
  6  7  2  0  0  0  0
  7  9  1  0  0  0  0
  8 23  1  0  0  0  0
  8 19  1  0  0  0  0
 11  6  1  0  0  0  0
 11  4  1  1  0  0  0
 12 27  1  1  0  0  0
 12 14  1  0  0  0  0
 12 26  1  0  0  0  0
 13 24  2  0  0  0  0
 14 22  1  0  0  0  0
 15 17  2  0  0  0  0
 16  2  1  0  0  0  0
 17  6  1  0  0  0  0
 18 19  1  0  0  0  0
 19  3  2  0  0  0  0
 20 27  1  0  0  0  0
 20 10  1  0  0  0  0
 21 38  1  6  0  0  0
 21 16  1  0  0  0  0
 22 10  1  6  0  0  0
 22  1  1  0  0  0  0
 23 24  1  6  0  0  0
 23 11  1  0  0  0  0
 24 15  1  0  0  0  0
 25 21  1  0  0  0  0
 26 25  1  0  0  0  0
 29 32  1  0  0  0  0
 30 33  2  0  0  0  0
 31 29  2  0  0  0  0
 31 30  1  0  0  0  0
 32 28  2  0  0  0  0
 33 28  1  0  0  0  0
 33 15  1  0  0  0  0
 34 29  1  0  0  0  0
 34 35  1  0  0  0  0
 36 34  1  0  0  0  0
 38 37  1  1  0  0  0
 39 38  1  0  0  0  0
 40 39  1  0  0  0  0
 40 41  2  0  0  0  0
 42 43  1  1  0  0  0
 42 40  1  0  0  0  0
 44 45  1  6  0  0  0
 44 42  1  0  0  0  0
 45 47  1  0  0  0  0
 46 45  2  0  0  0  0
 48 53  1  1  0  0  0
 48 49  1  0  0  0  0
 48 44  1  0  0  0  0
 49 50  1  1  0  0  0
 51 49  1  0  0  0  0
 52 51  1  0  0  0  0
 55 54  1  0  0  0  0
 55 53  1  0  0  0  0
M  END
>  <MODEL>
9

>  <REMARK>
 VINA RESULT:      -5.6      3.552     11.079
  Name = 
  13 active torsions:
  status: ('A' for Active; 'I' for Inactive)
    1  A    between atoms: C_1  and  C_53
    2  A    between atoms: C_3  and  O_14
    3  A    between atoms: C_3  and  C_38
    4  A    between atoms: C_6  and  C_20
    5  A    between atoms: C_6  and  C_53
    6  A    between atoms: C_8  and  O_22
    7  A    between atoms: C_8  and  C_43
    8  A    between atoms: N_10  and  C_32
    9  A    between atoms: C_11  and  C_29
   10  A    between atoms: C_20  and  O_22
   11  A    between atoms: C_29  and  C_38
   12  A    between atoms: C_33  and  C_52
   13  A    between atoms: C_38  and  C_53
                            x       y       z     vdW  Elec       q    Type
                         _______ _______ _______ _____ _____    ______ ____

>  <TORSDO>
F 13

$$$$
