=
 OpenBabel11052420533D

 43 46  0  0  1  0  0  0  0  0999 V2000
  189.9480  174.9110  143.7040 C   0  0  1  0  0  3  0  0  0  0  0  0
  188.2750  178.3220  143.7660 C   0  0  0  0  0  3  0  0  0  0  0  0
  187.2130  178.1080  144.6490 C   0  0  0  0  0  0  0  0  0  0  0  0
  185.8810  176.5380  146.1410 C   0  0  0  0  0  2  0  0  0  0  0  0
  189.1540  177.2850  143.4480 C   0  0  0  0  0  0  0  0  0  0  0  0
  186.3480  179.2790  145.0260 C   0  0  0  0  0  2  0  0  0  0  0  0
  187.9150  175.8000  144.9070 C   0  0  0  0  0  3  0  0  0  0  0  0
  190.1980  177.5250  142.5610 O   0  0  0  0  0  1  0  0  0  0  0  0
  185.0330  178.8750  145.7010 C   0  0  2  0  0  3  0  0  0  0  0  0
  188.9860  176.0180  144.0280 C   0  0  0  0  0  0  0  0  0  0  0  0
  185.2840  177.8020  146.7590 C   0  0  0  0  0  2  0  0  0  0  0  0
  187.0420  176.8380  145.2390 C   0  0  0  0  0  0  0  0  0  0  0  0
  183.9920  178.4180  144.6850 C   0  0  0  0  0  2  0  0  0  0  0  0
  184.2860  179.0140  143.3220 C   0  0  0  0  0  2  0  0  0  0  0  0
  183.4810  178.2820  142.2680 C   0  0  0  0  0  2  0  0  0  0  0  0
  184.3750  178.2950  140.6890 S   0  0  0  0  0  0  0  0  0  0  0  0
  185.8070  177.4280  141.3900 C   0  0  0  0  0  2  0  0  0  0  0  0
  186.9440  177.4410  140.3920 C   0  0  0  0  0  1  0  0  0  0  0  0
  190.5970  174.3540  144.9420 C   0  0  0  0  0  0  0  0  0  0  0  0
  189.9420  173.7160  145.7550 O   0  0  0  0  0  0  0  0  0  0  0  0
  192.0390  174.6790  145.2160 C   0  0  1  0  0  3  0  0  0  0  0  0
  194.3170  174.0430  141.6110 C   0  0  0  0  0  0  0  0  0  0  0  0
  193.4230  173.1990  143.6990 C   0  0  0  0  0  0  0  0  0  0  0  0
  193.7680  175.2990  141.8790 C   0  0  0  0  0  3  0  0  0  0  0  0
  195.2220  173.7820  140.1360 Cl  0  0  0  0  0  0  0  0  0  0  0  0
  192.8640  174.4610  143.9740 C   0  0  0  0  0  0  0  0  0  0  0  0
  194.1450  172.9970  142.5200 C   0  0  0  0  0  3  0  0  0  0  0  0
  193.0430  175.5070  143.0540 C   0  0  0  0  0  3  0  0  0  0  0  0
  193.2400  171.8500  144.8090 Cl  0  0  0  0  0  0  0  0  0  0  0  0
  192.2380  176.0710  145.8520 C   0  0  0  0  0  3  0  0  0  0  0  0
  191.0850  176.4430  146.7780 C   0  0  0  0  0  2  0  0  0  0  0  0
  191.2930  175.8230  148.1460 C   0  0  0  0  0  1  0  0  0  0  0  0
  194.4970  177.2260  145.9870 C   0  0  0  0  0  1  0  0  0  0  0  0
  193.5680  176.1890  146.6020 C   0  0  0  0  0  2  0  0  0  0  0  0
  189.2940  173.8400  142.8340 C   0  0  0  0  0  2  0  0  0  0  0  0
  191.0870  173.4430  139.4580 C   0  0  0  0  0  2  0  0  0  0  0  0
  189.8750  173.2170  138.5470 C   0  0  1  0  0  0  0  0  0  0  0  0
  190.2000  173.6430  137.2730 F   0  0  0  0  0  0  0  0  0  0  0  0
  188.3630  173.7600  140.5090 C   0  0  0  0  0  2  0  0  0  0  0  0
  190.7530  173.1880  140.9280 C   0  0  0  0  0  2  0  0  0  0  0  0
  189.5910  174.0720  141.3600 C   0  0  2  0  0  3  0  0  0  0  0  0
  189.5300  171.7380  138.4820 C   0  0  0  0  0  1  0  0  0  0  0  0
  188.6690  174.0260  139.0350 C   0  0  0  0  0  2  0  0  0  0  0  0
  1 35  1  1  0  0  0
  1 10  1  0  0  0  0
  1 19  1  0  0  0  0
  2  3  1  0  0  0  0
  3  6  1  0  0  0  0
  3 12  2  0  0  0  0
  4 11  1  0  0  0  0
  5  2  2  0  0  0  0
  5 10  1  0  0  0  0
  6  9  1  0  0  0  0
  7 12  1  0  0  0  0
  8  5  1  0  0  0  0
  9 13  1  6  0  0  0
  9 11  1  0  0  0  0
 10  7  2  0  0  0  0
 12  4  1  0  0  0  0
 14 13  1  0  0  0  0
 15 14  1  0  0  0  0
 16 17  1  0  0  0  0
 16 15  1  0  0  0  0
 18 17  1  0  0  0  0
 19 20  2  0  0  0  0
 21 19  1  6  0  0  0
 21 30  1  0  0  0  0
 22 24  2  0  0  0  0
 22 27  1  0  0  0  0
 23 26  1  0  0  0  0
 23 29  1  0  0  0  0
 24 28  1  0  0  0  0
 25 22  1  0  0  0  0
 26 21  1  0  0  0  0
 27 23  2  0  0  0  0
 28 26  2  0  0  0  0
 30 34  1  0  0  0  0
 30 31  1  0  0  0  0
 31 32  1  0  0  0  0
 33 34  1  0  0  0  0
 36 40  1  0  0  0  0
 37 42  1  6  0  0  0
 37 43  1  0  0  0  0
 37 36  1  0  0  0  0
 38 37  1  0  0  0  0
 39 41  1  0  0  0  0
 40 41  1  0  0  0  0
 41 35  1  1  0  0  0
 43 39  1  0  0  0  0
M  END
>  <MODEL>
1

>  <REMARK>
 VINA RESULT:      -6.8      0.000      0.000
  Name = 
  14 active torsions:
  status: ('A' for Active; 'I' for Inactive)
    1  A    between atoms: C_1  and  C_34
    2  A    between atoms: C_1  and  C_35
    3  A    between atoms: C_2  and  C_27
    4  A    between atoms: C_8  and  C_30
    5  A    between atoms: C_8  and  C_34
    6  A    between atoms: C_11  and  C_22
    7  A    between atoms: C_11  and  C_36
    8  A    between atoms: C_13  and  C_27
    9  A    between atoms: C_21  and  C_30
   10  A    between atoms: C_26  and  S_31
   11  A    between atoms: C_27  and  C_30
   12  A    between atoms: C_29  and  S_31
   13  A    between atoms: C_29  and  C_36
   14  A    between atoms: C_34  and  C_38
                            x       y       z     vdW  Elec       q    Type
                         _______ _______ _______ _____ _____    ______ ____

>  <TORSDO>
F 14

$$$$
=
 OpenBabel11052420533D

 43 46  0  0  1  0  0  0  0  0999 V2000
  192.7650  174.3140  142.3070 C   0  0  1  0  0  3  0  0  0  0  0  0
  191.0350  177.1940  144.0810 C   0  0  0  0  0  3  0  0  0  0  0  0
  190.2920  176.5280  145.0600 C   0  0  0  0  0  0  0  0  0  0  0  0
  189.5320  174.3550  146.1370 C   0  0  0  0  0  2  0  0  0  0  0  0
  191.8260  176.4790  143.1800 C   0  0  0  0  0  0  0  0  0  0  0  0
  189.5260  177.3500  146.0590 C   0  0  0  0  0  2  0  0  0  0  0  0
  191.1410  174.4100  144.2370 C   0  0  0  0  0  3  0  0  0  0  0  0
  192.5500  177.1670  142.2130 O   0  0  0  0  0  1  0  0  0  0  0  0
  188.4880  176.5420  146.8470 C   0  0  2  0  0  3  0  0  0  0  0  0
  191.8930  175.0790  143.2610 C   0  0  0  0  0  0  0  0  0  0  0  0
  189.0880  175.2180  147.3180 C   0  0  0  0  0  2  0  0  0  0  0  0
  190.3600  175.1220  145.1490 C   0  0  0  0  0  0  0  0  0  0  0  0
  187.2150  176.3170  146.0390 C   0  0  0  0  0  2  0  0  0  0  0  0
  186.4320  177.6090  145.9150 C   0  0  0  0  0  2  0  0  0  0  0  0
  185.7490  177.6560  144.5630 C   0  0  0  0  0  2  0  0  0  0  0  0
  186.9840  177.9150  143.2570 S   0  0  0  0  0  0  0  0  0  0  0  0
  186.6430  176.3040  142.4920 C   0  0  0  0  0  2  0  0  0  0  0  0
  187.9290  175.5150  142.3830 C   0  0  0  0  0  1  0  0  0  0  0  0
  194.1380  174.0740  142.8740 C   0  0  0  0  0  0  0  0  0  0  0  0
  195.0310  173.6210  142.1710 O   0  0  0  0  0  0  0  0  0  0  0  0
  194.3680  174.3020  144.3420 C   0  0  1  0  0  3  0  0  0  0  0  0
  196.2430  170.8020  146.0230 C   0  0  0  0  0  0  0  0  0  0  0  0
  194.2650  171.9120  145.1710 C   0  0  0  0  0  0  0  0  0  0  0  0
  196.9880  171.9650  145.8210 C   0  0  0  0  0  3  0  0  0  0  0  0
  197.0120  169.3760  146.6850 Cl  0  0  0  0  0  0  0  0  0  0  0  0
  195.0110  173.0870  144.9600 C   0  0  0  0  0  0  0  0  0  0  0  0
  194.8850  170.7770  145.7000 C   0  0  0  0  0  3  0  0  0  0  0  0
  196.3760  173.1020  145.2890 C   0  0  0  0  0  3  0  0  0  0  0  0
  192.5530  171.8270  144.7840 Cl  0  0  0  0  0  0  0  0  0  0  0  0
  195.1180  175.6160  144.6430 C   0  0  0  0  0  3  0  0  0  0  0  0
  195.5370  176.3370  143.3660 C   0  0  0  0  0  2  0  0  0  0  0  0
  197.0500  176.3940  143.2710 C   0  0  0  0  0  1  0  0  0  0  0  0
  193.5720  175.8320  146.6480 C   0  0  0  0  0  1  0  0  0  0  0  0
  194.3080  176.5630  145.5340 C   0  0  0  0  0  2  0  0  0  0  0  0
  192.0800  173.0350  141.8290 C   0  0  0  0  0  2  0  0  0  0  0  0
  190.4180  173.5400  138.4010 C   0  0  0  0  0  2  0  0  0  0  0  0
  189.1630  172.6820  138.5930 C   0  0  1  0  0  0  0  0  0  0  0  0
  188.1660  173.1760  137.7750 F   0  0  0  0  0  0  0  0  0  0  0  0
  189.7880  172.4060  141.0350 C   0  0  0  0  0  2  0  0  0  0  0  0
  191.5100  173.1920  139.4130 C   0  0  0  0  0  2  0  0  0  0  0  0
  190.9750  173.3440  140.8310 C   0  0  2  0  0  3  0  0  0  0  0  0
  189.4390  171.2430  138.1930 C   0  0  0  0  0  1  0  0  0  0  0  0
  188.6760  172.7490  140.0450 C   0  0  0  0  0  2  0  0  0  0  0  0
  1 35  1  1  0  0  0
  1 19  1  0  0  0  0
  1 10  1  0  0  0  0
  2  3  1  0  0  0  0
  3 12  2  0  0  0  0
  3  6  1  0  0  0  0
  4 11  1  0  0  0  0
  5 10  1  0  0  0  0
  5  2  2  0  0  0  0
  6  9  1  0  0  0  0
  7 12  1  0  0  0  0
  8  5  1  0  0  0  0
  9 13  1  6  0  0  0
  9 11  1  0  0  0  0
 10  7  2  0  0  0  0
 12  4  1  0  0  0  0
 14 13  1  0  0  0  0
 15 14  1  0  0  0  0
 16 15  1  0  0  0  0
 17 16  1  0  0  0  0
 18 17  1  0  0  0  0
 20 19  2  0  0  0  0
 21 19  1  6  0  0  0
 21 30  1  0  0  0  0
 21 26  1  0  0  0  0
 22 25  1  0  0  0  0
 23 27  1  0  0  0  0
 24 22  1  0  0  0  0
 26 23  2  0  0  0  0
 26 28  1  0  0  0  0
 27 22  2  0  0  0  0
 28 24  2  0  0  0  0
 29 23  1  0  0  0  0
 30 34  1  0  0  0  0
 31 30  1  0  0  0  0
 32 31  1  0  0  0  0
 34 33  1  0  0  0  0
 36 37  1  0  0  0  0
 36 40  1  0  0  0  0
 37 42  1  6  0  0  0
 37 43  1  0  0  0  0
 38 37  1  0  0  0  0
 40 41  1  0  0  0  0
 41 39  1  0  0  0  0
 41 35  1  1  0  0  0
 43 39  1  0  0  0  0
M  END
>  <MODEL>
2

>  <REMARK>
 VINA RESULT:      -6.6      2.348      3.741
  Name = 
  14 active torsions:
  status: ('A' for Active; 'I' for Inactive)
    1  A    between atoms: C_1  and  C_34
    2  A    between atoms: C_1  and  C_35
    3  A    between atoms: C_2  and  C_27
    4  A    between atoms: C_8  and  C_30
    5  A    between atoms: C_8  and  C_34
    6  A    between atoms: C_11  and  C_22
    7  A    between atoms: C_11  and  C_36
    8  A    between atoms: C_13  and  C_27
    9  A    between atoms: C_21  and  C_30
   10  A    between atoms: C_26  and  S_31
   11  A    between atoms: C_27  and  C_30
   12  A    between atoms: C_29  and  S_31
   13  A    between atoms: C_29  and  C_36
   14  A    between atoms: C_34  and  C_38
                            x       y       z     vdW  Elec       q    Type
                         _______ _______ _______ _____ _____    ______ ____

>  <TORSDO>
F 14

$$$$
=
 OpenBabel11052420533D

 43 46  0  0  1  0  0  0  0  0999 V2000
  191.8960  174.3550  144.2720 C   0  0  1  0  0  3  0  0  0  0  0  0
  189.8100  177.5310  144.2520 C   0  0  0  0  0  3  0  0  0  0  0  0
  188.8420  177.2480  145.2190 C   0  0  0  0  0  0  0  0  0  0  0  0
  187.8160  175.6300  146.8900 C   0  0  0  0  0  2  0  0  0  0  0  0
  190.7920  176.5910  143.9340 C   0  0  0  0  0  0  0  0  0  0  0  0
  187.8600  178.3270  145.5860 C   0  0  0  0  0  2  0  0  0  0  0  0
  189.8460  175.0670  145.5610 C   0  0  0  0  0  3  0  0  0  0  0  0
  191.7400  176.8970  142.9640 O   0  0  0  0  0  1  0  0  0  0  0  0
  186.6520  177.8100  146.3740 C   0  0  2  0  0  3  0  0  0  0  0  0
  190.8230  175.3540  144.5980 C   0  0  0  0  0  0  0  0  0  0  0  0
  187.1020  176.8490  147.4730 C   0  0  0  0  0  2  0  0  0  0  0  0
  188.8710  176.0090  145.8920 C   0  0  0  0  0  0  0  0  0  0  0  0
  185.6160  177.1620  145.4620 C   0  0  0  0  0  2  0  0  0  0  0  0
  185.4260  177.9890  144.2060 C   0  0  0  0  0  2  0  0  0  0  0  0
  185.6630  177.1180  142.9890 C   0  0  0  0  0  2  0  0  0  0  0  0
  186.8200  177.9410  141.8580 S   0  0  0  0  0  0  0  0  0  0  0  0
  187.4970  176.3650  141.2620 C   0  0  0  0  0  2  0  0  0  0  0  0
  187.4510  175.3430  142.3770 C   0  0  0  0  0  1  0  0  0  0  0  0
  193.0410  174.4270  145.2460 C   0  0  0  0  0  0  0  0  0  0  0  0
  192.8450  174.7150  146.4180 O   0  0  0  0  0  0  0  0  0  0  0  0
  194.4420  174.2390  144.7340 C   0  0  1  0  0  3  0  0  0  0  0  0
  195.9690  170.4630  146.1500 C   0  0  0  0  0  0  0  0  0  0  0  0
  196.3320  172.7950  145.6040 C   0  0  0  0  0  0  0  0  0  0  0  0
  194.6360  170.5720  145.7460 C   0  0  0  0  0  3  0  0  0  0  0  0
  196.5790  168.9350  146.7450 Cl  0  0  0  0  0  0  0  0  0  0  0  0
  194.9900  172.9130  145.1980 C   0  0  0  0  0  0  0  0  0  0  0  0
  196.8130  171.5720  146.0770 C   0  0  0  0  0  3  0  0  0  0  0  0
  194.1470  171.7920  145.2740 C   0  0  0  0  0  3  0  0  0  0  0  0
  197.4390  174.1580  145.5290 Cl  0  0  0  0  0  0  0  0  0  0  0  0
  194.5690  174.4600  143.2130 C   0  0  0  0  0  3  0  0  0  0  0  0
  194.9960  175.8860  142.8800 C   0  0  0  0  0  2  0  0  0  0  0  0
  195.5000  176.5850  144.1280 C   0  0  0  0  0  1  0  0  0  0  0  0
  194.8550  172.6490  141.4540 C   0  0  0  0  0  1  0  0  0  0  0  0
  195.5250  173.4620  142.5520 C   0  0  0  0  0  2  0  0  0  0  0  0
  191.3210  172.9480  144.1230 C   0  0  0  0  0  2  0  0  0  0  0  0
  190.4080  170.9300  140.9820 C   0  0  0  0  0  2  0  0  0  0  0  0
  190.3310  172.0670  139.9570 C   0  0  1  0  0  0  0  0  0  0  0  0
  190.6120  171.5500  138.7080 F   0  0  0  0  0  0  0  0  0  0  0  0
  191.2480  173.6460  141.7170 C   0  0  0  0  0  2  0  0  0  0  0  0
  190.3100  171.4450  142.4180 C   0  0  0  0  0  2  0  0  0  0  0  0
  191.4040  172.4720  142.6800 C   0  0  2  0  0  3  0  0  0  0  0  0
  188.9310  172.6570  139.9260 C   0  0  0  0  0  1  0  0  0  0  0  0
  191.3620  173.1560  140.2740 C   0  0  0  0  0  2  0  0  0  0  0  0
  1 35  1  1  0  0  0
  1 10  1  0  0  0  0
  1 19  1  0  0  0  0
  2  3  1  0  0  0  0
  3  6  1  0  0  0  0
  3 12  2  0  0  0  0
  4 11  1  0  0  0  0
  5  2  2  0  0  0  0
  5 10  1  0  0  0  0
  6  9  1  0  0  0  0
  7 12  1  0  0  0  0
  8  5  1  0  0  0  0
  9 13  1  6  0  0  0
  9 11  1  0  0  0  0
 10  7  2  0  0  0  0
 12  4  1  0  0  0  0
 14 13  1  0  0  0  0
 15 14  1  0  0  0  0
 16 15  1  0  0  0  0
 17 16  1  0  0  0  0
 17 18  1  0  0  0  0
 19 20  2  0  0  0  0
 21 30  1  6  0  0  0
 21 26  1  0  0  0  0
 21 19  1  0  0  0  0
 22 25  1  0  0  0  0
 23 27  2  0  0  0  0
 24 22  2  0  0  0  0
 26 28  2  0  0  0  0
 26 23  1  0  0  0  0
 27 22  1  0  0  0  0
 28 24  1  0  0  0  0
 29 23  1  0  0  0  0
 31 30  1  0  0  0  0
 31 32  1  0  0  0  0
 33 34  1  0  0  0  0
 34 30  1  0  0  0  0
 36 40  1  0  0  0  0
 37 42  1  1  0  0  0
 37 43  1  0  0  0  0
 37 36  1  0  0  0  0
 38 37  1  0  0  0  0
 39 41  1  0  0  0  0
 40 41  1  0  0  0  0
 41 35  1  1  0  0  0
 43 39  1  0  0  0  0
M  END
>  <MODEL>
3

>  <REMARK>
 VINA RESULT:      -6.5      2.304      3.561
  Name = 
  14 active torsions:
  status: ('A' for Active; 'I' for Inactive)
    1  A    between atoms: C_1  and  C_34
    2  A    between atoms: C_1  and  C_35
    3  A    between atoms: C_2  and  C_27
    4  A    between atoms: C_8  and  C_30
    5  A    between atoms: C_8  and  C_34
    6  A    between atoms: C_11  and  C_22
    7  A    between atoms: C_11  and  C_36
    8  A    between atoms: C_13  and  C_27
    9  A    between atoms: C_21  and  C_30
   10  A    between atoms: C_26  and  S_31
   11  A    between atoms: C_27  and  C_30
   12  A    between atoms: C_29  and  S_31
   13  A    between atoms: C_29  and  C_36
   14  A    between atoms: C_34  and  C_38
                            x       y       z     vdW  Elec       q    Type
                         _______ _______ _______ _____ _____    ______ ____

>  <TORSDO>
F 14

$$$$
=
 OpenBabel11052420533D

 43 46  0  0  1  0  0  0  0  0999 V2000
  189.3860  175.4360  142.8850 C   0  0  1  0  0  3  0  0  0  0  0  0
  190.0190  172.0780  141.2210 C   0  0  0  0  0  3  0  0  0  0  0  0
  191.2680  172.2800  140.6280 C   0  0  0  0  0  0  0  0  0  0  0  0
  193.2280  173.8110  140.1050 C   0  0  0  0  0  2  0  0  0  0  0  0
  189.4010  173.1030  141.9410 C   0  0  0  0  0  0  0  0  0  0  0  0
  191.9280  171.1180  139.9380 C   0  0  0  0  0  2  0  0  0  0  0  0
  191.2900  174.5490  141.4850 C   0  0  0  0  0  3  0  0  0  0  0  0
  188.1550  172.8770  142.5150 O   0  0  0  0  0  1  0  0  0  0  0  0
  193.0990  171.5270  139.0380 C   0  0  2  0  0  3  0  0  0  0  0  0
  190.0410  174.3440  142.0880 C   0  0  0  0  0  0  0  0  0  0  0  0
  193.9950  172.5370  139.7530 C   0  0  0  0  0  2  0  0  0  0  0  0
  191.9180  173.5230  140.7760 C   0  0  0  0  0  0  0  0  0  0  0  0
  192.6190  172.0660  137.6950 C   0  0  0  0  0  2  0  0  0  0  0  0
  191.3330  171.3810  137.2790 C   0  0  0  0  0  2  0  0  0  0  0  0
  190.5980  172.2520  136.2800 C   0  0  0  0  0  2  0  0  0  0  0  0
  190.7340  173.9960  136.7650 S   0  0  0  0  0  0  0  0  0  0  0  0
  188.9400  174.1710  136.9710 C   0  0  0  0  0  2  0  0  0  0  0  0
  188.5660  173.8780  138.4080 C   0  0  0  0  0  1  0  0  0  0  0  0
  190.3970  176.2850  143.6070 C   0  0  0  0  0  0  0  0  0  0  0  0
  190.8540  177.2910  143.0810 O   0  0  0  0  0  0  0  0  0  0  0  0
  190.9140  175.8230  144.9400 C   0  0  1  0  0  3  0  0  0  0  0  0
  195.1560  175.1240  144.6190 C   0  0  0  0  0  0  0  0  0  0  0  0
  192.8930  174.2620  144.7050 C   0  0  0  0  0  0  0  0  0  0  0  0
  194.6710  176.4240  144.7770 C   0  0  0  0  0  3  0  0  0  0  0  0
  196.8770  174.8460  144.4660 Cl  0  0  0  0  0  0  0  0  0  0  0  0
  192.3980  175.5700  144.8610 C   0  0  0  0  0  0  0  0  0  0  0  0
  194.2690  174.0470  144.5850 C   0  0  0  0  0  3  0  0  0  0  0  0
  193.2980  176.6470  144.8950 C   0  0  0  0  0  3  0  0  0  0  0  0
  191.8210  172.8710  144.6590 Cl  0  0  0  0  0  0  0  0  0  0  0  0
  190.5080  176.7490  146.1050 C   0  0  0  0  0  3  0  0  0  0  0  0
  189.0380  177.1510  146.0250 C   0  0  0  0  0  2  0  0  0  0  0  0
  188.1640  176.0460  146.5870 C   0  0  0  0  0  1  0  0  0  0  0  0
  191.5630  177.0880  148.3910 C   0  0  0  0  0  1  0  0  0  0  0  0
  190.8070  176.1350  147.4760 C   0  0  0  0  0  2  0  0  0  0  0  0
  188.4200  176.2500  142.0260 C   0  0  0  0  0  2  0  0  0  0  0  0
  186.1860  179.2260  142.9880 C   0  0  0  0  0  2  0  0  0  0  0  0
  184.9570  178.4700  143.5030 C   0  0  1  0  0  0  0  0  0  0  0  0
  184.3070  179.2680  144.4250 F   0  0  0  0  0  0  0  0  0  0  0  0
  186.2670  176.3080  143.3060 C   0  0  0  0  0  2  0  0  0  0  0  0
  187.0780  178.3420  142.1140 C   0  0  0  0  0  2  0  0  0  0  0  0
  187.5030  177.1020  142.8900 C   0  0  2  0  0  3  0  0  0  0  0  0
  183.9960  178.1810  142.3610 C   0  0  0  0  0  1  0  0  0  0  0  0
  185.3700  177.1670  144.1960 C   0  0  0  0  0  2  0  0  0  0  0  0
  1 35  1  6  0  0  0
  1 19  1  0  0  0  0
  2  5  1  0  0  0  0
  3 12  1  0  0  0  0
  3  2  2  0  0  0  0
  4 12  1  0  0  0  0
  5 10  2  0  0  0  0
  5  8  1  0  0  0  0
  6  3  1  0  0  0  0
  7 10  1  0  0  0  0
  9 13  1  6  0  0  0
  9 11  1  0  0  0  0
  9  6  1  0  0  0  0
 10  1  1  0  0  0  0
 11  4  1  0  0  0  0
 12  7  2  0  0  0  0
 14 13  1  0  0  0  0
 15 16  1  0  0  0  0
 15 14  1  0  0  0  0
 16 17  1  0  0  0  0
 17 18  1  0  0  0  0
 20 19  2  0  0  0  0
 21 19  1  6  0  0  0
 21 30  1  0  0  0  0
 22 24  1  0  0  0  0
 23 26  2  0  0  0  0
 24 28  2  0  0  0  0
 25 22  1  0  0  0  0
 26 28  1  0  0  0  0
 26 21  1  0  0  0  0
 27 22  2  0  0  0  0
 27 23  1  0  0  0  0
 29 23  1  0  0  0  0
 30 34  1  0  0  0  0
 31 30  1  0  0  0  0
 31 32  1  0  0  0  0
 34 33  1  0  0  0  0
 36 37  1  0  0  0  0
 37 42  1  6  0  0  0
 37 43  1  0  0  0  0
 37 38  1  0  0  0  0
 39 43  1  0  0  0  0
 40 41  1  0  0  0  0
 40 36  1  0  0  0  0
 41 35  1  6  0  0  0
 41 39  1  0  0  0  0
M  END
>  <MODEL>
4

>  <REMARK>
 VINA RESULT:      -6.5      2.818      6.764
  Name = 
  14 active torsions:
  status: ('A' for Active; 'I' for Inactive)
    1  A    between atoms: C_1  and  C_34
    2  A    between atoms: C_1  and  C_35
    3  A    between atoms: C_2  and  C_27
    4  A    between atoms: C_8  and  C_30
    5  A    between atoms: C_8  and  C_34
    6  A    between atoms: C_11  and  C_22
    7  A    between atoms: C_11  and  C_36
    8  A    between atoms: C_13  and  C_27
    9  A    between atoms: C_21  and  C_30
   10  A    between atoms: C_26  and  S_31
   11  A    between atoms: C_27  and  C_30
   12  A    between atoms: C_29  and  S_31
   13  A    between atoms: C_29  and  C_36
   14  A    between atoms: C_34  and  C_38
                            x       y       z     vdW  Elec       q    Type
                         _______ _______ _______ _____ _____    ______ ____

>  <TORSDO>
F 14

$$$$
=
 OpenBabel11052420533D

 43 46  0  0  1  0  0  0  0  0999 V2000
  189.5910  175.2510  144.0150 C   0  0  1  0  0  3  0  0  0  0  0  0
  190.2670  171.6870  142.8820 C   0  0  0  0  0  3  0  0  0  0  0  0
  190.6410  171.8730  141.5490 C   0  0  0  0  0  0  0  0  0  0  0  0
  191.0120  173.4230  139.5690 C   0  0  0  0  0  2  0  0  0  0  0  0
  189.9130  172.7780  143.6790 C   0  0  0  0  0  0  0  0  0  0  0  0
  191.0950  170.6760  140.7600 C   0  0  0  0  0  2  0  0  0  0  0  0
  190.3140  174.2630  141.8080 C   0  0  0  0  0  3  0  0  0  0  0  0
  189.5380  172.5630  145.0010 O   0  0  0  0  0  1  0  0  0  0  0  0
  191.1410  170.9230  139.2480 C   0  0  2  0  0  3  0  0  0  0  0  0
  189.9470  174.0770  143.1480 C   0  0  0  0  0  0  0  0  0  0  0  0
  191.7970  172.2690  138.9460 C   0  0  0  0  0  2  0  0  0  0  0  0
  190.6810  173.1770  141.0110 C   0  0  0  0  0  0  0  0  0  0  0  0
  189.7570  170.8270  138.6160 C   0  0  0  0  0  2  0  0  0  0  0  0
  189.8300  170.0980  137.2890 C   0  0  0  0  0  2  0  0  0  0  0  0
  189.6000  171.0830  136.1610 C   0  0  0  0  0  2  0  0  0  0  0  0
  191.1420  171.3340  135.2370 S   0  0  0  0  0  0  0  0  0  0  0  0
  191.0550  173.1390  135.4070 C   0  0  0  0  0  2  0  0  0  0  0  0
  189.7080  173.5280  135.9760 C   0  0  0  0  0  1  0  0  0  0  0  0
  190.7650  176.1700  144.2210 C   0  0  0  0  0  0  0  0  0  0  0  0
  190.7440  177.3130  143.7870 O   0  0  0  0  0  0  0  0  0  0  0  0
  192.0030  175.6300  144.8790 C   0  0  1  0  0  3  0  0  0  0  0  0
  194.7380  174.2880  141.8280 C   0  0  0  0  0  0  0  0  0  0  0  0
  193.5340  173.8730  143.8890 C   0  0  0  0  0  0  0  0  0  0  0  0
  194.2000  175.5750  141.7680 C   0  0  0  0  0  3  0  0  0  0  0  0
  195.8300  173.7390  140.5750 Cl  0  0  0  0  0  0  0  0  0  0  0  0
  192.9860  175.1680  143.8330 C   0  0  0  0  0  0  0  0  0  0  0  0
  194.4060  173.4410  142.8870 C   0  0  0  0  0  3  0  0  0  0  0  0
  193.3260  176.0130  142.7640 C   0  0  0  0  0  3  0  0  0  0  0  0
  193.1540  172.7680  145.2010 Cl  0  0  0  0  0  0  0  0  0  0  0  0
  192.6140  176.5970  145.9140 C   0  0  0  0  0  3  0  0  0  0  0  0
  191.9020  176.5130  147.2600 C   0  0  0  0  0  2  0  0  0  0  0  0
  191.2890  175.1380  147.4410 C   0  0  0  0  0  1  0  0  0  0  0  0
  194.9350  177.6220  145.7770 C   0  0  0  0  0  1  0  0  0  0  0  0
  194.1180  176.3800  146.1050 C   0  0  0  0  0  2  0  0  0  0  0  0
  188.3480  175.9710  143.4960 C   0  0  0  0  0  2  0  0  0  0  0  0
  186.1630  178.8010  144.9050 C   0  0  0  0  0  2  0  0  0  0  0  0
  185.9630  178.2860  146.3350 C   0  0  1  0  0  0  0  0  0  0  0  0
  185.7430  179.3690  147.1640 F   0  0  0  0  0  0  0  0  0  0  0  0
  187.6420  176.4480  145.8530 C   0  0  0  0  0  2  0  0  0  0  0  0
  186.6100  177.6910  143.9540 C   0  0  0  0  0  2  0  0  0  0  0  0
  187.8900  177.0460  144.4700 C   0  0  2  0  0  3  0  0  0  0  0  0
  184.7460  177.3780  146.4050 C   0  0  0  0  0  1  0  0  0  0  0  0
  187.2110  177.5450  146.8260 C   0  0  0  0  0  2  0  0  0  0  0  0
  1 35  1  6  0  0  0
  1 19  1  0  0  0  0
  2  5  1  0  0  0  0
  3  2  2  0  0  0  0
  4 12  1  0  0  0  0
  5  8  1  0  0  0  0
  6  3  1  0  0  0  0
  7 10  1  0  0  0  0
  9 13  1  1  0  0  0
  9  6  1  0  0  0  0
 10  5  2  0  0  0  0
 10  1  1  0  0  0  0
 11  9  1  0  0  0  0
 11  4  1  0  0  0  0
 12  3  1  0  0  0  0
 12  7  2  0  0  0  0
 14 13  1  0  0  0  0
 15 14  1  0  0  0  0
 16 17  1  0  0  0  0
 16 15  1  0  0  0  0
 17 18  1  0  0  0  0
 20 19  2  0  0  0  0
 21 19  1  6  0  0  0
 21 30  1  0  0  0  0
 22 27  1  0  0  0  0
 23 29  1  0  0  0  0
 24 22  2  0  0  0  0
 24 28  1  0  0  0  0
 25 22  1  0  0  0  0
 26 23  1  0  0  0  0
 26 21  1  0  0  0  0
 27 23  2  0  0  0  0
 28 26  2  0  0  0  0
 30 34  1  0  0  0  0
 30 31  1  0  0  0  0
 31 32  1  0  0  0  0
 33 34  1  0  0  0  0
 36 37  1  0  0  0  0
 37 42  1  1  0  0  0
 37 43  1  0  0  0  0
 37 38  1  0  0  0  0
 39 43  1  0  0  0  0
 40 41  1  0  0  0  0
 40 36  1  0  0  0  0
 41 35  1  6  0  0  0
 41 39  1  0  0  0  0
M  END
>  <MODEL>
5

>  <REMARK>
 VINA RESULT:      -6.4      2.906      6.846
  Name = 
  14 active torsions:
  status: ('A' for Active; 'I' for Inactive)
    1  A    between atoms: C_1  and  C_34
    2  A    between atoms: C_1  and  C_35
    3  A    between atoms: C_2  and  C_27
    4  A    between atoms: C_8  and  C_30
    5  A    between atoms: C_8  and  C_34
    6  A    between atoms: C_11  and  C_22
    7  A    between atoms: C_11  and  C_36
    8  A    between atoms: C_13  and  C_27
    9  A    between atoms: C_21  and  C_30
   10  A    between atoms: C_26  and  S_31
   11  A    between atoms: C_27  and  C_30
   12  A    between atoms: C_29  and  S_31
   13  A    between atoms: C_29  and  C_36
   14  A    between atoms: C_34  and  C_38
                            x       y       z     vdW  Elec       q    Type
                         _______ _______ _______ _____ _____    ______ ____

>  <TORSDO>
F 14

$$$$
=
 OpenBabel11052420533D

 43 46  0  0  1  0  0  0  0  0999 V2000
  191.8140  172.2140  142.6770 C   0  0  1  0  0  3  0  0  0  0  0  0
  191.1020  175.9210  143.1130 C   0  0  0  0  0  3  0  0  0  0  0  0
  190.3990  175.9410  144.3210 C   0  0  0  0  0  0  0  0  0  0  0  0
  189.3540  174.6920  146.2730 C   0  0  0  0  0  2  0  0  0  0  0  0
  191.5490  174.7140  142.5710 C   0  0  0  0  0  0  0  0  0  0  0  0
  190.0160  177.2730  144.9040 C   0  0  0  0  0  2  0  0  0  0  0  0
  190.5970  173.5270  144.4560 C   0  0  0  0  0  3  0  0  0  0  0  0
  192.2400  174.7230  141.3650 O   0  0  0  0  0  1  0  0  0  0  0  0
  188.9670  177.1740  146.0170 C   0  0  2  0  0  3  0  0  0  0  0  0
  191.3090  173.5080  143.2480 C   0  0  0  0  0  0  0  0  0  0  0  0
  189.3200  176.0450  146.9840 C   0  0  0  0  0  2  0  0  0  0  0  0
  190.1600  174.7320  145.0080 C   0  0  0  0  0  0  0  0  0  0  0  0
  187.5600  177.0020  145.4550 C   0  0  0  0  0  2  0  0  0  0  0  0
  187.2350  178.1260  144.4910 C   0  0  0  0  0  2  0  0  0  0  0  0
  186.7220  177.5420  143.1900 C   0  0  0  0  0  2  0  0  0  0  0  0
  187.9670  177.7510  141.8860 S   0  0  0  0  0  0  0  0  0  0  0  0
  187.5810  176.1440  141.1360 C   0  0  0  0  0  2  0  0  0  0  0  0
  187.6490  175.0640  142.1930 C   0  0  0  0  0  1  0  0  0  0  0  0
  192.8180  171.5550  143.5840 C   0  0  0  0  0  0  0  0  0  0  0  0
  192.4610  170.7260  144.4090 O   0  0  0  0  0  0  0  0  0  0  0  0
  194.2510  172.0080  143.5320 C   0  0  1  0  0  3  0  0  0  0  0  0
  194.5620  175.8860  145.3890 C   0  0  0  0  0  0  0  0  0  0  0  0
  194.9770  174.4330  143.4960 C   0  0  0  0  0  0  0  0  0  0  0  0
  193.9830  174.8220  146.0840 C   0  0  0  0  0  3  0  0  0  0  0  0
  194.6670  177.4640  146.1380 Cl  0  0  0  0  0  0  0  0  0  0  0  0
  194.3920  173.3570  144.1890 C   0  0  0  0  0  0  0  0  0  0  0  0
  195.0580  175.6900  144.0990 C   0  0  0  0  0  3  0  0  0  0  0  0
  193.8960  173.5630  145.4870 C   0  0  0  0  0  3  0  0  0  0  0  0
  195.6200  174.2400  141.8720 Cl  0  0  0  0  0  0  0  0  0  0  0  0
  195.2410  170.9530  144.0680 C   0  0  0  0  0  3  0  0  0  0  0  0
  195.5980  169.9170  143.0070 C   0  0  0  0  0  2  0  0  0  0  0  0
  195.7180  170.5810  141.6480 C   0  0  0  0  0  1  0  0  0  0  0  0
  196.8060  171.1390  146.0610 C   0  0  0  0  0  1  0  0  0  0  0  0
  196.5190  171.5820  144.6330 C   0  0  0  0  0  2  0  0  0  0  0  0
  190.6620  171.2910  142.2840 C   0  0  0  0  0  2  0  0  0  0  0  0
  189.3910  172.1350  138.7570 C   0  0  0  0  0  2  0  0  0  0  0  0
  190.7300  172.2430  138.0180 C   0  0  1  0  0  0  0  0  0  0  0  0
  190.5200  171.9430  136.6860 F   0  0  0  0  0  0  0  0  0  0  0  0
  191.8890  171.3770  140.1010 C   0  0  0  0  0  2  0  0  0  0  0  0
  189.5620  172.2530  140.2720 C   0  0  0  0  0  2  0  0  0  0  0  0
  190.5310  171.1900  140.7720 C   0  0  2  0  0  3  0  0  0  0  0  0
  191.2730  173.6590  138.1090 C   0  0  0  0  0  1  0  0  0  0  0  0
  191.7450  171.2440  138.5860 C   0  0  0  0  0  2  0  0  0  0  0  0
  1 35  1  1  0  0  0
  1 10  1  0  0  0  0
  1 19  1  0  0  0  0
  2  3  1  0  0  0  0
  3  6  1  0  0  0  0
  3 12  2  0  0  0  0
  4 11  1  0  0  0  0
  5  2  2  0  0  0  0
  5 10  1  0  0  0  0
  6  9  1  0  0  0  0
  7 12  1  0  0  0  0
  8  5  1  0  0  0  0
  9 13  1  6  0  0  0
  9 11  1  0  0  0  0
 10  7  2  0  0  0  0
 12  4  1  0  0  0  0
 14 13  1  0  0  0  0
 15 14  1  0  0  0  0
 16 15  1  0  0  0  0
 17 16  1  0  0  0  0
 17 18  1  0  0  0  0
 19 20  2  0  0  0  0
 21 19  1  1  0  0  0
 21 30  1  0  0  0  0
 21 26  1  0  0  0  0
 22 24  1  0  0  0  0
 22 25  1  0  0  0  0
 23 27  1  0  0  0  0
 23 26  2  0  0  0  0
 26 28  1  0  0  0  0
 27 22  2  0  0  0  0
 28 24  2  0  0  0  0
 29 23  1  0  0  0  0
 30 34  1  0  0  0  0
 31 30  1  0  0  0  0
 32 31  1  0  0  0  0
 34 33  1  0  0  0  0
 36 40  1  0  0  0  0
 37 42  1  1  0  0  0
 37 43  1  0  0  0  0
 37 36  1  0  0  0  0
 38 37  1  0  0  0  0
 39 41  1  0  0  0  0
 40 41  1  0  0  0  0
 41 35  1  1  0  0  0
 43 39  1  0  0  0  0
M  END
>  <MODEL>
6

>  <REMARK>
 VINA RESULT:      -6.4      2.365      4.259
  Name = 
  14 active torsions:
  status: ('A' for Active; 'I' for Inactive)
    1  A    between atoms: C_1  and  C_34
    2  A    between atoms: C_1  and  C_35
    3  A    between atoms: C_2  and  C_27
    4  A    between atoms: C_8  and  C_30
    5  A    between atoms: C_8  and  C_34
    6  A    between atoms: C_11  and  C_22
    7  A    between atoms: C_11  and  C_36
    8  A    between atoms: C_13  and  C_27
    9  A    between atoms: C_21  and  C_30
   10  A    between atoms: C_26  and  S_31
   11  A    between atoms: C_27  and  C_30
   12  A    between atoms: C_29  and  S_31
   13  A    between atoms: C_29  and  C_36
   14  A    between atoms: C_34  and  C_38
                            x       y       z     vdW  Elec       q    Type
                         _______ _______ _______ _____ _____    ______ ____

>  <TORSDO>
F 14

$$$$
=
 OpenBabel11052420533D

 43 46  0  0  1  0  0  0  0  0999 V2000
  190.6490  174.0740  143.6970 C   0  0  1  0  0  3  0  0  0  0  0  0
  193.3250  171.5550  144.6640 C   0  0  0  0  0  3  0  0  0  0  0  0
  194.3900  172.3860  145.0210 C   0  0  0  0  0  0  0  0  0  0  0  0
  195.3670  174.7200  145.2620 C   0  0  0  0  0  2  0  0  0  0  0  0
  192.1170  172.0980  144.2210 C   0  0  0  0  0  0  0  0  0  0  0  0
  195.6380  171.7530  145.5720 C   0  0  0  0  0  2  0  0  0  0  0  0
  193.0300  174.3250  144.4980 C   0  0  0  0  0  3  0  0  0  0  0  0
  191.0760  171.2470  143.8670 O   0  0  0  0  0  1  0  0  0  0  0  0
  196.8430  172.6990  145.5970 C   0  0  2  0  0  3  0  0  0  0  0  0
  191.9580  173.4910  144.1480 C   0  0  0  0  0  0  0  0  0  0  0  0
  196.4360  174.0680  146.1390 C   0  0  0  0  0  2  0  0  0  0  0  0
  194.2340  173.7860  144.9530 C   0  0  0  0  0  0  0  0  0  0  0  0
  197.4970  172.8190  144.2250 C   0  0  0  0  0  2  0  0  0  0  0  0
  197.6860  171.4480  143.6070 C   0  0  0  0  0  2  0  0  0  0  0  0
  197.7600  171.5800  142.1000 C   0  0  0  0  0  2  0  0  0  0  0  0
  197.6080  173.3260  141.6250 S   0  0  0  0  0  0  0  0  0  0  0  0
  196.1740  173.0040  140.5600 C   0  0  0  0  0  2  0  0  0  0  0  0
  194.9410  172.8190  141.4160 C   0  0  0  0  0  1  0  0  0  0  0  0
  189.9110  174.7330  144.8300 C   0  0  0  0  0  0  0  0  0  0  0  0
  189.3820  174.0610  145.7040 O   0  0  0  0  0  0  0  0  0  0  0  0
  189.7440  176.2270  144.8160 C   0  0  1  0  0  3  0  0  0  0  0  0
  185.7150  177.1880  146.0140 C   0  0  0  0  0  0  0  0  0  0  0  0
  187.3240  176.7240  144.2630 C   0  0  0  0  0  0  0  0  0  0  0  0
  186.7210  177.0660  146.9750 C   0  0  0  0  0  3  0  0  0  0  0  0
  184.0760  177.5560  146.5050 Cl  0  0  0  0  0  0  0  0  0  0  0  0
  188.3420  176.5960  145.2270 C   0  0  0  0  0  0  0  0  0  0  0  0
  186.0180  177.0180  144.6620 C   0  0  0  0  0  3  0  0  0  0  0  0
  188.0280  176.7690  146.5850 C   0  0  0  0  0  3  0  0  0  0  0  0
  187.6510  176.5230  142.5480 Cl  0  0  0  0  0  0  0  0  0  0  0  0
  190.8350  176.9690  145.6160 C   0  0  0  0  0  3  0  0  0  0  0  0
  191.5550  176.0410  146.5900 C   0  0  0  0  0  2  0  0  0  0  0  0
  191.4500  176.5840  148.0020 C   0  0  0  0  0  1  0  0  0  0  0  0
  191.2120  178.3030  143.4880 C   0  0  0  0  0  1  0  0  0  0  0  0
  191.8550  177.6660  144.7110 C   0  0  0  0  0  2  0  0  0  0  0  0
  190.8330  174.9870  142.4870 C   0  0  0  0  0  2  0  0  0  0  0  0
  190.9770  173.0590  139.1650 C   0  0  0  0  0  2  0  0  0  0  0  0
  189.8760  172.0230  139.4200 C   0  0  1  0  0  0  0  0  0  0  0  0
  189.3500  171.6360  138.2020 F   0  0  0  0  0  0  0  0  0  0  0  0
  189.2780  173.2580  141.5520 C   0  0  0  0  0  2  0  0  0  0  0  0
  191.4780  173.6920  140.4630 C   0  0  0  0  0  2  0  0  0  0  0  0
  190.3170  174.3260  141.2170 C   0  0  2  0  0  3  0  0  0  0  0  0
  190.4530  170.7940  140.1020 C   0  0  0  0  0  1  0  0  0  0  0  0
  188.7490  172.6240  140.2660 C   0  0  0  0  0  2  0  0  0  0  0  0
  1 35  1  6  0  0  0
  1 10  1  0  0  0  0
  1 19  1  0  0  0  0
  2  3  1  0  0  0  0
  3  6  1  0  0  0  0
  4 11  1  0  0  0  0
  5  2  2  0  0  0  0
  6  9  1  0  0  0  0
  7 12  1  0  0  0  0
  8  5  1  0  0  0  0
  9 13  1  6  0  0  0
  9 11  1  0  0  0  0
 10  5  1  0  0  0  0
 10  7  2  0  0  0  0
 12  3  2  0  0  0  0
 12  4  1  0  0  0  0
 14 13  1  0  0  0  0
 15 14  1  0  0  0  0
 16 15  1  0  0  0  0
 17 18  1  0  0  0  0
 17 16  1  0  0  0  0
 19 20  2  0  0  0  0
 21 19  1  1  0  0  0
 21 26  1  0  0  0  0
 21 30  1  0  0  0  0
 22 25  1  0  0  0  0
 22 24  1  0  0  0  0
 23 27  1  0  0  0  0
 23 26  2  0  0  0  0
 26 28  1  0  0  0  0
 27 22  2  0  0  0  0
 28 24  2  0  0  0  0
 29 23  1  0  0  0  0
 30 31  1  0  0  0  0
 31 32  1  0  0  0  0
 33 34  1  0  0  0  0
 34 30  1  0  0  0  0
 36 37  1  0  0  0  0
 36 40  1  0  0  0  0
 37 42  1  1  0  0  0
 37 43  1  0  0  0  0
 38 37  1  0  0  0  0
 40 41  1  0  0  0  0
 41 39  1  0  0  0  0
 41 35  1  1  0  0  0
 43 39  1  0  0  0  0
M  END
>  <MODEL>
7

>  <REMARK>
 VINA RESULT:      -6.4      3.559      7.915
  Name = 
  14 active torsions:
  status: ('A' for Active; 'I' for Inactive)
    1  A    between atoms: C_1  and  C_34
    2  A    between atoms: C_1  and  C_35
    3  A    between atoms: C_2  and  C_27
    4  A    between atoms: C_8  and  C_30
    5  A    between atoms: C_8  and  C_34
    6  A    between atoms: C_11  and  C_22
    7  A    between atoms: C_11  and  C_36
    8  A    between atoms: C_13  and  C_27
    9  A    between atoms: C_21  and  C_30
   10  A    between atoms: C_26  and  S_31
   11  A    between atoms: C_27  and  C_30
   12  A    between atoms: C_29  and  S_31
   13  A    between atoms: C_29  and  C_36
   14  A    between atoms: C_34  and  C_38
                            x       y       z     vdW  Elec       q    Type
                         _______ _______ _______ _____ _____    ______ ____

>  <TORSDO>
F 14

$$$$
=
 OpenBabel11052420533D

 43 46  0  0  1  0  0  0  0  0999 V2000
  191.4410  173.3720  142.9130 C   0  0  1  0  0  3  0  0  0  0  0  0
  187.8410  174.4260  142.3090 C   0  0  0  0  0  3  0  0  0  0  0  0
  187.9490  175.8180  142.2660 C   0  0  0  0  0  0  0  0  0  0  0  0
  189.3730  177.9160  142.4580 C   0  0  0  0  0  2  0  0  0  0  0  0
  188.9680  173.6320  142.5320 C   0  0  0  0  0  0  0  0  0  0  0  0
  186.7210  176.6220  141.9370 C   0  0  0  0  0  2  0  0  0  0  0  0
  190.3350  175.6270  142.6660 C   0  0  0  0  0  3  0  0  0  0  0  0
  188.8290  172.2490  142.5760 O   0  0  0  0  0  1  0  0  0  0  0  0
  186.8640  178.1140  142.2580 C   0  0  2  0  0  3  0  0  0  0  0  0
  190.2270  174.2300  142.7000 C   0  0  0  0  0  0  0  0  0  0  0  0
  188.2140  178.6380  141.7720 C   0  0  0  0  0  2  0  0  0  0  0  0
  189.2130  176.4240  142.4290 C   0  0  0  0  0  0  0  0  0  0  0  0
  186.6630  178.3950  143.7430 C   0  0  0  0  0  2  0  0  0  0  0  0
  185.4500  179.2790  143.9550 C   0  0  0  0  0  2  0  0  0  0  0  0
  184.8920  179.0440  145.3440 C   0  0  0  0  0  2  0  0  0  0  0  0
  185.3190  177.3720  145.9060 S   0  0  0  0  0  0  0  0  0  0  0  0
  185.5660  177.9150  147.6200 C   0  0  0  0  0  2  0  0  0  0  0  0
  185.9500  179.3780  147.6360 C   0  0  0  0  0  1  0  0  0  0  0  0
  191.5140  172.8470  144.3220 C   0  0  0  0  0  0  0  0  0  0  0  0
  190.9890  171.7830  144.6170 O   0  0  0  0  0  0  0  0  0  0  0  0
  192.1540  173.6990  145.3820 C   0  0  1  0  0  3  0  0  0  0  0  0
  195.8470  175.3020  143.8390 C   0  0  0  0  0  0  0  0  0  0  0  0
  194.6470  173.5300  144.9750 C   0  0  0  0  0  0  0  0  0  0  0  0
  194.6670  176.0430  143.7400 C   0  0  0  0  0  3  0  0  0  0  0  0
  197.3390  175.9470  143.1920 Cl  0  0  0  0  0  0  0  0  0  0  0  0
  193.4540  174.2690  144.8750 C   0  0  0  0  0  0  0  0  0  0  0  0
  195.8350  174.0500  144.4560 C   0  0  0  0  0  3  0  0  0  0  0  0
  193.4740  175.5280  144.2530 C   0  0  0  0  0  3  0  0  0  0  0  0
  194.6900  171.9510  145.7440 Cl  0  0  0  0  0  0  0  0  0  0  0  0
  191.2000  174.7610  145.9660 C   0  0  0  0  0  3  0  0  0  0  0  0
  189.7710  174.2400  146.0830 C   0  0  0  0  0  2  0  0  0  0  0  0
  188.7890  175.3950  146.0410 C   0  0  0  0  0  1  0  0  0  0  0  0
  191.9490  176.7900  147.3000 C   0  0  0  0  0  1  0  0  0  0  0  0
  191.6740  175.2940  147.3220 C   0  0  0  0  0  2  0  0  0  0  0  0
  191.5420  172.2750  141.8560 C   0  0  0  0  0  2  0  0  0  0  0  0
  193.2540  174.0660  138.9180 C   0  0  0  0  0  2  0  0  0  0  0  0
  194.6210  174.3510  139.5500 C   0  0  1  0  0  0  0  0  0  0  0  0
  195.5610  174.4290  138.5410 F   0  0  0  0  0  0  0  0  0  0  0  0
  193.9380  172.9340  141.5400 C   0  0  0  0  0  2  0  0  0  0  0  0
  192.1870  173.7640  139.9720 C   0  0  0  0  0  2  0  0  0  0  0  0
  192.6270  172.5910  140.8380 C   0  0  2  0  0  3  0  0  0  0  0  0
  194.5970  175.6810  140.2840 C   0  0  0  0  0  1  0  0  0  0  0  0
  195.0250  173.2210  140.5040 C   0  0  0  0  0  2  0  0  0  0  0  0
  1 35  1  6  0  0  0
  1 19  1  0  0  0  0
  2  5  1  0  0  0  0
  3  2  2  0  0  0  0
  3 12  1  0  0  0  0
  5  8  1  0  0  0  0
  5 10  2  0  0  0  0
  6  9  1  0  0  0  0
  6  3  1  0  0  0  0
  7 10  1  0  0  0  0
  9 13  1  1  0  0  0
 10  1  1  0  0  0  0
 11  9  1  0  0  0  0
 11  4  1  0  0  0  0
 12  4  1  0  0  0  0
 12  7  2  0  0  0  0
 13 14  1  0  0  0  0
 14 15  1  0  0  0  0
 15 16  1  0  0  0  0
 16 17  1  0  0  0  0
 17 18  1  0  0  0  0
 19 20  2  0  0  0  0
 21 19  1  6  0  0  0
 21 30  1  0  0  0  0
 22 27  1  0  0  0  0
 23 29  1  0  0  0  0
 24 22  2  0  0  0  0
 24 28  1  0  0  0  0
 25 22  1  0  0  0  0
 26 23  1  0  0  0  0
 26 21  1  0  0  0  0
 27 23  2  0  0  0  0
 28 26  2  0  0  0  0
 30 31  1  0  0  0  0
 30 34  1  0  0  0  0
 32 31  1  0  0  0  0
 33 34  1  0  0  0  0
 36 37  1  0  0  0  0
 36 40  1  0  0  0  0
 37 42  1  1  0  0  0
 37 43  1  0  0  0  0
 38 37  1  0  0  0  0
 40 41  1  0  0  0  0
 41 39  1  0  0  0  0
 41 35  1  1  0  0  0
 43 39  1  0  0  0  0
M  END
>  <MODEL>
8

>  <REMARK>
 VINA RESULT:      -6.3      2.304      3.884
  Name = 
  14 active torsions:
  status: ('A' for Active; 'I' for Inactive)
    1  A    between atoms: C_1  and  C_34
    2  A    between atoms: C_1  and  C_35
    3  A    between atoms: C_2  and  C_27
    4  A    between atoms: C_8  and  C_30
    5  A    between atoms: C_8  and  C_34
    6  A    between atoms: C_11  and  C_22
    7  A    between atoms: C_11  and  C_36
    8  A    between atoms: C_13  and  C_27
    9  A    between atoms: C_21  and  C_30
   10  A    between atoms: C_26  and  S_31
   11  A    between atoms: C_27  and  C_30
   12  A    between atoms: C_29  and  S_31
   13  A    between atoms: C_29  and  C_36
   14  A    between atoms: C_34  and  C_38
                            x       y       z     vdW  Elec       q    Type
                         _______ _______ _______ _____ _____    ______ ____

>  <TORSDO>
F 14

$$$$
=
 OpenBabel11052420533D

 43 46  0  0  1  0  0  0  0  0999 V2000
  193.0110  174.2440  143.7250 C   0  0  1  0  0  3  0  0  0  0  0  0
  189.2270  174.1790  143.3860 C   0  0  0  0  0  3  0  0  0  0  0  0
  188.9380  175.5170  143.1060 C   0  0  0  0  0  0  0  0  0  0  0  0
  189.7260  177.9130  142.7860 C   0  0  0  0  0  2  0  0  0  0  0  0
  190.5430  173.7660  143.6010 C   0  0  0  0  0  0  0  0  0  0  0  0
  187.5140  175.8920  142.7980 C   0  0  0  0  0  2  0  0  0  0  0  0
  191.3020  176.0400  143.2470 C   0  0  0  0  0  3  0  0  0  0  0  0
  190.8010  172.4300  143.8840 O   0  0  0  0  0  1  0  0  0  0  0  0
  187.2550  177.4020  142.8540 C   0  0  2  0  0  3  0  0  0  0  0  0
  191.5930  174.6950  143.5200 C   0  0  0  0  0  0  0  0  0  0  0  0
  188.3670  178.1620  142.1340 C   0  0  0  0  0  2  0  0  0  0  0  0
  189.9890  176.4540  143.0190 C   0  0  0  0  0  0  0  0  0  0  0  0
  187.0860  177.8940  144.2870 C   0  0  0  0  0  2  0  0  0  0  0  0
  186.1340  176.9930  145.0480 C   0  0  0  0  0  2  0  0  0  0  0  0
  186.6470  176.7940  146.4600 C   0  0  0  0  0  2  0  0  0  0  0  0
  188.4270  177.1470  146.5240 S   0  0  0  0  0  0  0  0  0  0  0  0
  188.8470  175.4180  146.8820 C   0  0  0  0  0  2  0  0  0  0  0  0
  190.3480  175.2780  147.0060 C   0  0  0  0  0  1  0  0  0  0  0  0
  193.8820  174.5840  142.5460 C   0  0  0  0  0  0  0  0  0  0  0  0
  194.1880  175.7450  142.3120 O   0  0  0  0  0  0  0  0  0  0  0  0
  194.2870  173.4870  141.6010 C   0  0  1  0  0  3  0  0  0  0  0  0
  190.7860  172.0840  139.5130 C   0  0  0  0  0  0  0  0  0  0  0  0
  192.6560  171.6490  140.9900 C   0  0  0  0  0  0  0  0  0  0  0  0
  191.2050  173.4070  139.3640 C   0  0  0  0  0  3  0  0  0  0  0  0
  189.3510  171.5230  138.6820 Cl  0  0  0  0  0  0  0  0  0  0  0  0
  193.0830  172.9820  140.8470 C   0  0  0  0  0  0  0  0  0  0  0  0
  191.5110  171.2080  140.3230 C   0  0  0  0  0  3  0  0  0  0  0  0
  192.3480  173.8560  140.0300 C   0  0  0  0  0  3  0  0  0  0  0  0
  193.5330  170.5050  141.9940 Cl  0  0  0  0  0  0  0  0  0  0  0  0
  195.4680  173.8750  140.6880 C   0  0  0  0  0  3  0  0  0  0  0  0
  196.7950  173.8710  141.4420 C   0  0  0  0  0  2  0  0  0  0  0  0
  197.5220  175.1840  141.2250 C   0  0  0  0  0  1  0  0  0  0  0  0
  196.5280  171.8150  139.6460 C   0  0  0  0  0  1  0  0  0  0  0  0
  195.5710  172.9810  139.4490 C   0  0  0  0  0  2  0  0  0  0  0  0
  193.5710  174.7510  145.0520 C   0  0  0  0  0  2  0  0  0  0  0  0
  194.9890  171.2650  145.8300 C   0  0  0  0  0  2  0  0  0  0  0  0
  196.4860  171.5550  145.6780 C   0  0  1  0  0  0  0  0  0  0  0  0
  197.1870  170.6650  146.4690 F   0  0  0  0  0  0  0  0  0  0  0  0
  195.9330  174.0200  145.4550 C   0  0  0  0  0  2  0  0  0  0  0  0
  194.1270  172.3290  145.1490 C   0  0  0  0  0  2  0  0  0  0  0  0
  194.4610  173.7060  145.7080 C   0  0  2  0  0  3  0  0  0  0  0  0
  196.9200  171.3560  144.2360 C   0  0  0  0  0  1  0  0  0  0  0  0
  196.8140  172.9780  146.1440 C   0  0  0  0  0  2  0  0  0  0  0  0
  1 35  1  1  0  0  0
  2  5  1  0  0  0  0
  3  2  2  0  0  0  0
  4 12  1  0  0  0  0
  5  8  1  0  0  0  0
  6  9  1  0  0  0  0
  6  3  1  0  0  0  0
  7 10  1  0  0  0  0
  9 13  1  1  0  0  0
 10  5  2  0  0  0  0
 10  1  1  0  0  0  0
 11  4  1  0  0  0  0
 11  9  1  0  0  0  0
 12  3  1  0  0  0  0
 12  7  2  0  0  0  0
 13 14  1  0  0  0  0
 14 15  1  0  0  0  0
 15 16  1  0  0  0  0
 16 17  1  0  0  0  0
 17 18  1  0  0  0  0
 19  1  1  0  0  0  0
 20 19  2  0  0  0  0
 21 30  1  6  0  0  0
 21 19  1  0  0  0  0
 22 27  1  0  0  0  0
 23 29  1  0  0  0  0
 24 22  2  0  0  0  0
 24 28  1  0  0  0  0
 25 22  1  0  0  0  0
 26 23  1  0  0  0  0
 26 21  1  0  0  0  0
 27 23  2  0  0  0  0
 28 26  2  0  0  0  0
 30 31  1  0  0  0  0
 32 31  1  0  0  0  0
 34 33  1  0  0  0  0
 34 30  1  0  0  0  0
 37 42  1  6  0  0  0
 37 36  1  0  0  0  0
 37 43  1  0  0  0  0
 37 38  1  0  0  0  0
 39 41  1  0  0  0  0
 39 43  1  0  0  0  0
 40 41  1  0  0  0  0
 40 36  1  0  0  0  0
 41 35  1  6  0  0  0
M  END
>  <MODEL>
9

>  <REMARK>
 VINA RESULT:      -6.3      3.193      6.186
  Name = 
  14 active torsions:
  status: ('A' for Active; 'I' for Inactive)
    1  A    between atoms: C_1  and  C_34
    2  A    between atoms: C_1  and  C_35
    3  A    between atoms: C_2  and  C_27
    4  A    between atoms: C_8  and  C_30
    5  A    between atoms: C_8  and  C_34
    6  A    between atoms: C_11  and  C_22
    7  A    between atoms: C_11  and  C_36
    8  A    between atoms: C_13  and  C_27
    9  A    between atoms: C_21  and  C_30
   10  A    between atoms: C_26  and  S_31
   11  A    between atoms: C_27  and  C_30
   12  A    between atoms: C_29  and  S_31
   13  A    between atoms: C_29  and  C_36
   14  A    between atoms: C_34  and  C_38
                            x       y       z     vdW  Elec       q    Type
                         _______ _______ _______ _____ _____    ______ ____

>  <TORSDO>
F 14

$$$$
