=
 OpenBabel11052418523D

 34 37  0  0  1  0  0  0  0  0999 V2000
  186.0370  177.3530  146.2210 C   0  0  2  0  0  3  0  0  0  0  0  0
  185.4580  178.3140  142.6260 C   0  0  0  0  0  2  0  0  0  0  0  0
  187.0760  176.5900  143.2290 N   0  0  0  0  0  0  0  0  0  0  0  0
  189.0830  175.4560  142.2180 C   0  0  0  0  0  0  0  0  0  0  0  0
  184.1840  178.6360  145.5840 C   0  0  0  0  0  2  0  0  0  0  0  0
  184.5500  179.5320  144.4110 C   0  0  0  0  0  2  0  0  0  0  0  0
  187.1290  175.9410  140.9750 O   0  0  0  0  0  0  0  0  0  0  0  0
  185.6510  176.8970  143.1400 C   0  0  0  0  0  2  0  0  0  0  0  0
  185.2930  178.5660  146.5220 N   0  0  0  0  0  2  0  0  0  0  0  0
  187.7180  176.5210  144.5570 C   0  0  1  0  0  3  0  0  0  0  0  0
  186.3960  176.7160  147.4080 O   0  0  0  0  0  1  0  0  0  0  0  0
  184.2220  178.8670  143.1590 N   0  0  0  0  0  2  0  0  0  0  0  0
  189.7680  175.6530  143.3430 C   0  0  0  0  0  3  0  0  0  0  0  0
  189.2540  176.5310  144.4460 C   0  0  2  0  0  3  0  0  0  0  0  0
  187.7260  176.0070  142.0840 C   0  0  0  0  0  0  0  0  0  0  0  0
  187.2890  177.7000  145.4320 C   0  0  0  0  0  2  0  0  0  0  0  0
  191.4870  176.6000  147.5290 C   0  0  0  0  0  0  0  0  0  0  0  0
  191.0970  175.4190  148.1690 C   0  0  0  0  0  3  0  0  0  0  0  0
  189.9060  176.1530  145.7420 C   0  0  0  0  0  0  0  0  0  0  0  0
  190.1130  174.6060  147.5980 C   0  0  0  0  0  3  0  0  0  0  0  0
  190.8940  176.9670  146.3180 C   0  0  0  0  0  3  0  0  0  0  0  0
  189.5180  174.9730  146.3870 C   0  0  0  0  0  3  0  0  0  0  0  0
  192.4400  177.3870  148.0830 F   0  0  0  0  0  0  0  0  0  0  0  0
  189.6570  174.5600  141.1730 C   0  0  0  0  0  2  0  0  0  0  0  0
  190.6590  173.6190  141.8130 C   0  0  0  0  0  2  0  0  0  0  0  0
  191.9870  173.7140  141.0910 C   0  0  0  0  0  2  0  0  0  0  0  0
  193.0730  173.0250  141.9070 C   0  0  0  0  0  2  0  0  0  0  0  0
  192.8520  171.8230  144.4620 O   0  0  0  0  0  0  0  0  0  0  0  0
  193.3010  173.7280  143.1660 N   0  0  0  0  0  0  0  0  0  0  0  0
  193.1690  173.0430  144.4280 C   0  0  0  0  0  0  0  0  0  0  0  0
  194.1780  175.0310  145.5460 C   0  0  0  0  0  2  0  0  0  0  0  0
  193.6400  175.8570  144.3900 C   0  0  0  0  0  2  0  0  0  0  0  0
  193.8350  175.0890  143.0870 C   0  0  0  0  0  2  0  0  0  0  0  0
  193.3250  173.7830  145.7220 C   0  0  0  0  0  2  0  0  0  0  0  0
  1  9  1  0  0  0  0
  1 11  1  1  0  0  0
  2  8  1  0  0  0  0
  2 12  1  0  0  0  0
  3 10  1  0  0  0  0
  4 13  2  0  0  0  0
  5  9  1  0  0  0  0
  6  5  1  0  0  0  0
  7 15  2  0  0  0  0
  8  3  1  0  0  0  0
 10 16  1  1  0  0  0
 12  6  1  0  0  0  0
 13 14  1  0  0  0  0
 14 10  1  0  0  0  0
 14 19  1  1  0  0  0
 15  4  1  0  0  0  0
 15  3  1  0  0  0  0
 16  1  1  0  0  0  0
 17 23  1  0  0  0  0
 17 18  1  0  0  0  0
 19 21  1  0  0  0  0
 19 22  2  0  0  0  0
 20 18  2  0  0  0  0
 21 17  2  0  0  0  0
 22 20  1  0  0  0  0
 24 25  1  0  0  0  0
 24  4  1  0  0  0  0
 26 25  1  0  0  0  0
 26 27  1  0  0  0  0
 27 29  1  0  0  0  0
 29 30  1  0  0  0  0
 30 28  2  0  0  0  0
 30 34  1  0  0  0  0
 31 34  1  0  0  0  0
 32 31  1  0  0  0  0
 33 29  1  0  0  0  0
 33 32  1  0  0  0  0
M  END
>  <MODEL>
1

>  <REMARK>
 VINA RESULT:      -7.4      0.000      0.000
  Name = 
  6 active torsions:
  status: ('A' for Active; 'I' for Inactive)
    1  A    between atoms: C_3  and  N_13
    2  A    between atoms: C_3  and  C_17
    3  A    between atoms: C_5  and  C_18
    4  A    between atoms: C_12  and  C_28
    5  A    between atoms: C_17  and  C_29
    6  A    between atoms: C_18  and  C_29
                            x       y       z     vdW  Elec       q    Type
                         _______ _______ _______ _____ _____    ______ ____

>  <TORSDO>
F 6

$$$$
=
 OpenBabel11052418523D

 34 37  0  0  1  0  0  0  0  0999 V2000
  186.1370  177.3860  146.1330 C   0  0  2  0  0  3  0  0  0  0  0  0
  185.4900  178.2880  142.5340 C   0  0  0  0  0  2  0  0  0  0  0  0
  187.0960  176.5510  143.1340 N   0  0  0  0  0  0  0  0  0  0  0  0
  189.0620  175.3670  142.1000 C   0  0  0  0  0  0  0  0  0  0  0  0
  184.2880  178.6850  145.5130 C   0  0  0  0  0  2  0  0  0  0  0  0
  184.6410  179.5530  144.3160 C   0  0  0  0  0  2  0  0  0  0  0  0
  187.0880  175.8590  140.8920 O   0  0  0  0  0  0  0  0  0  0  0  0
  185.6740  176.8780  143.0710 C   0  0  0  0  0  2  0  0  0  0  0  0
  185.4180  178.6160  146.4280 N   0  0  0  0  0  2  0  0  0  0  0  0
  187.7660  176.4970  144.4480 C   0  0  1  0  0  3  0  0  0  0  0  0
  186.5130  176.7660  147.3240 O   0  0  0  0  0  1  0  0  0  0  0  0
  184.2750  178.8700  143.0840 N   0  0  0  0  0  2  0  0  0  0  0  0
  189.7750  175.5750  143.2050 C   0  0  0  0  0  3  0  0  0  0  0  0
  189.2990  176.4810  144.3030 C   0  0  2  0  0  3  0  0  0  0  0  0
  187.7100  175.9360  141.9860 C   0  0  0  0  0  0  0  0  0  0  0  0
  187.3750  177.6990  145.3100 C   0  0  0  0  0  2  0  0  0  0  0  0
  191.7880  176.3850  147.1830 C   0  0  0  0  0  0  0  0  0  0  0  0
  191.2050  175.4190  148.0080 C   0  0  0  0  0  3  0  0  0  0  0  0
  189.9750  176.1180  145.5900 C   0  0  0  0  0  0  0  0  0  0  0  0
  190.0090  174.8020  147.6270 C   0  0  0  0  0  3  0  0  0  0  0  0
  191.1750  176.7350  145.9760 C   0  0  0  0  0  3  0  0  0  0  0  0
  189.3950  175.1520  146.4210 C   0  0  0  0  0  3  0  0  0  0  0  0
  192.9450  176.9830  147.5530 F   0  0  0  0  0  0  0  0  0  0  0  0
  189.5980  174.4430  141.0600 C   0  0  0  0  0  2  0  0  0  0  0  0
  189.0700  173.0440  141.3090 C   0  0  0  0  0  2  0  0  0  0  0  0
  190.1330  172.2060  141.9880 C   0  0  0  0  0  2  0  0  0  0  0  0
  191.5170  172.7260  141.6230 C   0  0  0  0  0  2  0  0  0  0  0  0
  193.0490  175.0820  141.9710 O   0  0  0  0  0  0  0  0  0  0  0  0
  192.2910  173.0310  142.8230 N   0  0  0  0  0  0  0  0  0  0  0  0
  193.0460  174.2550  142.9230 C   0  0  0  0  0  0  0  0  0  0  0  0
  193.4160  173.7600  145.3390 C   0  0  0  0  0  2  0  0  0  0  0  0
  193.2570  172.2930  144.9830 C   0  0  0  0  0  2  0  0  0  0  0  0
  192.1260  172.1380  143.9720 C   0  0  0  0  0  2  0  0  0  0  0  0
  193.9030  174.5310  144.1210 C   0  0  0  0  0  2  0  0  0  0  0  0
  1  9  1  0  0  0  0
  1 11  1  1  0  0  0
  2  8  1  0  0  0  0
  2 12  1  0  0  0  0
  3 10  1  0  0  0  0
  4 13  2  0  0  0  0
  5  9  1  0  0  0  0
  6  5  1  0  0  0  0
  7 15  2  0  0  0  0
  8  3  1  0  0  0  0
 10 16  1  1  0  0  0
 12  6  1  0  0  0  0
 13 14  1  0  0  0  0
 14 10  1  0  0  0  0
 14 19  1  1  0  0  0
 15  4  1  0  0  0  0
 15  3  1  0  0  0  0
 16  1  1  0  0  0  0
 17 23  1  0  0  0  0
 17 18  1  0  0  0  0
 19 21  1  0  0  0  0
 19 22  2  0  0  0  0
 20 18  2  0  0  0  0
 21 17  2  0  0  0  0
 22 20  1  0  0  0  0
 24 25  1  0  0  0  0
 24  4  1  0  0  0  0
 25 26  1  0  0  0  0
 27 26  1  0  0  0  0
 27 29  1  0  0  0  0
 28 30  2  0  0  0  0
 29 30  1  0  0  0  0
 29 33  1  0  0  0  0
 30 34  1  0  0  0  0
 32 31  1  0  0  0  0
 33 32  1  0  0  0  0
 34 31  1  0  0  0  0
M  END
>  <MODEL>
2

>  <REMARK>
 VINA RESULT:      -7.3      0.977      1.408
  Name = 
  6 active torsions:
  status: ('A' for Active; 'I' for Inactive)
    1  A    between atoms: C_3  and  N_13
    2  A    between atoms: C_3  and  C_17
    3  A    between atoms: C_5  and  C_18
    4  A    between atoms: C_12  and  C_28
    5  A    between atoms: C_17  and  C_29
    6  A    between atoms: C_18  and  C_29
                            x       y       z     vdW  Elec       q    Type
                         _______ _______ _______ _____ _____    ______ ____

>  <TORSDO>
F 6

$$$$
=
 OpenBabel11052418523D

 34 37  0  0  1  0  0  0  0  0999 V2000
  192.5020  172.3920  142.6640 C   0  0  2  0  0  3  0  0  0  0  0  0
  190.1240  171.5340  139.8730 C   0  0  0  0  0  2  0  0  0  0  0  0
  189.9580  173.6550  141.0690 N   0  0  0  0  0  0  0  0  0  0  0  0
  188.2500  175.4570  141.4750 C   0  0  0  0  0  0  0  0  0  0  0  0
  192.9260  170.6100  141.2050 C   0  0  0  0  0  2  0  0  0  0  0  0
  191.6170  169.9670  140.7750 C   0  0  0  0  0  2  0  0  0  0  0  0
  188.5460  174.4320  139.3630 O   0  0  0  0  0  0  0  0  0  0  0  0
  190.7540  172.8960  140.1080 C   0  0  0  0  0  2  0  0  0  0  0  0
  192.8590  170.9830  142.6100 N   0  0  0  0  0  2  0  0  0  0  0  0
  190.4720  173.8450  142.4400 C   0  0  1  0  0  3  0  0  0  0  0  0
  193.2670  173.0320  143.6390 O   0  0  0  0  0  1  0  0  0  0  0  0
  191.1560  170.5660  139.5320 N   0  0  0  0  0  2  0  0  0  0  0  0
  188.5180  175.4260  142.7790 C   0  0  0  0  0  3  0  0  0  0  0  0
  189.3730  174.3550  143.3910 C   0  0  2  0  0  3  0  0  0  0  0  0
  188.9010  174.4960  140.5720 C   0  0  0  0  0  0  0  0  0  0  0  0
  191.0270  172.5350  143.0010 C   0  0  0  0  0  2  0  0  0  0  0  0
  191.6160  176.0880  145.9340 C   0  0  0  0  0  0  0  0  0  0  0  0
  190.9810  175.7400  147.1310 C   0  0  0  0  0  3  0  0  0  0  0  0
  189.9450  174.8420  144.6880 C   0  0  0  0  0  0  0  0  0  0  0  0
  189.8310  174.9460  147.1080 C   0  0  0  0  0  3  0  0  0  0  0  0
  191.1000  175.6400  144.7150 C   0  0  0  0  0  3  0  0  0  0  0  0
  189.3140  174.4990  145.8890 C   0  0  0  0  0  3  0  0  0  0  0  0
  192.7300  176.8580  145.9570 F   0  0  0  0  0  0  0  0  0  0  0  0
  187.3990  176.5600  140.9410 C   0  0  0  0  0  2  0  0  0  0  0  0
  187.6930  177.8360  141.7050 C   0  0  0  0  0  2  0  0  0  0  0  0
  186.3960  178.5290  142.0680 C   0  0  0  0  0  2  0  0  0  0  0  0
  185.4040  177.5180  142.6250 C   0  0  0  0  0  2  0  0  0  0  0  0
  183.5340  179.0870  144.0600 O   0  0  0  0  0  0  0  0  0  0  0  0
  185.3460  177.5950  144.0820 N   0  0  0  0  0  0  0  0  0  0  0  0
  184.3610  178.4190  144.7380 C   0  0  0  0  0  0  0  0  0  0  0  0
  185.0080  177.3640  146.9040 C   0  0  0  0  0  2  0  0  0  0  0  0
  186.3740  177.1180  146.2860 C   0  0  0  0  0  2  0  0  0  0  0  0
  186.2010  176.6770  144.8370 C   0  0  0  0  0  2  0  0  0  0  0  0
  184.3510  178.5600  146.2300 C   0  0  0  0  0  2  0  0  0  0  0  0
  1 16  1  0  0  0  0
  1 11  1  1  0  0  0
  2  8  1  0  0  0  0
  3 10  1  0  0  0  0
  4 13  2  0  0  0  0
  5  9  1  0  0  0  0
  6  5  1  0  0  0  0
  7 15  2  0  0  0  0
  8  3  1  0  0  0  0
  9  1  1  0  0  0  0
 10 16  1  1  0  0  0
 10 14  1  0  0  0  0
 12  2  1  0  0  0  0
 12  6  1  0  0  0  0
 13 14  1  0  0  0  0
 14 19  1  1  0  0  0
 15  3  1  0  0  0  0
 15  4  1  0  0  0  0
 17 23  1  0  0  0  0
 17 18  1  0  0  0  0
 19 21  1  0  0  0  0
 19 22  2  0  0  0  0
 20 18  2  0  0  0  0
 21 17  2  0  0  0  0
 22 20  1  0  0  0  0
 24  4  1  0  0  0  0
 24 25  1  0  0  0  0
 25 26  1  0  0  0  0
 26 27  1  0  0  0  0
 27 29  1  0  0  0  0
 28 30  2  0  0  0  0
 29 30  1  0  0  0  0
 29 33  1  0  0  0  0
 30 34  1  0  0  0  0
 32 31  1  0  0  0  0
 33 32  1  0  0  0  0
 34 31  1  0  0  0  0
M  END
>  <MODEL>
3

>  <REMARK>
 VINA RESULT:      -7.0      2.135      7.265
  Name = 
  6 active torsions:
  status: ('A' for Active; 'I' for Inactive)
    1  A    between atoms: C_3  and  N_13
    2  A    between atoms: C_3  and  C_17
    3  A    between atoms: C_5  and  C_18
    4  A    between atoms: C_12  and  C_28
    5  A    between atoms: C_17  and  C_29
    6  A    between atoms: C_18  and  C_29
                            x       y       z     vdW  Elec       q    Type
                         _______ _______ _______ _____ _____    ______ ____

>  <TORSDO>
F 6

$$$$
=
 OpenBabel11052418523D

 34 37  0  0  1  0  0  0  0  0999 V2000
  193.1130  173.1270  143.9490 C   0  0  2  0  0  3  0  0  0  0  0  0
  194.1600  176.0010  146.1460 C   0  0  0  0  0  2  0  0  0  0  0  0
  191.8040  175.4800  145.7830 N   0  0  0  0  0  0  0  0  0  0  0  0
  189.5710  176.6260  145.9770 C   0  0  0  0  0  0  0  0  0  0  0  0
  195.3230  173.3540  144.6910 C   0  0  0  0  0  2  0  0  0  0  0  0
  195.6840  174.8260  144.8070 C   0  0  0  0  0  2  0  0  0  0  0  0
  191.2810  176.8790  147.5930 O   0  0  0  0  0  0  0  0  0  0  0  0
  193.0270  175.0320  146.4410 C   0  0  0  0  0  2  0  0  0  0  0  0
  194.5000  173.1350  143.5110 N   0  0  0  0  0  2  0  0  0  0  0  0
  191.3170  174.7530  144.5930 C   0  0  1  0  0  3  0  0  0  0  0  0
  192.4220  172.1040  143.3010 O   0  0  0  0  0  1  0  0  0  0  0  0
  195.4310  175.2930  146.1620 N   0  0  0  0  0  2  0  0  0  0  0  0
  189.2390  176.1980  144.7600 C   0  0  0  0  0  3  0  0  0  0  0  0
  190.2370  175.5540  143.8420 C   0  0  2  0  0  3  0  0  0  0  0  0
  190.9190  176.3580  146.5020 C   0  0  0  0  0  0  0  0  0  0  0  0
  192.4640  174.4630  143.6240 C   0  0  0  0  0  2  0  0  0  0  0  0
  188.5210  174.4190  140.6380 C   0  0  0  0  0  0  0  0  0  0  0  0
  188.1980  173.0970  140.9610 C   0  0  0  0  0  3  0  0  0  0  0  0
  189.5240  174.7090  142.8300 C   0  0  0  0  0  0  0  0  0  0  0  0
  188.5370  172.5800  142.2160 C   0  0  0  0  0  3  0  0  0  0  0  0
  189.1820  175.2240  141.5700 C   0  0  0  0  0  3  0  0  0  0  0  0
  189.1990  173.3850  143.1480 C   0  0  0  0  0  3  0  0  0  0  0  0
  188.1930  174.9180  139.4230 F   0  0  0  0  0  0  0  0  0  0  0  0
  188.5200  177.2460  146.8340 C   0  0  0  0  0  2  0  0  0  0  0  0
  187.3120  176.3310  146.8890 C   0  0  0  0  0  2  0  0  0  0  0  0
  186.0440  177.1430  146.7230 C   0  0  0  0  0  2  0  0  0  0  0  0
  186.3200  178.3700  145.8650 C   0  0  0  0  0  2  0  0  0  0  0  0
  183.6880  179.0410  145.0640 O   0  0  0  0  0  0  0  0  0  0  0  0
  185.8020  178.1850  144.5120 N   0  0  0  0  0  0  0  0  0  0  0  0
  184.4470  178.5530  144.1840 C   0  0  0  0  0  0  0  0  0  0  0  0
  184.9980  178.2040  141.7760 C   0  0  0  0  0  2  0  0  0  0  0  0
  186.0600  177.2230  142.2420 C   0  0  0  0  0  2  0  0  0  0  0  0
  186.7570  177.7820  143.4770 C   0  0  0  0  0  2  0  0  0  0  0  0
  183.8910  178.2900  142.8180 C   0  0  0  0  0  2  0  0  0  0  0  0
  1 11  1  6  0  0  0
  2 12  1  0  0  0  0
  2  8  1  0  0  0  0
  3  8  1  0  0  0  0
  3 15  1  0  0  0  0
  4 15  1  0  0  0  0
  4 24  1  0  0  0  0
  5  6  1  0  0  0  0
  6 12  1  0  0  0  0
  9  1  1  0  0  0  0
  9  5  1  0  0  0  0
 10 16  1  6  0  0  0
 10  3  1  0  0  0  0
 13  4  2  0  0  0  0
 14 19  1  6  0  0  0
 14 10  1  0  0  0  0
 14 13  1  0  0  0  0
 15  7  2  0  0  0  0
 16  1  1  0  0  0  0
 17 18  2  0  0  0  0
 17 21  1  0  0  0  0
 18 20  1  0  0  0  0
 19 22  1  0  0  0  0
 20 22  2  0  0  0  0
 21 19  2  0  0  0  0
 23 17  1  0  0  0  0
 24 25  1  0  0  0  0
 26 25  1  0  0  0  0
 27 26  1  0  0  0  0
 29 27  1  0  0  0  0
 30 29  1  0  0  0  0
 30 28  2  0  0  0  0
 31 32  1  0  0  0  0
 31 34  1  0  0  0  0
 32 33  1  0  0  0  0
 33 29  1  0  0  0  0
 34 30  1  0  0  0  0
M  END
>  <MODEL>
4

>  <REMARK>
 VINA RESULT:      -7.0      2.605      8.251
  Name = 
  6 active torsions:
  status: ('A' for Active; 'I' for Inactive)
    1  A    between atoms: C_3  and  N_13
    2  A    between atoms: C_3  and  C_17
    3  A    between atoms: C_5  and  C_18
    4  A    between atoms: C_12  and  C_28
    5  A    between atoms: C_17  and  C_29
    6  A    between atoms: C_18  and  C_29
                            x       y       z     vdW  Elec       q    Type
                         _______ _______ _______ _____ _____    ______ ____

>  <TORSDO>
F 6

$$$$
=
 OpenBabel11052418523D

 34 37  0  0  1  0  0  0  0  0999 V2000
  187.3560  176.7300  142.1820 C   0  0  2  0  0  3  0  0  0  0  0  0
  186.7830  177.9200  145.7090 C   0  0  0  0  0  2  0  0  0  0  0  0
  188.8390  176.7640  145.0830 N   0  0  0  0  0  0  0  0  0  0  0  0
  190.7030  175.4980  146.2040 C   0  0  0  0  0  0  0  0  0  0  0  0
  185.6390  178.2380  142.6980 C   0  0  0  0  0  2  0  0  0  0  0  0
  185.0920  177.9470  144.0860 C   0  0  0  0  0  2  0  0  0  0  0  0
  189.7840  177.4840  147.1060 O   0  0  0  0  0  0  0  0  0  0  0  0
  188.0950  178.0130  144.9490 C   0  0  0  0  0  2  0  0  0  0  0  0
  185.9350  176.9910  142.0090 N   0  0  0  0  0  2  0  0  0  0  0  0
  188.9240  175.8480  143.9280 C   0  0  1  0  0  3  0  0  0  0  0  0
  187.8990  176.2740  140.9820 O   0  0  0  0  0  1  0  0  0  0  0  0
  185.7830  178.7630  145.0730 N   0  0  0  0  0  2  0  0  0  0  0  0
  190.5840  174.5180  145.3100 C   0  0  0  0  0  3  0  0  0  0  0  0
  189.4370  174.4570  144.3440 C   0  0  2  0  0  3  0  0  0  0  0  0
  189.7610  176.6270  146.1800 C   0  0  0  0  0  0  0  0  0  0  0  0
  187.5570  175.6800  143.2620 C   0  0  0  0  0  2  0  0  0  0  0  0
  190.8640  173.4030  140.9740 C   0  0  0  0  0  0  0  0  0  0  0  0
  190.5230  172.0470  140.9520 C   0  0  0  0  0  3  0  0  0  0  0  0
  189.8190  173.6280  143.1540 C   0  0  0  0  0  0  0  0  0  0  0  0
  189.8320  171.4810  142.0280 C   0  0  0  0  0  3  0  0  0  0  0  0
  190.5140  174.1930  142.0730 C   0  0  0  0  0  3  0  0  0  0  0  0
  189.4810  172.2700  143.1270 C   0  0  0  0  0  3  0  0  0  0  0  0
  191.5340  173.9500  139.9330 F   0  0  0  0  0  0  0  0  0  0  0  0
  191.8780  175.4950  147.1230 C   0  0  0  0  0  2  0  0  0  0  0  0
  193.0860  174.9410  146.3930 C   0  0  0  0  0  2  0  0  0  0  0  0
  194.2460  175.9080  146.5120 C   0  0  0  0  0  2  0  0  0  0  0  0
  194.1630  176.9590  145.4130 C   0  0  0  0  0  2  0  0  0  0  0  0
  192.3680  176.7940  143.2290 O   0  0  0  0  0  0  0  0  0  0  0  0
  194.5020  176.3820  144.1150 N   0  0  0  0  0  0  0  0  0  0  0  0
  193.5290  176.3360  143.0520 C   0  0  0  0  0  0  0  0  0  0  0  0
  195.3530  175.6480  141.4950 C   0  0  0  0  0  2  0  0  0  0  0  0
  196.0630  175.0690  142.7060 C   0  0  0  0  0  2  0  0  0  0  0  0
  195.9030  176.0200  143.8880 C   0  0  0  0  0  2  0  0  0  0  0  0
  193.8520  175.6730  141.7470 C   0  0  0  0  0  2  0  0  0  0  0  0
  1 11  1  6  0  0  0
  1 16  1  0  0  0  0
  3 15  1  0  0  0  0
  4 24  1  0  0  0  0
  5  6  1  0  0  0  0
  6 12  1  0  0  0  0
  8  3  1  0  0  0  0
  8  2  1  0  0  0  0
  9  1  1  0  0  0  0
  9  5  1  0  0  0  0
 10 16  1  1  0  0  0
 10 14  1  0  0  0  0
 10  3  1  0  0  0  0
 12  2  1  0  0  0  0
 13  4  2  0  0  0  0
 14 19  1  6  0  0  0
 14 13  1  0  0  0  0
 15  4  1  0  0  0  0
 15  7  2  0  0  0  0
 17 21  1  0  0  0  0
 18 17  2  0  0  0  0
 18 20  1  0  0  0  0
 20 22  2  0  0  0  0
 21 19  2  0  0  0  0
 22 19  1  0  0  0  0
 23 17  1  0  0  0  0
 25 26  1  0  0  0  0
 25 24  1  0  0  0  0
 27 26  1  0  0  0  0
 29 27  1  0  0  0  0
 30 28  2  0  0  0  0
 30 29  1  0  0  0  0
 31 34  1  0  0  0  0
 31 32  1  0  0  0  0
 32 33  1  0  0  0  0
 33 29  1  0  0  0  0
 34 30  1  0  0  0  0
M  END
>  <MODEL>
5

>  <REMARK>
 VINA RESULT:      -6.9      2.410      4.776
  Name = 
  6 active torsions:
  status: ('A' for Active; 'I' for Inactive)
    1  A    between atoms: C_3  and  N_13
    2  A    between atoms: C_3  and  C_17
    3  A    between atoms: C_5  and  C_18
    4  A    between atoms: C_12  and  C_28
    5  A    between atoms: C_17  and  C_29
    6  A    between atoms: C_18  and  C_29
                            x       y       z     vdW  Elec       q    Type
                         _______ _______ _______ _____ _____    ______ ____

>  <TORSDO>
F 6

$$$$
=
 OpenBabel11052418523D

 34 37  0  0  1  0  0  0  0  0999 V2000
  187.0080  177.2830  141.9190 C   0  0  2  0  0  3  0  0  0  0  0  0
  185.6450  178.0390  145.3470 C   0  0  0  0  0  2  0  0  0  0  0  0
  187.8480  177.0280  145.0560 N   0  0  0  0  0  0  0  0  0  0  0  0
  189.5030  175.7010  146.4090 C   0  0  0  0  0  0  0  0  0  0  0  0
  185.1400  178.6660  142.2120 C   0  0  0  0  0  2  0  0  0  0  0  0
  184.3320  178.2000  143.4120 C   0  0  0  0  0  2  0  0  0  0  0  0
  188.3080  177.5390  147.2990 O   0  0  0  0  0  0  0  0  0  0  0  0
  187.0800  178.2610  144.8990 C   0  0  0  0  0  2  0  0  0  0  0  0
  185.6430  177.5170  141.4740 N   0  0  0  0  0  2  0  0  0  0  0  0
  188.2230  176.2550  143.8550 C   0  0  1  0  0  3  0  0  0  0  0  0
  187.8150  176.9860  140.8210 O   0  0  0  0  0  1  0  0  0  0  0  0
  184.7560  178.9180  144.6040 N   0  0  0  0  0  2  0  0  0  0  0  0
  189.6280  174.8280  145.4120 C   0  0  0  0  0  3  0  0  0  0  0  0
  188.7140  174.8420  144.2210 C   0  0  2  0  0  3  0  0  0  0  0  0
  188.5260  176.7960  146.3040 C   0  0  0  0  0  0  0  0  0  0  0  0
  187.0370  176.1220  142.8990 C   0  0  0  0  0  2  0  0  0  0  0  0
  191.0940  174.1120  141.3400 C   0  0  0  0  0  0  0  0  0  0  0  0
  190.6090  172.8770  140.8990 C   0  0  0  0  0  3  0  0  0  0  0  0
  189.3820  174.1690  143.0610 C   0  0  0  0  0  0  0  0  0  0  0  0
  189.5130  172.2880  141.5360 C   0  0  0  0  0  3  0  0  0  0  0  0
  190.4830  174.7580  142.4190 C   0  0  0  0  0  3  0  0  0  0  0  0
  188.9010  172.9320  142.6150 C   0  0  0  0  0  3  0  0  0  0  0  0
  192.1560  174.6820  140.7230 F   0  0  0  0  0  0  0  0  0  0  0  0
  190.4580  175.6300  147.5530 C   0  0  0  0  0  2  0  0  0  0  0  0
  191.6370  176.5430  147.2810 C   0  0  0  0  0  2  0  0  0  0  0  0
  192.8460  175.7190  146.8880 C   0  0  0  0  0  2  0  0  0  0  0  0
  193.2820  176.0760  145.4730 C   0  0  0  0  0  2  0  0  0  0  0  0
  194.9010  175.9850  143.1520 O   0  0  0  0  0  0  0  0  0  0  0  0
  193.5120  174.8710  144.6810 N   0  0  0  0  0  0  0  0  0  0  0  0
  194.3520  174.9080  143.5100 C   0  0  0  0  0  0  0  0  0  0  0  0
  194.2650  172.4160  143.4420 C   0  0  0  0  0  2  0  0  0  0  0  0
  192.9270  172.5210  144.1520 C   0  0  0  0  0  2  0  0  0  0  0  0
  193.0060  173.6070  145.2200 C   0  0  0  0  0  2  0  0  0  0  0  0
  194.5250  173.6910  142.6520 C   0  0  0  0  0  2  0  0  0  0  0  0
  1 11  1  6  0  0  0
  1 16  1  0  0  0  0
  3 15  1  0  0  0  0
  4 24  1  0  0  0  0
  5  6  1  0  0  0  0
  6 12  1  0  0  0  0
  8  3  1  0  0  0  0
  8  2  1  0  0  0  0
  9  1  1  0  0  0  0
  9  5  1  0  0  0  0
 10 16  1  6  0  0  0
 10 14  1  0  0  0  0
 10  3  1  0  0  0  0
 12  2  1  0  0  0  0
 13  4  2  0  0  0  0
 14 19  1  6  0  0  0
 14 13  1  0  0  0  0
 15  4  1  0  0  0  0
 15  7  2  0  0  0  0
 17 21  1  0  0  0  0
 18 17  2  0  0  0  0
 18 20  1  0  0  0  0
 20 22  2  0  0  0  0
 21 19  2  0  0  0  0
 22 19  1  0  0  0  0
 23 17  1  0  0  0  0
 25 24  1  0  0  0  0
 26 25  1  0  0  0  0
 27 26  1  0  0  0  0
 28 30  2  0  0  0  0
 29 33  1  0  0  0  0
 29 27  1  0  0  0  0
 30 29  1  0  0  0  0
 31 32  1  0  0  0  0
 32 33  1  0  0  0  0
 34 31  1  0  0  0  0
 34 30  1  0  0  0  0
M  END
>  <MODEL>
6

>  <REMARK>
 VINA RESULT:      -6.9      2.082      4.542
  Name = 
  6 active torsions:
  status: ('A' for Active; 'I' for Inactive)
    1  A    between atoms: C_3  and  N_13
    2  A    between atoms: C_3  and  C_17
    3  A    between atoms: C_5  and  C_18
    4  A    between atoms: C_12  and  C_28
    5  A    between atoms: C_17  and  C_29
    6  A    between atoms: C_18  and  C_29
                            x       y       z     vdW  Elec       q    Type
                         _______ _______ _______ _____ _____    ______ ____

>  <TORSDO>
F 6

$$$$
=
 OpenBabel11052418523D

 34 37  0  0  1  0  0  0  0  0999 V2000
  194.4990  176.3380  143.8710 C   0  0  2  0  0  3  0  0  0  0  0  0
  194.9560  174.0920  140.8830 C   0  0  0  0  0  2  0  0  0  0  0  0
  192.7750  174.3540  141.9460 N   0  0  0  0  0  0  0  0  0  0  0  0
  190.5830  173.1240  142.0740 C   0  0  0  0  0  0  0  0  0  0  0  0
  196.4360  176.4340  142.5560 C   0  0  0  0  0  2  0  0  0  0  0  0
  196.7680  175.0520  142.0190 C   0  0  0  0  0  2  0  0  0  0  0  0
  191.8070  173.3490  140.0600 O   0  0  0  0  0  0  0  0  0  0  0  0
  193.7760  175.0200  141.1170 C   0  0  0  0  0  2  0  0  0  0  0  0
  195.9530  176.3330  143.9250 N   0  0  0  0  0  2  0  0  0  0  0  0
  192.6140  174.7690  143.3540 C   0  0  1  0  0  3  0  0  0  0  0  0
  193.9940  177.1460  144.8890 O   0  0  0  0  0  1  0  0  0  0  0  0
  196.1700  174.8740  140.7050 N   0  0  0  0  0  2  0  0  0  0  0  0
  190.5810  173.2530  143.3990 C   0  0  0  0  0  3  0  0  0  0  0  0
  191.7790  173.7510  144.1530 C   0  0  2  0  0  3  0  0  0  0  0  0
  191.7410  173.5940  141.2960 C   0  0  0  0  0  0  0  0  0  0  0  0
  193.9740  174.9230  144.0370 C   0  0  0  0  0  2  0  0  0  0  0  0
  189.6160  174.8660  147.0820 C   0  0  0  0  0  0  0  0  0  0  0  0
  190.5890  175.3370  147.9690 C   0  0  0  0  0  3  0  0  0  0  0  0
  191.3510  174.3040  145.4790 C   0  0  0  0  0  0  0  0  0  0  0  0
  191.9410  175.2910  147.6140 C   0  0  0  0  0  3  0  0  0  0  0  0
  189.9950  174.3500  145.8390 C   0  0  0  0  0  3  0  0  0  0  0  0
  192.3210  174.7750  146.3710 C   0  0  0  0  0  3  0  0  0  0  0  0
  188.3080  174.9090  147.4270 F   0  0  0  0  0  0  0  0  0  0  0  0
  189.3490  172.6330  141.3960 C   0  0  0  0  0  2  0  0  0  0  0  0
  188.1480  173.3880  141.9300 C   0  0  0  0  0  2  0  0  0  0  0  0
  188.1510  174.8050  141.3930 C   0  0  0  0  0  2  0  0  0  0  0  0
  187.4300  175.7300  142.3640 C   0  0  0  0  0  2  0  0  0  0  0  0
  186.9820  176.7110  144.9830 O   0  0  0  0  0  0  0  0  0  0  0  0
  188.3850  176.5480  143.1080 N   0  0  0  0  0  0  0  0  0  0  0  0
  188.0810  177.0080  144.4400 C   0  0  0  0  0  0  0  0  0  0  0  0
  190.4490  177.7600  144.6570 C   0  0  0  0  0  2  0  0  0  0  0  0
  190.4600  177.9020  143.1450 C   0  0  0  0  0  2  0  0  0  0  0  0
  189.7140  176.7270  142.5210 C   0  0  0  0  0  2  0  0  0  0  0  0
  189.0250  177.9120  145.1730 C   0  0  0  0  0  2  0  0  0  0  0  0
  1  9  1  0  0  0  0
  1 16  1  0  0  0  0
  1 11  1  1  0  0  0
  2  8  1  0  0  0  0
  3 10  1  0  0  0  0
  4 13  2  0  0  0  0
  5  9  1  0  0  0  0
  6  5  1  0  0  0  0
  7 15  2  0  0  0  0
  8  3  1  0  0  0  0
 10 16  1  1  0  0  0
 10 14  1  0  0  0  0
 12  2  1  0  0  0  0
 12  6  1  0  0  0  0
 13 14  1  0  0  0  0
 14 19  1  1  0  0  0
 15  3  1  0  0  0  0
 15  4  1  0  0  0  0
 17 23  1  0  0  0  0
 17 18  1  0  0  0  0
 19 21  1  0  0  0  0
 19 22  2  0  0  0  0
 20 18  2  0  0  0  0
 21 17  2  0  0  0  0
 22 20  1  0  0  0  0
 24 25  1  0  0  0  0
 24  4  1  0  0  0  0
 26 25  1  0  0  0  0
 26 27  1  0  0  0  0
 27 29  1  0  0  0  0
 29 30  1  0  0  0  0
 30 28  2  0  0  0  0
 30 34  1  0  0  0  0
 31 34  1  0  0  0  0
 32 31  1  0  0  0  0
 33 29  1  0  0  0  0
 33 32  1  0  0  0  0
M  END
>  <MODEL>
7

>  <REMARK>
 VINA RESULT:      -6.7      2.516      6.656
  Name = 
  6 active torsions:
  status: ('A' for Active; 'I' for Inactive)
    1  A    between atoms: C_3  and  N_13
    2  A    between atoms: C_3  and  C_17
    3  A    between atoms: C_5  and  C_18
    4  A    between atoms: C_12  and  C_28
    5  A    between atoms: C_17  and  C_29
    6  A    between atoms: C_18  and  C_29
                            x       y       z     vdW  Elec       q    Type
                         _______ _______ _______ _____ _____    ______ ____

>  <TORSDO>
F 6

$$$$
=
 OpenBabel11052418523D

 34 37  0  0  1  0  0  0  0  0999 V2000
  193.3500  171.6160  144.4070 C   0  0  2  0  0  3  0  0  0  0  0  0
  191.5170  170.0680  141.5050 C   0  0  0  0  0  2  0  0  0  0  0  0
  191.0840  172.3690  142.1920 N   0  0  0  0  0  0  0  0  0  0  0  0
  189.2780  174.1030  141.9330 C   0  0  0  0  0  0  0  0  0  0  0  0
  194.0730  169.6100  143.4370 C   0  0  0  0  0  2  0  0  0  0  0  0
  192.8780  168.8120  142.9430 C   0  0  0  0  0  2  0  0  0  0  0  0
  189.9650  172.6990  140.1560 O   0  0  0  0  0  0  0  0  0  0  0  0
  192.0560  171.4880  141.5520 C   0  0  0  0  0  2  0  0  0  0  0  0
  193.7540  170.2500  144.7040 N   0  0  0  0  0  2  0  0  0  0  0  0
  191.3470  172.8610  143.5590 C   0  0  1  0  0  3  0  0  0  0  0  0
  193.9160  172.4850  145.3390 O   0  0  0  0  0  1  0  0  0  0  0  0
  192.6200  169.1200  141.5440 N   0  0  0  0  0  2  0  0  0  0  0  0
  189.3170  174.3480  143.2410 C   0  0  0  0  0  3  0  0  0  0  0  0
  190.0860  173.4790  144.1920 C   0  0  2  0  0  3  0  0  0  0  0  0
  190.1030  173.0240  141.3670 C   0  0  0  0  0  0  0  0  0  0  0  0
  191.8360  171.7280  144.4620 C   0  0  0  0  0  2  0  0  0  0  0  0
  191.9210  175.6330  146.7390 C   0  0  0  0  0  0  0  0  0  0  0  0
  190.9790  175.6880  147.7710 C   0  0  0  0  0  3  0  0  0  0  0  0
  190.4110  174.2500  145.4360 C   0  0  0  0  0  0  0  0  0  0  0  0
  189.7550  175.0250  147.6380 C   0  0  0  0  0  3  0  0  0  0  0  0
  191.6390  174.9170  145.5730 C   0  0  0  0  0  3  0  0  0  0  0  0
  189.4720  174.3080  146.4720 C   0  0  0  0  0  3  0  0  0  0  0  0
  193.1060  176.2760  146.8690 F   0  0  0  0  0  0  0  0  0  0  0  0
  188.5000  175.0200  141.0510 C   0  0  0  0  0  2  0  0  0  0  0  0
  187.5540  175.8490  141.8970 C   0  0  0  0  0  2  0  0  0  0  0  0
  188.1400  177.2280  142.1230 C   0  0  0  0  0  2  0  0  0  0  0  0
  187.0700  178.1660  142.6650 C   0  0  0  0  0  2  0  0  0  0  0  0
  184.4450  177.9110  143.6950 O   0  0  0  0  0  0  0  0  0  0  0  0
  186.7630  177.8540  144.0580 N   0  0  0  0  0  0  0  0  0  0  0  0
  185.3960  177.7410  144.5040 C   0  0  0  0  0  0  0  0  0  0  0  0
  186.2400  176.8240  146.6650 C   0  0  0  0  0  2  0  0  0  0  0  0
  187.5200  177.5990  146.4040 C   0  0  0  0  0  2  0  0  0  0  0  0
  187.8840  177.4920  144.9270 C   0  0  0  0  0  2  0  0  0  0  0  0
  185.0800  177.4990  145.9490 C   0  0  0  0  0  2  0  0  0  0  0  0
  1 16  1  0  0  0  0
  1  9  1  0  0  0  0
  1 11  1  1  0  0  0
  2 12  1  0  0  0  0
  2  8  1  0  0  0  0
  3 10  1  0  0  0  0
  4 13  2  0  0  0  0
  5  9  1  0  0  0  0
  6  5  1  0  0  0  0
  7 15  2  0  0  0  0
  8  3  1  0  0  0  0
 10 14  1  0  0  0  0
 10 16  1  1  0  0  0
 12  6  1  0  0  0  0
 13 14  1  0  0  0  0
 14 19  1  1  0  0  0
 15  4  1  0  0  0  0
 15  3  1  0  0  0  0
 17 23  1  0  0  0  0
 17 18  1  0  0  0  0
 19 21  1  0  0  0  0
 19 22  2  0  0  0  0
 20 18  2  0  0  0  0
 21 17  2  0  0  0  0
 22 20  1  0  0  0  0
 24 25  1  0  0  0  0
 24  4  1  0  0  0  0
 25 26  1  0  0  0  0
 26 27  1  0  0  0  0
 27 29  1  0  0  0  0
 28 30  2  0  0  0  0
 29 30  1  0  0  0  0
 29 33  1  0  0  0  0
 30 34  1  0  0  0  0
 32 31  1  0  0  0  0
 33 32  1  0  0  0  0
 34 31  1  0  0  0  0
M  END
>  <MODEL>
8

>  <REMARK>
 VINA RESULT:      -6.6      2.297      7.296
  Name = 
  6 active torsions:
  status: ('A' for Active; 'I' for Inactive)
    1  A    between atoms: C_3  and  N_13
    2  A    between atoms: C_3  and  C_17
    3  A    between atoms: C_5  and  C_18
    4  A    between atoms: C_12  and  C_28
    5  A    between atoms: C_17  and  C_29
    6  A    between atoms: C_18  and  C_29
                            x       y       z     vdW  Elec       q    Type
                         _______ _______ _______ _____ _____    ______ ____

>  <TORSDO>
F 6

$$$$
=
 OpenBabel11052418523D

 34 37  0  0  1  0  0  0  0  0999 V2000
  187.3480  176.7070  142.3600 C   0  0  2  0  0  3  0  0  0  0  0  0
  186.8650  177.7120  145.9570 C   0  0  0  0  0  2  0  0  0  0  0  0
  188.9550  176.7100  145.1930 N   0  0  0  0  0  0  0  0  0  0  0  0
  190.9390  175.5140  146.1780 C   0  0  0  0  0  0  0  0  0  0  0  0
  185.5710  178.0850  143.0140 C   0  0  0  0  0  2  0  0  0  0  0  0
  185.1040  177.7040  144.4100 C   0  0  0  0  0  2  0  0  0  0  0  0
  189.9470  177.4010  147.2050 O   0  0  0  0  0  0  0  0  0  0  0  0
  188.1340  177.9160  145.1470 C   0  0  0  0  0  2  0  0  0  0  0  0
  185.9080  176.8890  142.2580 N   0  0  0  0  0  2  0  0  0  0  0  0
  189.0420  175.8500  143.9970 C   0  0  1  0  0  3  0  0  0  0  0  0
  187.8630  176.3350  141.1180 O   0  0  0  0  0  1  0  0  0  0  0  0
  185.7900  178.5190  145.4010 N   0  0  0  0  0  2  0  0  0  0  0  0
  190.8370  174.5670  145.2470 C   0  0  0  0  0  3  0  0  0  0  0  0
  189.6540  174.4760  144.3280 C   0  0  2  0  0  3  0  0  0  0  0  0
  189.9320  176.5840  146.2430 C   0  0  0  0  0  0  0  0  0  0  0  0
  187.6590  175.6270  143.3830 C   0  0  0  0  0  2  0  0  0  0  0  0
  191.1890  173.5860  140.9590 C   0  0  0  0  0  0  0  0  0  0  0  0
  190.7200  172.2800  140.7880 C   0  0  0  0  0  3  0  0  0  0  0  0
  190.0300  173.7220  143.0890 C   0  0  0  0  0  0  0  0  0  0  0  0
  189.9070  171.6950  141.7640 C   0  0  0  0  0  3  0  0  0  0  0  0
  190.8460  174.3070  142.1070 C   0  0  0  0  0  3  0  0  0  0  0  0
  189.5640  172.4150  142.9120 C   0  0  0  0  0  3  0  0  0  0  0  0
  191.9770  174.1520  140.0140 F   0  0  0  0  0  0  0  0  0  0  0  0
  192.1520  175.5440  147.0450 C   0  0  0  0  0  2  0  0  0  0  0  0
  193.2290  176.3740  146.3750 C   0  0  0  0  0  2  0  0  0  0  0  0
  194.5700  175.6840  146.5130 C   0  0  0  0  0  2  0  0  0  0  0  0
  195.0190  175.1440  145.1620 C   0  0  0  0  0  2  0  0  0  0  0  0
  197.6690  174.1650  145.3630 O   0  0  0  0  0  0  0  0  0  0  0  0
  195.3650  173.7280  145.2570 N   0  0  0  0  0  0  0  0  0  0  0  0
  196.7420  173.3100  145.3570 C   0  0  0  0  0  0  0  0  0  0  0  0
  195.9430  171.0050  145.8740 C   0  0  0  0  0  2  0  0  0  0  0  0
  194.6860  171.3500  145.0950 C   0  0  0  0  0  2  0  0  0  0  0  0
  194.2640  172.7780  145.4230 C   0  0  0  0  0  2  0  0  0  0  0  0
  197.1020  171.8560  145.3760 C   0  0  0  0  0  2  0  0  0  0  0  0
  1 11  1  6  0  0  0
  1 16  1  0  0  0  0
  3 15  1  0  0  0  0
  4 15  1  0  0  0  0
  4 24  1  0  0  0  0
  5  6  1  0  0  0  0
  6 12  1  0  0  0  0
  8  3  1  0  0  0  0
  8  2  1  0  0  0  0
  9  1  1  0  0  0  0
  9  5  1  0  0  0  0
 10 16  1  1  0  0  0
 10 14  1  0  0  0  0
 10  3  1  0  0  0  0
 12  2  1  0  0  0  0
 13  4  2  0  0  0  0
 14 19  1  6  0  0  0
 14 13  1  0  0  0  0
 15  7  2  0  0  0  0
 17 21  1  0  0  0  0
 18 17  2  0  0  0  0
 18 20  1  0  0  0  0
 20 22  2  0  0  0  0
 21 19  2  0  0  0  0
 22 19  1  0  0  0  0
 23 17  1  0  0  0  0
 25 26  1  0  0  0  0
 25 24  1  0  0  0  0
 27 29  1  0  0  0  0
 27 26  1  0  0  0  0
 29 30  1  0  0  0  0
 29 33  1  0  0  0  0
 30 28  2  0  0  0  0
 30 34  1  0  0  0  0
 32 33  1  0  0  0  0
 32 31  1  0  0  0  0
 34 31  1  0  0  0  0
M  END
>  <MODEL>
9

>  <REMARK>
 VINA RESULT:      -6.5      2.571      4.832
  Name = 
  6 active torsions:
  status: ('A' for Active; 'I' for Inactive)
    1  A    between atoms: C_3  and  N_13
    2  A    between atoms: C_3  and  C_17
    3  A    between atoms: C_5  and  C_18
    4  A    between atoms: C_12  and  C_28
    5  A    between atoms: C_17  and  C_29
    6  A    between atoms: C_18  and  C_29
                            x       y       z     vdW  Elec       q    Type
                         _______ _______ _______ _____ _____    ______ ____

>  <TORSDO>
F 6

$$$$
