=
 OpenBabel11052421403D

 32 36  0  0  1  0  0  0  0  0999 V2000
  188.8550  172.8020  141.0720 C   0  0  0  0  0  3  0  0  0  0  0  0
  189.9740  172.2460  141.6910 C   0  0  0  0  0  3  0  0  0  0  0  0
  188.4380  174.0890  141.4130 C   0  0  0  0  0  3  0  0  0  0  0  0
  189.1270  174.8410  142.3790 C   0  0  0  0  0  0  0  0  0  0  0  0
  190.6800  172.9810  142.6420 C   0  0  0  0  0  3  0  0  0  0  0  0
  190.2710  174.2780  142.9950 C   0  0  0  0  0  0  0  0  0  0  0  0
  191.7030  175.3120  146.3710 N   0  0  0  0  0  0  0  0  0  0  0  0
  192.9970  175.7480  145.9460 C   0  0  0  0  0  0  0  0  0  0  0  0
  194.6910  176.1540  144.6760 C   0  0  0  0  0  0  0  0  0  0  0  0
  191.0980  175.0590  143.9720 C   0  0  2  0  0  3  0  0  0  0  0  0
  195.0090  176.5080  145.9400 N   0  0  0  0  0  0  0  0  0  0  0  0
  193.9660  176.2580  146.7260 N   0  0  0  0  0  2  0  0  0  0  0  0
  192.5880  175.0660  143.5600 C   0  0  0  0  0  2  0  0  0  0  0  0
  191.2650  175.4790  147.7470 C   0  0  0  0  0  1  0  0  0  0  0  0
  195.6200  176.2580  143.5180 C   0  0  0  0  0  1  0  0  0  0  0  0
  190.8700  174.5690  145.4210 C   0  0  0  0  0  2  0  0  0  0  0  0
  193.4030  175.6770  144.6510 C   0  0  0  0  0  0  0  0  0  0  0  0
  184.0490  178.3110  142.1770 C   0  0  0  0  0  2  0  0  0  0  0  0
  188.8870  177.2890  141.8340 C   0  0  0  0  0  2  0  0  0  0  0  0
  186.2920  176.7410  142.9610 C   0  0  2  0  0  3  0  0  0  0  0  0
  187.5790  177.6410  141.1330 C   0  0  0  0  0  2  0  0  0  0  0  0
  185.3190  178.1740  141.3180 C   0  0  0  0  0  2  0  0  0  0  0  0
  188.6450  176.1560  142.7210 N   0  0  0  0  0  0  0  0  0  0  0  0
  184.3160  178.2140  143.6780 C   0  0  1  0  0  3  0  0  0  0  0  0
  186.5250  177.9260  142.1100 N   0  0  1  0  0  0  0  0  0  0  0  0
  185.2040  177.0070  144.0090 C   0  0  0  0  0  2  0  0  0  0  0  0
  187.5730  176.3350  143.6930 C   0  0  0  0  0  2  0  0  0  0  0  0
  184.9290  179.5080  144.1930 C   0  0  0  0  0  2  0  0  0  0  0  0
  185.7630  179.2430  145.4310 C   0  0  0  0  0  2  0  0  0  0  0  0
  184.8430  178.9540  146.5990 C   0  0  0  0  0  2  0  0  0  0  0  0
  186.9740  177.8150  147.2130 C   0  0  0  0  0  1  0  0  0  0  0  0
  185.5760  178.1790  147.6800 C   0  0  0  0  0  2  0  0  0  0  0  0
  1  3  2  0  0  0  0
  1  2  1  0  0  0  0
  2  5  2  0  0  0  0
  3  4  1  0  0  0  0
  4 23  1  0  0  0  0
  4  6  2  0  0  0  0
  5  6  1  0  0  0  0
  7 14  1  0  0  0  0
  8  7  1  0  0  0  0
  8 12  1  0  0  0  0
  9 11  2  0  0  0  0
 10  6  1  6  0  0  0
 10 16  1  0  0  0  0
 11 12  1  0  0  0  0
 13 10  1  0  0  0  0
 13 17  1  0  0  0  0
 15  9  1  0  0  0  0
 16  7  1  0  0  0  0
 17  9  1  0  0  0  0
 17  8  2  0  0  0  0
 18 24  1  0  0  0  0
 19 23  1  0  0  0  0
 20 27  1  1  0  0  0
 20 26  1  0  0  0  0
 21 19  1  0  0  0  0
 22 25  1  0  0  0  0
 22 18  1  0  0  0  0
 23 27  1  0  0  0  0
 24 26  1  0  0  0  0
 24 28  1  6  0  0  0
 25 21  1  6  0  0  0
 25 20  1  0  0  0  0
 28 29  1  0  0  0  0
 29 30  1  0  0  0  0
 30 32  1  0  0  0  0
 31 32  1  0  0  0  0
M  END
>  <MODEL>
1

>  <REMARK>
 VINA RESULT:      -7.8      0.000      0.000
  Name = 
  6 active torsions:
  status: ('A' for Active; 'I' for Inactive)
    1  A    between atoms: C_10  and  C_20
    2  A    between atoms: C_10  and  C_24
    3  A    between atoms: N_14  and  C_15
    4  A    between atoms: C_16  and  C_26
    5  A    between atoms: C_17  and  C_20
    6  A    between atoms: C_19  and  C_24
                            x       y       z     vdW  Elec       q    Type
                         _______ _______ _______ _____ _____    ______ ____

>  <TORSDO>
F 6

$$$$
=
 OpenBabel11052421403D

 32 36  0  0  1  0  0  0  0  0999 V2000
  193.5290  176.5890  146.8290 C   0  0  0  0  0  3  0  0  0  0  0  0
  194.4720  175.6870  146.3390 C   0  0  0  0  0  3  0  0  0  0  0  0
  192.1730  176.3950  146.5630 C   0  0  0  0  0  3  0  0  0  0  0  0
  191.7360  175.2990  145.8000 C   0  0  0  0  0  0  0  0  0  0  0  0
  194.0570  174.5850  145.5920 C   0  0  0  0  0  3  0  0  0  0  0  0
  192.6960  174.3770  145.3170 C   0  0  0  0  0  0  0  0  0  0  0  0
  191.7840  172.2090  142.3190 N   0  0  0  0  0  0  0  0  0  0  0  0
  192.2860  170.9540  142.7830 C   0  0  0  0  0  0  0  0  0  0  0  0
  193.2650  169.4890  144.0260 C   0  0  0  0  0  0  0  0  0  0  0  0
  192.2880  173.1430  144.5680 C   0  0  2  0  0  3  0  0  0  0  0  0
  192.8260  168.8750  142.9060 N   0  0  0  0  0  0  0  0  0  0  0  0
  192.2220  169.7770  142.1370 N   0  0  0  0  0  0  0  0  0  0  0  0
  193.2320  171.9610  144.8850 C   0  0  0  0  0  2  0  0  0  0  0  0
  191.0360  172.3090  141.0760 C   0  0  0  0  0  1  0  0  0  0  0  0
  194.0190  168.8080  145.1140 C   0  0  0  0  0  1  0  0  0  0  0  0
  192.1520  173.4230  143.0530 C   0  0  0  0  0  2  0  0  0  0  0  0
  192.9190  170.8180  143.9790 C   0  0  1  0  0  3  0  0  0  0  0  0
  186.3970  178.3250  146.2560 C   0  0  0  0  0  2  0  0  0  0  0  0
  189.4620  174.4350  146.4560 C   0  0  0  0  0  2  0  0  0  0  0  0
  188.7560  177.0040  145.3590 C   0  0  2  0  0  3  0  0  0  0  0  0
  188.6040  175.4540  147.1980 C   0  0  0  0  0  2  0  0  0  0  0  0
  187.1210  177.2470  147.0820 C   0  0  0  0  0  2  0  0  0  0  0  0
  190.3280  175.1510  145.5260 N   0  0  0  0  0  0  0  0  0  0  0  0
  186.5300  178.1270  144.7470 C   0  0  1  0  0  3  0  0  0  0  0  0
  187.8360  176.2740  146.2560 N   0  0  1  0  0  0  0  0  0  0  0  0
  187.9870  177.8620  144.3450 C   0  0  0  0  0  2  0  0  0  0  0  0
  189.6490  176.0330  144.5850 C   0  0  0  0  0  2  0  0  0  0  0  0
  185.6160  177.0060  144.2770 C   0  0  0  0  0  2  0  0  0  0  0  0
  185.7820  176.7760  142.7870 C   0  0  0  0  0  2  0  0  0  0  0  0
  185.0340  177.8520  142.0300 C   0  0  0  0  0  2  0  0  0  0  0  0
  187.0690  177.6080  140.6120 C   0  0  0  0  0  1  0  0  0  0  0  0
  185.6110  178.0280  140.6350 C   0  0  0  0  0  2  0  0  0  0  0  0
  2  1  2  0  0  0  0
  3  1  1  0  0  0  0
  4  3  2  0  0  0  0
  5  2  1  0  0  0  0
  6  5  2  0  0  0  0
  6  4  1  0  0  0  0
  7  8  1  0  0  0  0
  7 16  1  0  0  0  0
  8 17  1  0  0  0  0
  9 15  1  0  0  0  0
 10 13  1  0  0  0  0
 10  6  1  1  0  0  0
 11  9  2  0  0  0  0
 12  8  2  0  0  0  0
 12 11  1  0  0  0  0
 14  7  1  0  0  0  0
 16 10  1  0  0  0  0
 17  9  1  0  0  0  0
 17 13  1  6  0  0  0
 18 22  1  0  0  0  0
 19 21  1  0  0  0  0
 20 26  1  6  0  0  0
 20 25  1  0  0  0  0
 23  4  1  0  0  0  0
 23 19  1  0  0  0  0
 24 28  1  1  0  0  0
 24 18  1  0  0  0  0
 25 22  1  1  0  0  0
 25 21  1  0  0  0  0
 26 24  1  0  0  0  0
 27 20  1  0  0  0  0
 27 23  1  0  0  0  0
 29 28  1  0  0  0  0
 30 29  1  0  0  0  0
 31 32  1  0  0  0  0
 32 30  1  0  0  0  0
M  END
>  <MODEL>
2

>  <REMARK>
 VINA RESULT:      -7.3      2.953      5.488
  Name = 
  6 active torsions:
  status: ('A' for Active; 'I' for Inactive)
    1  A    between atoms: C_10  and  C_20
    2  A    between atoms: C_10  and  C_24
    3  A    between atoms: N_14  and  C_15
    4  A    between atoms: C_16  and  C_26
    5  A    between atoms: C_17  and  C_20
    6  A    between atoms: C_19  and  C_24
                            x       y       z     vdW  Elec       q    Type
                         _______ _______ _______ _____ _____    ______ ____

>  <TORSDO>
F 6

$$$$
=
 OpenBabel11052421403D

 32 36  0  0  1  0  0  0  0  0999 V2000
  190.6640  174.9120  147.7510 C   0  0  0  0  0  3  0  0  0  0  0  0
  189.2840  174.9360  147.5530 C   0  0  0  0  0  3  0  0  0  0  0  0
  191.5220  175.3170  146.7280 C   0  0  0  0  0  3  0  0  0  0  0  0
  191.0180  175.7500  145.4900 C   0  0  0  0  0  0  0  0  0  0  0  0
  188.7640  175.3760  146.3360 C   0  0  0  0  0  3  0  0  0  0  0  0
  189.6160  175.7870  145.2980 C   0  0  0  0  0  0  0  0  0  0  0  0
  188.0740  175.6910  141.8150 N   0  0  0  0  0  0  0  0  0  0  0  0
  187.2150  176.8290  141.9140 C   0  0  0  0  0  0  0  0  0  0  0  0
  186.1740  178.5260  142.7420 C   0  0  0  0  0  0  0  0  0  0  0  0
  189.0130  176.3170  144.0320 C   0  0  2  0  0  3  0  0  0  0  0  0
  185.7740  178.3610  141.4620 N   0  0  0  0  0  0  0  0  0  0  0  0
  186.4150  177.3150  140.9490 N   0  0  0  0  0  0  0  0  0  0  0  0
  187.7960  177.2220  144.3300 C   0  0  0  0  0  2  0  0  0  0  0  0
  188.2340  174.9730  140.5610 C   0  0  0  0  0  1  0  0  0  0  0  0
  185.6510  179.5800  143.6540 C   0  0  0  0  0  1  0  0  0  0  0  0
  188.6920  175.1740  143.0400 C   0  0  0  0  0  2  0  0  0  0  0  0
  187.1070  177.5660  143.0510 C   0  0  1  0  0  3  0  0  0  0  0  0
  196.6610  174.5180  143.3670 C   0  0  0  0  0  2  0  0  0  0  0  0
  192.7680  177.3280  144.5970 C   0  0  0  0  0  2  0  0  0  0  0  0
  193.8520  174.7980  143.7440 C   0  0  2  0  0  3  0  0  0  0  0  0
  194.2000  176.8910  144.8860 C   0  0  0  0  0  2  0  0  0  0  0  0
  196.0390  175.6050  144.2610 C   0  0  0  0  0  2  0  0  0  0  0  0
  191.9420  176.1340  144.4510 N   0  0  0  0  0  0  0  0  0  0  0  0
  195.7770  174.1210  142.1860 C   0  0  1  0  0  3  0  0  0  0  0  0
  194.6990  176.0060  143.8310 N   0  0  1  0  0  0  0  0  0  0  0  0
  194.3340  173.8520  142.6360 C   0  0  0  0  0  2  0  0  0  0  0  0
  192.3970  175.1710  143.4560 C   0  0  0  0  0  2  0  0  0  0  0  0
  195.8270  175.1870  141.1030 C   0  0  0  0  0  2  0  0  0  0  0  0
  197.2600  175.6120  140.8440 C   0  0  0  0  0  2  0  0  0  0  0  0
  197.8330  174.7740  139.7200 C   0  0  0  0  0  2  0  0  0  0  0  0
  197.3580  175.3900  137.3520 C   0  0  0  0  0  1  0  0  0  0  0  0
  196.8400  174.6580  138.5770 C   0  0  0  0  0  2  0  0  0  0  0  0
  2  1  1  0  0  0  0
  3  1  2  0  0  0  0
  4  3  1  0  0  0  0
  5  2  2  0  0  0  0
  6  4  2  0  0  0  0
  6  5  1  0  0  0  0
  7  8  1  0  0  0  0
  7 16  1  0  0  0  0
  8 17  1  0  0  0  0
  9 17  1  0  0  0  0
  9 15  1  0  0  0  0
 10 13  1  0  0  0  0
 10  6  1  1  0  0  0
 11  9  2  0  0  0  0
 12 11  1  0  0  0  0
 12  8  2  0  0  0  0
 14  7  1  0  0  0  0
 16 10  1  0  0  0  0
 17 13  1  1  0  0  0
 18 22  1  0  0  0  0
 19 21  1  0  0  0  0
 20 26  1  6  0  0  0
 20 25  1  0  0  0  0
 23 19  1  0  0  0  0
 23  4  1  0  0  0  0
 24 28  1  6  0  0  0
 24 26  1  0  0  0  0
 24 18  1  0  0  0  0
 25 22  1  1  0  0  0
 25 21  1  0  0  0  0
 27 20  1  0  0  0  0
 27 23  1  0  0  0  0
 29 28  1  0  0  0  0
 30 29  1  0  0  0  0
 31 32  1  0  0  0  0
 32 30  1  0  0  0  0
M  END
>  <MODEL>
3

>  <REMARK>
 VINA RESULT:      -6.9      2.331      9.003
  Name = 
  6 active torsions:
  status: ('A' for Active; 'I' for Inactive)
    1  A    between atoms: C_10  and  C_20
    2  A    between atoms: C_10  and  C_24
    3  A    between atoms: N_14  and  C_15
    4  A    between atoms: C_16  and  C_26
    5  A    between atoms: C_17  and  C_20
    6  A    between atoms: C_19  and  C_24
                            x       y       z     vdW  Elec       q    Type
                         _______ _______ _______ _____ _____    ______ ____

>  <TORSDO>
F 6

$$$$
=
 OpenBabel11052421403D

 32 36  0  0  1  0  0  0  0  0999 V2000
  194.4220  176.0530  146.5630 C   0  0  0  0  0  3  0  0  0  0  0  0
  194.8650  175.0360  145.7170 C   0  0  0  0  0  3  0  0  0  0  0  0
  193.2870  176.7910  146.2300 C   0  0  0  0  0  3  0  0  0  0  0  0
  192.5760  176.5320  145.0470 C   0  0  0  0  0  0  0  0  0  0  0  0
  194.1640  174.7530  144.5450 C   0  0  0  0  0  3  0  0  0  0  0  0
  193.0190  175.4890  144.1980 C   0  0  0  0  0  0  0  0  0  0  0  0
  192.4660  174.3400  140.6070 N   0  0  0  0  0  0  0  0  0  0  0  0
  191.2330  173.6380  140.7790 C   0  0  0  0  0  0  0  0  0  0  0  0
  189.5120  172.7530  141.7290 C   0  0  0  0  0  0  0  0  0  0  0  0
  192.2580  175.1060  142.9640 C   0  0  2  0  0  3  0  0  0  0  0  0
  189.4610  172.4780  140.4080 N   0  0  0  0  0  0  0  0  0  0  0  0
  190.5210  173.0220  139.8200 N   0  0  0  0  0  0  0  0  0  0  0  0
  191.2240  173.9990  143.2690 C   0  0  0  0  0  2  0  0  0  0  0  0
  193.0440  174.5370  139.2870 C   0  0  0  0  0  1  0  0  0  0  0  0
  188.5090  172.2820  142.7230 C   0  0  0  0  0  1  0  0  0  0  0  0
  193.2130  174.7440  141.8030 C   0  0  0  0  0  2  0  0  0  0  0  0
  190.6300  173.5070  141.9900 C   0  0  1  0  0  3  0  0  0  0  0  0
  186.8820  176.0970  142.7530 C   0  0  0  0  0  2  0  0  0  0  0  0
  191.3640  178.0860  143.4780 C   0  0  0  0  0  2  0  0  0  0  0  0
  189.1750  176.4570  144.4040 C   0  0  2  0  0  3  0  0  0  0  0  0
  190.3890  177.3820  142.5400 C   0  0  0  0  0  2  0  0  0  0  0  0
  188.2600  176.5010  142.2000 C   0  0  0  0  0  2  0  0  0  0  0  0
  191.4230  177.3380  144.7280 N   0  0  0  0  0  0  0  0  0  0  0  0
  186.6230  176.6050  144.1710 C   0  0  1  0  0  3  0  0  0  0  0  0
  189.0690  177.2500  143.1620 N   0  0  1  0  0  0  0  0  0  0  0  0
  187.8120  176.3110  145.0950 C   0  0  0  0  0  2  0  0  0  0  0  0
  190.1430  177.1130  145.3900 C   0  0  0  0  0  2  0  0  0  0  0  0
  186.2940  178.0900  144.1500 C   0  0  0  0  0  2  0  0  0  0  0  0
  184.7920  178.3000  144.1560 C   0  0  0  0  0  2  0  0  0  0  0  0
  184.3960  179.0390  145.4170 C   0  0  0  0  0  2  0  0  0  0  0  0
  185.4900  178.6050  147.6140 C   0  0  0  0  0  1  0  0  0  0  0  0
  184.4520  178.1150  146.6210 C   0  0  0  0  0  2  0  0  0  0  0  0
  2  1  2  0  0  0  0
  3  1  1  0  0  0  0
  4  3  2  0  0  0  0
  5  2  1  0  0  0  0
  6  5  2  0  0  0  0
  6  4  1  0  0  0  0
  7  8  1  0  0  0  0
  7 16  1  0  0  0  0
  8 17  1  0  0  0  0
  9 17  1  0  0  0  0
  9 15  1  0  0  0  0
 10 13  1  0  0  0  0
 10  6  1  1  0  0  0
 11  9  2  0  0  0  0
 12 11  1  0  0  0  0
 12  8  2  0  0  0  0
 14  7  1  0  0  0  0
 16 10  1  0  0  0  0
 17 13  1  1  0  0  0
 18 24  1  0  0  0  0
 19 23  1  0  0  0  0
 20 26  1  1  0  0  0
 20 27  1  0  0  0  0
 21 25  1  0  0  0  0
 21 19  1  0  0  0  0
 22 18  1  0  0  0  0
 23  4  1  0  0  0  0
 23 27  1  0  0  0  0
 24 28  1  6  0  0  0
 24 26  1  0  0  0  0
 25 22  1  6  0  0  0
 25 20  1  0  0  0  0
 28 29  1  0  0  0  0
 29 30  1  0  0  0  0
 30 32  1  0  0  0  0
 32 31  1  0  0  0  0
M  END
>  <MODEL>
4

>  <REMARK>
 VINA RESULT:      -6.9      2.143      4.976
  Name = 
  6 active torsions:
  status: ('A' for Active; 'I' for Inactive)
    1  A    between atoms: C_10  and  C_20
    2  A    between atoms: C_10  and  C_24
    3  A    between atoms: N_14  and  C_15
    4  A    between atoms: C_16  and  C_26
    5  A    between atoms: C_17  and  C_20
    6  A    between atoms: C_19  and  C_24
                            x       y       z     vdW  Elec       q    Type
                         _______ _______ _______ _____ _____    ______ ____

>  <TORSDO>
F 6

$$$$
=
 OpenBabel11052421403D

 32 36  0  0  1  0  0  0  0  0999 V2000
  189.6740  172.8550  139.7890 C   0  0  0  0  0  3  0  0  0  0  0  0
  188.5500  173.6550  139.5910 C   0  0  0  0  0  3  0  0  0  0  0  0
  190.5020  173.0760  140.8900 C   0  0  0  0  0  3  0  0  0  0  0  0
  190.2250  174.1020  141.8090 C   0  0  0  0  0  0  0  0  0  0  0  0
  188.2490  174.6690  140.5000 C   0  0  0  0  0  3  0  0  0  0  0  0
  189.0740  174.9030  141.6120 C   0  0  0  0  0  0  0  0  0  0  0  0
  187.0300  177.7540  143.0990 N   0  0  0  0  0  0  0  0  0  0  0  0
  187.2100  177.4650  144.4870 C   0  0  0  0  0  0  0  0  0  0  0  0
  187.8220  176.4560  146.2920 C   0  0  0  0  0  0  0  0  0  0  0  0
  188.6770  175.9580  142.6010 C   0  0  2  0  0  3  0  0  0  0  0  0
  187.1020  177.5470  146.6340 N   0  0  0  0  0  0  0  0  0  0  0  0
  186.7230  178.1700  145.5220 N   0  0  0  0  0  2  0  0  0  0  0  0
  188.5020  175.3590  144.0150 C   0  0  0  0  0  2  0  0  0  0  0  0
  186.3420  178.9580  142.6630 C   0  0  0  0  0  1  0  0  0  0  0  0
  188.3910  175.4880  147.2690 C   0  0  0  0  0  1  0  0  0  0  0  0
  187.4360  176.7450  142.1160 C   0  0  0  0  0  2  0  0  0  0  0  0
  187.9180  176.3890  144.9230 C   0  0  0  0  0  0  0  0  0  0  0  0
  196.2030  173.9570  143.2600 C   0  0  0  0  0  2  0  0  0  0  0  0
  191.3380  173.2640  143.9080 C   0  0  0  0  0  2  0  0  0  0  0  0
  193.5160  174.7100  142.6950 C   0  0  2  0  0  3  0  0  0  0  0  0
  192.7190  172.6590  143.6770 C   0  0  0  0  0  2  0  0  0  0  0  0
  195.0100  172.9990  143.4290 C   0  0  0  0  0  2  0  0  0  0  0  0
  191.1230  174.3130  142.9180 N   0  0  0  0  0  0  0  0  0  0  0  0
  195.8470  175.4220  143.5000 C   0  0  1  0  0  3  0  0  0  0  0  0
  193.7570  173.6910  143.7370 N   0  0  1  0  0  0  0  0  0  0  0  0
  194.5760  175.8190  142.7380 C   0  0  0  0  0  2  0  0  0  0  0  0
  192.1400  175.3560  142.8730 C   0  0  0  0  0  2  0  0  0  0  0  0
  195.7050  175.6970  144.9900 C   0  0  0  0  0  2  0  0  0  0  0  0
  194.9360  176.9830  145.2210 C   0  0  0  0  0  2  0  0  0  0  0  0
  194.1770  176.8820  146.5270 C   0  0  0  0  0  2  0  0  0  0  0  0
  191.8170  176.0880  146.4130 C   0  0  0  0  0  1  0  0  0  0  0  0
  193.2700  175.6630  146.5290 C   0  0  0  0  0  2  0  0  0  0  0  0
  1  3  1  0  0  0  0
  2  1  2  0  0  0  0
  2  5  1  0  0  0  0
  3  4  2  0  0  0  0
  4 23  1  0  0  0  0
  5  6  2  0  0  0  0
  6  4  1  0  0  0  0
  7  8  1  0  0  0  0
  8 17  2  0  0  0  0
  8 12  1  0  0  0  0
  9 11  2  0  0  0  0
  9 15  1  0  0  0  0
 10  6  1  6  0  0  0
 10 13  1  0  0  0  0
 12 11  1  0  0  0  0
 13 17  1  0  0  0  0
 14  7  1  0  0  0  0
 16 10  1  0  0  0  0
 16  7  1  0  0  0  0
 17  9  1  0  0  0  0
 18 22  1  0  0  0  0
 18 24  1  0  0  0  0
 20 26  1  1  0  0  0
 20 27  1  0  0  0  0
 20 25  1  0  0  0  0
 21 25  1  0  0  0  0
 21 19  1  0  0  0  0
 23 19  1  0  0  0  0
 24 28  1  1  0  0  0
 25 22  1  6  0  0  0
 26 24  1  0  0  0  0
 27 23  1  0  0  0  0
 28 29  1  0  0  0  0
 29 30  1  0  0  0  0
 30 32  1  0  0  0  0
 31 32  1  0  0  0  0
M  END
>  <MODEL>
5

>  <REMARK>
 VINA RESULT:      -6.7      2.079      7.231
  Name = 
  6 active torsions:
  status: ('A' for Active; 'I' for Inactive)
    1  A    between atoms: C_10  and  C_20
    2  A    between atoms: C_10  and  C_24
    3  A    between atoms: N_14  and  C_15
    4  A    between atoms: C_16  and  C_26
    5  A    between atoms: C_17  and  C_20
    6  A    between atoms: C_19  and  C_24
                            x       y       z     vdW  Elec       q    Type
                         _______ _______ _______ _____ _____    ______ ____

>  <TORSDO>
F 6

$$$$
=
 OpenBabel11052421403D

 32 36  0  0  1  0  0  0  0  0999 V2000
  190.2410  171.7780  139.8000 C   0  0  0  0  0  3  0  0  0  0  0  0
  188.9520  172.2820  139.9710 C   0  0  0  0  0  3  0  0  0  0  0  0
  191.3140  172.3660  140.4690 C   0  0  0  0  0  3  0  0  0  0  0  0
  191.1200  173.4690  141.3180 C   0  0  0  0  0  0  0  0  0  0  0  0
  188.7370  173.3660  140.8210 C   0  0  0  0  0  3  0  0  0  0  0  0
  189.8080  173.9680  141.5010 C   0  0  0  0  0  0  0  0  0  0  0  0
  188.0530  177.0420  142.9120 N   0  0  0  0  0  0  0  0  0  0  0  0
  188.2280  176.7840  144.3070 C   0  0  0  0  0  0  0  0  0  0  0  0
  188.7730  175.7860  146.1390 C   0  0  0  0  0  0  0  0  0  0  0  0
  189.5230  175.0880  142.4570 C   0  0  2  0  0  3  0  0  0  0  0  0
  188.1600  176.9490  146.4510 N   0  0  0  0  0  0  0  0  0  0  0  0
  187.8220  177.5660  145.3230 N   0  0  0  0  0  2  0  0  0  0  0  0
  189.3170  174.5550  143.8930 C   0  0  0  0  0  2  0  0  0  0  0  0
  187.4690  178.2880  142.4420 C   0  0  0  0  0  1  0  0  0  0  0  0
  189.2690  174.8040  147.1420 C   0  0  0  0  0  1  0  0  0  0  0  0
  188.3500  175.9670  141.9610 C   0  0  0  0  0  2  0  0  0  0  0  0
  188.8420  175.6640  144.7720 C   0  0  0  0  0  0  0  0  0  0  0  0
  192.7260  176.4160  146.4760 C   0  0  0  0  0  2  0  0  0  0  0  0
  192.6950  175.4120  141.6220 C   0  0  0  0  0  2  0  0  0  0  0  0
  192.3880  174.5470  144.3540 C   0  0  2  0  0  3  0  0  0  0  0  0
  192.3050  176.3520  142.7580 C   0  0  0  0  0  2  0  0  0  0  0  0
  192.3770  176.8350  145.0360 C   0  0  0  0  0  2  0  0  0  0  0  0
  192.2610  174.0640  141.9690 N   0  0  0  0  0  0  0  0  0  0  0  0
  193.5680  175.1450  146.5530 C   0  0  1  0  0  3  0  0  0  0  0  0
  192.8820  175.9010  144.0280 N   0  0  1  0  0  0  0  0  0  0  0  0
  192.9840  174.0340  145.6710 C   0  0  0  0  0  2  0  0  0  0  0  0
  192.7470  173.5550  143.2460 C   0  0  0  0  0  2  0  0  0  0  0  0
  195.0130  175.4430  146.1810 C   0  0  0  0  0  2  0  0  0  0  0  0
  195.7140  174.1780  145.7240 C   0  0  0  0  0  2  0  0  0  0  0  0
  196.8140  174.5420  144.7500 C   0  0  0  0  0  2  0  0  0  0  0  0
  196.7240  176.4530  143.1530 C   0  0  0  0  0  1  0  0  0  0  0  0
  196.2280  175.0480  143.4430 C   0  0  0  0  0  2  0  0  0  0  0  0
  1  2  2  0  0  0  0
  1  3  1  0  0  0  0
  2  5  1  0  0  0  0
  3  4  2  0  0  0  0
  4  6  1  0  0  0  0
  4 23  1  0  0  0  0
  5  6  2  0  0  0  0
  7  8  1  0  0  0  0
  8 17  2  0  0  0  0
  8 12  1  0  0  0  0
  9 11  2  0  0  0  0
  9 15  1  0  0  0  0
 10  6  1  6  0  0  0
 10 13  1  0  0  0  0
 12 11  1  0  0  0  0
 13 17  1  0  0  0  0
 14  7  1  0  0  0  0
 16 10  1  0  0  0  0
 16  7  1  0  0  0  0
 17  9  1  0  0  0  0
 18 24  1  0  0  0  0
 19 23  1  0  0  0  0
 19 21  1  0  0  0  0
 20 27  1  6  0  0  0
 20 26  1  0  0  0  0
 22 18  1  0  0  0  0
 23 27  1  0  0  0  0
 24 28  1  6  0  0  0
 25 21  1  6  0  0  0
 25 20  1  0  0  0  0
 25 22  1  0  0  0  0
 26 24  1  0  0  0  0
 29 28  1  0  0  0  0
 30 29  1  0  0  0  0
 31 32  1  0  0  0  0
 32 30  1  0  0  0  0
M  END
>  <MODEL>
6

>  <REMARK>
 VINA RESULT:      -6.7      2.343      7.020
  Name = 
  6 active torsions:
  status: ('A' for Active; 'I' for Inactive)
    1  A    between atoms: C_10  and  C_20
    2  A    between atoms: C_10  and  C_24
    3  A    between atoms: N_14  and  C_15
    4  A    between atoms: C_16  and  C_26
    5  A    between atoms: C_17  and  C_20
    6  A    between atoms: C_19  and  C_24
                            x       y       z     vdW  Elec       q    Type
                         _______ _______ _______ _____ _____    ______ ____

>  <TORSDO>
F 6

$$$$
=
 OpenBabel11052421403D

 32 36  0  0  1  0  0  0  0  0999 V2000
  193.7840  176.5880  146.7760 C   0  0  0  0  0  3  0  0  0  0  0  0
  194.7630  176.4600  145.7910 C   0  0  0  0  0  3  0  0  0  0  0  0
  192.4580  176.2680  146.4860 C   0  0  0  0  0  3  0  0  0  0  0  0
  192.0850  175.8180  145.2080 C   0  0  0  0  0  0  0  0  0  0  0  0
  194.4170  176.0010  144.5210 C   0  0  0  0  0  3  0  0  0  0  0  0
  193.0850  175.6750  144.2150 C   0  0  0  0  0  0  0  0  0  0  0  0
  193.6670  174.6960  140.5790 N   0  0  0  0  0  0  0  0  0  0  0  0
  192.8180  173.5480  140.5130 C   0  0  0  0  0  0  0  0  0  0  0  0
  191.4740  171.9750  141.1180 C   0  0  0  0  0  0  0  0  0  0  0  0
  192.7670  175.1210  142.8580 C   0  0  2  0  0  3  0  0  0  0  0  0
  191.7640  171.8100  139.8100 N   0  0  0  0  0  0  0  0  0  0  0  0
  192.5940  172.7790  139.4340 N   0  0  0  0  0  0  0  0  0  0  0  0
  192.2400  173.6720  142.9580 C   0  0  0  0  0  2  0  0  0  0  0  0
  194.3290  175.2140  139.3920 C   0  0  0  0  0  1  0  0  0  0  0  0
  190.5980  171.0630  141.9030 C   0  0  0  0  0  1  0  0  0  0  0  0
  193.9690  175.2670  141.8950 C   0  0  0  0  0  2  0  0  0  0  0  0
  192.1250  173.0890  141.5890 C   0  0  1  0  0  3  0  0  0  0  0  0
  186.4200  177.9750  146.2650 C   0  0  0  0  0  2  0  0  0  0  0  0
  189.9750  174.5580  145.7620 C   0  0  0  0  0  2  0  0  0  0  0  0
  188.8900  177.1480  145.1150 C   0  0  2  0  0  3  0  0  0  0  0  0
  189.0230  175.3190  146.6780 C   0  0  0  0  0  2  0  0  0  0  0  0
  187.3140  176.8890  146.8890 C   0  0  0  0  0  2  0  0  0  0  0  0
  190.6980  175.5250  144.9430 N   0  0  0  0  0  0  0  0  0  0  0  0
  186.5120  178.0400  144.7420 C   0  0  1  0  0  3  0  0  0  0  0  0
  188.1150  176.1660  145.9000 N   0  0  1  0  0  0  0  0  0  0  0  0
  187.9730  178.0440  144.2720 C   0  0  0  0  0  2  0  0  0  0  0  0
  189.8690  176.4440  144.1730 C   0  0  0  0  0  2  0  0  0  0  0  0
  185.7340  176.8930  144.1140 C   0  0  0  0  0  2  0  0  0  0  0  0
  185.8400  176.9460  142.6020 C   0  0  0  0  0  2  0  0  0  0  0  0
  185.1580  178.2000  142.0980 C   0  0  0  0  0  2  0  0  0  0  0  0
  182.8000  178.1680  141.2920 C   0  0  0  0  0  1  0  0  0  0  0  0
  183.6970  178.2220  142.5150 C   0  0  0  0  0  2  0  0  0  0  0  0
  2  1  2  0  0  0  0
  3  1  1  0  0  0  0
  4  3  2  0  0  0  0
  5  2  1  0  0  0  0
  6  5  2  0  0  0  0
  6  4  1  0  0  0  0
  7 16  1  0  0  0  0
  8  7  1  0  0  0  0
  8 17  1  0  0  0  0
  9 17  1  0  0  0  0
  9 15  1  0  0  0  0
 10 13  1  0  0  0  0
 10  6  1  1  0  0  0
 11  9  2  0  0  0  0
 12 11  1  0  0  0  0
 12  8  2  0  0  0  0
 14  7  1  0  0  0  0
 16 10  1  0  0  0  0
 17 13  1  1  0  0  0
 18 22  1  0  0  0  0
 19 21  1  0  0  0  0
 20 27  1  6  0  0  0
 20 25  1  0  0  0  0
 23  4  1  0  0  0  0
 23 19  1  0  0  0  0
 24 28  1  6  0  0  0
 24 18  1  0  0  0  0
 25 21  1  1  0  0  0
 25 22  1  0  0  0  0
 26 24  1  0  0  0  0
 26 20  1  0  0  0  0
 27 23  1  0  0  0  0
 29 28  1  0  0  0  0
 30 32  1  0  0  0  0
 30 29  1  0  0  0  0
 31 32  1  0  0  0  0
M  END
>  <MODEL>
7

>  <REMARK>
 VINA RESULT:      -6.7      2.484      5.503
  Name = 
  6 active torsions:
  status: ('A' for Active; 'I' for Inactive)
    1  A    between atoms: C_10  and  C_20
    2  A    between atoms: C_10  and  C_24
    3  A    between atoms: N_14  and  C_15
    4  A    between atoms: C_16  and  C_26
    5  A    between atoms: C_17  and  C_20
    6  A    between atoms: C_19  and  C_24
                            x       y       z     vdW  Elec       q    Type
                         _______ _______ _______ _____ _____    ______ ____

>  <TORSDO>
F 6

$$$$
=
 OpenBabel11052421403D

 32 36  0  0  1  0  0  0  0  0999 V2000
  192.2550  176.8870  147.7980 C   0  0  0  0  0  3  0  0  0  0  0  0
  191.1180  177.5020  148.3200 C   0  0  0  0  0  3  0  0  0  0  0  0
  192.1800  176.1950  146.5880 C   0  0  0  0  0  3  0  0  0  0  0  0
  190.9700  176.1030  145.8810 C   0  0  0  0  0  0  0  0  0  0  0  0
  189.9100  177.4350  147.6250 C   0  0  0  0  0  3  0  0  0  0  0  0
  189.8210  176.7430  146.4070 C   0  0  0  0  0  0  0  0  0  0  0  0
  186.1000  177.3070  145.8090 N   0  0  0  0  0  0  0  0  0  0  0  0
  186.1380  177.6190  144.4150 C   0  0  0  0  0  0  0  0  0  0  0  0
  186.9050  178.0370  142.4430 C   0  0  0  0  0  0  0  0  0  0  0  0
  188.5200  176.7530  145.6600 C   0  0  2  0  0  3  0  0  0  0  0  0
  185.5600  178.1510  142.4120 N   0  0  0  0  0  0  0  0  0  0  0  0
  185.0840  177.8940  143.6260 N   0  0  0  0  0  0  0  0  0  0  0  0
  188.6500  177.5240  144.3270 C   0  0  0  0  0  2  0  0  0  0  0  0
  184.8380  177.1610  146.5160 C   0  0  0  0  0  1  0  0  0  0  0  0
  187.7950  178.2820  141.2750 C   0  0  0  0  0  1  0  0  0  0  0  0
  187.3640  177.2680  146.5500 C   0  0  0  0  0  2  0  0  0  0  0  0
  187.2990  177.6840  143.7120 C   0  0  1  0  0  3  0  0  0  0  0  0
  193.7210  171.4080  143.0090 C   0  0  0  0  0  2  0  0  0  0  0  0
  191.5940  175.8630  143.4520 C   0  0  0  0  0  2  0  0  0  0  0  0
  191.9030  173.1420  144.3500 C   0  0  2  0  0  3  0  0  0  0  0  0
  192.8580  175.0430  143.2170 C   0  0  0  0  0  2  0  0  0  0  0  0
  193.8310  172.9420  142.9560 C   0  0  0  0  0  2  0  0  0  0  0  0
  190.9310  175.3560  144.6480 N   0  0  0  0  0  0  0  0  0  0  0  0
  192.2860  170.9050  143.1510 C   0  0  1  0  0  3  0  0  0  0  0  0
  192.5410  173.6170  143.1040 N   0  0  1  0  0  0  0  0  0  0  0  0
  191.5400  171.6540  144.2630 C   0  0  0  0  0  2  0  0  0  0  0  0
  190.6250  173.9310  144.6430 C   0  0  0  0  0  2  0  0  0  0  0  0
  191.5510  171.0150  141.8230 C   0  0  0  0  0  2  0  0  0  0  0  0
  190.0600  171.1660  142.0530 C   0  0  0  0  0  2  0  0  0  0  0  0
  189.5660  172.3980  141.3260 C   0  0  0  0  0  2  0  0  0  0  0  0
  188.1840  174.3820  141.9350 C   0  0  0  0  0  1  0  0  0  0  0  0
  188.2390  172.8650  141.9020 C   0  0  0  0  0  2  0  0  0  0  0  0
  1  2  1  0  0  0  0
  3  1  2  0  0  0  0
  4  6  2  0  0  0  0
  4  3  1  0  0  0  0
  5  2  2  0  0  0  0
  6  5  1  0  0  0  0
  7 14  1  0  0  0  0
  7 16  1  0  0  0  0
  8  7  1  0  0  0  0
  9 17  1  0  0  0  0
 10  6  1  1  0  0  0
 10 16  1  0  0  0  0
 11  9  2  0  0  0  0
 11 12  1  0  0  0  0
 12  8  2  0  0  0  0
 13 10  1  0  0  0  0
 15  9  1  0  0  0  0
 17 13  1  1  0  0  0
 17  8  1  0  0  0  0
 18 24  1  0  0  0  0
 19 23  1  0  0  0  0
 20 26  1  6  0  0  0
 20 27  1  0  0  0  0
 21 19  1  0  0  0  0
 22 18  1  0  0  0  0
 23  4  1  0  0  0  0
 24 28  1  6  0  0  0
 24 26  1  0  0  0  0
 25 22  1  1  0  0  0
 25 21  1  0  0  0  0
 25 20  1  0  0  0  0
 27 23  1  0  0  0  0
 28 29  1  0  0  0  0
 30 32  1  0  0  0  0
 30 29  1  0  0  0  0
 32 31  1  0  0  0  0
M  END
>  <MODEL>
8

>  <REMARK>
 VINA RESULT:      -6.5      1.962      7.640
  Name = 
  6 active torsions:
  status: ('A' for Active; 'I' for Inactive)
    1  A    between atoms: C_10  and  C_20
    2  A    between atoms: C_10  and  C_24
    3  A    between atoms: N_14  and  C_15
    4  A    between atoms: C_16  and  C_26
    5  A    between atoms: C_17  and  C_20
    6  A    between atoms: C_19  and  C_24
                            x       y       z     vdW  Elec       q    Type
                         _______ _______ _______ _____ _____    ______ ____

>  <TORSDO>
F 6

$$$$
=
 OpenBabel11052421403D

 32 36  0  0  1  0  0  0  0  0999 V2000
  193.9790  176.0310  142.5120 C   0  0  0  0  0  3  0  0  0  0  0  0
  194.2980  175.3450  141.3410 C   0  0  0  0  0  3  0  0  0  0  0  0
  192.7410  175.8280  143.1230 C   0  0  0  0  0  3  0  0  0  0  0  0
  191.8000  174.9410  142.5750 C   0  0  0  0  0  0  0  0  0  0  0  0
  193.3850  174.4480  140.7890 C   0  0  0  0  0  3  0  0  0  0  0  0
  192.1350  174.2340  141.3940 C   0  0  0  0  0  0  0  0  0  0  0  0
  189.5550  172.7730  139.0010 N   0  0  0  0  0  0  0  0  0  0  0  0
  189.9810  171.4080  139.0120 C   0  0  0  0  0  0  0  0  0  0  0  0
  191.1440  169.6440  139.4370 C   0  0  0  0  0  0  0  0  0  0  0  0
  191.2100  173.2110  140.8050 C   0  0  2  0  0  3  0  0  0  0  0  0
  190.1310  169.3000  138.6130 N   0  0  0  0  0  0  0  0  0  0  0  0
  189.4120  170.3860  138.3490 N   0  0  0  0  0  0  0  0  0  0  0  0
  191.9620  171.9010  140.4800 C   0  0  0  0  0  2  0  0  0  0  0  0
  188.3450  173.1800  138.3040 C   0  0  0  0  0  1  0  0  0  0  0  0
  192.1820  168.6970  139.9290 C   0  0  0  0  0  1  0  0  0  0  0  0
  190.4350  173.7840  139.5940 C   0  0  0  0  0  2  0  0  0  0  0  0
  191.0620  170.9860  139.7180 C   0  0  1  0  0  3  0  0  0  0  0  0
  188.3040  177.4120  146.9940 C   0  0  0  0  0  2  0  0  0  0  0  0
  190.3480  173.7980  144.2870 C   0  0  0  0  0  2  0  0  0  0  0  0
  189.4170  176.5140  144.5320 C   0  0  2  0  0  3  0  0  0  0  0  0
  190.2630  174.5360  145.6180 C   0  0  0  0  0  2  0  0  0  0  0  0
  189.2530  176.2040  146.8930 C   0  0  0  0  0  2  0  0  0  0  0  0
  190.5220  174.7810  143.2240 N   0  0  0  0  0  0  0  0  0  0  0  0
  187.4450  177.6170  145.7480 C   0  0  1  0  0  3  0  0  0  0  0  0
  189.1790  175.5220  145.6000 N   0  0  1  0  0  0  0  0  0  0  0  0
  188.2920  177.5550  144.4700 C   0  0  0  0  0  2  0  0  0  0  0  0
  189.5140  175.8320  143.1660 C   0  0  0  0  0  2  0  0  0  0  0  0
  186.3130  176.6010  145.7100 C   0  0  0  0  0  2  0  0  0  0  0  0
  185.1180  177.1090  146.4930 C   0  0  0  0  0  2  0  0  0  0  0  0
  185.0450  178.6160  146.3690 C   0  0  0  0  0  2  0  0  0  0  0  0
  184.4210  179.0990  144.0050 C   0  0  0  0  0  1  0  0  0  0  0  0
  183.9190  179.0250  145.4350 C   0  0  0  0  0  2  0  0  0  0  0  0
  1  3  1  0  0  0  0
  2  1  2  0  0  0  0
  4  3  2  0  0  0  0
  4 23  1  0  0  0  0
  5  2  1  0  0  0  0
  5  6  2  0  0  0  0
  6  4  1  0  0  0  0
  7  8  1  0  0  0  0
  7 16  1  0  0  0  0
  8 17  1  0  0  0  0
  9 17  1  0  0  0  0
  9 15  1  0  0  0  0
 10  6  1  6  0  0  0
 11  9  2  0  0  0  0
 12 11  1  0  0  0  0
 12  8  2  0  0  0  0
 13 10  1  0  0  0  0
 14  7  1  0  0  0  0
 16 10  1  0  0  0  0
 17 13  1  6  0  0  0
 19 21  1  0  0  0  0
 20 27  1  6  0  0  0
 20 25  1  0  0  0  0
 22 18  1  0  0  0  0
 23 19  1  0  0  0  0
 24 28  1  6  0  0  0
 24 18  1  0  0  0  0
 25 21  1  1  0  0  0
 25 22  1  0  0  0  0
 26 20  1  0  0  0  0
 26 24  1  0  0  0  0
 27 23  1  0  0  0  0
 28 29  1  0  0  0  0
 30 29  1  0  0  0  0
 31 32  1  0  0  0  0
 32 30  1  0  0  0  0
M  END
>  <MODEL>
9

>  <REMARK>
 VINA RESULT:      -6.5      2.990      6.043
  Name = 
  6 active torsions:
  status: ('A' for Active; 'I' for Inactive)
    1  A    between atoms: C_10  and  C_20
    2  A    between atoms: C_10  and  C_24
    3  A    between atoms: N_14  and  C_15
    4  A    between atoms: C_16  and  C_26
    5  A    between atoms: C_17  and  C_20
    6  A    between atoms: C_19  and  C_24
                            x       y       z     vdW  Elec       q    Type
                         _______ _______ _______ _____ _____    ______ ____

>  <TORSDO>
F 6

$$$$
