=
 OpenBabel11052417183D

 30 32  0  0  1  0  0  0  0  0999 V2000
  193.1140  172.3020  143.3850 O   0  0  0  0  0  0  0  0  0  0  0  0
  191.8790  171.9090  142.8680 C   0  0  0  0  0  2  0  0  0  0  0  0
  191.2160  173.0880  142.1910 C   0  0  0  0  0  2  0  0  0  0  0  0
  189.8490  173.3520  142.8020 C   0  0  0  0  0  2  0  0  0  0  0  0
  189.0610  174.3190  141.9350 C   0  0  0  0  0  2  0  0  0  0  0  0
  188.2340  176.9720  141.2760 O   0  0  0  0  0  0  0  0  0  0  0  0
  187.8650  176.5040  142.3870 C   0  0  0  0  0  0  0  0  0  0  0  0
  188.2380  175.1770  142.7720 N   0  0  0  0  0  2  0  0  0  0  0  0
  185.6120  177.0280  145.4270 C   0  0  0  0  0  2  0  0  0  0  0  0
  185.2390  178.9550  146.9700 C   0  0  0  0  0  1  0  0  0  0  0  0
  185.6200  177.4360  142.8860 C   0  0  1  0  0  3  0  0  0  0  0  0
  185.9190  178.5070  145.6900 C   0  0  2  0  0  3  0  0  0  0  0  0
  186.0190  176.5070  144.0320 C   0  0  1  0  0  3  0  0  0  0  0  0
  185.5250  179.4400  144.5410 C   0  0  0  0  0  2  0  0  0  0  0  0
  184.8930  178.7170  143.3470 C   0  0  0  0  0  2  0  0  0  0  0  0
  187.0800  177.3540  143.3320 C   0  0  1  0  0  3  0  0  0  0  0  0
  192.8910  172.4590  144.7510 C   0  0  0  0  0  2  0  0  0  0  0  0
  193.6300  173.6840  145.2580 C   0  0  0  0  0  2  0  0  0  0  0  0
  193.2390  174.8110  144.5290 O   0  0  0  0  0  0  0  0  0  0  0  0
  194.4550  176.8320  145.3380 C   0  0  0  0  0  2  0  0  0  0  0  0
  194.4180  175.7430  146.3950 C   0  0  0  0  0  2  0  0  0  0  0  0
  193.2650  175.8890  145.4240 C   0  0  0  0  0  0  0  0  0  0  0  0
  191.9650  176.2520  146.1510 C   0  0  0  0  0  2  0  0  0  0  0  0
  190.7510  176.2780  145.2230 C   0  0  1  0  0  3  0  0  0  0  0  0
  189.4600  175.8280  145.9230 C   0  0  2  0  0  3  0  0  0  0  0  0
  188.9110  176.8460  146.9170 C   0  0  0  0  0  1  0  0  0  0  0  0
  189.5830  174.4390  146.5410 C   0  0  0  0  0  2  0  0  0  0  0  0
  188.8880  174.3620  147.7500 O   0  0  0  0  0  1  0  0  0  0  0  0
  190.5870  177.6660  144.6250 C   0  0  0  0  0  2  0  0  0  0  0  0
  191.4220  177.7610  143.0200 S   0  0  0  0  0  1  0  0  0  0  0  0
  1 17  1  0  0  0  0
  2  1  1  0  0  0  0
  3  4  1  0  0  0  0
  3  2  1  0  0  0  0
  5  8  1  0  0  0  0
  5  4  1  0  0  0  0
  6  7  2  0  0  0  0
  7  8  1  0  0  0  0
  9 12  1  0  0  0  0
 11 16  1  0  0  0  0
 11 15  1  1  0  0  0
 11 13  1  0  0  0  0
 12 10  1  1  0  0  0
 13  9  1  1  0  0  0
 14 12  1  0  0  0  0
 15 14  1  0  0  0  0
 16  7  1  6  0  0  0
 16 13  1  0  0  0  0
 17 18  1  0  0  0  0
 19 18  1  0  0  0  0
 19 22  1  0  0  0  0
 20 22  1  0  0  0  0
 20 21  1  0  0  0  0
 22 23  1  0  0  0  0
 22 21  1  0  0  0  0
 24 29  1  1  0  0  0
 24 25  1  0  0  0  0
 24 23  1  0  0  0  0
 25 27  1  0  0  0  0
 25 26  1  1  0  0  0
 27 28  1  0  0  0  0
 30 29  1  0  0  0  0
M  END
>  <MODEL>
1

>  <REMARK>
 VINA RESULT:      -5.5      0.000      0.000
  Name = 
  15 active torsions:
  status: ('A' for Active; 'I' for Inactive)
    1  A    between atoms: C_2  and  C_18
    2  A    between atoms: C_2  and  C_22
    3  A    between atoms: C_4  and  C_23
    4  A    between atoms: C_7  and  C_16
    5  A    between atoms: C_7  and  C_30
    6  A    between atoms: O_10  and  C_19
    7  A    between atoms: O_10  and  C_25
    8  A    between atoms: N_13  and  C_27
    9  A    between atoms: O_15  and  C_16
   10  A    between atoms: O_15  and  C_26
   11  A    between atoms: C_18  and  C_20
   12  A    between atoms: C_18  and  C_28
   13  A    between atoms: C_19  and  C_28
   14  A    between atoms: C_25  and  C_26
   15  A    between atoms: C_27  and  C_30
                            x       y       z     vdW  Elec       q    Type
                         _______ _______ _______ _____ _____    ______ ____

>  <TORSDO>
F 15

$$$$
=
 OpenBabel11052417183D

 30 32  0  0  1  0  0  0  0  0999 V2000
  190.2560  172.9610  143.2720 O   0  0  0  0  0  0  0  0  0  0  0  0
  189.4720  171.9840  142.6590 C   0  0  0  0  0  2  0  0  0  0  0  0
  188.5680  172.6310  141.6330 C   0  0  0  0  0  2  0  0  0  0  0  0
  189.3300  173.6820  140.8410 C   0  0  0  0  0  2  0  0  0  0  0  0
  188.4410  174.8840  140.5700 C   0  0  0  0  0  2  0  0  0  0  0  0
  187.6900  177.5290  141.3440 O   0  0  0  0  0  0  0  0  0  0  0  0
  187.3610  176.5810  142.1070 C   0  0  0  0  0  0  0  0  0  0  0  0
  187.6980  175.2310  141.7710 N   0  0  0  0  0  2  0  0  0  0  0  0
  185.6900  178.9120  144.6300 C   0  0  0  0  0  2  0  0  0  0  0  0
  183.9630  178.5640  146.4000 C   0  0  0  0  0  1  0  0  0  0  0  0
  187.6700  177.2770  144.4690 C   0  0  1  0  0  3  0  0  0  0  0  0
  184.8610  177.8710  145.3940 C   0  0  2  0  0  3  0  0  0  0  0  0
  186.8300  178.3400  143.7620 C   0  0  1  0  0  3  0  0  0  0  0  0
  185.7000  176.8010  146.0990 C   0  0  0  0  0  2  0  0  0  0  0  0
  187.2100  176.9780  145.9120 C   0  0  0  0  0  2  0  0  0  0  0  0
  186.6610  176.8670  143.3960 C   0  0  1  0  0  3  0  0  0  0  0  0
  189.7950  173.0120  144.5850 C   0  0  0  0  0  2  0  0  0  0  0  0
  189.8890  174.4320  145.1110 C   0  0  0  0  0  2  0  0  0  0  0  0
  190.2480  174.4170  146.4620 O   0  0  0  0  0  0  0  0  0  0  0  0
  190.8720  176.6950  147.2590 C   0  0  0  0  0  2  0  0  0  0  0  0
  190.9760  176.5850  145.7490 C   0  0  0  0  0  2  0  0  0  0  0  0
  191.2600  175.3740  146.6140 C   0  0  0  0  0  0  0  0  0  0  0  0
  192.7150  174.9130  146.4700 C   0  0  0  0  0  2  0  0  0  0  0  0
  193.2910  175.1870  145.0810 C   0  0  1  0  0  3  0  0  0  0  0  0
  194.6220  175.9520  145.1320 C   0  0  2  0  0  3  0  0  0  0  0  0
  194.5830  177.1990  146.0090 C   0  0  0  0  0  1  0  0  0  0  0  0
  195.1780  176.2510  143.7440 C   0  0  0  0  0  2  0  0  0  0  0  0
  196.4000  176.9220  143.8240 O   0  0  0  0  0  1  0  0  0  0  0  0
  193.4450  173.8810  144.3190 C   0  0  0  0  0  2  0  0  0  0  0  0
  194.0830  172.5860  145.4140 S   0  0  0  0  0  1  0  0  0  0  0  0
  1 17  1  0  0  0  0
  2  1  1  0  0  0  0
  3  2  1  0  0  0  0
  4  3  1  0  0  0  0
  5  4  1  0  0  0  0
  5  8  1  0  0  0  0
  6  7  2  0  0  0  0
  8  7  1  0  0  0  0
  9 12  1  0  0  0  0
 11 15  1  1  0  0  0
 12 14  1  0  0  0  0
 12 10  1  1  0  0  0
 13 11  1  0  0  0  0
 13  9  1  1  0  0  0
 15 14  1  0  0  0  0
 16  7  1  6  0  0  0
 16 13  1  0  0  0  0
 16 11  1  0  0  0  0
 17 18  1  0  0  0  0
 18 19  1  0  0  0  0
 19 22  1  0  0  0  0
 21 22  1  0  0  0  0
 21 20  1  0  0  0  0
 22 20  1  0  0  0  0
 23 22  1  0  0  0  0
 24 29  1  1  0  0  0
 24 25  1  0  0  0  0
 24 23  1  0  0  0  0
 25 26  1  6  0  0  0
 27 28  1  0  0  0  0
 27 25  1  0  0  0  0
 29 30  1  0  0  0  0
M  END
>  <MODEL>
2

>  <REMARK>
 VINA RESULT:      -5.5      1.914      3.654
  Name = 
  15 active torsions:
  status: ('A' for Active; 'I' for Inactive)
    1  A    between atoms: C_2  and  C_18
    2  A    between atoms: C_2  and  C_22
    3  A    between atoms: C_4  and  C_23
    4  A    between atoms: C_7  and  C_16
    5  A    between atoms: C_7  and  C_30
    6  A    between atoms: O_10  and  C_19
    7  A    between atoms: O_10  and  C_25
    8  A    between atoms: N_13  and  C_27
    9  A    between atoms: O_15  and  C_16
   10  A    between atoms: O_15  and  C_26
   11  A    between atoms: C_18  and  C_20
   12  A    between atoms: C_18  and  C_28
   13  A    between atoms: C_19  and  C_28
   14  A    between atoms: C_25  and  C_26
   15  A    between atoms: C_27  and  C_30
                            x       y       z     vdW  Elec       q    Type
                         _______ _______ _______ _____ _____    ______ ____

>  <TORSDO>
F 15

$$$$
=
 OpenBabel11052417183D

 30 32  0  0  1  0  0  0  0  0999 V2000
  190.5740  177.0500  147.4620 O   0  0  0  0  0  0  0  0  0  0  0  0
  191.8710  176.6700  147.8050 C   0  0  0  0  0  2  0  0  0  0  0  0
  192.3950  175.6820  146.7860 C   0  0  0  0  0  2  0  0  0  0  0  0
  193.8480  175.9830  146.4530 C   0  0  0  0  0  2  0  0  0  0  0  0
  194.0220  176.1430  144.9530 C   0  0  0  0  0  2  0  0  0  0  0  0
  192.7280  177.0020  142.5550 O   0  0  0  0  0  0  0  0  0  0  0  0
  192.3600  175.9060  143.0580 C   0  0  0  0  0  0  0  0  0  0  0  0
  192.9760  175.4150  144.2530 N   0  0  0  0  0  2  0  0  0  0  0  0
  189.8490  173.0290  142.9540 C   0  0  0  0  0  2  0  0  0  0  0  0
  187.6090  172.7490  141.8850 C   0  0  0  0  0  1  0  0  0  0  0  0
  191.7870  174.0040  141.5700 C   0  0  1  0  0  3  0  0  0  0  0  0
  188.8220  173.6520  141.9990 C   0  0  2  0  0  3  0  0  0  0  0  0
  191.2360  173.7050  142.9640 C   0  0  1  0  0  3  0  0  0  0  0  0
  189.3730  173.9570  140.6030 C   0  0  0  0  0  2  0  0  0  0  0  0
  190.8460  173.5770  140.4240 C   0  0  0  0  0  2  0  0  0  0  0  0
  191.2390  175.1390  142.4360 C   0  0  1  0  0  3  0  0  0  0  0  0
  189.9620  175.8730  147.0370 C   0  0  0  0  0  2  0  0  0  0  0  0
  188.9180  176.1850  145.9810 C   0  0  0  0  0  2  0  0  0  0  0  0
  187.6390  175.9270  146.4850 O   0  0  0  0  0  0  0  0  0  0  0  0
  186.0500  177.6160  147.4010 C   0  0  0  0  0  2  0  0  0  0  0  0
  185.4000  176.7640  146.3260 C   0  0  0  0  0  2  0  0  0  0  0  0
  186.8790  177.0800  146.2450 C   0  0  0  0  0  0  0  0  0  0  0  0
  187.2060  177.9100  144.9980 C   0  0  0  0  0  2  0  0  0  0  0  0
  186.3720  177.5100  143.7820 C   0  0  1  0  0  3  0  0  0  0  0  0
  185.7020  178.7130  143.1010 C   0  0  2  0  0  3  0  0  0  0  0  0
  185.2950  179.8210  144.0680 C   0  0  0  0  0  1  0  0  0  0  0  0
  184.5490  178.3030  142.1900 C   0  0  0  0  0  2  0  0  0  0  0  0
  183.3150  178.5740  142.7850 O   0  0  0  0  0  1  0  0  0  0  0  0
  187.2330  176.7400  142.7950 C   0  0  0  0  0  2  0  0  0  0  0  0
  188.6360  177.7560  142.2590 S   0  0  0  0  0  1  0  0  0  0  0  0
  1  2  1  0  0  0  0
  3  2  1  0  0  0  0
  4  3  1  0  0  0  0
  5  4  1  0  0  0  0
  6  7  2  0  0  0  0
  7  8  1  0  0  0  0
  8  5  1  0  0  0  0
 11 15  1  6  0  0  0
 11 16  1  0  0  0  0
 11 13  1  0  0  0  0
 12 10  1  6  0  0  0
 12  9  1  0  0  0  0
 13  9  1  6  0  0  0
 14 12  1  0  0  0  0
 15 14  1  0  0  0  0
 16 13  1  0  0  0  0
 16  7  1  1  0  0  0
 17  1  1  0  0  0  0
 18 19  1  0  0  0  0
 18 17  1  0  0  0  0
 21 20  1  0  0  0  0
 22 21  1  0  0  0  0
 22 19  1  0  0  0  0
 22 20  1  0  0  0  0
 23 22  1  0  0  0  0
 24 29  1  6  0  0  0
 24 23  1  0  0  0  0
 25 24  1  0  0  0  0
 25 26  1  1  0  0  0
 27 28  1  0  0  0  0
 27 25  1  0  0  0  0
 30 29  1  0  0  0  0
M  END
>  <MODEL>
3

>  <REMARK>
 VINA RESULT:      -5.2      2.163      6.372
  Name = 
  15 active torsions:
  status: ('A' for Active; 'I' for Inactive)
    1  A    between atoms: C_2  and  C_18
    2  A    between atoms: C_2  and  C_22
    3  A    between atoms: C_4  and  C_23
    4  A    between atoms: C_7  and  C_16
    5  A    between atoms: C_7  and  C_30
    6  A    between atoms: O_10  and  C_19
    7  A    between atoms: O_10  and  C_25
    8  A    between atoms: N_13  and  C_27
    9  A    between atoms: O_15  and  C_16
   10  A    between atoms: O_15  and  C_26
   11  A    between atoms: C_18  and  C_20
   12  A    between atoms: C_18  and  C_28
   13  A    between atoms: C_19  and  C_28
   14  A    between atoms: C_25  and  C_26
   15  A    between atoms: C_27  and  C_30
                            x       y       z     vdW  Elec       q    Type
                         _______ _______ _______ _____ _____    ______ ____

>  <TORSDO>
F 15

$$$$
=
 OpenBabel11052417183D

 30 32  0  0  1  0  0  0  0  0999 V2000
  189.1780  172.1610  142.8820 O   0  0  0  0  0  0  0  0  0  0  0  0
  189.9060  171.8810  141.7260 C   0  0  0  0  0  2  0  0  0  0  0  0
  189.4600  172.8020  140.6120 C   0  0  0  0  0  2  0  0  0  0  0  0
  188.3550  173.7270  141.0970 C   0  0  0  0  0  2  0  0  0  0  0  0
  188.9210  175.0960  141.4280 C   0  0  0  0  0  2  0  0  0  0  0  0
  187.7440  177.6840  141.1490 O   0  0  0  0  0  0  0  0  0  0  0  0
  187.5310  177.0580  142.2220 C   0  0  0  0  0  0  0  0  0  0  0  0
  188.0830  175.7520  142.4200 N   0  0  0  0  0  2  0  0  0  0  0  0
  185.6930  177.0120  145.5700 C   0  0  0  0  0  2  0  0  0  0  0  0
  185.1770  178.7730  147.2640 C   0  0  0  0  0  1  0  0  0  0  0  0
  185.2440  177.4940  143.0820 C   0  0  1  0  0  3  0  0  0  0  0  0
  185.7350  178.5150  145.8780 C   0  0  2  0  0  3  0  0  0  0  0  0
  185.9840  176.6300  144.1040 C   0  0  1  0  0  3  0  0  0  0  0  0
  184.9990  179.3820  144.8530 C   0  0  0  0  0  2  0  0  0  0  0  0
  184.3540  178.5830  143.7170 C   0  0  0  0  0  2  0  0  0  0  0  0
  186.7410  177.6980  143.3160 C   0  0  1  0  0  3  0  0  0  0  0  0
  190.1430  172.3870  143.8610 C   0  0  0  0  0  2  0  0  0  0  0  0
  189.7460  173.5790  144.7120 C   0  0  0  0  0  2  0  0  0  0  0  0
  190.7230  173.8160  145.6840 O   0  0  0  0  0  0  0  0  0  0  0  0
  189.3180  174.9790  147.3840 C   0  0  0  0  0  2  0  0  0  0  0  0
  188.9510  175.4030  145.9730 C   0  0  0  0  0  2  0  0  0  0  0  0
  190.3820  175.0280  146.3000 C   0  0  0  0  0  0  0  0  0  0  0  0
  191.3290  176.2200  146.1140 C   0  0  0  0  0  2  0  0  0  0  0  0
  192.5600  175.8770  145.2780 C   0  0  1  0  0  3  0  0  0  0  0  0
  192.4610  176.3970  143.8360 C   0  0  2  0  0  3  0  0  0  0  0  0
  191.3260  177.3920  143.6160 C   0  0  0  0  0  1  0  0  0  0  0  0
  192.4350  175.2710  142.8080 C   0  0  0  0  0  2  0  0  0  0  0  0
  193.3180  175.5280  141.7560 O   0  0  0  0  0  1  0  0  0  0  0  0
  193.8120  176.4070  145.9590 C   0  0  0  0  0  2  0  0  0  0  0  0
  195.2130  175.3000  145.6470 S   0  0  0  0  0  1  0  0  0  0  0  0
  1 17  1  0  0  0  0
  2  1  1  0  0  0  0
  3  4  1  0  0  0  0
  3  2  1  0  0  0  0
  4  5  1  0  0  0  0
  5  8  1  0  0  0  0
  6  7  2  0  0  0  0
  7  8  1  0  0  0  0
  9 12  1  0  0  0  0
 11 16  1  0  0  0  0
 11 15  1  1  0  0  0
 11 13  1  0  0  0  0
 12 10  1  1  0  0  0
 13  9  1  1  0  0  0
 14 12  1  0  0  0  0
 15 14  1  0  0  0  0
 16  7  1  6  0  0  0
 16 13  1  0  0  0  0
 17 18  1  0  0  0  0
 18 19  1  0  0  0  0
 19 22  1  0  0  0  0
 21 22  1  0  0  0  0
 21 20  1  0  0  0  0
 22 20  1  0  0  0  0
 23 22  1  0  0  0  0
 24 29  1  1  0  0  0
 24 23  1  0  0  0  0
 25 26  1  1  0  0  0
 25 24  1  0  0  0  0
 27 25  1  0  0  0  0
 28 27  1  0  0  0  0
 30 29  1  0  0  0  0
M  END
>  <MODEL>
4

>  <REMARK>
 VINA RESULT:      -5.2      1.778      3.150
  Name = 
  15 active torsions:
  status: ('A' for Active; 'I' for Inactive)
    1  A    between atoms: C_2  and  C_18
    2  A    between atoms: C_2  and  C_22
    3  A    between atoms: C_4  and  C_23
    4  A    between atoms: C_7  and  C_16
    5  A    between atoms: C_7  and  C_30
    6  A    between atoms: O_10  and  C_19
    7  A    between atoms: O_10  and  C_25
    8  A    between atoms: N_13  and  C_27
    9  A    between atoms: O_15  and  C_16
   10  A    between atoms: O_15  and  C_26
   11  A    between atoms: C_18  and  C_20
   12  A    between atoms: C_18  and  C_28
   13  A    between atoms: C_19  and  C_28
   14  A    between atoms: C_25  and  C_26
   15  A    between atoms: C_27  and  C_30
                            x       y       z     vdW  Elec       q    Type
                         _______ _______ _______ _____ _____    ______ ____

>  <TORSDO>
F 15

$$$$
=
 OpenBabel11052417183D

 30 32  0  0  1  0  0  0  0  0999 V2000
  190.8380  176.4180  146.7340 O   0  0  0  0  0  0  0  0  0  0  0  0
  192.0840  175.9140  147.1040 C   0  0  0  0  0  2  0  0  0  0  0  0
  193.1500  176.4780  146.1900 C   0  0  0  0  0  2  0  0  0  0  0  0
  194.4780  175.7750  146.4260 C   0  0  0  0  0  2  0  0  0  0  0  0
  194.9050  175.0230  145.1770 C   0  0  0  0  0  2  0  0  0  0  0  0
  193.4020  172.5970  145.2910 O   0  0  0  0  0  0  0  0  0  0  0  0
  193.0360  173.4730  144.4610 C   0  0  0  0  0  0  0  0  0  0  0  0
  193.7410  174.7150  144.3620 N   0  0  0  0  0  2  0  0  0  0  0  0
  190.8810  174.2110  141.3950 C   0  0  0  0  0  2  0  0  0  0  0  0
  189.4350  172.7910  139.9360 C   0  0  0  0  0  1  0  0  0  0  0  0
  190.6680  174.0110  143.9520 C   0  0  1  0  0  3  0  0  0  0  0  0
  190.2580  172.8220  141.2090 C   0  0  2  0  0  3  0  0  0  0  0  0
  191.5280  174.4670  142.7720 C   0  0  1  0  0  3  0  0  0  0  0  0
  189.4000  172.3610  142.3920 C   0  0  0  0  0  2  0  0  0  0  0  0
  189.3230  173.3790  143.5340 C   0  0  0  0  0  2  0  0  0  0  0  0
  191.8940  173.1970  143.5380 C   0  0  1  0  0  3  0  0  0  0  0  0
  189.9240  175.4750  147.1980 C   0  0  0  0  0  2  0  0  0  0  0  0
  188.5200  175.8640  146.7730 C   0  0  0  0  0  2  0  0  0  0  0  0
  188.3750  177.2540  146.8250 O   0  0  0  0  0  0  0  0  0  0  0  0
  186.2990  178.4890  147.4420 C   0  0  0  0  0  2  0  0  0  0  0  0
  186.1300  176.9920  147.6210 C   0  0  0  0  0  2  0  0  0  0  0  0
  187.0330  177.5230  146.5260 C   0  0  0  0  0  0  0  0  0  0  0  0
  186.5130  177.1360  145.1370 C   0  0  0  0  0  2  0  0  0  0  0  0
  187.2600  177.8400  144.0050 C   0  0  1  0  0  3  0  0  0  0  0  0
  188.0830  176.8710  143.1440 C   0  0  2  0  0  3  0  0  0  0  0  0
  189.2530  177.5310  142.4200 C   0  0  0  0  0  1  0  0  0  0  0  0
  187.2160  176.0510  142.1930 C   0  0  0  0  0  2  0  0  0  0  0  0
  187.8500  175.8710  140.9610 O   0  0  0  0  0  1  0  0  0  0  0  0
  186.2790  178.6250  143.1490 C   0  0  0  0  0  2  0  0  0  0  0  0
  184.5850  178.3690  143.7390 S   0  0  0  0  0  1  0  0  0  0  0  0
  1  2  1  0  0  0  0
  1 17  1  0  0  0  0
  3  4  1  0  0  0  0
  3  2  1  0  0  0  0
  5  4  1  0  0  0  0
  7  6  2  0  0  0  0
  8  7  1  0  0  0  0
  8  5  1  0  0  0  0
 11 15  1  6  0  0  0
 12 10  1  6  0  0  0
 12  9  1  0  0  0  0
 12 14  1  0  0  0  0
 13  9  1  6  0  0  0
 13 16  1  0  0  0  0
 13 11  1  0  0  0  0
 14 15  1  0  0  0  0
 16 11  1  0  0  0  0
 16  7  1  1  0  0  0
 18 19  1  0  0  0  0
 18 17  1  0  0  0  0
 20 21  1  0  0  0  0
 22 19  1  0  0  0  0
 22 20  1  0  0  0  0
 22 21  1  0  0  0  0
 23 22  1  0  0  0  0
 24 29  1  6  0  0  0
 24 23  1  0  0  0  0
 25 26  1  6  0  0  0
 25 24  1  0  0  0  0
 27 25  1  0  0  0  0
 28 27  1  0  0  0  0
 29 30  1  0  0  0  0
M  END
>  <MODEL>
5

>  <REMARK>
 VINA RESULT:      -5.2      2.232      6.546
  Name = 
  15 active torsions:
  status: ('A' for Active; 'I' for Inactive)
    1  A    between atoms: C_2  and  C_18
    2  A    between atoms: C_2  and  C_22
    3  A    between atoms: C_4  and  C_23
    4  A    between atoms: C_7  and  C_16
    5  A    between atoms: C_7  and  C_30
    6  A    between atoms: O_10  and  C_19
    7  A    between atoms: O_10  and  C_25
    8  A    between atoms: N_13  and  C_27
    9  A    between atoms: O_15  and  C_16
   10  A    between atoms: O_15  and  C_26
   11  A    between atoms: C_18  and  C_20
   12  A    between atoms: C_18  and  C_28
   13  A    between atoms: C_19  and  C_28
   14  A    between atoms: C_25  and  C_26
   15  A    between atoms: C_27  and  C_30
                            x       y       z     vdW  Elec       q    Type
                         _______ _______ _______ _____ _____    ______ ____

>  <TORSDO>
F 15

$$$$
=
 OpenBabel11052417183D

 30 32  0  0  1  0  0  0  0  0999 V2000
  192.8600  174.6620  140.9390 O   0  0  0  0  0  0  0  0  0  0  0  0
  192.0540  173.5420  141.1360 C   0  0  0  0  0  2  0  0  0  0  0  0
  190.6450  173.8430  140.6740 C   0  0  0  0  0  2  0  0  0  0  0  0
  189.6310  173.2690  141.6510 C   0  0  0  0  0  2  0  0  0  0  0  0
  188.2180  173.5440  141.1660 C   0  0  0  0  0  2  0  0  0  0  0  0
  187.7920  176.3630  141.3480 O   0  0  0  0  0  0  0  0  0  0  0  0
  187.2910  175.6360  142.2480 C   0  0  0  0  0  0  0  0  0  0  0  0
  187.4590  174.2150  142.2090 N   0  0  0  0  0  2  0  0  0  0  0  0
  185.9130  178.6290  144.1820 C   0  0  0  0  0  2  0  0  0  0  0  0
  184.0180  178.9070  145.7840 C   0  0  0  0  0  1  0  0  0  0  0  0
  187.5430  176.6620  144.4940 C   0  0  1  0  0  3  0  0  0  0  0  0
  184.8400  177.9010  145.0020 C   0  0  2  0  0  3  0  0  0  0  0  0
  186.9850  177.7210  143.5440 C   0  0  1  0  0  3  0  0  0  0  0  0
  185.3960  176.8360  145.9510 C   0  0  0  0  0  2  0  0  0  0  0  0
  186.9220  176.7030  145.9060 C   0  0  0  0  0  2  0  0  0  0  0  0
  186.5610  176.2610  143.3930 C   0  0  1  0  0  3  0  0  0  0  0  0
  193.9710  174.4460  141.7510 C   0  0  0  0  0  2  0  0  0  0  0  0
  194.2650  175.6910  142.5660 C   0  0  0  0  0  2  0  0  0  0  0  0
  194.7660  175.3310  143.8210 O   0  0  0  0  0  0  0  0  0  0  0  0
  194.7750  177.1900  145.4830 C   0  0  0  0  0  2  0  0  0  0  0  0
  194.5940  175.8410  146.1550 C   0  0  0  0  0  2  0  0  0  0  0  0
  194.0400  176.0700  144.7640 C   0  0  0  0  0  0  0  0  0  0  0  0
  192.5110  175.9550  144.7460 C   0  0  0  0  0  2  0  0  0  0  0  0
  191.9850  174.8670  145.6810 C   0  0  1  0  0  3  0  0  0  0  0  0
  190.9470  175.3950  146.6810 C   0  0  2  0  0  3  0  0  0  0  0  0
  189.6740  174.5570  146.7490 C   0  0  0  0  0  1  0  0  0  0  0  0
  190.6410  176.8760  146.4800 C   0  0  0  0  0  2  0  0  0  0  0  0
  189.9530  177.4020  147.5760 O   0  0  0  0  0  1  0  0  0  0  0  0
  191.4160  173.7160  144.8670 C   0  0  0  0  0  2  0  0  0  0  0  0
  192.6470  172.3960  144.6990 S   0  0  0  0  0  1  0  0  0  0  0  0
  1  2  1  0  0  0  0
  1 17  1  0  0  0  0
  3  2  1  0  0  0  0
  3  4  1  0  0  0  0
  5  4  1  0  0  0  0
  5  8  1  0  0  0  0
  6  7  2  0  0  0  0
  8  7  1  0  0  0  0
  9 12  1  0  0  0  0
 11 15  1  1  0  0  0
 12 10  1  1  0  0  0
 12 14  1  0  0  0  0
 13  9  1  1  0  0  0
 13 11  1  0  0  0  0
 15 14  1  0  0  0  0
 16  7  1  6  0  0  0
 16 13  1  0  0  0  0
 16 11  1  0  0  0  0
 17 18  1  0  0  0  0
 18 19  1  0  0  0  0
 19 22  1  0  0  0  0
 20 21  1  0  0  0  0
 22 20  1  0  0  0  0
 22 21  1  0  0  0  0
 23 22  1  0  0  0  0
 24 23  1  6  0  0  0
 24 25  1  0  0  0  0
 25 26  1  6  0  0  0
 27 25  1  0  0  0  0
 27 28  1  0  0  0  0
 29 24  1  0  0  0  0
 30 29  1  0  0  0  0
M  END
>  <MODEL>
6

>  <REMARK>
 VINA RESULT:      -5.2      1.933      2.470
  Name = 
  15 active torsions:
  status: ('A' for Active; 'I' for Inactive)
    1  A    between atoms: C_2  and  C_18
    2  A    between atoms: C_2  and  C_22
    3  A    between atoms: C_4  and  C_23
    4  A    between atoms: C_7  and  C_16
    5  A    between atoms: C_7  and  C_30
    6  A    between atoms: O_10  and  C_19
    7  A    between atoms: O_10  and  C_25
    8  A    between atoms: N_13  and  C_27
    9  A    between atoms: O_15  and  C_16
   10  A    between atoms: O_15  and  C_26
   11  A    between atoms: C_18  and  C_20
   12  A    between atoms: C_18  and  C_28
   13  A    between atoms: C_19  and  C_28
   14  A    between atoms: C_25  and  C_26
   15  A    between atoms: C_27  and  C_30
                            x       y       z     vdW  Elec       q    Type
                         _______ _______ _______ _____ _____    ______ ____

>  <TORSDO>
F 15

$$$$
=
 OpenBabel11052417183D

 30 32  0  0  1  0  0  0  0  0999 V2000
  191.9790  173.6370  141.8330 O   0  0  0  0  0  0  0  0  0  0  0  0
  191.7400  173.5470  140.4620 C   0  0  0  0  0  2  0  0  0  0  0  0
  190.2500  173.4710  140.2120 C   0  0  0  0  0  2  0  0  0  0  0  0
  189.4820  174.0190  141.4050 C   0  0  0  0  0  2  0  0  0  0  0  0
  188.3830  174.9570  140.9390 C   0  0  0  0  0  2  0  0  0  0  0  0
  187.9530  177.7630  141.2610 O   0  0  0  0  0  0  0  0  0  0  0  0
  187.5720  177.0030  142.1910 C   0  0  0  0  0  0  0  0  0  0  0  0
  187.7490  175.5860  142.0870 N   0  0  0  0  0  2  0  0  0  0  0  0
  186.0240  176.7310  145.6730 C   0  0  0  0  0  2  0  0  0  0  0  0
  185.9210  178.2820  147.6270 C   0  0  0  0  0  1  0  0  0  0  0  0
  185.4560  177.6250  143.3280 C   0  0  1  0  0  3  0  0  0  0  0  0
  186.3200  178.1520  146.1700 C   0  0  2  0  0  3  0  0  0  0  0  0
  186.1350  176.5280  144.1480 C   0  0  1  0  0  3  0  0  0  0  0  0
  185.6440  179.2530  145.3480 C   0  0  0  0  0  2  0  0  0  0  0  0
  184.7960  178.7250  144.1870 C   0  0  0  0  0  2  0  0  0  0  0  0
  186.9800  177.5820  143.4350 C   0  0  1  0  0  3  0  0  0  0  0  0
  192.9160  174.6600  141.9620 C   0  0  0  0  0  2  0  0  0  0  0  0
  193.3580  174.7750  143.4090 C   0  0  0  0  0  2  0  0  0  0  0  0
  193.2550  176.1040  143.8330 O   0  0  0  0  0  0  0  0  0  0  0  0
  194.4320  177.0070  145.8370 C   0  0  0  0  0  2  0  0  0  0  0  0
  194.7440  175.5380  145.6230 C   0  0  0  0  0  2  0  0  0  0  0  0
  193.3880  176.0850  145.2280 C   0  0  0  0  0  0  0  0  0  0  0  0
  192.2640  175.4420  146.0490 C   0  0  0  0  0  2  0  0  0  0  0  0
  190.8820  175.9890  145.6970 C   0  0  1  0  0  3  0  0  0  0  0  0
  189.8120  174.8890  145.6130 C   0  0  2  0  0  3  0  0  0  0  0  0
  189.0520  174.6690  146.9170 C   0  0  0  0  0  1  0  0  0  0  0  0
  190.3590  173.5830  145.0460 C   0  0  0  0  0  2  0  0  0  0  0  0
  189.5030  172.5150  145.3260 O   0  0  0  0  0  1  0  0  0  0  0  0
  190.4800  177.0600  146.6980 C   0  0  0  0  0  2  0  0  0  0  0  0
  191.4460  176.8890  148.2220 S   0  0  0  0  0  1  0  0  0  0  0  0
  1 17  1  0  0  0  0
  2  1  1  0  0  0  0
  3  2  1  0  0  0  0
  3  4  1  0  0  0  0
  5  4  1  0  0  0  0
  5  8  1  0  0  0  0
  6  7  2  0  0  0  0
  8  7  1  0  0  0  0
  9 12  1  0  0  0  0
 11 16  1  0  0  0  0
 11 13  1  0  0  0  0
 11 15  1  1  0  0  0
 12 10  1  1  0  0  0
 13  9  1  1  0  0  0
 14 12  1  0  0  0  0
 15 14  1  0  0  0  0
 16  7  1  6  0  0  0
 16 13  1  0  0  0  0
 17 18  1  0  0  0  0
 18 19  1  0  0  0  0
 19 22  1  0  0  0  0
 21 20  1  0  0  0  0
 22 21  1  0  0  0  0
 22 20  1  0  0  0  0
 22 23  1  0  0  0  0
 24 23  1  1  0  0  0
 24 29  1  0  0  0  0
 25 24  1  0  0  0  0
 25 26  1  1  0  0  0
 27 28  1  0  0  0  0
 27 25  1  0  0  0  0
 29 30  1  0  0  0  0
M  END
>  <MODEL>
7

>  <REMARK>
 VINA RESULT:      -5.1      1.718      1.849
  Name = 
  15 active torsions:
  status: ('A' for Active; 'I' for Inactive)
    1  A    between atoms: C_2  and  C_18
    2  A    between atoms: C_2  and  C_22
    3  A    between atoms: C_4  and  C_23
    4  A    between atoms: C_7  and  C_16
    5  A    between atoms: C_7  and  C_30
    6  A    between atoms: O_10  and  C_19
    7  A    between atoms: O_10  and  C_25
    8  A    between atoms: N_13  and  C_27
    9  A    between atoms: O_15  and  C_16
   10  A    between atoms: O_15  and  C_26
   11  A    between atoms: C_18  and  C_20
   12  A    between atoms: C_18  and  C_28
   13  A    between atoms: C_19  and  C_28
   14  A    between atoms: C_25  and  C_26
   15  A    between atoms: C_27  and  C_30
                            x       y       z     vdW  Elec       q    Type
                         _______ _______ _______ _____ _____    ______ ____

>  <TORSDO>
F 15

$$$$
=
 OpenBabel11052417183D

 30 32  0  0  1  0  0  0  0  0999 V2000
  191.9030  172.7910  140.4790 O   0  0  0  0  0  0  0  0  0  0  0  0
  190.7060  172.7450  141.1950 C   0  0  0  0  0  2  0  0  0  0  0  0
  189.5430  172.9490  140.2500 C   0  0  0  0  0  2  0  0  0  0  0  0
  188.3560  173.5450  140.9900 C   0  0  0  0  0  2  0  0  0  0  0  0
  188.1950  175.0130  140.6330 C   0  0  0  0  0  2  0  0  0  0  0  0
  187.0530  177.6260  140.4680 O   0  0  0  0  0  0  0  0  0  0  0  0
  187.0050  177.0360  141.5820 C   0  0  0  0  0  0  0  0  0  0  0  0
  187.5500  175.7210  141.7280 N   0  0  0  0  0  2  0  0  0  0  0  0
  185.8000  177.1530  145.2050 C   0  0  0  0  0  2  0  0  0  0  0  0
  185.5970  178.9910  146.8830 C   0  0  0  0  0  1  0  0  0  0  0  0
  184.9110  177.5260  142.8190 C   0  0  1  0  0  3  0  0  0  0  0  0
  185.8960  178.6670  145.4320 C   0  0  2  0  0  3  0  0  0  0  0  0
  185.8240  176.7040  143.7290 C   0  0  1  0  0  3  0  0  0  0  0  0
  184.9860  179.4940  144.5190 C   0  0  0  0  0  2  0  0  0  0  0  0
  184.1480  178.6490  143.5540 C   0  0  0  0  0  2  0  0  0  0  0  0
  186.4250  177.7310  142.7710 C   0  0  1  0  0  3  0  0  0  0  0  0
  192.4270  174.0530  140.7480 C   0  0  0  0  0  2  0  0  0  0  0  0
  191.9540  174.5290  142.1090 C   0  0  0  0  0  2  0  0  0  0  0  0
  192.1500  175.9090  142.2250 O   0  0  0  0  0  0  0  0  0  0  0  0
  190.2790  177.4130  142.8990 C   0  0  0  0  0  2  0  0  0  0  0  0
  191.5770  177.7960  143.5850 C   0  0  0  0  0  2  0  0  0  0  0  0
  191.3010  176.3440  143.2510 C   0  0  0  0  0  0  0  0  0  0  0  0
  191.2070  175.4880  144.5190 C   0  0  0  0  0  2  0  0  0  0  0  0
  191.7750  176.1870  145.7530 C   0  0  1  0  0  3  0  0  0  0  0  0
  190.7580  176.2870  146.9000 C   0  0  2  0  0  3  0  0  0  0  0  0
  191.3610  176.7600  148.2180 C   0  0  0  0  0  1  0  0  0  0  0  0
  189.9440  175.0080  147.0730 C   0  0  0  0  0  2  0  0  0  0  0  0
  188.5900  175.2950  147.2600 O   0  0  0  0  0  1  0  0  0  0  0  0
  193.0400  175.4780  146.2120 C   0  0  0  0  0  2  0  0  0  0  0  0
  193.1450  173.8320  145.4620 S   0  0  0  0  0  1  0  0  0  0  0  0
  1 17  1  0  0  0  0
  1  2  1  0  0  0  0
  3  4  1  0  0  0  0
  3  2  1  0  0  0  0
  5  4  1  0  0  0  0
  5  8  1  0  0  0  0
  6  7  2  0  0  0  0
  7  8  1  0  0  0  0
  9 12  1  0  0  0  0
 11 15  1  1  0  0  0
 11 13  1  0  0  0  0
 12 10  1  1  0  0  0
 13  9  1  1  0  0  0
 14 12  1  0  0  0  0
 15 14  1  0  0  0  0
 16  7  1  6  0  0  0
 16 11  1  0  0  0  0
 16 13  1  0  0  0  0
 17 18  1  0  0  0  0
 18 19  1  0  0  0  0
 19 22  1  0  0  0  0
 20 22  1  0  0  0  0
 20 21  1  0  0  0  0
 22 21  1  0  0  0  0
 22 23  1  0  0  0  0
 24 23  1  6  0  0  0
 24 29  1  0  0  0  0
 24 25  1  0  0  0  0
 25 27  1  0  0  0  0
 25 26  1  1  0  0  0
 27 28  1  0  0  0  0
 30 29  1  0  0  0  0
M  END
>  <MODEL>
8

>  <REMARK>
 VINA RESULT:      -5.1      1.804      2.496
  Name = 
  15 active torsions:
  status: ('A' for Active; 'I' for Inactive)
    1  A    between atoms: C_2  and  C_18
    2  A    between atoms: C_2  and  C_22
    3  A    between atoms: C_4  and  C_23
    4  A    between atoms: C_7  and  C_16
    5  A    between atoms: C_7  and  C_30
    6  A    between atoms: O_10  and  C_19
    7  A    between atoms: O_10  and  C_25
    8  A    between atoms: N_13  and  C_27
    9  A    between atoms: O_15  and  C_16
   10  A    between atoms: O_15  and  C_26
   11  A    between atoms: C_18  and  C_20
   12  A    between atoms: C_18  and  C_28
   13  A    between atoms: C_19  and  C_28
   14  A    between atoms: C_25  and  C_26
   15  A    between atoms: C_27  and  C_30
                            x       y       z     vdW  Elec       q    Type
                         _______ _______ _______ _____ _____    ______ ____

>  <TORSDO>
F 15

$$$$
=
 OpenBabel11052417183D

 30 32  0  0  1  0  0  0  0  0999 V2000
  190.2180  171.9270  141.9140 O   0  0  0  0  0  0  0  0  0  0  0  0
  189.0620  172.0240  142.6880 C   0  0  0  0  0  2  0  0  0  0  0  0
  188.2000  173.1550  142.1720 C   0  0  0  0  0  2  0  0  0  0  0  0
  189.0460  174.1650  141.4130 C   0  0  0  0  0  2  0  0  0  0  0  0
  188.1800  175.3060  140.9090 C   0  0  0  0  0  2  0  0  0  0  0  0
  188.1860  178.0900  141.5500 O   0  0  0  0  0  0  0  0  0  0  0  0
  187.5210  177.3200  142.2950 C   0  0  0  0  0  0  0  0  0  0  0  0
  187.4690  175.9150  142.0210 N   0  0  0  0  0  2  0  0  0  0  0  0
  185.6370  176.9460  145.5970 C   0  0  0  0  0  2  0  0  0  0  0  0
  185.3810  178.4180  147.5980 C   0  0  0  0  0  1  0  0  0  0  0  0
  185.3190  177.9520  143.2490 C   0  0  1  0  0  3  0  0  0  0  0  0
  185.9160  178.3370  146.1820 C   0  0  2  0  0  3  0  0  0  0  0  0
  185.8910  176.8040  144.0810 C   0  0  1  0  0  3  0  0  0  0  0  0
  185.3490  179.4890  145.3470 C   0  0  0  0  0  2  0  0  0  0  0  0
  184.6050  179.0330  144.0880 C   0  0  0  0  0  2  0  0  0  0  0  0
  186.8250  177.8630  143.5000 C   0  0  1  0  0  3  0  0  0  0  0  0
  191.1230  171.2350  142.7160 C   0  0  0  0  0  2  0  0  0  0  0  0
  191.0840  171.7820  144.1300 C   0  0  0  0  0  2  0  0  0  0  0  0
  192.3840  171.8960  144.6320 O   0  0  0  0  0  0  0  0  0  0  0  0
  194.1250  173.5020  143.8530 C   0  0  0  0  0  2  0  0  0  0  0  0
  193.9340  173.5720  145.3570 C   0  0  0  0  0  2  0  0  0  0  0  0
  192.7580  173.2350  144.4640 C   0  0  0  0  0  0  0  0  0  0  0  0
  191.6630  174.3050  144.5540 C   0  0  0  0  0  2  0  0  0  0  0  0
  191.4910  174.8610  145.9670 C   0  0  1  0  0  3  0  0  0  0  0  0
  191.8050  176.3620  146.0560 C   0  0  2  0  0  3  0  0  0  0  0  0
  192.2350  176.9810  144.7300 C   0  0  0  0  0  1  0  0  0  0  0  0
  192.7820  176.6900  147.1800 C   0  0  0  0  0  2  0  0  0  0  0  0
  194.0820  176.8350  146.6910 O   0  0  0  0  0  1  0  0  0  0  0  0
  190.0850  174.5720  146.4680 C   0  0  0  0  0  2  0  0  0  0  0  0
  189.0950  176.0900  146.4730 S   0  0  0  0  0  1  0  0  0  0  0  0
  1  2  1  0  0  0  0
  1 17  1  0  0  0  0
  3  2  1  0  0  0  0
  4  3  1  0  0  0  0
  5  4  1  0  0  0  0
  5  8  1  0  0  0  0
  6  7  2  0  0  0  0
  8  7  1  0  0  0  0
  9 12  1  0  0  0  0
 11 16  1  0  0  0  0
 11 13  1  0  0  0  0
 11 15  1  1  0  0  0
 12 10  1  1  0  0  0
 13  9  1  1  0  0  0
 14 12  1  0  0  0  0
 15 14  1  0  0  0  0
 16  7  1  6  0  0  0
 16 13  1  0  0  0  0
 17 18  1  0  0  0  0
 18 19  1  0  0  0  0
 20 22  1  0  0  0  0
 20 21  1  0  0  0  0
 22 23  1  0  0  0  0
 22 19  1  0  0  0  0
 22 21  1  0  0  0  0
 24 23  1  6  0  0  0
 24 25  1  0  0  0  0
 24 29  1  0  0  0  0
 25 26  1  6  0  0  0
 25 27  1  0  0  0  0
 28 27  1  0  0  0  0
 29 30  1  0  0  0  0
M  END
>  <MODEL>
9

>  <REMARK>
 VINA RESULT:      -5.1      1.841      2.662
  Name = 
  15 active torsions:
  status: ('A' for Active; 'I' for Inactive)
    1  A    between atoms: C_2  and  C_18
    2  A    between atoms: C_2  and  C_22
    3  A    between atoms: C_4  and  C_23
    4  A    between atoms: C_7  and  C_16
    5  A    between atoms: C_7  and  C_30
    6  A    between atoms: O_10  and  C_19
    7  A    between atoms: O_10  and  C_25
    8  A    between atoms: N_13  and  C_27
    9  A    between atoms: O_15  and  C_16
   10  A    between atoms: O_15  and  C_26
   11  A    between atoms: C_18  and  C_20
   12  A    between atoms: C_18  and  C_28
   13  A    between atoms: C_19  and  C_28
   14  A    between atoms: C_25  and  C_26
   15  A    between atoms: C_27  and  C_30
                            x       y       z     vdW  Elec       q    Type
                         _______ _______ _______ _____ _____    ______ ____

>  <TORSDO>
F 15

$$$$
