=
 OpenBabel11052419513D

 55 57  0  0  1  0  0  0  0  0999 V2000
  189.0360  175.5410  147.0910 S   0  0  0  0  0  0  0  0  0  0  0  0
  191.3580  176.4210  145.3150 C   0  0  2  0  0  3  0  0  0  0  0  0
  190.0880  177.2740  145.1880 C   0  0  2  0  0  3  0  0  0  0  0  0
  190.8090  175.3320  147.5330 C   0  0  0  0  0  2  0  0  0  0  0  0
  189.1880  177.2360  146.4280 C   0  0  0  0  0  2  0  0  0  0  0  0
  191.7670  176.2630  146.7800 C   0  0  0  0  0  2  0  0  0  0  0  0
  192.4650  177.1000  144.5300 C   0  0  0  0  0  2  0  0  0  0  0  0
  193.1620  176.1810  143.7440 O   0  0  0  0  0  0  0  0  0  0  0  0
  194.4870  176.3240  144.1680 C   0  0  0  0  0  2  0  0  0  0  0  0
  195.4460  175.7270  143.1490 C   0  0  1  0  0  3  0  0  0  0  0  0
  196.6790  176.6090  143.0850 C   0  0  0  0  0  1  0  0  0  0  0  0
  195.8110  174.4220  143.5490 O   0  0  0  0  0  0  0  0  0  0  0  0
  195.3950  173.4800  142.5680 C   0  0  2  0  0  0  0  0  0  0  0  0
  194.2250  173.9140  141.9420 F   0  0  0  0  0  0  0  0  0  0  0  0
  193.1430  172.8240  144.7370 C   0  0  0  0  0  2  0  0  0  0  0  0
  195.4350  173.0220  145.6270 C   0  0  0  0  0  1  0  0  0  0  0  0
  196.4420  171.2970  143.3010 C   0  0  0  0  0  1  0  0  0  0  0  0
  195.1230  172.0820  143.2540 C   0  0  1  0  0  0  0  0  0  0  0  0
  192.7080  171.1610  142.8720 C   0  0  0  0  0  2  0  0  0  0  0  0
  194.4300  170.8230  145.3700 C   0  0  0  0  0  1  0  0  0  0  0  0
  192.2670  172.4580  143.5280 C   0  0  1  0  0  3  0  0  0  0  0  0
  194.5460  172.2000  144.7190 C   0  0  0  0  0  0  0  0  0  0  0  0
  194.1560  171.2520  142.3620 C   0  0  0  0  0  2  0  0  0  0  0  0
  190.8310  172.3770  143.9340 C   0  0  0  0  0  0  0  0  0  0  0  0
  189.9130  171.5670  143.2110 N   0  0  0  0  0  1  0  0  0  0  0  0
  190.4340  173.0410  144.9320 O   0  0  0  0  0  0  0  0  0  0  0  0
  196.1800  173.0290  140.3350 O   0  0  0  0  0  0  0  0  0  0  0  0
  196.4800  173.3490  141.5110 C   0  0  0  0  0  0  0  0  0  0  0  0
  197.8140  173.5540  141.8410 O   0  0  0  0  0  1  0  0  0  0  0  0
  189.3120  176.8910  143.9390 C   0  0  0  0  0  2  0  0  0  0  0  0
  188.3210  177.8610  143.6960 O   0  0  0  0  0  0  0  0  0  0  0  0
  187.3640  177.3260  142.8010 C   0  0  1  0  0  3  0  0  0  0  0  0
  185.0850  177.8950  142.0910 C   0  0  0  0  0  3  0  0  0  0  0  0
  185.9170  177.6700  143.1210 C   0  0  0  0  0  0  0  0  0  0  0  0
  185.8040  176.6120  145.3910 C   0  0  0  0  0  2  0  0  0  0  0  0
  185.8550  178.0330  147.4470 C   0  0  0  0  0  2  0  0  0  0  0  0
  185.9710  179.1310  145.1960 C   0  0  1  0  0  3  0  0  0  0  0  0
  185.4620  179.2600  146.6290 C   0  0  0  0  0  2  0  0  0  0  0  0
  185.2720  176.7740  146.8160 C   0  0  0  0  0  2  0  0  0  0  0  0
  185.4520  177.8390  144.5490 C   0  0  1  0  0  3  0  0  0  0  0  0
  185.5610  180.2400  144.4620 O   0  0  0  0  0  1  0  0  0  0  0  0
  183.6450  178.2150  142.1280 C   0  0  0  0  0  3  0  0  0  0  0  0
  182.8320  178.1560  141.0780 C   0  0  0  0  0  3  0  0  0  0  0  0
  181.4180  178.5340  141.1760 C   0  0  0  0  0  0  0  0  0  0  0  0
  181.0160  179.1800  142.1830 O   0  0  0  0  0  0  0  0  0  0  0  0
  180.4820  178.1550  140.1700 N   0  0  0  0  0  1  0  0  0  0  0  0
  187.7750  177.4670  141.3330 C   0  0  0  0  0  2  0  0  0  0  0  0
  187.5890  176.1460  140.6140 C   0  0  0  0  0  2  0  0  0  0  0  0
  188.1680  175.0390  141.4640 C   0  0  0  0  0  2  0  0  0  0  0  0
  190.0890  173.7090  140.5100 C   0  0  0  0  0  0  0  0  0  0  0  0
  190.9310  174.4460  141.0840 O   0  0  0  0  0  0  0  0  0  0  0  0
  188.6910  173.9790  140.6170 N   0  0  0  0  0  2  0  0  0  0  0  0
  190.5580  172.5620  139.6880 C   0  0  0  0  0  2  0  0  0  0  0  0
  191.5630  173.0140  138.6420 C   0  0  0  0  0  2  0  0  0  0  0  0
  192.9150  172.8890  139.1580 N   0  0  0  0  0  1  0  0  0  0  0  0
  1  4  1  0  0  0  0
  2  7  1  6  0  0  0
  2  6  1  0  0  0  0
  3 30  1  6  0  0  0
  3  2  1  0  0  0  0
  3  5  1  0  0  0  0
  5  1  1  0  0  0  0
  6  4  1  0  0  0  0
  8  9  1  0  0  0  0
  8  7  1  0  0  0  0
 10 11  1  1  0  0  0
 10 12  1  0  0  0  0
 10  9  1  0  0  0  0
 13 14  1  6  0  0  0
 13 18  1  0  0  0  0
 13 12  1  0  0  0  0
 18 17  1  1  0  0  0
 18 22  1  0  0  0  0
 19 21  1  0  0  0  0
 21 24  1  1  0  0  0
 21 15  1  0  0  0  0
 22 15  1  0  0  0  0
 22 20  1  0  0  0  0
 22 16  1  0  0  0  0
 23 19  1  0  0  0  0
 23 18  1  0  0  0  0
 24 26  2  0  0  0  0
 25 24  1  0  0  0  0
 27 28  2  0  0  0  0
 28 29  1  0  0  0  0
 28 13  1  0  0  0  0
 31 30  1  0  0  0  0
 32 47  1  6  0  0  0
 32 34  1  0  0  0  0
 32 31  1  0  0  0  0
 33 42  1  0  0  0  0
 33 34  2  0  0  0  0
 35 39  1  0  0  0  0
 37 41  1  6  0  0  0
 37 38  1  0  0  0  0
 38 36  1  0  0  0  0
 39 36  1  0  0  0  0
 40 34  1  6  0  0  0
 40 37  1  0  0  0  0
 40 35  1  0  0  0  0
 43 44  1  0  0  0  0
 43 42  2  0  0  0  0
 44 45  2  0  0  0  0
 46 44  1  0  0  0  0
 48 47  1  0  0  0  0
 48 49  1  0  0  0  0
 50 52  1  0  0  0  0
 50 51  2  0  0  0  0
 52 49  1  0  0  0  0
 53 50  1  0  0  0  0
 54 55  1  0  0  0  0
 54 53  1  0  0  0  0
M  END
>  <MODEL>
1

>  <REMARK>
 VINA RESULT:      -6.8      0.000      0.000
  Name = 
  22 active torsions:
  status: ('A' for Active; 'I' for Inactive)
    1  A    between atoms: C_1  and  C_29
    2  A    between atoms: C_2  and  O_28
    3  A    between atoms: C_2  and  C_31
    4  A    between atoms: C_4  and  C_40
    5  A    between atoms: C_6  and  C_14
    6  A    between atoms: C_6  and  C_20
    7  A    between atoms: C_6  and  O_22
    8  A    between atoms: C_8  and  O_22
    9  A    between atoms: C_8  and  C_35
   10  A    between atoms: C_10  and  C_32
   11  A    between atoms: C_13  and  N_48
   12  A    between atoms: C_13  and  C_52
   13  A    between atoms: C_19  and  C_45
   14  A    between atoms: C_26  and  C_49
   15  A    between atoms: C_27  and  C_54
   16  A    between atoms: O_28  and  C_33
   17  A    between atoms: C_32  and  C_39
   18  A    between atoms: C_33  and  C_34
   19  A    between atoms: C_33  and  C_49
   20  A    between atoms: C_34  and  C_52
   21  A    between atoms: C_35  and  O_51
   22  A    between atoms: O_51  and  C_54
                            x       y       z     vdW  Elec       q    Type
                         _______ _______ _______ _____ _____    ______ ____

>  <TORSDO>
F 22

$$$$
=
 OpenBabel11052419513D

 55 57  0  0  1  0  0  0  0  0999 V2000
  188.7110  175.9310  146.8160 S   0  0  0  0  0  0  0  0  0  0  0  0
  191.0980  176.4890  144.9960 C   0  0  2  0  0  3  0  0  0  0  0  0
  189.9240  177.4660  144.8390 C   0  0  2  0  0  3  0  0  0  0  0  0
  190.4550  175.5540  147.2580 C   0  0  0  0  0  2  0  0  0  0  0  0
  189.0350  177.5720  146.0830 C   0  0  0  0  0  2  0  0  0  0  0  0
  191.5010  176.3470  146.4640 C   0  0  0  0  0  2  0  0  0  0  0  0
  192.2640  177.0160  144.1800 C   0  0  0  0  0  2  0  0  0  0  0  0
  192.6500  176.0970  143.2020 O   0  0  0  0  0  0  0  0  0  0  0  0
  194.0340  176.2790  143.1100 C   0  0  0  0  0  2  0  0  0  0  0  0
  194.6330  175.3340  142.0780 C   0  0  1  0  0  3  0  0  0  0  0  0
  194.6970  176.0630  140.7490 C   0  0  0  0  0  1  0  0  0  0  0  0
  195.9330  174.9550  142.4800 O   0  0  0  0  0  0  0  0  0  0  0  0
  195.9580  173.5690  142.7980 C   0  0  2  0  0  0  0  0  0  0  0  0
  194.6730  173.1180  143.1060 F   0  0  0  0  0  0  0  0  0  0  0  0
  195.1890  172.0680  145.5110 C   0  0  0  0  0  2  0  0  0  0  0  0
  195.3100  174.5260  145.6680 C   0  0  0  0  0  1  0  0  0  0  0  0
  197.9410  174.4540  144.0940 C   0  0  0  0  0  1  0  0  0  0  0  0
  196.9010  173.3250  144.0430 C   0  0  1  0  0  0  0  0  0  0  0  0
  197.2180  170.8060  144.6610 C   0  0  0  0  0  2  0  0  0  0  0  0
  197.1080  173.1710  146.5870 C   0  0  0  0  0  1  0  0  0  0  0  0
  195.7060  170.8030  144.8070 C   0  0  1  0  0  3  0  0  0  0  0  0
  196.1290  173.2780  145.4200 C   0  0  0  0  0  0  0  0  0  0  0  0
  197.7010  172.0070  143.8310 C   0  0  0  0  0  2  0  0  0  0  0  0
  195.2540  169.5800  145.5380 C   0  0  0  0  0  0  0  0  0  0  0  0
  196.1900  168.7350  146.1950 N   0  0  0  0  0  1  0  0  0  0  0  0
  194.0230  169.2990  145.5690 O   0  0  0  0  0  0  0  0  0  0  0  0
  197.3530  173.2720  140.8560 O   0  0  0  0  0  0  0  0  0  0  0  0
  196.4590  172.7890  141.5930 C   0  0  0  0  0  0  0  0  0  0  0  0
  195.9130  171.5510  141.2780 O   0  0  0  0  0  1  0  0  0  0  0  0
  189.1010  177.1170  143.6100 C   0  0  0  0  0  2  0  0  0  0  0  0
  187.9420  177.9160  143.5890 O   0  0  0  0  0  0  0  0  0  0  0  0
  186.9760  177.3000  142.7590 C   0  0  1  0  0  3  0  0  0  0  0  0
  184.6930  177.8100  142.0160 C   0  0  0  0  0  3  0  0  0  0  0  0
  185.5320  177.6820  143.0560 C   0  0  0  0  0  0  0  0  0  0  0  0
  185.3250  176.8020  145.3940 C   0  0  0  0  0  2  0  0  0  0  0  0
  185.4910  178.3560  147.3440 C   0  0  0  0  0  2  0  0  0  0  0  0
  185.7050  179.2770  145.0220 C   0  0  1  0  0  3  0  0  0  0  0  0
  185.2050  179.5500  146.4380 C   0  0  0  0  0  2  0  0  0  0  0  0
  184.8050  177.1090  146.7990 C   0  0  0  0  0  2  0  0  0  0  0  0
  185.0800  177.9910  144.4640 C   0  0  1  0  0  3  0  0  0  0  0  0
  185.3920  180.3610  144.2080 O   0  0  0  0  0  1  0  0  0  0  0  0
  183.2550  178.1400  142.0320 C   0  0  0  0  0  3  0  0  0  0  0  0
  182.5390  178.4510  140.9560 C   0  0  0  0  0  3  0  0  0  0  0  0
  181.1210  178.8140  141.0510 C   0  0  0  0  0  0  0  0  0  0  0  0
  180.6960  179.8220  140.4230 O   0  0  0  0  0  0  0  0  0  0  0  0
  180.2220  178.0700  141.8680 N   0  0  0  0  0  1  0  0  0  0  0  0
  187.3740  177.2950  141.2810 C   0  0  0  0  0  2  0  0  0  0  0  0
  187.9270  175.9370  140.8990 C   0  0  0  0  0  2  0  0  0  0  0  0
  187.5250  174.9300  141.9520 C   0  0  0  0  0  2  0  0  0  0  0  0
  188.4480  172.5970  142.2180 C   0  0  0  0  0  0  0  0  0  0  0  0
  187.3050  172.0910  142.0810 O   0  0  0  0  0  0  0  0  0  0  0  0
  188.6240  174.0140  142.2130 N   0  0  0  0  0  2  0  0  0  0  0  0
  189.6250  171.7090  142.4150 C   0  0  0  0  0  2  0  0  0  0  0  0
  190.8720  172.5160  142.7340 C   0  0  0  0  0  2  0  0  0  0  0  0
  191.1550  172.4630  144.1570 N   0  0  0  0  0  1  0  0  0  0  0  0
  1  4  1  0  0  0  0
  2  7  1  6  0  0  0
  2  6  1  0  0  0  0
  3 30  1  6  0  0  0
  3  2  1  0  0  0  0
  3  5  1  0  0  0  0
  5  1  1  0  0  0  0
  6  4  1  0  0  0  0
  8  7  1  0  0  0  0
  9  8  1  0  0  0  0
 10 11  1  6  0  0  0
 10 12  1  0  0  0  0
 10  9  1  0  0  0  0
 12 13  1  0  0  0  0
 13 14  1  1  0  0  0
 13 18  1  0  0  0  0
 18 17  1  1  0  0  0
 18 22  1  0  0  0  0
 19 21  1  0  0  0  0
 21 15  1  0  0  0  0
 21 24  1  1  0  0  0
 22 15  1  0  0  0  0
 22 16  1  0  0  0  0
 22 20  1  0  0  0  0
 23 18  1  0  0  0  0
 23 19  1  0  0  0  0
 24 26  2  0  0  0  0
 24 25  1  0  0  0  0
 27 28  2  0  0  0  0
 28 13  1  0  0  0  0
 29 28  1  0  0  0  0
 31 30  1  0  0  0  0
 32 47  1  6  0  0  0
 32 34  1  0  0  0  0
 32 31  1  0  0  0  0
 33 42  1  0  0  0  0
 33 34  2  0  0  0  0
 35 39  1  0  0  0  0
 37 41  1  6  0  0  0
 37 38  1  0  0  0  0
 38 36  1  0  0  0  0
 39 36  1  0  0  0  0
 40 34  1  6  0  0  0
 40 37  1  0  0  0  0
 40 35  1  0  0  0  0
 43 44  1  0  0  0  0
 43 42  2  0  0  0  0
 44 46  1  0  0  0  0
 45 44  2  0  0  0  0
 48 47  1  0  0  0  0
 48 49  1  0  0  0  0
 49 52  1  0  0  0  0
 50 53  1  0  0  0  0
 51 50  2  0  0  0  0
 52 50  1  0  0  0  0
 53 54  1  0  0  0  0
 54 55  1  0  0  0  0
M  END
>  <MODEL>
2

>  <REMARK>
 VINA RESULT:      -6.3      1.810      2.473
  Name = 
  22 active torsions:
  status: ('A' for Active; 'I' for Inactive)
    1  A    between atoms: C_1  and  C_29
    2  A    between atoms: C_2  and  O_28
    3  A    between atoms: C_2  and  C_31
    4  A    between atoms: C_4  and  C_40
    5  A    between atoms: C_6  and  C_14
    6  A    between atoms: C_6  and  C_20
    7  A    between atoms: C_6  and  O_22
    8  A    between atoms: C_8  and  O_22
    9  A    between atoms: C_8  and  C_35
   10  A    between atoms: C_10  and  C_32
   11  A    between atoms: C_13  and  N_48
   12  A    between atoms: C_13  and  C_52
   13  A    between atoms: C_19  and  C_45
   14  A    between atoms: C_26  and  C_49
   15  A    between atoms: C_27  and  C_54
   16  A    between atoms: O_28  and  C_33
   17  A    between atoms: C_32  and  C_39
   18  A    between atoms: C_33  and  C_34
   19  A    between atoms: C_33  and  C_49
   20  A    between atoms: C_34  and  C_52
   21  A    between atoms: C_35  and  O_51
   22  A    between atoms: O_51  and  C_54
                            x       y       z     vdW  Elec       q    Type
                         _______ _______ _______ _____ _____    ______ ____

>  <TORSDO>
F 22

$$$$
=
 OpenBabel11052419513D

 55 57  0  0  1  0  0  0  0  0999 V2000
  189.0390  175.4450  147.0700 S   0  0  0  0  0  0  0  0  0  0  0  0
  191.2210  176.6040  145.2770 C   0  0  2  0  0  3  0  0  0  0  0  0
  189.8390  177.2500  145.1110 C   0  0  2  0  0  3  0  0  0  0  0  0
  190.8170  175.5230  147.5300 C   0  0  0  0  0  2  0  0  0  0  0  0
  188.9400  177.1190  146.3460 C   0  0  0  0  0  2  0  0  0  0  0  0
  191.6330  176.5610  146.7490 C   0  0  0  0  0  2  0  0  0  0  0  0
  192.2220  177.4160  144.4750 C   0  0  0  0  0  2  0  0  0  0  0  0
  193.5000  176.8610  144.5560 O   0  0  0  0  0  0  0  0  0  0  0  0
  193.5100  175.9080  143.5310 C   0  0  0  0  0  2  0  0  0  0  0  0
  194.5490  174.8320  143.8060 C   0  0  1  0  0  3  0  0  0  0  0  0
  195.5780  175.4010  144.7660 C   0  0  0  0  0  1  0  0  0  0  0  0
  193.9240  173.7060  144.3870 O   0  0  0  0  0  0  0  0  0  0  0  0
  193.7920  172.6720  143.4200 C   0  0  2  0  0  0  0  0  0  0  0  0
  194.1080  173.1520  142.1480 F   0  0  0  0  0  0  0  0  0  0  0  0
  192.0750  171.8390  140.8570 C   0  0  0  0  0  2  0  0  0  0  0  0
  191.4830  174.0140  141.8590 C   0  0  0  0  0  1  0  0  0  0  0  0
  191.5740  172.7130  144.6340 C   0  0  0  0  0  1  0  0  0  0  0  0
  192.3050  172.1370  143.4120 C   0  0  1  0  0  0  0  0  0  0  0  0
  192.0280  169.7740  142.3300 C   0  0  0  0  0  2  0  0  0  0  0  0
  190.0420  172.0890  142.2220 C   0  0  0  0  0  1  0  0  0  0  0  0
  192.6350  170.4280  141.1000 C   0  0  1  0  0  3  0  0  0  0  0  0
  191.5020  172.5210  142.1080 C   0  0  0  0  0  0  0  0  0  0  0  0
  192.3140  170.5920  143.6010 C   0  0  0  0  0  2  0  0  0  0  0  0
  192.4240  169.5720  139.8940 C   0  0  0  0  0  0  0  0  0  0  0  0
  192.7650  168.1920  139.9100 N   0  0  0  0  0  1  0  0  0  0  0  0
  191.9350  170.0870  138.8500 O   0  0  0  0  0  0  0  0  0  0  0  0
  194.8750  171.1490  144.9410 O   0  0  0  0  0  1  0  0  0  0  0  0
  194.7580  171.5470  143.7560 C   0  0  0  0  0  0  0  0  0  0  0  0
  195.5400  170.9690  142.7640 O   0  0  0  0  0  0  0  0  0  0  0  0
  189.1430  176.7100  143.8720 C   0  0  0  0  0  2  0  0  0  0  0  0
  188.2070  177.6590  143.4180 O   0  0  0  0  0  0  0  0  0  0  0  0
  187.1440  176.9820  142.7740 C   0  0  1  0  0  3  0  0  0  0  0  0
  184.9500  177.8020  142.0430 C   0  0  0  0  0  3  0  0  0  0  0  0
  185.7550  177.5240  143.0800 C   0  0  0  0  0  0  0  0  0  0  0  0
  185.6180  176.6370  145.4210 C   0  0  0  0  0  2  0  0  0  0  0  0
  185.7960  178.1920  147.3700 C   0  0  0  0  0  2  0  0  0  0  0  0
  185.9390  179.1200  145.0450 C   0  0  1  0  0  3  0  0  0  0  0  0
  185.4650  179.3810  146.4730 C   0  0  0  0  0  2  0  0  0  0  0  0
  185.1240  176.9320  146.8380 C   0  0  0  0  0  2  0  0  0  0  0  0
  185.3290  177.8220  144.4990 C   0  0  1  0  0  3  0  0  0  0  0  0
  185.5860  180.1990  144.2400 O   0  0  0  0  0  1  0  0  0  0  0  0
  183.5630  178.3040  142.0660 C   0  0  0  0  0  3  0  0  0  0  0  0
  182.6370  178.0110  141.1580 C   0  0  0  0  0  3  0  0  0  0  0  0
  181.2890  178.5840  141.2170 C   0  0  0  0  0  0  0  0  0  0  0  0
  180.9660  179.3100  142.1980 O   0  0  0  0  0  0  0  0  0  0  0  0
  180.3250  178.3080  140.2050 N   0  0  0  0  0  1  0  0  0  0  0  0
  187.4330  176.6800  141.3020 C   0  0  0  0  0  2  0  0  0  0  0  0
  188.4360  175.5480  141.1940 C   0  0  0  0  0  2  0  0  0  0  0  0
  187.8310  174.4340  140.3710 C   0  0  0  0  0  2  0  0  0  0  0  0
  188.8200  174.0220  138.0870 C   0  0  0  0  0  0  0  0  0  0  0  0
  187.8670  174.6230  137.5270 O   0  0  0  0  0  0  0  0  0  0  0  0
  188.8400  173.8480  139.5040 N   0  0  0  0  0  2  0  0  0  0  0  0
  189.9230  173.4640  137.2590 C   0  0  0  0  0  2  0  0  0  0  0  0
  189.6520  172.0150  136.8940 C   0  0  0  0  0  2  0  0  0  0  0  0
  189.3270  171.9040  135.4830 N   0  0  0  0  0  1  0  0  0  0  0  0
  1  4  1  0  0  0  0
  2  7  1  6  0  0  0
  2  6  1  0  0  0  0
  3 30  1  6  0  0  0
  3  2  1  0  0  0  0
  3  5  1  0  0  0  0
  5  1  1  0  0  0  0
  6  4  1  0  0  0  0
  7  8  1  0  0  0  0
  9 10  1  0  0  0  0
  9  8  1  0  0  0  0
 10 12  1  0  0  0  0
 10 11  1  1  0  0  0
 13 14  1  6  0  0  0
 13 28  1  0  0  0  0
 13 12  1  0  0  0  0
 15 21  1  0  0  0  0
 15 22  1  0  0  0  0
 16 22  1  0  0  0  0
 18 13  1  0  0  0  0
 18 23  1  0  0  0  0
 18 17  1  1  0  0  0
 19 23  1  0  0  0  0
 21 24  1  6  0  0  0
 21 19  1  0  0  0  0
 22 20  1  0  0  0  0
 22 18  1  0  0  0  0
 24 25  1  0  0  0  0
 26 24  2  0  0  0  0
 28 27  1  0  0  0  0
 29 28  2  0  0  0  0
 31 30  1  0  0  0  0
 32 47  1  6  0  0  0
 32 34  1  0  0  0  0
 32 31  1  0  0  0  0
 33 42  1  0  0  0  0
 33 34  2  0  0  0  0
 35 39  1  0  0  0  0
 37 41  1  6  0  0  0
 37 38  1  0  0  0  0
 38 36  1  0  0  0  0
 39 36  1  0  0  0  0
 40 34  1  6  0  0  0
 40 37  1  0  0  0  0
 40 35  1  0  0  0  0
 43 44  1  0  0  0  0
 43 42  2  0  0  0  0
 44 45  2  0  0  0  0
 46 44  1  0  0  0  0
 48 47  1  0  0  0  0
 49 48  1  0  0  0  0
 50 52  1  0  0  0  0
 51 50  2  0  0  0  0
 52 49  1  0  0  0  0
 53 50  1  0  0  0  0
 54 53  1  0  0  0  0
 55 54  1  0  0  0  0
M  END
>  <MODEL>
3

>  <REMARK>
 VINA RESULT:      -6.1      1.890      2.704
  Name = 
  22 active torsions:
  status: ('A' for Active; 'I' for Inactive)
    1  A    between atoms: C_1  and  C_29
    2  A    between atoms: C_2  and  O_28
    3  A    between atoms: C_2  and  C_31
    4  A    between atoms: C_4  and  C_40
    5  A    between atoms: C_6  and  C_14
    6  A    between atoms: C_6  and  C_20
    7  A    between atoms: C_6  and  O_22
    8  A    between atoms: C_8  and  O_22
    9  A    between atoms: C_8  and  C_35
   10  A    between atoms: C_10  and  C_32
   11  A    between atoms: C_13  and  N_48
   12  A    between atoms: C_13  and  C_52
   13  A    between atoms: C_19  and  C_45
   14  A    between atoms: C_26  and  C_49
   15  A    between atoms: C_27  and  C_54
   16  A    between atoms: O_28  and  C_33
   17  A    between atoms: C_32  and  C_39
   18  A    between atoms: C_33  and  C_34
   19  A    between atoms: C_33  and  C_49
   20  A    between atoms: C_34  and  C_52
   21  A    between atoms: C_35  and  O_51
   22  A    between atoms: O_51  and  C_54
                            x       y       z     vdW  Elec       q    Type
                         _______ _______ _______ _____ _____    ______ ____

>  <TORSDO>
F 22

$$$$
=
 OpenBabel11052419513D

 55 57  0  0  1  0  0  0  0  0999 V2000
  189.3910  177.5950  145.9410 S   0  0  0  0  0  0  0  0  0  0  0  0
  189.2540  175.3580  143.8690 C   0  0  2  0  0  3  0  0  0  0  0  0
  190.1030  176.5680  143.4570 C   0  0  2  0  0  3  0  0  0  0  0  0
  189.2060  175.8150  146.3580 C   0  0  0  0  0  2  0  0  0  0  0  0
  190.6530  177.3730  144.6400 C   0  0  0  0  0  2  0  0  0  0  0  0
  189.6580  174.8510  145.2540 C   0  0  0  0  0  2  0  0  0  0  0  0
  189.4500  174.2670  142.8320 C   0  0  0  0  0  2  0  0  0  0  0  0
  190.4410  174.6170  141.9140 O   0  0  0  0  0  0  0  0  0  0  0  0
  190.7510  173.4060  141.2870 C   0  0  0  0  0  2  0  0  0  0  0  0
  191.5030  172.4860  142.2360 C   0  0  1  0  0  3  0  0  0  0  0  0
  191.1210  171.0530  141.9090 C   0  0  0  0  0  1  0  0  0  0  0  0
  192.8930  172.6610  142.0660 O   0  0  0  0  0  0  0  0  0  0  0  0
  193.4820  173.0930  143.2870 C   0  0  2  0  0  0  0  0  0  0  0  0
  192.5960  173.9110  143.9910 F   0  0  0  0  0  0  0  0  0  0  0  0
  193.9270  176.2300  143.6890 C   0  0  0  0  0  2  0  0  0  0  0  0
  193.6190  175.5030  141.3530 C   0  0  0  0  0  1  0  0  0  0  0  0
  195.5680  173.1900  141.8600 C   0  0  0  0  0  1  0  0  0  0  0  0
  194.8030  173.9060  142.9830 C   0  0  1  0  0  0  0  0  0  0  0  0
  195.7790  175.1630  145.0550 C   0  0  0  0  0  2  0  0  0  0  0  0
  195.8410  176.0880  142.1480 C   0  0  0  0  0  1  0  0  0  0  0  0
  194.4240  175.8490  145.0930 C   0  0  1  0  0  3  0  0  0  0  0  0
  194.5380  175.4010  142.5500 C   0  0  0  0  0  0  0  0  0  0  0  0
  195.7300  173.8650  144.2330 C   0  0  0  0  0  2  0  0  0  0  0  0
  194.4740  177.0580  145.9710 C   0  0  0  0  0  0  0  0  0  0  0  0
  193.6930  177.1310  147.1570 N   0  0  0  0  0  1  0  0  0  0  0  0
  195.2200  178.0240  145.6490 O   0  0  0  0  0  0  0  0  0  0  0  0
  194.1600  170.8030  143.6130 O   0  0  0  0  0  0  0  0  0  0  0  0
  193.7930  171.8780  144.1470 C   0  0  0  0  0  0  0  0  0  0  0  0
  193.6470  171.9360  145.5270 O   0  0  0  0  0  1  0  0  0  0  0  0
  189.3270  177.4630  142.5040 C   0  0  0  0  0  2  0  0  0  0  0  0
  188.0870  177.7920  143.0850 O   0  0  0  0  0  0  0  0  0  0  0  0
  187.0500  177.2590  142.2830 C   0  0  1  0  0  3  0  0  0  0  0  0
  184.7490  177.9240  141.7490 C   0  0  0  0  0  3  0  0  0  0  0  0
  185.6410  177.6430  142.7120 C   0  0  0  0  0  0  0  0  0  0  0  0
  185.7130  176.5570  144.9700 C   0  0  0  0  0  2  0  0  0  0  0  0
  185.8970  177.9530  147.0350 C   0  0  0  0  0  2  0  0  0  0  0  0
  185.8290  179.0800  144.7960 C   0  0  1  0  0  3  0  0  0  0  0  0
  185.4260  179.1840  146.2650 C   0  0  0  0  0  2  0  0  0  0  0  0
  185.2870  176.6930  146.4330 C   0  0  0  0  0  2  0  0  0  0  0  0
  185.2820  177.7880  144.1730 C   0  0  1  0  0  3  0  0  0  0  0  0
  185.3490  180.1910  144.1090 O   0  0  0  0  0  1  0  0  0  0  0  0
  183.3280  178.2920  141.8940 C   0  0  0  0  0  3  0  0  0  0  0  0
  182.4290  178.2310  140.9160 C   0  0  0  0  0  3  0  0  0  0  0  0
  181.0400  178.6570  141.1170 C   0  0  0  0  0  0  0  0  0  0  0  0
  180.2210  177.8650  141.6600 O   0  0  0  0  0  0  0  0  0  0  0  0
  180.5890  179.9360  140.6800 N   0  0  0  0  0  1  0  0  0  0  0  0
  187.3420  177.3590  140.7840 C   0  0  0  0  0  2  0  0  0  0  0  0
  187.7470  176.0020  140.2440 C   0  0  0  0  0  2  0  0  0  0  0  0
  186.9770  175.7300  138.9720 C   0  0  0  0  0  2  0  0  0  0  0  0
  188.3530  174.0630  137.6710 C   0  0  0  0  0  0  0  0  0  0  0  0
  188.0460  173.1370  138.4650 O   0  0  0  0  0  0  0  0  0  0  0  0
  187.8930  175.3970  137.8940 N   0  0  0  0  0  2  0  0  0  0  0  0
  189.2290  173.7700  136.5050 C   0  0  0  0  0  2  0  0  0  0  0  0
  189.3600  174.9850  135.6020 C   0  0  0  0  0  2  0  0  0  0  0  0
  188.3500  174.9470  134.5580 N   0  0  0  0  0  1  0  0  0  0  0  0
  1  4  1  0  0  0  0
  2  7  1  6  0  0  0
  2  6  1  0  0  0  0
  3 30  1  6  0  0  0
  3  2  1  0  0  0  0
  3  5  1  0  0  0  0
  5  1  1  0  0  0  0
  6  4  1  0  0  0  0
  8  7  1  0  0  0  0
  9  8  1  0  0  0  0
  9 10  1  0  0  0  0
 10 11  1  6  0  0  0
 12 10  1  0  0  0  0
 12 13  1  0  0  0  0
 13 14  1  1  0  0  0
 13 28  1  0  0  0  0
 15 21  1  0  0  0  0
 16 22  1  0  0  0  0
 18 17  1  6  0  0  0
 18 13  1  0  0  0  0
 18 23  1  0  0  0  0
 19 21  1  0  0  0  0
 20 22  1  0  0  0  0
 21 24  1  1  0  0  0
 22 18  1  0  0  0  0
 22 15  1  0  0  0  0
 23 19  1  0  0  0  0
 24 25  1  0  0  0  0
 26 24  2  0  0  0  0
 27 28  2  0  0  0  0
 28 29  1  0  0  0  0
 30 31  1  0  0  0  0
 32 47  1  6  0  0  0
 32 34  1  0  0  0  0
 32 31  1  0  0  0  0
 33 42  1  0  0  0  0
 33 34  2  0  0  0  0
 35 39  1  0  0  0  0
 37 41  1  6  0  0  0
 37 38  1  0  0  0  0
 38 36  1  0  0  0  0
 39 36  1  0  0  0  0
 40 34  1  6  0  0  0
 40 37  1  0  0  0  0
 40 35  1  0  0  0  0
 43 44  1  0  0  0  0
 43 42  2  0  0  0  0
 44 45  2  0  0  0  0
 46 44  1  0  0  0  0
 48 47  1  0  0  0  0
 49 48  1  0  0  0  0
 50 52  1  0  0  0  0
 50 51  2  0  0  0  0
 52 49  1  0  0  0  0
 53 50  1  0  0  0  0
 54 53  1  0  0  0  0
 55 54  1  0  0  0  0
M  END
>  <MODEL>
4

>  <REMARK>
 VINA RESULT:      -6.1      2.292      3.658
  Name = 
  22 active torsions:
  status: ('A' for Active; 'I' for Inactive)
    1  A    between atoms: C_1  and  C_29
    2  A    between atoms: C_2  and  O_28
    3  A    between atoms: C_2  and  C_31
    4  A    between atoms: C_4  and  C_40
    5  A    between atoms: C_6  and  C_14
    6  A    between atoms: C_6  and  C_20
    7  A    between atoms: C_6  and  O_22
    8  A    between atoms: C_8  and  O_22
    9  A    between atoms: C_8  and  C_35
   10  A    between atoms: C_10  and  C_32
   11  A    between atoms: C_13  and  N_48
   12  A    between atoms: C_13  and  C_52
   13  A    between atoms: C_19  and  C_45
   14  A    between atoms: C_26  and  C_49
   15  A    between atoms: C_27  and  C_54
   16  A    between atoms: O_28  and  C_33
   17  A    between atoms: C_32  and  C_39
   18  A    between atoms: C_33  and  C_34
   19  A    between atoms: C_33  and  C_49
   20  A    between atoms: C_34  and  C_52
   21  A    between atoms: C_35  and  O_51
   22  A    between atoms: O_51  and  C_54
                            x       y       z     vdW  Elec       q    Type
                         _______ _______ _______ _____ _____    ______ ____

>  <TORSDO>
F 22

$$$$
=
 OpenBabel11052419513D

 55 57  0  0  1  0  0  0  0  0999 V2000
  188.8920  175.5280  146.5910 S   0  0  0  0  0  0  0  0  0  0  0  0
  191.2620  176.5640  144.9690 C   0  0  2  0  0  3  0  0  0  0  0  0
  189.9510  177.3360  144.7630 C   0  0  2  0  0  3  0  0  0  0  0  0
  190.6420  175.4290  147.1450 C   0  0  0  0  0  2  0  0  0  0  0  0
  188.9770  177.2330  145.9420 C   0  0  0  0  0  2  0  0  0  0  0  0
  191.5860  176.4220  146.4570 C   0  0  0  0  0  2  0  0  0  0  0  0
  192.3720  177.3160  144.2590 C   0  0  0  0  0  2  0  0  0  0  0  0
  192.7320  176.6790  143.0710 O   0  0  0  0  0  0  0  0  0  0  0  0
  193.6420  175.7000  143.4860 C   0  0  0  0  0  2  0  0  0  0  0  0
  193.9920  174.7690  142.3360 C   0  0  1  0  0  3  0  0  0  0  0  0
  195.4970  174.8040  142.1380 C   0  0  0  0  0  1  0  0  0  0  0  0
  193.5810  173.4540  142.6470 O   0  0  0  0  0  0  0  0  0  0  0  0
  193.0970  172.8060  141.4780 C   0  0  2  0  0  0  0  0  0  0  0  0
  192.6410  173.7480  140.5530 F   0  0  0  0  0  0  0  0  0  0  0  0
  189.9800  173.3580  141.0450 C   0  0  0  0  0  2  0  0  0  0  0  0
  190.7770  173.5910  143.3670 C   0  0  0  0  0  1  0  0  0  0  0  0
  192.3420  170.9730  143.0480 C   0  0  0  0  0  1  0  0  0  0  0  0
  191.9050  171.8400  141.8580 C   0  0  1  0  0  0  0  0  0  0  0  0
  190.3930  171.1670  139.8360 C   0  0  0  0  0  2  0  0  0  0  0  0
  189.5080  171.6190  142.7210 C   0  0  0  0  0  1  0  0  0  0  0  0
  190.1770  172.6630  139.6870 C   0  0  1  0  0  3  0  0  0  0  0  0
  190.5750  172.6000  142.2410 C   0  0  0  0  0  0  0  0  0  0  0  0
  191.6420  170.8590  140.6790 C   0  0  0  0  0  2  0  0  0  0  0  0
  189.0130  172.9360  138.7910 C   0  0  0  0  0  0  0  0  0  0  0  0
  189.1810  173.6550  137.5760 N   0  0  0  0  0  1  0  0  0  0  0  0
  187.8680  172.5220  139.1230 O   0  0  0  0  0  0  0  0  0  0  0  0
  195.0890  171.4530  141.5540 O   0  0  0  0  0  1  0  0  0  0  0  0
  194.2300  172.0220  140.8370 C   0  0  0  0  0  0  0  0  0  0  0  0
  194.3430  171.9490  139.4540 O   0  0  0  0  0  0  0  0  0  0  0  0
  189.2820  176.9120  143.4650 C   0  0  0  0  0  2  0  0  0  0  0  0
  188.1360  177.7040  143.2570 O   0  0  0  0  0  0  0  0  0  0  0  0
  187.0580  176.8630  142.8930 C   0  0  1  0  0  3  0  0  0  0  0  0
  184.8560  177.6700  142.1700 C   0  0  0  0  0  3  0  0  0  0  0  0
  185.6750  177.4160  143.2030 C   0  0  0  0  0  0  0  0  0  0  0  0
  185.5190  176.5700  145.5580 C   0  0  0  0  0  2  0  0  0  0  0  0
  185.7650  178.1470  147.4820 C   0  0  0  0  0  2  0  0  0  0  0  0
  185.9290  179.0340  145.1420 C   0  0  1  0  0  3  0  0  0  0  0  0
  185.4730  179.3340  146.5680 C   0  0  0  0  0  2  0  0  0  0  0  0
  185.0440  176.9040  146.9730 C   0  0  0  0  0  2  0  0  0  0  0  0
  185.2680  177.7510  144.6190 C   0  0  1  0  0  3  0  0  0  0  0  0
  185.6110  180.1120  144.3230 O   0  0  0  0  0  1  0  0  0  0  0  0
  183.4710  178.1770  142.1990 C   0  0  0  0  0  3  0  0  0  0  0  0
  182.6200  178.1080  141.1800 C   0  0  0  0  0  3  0  0  0  0  0  0
  181.2700  178.6750  141.2630 C   0  0  0  0  0  0  0  0  0  0  0  0
  180.9760  179.4410  142.2220 O   0  0  0  0  0  0  0  0  0  0  0  0
  180.2730  178.3500  140.2980 N   0  0  0  0  0  1  0  0  0  0  0  0
  187.2310  176.2370  141.5060 C   0  0  0  0  0  2  0  0  0  0  0  0
  187.4730  177.3220  140.4760 C   0  0  0  0  0  2  0  0  0  0  0  0
  186.4260  177.2130  139.3930 C   0  0  0  0  0  2  0  0  0  0  0  0
  186.2170  176.1480  137.1140 C   0  0  0  0  0  0  0  0  0  0  0  0
  184.9670  176.0670  137.2270 O   0  0  0  0  0  0  0  0  0  0  0  0
  187.0140  176.6650  138.1810 N   0  0  0  0  0  2  0  0  0  0  0  0
  186.8740  175.6730  135.8670 C   0  0  0  0  0  2  0  0  0  0  0  0
  186.9030  176.7670  134.8140 C   0  0  0  0  0  2  0  0  0  0  0  0
  188.1490  177.5100  134.8950 N   0  0  0  0  0  1  0  0  0  0  0  0
  1  4  1  0  0  0  0
  2  7  1  6  0  0  0
  2  6  1  0  0  0  0
  3 30  1  6  0  0  0
  3  2  1  0  0  0  0
  3  5  1  0  0  0  0
  5  1  1  0  0  0  0
  6  4  1  0  0  0  0
  8  9  1  0  0  0  0
  8  7  1  0  0  0  0
 10 11  1  1  0  0  0
 10 12  1  0  0  0  0
 10  9  1  0  0  0  0
 13 14  1  6  0  0  0
 13 18  1  0  0  0  0
 13 12  1  0  0  0  0
 15 22  1  0  0  0  0
 18 22  1  0  0  0  0
 18 17  1  1  0  0  0
 19 23  1  0  0  0  0
 21 24  1  6  0  0  0
 21 19  1  0  0  0  0
 21 15  1  0  0  0  0
 22 20  1  0  0  0  0
 22 16  1  0  0  0  0
 23 18  1  0  0  0  0
 24 26  2  0  0  0  0
 25 24  1  0  0  0  0
 28 13  1  0  0  0  0
 28 27  1  0  0  0  0
 29 28  2  0  0  0  0
 31 30  1  0  0  0  0
 32 47  1  6  0  0  0
 32 34  1  0  0  0  0
 32 31  1  0  0  0  0
 33 42  1  0  0  0  0
 33 34  2  0  0  0  0
 35 39  1  0  0  0  0
 37 41  1  6  0  0  0
 37 38  1  0  0  0  0
 38 36  1  0  0  0  0
 39 36  1  0  0  0  0
 40 34  1  6  0  0  0
 40 37  1  0  0  0  0
 40 35  1  0  0  0  0
 43 44  1  0  0  0  0
 43 42  2  0  0  0  0
 44 45  2  0  0  0  0
 46 44  1  0  0  0  0
 48 47  1  0  0  0  0
 49 48  1  0  0  0  0
 50 51  2  0  0  0  0
 50 52  1  0  0  0  0
 52 49  1  0  0  0  0
 53 50  1  0  0  0  0
 54 55  1  0  0  0  0
 54 53  1  0  0  0  0
M  END
>  <MODEL>
5

>  <REMARK>
 VINA RESULT:      -6.0      2.246      3.351
  Name = 
  22 active torsions:
  status: ('A' for Active; 'I' for Inactive)
    1  A    between atoms: C_1  and  C_29
    2  A    between atoms: C_2  and  O_28
    3  A    between atoms: C_2  and  C_31
    4  A    between atoms: C_4  and  C_40
    5  A    between atoms: C_6  and  C_14
    6  A    between atoms: C_6  and  C_20
    7  A    between atoms: C_6  and  O_22
    8  A    between atoms: C_8  and  O_22
    9  A    between atoms: C_8  and  C_35
   10  A    between atoms: C_10  and  C_32
   11  A    between atoms: C_13  and  N_48
   12  A    between atoms: C_13  and  C_52
   13  A    between atoms: C_19  and  C_45
   14  A    between atoms: C_26  and  C_49
   15  A    between atoms: C_27  and  C_54
   16  A    between atoms: O_28  and  C_33
   17  A    between atoms: C_32  and  C_39
   18  A    between atoms: C_33  and  C_34
   19  A    between atoms: C_33  and  C_49
   20  A    between atoms: C_34  and  C_52
   21  A    between atoms: C_35  and  O_51
   22  A    between atoms: O_51  and  C_54
                            x       y       z     vdW  Elec       q    Type
                         _______ _______ _______ _____ _____    ______ ____

>  <TORSDO>
F 22

$$$$
=
 OpenBabel11052419513D

 55 57  0  0  1  0  0  0  0  0999 V2000
  188.4360  172.8870  139.6580 S   0  0  0  0  0  0  0  0  0  0  0  0
  190.2120  171.5740  141.7660 C   0  0  2  0  0  3  0  0  0  0  0  0
  190.9620  172.4110  140.7200 C   0  0  2  0  0  3  0  0  0  0  0  0
  187.9090  172.5510  141.3870 C   0  0  0  0  0  2  0  0  0  0  0  0
  190.1060  173.5030  140.0680 C   0  0  0  0  0  2  0  0  0  0  0  0
  189.0620  172.3700  142.3820 C   0  0  0  0  0  2  0  0  0  0  0  0
  191.2020  171.1630  142.8410 C   0  0  0  0  0  2  0  0  0  0  0  0
  191.1120  172.0000  143.9540 O   0  0  0  0  0  0  0  0  0  0  0  0
  192.3590  172.6330  143.9920 C   0  0  0  0  0  2  0  0  0  0  0  0
  192.4730  173.5270  145.2170 C   0  0  1  0  0  3  0  0  0  0  0  0
  193.8540  173.3350  145.8170 C   0  0  0  0  0  1  0  0  0  0  0  0
  192.2990  174.8760  144.8370 O   0  0  0  0  0  0  0  0  0  0  0  0
  191.0760  175.3760  145.3650 C   0  0  2  0  0  0  0  0  0  0  0  0
  190.0440  174.4610  145.1480 F   0  0  0  0  0  0  0  0  0  0  0  0
  188.4880  175.9750  143.5910 C   0  0  0  0  0  2  0  0  0  0  0  0
  190.5820  175.6700  142.3250 C   0  0  0  0  0  1  0  0  0  0  0  0
  192.0140  177.4880  144.3370 C   0  0  0  0  0  1  0  0  0  0  0  0
  190.7110  176.7420  144.6590 C   0  0  1  0  0  0  0  0  0  0  0  0
  188.4170  177.7450  145.4060 C   0  0  0  0  0  2  0  0  0  0  0  0
  189.6750  177.9050  142.6310 C   0  0  0  0  0  1  0  0  0  0  0  0
  187.8450  176.4270  144.9130 C   0  0  1  0  0  3  0  0  0  0  0  0
  189.8820  176.5620  143.3270 C   0  0  0  0  0  0  0  0  0  0  0  0
  189.9300  177.6440  145.6590 C   0  0  0  0  0  2  0  0  0  0  0  0
  186.3620  176.5240  144.7610 C   0  0  0  0  0  0  0  0  0  0  0  0
  185.5250  176.7300  145.8920 N   0  0  0  0  0  1  0  0  0  0  0  0
  185.8510  176.4200  143.6110 O   0  0  0  0  0  0  0  0  0  0  0  0
  192.2390  176.1550  147.3260 O   0  0  0  0  0  0  0  0  0  0  0  0
  191.2250  175.5770  146.8640 C   0  0  0  0  0  0  0  0  0  0  0  0
  190.2570  175.0990  147.7390 O   0  0  0  0  0  1  0  0  0  0  0  0
  191.5900  171.5110  139.6680 C   0  0  0  0  0  2  0  0  0  0  0  0
  192.5260  172.2550  138.9240 O   0  0  0  0  0  0  0  0  0  0  0  0
  193.8210  171.7460  139.1760 C   0  0  1  0  0  3  0  0  0  0  0  0
  194.9480  171.6420  141.3540 C   0  0  0  0  0  3  0  0  0  0  0  0
  194.5640  172.4140  140.3250 C   0  0  0  0  0  0  0  0  0  0  0  0
  194.0550  174.5540  141.5260 C   0  0  0  0  0  2  0  0  0  0  0  0
  195.7220  176.4170  141.5420 C   0  0  0  0  0  2  0  0  0  0  0  0
  196.2710  174.2920  140.3290 C   0  0  1  0  0  3  0  0  0  0  0  0
  196.4370  175.8100  140.3380 C   0  0  0  0  0  2  0  0  0  0  0  0
  194.2380  176.0730  141.4970 C   0  0  0  0  0  2  0  0  0  0  0  0
  194.7850  173.9080  140.3480 C   0  0  1  0  0  3  0  0  0  0  0  0
  196.8940  173.7690  139.2000 O   0  0  0  0  0  1  0  0  0  0  0  0
  195.6990  172.0310  142.5630 C   0  0  0  0  0  3  0  0  0  0  0  0
  196.3100  171.1790  143.3800 C   0  0  0  0  0  3  0  0  0  0  0  0
  197.0000  171.6320  144.5930 C   0  0  0  0  0  0  0  0  0  0  0  0
  197.6310  172.7240  144.5760 O   0  0  0  0  0  0  0  0  0  0  0  0
  196.9980  170.8440  145.7800 N   0  0  0  0  0  1  0  0  0  0  0  0
  193.8790  170.2160  139.1440 C   0  0  0  0  0  2  0  0  0  0  0  0
  194.3360  169.7450  137.7780 C   0  0  0  0  0  2  0  0  0  0  0  0
  193.3530  168.7220  137.2570 C   0  0  0  0  0  2  0  0  0  0  0  0
  191.3620  169.9190  136.2740 C   0  0  0  0  0  0  0  0  0  0  0  0
  191.9950  170.1800  135.2190 O   0  0  0  0  0  0  0  0  0  0  0  0
  191.9970  169.2360  137.3550 N   0  0  0  0  0  2  0  0  0  0  0  0
  189.9450  170.3540  136.4060 C   0  0  0  0  0  2  0  0  0  0  0  0
  189.6770  171.6000  135.5800 C   0  0  0  0  0  2  0  0  0  0  0  0
  190.0560  172.7880  136.3240 N   0  0  0  0  0  1  0  0  0  0  0  0
  1  5  1  0  0  0  0
  1  4  1  0  0  0  0
  2  6  1  0  0  0  0
  2  7  1  1  0  0  0
  3 30  1  6  0  0  0
  3  2  1  0  0  0  0
  4  6  1  0  0  0  0
  5  3  1  0  0  0  0
  7  8  1  0  0  0  0
  8  9  1  0  0  0  0
  9 10  1  0  0  0  0
 10 11  1  6  0  0  0
 12 10  1  0  0  0  0
 12 13  1  0  0  0  0
 13 14  1  6  0  0  0
 13 28  1  0  0  0  0
 15 21  1  0  0  0  0
 16 22  1  0  0  0  0
 18 17  1  6  0  0  0
 18 13  1  0  0  0  0
 18 23  1  0  0  0  0
 19 23  1  0  0  0  0
 20 22  1  0  0  0  0
 21 24  1  6  0  0  0
 21 19  1  0  0  0  0
 22 15  1  0  0  0  0
 22 18  1  0  0  0  0
 24 25  1  0  0  0  0
 26 24  2  0  0  0  0
 28 27  2  0  0  0  0
 28 29  1  0  0  0  0
 31 32  1  0  0  0  0
 31 30  1  0  0  0  0
 32 47  1  1  0  0  0
 32 34  1  0  0  0  0
 33 42  1  0  0  0  0
 34 33  2  0  0  0  0
 37 41  1  6  0  0  0
 37 38  1  0  0  0  0
 37 40  1  0  0  0  0
 38 36  1  0  0  0  0
 39 35  1  0  0  0  0
 39 36  1  0  0  0  0
 40 34  1  1  0  0  0
 40 35  1  0  0  0  0
 42 43  2  0  0  0  0
 43 44  1  0  0  0  0
 44 46  1  0  0  0  0
 45 44  2  0  0  0  0
 48 47  1  0  0  0  0
 49 52  1  0  0  0  0
 49 48  1  0  0  0  0
 50 53  1  0  0  0  0
 50 52  1  0  0  0  0
 51 50  2  0  0  0  0
 54 55  1  0  0  0  0
 54 53  1  0  0  0  0
M  END
>  <MODEL>
6

>  <REMARK>
 VINA RESULT:      -5.6      3.129      9.153
  Name = 
  22 active torsions:
  status: ('A' for Active; 'I' for Inactive)
    1  A    between atoms: C_1  and  C_29
    2  A    between atoms: C_2  and  O_28
    3  A    between atoms: C_2  and  C_31
    4  A    between atoms: C_4  and  C_40
    5  A    between atoms: C_6  and  C_14
    6  A    between atoms: C_6  and  C_20
    7  A    between atoms: C_6  and  O_22
    8  A    between atoms: C_8  and  O_22
    9  A    between atoms: C_8  and  C_35
   10  A    between atoms: C_10  and  C_32
   11  A    between atoms: C_13  and  N_48
   12  A    between atoms: C_13  and  C_52
   13  A    between atoms: C_19  and  C_45
   14  A    between atoms: C_26  and  C_49
   15  A    between atoms: C_27  and  C_54
   16  A    between atoms: O_28  and  C_33
   17  A    between atoms: C_32  and  C_39
   18  A    between atoms: C_33  and  C_34
   19  A    between atoms: C_33  and  C_49
   20  A    between atoms: C_34  and  C_52
   21  A    between atoms: C_35  and  O_51
   22  A    between atoms: O_51  and  C_54
                            x       y       z     vdW  Elec       q    Type
                         _______ _______ _______ _____ _____    ______ ____

>  <TORSDO>
F 22

$$$$
=
 OpenBabel11052419513D

 55 57  0  0  1  0  0  0  0  0999 V2000
  186.7750  178.2400  141.9320 S   0  0  0  0  0  0  0  0  0  0  0  0
  187.8790  175.7580  140.5400 C   0  0  2  0  0  3  0  0  0  0  0  0
  187.5670  175.5760  142.0320 C   0  0  2  0  0  3  0  0  0  0  0  0
  186.4950  177.8420  140.1600 C   0  0  0  0  0  2  0  0  0  0  0  0
  186.5100  176.5480  142.5680 C   0  0  0  0  0  2  0  0  0  0  0  0
  186.6870  176.3630  139.8000 C   0  0  0  0  0  2  0  0  0  0  0  0
  188.2230  174.3980  139.9590 C   0  0  0  0  0  2  0  0  0  0  0  0
  188.0990  174.3990  138.5690 O   0  0  0  0  0  0  0  0  0  0  0  0
  188.4820  173.1040  138.2050 C   0  0  0  0  0  2  0  0  0  0  0  0
  189.6340  173.1420  137.2130 C   0  0  1  0  0  3  0  0  0  0  0  0
  189.4590  174.3640  136.3290 C   0  0  0  0  0  1  0  0  0  0  0  0
  190.8590  173.2260  137.9110 O   0  0  0  0  0  0  0  0  0  0  0  0
  191.5400  171.9800  137.8500 C   0  0  2  0  0  0  0  0  0  0  0  0
  190.6780  170.9370  138.1930 F   0  0  0  0  0  0  0  0  0  0  0  0
  191.4610  171.2530  140.9600 C   0  0  0  0  0  2  0  0  0  0  0  0
  191.6250  173.6600  140.4450 C   0  0  0  0  0  1  0  0  0  0  0  0
  193.7860  173.0240  138.3640 C   0  0  0  0  0  1  0  0  0  0  0  0
  192.7610  171.9900  138.8540 C   0  0  1  0  0  0  0  0  0  0  0  0
  193.2130  169.6880  140.0040 C   0  0  0  0  0  2  0  0  0  0  0  0
  193.5900  172.4590  141.2270 C   0  0  0  0  0  1  0  0  0  0  0  0
  191.7840  169.8210  140.5020 C   0  0  1  0  0  3  0  0  0  0  0  0
  192.3540  172.3380  140.3390 C   0  0  0  0  0  0  0  0  0  0  0  0
  193.4790  170.6110  138.8030 C   0  0  0  0  0  2  0  0  0  0  0  0
  191.5230  168.8520  141.6080 C   0  0  0  0  0  0  0  0  0  0  0  0
  192.4780  168.6480  142.6410 N   0  0  0  0  0  1  0  0  0  0  0  0
  190.4370  168.2070  141.6200 O   0  0  0  0  0  0  0  0  0  0  0  0
  191.9970  170.5920  135.9330 O   0  0  0  0  0  1  0  0  0  0  0  0
  192.0250  171.7460  136.4280 C   0  0  0  0  0  0  0  0  0  0  0  0
  192.5300  172.7980  135.6730 O   0  0  0  0  0  0  0  0  0  0  0  0
  188.8410  175.6490  142.8570 C   0  0  0  0  0  2  0  0  0  0  0  0
  189.1830  174.3540  143.2930 O   0  0  0  0  0  0  0  0  0  0  0  0
  189.6790  174.4330  144.6170 C   0  0  1  0  0  3  0  0  0  0  0  0
  191.6700  172.9990  144.6100 C   0  0  0  0  0  3  0  0  0  0  0  0
  191.1820  174.2420  144.7550 C   0  0  0  0  0  0  0  0  0  0  0  0
  192.6830  175.1940  146.5230 C   0  0  0  0  0  2  0  0  0  0  0  0
  194.6510  176.5960  145.8830 C   0  0  0  0  0  2  0  0  0  0  0  0
  193.1760  175.6610  144.0840 C   0  0  1  0  0  3  0  0  0  0  0  0
  194.0490  176.8420  144.5030 C   0  0  0  0  0  2  0  0  0  0  0  0
  193.5430  176.3990  146.9110 C   0  0  0  0  0  2  0  0  0  0  0  0
  192.0850  175.3940  145.1300 C   0  0  1  0  0  3  0  0  0  0  0  0
  192.6050  175.9300  142.8440 O   0  0  0  0  0  1  0  0  0  0  0  0
  193.0750  172.5530  144.6670 C   0  0  0  0  0  3  0  0  0  0  0  0
  193.4620  171.2830  144.7390 C   0  0  0  0  0  3  0  0  0  0  0  0
  194.8770  170.9120  144.8410 C   0  0  0  0  0  0  0  0  0  0  0  0
  195.5760  171.3820  145.7800 O   0  0  0  0  0  0  0  0  0  0  0  0
  195.4860  170.0560  143.8780 N   0  0  0  0  0  1  0  0  0  0  0  0
  189.0780  175.5960  145.4110 C   0  0  0  0  0  2  0  0  0  0  0  0
  188.9190  175.2010  146.8650 C   0  0  0  0  0  2  0  0  0  0  0  0
  188.0520  176.2250  147.5610 C   0  0  0  0  0  2  0  0  0  0  0  0
  185.8160  177.3490  147.2390 C   0  0  0  0  0  0  0  0  0  0  0  0
  185.9570  178.0110  148.2990 O   0  0  0  0  0  0  0  0  0  0  0  0
  186.8040  176.4000  146.8360 N   0  0  0  0  0  2  0  0  0  0  0  0
  184.5930  177.5370  146.4130 C   0  0  0  0  0  2  0  0  0  0  0  0
  184.8600  178.4770  145.2500 C   0  0  0  0  0  2  0  0  0  0  0  0
  185.9150  179.4140  145.5930 N   0  0  0  0  0  1  0  0  0  0  0  0
  1  5  1  0  0  0  0
  2  7  1  6  0  0  0
  2  3  1  0  0  0  0
  3  5  1  0  0  0  0
  3 30  1  1  0  0  0
  4  1  1  0  0  0  0
  6  4  1  0  0  0  0
  6  2  1  0  0  0  0
  8  7  1  0  0  0  0
  9  8  1  0  0  0  0
 10 11  1  6  0  0  0
 10 12  1  0  0  0  0
 10  9  1  0  0  0  0
 13 12  1  0  0  0  0
 13 14  1  1  0  0  0
 13 18  1  0  0  0  0
 18 17  1  6  0  0  0
 18 22  1  0  0  0  0
 19 21  1  0  0  0  0
 21 15  1  0  0  0  0
 21 24  1  1  0  0  0
 22 16  1  0  0  0  0
 22 15  1  0  0  0  0
 22 20  1  0  0  0  0
 23 18  1  0  0  0  0
 23 19  1  0  0  0  0
 24 26  2  0  0  0  0
 24 25  1  0  0  0  0
 27 28  1  0  0  0  0
 28 13  1  0  0  0  0
 29 28  2  0  0  0  0
 30 31  1  0  0  0  0
 31 32  1  0  0  0  0
 32 34  1  0  0  0  0
 32 47  1  6  0  0  0
 33 42  1  0  0  0  0
 33 34  2  0  0  0  0
 35 39  1  0  0  0  0
 36 39  1  0  0  0  0
 37 41  1  6  0  0  0
 37 38  1  0  0  0  0
 37 40  1  0  0  0  0
 38 36  1  0  0  0  0
 40 34  1  6  0  0  0
 40 35  1  0  0  0  0
 42 43  2  0  0  0  0
 43 44  1  0  0  0  0
 44 45  2  0  0  0  0
 46 44  1  0  0  0  0
 47 48  1  0  0  0  0
 48 49  1  0  0  0  0
 50 51  2  0  0  0  0
 52 50  1  0  0  0  0
 52 49  1  0  0  0  0
 53 50  1  0  0  0  0
 54 55  1  0  0  0  0
 54 53  1  0  0  0  0
M  END
>  <MODEL>
7

>  <REMARK>
 VINA RESULT:      -5.3      3.204      8.129
  Name = 
  22 active torsions:
  status: ('A' for Active; 'I' for Inactive)
    1  A    between atoms: C_1  and  C_29
    2  A    between atoms: C_2  and  O_28
    3  A    between atoms: C_2  and  C_31
    4  A    between atoms: C_4  and  C_40
    5  A    between atoms: C_6  and  C_14
    6  A    between atoms: C_6  and  C_20
    7  A    between atoms: C_6  and  O_22
    8  A    between atoms: C_8  and  O_22
    9  A    between atoms: C_8  and  C_35
   10  A    between atoms: C_10  and  C_32
   11  A    between atoms: C_13  and  N_48
   12  A    between atoms: C_13  and  C_52
   13  A    between atoms: C_19  and  C_45
   14  A    between atoms: C_26  and  C_49
   15  A    between atoms: C_27  and  C_54
   16  A    between atoms: O_28  and  C_33
   17  A    between atoms: C_32  and  C_39
   18  A    between atoms: C_33  and  C_34
   19  A    between atoms: C_33  and  C_49
   20  A    between atoms: C_34  and  C_52
   21  A    between atoms: C_35  and  O_51
   22  A    between atoms: O_51  and  C_54
                            x       y       z     vdW  Elec       q    Type
                         _______ _______ _______ _____ _____    ______ ____

>  <TORSDO>
F 22

$$$$
=
 OpenBabel11052419513D

 55 57  0  0  1  0  0  0  0  0999 V2000
  188.7880  176.5430  146.6240 S   0  0  0  0  0  0  0  0  0  0  0  0
  191.4540  176.2370  145.1680 C   0  0  2  0  0  3  0  0  0  0  0  0
  190.6560  177.4950  144.7960 C   0  0  2  0  0  3  0  0  0  0  0  0
  190.2660  175.7170  147.3410 C   0  0  0  0  0  2  0  0  0  0  0  0
  189.6810  177.9550  145.8860 C   0  0  0  0  0  2  0  0  0  0  0  0
  191.5960  176.1060  146.6850 C   0  0  0  0  0  2  0  0  0  0  0  0
  192.8230  176.3360  144.5190 C   0  0  0  0  0  2  0  0  0  0  0  0
  193.7990  175.7270  145.3090 O   0  0  0  0  0  0  0  0  0  0  0  0
  194.5280  174.9580  144.3950 C   0  0  0  0  0  2  0  0  0  0  0  0
  194.7710  173.5590  144.9430 C   0  0  1  0  0  3  0  0  0  0  0  0
  193.5570  173.1520  145.7580 C   0  0  0  0  0  1  0  0  0  0  0  0
  194.9530  172.6560  143.8730 O   0  0  0  0  0  0  0  0  0  0  0  0
  196.2720  172.1240  143.9050 C   0  0  2  0  0  0  0  0  0  0  0  0
  197.1560  173.0510  144.4600 F   0  0  0  0  0  0  0  0  0  0  0  0
  195.0770  173.3040  141.1880 C   0  0  0  0  0  2  0  0  0  0  0  0
  194.4040  170.9910  141.7150 C   0  0  0  0  0  1  0  0  0  0  0  0
  197.3170  170.3530  142.4330 C   0  0  0  0  0  1  0  0  0  0  0  0
  196.7440  171.7780  142.4370 C   0  0  1  0  0  0  0  0  0  0  0  0
  197.5510  173.8480  141.0620 C   0  0  0  0  0  2  0  0  0  0  0  0
  196.0770  171.3960  139.9980 C   0  0  0  0  0  1  0  0  0  0  0  0
  196.1570  174.3880  141.3340 C   0  0  1  0  0  3  0  0  0  0  0  0
  195.5870  171.8670  141.3650 C   0  0  0  0  0  0  0  0  0  0  0  0
  197.9180  172.7180  142.0390 C   0  0  0  0  0  2  0  0  0  0  0  0
  195.8590  175.5420  140.4330 C   0  0  0  0  0  0  0  0  0  0  0  0
  195.1940  176.6980  140.9240 N   0  0  0  0  0  1  0  0  0  0  0  0
  196.2040  175.4830  139.2200 O   0  0  0  0  0  0  0  0  0  0  0  0
  195.2580  170.1610  144.8680 O   0  0  0  0  0  0  0  0  0  0  0  0
  196.2850  170.8770  144.7740 C   0  0  0  0  0  0  0  0  0  0  0  0
  197.4220  170.5320  145.4950 O   0  0  0  0  0  1  0  0  0  0  0  0
  189.9390  177.2990  143.4710 C   0  0  0  0  0  2  0  0  0  0  0  0
  189.4030  175.9970  143.4240 O   0  0  0  0  0  0  0  0  0  0  0  0
  188.4460  175.9330  142.3840 C   0  0  1  0  0  3  0  0  0  0  0  0
  188.1920  175.0750  140.0990 C   0  0  0  0  0  3  0  0  0  0  0  0
  188.7220  174.8830  141.3170 C   0  0  0  0  0  0  0  0  0  0  0  0
  190.9450  173.9440  141.9960 C   0  0  0  0  0  2  0  0  0  0  0  0
  191.0650  171.8730  143.3900 C   0  0  0  0  0  2  0  0  0  0  0  0
  188.8220  172.7800  142.7340 C   0  0  1  0  0  3  0  0  0  0  0  0
  189.6300  171.5160  143.0130 C   0  0  0  0  0  2  0  0  0  0  0  0
  191.7250  172.6550  142.2600 C   0  0  0  0  0  2  0  0  0  0  0  0
  189.4920  173.6240  141.6420 C   0  0  1  0  0  3  0  0  0  0  0  0
  187.5320  172.4240  142.3500 O   0  0  0  0  0  1  0  0  0  0  0  0
  188.3290  174.2330  138.8950 C   0  0  0  0  0  3  0  0  0  0  0  0
  189.4030  173.5080  138.5990 C   0  0  0  0  0  3  0  0  0  0  0  0
  189.4910  172.7290  137.3590 C   0  0  0  0  0  0  0  0  0  0  0  0
  189.7320  171.4920  137.4200 O   0  0  0  0  0  0  0  0  0  0  0  0
  189.3430  173.3500  136.0850 N   0  0  0  0  0  1  0  0  0  0  0  0
  187.0040  176.0050  142.8930 C   0  0  0  0  0  2  0  0  0  0  0  0
  186.2150  177.0050  142.0730 C   0  0  0  0  0  2  0  0  0  0  0  0
  186.6970  178.3990  142.4030 C   0  0  0  0  0  2  0  0  0  0  0  0
  185.4910  178.9510  144.5490 C   0  0  0  0  0  0  0  0  0  0  0  0
  184.4190  179.1760  143.9300 O   0  0  0  0  0  0  0  0  0  0  0  0
  186.6830  178.6070  143.8420 N   0  0  0  0  0  2  0  0  0  0  0  0
  185.5230  179.0740  146.0310 C   0  0  0  0  0  2  0  0  0  0  0  0
  184.9610  177.8290  146.6950 C   0  0  0  0  0  2  0  0  0  0  0  0
  185.1810  176.6670  145.8500 N   0  0  0  0  0  1  0  0  0  0  0  0
  1  4  1  0  0  0  0
  2  7  1  6  0  0  0
  2  6  1  0  0  0  0
  3 30  1  6  0  0  0
  3  2  1  0  0  0  0
  3  5  1  0  0  0  0
  5  1  1  0  0  0  0
  6  4  1  0  0  0  0
  7  8  1  0  0  0  0
  9 10  1  0  0  0  0
  9  8  1  0  0  0  0
 10 11  1  6  0  0  0
 12 13  1  0  0  0  0
 12 10  1  0  0  0  0
 13 14  1  1  0  0  0
 13 28  1  0  0  0  0
 15 21  1  0  0  0  0
 15 22  1  0  0  0  0
 18 17  1  1  0  0  0
 18 13  1  0  0  0  0
 19 21  1  0  0  0  0
 19 23  1  0  0  0  0
 20 22  1  0  0  0  0
 21 24  1  6  0  0  0
 22 16  1  0  0  0  0
 22 18  1  0  0  0  0
 23 18  1  0  0  0  0
 24 25  1  0  0  0  0
 26 24  2  0  0  0  0
 28 27  2  0  0  0  0
 28 29  1  0  0  0  0
 31 30  1  0  0  0  0
 32 47  1  1  0  0  0
 32 31  1  0  0  0  0
 33 34  2  0  0  0  0
 34 32  1  0  0  0  0
 35 39  1  0  0  0  0
 37 41  1  6  0  0  0
 37 38  1  0  0  0  0
 38 36  1  0  0  0  0
 39 36  1  0  0  0  0
 40 34  1  1  0  0  0
 40 35  1  0  0  0  0
 40 37  1  0  0  0  0
 42 33  1  0  0  0  0
 43 42  2  0  0  0  0
 44 45  2  0  0  0  0
 44 43  1  0  0  0  0
 46 44  1  0  0  0  0
 48 49  1  0  0  0  0
 48 47  1  0  0  0  0
 49 52  1  0  0  0  0
 50 53  1  0  0  0  0
 51 50  2  0  0  0  0
 52 50  1  0  0  0  0
 53 54  1  0  0  0  0
 55 54  1  0  0  0  0
M  END
>  <MODEL>
8

>  <REMARK>
 VINA RESULT:      -5.2      2.537      6.115
  Name = 
  22 active torsions:
  status: ('A' for Active; 'I' for Inactive)
    1  A    between atoms: C_1  and  C_29
    2  A    between atoms: C_2  and  O_28
    3  A    between atoms: C_2  and  C_31
    4  A    between atoms: C_4  and  C_40
    5  A    between atoms: C_6  and  C_14
    6  A    between atoms: C_6  and  C_20
    7  A    between atoms: C_6  and  O_22
    8  A    between atoms: C_8  and  O_22
    9  A    between atoms: C_8  and  C_35
   10  A    between atoms: C_10  and  C_32
   11  A    between atoms: C_13  and  N_48
   12  A    between atoms: C_13  and  C_52
   13  A    between atoms: C_19  and  C_45
   14  A    between atoms: C_26  and  C_49
   15  A    between atoms: C_27  and  C_54
   16  A    between atoms: O_28  and  C_33
   17  A    between atoms: C_32  and  C_39
   18  A    between atoms: C_33  and  C_34
   19  A    between atoms: C_33  and  C_49
   20  A    between atoms: C_34  and  C_52
   21  A    between atoms: C_35  and  O_51
   22  A    between atoms: O_51  and  C_54
                            x       y       z     vdW  Elec       q    Type
                         _______ _______ _______ _____ _____    ______ ____

>  <TORSDO>
F 22

$$$$
=
 OpenBabel11052419513D

 55 57  0  0  1  0  0  0  0  0999 V2000
  188.6810  175.9250  146.8510 S   0  0  0  0  0  0  0  0  0  0  0  0
  191.5180  176.0510  145.7300 C   0  0  2  0  0  3  0  0  0  0  0  0
  190.6970  177.3360  145.5560 C   0  0  2  0  0  3  0  0  0  0  0  0
  190.1070  174.9970  147.5480 C   0  0  0  0  0  2  0  0  0  0  0  0
  189.5700  177.4970  146.5820 C   0  0  0  0  0  2  0  0  0  0  0  0
  191.4810  175.5690  147.1810 C   0  0  0  0  0  2  0  0  0  0  0  0
  192.9470  176.3400  145.3080 C   0  0  0  0  0  2  0  0  0  0  0  0
  192.9930  176.8750  144.0200 O   0  0  0  0  0  0  0  0  0  0  0  0
  193.4560  175.8120  143.2390 C   0  0  0  0  0  2  0  0  0  0  0  0
  194.8940  176.0500  142.8030 C   0  0  1  0  0  3  0  0  0  0  0  0
  195.6270  176.7370  143.9420 C   0  0  0  0  0  1  0  0  0  0  0  0
  195.5130  174.8150  142.5110 O   0  0  0  0  0  0  0  0  0  0  0  0
  195.7430  174.7050  141.1120 C   0  0  2  0  0  0  0  0  0  0  0  0
  194.7650  175.4050  140.4030 F   0  0  0  0  0  0  0  0  0  0  0  0
  193.1810  172.7960  141.0940 C   0  0  0  0  0  2  0  0  0  0  0  0
  194.7600  172.4200  142.9500 C   0  0  0  0  0  1  0  0  0  0  0  0
  197.0810  172.5650  140.9510 C   0  0  0  0  0  1  0  0  0  0  0  0
  195.7010  173.1850  140.6830 C   0  0  1  0  0  0  0  0  0  0  0  0
  194.0570  172.6780  138.7160 C   0  0  0  0  0  2  0  0  0  0  0  0
  194.7050  170.8640  141.0830 C   0  0  0  0  0  1  0  0  0  0  0  0
  193.0030  173.2640  139.6400 C   0  0  1  0  0  3  0  0  0  0  0  0
  194.6050  172.3430  141.4470 C   0  0  0  0  0  0  0  0  0  0  0  0
  195.4750  173.0910  139.1460 C   0  0  0  0  0  2  0  0  0  0  0  0
  191.6330  172.9260  139.1500 C   0  0  0  0  0  0  0  0  0  0  0  0
  191.0190  171.6900  139.4930 N   0  0  0  0  0  1  0  0  0  0  0  0
  191.0160  173.7520  138.4210 O   0  0  0  0  0  0  0  0  0  0  0  0
  197.9380  175.5150  141.6890 O   0  0  0  0  0  1  0  0  0  0  0  0
  197.0960  175.3130  140.7800 C   0  0  0  0  0  0  0  0  0  0  0  0
  197.4050  175.6760  139.4750 O   0  0  0  0  0  0  0  0  0  0  0  0
  190.1600  177.4370  144.1380 C   0  0  0  0  0  2  0  0  0  0  0  0
  188.8420  177.9310  144.1780 O   0  0  0  0  0  0  0  0  0  0  0  0
  188.0280  177.1340  143.3370 C   0  0  1  0  0  3  0  0  0  0  0  0
  186.1780  177.9310  141.9360 C   0  0  0  0  0  3  0  0  0  0  0  0
  186.5960  177.6220  143.1740 C   0  0  0  0  0  0  0  0  0  0  0  0
  185.8430  176.6890  145.3750 C   0  0  0  0  0  2  0  0  0  0  0  0
  185.1750  178.2230  147.2320 C   0  0  0  0  0  2  0  0  0  0  0  0
  185.9230  179.1980  145.0460 C   0  0  1  0  0  3  0  0  0  0  0  0
  184.9880  179.3680  146.2410 C   0  0  0  0  0  2  0  0  0  0  0  0
  184.8870  176.8900  146.5530 C   0  0  0  0  0  2  0  0  0  0  0  0
  185.7030  177.8360  144.3740 C   0  0  1  0  0  3  0  0  0  0  0  0
  185.7000  180.2290  144.1380 O   0  0  0  0  0  1  0  0  0  0  0  0
  184.8440  178.3940  141.5070 C   0  0  0  0  0  3  0  0  0  0  0  0
  183.6970  177.8170  141.8510 C   0  0  0  0  0  3  0  0  0  0  0  0
  182.4080  178.3030  141.3490 C   0  0  0  0  0  0  0  0  0  0  0  0
  181.7220  179.0880  142.0590 O   0  0  0  0  0  0  0  0  0  0  0  0
  181.8990  177.8780  140.0870 N   0  0  0  0  0  1  0  0  0  0  0  0
  188.7390  176.7060  142.0500 C   0  0  0  0  0  2  0  0  0  0  0  0
  187.8790  175.7160  141.2900 C   0  0  0  0  0  2  0  0  0  0  0  0
  188.7560  174.5970  140.7770 C   0  0  0  0  0  2  0  0  0  0  0  0
  188.5280  172.6830  142.4050 C   0  0  0  0  0  0  0  0  0  0  0  0
  187.3830  172.4020  141.9680 O   0  0  0  0  0  0  0  0  0  0  0  0
  189.2520  173.8000  141.8880 N   0  0  0  0  0  2  0  0  0  0  0  0
  189.1230  171.8590  143.4920 C   0  0  0  0  0  2  0  0  0  0  0  0
  189.8540  172.7290  144.4990 C   0  0  0  0  0  2  0  0  0  0  0  0
  191.2140  172.9790  144.0530 N   0  0  0  0  0  1  0  0  0  0  0  0
  1  4  1  0  0  0  0
  2  7  1  1  0  0  0
  2  6  1  0  0  0  0
  3 30  1  6  0  0  0
  3  2  1  0  0  0  0
  3  5  1  0  0  0  0
  5  1  1  0  0  0  0
  6  4  1  0  0  0  0
  8  7  1  0  0  0  0
  9  8  1  0  0  0  0
 10  9  1  0  0  0  0
 10 11  1  1  0  0  0
 12 10  1  0  0  0  0
 13 14  1  6  0  0  0
 13 12  1  0  0  0  0
 15 22  1  0  0  0  0
 18 17  1  1  0  0  0
 18 13  1  0  0  0  0
 18 22  1  0  0  0  0
 19 23  1  0  0  0  0
 19 21  1  0  0  0  0
 20 22  1  0  0  0  0
 21 24  1  6  0  0  0
 21 15  1  0  0  0  0
 22 16  1  0  0  0  0
 23 18  1  0  0  0  0
 24 25  1  0  0  0  0
 26 24  2  0  0  0  0
 28 13  1  0  0  0  0
 28 27  1  0  0  0  0
 29 28  2  0  0  0  0
 30 31  1  0  0  0  0
 32 47  1  6  0  0  0
 32 31  1  0  0  0  0
 33 34  2  0  0  0  0
 34 32  1  0  0  0  0
 35 39  1  0  0  0  0
 37 41  1  6  0  0  0
 37 38  1  0  0  0  0
 38 36  1  0  0  0  0
 39 36  1  0  0  0  0
 40 34  1  6  0  0  0
 40 37  1  0  0  0  0
 40 35  1  0  0  0  0
 42 43  2  0  0  0  0
 42 33  1  0  0  0  0
 44 43  1  0  0  0  0
 44 45  2  0  0  0  0
 46 44  1  0  0  0  0
 48 47  1  0  0  0  0
 49 48  1  0  0  0  0
 49 52  1  0  0  0  0
 50 53  1  0  0  0  0
 51 50  2  0  0  0  0
 52 50  1  0  0  0  0
 53 54  1  0  0  0  0
 55 54  1  0  0  0  0
M  END
>  <MODEL>
9

>  <REMARK>
 VINA RESULT:      -5.2      1.541      2.597
  Name = 
  22 active torsions:
  status: ('A' for Active; 'I' for Inactive)
    1  A    between atoms: C_1  and  C_29
    2  A    between atoms: C_2  and  O_28
    3  A    between atoms: C_2  and  C_31
    4  A    between atoms: C_4  and  C_40
    5  A    between atoms: C_6  and  C_14
    6  A    between atoms: C_6  and  C_20
    7  A    between atoms: C_6  and  O_22
    8  A    between atoms: C_8  and  O_22
    9  A    between atoms: C_8  and  C_35
   10  A    between atoms: C_10  and  C_32
   11  A    between atoms: C_13  and  N_48
   12  A    between atoms: C_13  and  C_52
   13  A    between atoms: C_19  and  C_45
   14  A    between atoms: C_26  and  C_49
   15  A    between atoms: C_27  and  C_54
   16  A    between atoms: O_28  and  C_33
   17  A    between atoms: C_32  and  C_39
   18  A    between atoms: C_33  and  C_34
   19  A    between atoms: C_33  and  C_49
   20  A    between atoms: C_34  and  C_52
   21  A    between atoms: C_35  and  O_51
   22  A    between atoms: O_51  and  C_54
                            x       y       z     vdW  Elec       q    Type
                         _______ _______ _______ _____ _____    ______ ____

>  <TORSDO>
F 22

$$$$
