=
 OpenBabel11052417313D

 25 28  0  0  0  0  0  0  0  0999 V2000
  186.3040  177.8780  143.7910 C   0  0  0  0  0  0  0  0  0  0  0  0
  185.6840  177.8930  142.5380 C   0  0  0  0  0  0  0  0  0  0  0  0
  188.4880  177.4760  142.8230 C   0  0  0  0  0  3  0  0  0  0  0  0
  185.8310  178.0350  145.0740 C   0  0  0  0  0  0  0  0  0  0  0  0
  185.5440  178.2570  147.8170 C   0  0  0  0  0  3  0  0  0  0  0  0
  187.8940  177.4850  141.5470 C   0  0  0  0  0  3  0  0  0  0  0  0
  186.9330  177.9170  145.8960 C   0  0  0  0  0  0  0  0  0  0  0  0
  186.8230  178.0240  147.2800 C   0  0  0  0  0  3  0  0  0  0  0  0
  185.8990  177.6990  140.1260 C   0  0  0  0  0  0  0  0  0  0  0  0
  186.5850  177.5210  139.0850 O   0  0  0  0  0  0  0  0  0  0  0  0
  184.3120  178.0960  142.3860 C   0  0  0  0  0  2  0  0  0  0  0  0
  184.4180  178.3770  146.9730 C   0  0  0  0  0  3  0  0  0  0  0  0
  187.6640  177.6760  143.9270 C   0  0  0  0  0  0  0  0  0  0  0  0
  188.0270  177.7020  145.1950 O   0  0  0  0  0  0  0  0  0  0  0  0
  184.5570  177.8990  140.0170 N   0  0  0  0  0  0  0  0  0  0  0  0
  184.5530  178.2660  145.5770 C   0  0  0  0  0  3  0  0  0  0  0  0
  183.7620  178.1030  141.1030 C   0  0  0  0  0  0  0  0  0  0  0  0
  186.5020  177.6910  141.3950 C   0  0  0  0  0  0  0  0  0  0  0  0
  182.2980  178.2910  140.9270 C   0  0  0  0  0  2  0  0  0  0  0  0
  181.7290  178.8590  142.1350 N   0  0  0  0  0  2  0  0  0  0  0  0
  180.3440  179.1790  141.8370 C   0  0  0  0  0  2  0  0  0  0  0  0
  179.5690  177.9070  141.5360 C   0  0  0  0  0  2  0  0  0  0  0  0
  178.6000  177.5960  142.6320 C   0  0  0  0  0  0  0  0  0  0  0  0
  178.3770  178.5820  143.7250 C   0  0  0  0  0  1  0  0  0  0  0  0
  177.9760  176.5470  142.6230 O   0  0  0  0  0  0  0  0  0  0  0  0
  1 13  2  0  0  0  0
  1  4  1  0  0  0  0
  2  1  1  0  0  0  0
  3 13  1  0  0  0  0
  4 16  2  0  0  0  0
  4  7  1  0  0  0  0
  6  3  2  0  0  0  0
  7  8  2  0  0  0  0
  8  5  1  0  0  0  0
  9 18  1  0  0  0  0
 10  9  2  0  0  0  0
 11  2  1  0  0  0  0
 12  5  2  0  0  0  0
 13 14  1  0  0  0  0
 14  7  1  0  0  0  0
 15  9  1  0  0  0  0
 15 17  2  0  0  0  0
 16 12  1  0  0  0  0
 17 11  1  0  0  0  0
 18  6  1  0  0  0  0
 18  2  2  0  0  0  0
 19 17  1  0  0  0  0
 19 20  1  0  0  0  0
 21 20  1  0  0  0  0
 22 21  1  0  0  0  0
 22 23  1  0  0  0  0
 23 24  1  0  0  0  0
 25 23  2  0  0  0  0
M  END
>  <MODEL>
1

>  <REMARK>
 VINA RESULT:      -7.8      0.000      0.000
  Name = 
  5 active torsions:
  status: ('A' for Active; 'I' for Inactive)
    1  A    between atoms: C_2  and  C_25
    2  A    between atoms: C_6  and  N_15
    3  A    between atoms: C_6  and  C_23
    4  A    between atoms: N_15  and  C_21
    5  A    between atoms: C_21  and  C_25
                            x       y       z     vdW  Elec       q    Type
                         _______ _______ _______ _____ _____    ______ ____

>  <TORSDO>
F 5

$$$$
=
 OpenBabel11052417313D

 25 28  0  0  0  0  0  0  0  0999 V2000
  185.7800  177.6180  143.7400 C   0  0  0  0  0  0  0  0  0  0  0  0
  186.3960  177.1900  144.9190 C   0  0  0  0  0  0  0  0  0  0  0  0
  184.0050  178.7390  144.9490 C   0  0  0  0  0  3  0  0  0  0  0  0
  186.0860  177.4530  142.4080 C   0  0  0  0  0  0  0  0  0  0  0  0
  186.1270  177.4950  139.6410 C   0  0  0  0  0  3  0  0  0  0  0  0
  184.6010  178.3220  146.1540 C   0  0  0  0  0  3  0  0  0  0  0  0
  185.0940  178.1130  141.7120 C   0  0  0  0  0  0  0  0  0  0  0  0
  185.0860  178.1540  140.3200 C   0  0  0  0  0  3  0  0  0  0  0  0
  186.3890  177.1290  147.3470 C   0  0  0  0  0  0  0  0  0  0  0  0
  185.8830  177.4240  148.4620 O   0  0  0  0  0  0  0  0  0  0  0  0
  187.5670  176.4310  144.9170 C   0  0  0  0  0  2  0  0  0  0  0  0
  187.1410  176.8210  140.3570 C   0  0  0  0  0  3  0  0  0  0  0  0
  184.6210  178.3700  143.7560 C   0  0  0  0  0  0  0  0  0  0  0  0
  184.2210  178.6590  142.5330 O   0  0  0  0  0  0  0  0  0  0  0  0
  187.5310  176.3880  147.3060 N   0  0  0  0  0  0  0  0  0  0  0  0
  187.1290  176.7930  141.7630 C   0  0  0  0  0  3  0  0  0  0  0  0
  188.1290  176.0420  146.1340 C   0  0  0  0  0  0  0  0  0  0  0  0
  185.7880  177.5520  146.1500 C   0  0  0  0  0  0  0  0  0  0  0  0
  189.3610  175.2100  146.1480 C   0  0  0  0  0  2  0  0  0  0  0  0
  189.7980  175.0050  147.5170 N   0  0  0  0  0  2  0  0  0  0  0  0
  191.0020  175.7960  147.6960 C   0  0  0  0  0  2  0  0  0  0  0  0
  192.1390  175.2100  146.8760 C   0  0  0  0  0  2  0  0  0  0  0  0
  192.8670  176.2790  146.1250 C   0  0  0  0  0  0  0  0  0  0  0  0
  194.1880  176.7600  146.6170 C   0  0  0  0  0  1  0  0  0  0  0  0
  192.3940  176.7440  145.1010 O   0  0  0  0  0  0  0  0  0  0  0  0
  1 13  1  0  0  0  0
  1  2  2  0  0  0  0
  2 18  1  0  0  0  0
  3  6  1  0  0  0  0
  4  1  1  0  0  0  0
  5  8  2  0  0  0  0
  5 12  1  0  0  0  0
  7  4  2  0  0  0  0
  7 14  1  0  0  0  0
  8  7  1  0  0  0  0
  9 10  2  0  0  0  0
 11  2  1  0  0  0  0
 11 17  1  0  0  0  0
 12 16  2  0  0  0  0
 13  3  2  0  0  0  0
 14 13  1  0  0  0  0
 15  9  1  0  0  0  0
 16  4  1  0  0  0  0
 17 19  1  0  0  0  0
 17 15  2  0  0  0  0
 18  6  2  0  0  0  0
 18  9  1  0  0  0  0
 19 20  1  0  0  0  0
 20 21  1  0  0  0  0
 22 21  1  0  0  0  0
 23 24  1  0  0  0  0
 23 22  1  0  0  0  0
 25 23  2  0  0  0  0
M  END
>  <MODEL>
2

>  <REMARK>
 VINA RESULT:      -7.7      3.902      8.630
  Name = 
  5 active torsions:
  status: ('A' for Active; 'I' for Inactive)
    1  A    between atoms: C_2  and  C_25
    2  A    between atoms: C_6  and  N_15
    3  A    between atoms: C_6  and  C_23
    4  A    between atoms: N_15  and  C_21
    5  A    between atoms: C_21  and  C_25
                            x       y       z     vdW  Elec       q    Type
                         _______ _______ _______ _____ _____    ______ ____

>  <TORSDO>
F 5

$$$$
=
 OpenBabel11052417313D

 25 28  0  0  0  0  0  0  0  0999 V2000
  185.6440  177.6970  143.8820 C   0  0  0  0  0  0  0  0  0  0  0  0
  186.4290  177.1860  142.8440 C   0  0  0  0  0  0  0  0  0  0  0  0
  184.0070  178.5990  142.3420 C   0  0  0  0  0  3  0  0  0  0  0  0
  185.7750  177.6790  145.2520 C   0  0  0  0  0  0  0  0  0  0  0  0
  185.4420  177.9960  147.9810 C   0  0  0  0  0  3  0  0  0  0  0  0
  184.7750  178.0990  141.2750 C   0  0  0  0  0  3  0  0  0  0  0  0
  184.6730  178.3530  145.7400 C   0  0  0  0  0  0  0  0  0  0  0  0
  184.4760  178.5290  147.1070 C   0  0  0  0  0  3  0  0  0  0  0  0
  186.7560  176.8940  140.4550 C   0  0  0  0  0  0  0  0  0  0  0  0
  186.3970  177.0590  139.2580 O   0  0  0  0  0  0  0  0  0  0  0  0
  187.6180  176.4930  143.0770 C   0  0  0  0  0  2  0  0  0  0  0  0
  186.5670  177.3070  147.4780 C   0  0  0  0  0  3  0  0  0  0  0  0
  184.4700  178.3810  143.6370 C   0  0  0  0  0  0  0  0  0  0  0  0
  183.8980  178.7690  144.7600 O   0  0  0  0  0  0  0  0  0  0  0  0
  187.9100  176.2230  140.7210 N   0  0  0  0  0  0  0  0  0  0  0  0
  186.7460  177.1410  146.0920 C   0  0  0  0  0  3  0  0  0  0  0  0
  188.3480  176.0080  141.9910 C   0  0  0  0  0  0  0  0  0  0  0  0
  185.9800  177.3960  141.5130 C   0  0  0  0  0  0  0  0  0  0  0  0
  189.6300  175.2910  142.2220 C   0  0  0  0  0  2  0  0  0  0  0  0
  190.5630  176.1670  142.9080 N   0  0  0  0  0  2  0  0  0  0  0  0
  191.0850  175.4210  144.0390 C   0  0  0  0  0  2  0  0  0  0  0  0
  190.3120  175.7760  145.2990 C   0  0  0  0  0  2  0  0  0  0  0  0
  189.7410  174.5520  145.9410 C   0  0  0  0  0  0  0  0  0  0  0  0
  189.1810  174.6320  147.3190 C   0  0  0  0  0  1  0  0  0  0  0  0
  189.7120  173.4940  145.3350 O   0  0  0  0  0  0  0  0  0  0  0  0
  1  4  1  0  0  0  0
  2 11  1  0  0  0  0
  2  1  1  0  0  0  0
  3 13  1  0  0  0  0
  4  7  2  0  0  0  0
  4 16  1  0  0  0  0
  6 18  1  0  0  0  0
  6  3  2  0  0  0  0
  7  8  1  0  0  0  0
  8  5  2  0  0  0  0
  9 15  1  0  0  0  0
  9 18  1  0  0  0  0
 10  9  2  0  0  0  0
 12  5  1  0  0  0  0
 13  1  2  0  0  0  0
 13 14  1  0  0  0  0
 14  7  1  0  0  0  0
 15 17  2  0  0  0  0
 16 12  2  0  0  0  0
 17 19  1  0  0  0  0
 17 11  1  0  0  0  0
 18  2  2  0  0  0  0
 19 20  1  0  0  0  0
 20 21  1  0  0  0  0
 21 22  1  0  0  0  0
 22 23  1  0  0  0  0
 23 24  1  0  0  0  0
 25 23  2  0  0  0  0
M  END
>  <MODEL>
3

>  <REMARK>
 VINA RESULT:      -7.6      3.110      6.343
  Name = 
  5 active torsions:
  status: ('A' for Active; 'I' for Inactive)
    1  A    between atoms: C_2  and  C_25
    2  A    between atoms: C_6  and  N_15
    3  A    between atoms: C_6  and  C_23
    4  A    between atoms: N_15  and  C_21
    5  A    between atoms: C_21  and  C_25
                            x       y       z     vdW  Elec       q    Type
                         _______ _______ _______ _____ _____    ______ ____

>  <TORSDO>
F 5

$$$$
=
 OpenBabel11052417313D

 25 28  0  0  0  0  0  0  0  0999 V2000
  185.8700  177.6400  143.6840 C   0  0  0  0  0  0  0  0  0  0  0  0
  186.4450  177.2300  144.8910 C   0  0  0  0  0  0  0  0  0  0  0  0
  184.0970  178.8410  144.8160 C   0  0  0  0  0  3  0  0  0  0  0  0
  186.2040  177.4280  142.3660 C   0  0  0  0  0  0  0  0  0  0  0  0
  186.3140  177.3880  139.6020 C   0  0  0  0  0  3  0  0  0  0  0  0
  184.6510  178.4440  146.0470 C   0  0  0  0  0  3  0  0  0  0  0  0
  185.2470  178.0930  141.6270 C   0  0  0  0  0  0  0  0  0  0  0  0
  185.2740  178.0930  140.2350 C   0  0  0  0  0  3  0  0  0  0  0  0
  186.3770  177.2400  147.3190 C   0  0  0  0  0  0  0  0  0  0  0  0
  185.8520  177.5810  148.4120 O   0  0  0  0  0  0  0  0  0  0  0  0
  187.5950  176.4410  144.9400 C   0  0  0  0  0  2  0  0  0  0  0  0
  187.2910  176.7080  140.3610 C   0  0  0  0  0  3  0  0  0  0  0  0
  184.7320  178.4210  143.6500 C   0  0  0  0  0  0  0  0  0  0  0  0
  184.3690  178.6860  142.4100 O   0  0  0  0  0  0  0  0  0  0  0  0
  187.4990  176.4690  147.3280 N   0  0  0  0  0  0  0  0  0  0  0  0
  187.2450  176.7220  141.7670 C   0  0  0  0  0  3  0  0  0  0  0  0
  188.1170  176.0730  146.1810 C   0  0  0  0  0  0  0  0  0  0  0  0
  185.8180  177.6440  146.0950 C   0  0  0  0  0  0  0  0  0  0  0  0
  189.3250  175.2100  146.2500 C   0  0  0  0  0  2  0  0  0  0  0  0
  189.7450  174.8480  144.9080 N   0  0  0  0  0  2  0  0  0  0  0  0
  191.1950  174.9270  144.8850 C   0  0  0  0  0  2  0  0  0  0  0  0
  191.6390  176.3780  144.9760 C   0  0  0  0  0  2  0  0  0  0  0  0
  191.5290  177.0580  143.6480 C   0  0  0  0  0  0  0  0  0  0  0  0
  190.5150  178.1300  143.4480 C   0  0  0  0  0  1  0  0  0  0  0  0
  192.2780  176.7520  142.7360 O   0  0  0  0  0  0  0  0  0  0  0  0
  1  2  2  0  0  0  0
  2 11  1  0  0  0  0
  2 18  1  0  0  0  0
  3  6  1  0  0  0  0
  4  1  1  0  0  0  0
  5  8  2  0  0  0  0
  5 12  1  0  0  0  0
  6 18  2  0  0  0  0
  7  4  2  0  0  0  0
  7 14  1  0  0  0  0
  8  7  1  0  0  0  0
  9 15  1  0  0  0  0
  9 10  2  0  0  0  0
 11 17  1  0  0  0  0
 12 16  2  0  0  0  0
 13  1  1  0  0  0  0
 13  3  2  0  0  0  0
 14 13  1  0  0  0  0
 16  4  1  0  0  0  0
 17 19  1  0  0  0  0
 17 15  2  0  0  0  0
 18  9  1  0  0  0  0
 20 19  1  0  0  0  0
 21 20  1  0  0  0  0
 21 22  1  0  0  0  0
 23 22  1  0  0  0  0
 24 23  1  0  0  0  0
 25 23  2  0  0  0  0
M  END
>  <MODEL>
4

>  <REMARK>
 VINA RESULT:      -7.5      3.783      8.050
  Name = 
  5 active torsions:
  status: ('A' for Active; 'I' for Inactive)
    1  A    between atoms: C_2  and  C_25
    2  A    between atoms: C_6  and  N_15
    3  A    between atoms: C_6  and  C_23
    4  A    between atoms: N_15  and  C_21
    5  A    between atoms: C_21  and  C_25
                            x       y       z     vdW  Elec       q    Type
                         _______ _______ _______ _____ _____    ______ ____

>  <TORSDO>
F 5

$$$$
=
 OpenBabel11052417313D

 25 28  0  0  0  0  0  0  0  0999 V2000
  186.7440  177.7290  144.2120 C   0  0  0  0  0  0  0  0  0  0  0  0
  188.0850  177.5580  144.5680 C   0  0  0  0  0  0  0  0  0  0  0  0
  186.0060  177.5840  146.5150 C   0  0  0  0  0  3  0  0  0  0  0  0
  186.1090  177.9090  143.0040 C   0  0  0  0  0  0  0  0  0  0  0  0
  184.2680  178.2910  140.9740 C   0  0  0  0  0  3  0  0  0  0  0  0
  187.3460  177.4090  146.9050 C   0  0  0  0  0  3  0  0  0  0  0  0
  184.7660  178.0170  143.3010 C   0  0  0  0  0  0  0  0  0  0  0  0
  183.8140  178.2100  142.3030 C   0  0  0  0  0  3  0  0  0  0  0  0
  189.7280  177.2180  146.3240 C   0  0  0  0  0  0  0  0  0  0  0  0
  190.0410  177.0660  147.5350 O   0  0  0  0  0  0  0  0  0  0  0  0
  189.1120  177.5430  143.6230 C   0  0  0  0  0  2  0  0  0  0  0  0
  185.6440  178.1790  140.6740 C   0  0  0  0  0  3  0  0  0  0  0  0
  185.7370  177.7410  145.1580 C   0  0  0  0  0  0  0  0  0  0  0  0
  184.5560  177.9150  144.5970 O   0  0  0  0  0  0  0  0  0  0  0  0
  190.7030  177.2080  145.3740 N   0  0  0  0  0  0  0  0  0  0  0  0
  186.5880  177.9850  141.6990 C   0  0  0  0  0  3  0  0  0  0  0  0
  190.4300  177.3720  144.0510 C   0  0  0  0  0  0  0  0  0  0  0  0
  188.3870  177.3940  145.9450 C   0  0  0  0  0  0  0  0  0  0  0  0
  191.5320  177.3270  143.0550 C   0  0  0  0  0  2  0  0  0  0  0  0
  192.3680  176.1670  143.3020 N   0  0  0  0  0  2  0  0  0  0  0  0
  191.7600  175.0520  142.5970 C   0  0  0  0  0  2  0  0  0  0  0  0
  191.4960  173.9070  143.5600 C   0  0  0  0  0  2  0  0  0  0  0  0
  190.0560  173.8640  143.9620 C   0  0  0  0  0  0  0  0  0  0  0  0
  189.6910  173.6550  145.3910 C   0  0  0  0  0  1  0  0  0  0  0  0
  189.1790  174.0190  143.1280 O   0  0  0  0  0  0  0  0  0  0  0  0
  1  2  2  0  0  0  0
  1 13  1  0  0  0  0
  2 18  1  0  0  0  0
  3  6  1  0  0  0  0
  4  7  1  0  0  0  0
  4  1  1  0  0  0  0
  5  8  1  0  0  0  0
  7 14  1  0  0  0  0
  8  7  2  0  0  0  0
  9 10  2  0  0  0  0
 11 17  1  0  0  0  0
 11  2  1  0  0  0  0
 12  5  2  0  0  0  0
 12 16  1  0  0  0  0
 13  3  2  0  0  0  0
 14 13  1  0  0  0  0
 15  9  1  0  0  0  0
 16  4  2  0  0  0  0
 17 15  2  0  0  0  0
 18  9  1  0  0  0  0
 18  6  2  0  0  0  0
 19 20  1  0  0  0  0
 19 17  1  0  0  0  0
 21 20  1  0  0  0  0
 21 22  1  0  0  0  0
 22 23  1  0  0  0  0
 23 24  1  0  0  0  0
 25 23  2  0  0  0  0
M  END
>  <MODEL>
5

>  <REMARK>
 VINA RESULT:      -7.4      3.822      7.744
  Name = 
  5 active torsions:
  status: ('A' for Active; 'I' for Inactive)
    1  A    between atoms: C_2  and  C_25
    2  A    between atoms: C_6  and  N_15
    3  A    between atoms: C_6  and  C_23
    4  A    between atoms: N_15  and  C_21
    5  A    between atoms: C_21  and  C_25
                            x       y       z     vdW  Elec       q    Type
                         _______ _______ _______ _____ _____    ______ ____

>  <TORSDO>
F 5

$$$$
=
 OpenBabel11052417313D

 25 28  0  0  0  0  0  0  0  0999 V2000
  186.9120  176.7510  144.3600 C   0  0  0  0  0  0  0  0  0  0  0  0
  188.0960  176.0490  144.1170 C   0  0  0  0  0  0  0  0  0  0  0  0
  186.3000  176.7400  142.0170 C   0  0  0  0  0  3  0  0  0  0  0  0
  186.3350  177.2480  145.5070 C   0  0  0  0  0  0  0  0  0  0  0  0
  184.6850  178.4560  147.3710 C   0  0  0  0  0  3  0  0  0  0  0  0
  187.4850  176.0340  141.7390 C   0  0  0  0  0  3  0  0  0  0  0  0
  185.1590  177.8470  145.1030 C   0  0  0  0  0  0  0  0  0  0  0  0
  184.3070  178.4630  146.0160 C   0  0  0  0  0  3  0  0  0  0  0  0
  189.5710  174.9840  142.5080 C   0  0  0  0  0  0  0  0  0  0  0  0
  189.8680  174.6440  141.3310 O   0  0  0  0  0  0  0  0  0  0  0  0
  188.9840  175.7060  145.1370 C   0  0  0  0  0  2  0  0  0  0  0  0
  185.8890  177.8420  147.7800 C   0  0  0  0  0  3  0  0  0  0  0  0
  186.0420  177.0850  143.3410 C   0  0  0  0  0  0  0  0  0  0  0  0
  184.9950  177.7420  143.8010 O   0  0  0  0  0  0  0  0  0  0  0  0
  190.4130  174.6660  143.5280 N   0  0  0  0  0  0  0  0  0  0  0  0
  186.7360  177.2250  146.8410 C   0  0  0  0  0  3  0  0  0  0  0  0
  190.1460  175.0000  144.8200 C   0  0  0  0  0  0  0  0  0  0  0  0
  188.3840  175.6860  142.7750 C   0  0  0  0  0  0  0  0  0  0  0  0
  191.1150  174.6510  145.8920 C   0  0  0  0  0  2  0  0  0  0  0  0
  191.4980  175.8500  146.6160 N   0  0  0  0  0  2  0  0  0  0  0  0
  192.5110  176.5170  145.8160 C   0  0  0  0  0  2  0  0  0  0  0  0
  193.8450  176.5000  146.5440 C   0  0  0  0  0  2  0  0  0  0  0  0
  194.9440  176.0380  145.6420 C   0  0  0  0  0  0  0  0  0  0  0  0
  195.5980  174.7220  145.8860 C   0  0  0  0  0  1  0  0  0  0  0  0
  195.2950  176.7250  144.6970 O   0  0  0  0  0  0  0  0  0  0  0  0
  1  4  1  0  0  0  0
  2  1  1  0  0  0  0
  2 11  1  0  0  0  0
  3 13  1  0  0  0  0
  4 16  1  0  0  0  0
  5 12  1  0  0  0  0
  6  3  2  0  0  0  0
  6 18  1  0  0  0  0
  7  4  2  0  0  0  0
  7  8  1  0  0  0  0
  8  5  2  0  0  0  0
  9 18  1  0  0  0  0
  9 15  1  0  0  0  0
 10  9  2  0  0  0  0
 13 14  1  0  0  0  0
 13  1  2  0  0  0  0
 14  7  1  0  0  0  0
 15 17  2  0  0  0  0
 16 12  2  0  0  0  0
 17 11  1  0  0  0  0
 17 19  1  0  0  0  0
 18  2  2  0  0  0  0
 19 20  1  0  0  0  0
 21 22  1  0  0  0  0
 21 20  1  0  0  0  0
 23 24  1  0  0  0  0
 23 22  1  0  0  0  0
 25 23  2  0  0  0  0
M  END
>  <MODEL>
6

>  <REMARK>
 VINA RESULT:      -7.2      4.464      8.529
  Name = 
  5 active torsions:
  status: ('A' for Active; 'I' for Inactive)
    1  A    between atoms: C_2  and  C_25
    2  A    between atoms: C_6  and  N_15
    3  A    between atoms: C_6  and  C_23
    4  A    between atoms: N_15  and  C_21
    5  A    between atoms: C_21  and  C_25
                            x       y       z     vdW  Elec       q    Type
                         _______ _______ _______ _____ _____    ______ ____

>  <TORSDO>
F 5

$$$$
=
 OpenBabel11052417313D

 25 28  0  0  0  0  0  0  0  0999 V2000
  186.0250  177.4050  143.7930 C   0  0  0  0  0  0  0  0  0  0  0  0
  186.8690  176.6660  142.9590 C   0  0  0  0  0  0  0  0  0  0  0  0
  184.8730  178.4100  141.9130 C   0  0  0  0  0  3  0  0  0  0  0  0
  185.9120  177.5060  145.1610 C   0  0  0  0  0  0  0  0  0  0  0  0
  185.1770  178.1520  147.7490 C   0  0  0  0  0  3  0  0  0  0  0  0
  185.7080  177.6800  141.0470 C   0  0  0  0  0  3  0  0  0  0  0  0
  184.8860  178.4030  145.3850 C   0  0  0  0  0  0  0  0  0  0  0  0
  184.4920  178.7490  146.6750 C   0  0  0  0  0  3  0  0  0  0  0  0
  187.5430  176.0800  140.7000 C   0  0  0  0  0  0  0  0  0  0  0  0
  187.4330  176.1800  139.4490 O   0  0  0  0  0  0  0  0  0  0  0  0
  187.8500  175.8100  143.4590 C   0  0  0  0  0  2  0  0  0  0  0  0
  186.2250  177.2350  147.5160 C   0  0  0  0  0  3  0  0  0  0  0  0
  185.0580  178.2500  143.2840 C   0  0  0  0  0  0  0  0  0  0  0  0
  184.3820  178.8420  144.2500 O   0  0  0  0  0  0  0  0  0  0  0  0
  188.4890  175.2540  141.2250 N   0  0  0  0  0  0  0  0  0  0  0  0
  186.6070  176.9000  146.2040 C   0  0  0  0  0  3  0  0  0  0  0  0
  188.6540  175.0990  142.5660 C   0  0  0  0  0  0  0  0  0  0  0  0
  186.7020  176.8110  141.5570 C   0  0  0  0  0  0  0  0  0  0  0  0
  189.7220  174.2030  143.0840 C   0  0  0  0  0  2  0  0  0  0  0  0
  190.0420  174.5640  144.4540 N   0  0  0  0  0  2  0  0  0  0  0  0
  191.4700  174.8250  144.4960 C   0  0  0  0  0  2  0  0  0  0  0  0
  191.7260  176.2520  144.9500 C   0  0  0  0  0  2  0  0  0  0  0  0
  191.5730  177.2140  143.8150 C   0  0  0  0  0  0  0  0  0  0  0  0
  190.5440  178.2880  143.8890 C   0  0  0  0  0  1  0  0  0  0  0  0
  192.2990  177.1340  142.8380 O   0  0  0  0  0  0  0  0  0  0  0  0
  1  4  1  0  0  0  0
  2 11  1  0  0  0  0
  2  1  1  0  0  0  0
  3 13  1  0  0  0  0
  4  7  2  0  0  0  0
  4 16  1  0  0  0  0
  6 18  1  0  0  0  0
  6  3  2  0  0  0  0
  7  8  1  0  0  0  0
  8  5  2  0  0  0  0
  9 15  1  0  0  0  0
  9 18  1  0  0  0  0
 10  9  2  0  0  0  0
 12  5  1  0  0  0  0
 13  1  2  0  0  0  0
 13 14  1  0  0  0  0
 14  7  1  0  0  0  0
 15 17  2  0  0  0  0
 16 12  2  0  0  0  0
 17 19  1  0  0  0  0
 17 11  1  0  0  0  0
 18  2  2  0  0  0  0
 19 20  1  0  0  0  0
 20 21  1  0  0  0  0
 21 22  1  0  0  0  0
 23 24  1  0  0  0  0
 23 22  1  0  0  0  0
 25 23  2  0  0  0  0
M  END
>  <MODEL>
7

>  <REMARK>
 VINA RESULT:      -7.1      3.520      6.815
  Name = 
  5 active torsions:
  status: ('A' for Active; 'I' for Inactive)
    1  A    between atoms: C_2  and  C_25
    2  A    between atoms: C_6  and  N_15
    3  A    between atoms: C_6  and  C_23
    4  A    between atoms: N_15  and  C_21
    5  A    between atoms: C_21  and  C_25
                            x       y       z     vdW  Elec       q    Type
                         _______ _______ _______ _____ _____    ______ ____

>  <TORSDO>
F 5

$$$$
=
 OpenBabel11052417313D

 25 28  0  0  0  0  0  0  0  0999 V2000
  186.7450  177.7540  144.2030 C   0  0  0  0  0  0  0  0  0  0  0  0
  188.0730  177.5400  144.5840 C   0  0  0  0  0  0  0  0  0  0  0  0
  185.9720  177.7350  146.4990 C   0  0  0  0  0  3  0  0  0  0  0  0
  186.1340  177.9120  142.9800 C   0  0  0  0  0  0  0  0  0  0  0  0
  184.3370  178.2890  140.9100 C   0  0  0  0  0  3  0  0  0  0  0  0
  187.2990  177.5190  146.9150 C   0  0  0  0  0  3  0  0  0  0  0  0
  184.7930  178.0900  143.2530 C   0  0  0  0  0  0  0  0  0  0  0  0
  183.8630  178.2830  142.2350 C   0  0  0  0  0  3  0  0  0  0  0  0
  189.6770  177.2010  146.3760 C   0  0  0  0  0  0  0  0  0  0  0  0
  189.9690  177.0860  147.5960 O   0  0  0  0  0  0  0  0  0  0  0  0
  189.1100  177.4420  143.6550 C   0  0  0  0  0  2  0  0  0  0  0  0
  185.7090  178.1060  140.6340 C   0  0  0  0  0  3  0  0  0  0  0  0
  185.7280  177.8480  145.1330 C   0  0  0  0  0  0  0  0  0  0  0  0
  184.5620  178.0500  144.5490 O   0  0  0  0  0  0  0  0  0  0  0  0
  190.6630  177.1110  145.4410 N   0  0  0  0  0  0  0  0  0  0  0  0
  186.6320  177.9130  141.6790 C   0  0  0  0  0  3  0  0  0  0  0  0
  190.4130  177.2330  144.1090 C   0  0  0  0  0  0  0  0  0  0  0  0
  188.3500  177.4200  145.9710 C   0  0  0  0  0  0  0  0  0  0  0  0
  191.5250  177.1000  143.1310 C   0  0  0  0  0  2  0  0  0  0  0  0
  192.2050  175.8330  143.3320 N   0  0  0  0  0  2  0  0  0  0  0  0
  193.6280  176.0970  143.2130 C   0  0  0  0  0  2  0  0  0  0  0  0
  194.3890  175.3490  144.2950 C   0  0  0  0  0  2  0  0  0  0  0  0
  194.0420  175.8690  145.6530 C   0  0  0  0  0  0  0  0  0  0  0  0
  194.5520  177.1990  146.0900 C   0  0  0  0  0  1  0  0  0  0  0  0
  193.3280  175.2180  146.3980 O   0  0  0  0  0  0  0  0  0  0  0  0
  1  2  2  0  0  0  0
  1 13  1  0  0  0  0
  2 18  1  0  0  0  0
  3  6  1  0  0  0  0
  4  7  1  0  0  0  0
  4  1  1  0  0  0  0
  5  8  1  0  0  0  0
  7 14  1  0  0  0  0
  8  7  2  0  0  0  0
  9 10  2  0  0  0  0
 11 17  1  0  0  0  0
 11  2  1  0  0  0  0
 12  5  2  0  0  0  0
 12 16  1  0  0  0  0
 13  3  2  0  0  0  0
 14 13  1  0  0  0  0
 15  9  1  0  0  0  0
 16  4  2  0  0  0  0
 17 15  2  0  0  0  0
 18  9  1  0  0  0  0
 18  6  2  0  0  0  0
 19 20  1  0  0  0  0
 19 17  1  0  0  0  0
 21 20  1  0  0  0  0
 21 22  1  0  0  0  0
 22 23  1  0  0  0  0
 23 24  1  0  0  0  0
 23 25  2  0  0  0  0
M  END
>  <MODEL>
8

>  <REMARK>
 VINA RESULT:      -7.1      3.951      8.835
  Name = 
  5 active torsions:
  status: ('A' for Active; 'I' for Inactive)
    1  A    between atoms: C_2  and  C_25
    2  A    between atoms: C_6  and  N_15
    3  A    between atoms: C_6  and  C_23
    4  A    between atoms: N_15  and  C_21
    5  A    between atoms: C_21  and  C_25
                            x       y       z     vdW  Elec       q    Type
                         _______ _______ _______ _____ _____    ______ ____

>  <TORSDO>
F 5

$$$$
=
 OpenBabel11052417313D

 25 28  0  0  0  0  0  0  0  0999 V2000
  186.6960  176.9170  144.1750 C   0  0  0  0  0  0  0  0  0  0  0  0
  187.8620  176.2610  144.5770 C   0  0  0  0  0  0  0  0  0  0  0  0
  185.9040  177.1320  146.4550 C   0  0  0  0  0  3  0  0  0  0  0  0
  186.2050  177.2880  142.9440 C   0  0  0  0  0  0  0  0  0  0  0  0
  184.6950  178.2780  140.8470 C   0  0  0  0  0  3  0  0  0  0  0  0
  187.0680  176.4740  146.8920 C   0  0  0  0  0  3  0  0  0  0  0  0
  184.9970  177.9070  143.1940 C   0  0  0  0  0  0  0  0  0  0  0  0
  184.2130  178.4160  142.1620 C   0  0  0  0  0  3  0  0  0  0  0  0
  189.2120  175.3760  146.3930 C   0  0  0  0  0  0  0  0  0  0  0  0
  189.4160  175.1530  147.6160 O   0  0  0  0  0  0  0  0  0  0  0  0
  188.8280  175.8290  143.6680 C   0  0  0  0  0  2  0  0  0  0  0  0
  185.9310  177.6440  140.5950 C   0  0  0  0  0  3  0  0  0  0  0  0
  185.7470  177.3390  145.0870 C   0  0  0  0  0  0  0  0  0  0  0  0
  184.7340  177.9310  144.4840 O   0  0  0  0  0  0  0  0  0  0  0  0
  190.1320  174.9690  145.4760 N   0  0  0  0  0  0  0  0  0  0  0  0
  186.7070  177.1370  141.6530 C   0  0  0  0  0  3  0  0  0  0  0  0
  189.9720  175.1850  144.1420 C   0  0  0  0  0  0  0  0  0  0  0  0
  188.0470  176.0370  145.9670 C   0  0  0  0  0  0  0  0  0  0  0  0
  190.9970  174.6950  143.1830 C   0  0  0  0  0  2  0  0  0  0  0  0
  192.1950  174.3050  143.9040 N   0  0  0  0  0  2  0  0  0  0  0  0
  193.2900  175.0840  143.3530 C   0  0  0  0  0  2  0  0  0  0  0  0
  193.3990  176.4160  144.0770 C   0  0  0  0  0  2  0  0  0  0  0  0
  194.4900  176.3840  145.0980 C   0  0  0  0  0  0  0  0  0  0  0  0
  194.1920  176.7420  146.5130 C   0  0  0  0  0  1  0  0  0  0  0  0
  195.6200  176.0480  144.7820 O   0  0  0  0  0  0  0  0  0  0  0  0
  1  2  2  0  0  0  0
  1 13  1  0  0  0  0
  2 18  1  0  0  0  0
  3  6  1  0  0  0  0
  4  7  1  0  0  0  0
  4  1  1  0  0  0  0
  5  8  1  0  0  0  0
  7 14  1  0  0  0  0
  8  7  2  0  0  0  0
  9 10  2  0  0  0  0
 11 17  1  0  0  0  0
 11  2  1  0  0  0  0
 12  5  2  0  0  0  0
 12 16  1  0  0  0  0
 13  3  2  0  0  0  0
 14 13  1  0  0  0  0
 15  9  1  0  0  0  0
 16  4  2  0  0  0  0
 17 15  2  0  0  0  0
 18  9  1  0  0  0  0
 18  6  2  0  0  0  0
 19 20  1  0  0  0  0
 19 17  1  0  0  0  0
 21 20  1  0  0  0  0
 21 22  1  0  0  0  0
 22 23  1  0  0  0  0
 23 24  1  0  0  0  0
 25 23  2  0  0  0  0
M  END
>  <MODEL>
9

>  <REMARK>
 VINA RESULT:      -6.9      4.209      8.979
  Name = 
  5 active torsions:
  status: ('A' for Active; 'I' for Inactive)
    1  A    between atoms: C_2  and  C_25
    2  A    between atoms: C_6  and  N_15
    3  A    between atoms: C_6  and  C_23
    4  A    between atoms: N_15  and  C_21
    5  A    between atoms: C_21  and  C_25
                            x       y       z     vdW  Elec       q    Type
                         _______ _______ _______ _____ _____    ______ ____

>  <TORSDO>
F 5

$$$$
