=
 OpenBabel11052417083D

 30 35  0  0  1  0  0  0  0  0999 V2000
  189.9820  176.0260  144.3650 C   0  0  1  0  0  0  0  0  0  0  0  0
  190.1110  174.5510  143.9150 C   0  0  2  0  0  3  0  0  0  0  0  0
  192.3770  174.5680  144.8320 C   0  0  1  0  0  0  0  0  0  0  0  0
  190.6580  177.0500  143.4160 C   0  0  2  0  0  3  0  0  0  0  0  0
  188.8710  176.3710  145.3710 C   0  0  0  0  0  2  0  0  0  0  0  0
  185.4770  177.4570  143.3320 S   0  0  0  0  0  0  0  0  0  0  0  0
  187.0720  176.6030  143.5540 C   0  0  2  0  0  3  0  0  0  0  0  0
  186.7300  177.5190  145.7410 N   0  0  0  0  0  2  0  0  0  0  0  0
  193.4530  175.5820  144.7170 N   0  0  0  0  0  0  0  0  0  0  0  0
  187.7630  177.2290  144.7700 C   0  0  1  0  0  3  0  0  0  0  0  0
  187.9170  176.6000  142.2730 C   0  0  0  0  0  2  0  0  0  0  0  0
  190.2900  172.2150  144.7970 C   0  0  0  0  0  2  0  0  0  0  0  0
  184.4190  177.8690  145.7550 O   0  0  0  0  0  0  0  0  0  0  0  0
  189.3420  173.4140  144.5710 C   0  0  0  0  0  2  0  0  0  0  0  0
  193.4960  172.4590  145.2450 O   0  0  0  0  0  1  0  0  0  0  0  0
  191.5260  172.2180  143.8690 C   0  0  0  0  0  2  0  0  0  0  0  0
  185.4760  177.6750  145.1000 C   0  0  0  0  0  0  0  0  0  0  0  0
  191.0180  175.1480  144.9690 C   0  0  1  0  0  0  0  0  0  0  0  0
  192.0130  177.5650  143.9390 C   0  0  0  0  0  2  0  0  0  0  0  0
  193.7880  176.2330  145.9820 C   0  0  0  0  0  1  0  0  0  0  0  0
  193.2080  176.6050  143.6760 C   0  0  2  0  0  3  0  0  0  0  0  0
  189.7660  178.2330  143.0360 C   0  0  0  0  0  2  0  0  0  0  0  0
  192.6940  173.1320  144.3220 C   0  0  1  0  0  3  0  0  0  0  0  0
  191.5630  174.4980  146.1950 C   0  0  0  0  0  2  0  0  0  0  0  0
  188.6960  177.8910  141.9890 C   0  0  0  0  0  2  0  0  0  0  0  0
  193.2250  175.9980  142.2700 C   0  0  0  0  0  2  0  0  0  0  0  0
  194.5930  175.5970  141.7910 C   0  0  0  0  0  0  0  0  0  0  0  0
  194.8680  174.3500  141.6900 N   0  0  0  0  0  2  0  0  0  0  0  0
  195.6330  176.6060  141.4080 C   0  0  0  0  0  2  0  0  0  0  0  0
  196.5280  176.7900  142.4640 O   0  0  0  0  0  1  0  0  0  0  0  0
  1 18  1  0  0  0  0
  1  5  1  1  0  0  0
  2  1  1  0  0  0  0
  2 14  1  1  0  0  0
  2 18  1  0  0  0  0
  3 18  1  0  0  0  0
  3 24  1  1  0  0  0
  4 22  1  1  0  0  0
  4 19  1  0  0  0  0
  4  1  1  0  0  0  0
  6  7  1  0  0  0  0
  6 17  1  0  0  0  0
  7 11  1  6  0  0  0
  7 10  1  0  0  0  0
  9  3  1  0  0  0  0
  9 20  1  0  0  0  0
 10  5  1  1  0  0  0
 10  8  1  0  0  0  0
 14 12  1  0  0  0  0
 16 23  1  0  0  0  0
 16 12  1  0  0  0  0
 17  8  1  0  0  0  0
 17 13  2  0  0  0  0
 18 24  1  1  0  0  0
 21 26  1  6  0  0  0
 21 19  1  0  0  0  0
 21  9  1  0  0  0  0
 23  3  1  0  0  0  0
 23 15  1  1  0  0  0
 25 11  1  0  0  0  0
 25 22  1  0  0  0  0
 27 26  1  0  0  0  0
 28 27  2  0  0  0  0
 29 27  1  0  0  0  0
 29 30  1  0  0  0  0
M  END
>  <MODEL>
1

>  <REMARK>
 VINA RESULT:      -7.0      0.000      0.000
  Name = 
  3 active torsions:
  status: ('A' for Active; 'I' for Inactive)
    1  A    between atoms: CA_7  and  C_10
    2  A    between atoms: CA_7  and  C_15
    3  A    between atoms: C_10  and  C_25
                            x       y       z     vdW  Elec       q    Type
                         _______ _______ _______ _____ _____    ______ ____

>  <TORSDO>
F 3

$$$$
=
 OpenBabel11052417083D

 30 35  0  0  1  0  0  0  0  0999 V2000
  190.4890  174.8790  144.3210 C   0  0  1  0  0  0  0  0  0  0  0  0
  190.2850  174.1990  142.9470 C   0  0  2  0  0  3  0  0  0  0  0  0
  192.2300  172.8060  143.4530 C   0  0  1  0  0  0  0  0  0  0  0  0
  191.6040  175.9570  144.3470 C   0  0  2  0  0  3  0  0  0  0  0  0
  189.3410  174.7880  145.3410 C   0  0  0  0  0  2  0  0  0  0  0  0
  186.8770  178.0440  144.9100 S   0  0  0  0  0  0  0  0  0  0  0  0
  188.0870  176.7990  144.3540 C   0  0  2  0  0  3  0  0  0  0  0  0
  187.5820  176.0010  146.5550 N   0  0  0  0  0  2  0  0  0  0  0  0
  193.5470  173.1680  144.0280 N   0  0  0  0  0  0  0  0  0  0  0  0
  188.6660  176.1300  145.6050 C   0  0  1  0  0  3  0  0  0  0  0  0
  189.1380  177.3900  143.4040 C   0  0  0  0  0  2  0  0  0  0  0  0
  189.6150  172.0330  141.8840 C   0  0  0  0  0  2  0  0  0  0  0  0
  185.5110  177.0050  146.9630 O   0  0  0  0  0  0  0  0  0  0  0  0
  189.1100  173.2800  142.6430 C   0  0  0  0  0  2  0  0  0  0  0  0
  192.6000  170.7870  142.1660 O   0  0  0  0  0  1  0  0  0  0  0  0
  190.9630  172.2500  141.1600 C   0  0  0  0  0  2  0  0  0  0  0  0
  186.5790  176.9690  146.3000 C   0  0  0  0  0  0  0  0  0  0  0  0
  191.0910  173.5480  144.0500 C   0  0  1  0  0  0  0  0  0  0  0  0
  192.9140  175.4670  144.9920 C   0  0  0  0  0  2  0  0  0  0  0  0
  193.7900  172.6010  145.3530 C   0  0  0  0  0  1  0  0  0  0  0  0
  193.8170  174.6230  144.0470 C   0  0  2  0  0  3  0  0  0  0  0  0
  191.1780  177.2820  144.9820 C   0  0  0  0  0  2  0  0  0  0  0  0
  192.2250  172.1270  142.0540 C   0  0  1  0  0  3  0  0  0  0  0  0
  191.1710  172.1020  144.4070 C   0  0  0  0  0  2  0  0  0  0  0  0
  190.2900  178.1460  144.0760 C   0  0  0  0  0  2  0  0  0  0  0  0
  193.9460  175.1950  142.6320 C   0  0  0  0  0  2  0  0  0  0  0  0
  195.2350  175.9300  142.3820 C   0  0  0  0  0  0  0  0  0  0  0  0
  195.3740  176.5710  141.2820 N   0  0  0  0  0  2  0  0  0  0  0  0
  196.3480  175.9540  143.3860 C   0  0  0  0  0  2  0  0  0  0  0  0
  197.0970  177.1220  143.2350 O   0  0  0  0  0  1  0  0  0  0  0  0
  1  4  1  0  0  0  0
  1  5  1  1  0  0  0
  2 14  1  1  0  0  0
  2 18  1  0  0  0  0
  2  1  1  0  0  0  0
  3  9  1  0  0  0  0
  3 18  1  0  0  0  0
  3 24  1  1  0  0  0
  4 22  1  1  0  0  0
  4 19  1  0  0  0  0
  6 17  1  0  0  0  0
  7 11  1  1  0  0  0
  7  6  1  0  0  0  0
  7 10  1  0  0  0  0
  9 21  1  0  0  0  0
  9 20  1  0  0  0  0
 10  5  1  6  0  0  0
 10  8  1  0  0  0  0
 11 25  1  0  0  0  0
 12 14  1  0  0  0  0
 16 12  1  0  0  0  0
 16 23  1  0  0  0  0
 17  8  1  0  0  0  0
 17 13  2  0  0  0  0
 18  1  1  0  0  0  0
 18 24  1  1  0  0  0
 21 26  1  6  0  0  0
 21 19  1  0  0  0  0
 23 15  1  1  0  0  0
 23  3  1  0  0  0  0
 25 22  1  0  0  0  0
 27 26  1  0  0  0  0
 27 29  1  0  0  0  0
 28 27  2  0  0  0  0
 30 29  1  0  0  0  0
M  END
>  <MODEL>
2

>  <REMARK>
 VINA RESULT:      -6.7      1.741      2.209
  Name = 
  3 active torsions:
  status: ('A' for Active; 'I' for Inactive)
    1  A    between atoms: CA_7  and  C_10
    2  A    between atoms: CA_7  and  C_15
    3  A    between atoms: C_10  and  C_25
                            x       y       z     vdW  Elec       q    Type
                         _______ _______ _______ _____ _____    ______ ____

>  <TORSDO>
F 3

$$$$
=
 OpenBabel11052417083D

 30 35  0  0  1  0  0  0  0  0999 V2000
  190.5350  175.3440  144.0780 C   0  0  1  0  0  0  0  0  0  0  0  0
  190.5460  174.1530  143.0910 C   0  0  2  0  0  3  0  0  0  0  0  0
  192.8530  173.7260  143.7820 C   0  0  1  0  0  0  0  0  0  0  0  0
  191.2250  176.6280  143.5480 C   0  0  2  0  0  3  0  0  0  0  0  0
  189.4990  175.3180  145.2160 C   0  0  0  0  0  2  0  0  0  0  0  0
  186.0830  177.2380  143.9910 S   0  0  0  0  0  0  0  0  0  0  0  0
  187.6300  176.3030  143.7570 C   0  0  2  0  0  3  0  0  0  0  0  0
  187.4560  176.3190  146.1460 N   0  0  0  0  0  2  0  0  0  0  0  0
  193.9830  174.6630  143.9880 N   0  0  0  0  0  0  0  0  0  0  0  0
  188.4190  176.3850  145.0680 C   0  0  1  0  0  3  0  0  0  0  0  0
  188.4070  176.7610  142.5160 C   0  0  0  0  0  2  0  0  0  0  0  0
  190.6210  171.6530  142.9980 C   0  0  0  0  0  2  0  0  0  0  0  0
  185.1760  176.7260  146.4560 O   0  0  0  0  0  0  0  0  0  0  0  0
  189.7410  172.8820  143.3150 C   0  0  0  0  0  2  0  0  0  0  0  0
  193.8550  171.5790  143.2780 O   0  0  0  0  0  1  0  0  0  0  0  0
  191.8070  171.9640  142.0570 C   0  0  0  0  0  2  0  0  0  0  0  0
  186.1840  176.7580  145.7040 C   0  0  0  0  0  0  0  0  0  0  0  0
  191.5420  174.2620  144.2260 C   0  0  1  0  0  0  0  0  0  0  0  0
  192.6340  176.8490  144.1300 C   0  0  0  0  0  2  0  0  0  0  0  0
  194.4220  174.7630  145.3790 C   0  0  0  0  0  1  0  0  0  0  0  0
  193.7520  176.0180  143.4370 C   0  0  2  0  0  3  0  0  0  0  0  0
  190.3920  177.9000  143.7120 C   0  0  0  0  0  2  0  0  0  0  0  0
  193.0520  172.5870  142.7420 C   0  0  1  0  0  3  0  0  0  0  0  0
  192.1050  173.1690  145.0690 C   0  0  0  0  0  2  0  0  0  0  0  0
  189.2510  178.0300  142.6920 C   0  0  0  0  0  2  0  0  0  0  0  0
  193.6600  175.9990  141.9080 C   0  0  0  0  0  2  0  0  0  0  0  0
  194.9930  176.0340  141.2120 C   0  0  0  0  0  0  0  0  0  0  0  0
  195.0870  175.5320  140.0380 N   0  0  0  0  0  2  0  0  0  0  0  0
  196.2040  176.6560  141.8390 C   0  0  0  0  0  2  0  0  0  0  0  0
  197.0790  175.6580  142.2730 O   0  0  0  0  0  1  0  0  0  0  0  0
  1 18  1  0  0  0  0
  1  5  1  1  0  0  0
  2 14  1  1  0  0  0
  2  1  1  0  0  0  0
  2 18  1  0  0  0  0
  3  9  1  0  0  0  0
  3 18  1  0  0  0  0
  3 24  1  1  0  0  0
  4 22  1  1  0  0  0
  4  1  1  0  0  0  0
  4 19  1  0  0  0  0
  6 17  1  0  0  0  0
  7 11  1  6  0  0  0
  7  6  1  0  0  0  0
  7 10  1  0  0  0  0
  9 20  1  0  0  0  0
 10  5  1  1  0  0  0
 10  8  1  0  0  0  0
 11 25  1  0  0  0  0
 12 14  1  0  0  0  0
 16 23  1  0  0  0  0
 16 12  1  0  0  0  0
 17  8  1  0  0  0  0
 17 13  2  0  0  0  0
 18 24  1  1  0  0  0
 21 26  1  6  0  0  0
 21  9  1  0  0  0  0
 21 19  1  0  0  0  0
 23 15  1  1  0  0  0
 23  3  1  0  0  0  0
 25 22  1  0  0  0  0
 27 29  1  0  0  0  0
 27 26  1  0  0  0  0
 28 27  2  0  0  0  0
 29 30  1  0  0  0  0
M  END
>  <MODEL>
3

>  <REMARK>
 VINA RESULT:      -6.5      1.214      1.318
  Name = 
  3 active torsions:
  status: ('A' for Active; 'I' for Inactive)
    1  A    between atoms: CA_7  and  C_10
    2  A    between atoms: CA_7  and  C_15
    3  A    between atoms: C_10  and  C_25
                            x       y       z     vdW  Elec       q    Type
                         _______ _______ _______ _____ _____    ______ ____

>  <TORSDO>
F 3

$$$$
=
 OpenBabel11052417083D

 30 35  0  0  1  0  0  0  0  0999 V2000
  191.3890  175.3340  142.9060 C   0  0  1  0  0  0  0  0  0  0  0  0
  190.9160  173.9090  143.2790 C   0  0  2  0  0  3  0  0  0  0  0  0
  188.7710  174.4520  142.2390 C   0  0  1  0  0  0  0  0  0  0  0  0
  190.8910  176.4490  143.8630 C   0  0  2  0  0  3  0  0  0  0  0  0
  192.6120  175.4610  141.9810 C   0  0  0  0  0  2  0  0  0  0  0  0
  196.0210  175.7100  144.2550 S   0  0  0  0  0  0  0  0  0  0  0  0
  194.2970  175.2330  143.9040 C   0  0  2  0  0  3  0  0  0  0  0  0
  194.9700  176.1250  141.7850 N   0  0  0  0  0  2  0  0  0  0  0  0
  187.9360  175.6720  142.3400 N   0  0  0  0  0  0  0  0  0  0  0  0
  193.8380  176.0360  142.6820 C   0  0  1  0  0  3  0  0  0  0  0  0
  193.3910  175.3730  145.1350 C   0  0  0  0  0  2  0  0  0  0  0  0
  190.2930  171.7000  142.2800 C   0  0  0  0  0  2  0  0  0  0  0  0
  197.2980  175.9610  141.9170 O   0  0  0  0  0  0  0  0  0  0  0  0
  191.4610  172.6540  142.6140 C   0  0  0  0  0  2  0  0  0  0  0  0
  187.2520  172.6540  141.6650 O   0  0  0  0  0  1  0  0  0  0  0  0
  189.0300  171.9420  143.1360 C   0  0  0  0  0  2  0  0  0  0  0  0
  196.1840  175.9810  142.5020 C   0  0  0  0  0  0  0  0  0  0  0  0
  190.2290  174.7250  142.2050 C   0  0  1  0  0  0  0  0  0  0  0  0
  189.7170  177.2660  143.2900 C   0  0  0  0  0  2  0  0  0  0  0  0
  187.8310  176.4230  141.0900 C   0  0  0  0  0  1  0  0  0  0  0  0
  188.3280  176.5820  143.4400 C   0  0  2  0  0  3  0  0  0  0  0  0
  191.9910  177.3940  144.3470 C   0  0  0  0  0  2  0  0  0  0  0  0
  188.1190  173.1040  142.6620 C   0  0  1  0  0  3  0  0  0  0  0  0
  189.6370  174.2520  140.9210 C   0  0  0  0  0  2  0  0  0  0  0  0
  192.8920  176.7920  145.4350 C   0  0  0  0  0  2  0  0  0  0  0  0
  188.0890  175.9470  144.8140 C   0  0  0  0  0  2  0  0  0  0  0  0
  187.2200  176.7680  145.7270 C   0  0  0  0  0  0  0  0  0  0  0  0
  185.9570  176.7910  145.5170 N   0  0  0  0  0  2  0  0  0  0  0  0
  187.7810  177.5390  146.8830 C   0  0  0  0  0  2  0  0  0  0  0  0
  189.1740  177.4460  146.8840 O   0  0  0  0  0  1  0  0  0  0  0  0
  1  5  1  6  0  0  0
  1  2  1  0  0  0  0
  1  4  1  0  0  0  0
  2 14  1  6  0  0  0
  3 24  1  6  0  0  0
  3  9  1  0  0  0  0
  3 23  1  0  0  0  0
  4 19  1  6  0  0  0
  4 22  1  0  0  0  0
  7  6  1  0  0  0  0
  7 11  1  1  0  0  0
  8 17  1  0  0  0  0
  8 10  1  0  0  0  0
  9 21  1  0  0  0  0
 10  5  1  6  0  0  0
 10  7  1  0  0  0  0
 11 25  1  0  0  0  0
 12 14  1  0  0  0  0
 12 16  1  0  0  0  0
 13 17  2  0  0  0  0
 17  6  1  0  0  0  0
 18 24  1  6  0  0  0
 18  3  1  0  0  0  0
 18  1  1  0  0  0  0
 18  2  1  0  0  0  0
 19 21  1  0  0  0  0
 20  9  1  0  0  0  0
 21 26  1  1  0  0  0
 22 25  1  0  0  0  0
 23 15  1  6  0  0  0
 23 16  1  0  0  0  0
 26 27  1  0  0  0  0
 27 29  1  0  0  0  0
 28 27  2  0  0  0  0
 29 30  1  0  0  0  0
M  END
>  <MODEL>
4

>  <REMARK>
 VINA RESULT:      -6.5      3.010      6.758
  Name = 
  3 active torsions:
  status: ('A' for Active; 'I' for Inactive)
    1  A    between atoms: CA_7  and  C_10
    2  A    between atoms: CA_7  and  C_15
    3  A    between atoms: C_10  and  C_25
                            x       y       z     vdW  Elec       q    Type
                         _______ _______ _______ _____ _____    ______ ____

>  <TORSDO>
F 3

$$$$
=
 OpenBabel11052417083D

 30 35  0  0  1  0  0  0  0  0999 V2000
  191.3560  173.8870  143.7440 C   0  0  1  0  0  0  0  0  0  0  0  0
  192.6020  174.7610  143.4660 C   0  0  2  0  0  3  0  0  0  0  0  0
  192.3440  175.6770  145.7190 C   0  0  1  0  0  0  0  0  0  0  0  0
  190.0020  174.6270  143.5890 C   0  0  2  0  0  3  0  0  0  0  0  0
  191.5280  172.3600  143.6790 C   0  0  0  0  0  2  0  0  0  0  0  0
  190.6940  171.0590  139.8750 S   0  0  0  0  0  0  0  0  0  0  0  0
  191.2190  172.2700  141.1310 C   0  0  2  0  0  3  0  0  0  0  0  0
  190.9950  170.2910  142.4620 N   0  0  0  0  0  2  0  0  0  0  0  0
  191.1310  176.1390  146.4350 N   0  0  0  0  0  0  0  0  0  0  0  0
  190.7980  171.7240  142.5000 C   0  0  1  0  0  3  0  0  0  0  0  0
  190.7100  173.6850  140.8260 C   0  0  0  0  0  2  0  0  0  0  0  0
  194.9940  175.0790  144.1330 C   0  0  0  0  0  2  0  0  0  0  0  0
  191.1580  168.6090  140.8480 O   0  0  0  0  0  0  0  0  0  0  0  0
  194.0060  174.1900  143.3450 C   0  0  0  0  0  2  0  0  0  0  0  0
  194.2010  176.8600  146.7290 O   0  0  0  0  0  1  0  0  0  0  0  0
  194.4890  176.5220  144.3550 C   0  0  0  0  0  2  0  0  0  0  0  0
  190.9480  169.8180  141.1280 C   0  0  0  0  0  0  0  0  0  0  0  0
  192.1200  174.4790  144.8730 C   0  0  1  0  0  0  0  0  0  0  0  0
  189.3650  175.0230  144.9350 C   0  0  0  0  0  2  0  0  0  0  0  0
  190.7750  175.3140  147.5870 C   0  0  0  0  0  1  0  0  0  0  0  0
  189.9480  176.3210  145.5630 C   0  0  2  0  0  3  0  0  0  0  0  0
  188.9780  173.8840  142.7310 C   0  0  0  0  0  2  0  0  0  0  0  0
  193.4970  176.7050  145.5340 C   0  0  1  0  0  3  0  0  0  0  0  0
  192.9350  174.2530  146.1010 C   0  0  0  0  0  2  0  0  0  0  0  0
  189.2550  173.9680  141.2230 C   0  0  0  0  0  2  0  0  0  0  0  0
  190.1520  177.4620  144.5620 C   0  0  0  0  0  2  0  0  0  0  0  0
  188.9240  177.8020  143.7610 C   0  0  0  0  0  0  0  0  0  0  0  0
  187.8200  177.9980  144.3800 N   0  0  0  0  0  2  0  0  0  0  0  0
  188.9580  177.9390  142.2690 C   0  0  0  0  0  2  0  0  0  0  0  0
  187.8890  177.2410  141.7040 O   0  0  0  0  0  1  0  0  0  0  0  0
  1  5  1  6  0  0  0
  1 18  1  0  0  0  0
  2 14  1  1  0  0  0
  2  1  1  0  0  0  0
  2 18  1  0  0  0  0
  3 24  1  1  0  0  0
  3  9  1  0  0  0  0
  4 22  1  1  0  0  0
  4  1  1  0  0  0  0
  4 19  1  0  0  0  0
  6 17  1  0  0  0  0
  6  7  1  0  0  0  0
  7 11  1  6  0  0  0
  7 10  1  0  0  0  0
  8 10  1  0  0  0  0
  9 20  1  0  0  0  0
 10  5  1  1  0  0  0
 11 25  1  0  0  0  0
 12 16  1  0  0  0  0
 13 17  2  0  0  0  0
 14 12  1  0  0  0  0
 16 23  1  0  0  0  0
 17  8  1  0  0  0  0
 18  3  1  0  0  0  0
 18 24  1  1  0  0  0
 19 21  1  0  0  0  0
 21 26  1  6  0  0  0
 21  9  1  0  0  0  0
 23  3  1  0  0  0  0
 23 15  1  1  0  0  0
 25 22  1  0  0  0  0
 27 28  2  0  0  0  0
 27 26  1  0  0  0  0
 29 27  1  0  0  0  0
 30 29  1  0  0  0  0
M  END
>  <MODEL>
5

>  <REMARK>
 VINA RESULT:      -6.5      3.111      5.875
  Name = 
  3 active torsions:
  status: ('A' for Active; 'I' for Inactive)
    1  A    between atoms: CA_7  and  C_10
    2  A    between atoms: CA_7  and  C_15
    3  A    between atoms: C_10  and  C_25
                            x       y       z     vdW  Elec       q    Type
                         _______ _______ _______ _____ _____    ______ ____

>  <TORSDO>
F 3

$$$$
=
 OpenBabel11052417083D

 30 35  0  0  1  0  0  0  0  0999 V2000
  189.6740  174.8560  143.1760 C   0  0  1  0  0  0  0  0  0  0  0  0
  188.2930  175.1740  142.5540 C   0  0  2  0  0  3  0  0  0  0  0  0
  188.4560  177.3960  143.5620 C   0  0  1  0  0  0  0  0  0  0  0  0
  189.6330  174.4830  144.6800 C   0  0  2  0  0  3  0  0  0  0  0  0
  190.8210  174.4910  142.2170 C   0  0  0  0  0  2  0  0  0  0  0  0
  190.9240  170.4180  141.7100 S   0  0  0  0  0  0  0  0  0  0  0  0
  190.1380  172.0200  142.0810 C   0  0  2  0  0  3  0  0  0  0  0  0
  192.3260  172.7250  141.4070 N   0  0  0  0  0  2  0  0  0  0  0  0
  188.8850  177.8050  144.9200 N   0  0  0  0  0  0  0  0  0  0  0  0
  191.2580  173.0340  142.3330 C   0  0  1  0  0  3  0  0  0  0  0  0
  189.1060  171.9150  143.2120 C   0  0  0  0  0  2  0  0  0  0  0  0
  187.1780  176.5770  140.8070 C   0  0  0  0  0  2  0  0  0  0  0  0
  193.0560  170.8870  140.1620 O   0  0  0  0  0  0  0  0  0  0  0  0
  188.0770  175.3460  141.0580 C   0  0  0  0  0  2  0  0  0  0  0  0
  186.9980  179.1590  142.7660 O   0  0  0  0  0  1  0  0  0  0  0  0
  186.3070  176.9680  142.0220 C   0  0  0  0  0  2  0  0  0  0  0  0
  192.2640  171.3650  141.0140 C   0  0  0  0  0  0  0  0  0  0  0  0
  189.2400  176.2670  143.0010 C   0  0  1  0  0  0  0  0  0  0  0  0
  190.0750  175.6310  145.6070 C   0  0  0  0  0  2  0  0  0  0  0  0
  190.1280  178.5740  144.9410 C   0  0  0  0  0  1  0  0  0  0  0  0
  188.9690  176.6890  145.8880 C   0  0  2  0  0  3  0  0  0  0  0  0
  190.4050  173.2100  145.0290 C   0  0  0  0  0  2  0  0  0  0  0  0
  187.0250  177.8070  143.1110 C   0  0  1  0  0  3  0  0  0  0  0  0
  189.4850  177.5930  142.3660 C   0  0  0  0  0  2  0  0  0  0  0  0
  189.6790  171.9160  144.6350 C   0  0  0  0  0  2  0  0  0  0  0  0
  187.5910  176.0890  146.1830 C   0  0  0  0  0  2  0  0  0  0  0  0
  186.5860  177.0820  146.6990 C   0  0  0  0  0  0  0  0  0  0  0  0
  186.9440  177.8950  147.6230 N   0  0  0  0  0  2  0  0  0  0  0  0
  185.1930  177.1660  146.1530 C   0  0  0  0  0  2  0  0  0  0  0  0
  184.4510  178.0930  146.8870 O   0  0  0  0  0  1  0  0  0  0  0  0
  1  5  1  6  0  0  0
  1  4  1  0  0  0  0
  2 14  1  6  0  0  0
  2 18  1  0  0  0  0
  2  1  1  0  0  0  0
  3 24  1  6  0  0  0
  3  9  1  0  0  0  0
  4 22  1  6  0  0  0
  4 19  1  0  0  0  0
  6  7  1  0  0  0  0
  7 10  1  0  0  0  0
  7 11  1  1  0  0  0
  8 10  1  0  0  0  0
  9 20  1  0  0  0  0
  9 21  1  0  0  0  0
 10  5  1  6  0  0  0
 11 25  1  0  0  0  0
 12 14  1  0  0  0  0
 12 16  1  0  0  0  0
 13 17  2  0  0  0  0
 16 23  1  0  0  0  0
 17  8  1  0  0  0  0
 17  6  1  0  0  0  0
 18 24  1  6  0  0  0
 18  1  1  0  0  0  0
 18  3  1  0  0  0  0
 19 21  1  0  0  0  0
 21 26  1  6  0  0  0
 23 15  1  6  0  0  0
 23  3  1  0  0  0  0
 25 22  1  0  0  0  0
 26 27  1  0  0  0  0
 27 28  2  0  0  0  0
 29 27  1  0  0  0  0
 29 30  1  0  0  0  0
M  END
>  <MODEL>
6

>  <REMARK>
 VINA RESULT:      -6.5      3.255      7.223
  Name = 
  3 active torsions:
  status: ('A' for Active; 'I' for Inactive)
    1  A    between atoms: CA_7  and  C_10
    2  A    between atoms: CA_7  and  C_15
    3  A    between atoms: C_10  and  C_25
                            x       y       z     vdW  Elec       q    Type
                         _______ _______ _______ _____ _____    ______ ____

>  <TORSDO>
F 3

$$$$
=
 OpenBabel11052417083D

 30 35  0  0  1  0  0  0  0  0999 V2000
  191.5650  175.1430  144.5050 C   0  0  1  0  0  0  0  0  0  0  0  0
  192.8080  175.7010  145.2370 C   0  0  2  0  0  3  0  0  0  0  0  0
  194.1860  174.4350  143.6630 C   0  0  1  0  0  0  0  0  0  0  0  0
  191.1790  173.6940  144.9020 C   0  0  2  0  0  3  0  0  0  0  0  0
  190.6030  176.1550  143.8590 C   0  0  0  0  0  2  0  0  0  0  0  0
  187.6690  177.1530  146.5530 S   0  0  0  0  0  0  0  0  0  0  0  0
  189.3230  176.5790  146.0440 C   0  0  2  0  0  3  0  0  0  0  0  0
  188.3770  177.1950  143.9310 N   0  0  0  0  0  2  0  0  0  0  0  0
  194.0500  173.0430  143.1710 N   0  0  0  0  0  0  0  0  0  0  0  0
  189.2480  176.2230  144.5560 C   0  0  1  0  0  3  0  0  0  0  0  0
  189.8520  175.4540  146.9430 C   0  0  0  0  0  2  0  0  0  0  0  0
  194.7540  177.2490  144.9470 C   0  0  0  0  0  2  0  0  0  0  0  0
  186.6790  178.6640  144.5790 O   0  0  0  0  0  0  0  0  0  0  0  0
  193.2270  177.1620  145.1650 C   0  0  0  0  0  2  0  0  0  0  0  0
  196.5340  174.9900  143.4410 O   0  0  0  0  0  1  0  0  0  0  0  0
  195.5190  175.9830  145.3950 C   0  0  0  0  0  2  0  0  0  0  0  0
  187.4860  177.7490  144.8840 C   0  0  0  0  0  0  0  0  0  0  0  0
  192.8910  175.1390  143.8340 C   0  0  1  0  0  0  0  0  0  0  0  0
  191.6050  172.6410  143.8600 C   0  0  0  0  0  2  0  0  0  0  0  0
  193.7360  172.9470  141.7460 C   0  0  0  0  0  1  0  0  0  0  0  0
  193.0990  172.2180  143.9500 C   0  0  2  0  0  3  0  0  0  0  0  0
  189.7010  173.5130  145.2470 C   0  0  0  0  0  2  0  0  0  0  0  0
  195.5150  174.8110  144.3790 C   0  0  1  0  0  3  0  0  0  0  0  0
  193.7310  175.6120  142.6970 C   0  0  0  0  0  2  0  0  0  0  0  0
  189.3180  174.0500  146.6340 C   0  0  0  0  0  2  0  0  0  0  0  0
  193.5950  171.9780  145.3790 C   0  0  0  0  0  2  0  0  0  0  0  0
  194.6870  170.9480  145.4840 C   0  0  0  0  0  0  0  0  0  0  0  0
  194.3880  169.7150  145.3080 N   0  0  0  0  0  2  0  0  0  0  0  0
  196.1120  171.3210  145.7650 C   0  0  0  0  0  2  0  0  0  0  0  0
  196.8000  171.5050  144.5650 O   0  0  0  0  0  1  0  0  0  0  0  0
  1  5  1  6  0  0  0
  1  4  1  0  0  0  0
  1  2  1  0  0  0  0
  2 14  1  6  0  0  0
  3 24  1  6  0  0  0
  3 18  1  0  0  0  0
  3 23  1  0  0  0  0
  4 19  1  6  0  0  0
  4 22  1  0  0  0  0
  7  6  1  0  0  0  0
  7 11  1  1  0  0  0
  8 10  1  0  0  0  0
  8 17  1  0  0  0  0
  9  3  1  0  0  0  0
  9 21  1  0  0  0  0
 10  5  1  6  0  0  0
 10  7  1  0  0  0  0
 12 14  1  0  0  0  0
 12 16  1  0  0  0  0
 13 17  2  0  0  0  0
 17  6  1  0  0  0  0
 18 24  1  6  0  0  0
 18  1  1  0  0  0  0
 18  2  1  0  0  0  0
 19 21  1  0  0  0  0
 20  9  1  0  0  0  0
 21 26  1  1  0  0  0
 22 25  1  0  0  0  0
 23 15  1  6  0  0  0
 23 16  1  0  0  0  0
 25 11  1  0  0  0  0
 26 27  1  0  0  0  0
 27 29  1  0  0  0  0
 28 27  2  0  0  0  0
 30 29  1  0  0  0  0
M  END
>  <MODEL>
7

>  <REMARK>
 VINA RESULT:      -6.2      2.326      4.444
  Name = 
  3 active torsions:
  status: ('A' for Active; 'I' for Inactive)
    1  A    between atoms: CA_7  and  C_10
    2  A    between atoms: CA_7  and  C_15
    3  A    between atoms: C_10  and  C_25
                            x       y       z     vdW  Elec       q    Type
                         _______ _______ _______ _____ _____    ______ ____

>  <TORSDO>
F 3

$$$$
=
 OpenBabel11052417083D

 30 35  0  0  1  0  0  0  0  0999 V2000
  189.6320  174.1760  142.4360 C   0  0  1  0  0  0  0  0  0  0  0  0
  190.7130  175.2760  142.3210 C   0  0  2  0  0  3  0  0  0  0  0  0
  189.4040  176.5970  143.9080 C   0  0  1  0  0  0  0  0  0  0  0  0
  188.3550  174.4360  141.5940 C   0  0  2  0  0  3  0  0  0  0  0  0
  190.0720  172.7940  142.9480 C   0  0  0  0  0  2  0  0  0  0  0  0
  191.1040  170.4270  139.7550 S   0  0  0  0  0  0  0  0  0  0  0  0
  190.8530  172.0050  140.6330 C   0  0  2  0  0  3  0  0  0  0  0  0
  190.4440  170.4290  142.3900 N   0  0  0  0  0  2  0  0  0  0  0  0
  187.9450  176.8510  143.9730 N   0  0  0  0  0  0  0  0  0  0  0  0
  190.0080  171.7100  141.8760 C   0  0  1  0  0  3  0  0  0  0  0  0
  190.2820  173.0970  139.7180 C   0  0  0  0  0  2  0  0  0  0  0  0
  192.5300  176.4170  143.6110 C   0  0  0  0  0  2  0  0  0  0  0  0
  191.5380  168.5260  141.5880 O   0  0  0  0  0  0  0  0  0  0  0  0
  192.1190  175.1190  142.8800 C   0  0  0  0  0  2  0  0  0  0  0  0
  190.4540  178.4710  145.0290 O   0  0  0  0  0  1  0  0  0  0  0  0
  191.7410  177.6640  143.1520 C   0  0  0  0  0  2  0  0  0  0  0  0
  191.0290  169.6530  141.3590 C   0  0  0  0  0  0  0  0  0  0  0  0
  189.7540  175.2170  143.4890 C   0  0  1  0  0  0  0  0  0  0  0  0
  187.1660  174.9470  142.4300 C   0  0  0  0  0  2  0  0  0  0  0  0
  187.2940  176.2630  145.1420 C   0  0  0  0  0  1  0  0  0  0  0  0
  187.2110  176.4690  142.7450 C   0  0  2  0  0  3  0  0  0  0  0  0
  187.9160  173.2460  140.7410 C   0  0  0  0  0  2  0  0  0  0  0  0
  190.3380  177.8350  143.7920 C   0  0  1  0  0  3  0  0  0  0  0  0
  190.0200  175.5390  144.9210 C   0  0  0  0  0  2  0  0  0  0  0  0
  188.7670  173.0380  139.4810 C   0  0  0  0  0  2  0  0  0  0  0  0
  187.6090  177.3430  141.5520 C   0  0  0  0  0  2  0  0  0  0  0  0
  186.4760  177.6510  140.6110 C   0  0  0  0  0  0  0  0  0  0  0  0
  186.6010  177.3400  139.3750 N   0  0  0  0  0  2  0  0  0  0  0  0
  185.2010  178.2860  141.0780 C   0  0  0  0  0  2  0  0  0  0  0  0
  184.1920  178.0710  140.1380 O   0  0  0  0  0  1  0  0  0  0  0  0
  1  5  1  1  0  0  0
  1 18  1  0  0  0  0
  2  1  1  0  0  0  0
  2 14  1  1  0  0  0
  2 18  1  0  0  0  0
  3  9  1  0  0  0  0
  3 24  1  1  0  0  0
  4 22  1  1  0  0  0
  4 19  1  0  0  0  0
  4  1  1  0  0  0  0
  6  7  1  0  0  0  0
  6 17  1  0  0  0  0
  7 11  1  6  0  0  0
  7 10  1  0  0  0  0
  9 20  1  0  0  0  0
 10  8  1  0  0  0  0
 10  5  1  1  0  0  0
 14 12  1  0  0  0  0
 16 12  1  0  0  0  0
 16 23  1  0  0  0  0
 17 13  2  0  0  0  0
 17  8  1  0  0  0  0
 18  3  1  0  0  0  0
 18 24  1  1  0  0  0
 19 21  1  0  0  0  0
 21 26  1  6  0  0  0
 21  9  1  0  0  0  0
 23  3  1  0  0  0  0
 23 15  1  1  0  0  0
 25 11  1  0  0  0  0
 25 22  1  0  0  0  0
 27 29  1  0  0  0  0
 27 26  1  0  0  0  0
 28 27  2  0  0  0  0
 30 29  1  0  0  0  0
M  END
>  <MODEL>
8

>  <REMARK>
 VINA RESULT:      -6.2      3.683      6.888
  Name = 
  3 active torsions:
  status: ('A' for Active; 'I' for Inactive)
    1  A    between atoms: CA_7  and  C_10
    2  A    between atoms: CA_7  and  C_15
    3  A    between atoms: C_10  and  C_25
                            x       y       z     vdW  Elec       q    Type
                         _______ _______ _______ _____ _____    ______ ____

>  <TORSDO>
F 3

$$$$
=
 OpenBabel11052417083D

 30 35  0  0  1  0  0  0  0  0999 V2000
  190.0570  174.8750  142.9800 C   0  0  1  0  0  0  0  0  0  0  0  0
  188.5700  174.9680  143.3950 C   0  0  2  0  0  3  0  0  0  0  0  0
  188.9760  177.3100  143.9710 C   0  0  1  0  0  0  0  0  0  0  0  0
  191.0470  174.7020  144.1620 C   0  0  2  0  0  3  0  0  0  0  0  0
  190.3680  174.5010  141.5200 C   0  0  0  0  0  2  0  0  0  0  0  0
  190.7800  170.4270  141.2190 S   0  0  0  0  0  0  0  0  0  0  0  0
  190.1660  171.9780  141.9530 C   0  0  2  0  0  3  0  0  0  0  0  0
  191.2700  172.8000  139.9920 N   0  0  0  0  0  2  0  0  0  0  0  0
  190.1000  177.9370  144.7080 N   0  0  0  0  0  0  0  0  0  0  0  0
  191.0070  173.1230  141.3780 C   0  0  1  0  0  3  0  0  0  0  0  0
  190.1280  171.9230  143.4860 C   0  0  0  0  0  2  0  0  0  0  0  0
  186.3890  176.0100  142.7440 C   0  0  0  0  0  2  0  0  0  0  0  0
  191.3230  170.8940  138.6400 O   0  0  0  0  0  0  0  0  0  0  0  0
  187.4250  174.9180  142.3950 C   0  0  0  0  0  2  0  0  0  0  0  0
  187.0860  178.7990  144.2510 O   0  0  0  0  0  1  0  0  0  0  0  0
  186.4450  176.4710  144.2170 C   0  0  0  0  0  2  0  0  0  0  0  0
  191.1930  171.4000  139.7840 C   0  0  0  0  0  0  0  0  0  0  0  0
  189.3910  176.2000  143.0780 C   0  0  1  0  0  0  0  0  0  0  0  0
  191.7850  176.0020  144.5350 C   0  0  0  0  0  2  0  0  0  0  0  0
  190.9250  178.8210  143.8870 C   0  0  0  0  0  1  0  0  0  0  0  0
  190.9610  176.9730  145.4290 C   0  0  2  0  0  3  0  0  0  0  0  0
  192.0570  173.5700  143.9710 C   0  0  0  0  0  2  0  0  0  0  0  0
  187.5450  177.5140  144.5450 C   0  0  1  0  0  3  0  0  0  0  0  0
  188.9570  177.4480  142.3880 C   0  0  0  0  0  2  0  0  0  0  0  0
  191.4670  172.1700  144.1930 C   0  0  0  0  0  2  0  0  0  0  0  0
  190.2080  176.2840  146.5710 C   0  0  0  0  0  2  0  0  0  0  0  0
  190.9920  176.1850  147.8510 C   0  0  0  0  0  0  0  0  0  0  0  0
  191.1900  175.0280  148.3630 N   0  0  0  0  0  2  0  0  0  0  0  0
  191.5660  177.3910  148.5310 C   0  0  0  0  0  2  0  0  0  0  0  0
  190.5490  178.3030  148.8180 O   0  0  0  0  0  1  0  0  0  0  0  0
  1  5  1  6  0  0  0
  1 18  1  0  0  0  0
  1  2  1  0  0  0  0
  1  4  1  0  0  0  0
  2 14  1  6  0  0  0
  3 24  1  6  0  0  0
  3 23  1  0  0  0  0
  3  9  1  0  0  0  0
  4 22  1  6  0  0  0
  4 19  1  0  0  0  0
  6  7  1  0  0  0  0
  7 11  1  1  0  0  0
  8 10  1  0  0  0  0
  9 21  1  0  0  0  0
 10  5  1  6  0  0  0
 10  7  1  0  0  0  0
 11 25  1  0  0  0  0
 12 16  1  0  0  0  0
 13 17  2  0  0  0  0
 14 12  1  0  0  0  0
 16 23  1  0  0  0  0
 17  8  1  0  0  0  0
 17  6  1  0  0  0  0
 18 24  1  6  0  0  0
 18  2  1  0  0  0  0
 18  3  1  0  0  0  0
 19 21  1  0  0  0  0
 20  9  1  0  0  0  0
 21 26  1  1  0  0  0
 22 25  1  0  0  0  0
 23 15  1  6  0  0  0
 26 27  1  0  0  0  0
 27 28  2  0  0  0  0
 27 29  1  0  0  0  0
 29 30  1  0  0  0  0
M  END
>  <MODEL>
9

>  <REMARK>
 VINA RESULT:      -6.1      3.449      6.365
  Name = 
  3 active torsions:
  status: ('A' for Active; 'I' for Inactive)
    1  A    between atoms: CA_7  and  C_10
    2  A    between atoms: CA_7  and  C_15
    3  A    between atoms: C_10  and  C_25
                            x       y       z     vdW  Elec       q    Type
                         _______ _______ _______ _____ _____    ______ ____

>  <TORSDO>
F 3

$$$$
