=
 OpenBabel11052419583D

 37 42  0  0  1  0  0  0  0  0999 V2000
  190.7550  174.5120  142.3090 C   0  0  2  0  0  3  0  0  0  0  0  0
  192.1210  175.0710  142.8220 C   0  0  1  0  0  0  0  0  0  0  0  0
  188.3690  175.0850  141.5810 C   0  0  1  0  0  3  0  0  0  0  0  0
  193.2720  174.0360  142.9420 C   0  0  1  0  0  0  0  0  0  0  0  0
  192.3270  172.0870  143.6920 C   0  0  0  0  0  2  0  0  0  0  0  0
  188.6090  174.0140  140.7160 O   0  0  0  0  0  0  0  0  0  0  0  0
  189.3740  172.3850  142.3150 C   0  0  0  0  0  0  0  0  0  0  0  0
  189.6750  175.5920  142.1820 C   0  0  0  0  0  2  0  0  0  0  0  0
  189.4500  171.1450  142.5200 O   0  0  0  0  0  0  0  0  0  0  0  0
  192.9200  172.7190  142.5760 O   0  0  0  0  0  0  0  0  0  0  0  0
  190.2890  173.2820  142.9830 N   0  0  0  0  0  0  0  0  0  0  0  0
  193.2600  175.0440  141.7770 C   0  0  1  0  0  0  0  0  0  0  0  0
  191.0220  172.7620  144.1370 C   0  0  0  0  0  2  0  0  0  0  0  0
  188.2460  172.8840  141.4560 C   0  0  0  0  0  2  0  0  0  0  0  0
  192.9000  174.4870  140.3970 C   0  0  0  0  0  1  0  0  0  0  0  0
  194.2140  174.7100  145.2040 C   0  0  0  0  0  3  0  0  0  0  0  0
  194.4200  174.1760  143.9240 C   0  0  0  0  0  0  0  0  0  0  0  0
  195.6760  173.6410  143.6030 C   0  0  0  0  0  3  0  0  0  0  0  0
  197.9410  173.1940  144.1980 F   0  0  0  0  0  0  0  0  0  0  0  0
  196.5190  174.2600  145.7870 C   0  0  0  0  0  3  0  0  0  0  0  0
  196.7260  173.6950  144.5250 C   0  0  0  0  0  0  0  0  0  0  0  0
  195.2610  174.7610  146.1280 C   0  0  0  0  0  3  0  0  0  0  0  0
  190.0770  177.9450  145.0850 C   0  0  0  0  0  2  0  0  0  0  0  0
  191.3890  175.8340  145.1690 C   0  0  0  0  0  2  0  0  0  0  0  0
  190.8140  178.3330  143.8350 C   0  0  0  0  0  3  0  0  0  0  0  0
  191.7670  177.5540  143.3030 C   0  0  0  0  0  3  0  0  0  0  0  0
  192.1430  176.2040  143.8780 C   0  0  2  0  0  3  0  0  0  0  0  0
  189.9800  176.4200  145.2020 C   0  0  1  0  0  3  0  0  0  0  0  0
  189.2170  175.9220  146.4390 C   0  0  0  0  0  0  0  0  0  0  0  0
  190.0360  175.4370  147.6160 C   0  0  0  0  0  2  0  0  0  0  0  0
  187.9240  176.6080  146.8350 C   0  0  0  0  0  1  0  0  0  0  0  0
  189.2720  174.4410  146.7470 C   0  0  0  0  0  2  0  0  0  0  0  0
  186.6590  176.7470  141.6380 O   0  0  0  0  0  1  0  0  0  0  0  0
  187.6650  176.2050  140.8370 C   0  0  0  0  0  2  0  0  0  0  0  0
  194.2240  176.2370  141.8130 C   0  0  0  0  0  2  0  0  0  0  0  0
  196.6010  176.4750  141.3940 N   0  0  0  0  0  1  0  0  0  0  0  0
  195.3390  176.0840  140.7930 C   0  0  0  0  0  2  0  0  0  0  0  0
  1  8  1  1  0  0  0
  1  2  1  0  0  0  0
  1 11  1  0  0  0  0
  2  4  1  0  0  0  0
  2 27  1  1  0  0  0
  3 34  1  6  0  0  0
  3  8  1  0  0  0  0
  4 17  1  1  0  0  0
  5 13  1  0  0  0  0
  6 14  1  0  0  0  0
  6  3  1  0  0  0  0
  7  9  2  0  0  0  0
  7 11  1  0  0  0  0
 10  4  1  0  0  0  0
 10  5  1  0  0  0  0
 11 13  1  0  0  0  0
 12 15  1  6  0  0  0
 12 35  1  0  0  0  0
 12  2  1  0  0  0  0
 12  4  1  0  0  0  0
 14  7  1  0  0  0  0
 16 22  1  0  0  0  0
 17 16  2  0  0  0  0
 18 17  1  0  0  0  0
 18 21  2  0  0  0  0
 19 21  1  0  0  0  0
 20 22  2  0  0  0  0
 21 20  1  0  0  0  0
 24 28  1  0  0  0  0
 25 23  1  0  0  0  0
 26 25  2  0  0  0  0
 27 26  1  6  0  0  0
 27 24  1  0  0  0  0
 28 23  1  1  0  0  0
 28 29  1  0  0  0  0
 29 32  1  0  0  0  0
 29 31  1  0  0  0  0
 29 30  1  0  0  0  0
 32 30  1  0  0  0  0
 34 33  1  0  0  0  0
 37 36  1  0  0  0  0
 37 35  1  0  0  0  0
M  END
>  <MODEL>
1

>  <REMARK>
 VINA RESULT:      -7.3      0.000      0.000
  Name = 
  6 active torsions:
  status: ('A' for Active; 'I' for Inactive)
    1  A    between atoms: C_3  and  C_30
    2  A    between atoms: C_4  and  C_28
    3  A    between atoms: C_5  and  C_23
    4  A    between atoms: C_6  and  C_7
    5  A    between atoms: C_14  and  C_31
    6  A    between atoms: C_14  and  C_37
                            x       y       z     vdW  Elec       q    Type
                         _______ _______ _______ _____ _____    ______ ____

>  <TORSDO>
F 6

$$$$
=
 OpenBabel11052419583D

 37 42  0  0  1  0  0  0  0  0999 V2000
  192.0780  173.3480  143.9800 C   0  0  2  0  0  3  0  0  0  0  0  0
  191.2550  174.6440  144.2680 C   0  0  1  0  0  0  0  0  0  0  0  0
  194.2250  172.0450  144.4770 C   0  0  1  0  0  3  0  0  0  0  0  0
  189.8370  174.6980  143.6390 C   0  0  1  0  0  0  0  0  0  0  0  0
  190.0000  173.7230  141.5710 C   0  0  0  0  0  2  0  0  0  0  0  0
  193.3460  170.9690  144.3300 O   0  0  0  0  0  0  0  0  0  0  0  0
  192.3640  171.5540  142.2110 C   0  0  0  0  0  0  0  0  0  0  0  0
  193.4520  173.3470  144.6590 C   0  0  0  0  0  2  0  0  0  0  0  0
  191.8130  171.0570  141.1930 O   0  0  0  0  0  0  0  0  0  0  0  0
  189.4870  173.5630  142.8780 O   0  0  0  0  0  0  0  0  0  0  0  0
  192.1160  172.9330  142.5620 N   0  0  0  0  0  0  0  0  0  0  0  0
  190.0010  174.4270  145.1460 C   0  0  1  0  0  0  0  0  0  0  0  0
  191.5330  173.7960  141.5350 C   0  0  0  0  0  2  0  0  0  0  0  0
  193.3530  170.7030  142.9570 C   0  0  0  0  0  2  0  0  0  0  0  0
  189.7410  172.9930  145.6140 C   0  0  0  0  0  1  0  0  0  0  0  0
  189.8140  177.0140  142.5920 C   0  0  0  0  0  3  0  0  0  0  0  0
  189.1360  175.9930  143.2730 C   0  0  0  0  0  0  0  0  0  0  0  0
  187.7570  176.1220  143.4940 C   0  0  0  0  0  3  0  0  0  0  0  0
  185.7520  177.4010  143.3330 F   0  0  0  0  0  0  0  0  0  0  0  0
  187.7720  178.3050  142.4480 C   0  0  0  0  0  3  0  0  0  0  0  0
  187.0800  177.2790  143.0970 C   0  0  0  0  0  0  0  0  0  0  0  0
  189.1390  178.1690  142.1900 C   0  0  0  0  0  3  0  0  0  0  0  0
  194.7720  176.8320  144.9030 C   0  0  0  0  0  2  0  0  0  0  0  0
  193.0100  176.2310  143.2540 C   0  0  0  0  0  2  0  0  0  0  0  0
  193.7760  176.6400  146.0110 C   0  0  0  0  0  3  0  0  0  0  0  0
  192.5050  176.2900  145.7690 C   0  0  0  0  0  3  0  0  0  0  0  0
  191.9790  176.0100  144.3760 C   0  0  2  0  0  3  0  0  0  0  0  0
  194.4350  175.9290  143.7120 C   0  0  1  0  0  3  0  0  0  0  0  0
  195.4140  176.0340  142.5340 C   0  0  0  0  0  0  0  0  0  0  0  0
  194.8340  176.3320  141.1680 C   0  0  0  0  0  2  0  0  0  0  0  0
  196.7830  176.6440  142.7630 C   0  0  0  0  0  1  0  0  0  0  0  0
  195.3730  174.9400  141.4880 C   0  0  0  0  0  2  0  0  0  0  0  0
  195.0620  170.4750  146.0650 O   0  0  0  0  0  1  0  0  0  0  0  0
  195.1400  171.8090  145.6650 C   0  0  0  0  0  2  0  0  0  0  0  0
  189.6850  175.5490  146.1440 C   0  0  0  0  0  2  0  0  0  0  0  0
  187.5010  176.0990  147.0430 N   0  0  0  0  0  1  0  0  0  0  0  0
  188.5890  175.1420  147.1140 C   0  0  0  0  0  2  0  0  0  0  0  0
  1  2  1  0  0  0  0
  1  8  1  6  0  0  0
  2 27  1  1  0  0  0
  2 12  1  0  0  0  0
  3  8  1  0  0  0  0
  3 34  1  1  0  0  0
  4 17  1  6  0  0  0
  4  2  1  0  0  0  0
  4 12  1  0  0  0  0
  5 10  1  0  0  0  0
  6  3  1  0  0  0  0
  7 11  1  0  0  0  0
  7 14  1  0  0  0  0
  9  7  2  0  0  0  0
 10  4  1  0  0  0  0
 11  1  1  0  0  0  0
 12 15  1  1  0  0  0
 12 35  1  0  0  0  0
 13  5  1  0  0  0  0
 13 11  1  0  0  0  0
 14  6  1  0  0  0  0
 16 17  1  0  0  0  0
 17 18  2  0  0  0  0
 20 21  2  0  0  0  0
 21 19  1  0  0  0  0
 21 18  1  0  0  0  0
 22 20  1  0  0  0  0
 22 16  2  0  0  0  0
 23 25  1  0  0  0  0
 24 28  1  0  0  0  0
 26 25  2  0  0  0  0
 27 24  1  6  0  0  0
 27 26  1  0  0  0  0
 28 29  1  6  0  0  0
 28 23  1  0  0  0  0
 29 31  1  0  0  0  0
 30 32  1  0  0  0  0
 30 29  1  0  0  0  0
 32 29  1  0  0  0  0
 34 33  1  0  0  0  0
 35 37  1  0  0  0  0
 36 37  1  0  0  0  0
M  END
>  <MODEL>
2

>  <REMARK>
 VINA RESULT:      -7.1      3.010      6.766
  Name = 
  6 active torsions:
  status: ('A' for Active; 'I' for Inactive)
    1  A    between atoms: C_3  and  C_30
    2  A    between atoms: C_4  and  C_28
    3  A    between atoms: C_5  and  C_23
    4  A    between atoms: C_6  and  C_7
    5  A    between atoms: C_14  and  C_31
    6  A    between atoms: C_14  and  C_37
                            x       y       z     vdW  Elec       q    Type
                         _______ _______ _______ _____ _____    ______ ____

>  <TORSDO>
F 6

$$$$
=
 OpenBabel11052419583D

 37 42  0  0  1  0  0  0  0  0999 V2000
  192.7130  175.7320  142.7810 C   0  0  2  0  0  3  0  0  0  0  0  0
  191.2480  175.6870  143.3210 C   0  0  1  0  0  0  0  0  0  0  0  0
  194.2830  175.1150  140.8540 C   0  0  1  0  0  3  0  0  0  0  0  0
  190.9950  176.4480  144.6500 C   0  0  1  0  0  0  0  0  0  0  0  0
  192.8480  176.1170  145.9580 C   0  0  0  0  0  2  0  0  0  0  0  0
  194.8770  176.3180  141.2430 O   0  0  0  0  0  0  0  0  0  0  0  0
  195.1070  175.8970  143.6020 C   0  0  0  0  0  0  0  0  0  0  0  0
  192.8840  174.9910  141.4500 C   0  0  0  0  0  2  0  0  0  0  0  0
  195.7990  176.2010  144.6090 O   0  0  0  0  0  0  0  0  0  0  0  0
  192.1360  177.0720  145.1980 O   0  0  0  0  0  0  0  0  0  0  0  0
  193.7570  175.4110  143.7770 N   0  0  0  0  0  0  0  0  0  0  0  0
  190.5200  177.0520  143.3150 C   0  0  1  0  0  0  0  0  0  0  0  0
  193.3740  174.9500  145.1110 C   0  0  0  0  0  2  0  0  0  0  0  0
  195.7700  175.9510  142.2550 C   0  0  0  0  0  2  0  0  0  0  0  0
  191.3190  178.2440  142.7830 C   0  0  0  0  0  1  0  0  0  0  0  0
  189.9720  174.8830  146.3730 C   0  0  0  0  0  3  0  0  0  0  0  0
  189.9000  176.0710  145.6310 C   0  0  0  0  0  0  0  0  0  0  0  0
  188.8700  176.9830  145.9050 C   0  0  0  0  0  3  0  0  0  0  0  0
  186.8930  177.5630  147.1030 F   0  0  0  0  0  0  0  0  0  0  0  0
  187.9570  175.4810  147.5700 C   0  0  0  0  0  3  0  0  0  0  0  0
  187.8940  176.6840  146.8600 C   0  0  0  0  0  0  0  0  0  0  0  0
  189.0000  174.5840  147.3300 C   0  0  0  0  0  3  0  0  0  0  0  0
  190.6380  172.0020  141.4230 C   0  0  0  0  0  2  0  0  0  0  0  0
  191.0970  173.1320  143.5910 C   0  0  0  0  0  2  0  0  0  0  0  0
  189.9260  173.2370  140.9500 C   0  0  0  0  0  3  0  0  0  0  0  0
  189.7940  174.3210  141.7270 C   0  0  0  0  0  3  0  0  0  0  0  0
  190.3890  174.4140  143.1180 C   0  0  2  0  0  3  0  0  0  0  0  0
  191.7320  172.3630  142.4340 C   0  0  1  0  0  3  0  0  0  0  0  0
  192.5370  171.1660  142.9590 C   0  0  0  0  0  0  0  0  0  0  0  0
  193.0540  171.2410  144.3800 C   0  0  0  0  0  2  0  0  0  0  0  0
  192.1500  169.7660  142.5240 C   0  0  0  0  0  1  0  0  0  0  0  0
  194.0180  171.3690  143.2020 C   0  0  0  0  0  2  0  0  0  0  0  0
  195.4850  175.2440  138.7990 O   0  0  0  0  0  1  0  0  0  0  0  0
  194.2160  175.0330  139.3400 C   0  0  0  0  0  2  0  0  0  0  0  0
  189.0260  177.0070  142.9660 C   0  0  0  0  0  2  0  0  0  0  0  0
  187.2200  178.3490  142.0620 N   0  0  0  0  0  1  0  0  0  0  0  0
  188.6480  178.1060  141.9870 C   0  0  0  0  0  2  0  0  0  0  0  0
  1  8  1  6  0  0  0
  1  2  1  0  0  0  0
  1 11  1  0  0  0  0
  2 27  1  6  0  0  0
  2  4  1  0  0  0  0
  3 34  1  6  0  0  0
  3  6  1  0  0  0  0
  3  8  1  0  0  0  0
  4 10  1  0  0  0  0
  4 17  1  1  0  0  0
  6 14  1  0  0  0  0
  7 11  1  0  0  0  0
  7  9  2  0  0  0  0
 10  5  1  0  0  0  0
 11 13  1  0  0  0  0
 12 15  1  6  0  0  0
 12  2  1  0  0  0  0
 12  4  1  0  0  0  0
 13  5  1  0  0  0  0
 14  7  1  0  0  0  0
 16 22  1  0  0  0  0
 17 18  1  0  0  0  0
 17 16  2  0  0  0  0
 18 21  2  0  0  0  0
 21 19  1  0  0  0  0
 21 20  1  0  0  0  0
 22 20  2  0  0  0  0
 25 23  1  0  0  0  0
 25 26  2  0  0  0  0
 27 26  1  6  0  0  0
 27 24  1  0  0  0  0
 28 23  1  6  0  0  0
 28 29  1  0  0  0  0
 28 24  1  0  0  0  0
 29 32  1  0  0  0  0
 29 30  1  0  0  0  0
 31 29  1  0  0  0  0
 32 30  1  0  0  0  0
 33 34  1  0  0  0  0
 35 12  1  0  0  0  0
 37 36  1  0  0  0  0
 37 35  1  0  0  0  0
M  END
>  <MODEL>
3

>  <REMARK>
 VINA RESULT:      -6.8      3.313      6.452
  Name = 
  6 active torsions:
  status: ('A' for Active; 'I' for Inactive)
    1  A    between atoms: C_3  and  C_30
    2  A    between atoms: C_4  and  C_28
    3  A    between atoms: C_5  and  C_23
    4  A    between atoms: C_6  and  C_7
    5  A    between atoms: C_14  and  C_31
    6  A    between atoms: C_14  and  C_37
                            x       y       z     vdW  Elec       q    Type
                         _______ _______ _______ _____ _____    ______ ____

>  <TORSDO>
F 6

$$$$
=
 OpenBabel11052419583D

 37 42  0  0  1  0  0  0  0  0999 V2000
  194.0290  173.6920  142.5970 C   0  0  2  0  0  3  0  0  0  0  0  0
  192.7840  173.5220  143.5260 C   0  0  1  0  0  0  0  0  0  0  0  0
  195.8350  172.4970  141.2320 C   0  0  1  0  0  3  0  0  0  0  0  0
  192.0490  174.8320  143.9170 C   0  0  1  0  0  0  0  0  0  0  0  0
  193.6670  176.4240  144.2310 C   0  0  0  0  0  2  0  0  0  0  0  0
  195.6450  173.6130  140.4130 O   0  0  0  0  0  0  0  0  0  0  0  0
  195.8700  175.3510  142.0630 C   0  0  0  0  0  0  0  0  0  0  0  0
  194.6850  172.3580  142.2240 C   0  0  0  0  0  2  0  0  0  0  0  0
  196.1990  176.5590  142.2040 O   0  0  0  0  0  0  0  0  0  0  0  0
  192.6170  176.0080  143.3830 O   0  0  0  0  0  0  0  0  0  0  0  0
  194.9920  174.7280  143.0260 N   0  0  0  0  0  0  0  0  0  0  0  0
  191.4350  173.8880  142.8650 C   0  0  1  0  0  0  0  0  0  0  0  0
  194.8120  175.4030  144.3110 C   0  0  0  0  0  2  0  0  0  0  0  0
  196.5060  174.5800  140.9410 C   0  0  0  0  0  2  0  0  0  0  0  0
  191.4980  174.3570  141.4090 C   0  0  0  0  0  1  0  0  0  0  0  0
  191.8970  174.9770  146.4500 C   0  0  0  0  0  3  0  0  0  0  0  0
  191.2570  174.9920  145.2020 C   0  0  0  0  0  0  0  0  0  0  0  0
  189.8900  175.2980  145.1410 C   0  0  0  0  0  3  0  0  0  0  0  0
  187.8370  175.7970  146.2430 F   0  0  0  0  0  0  0  0  0  0  0  0
  189.8010  175.4710  147.5540 C   0  0  0  0  0  3  0  0  0  0  0  0
  189.1610  175.5230  146.3130 C   0  0  0  0  0  0  0  0  0  0  0  0
  191.1700  175.2040  147.6220 C   0  0  0  0  0  3  0  0  0  0  0  0
  194.2900  169.9050  145.0120 C   0  0  0  0  0  2  0  0  0  0  0  0
  194.0870  172.3520  145.4120 C   0  0  0  0  0  2  0  0  0  0  0  0
  193.0020  169.9410  144.2410 C   0  0  0  0  0  3  0  0  0  0  0  0
  192.3040  171.0750  144.0800 C   0  0  0  0  0  3  0  0  0  0  0  0
  192.7750  172.4140  144.6090 C   0  0  2  0  0  3  0  0  0  0  0  0
  195.0180  171.2500  144.9110 C   0  0  1  0  0  3  0  0  0  0  0  0
  196.3650  171.3050  145.6470 C   0  0  0  0  0  0  0  0  0  0  0  0
  196.8510  172.6600  146.1140 C   0  0  0  0  0  2  0  0  0  0  0  0
  196.7480  170.1660  146.5720 C   0  0  0  0  0  1  0  0  0  0  0  0
  197.5270  171.9640  144.9350 C   0  0  0  0  0  2  0  0  0  0  0  0
  196.0210  171.5900  139.0350 O   0  0  0  0  0  1  0  0  0  0  0  0
  195.9500  171.2430  140.3840 C   0  0  0  0  0  2  0  0  0  0  0  0
  190.2400  173.0090  143.2600 C   0  0  0  0  0  2  0  0  0  0  0  0
  188.1310  172.7170  142.1000 N   0  0  0  0  0  1  0  0  0  0  0  0
  189.5500  172.4250  142.0390 C   0  0  0  0  0  2  0  0  0  0  0  0
  1  8  1  1  0  0  0
  1 11  1  0  0  0  0
  1  2  1  0  0  0  0
  2  4  1  0  0  0  0
  2 27  1  1  0  0  0
  3 34  1  6  0  0  0
  3  8  1  0  0  0  0
  4 17  1  1  0  0  0
  5 13  1  0  0  0  0
  6 14  1  0  0  0  0
  6  3  1  0  0  0  0
  7  9  2  0  0  0  0
  7 11  1  0  0  0  0
 10  4  1  0  0  0  0
 10  5  1  0  0  0  0
 11 13  1  0  0  0  0
 12 15  1  6  0  0  0
 12 35  1  0  0  0  0
 12  2  1  0  0  0  0
 12  4  1  0  0  0  0
 14  7  1  0  0  0  0
 16 22  1  0  0  0  0
 17 16  2  0  0  0  0
 18 17  1  0  0  0  0
 18 21  2  0  0  0  0
 19 21  1  0  0  0  0
 20 22  2  0  0  0  0
 21 20  1  0  0  0  0
 25 23  1  0  0  0  0
 26 25  2  0  0  0  0
 27 26  1  6  0  0  0
 27 24  1  0  0  0  0
 28 23  1  1  0  0  0
 28 24  1  0  0  0  0
 28 29  1  0  0  0  0
 29 30  1  0  0  0  0
 29 31  1  0  0  0  0
 32 29  1  0  0  0  0
 32 30  1  0  0  0  0
 33 34  1  0  0  0  0
 37 36  1  0  0  0  0
 37 35  1  0  0  0  0
M  END
>  <MODEL>
4

>  <REMARK>
 VINA RESULT:      -6.6      3.043      6.868
  Name = 
  6 active torsions:
  status: ('A' for Active; 'I' for Inactive)
    1  A    between atoms: C_3  and  C_30
    2  A    between atoms: C_4  and  C_28
    3  A    between atoms: C_5  and  C_23
    4  A    between atoms: C_6  and  C_7
    5  A    between atoms: C_14  and  C_31
    6  A    between atoms: C_14  and  C_37
                            x       y       z     vdW  Elec       q    Type
                         _______ _______ _______ _____ _____    ______ ____

>  <TORSDO>
F 6

$$$$
=
 OpenBabel11052419583D

 37 42  0  0  1  0  0  0  0  0999 V2000
  191.8980  174.5260  143.3780 C   0  0  2  0  0  3  0  0  0  0  0  0
  193.3420  174.0810  143.7730 C   0  0  1  0  0  0  0  0  0  0  0  0
  190.2250  176.4630  143.2930 C   0  0  1  0  0  3  0  0  0  0  0  0
  193.7330  172.6310  143.3790 C   0  0  1  0  0  0  0  0  0  0  0  0
  191.8670  171.3390  143.6970 C   0  0  0  0  0  2  0  0  0  0  0  0
  189.8420  175.7920  142.1280 O   0  0  0  0  0  0  0  0  0  0  0  0
  189.5750  173.5740  143.0250 C   0  0  0  0  0  0  0  0  0  0  0  0
  191.5910  175.9770  143.7660 C   0  0  0  0  0  2  0  0  0  0  0  0
  188.9540  172.4920  142.8490 O   0  0  0  0  0  0  0  0  0  0  0  0
  192.7170  171.9050  142.7220 O   0  0  0  0  0  0  0  0  0  0  0  0
  190.8270  173.5750  143.7450 N   0  0  0  0  0  0  0  0  0  0  0  0
  194.2850  173.8230  142.5750 C   0  0  1  0  0  0  0  0  0  0  0  0
  191.1460  172.3950  144.5470 C   0  0  0  0  0  2  0  0  0  0  0  0
  188.9130  174.8430  142.5660 C   0  0  0  0  0  2  0  0  0  0  0  0
  193.6870  174.0420  141.1830 C   0  0  0  0  0  1  0  0  0  0  0  0
  194.6350  171.5820  145.5120 C   0  0  0  0  0  3  0  0  0  0  0  0
  194.7630  171.8110  144.1340 C   0  0  0  0  0  0  0  0  0  0  0  0
  195.7820  171.1560  143.4270 C   0  0  0  0  0  3  0  0  0  0  0  0
  197.6880  169.7240  143.4070 F   0  0  0  0  0  0  0  0  0  0  0  0
  196.5790  170.1420  145.4760 C   0  0  0  0  0  3  0  0  0  0  0  0
  196.6960  170.3360  144.0970 C   0  0  0  0  0  0  0  0  0  0  0  0
  195.5450  170.7610  146.1820 C   0  0  0  0  0  3  0  0  0  0  0  0
  193.7080  177.0820  146.6740 C   0  0  0  0  0  2  0  0  0  0  0  0
  192.9540  174.7540  146.2260 C   0  0  0  0  0  2  0  0  0  0  0  0
  194.7270  176.9440  145.5790 C   0  0  0  0  0  3  0  0  0  0  0  0
  194.8640  175.8100  144.8770 C   0  0  0  0  0  3  0  0  0  0  0  0
  193.9780  174.5990  145.0880 C   0  0  2  0  0  3  0  0  0  0  0  0
  192.4880  176.2000  146.3900 C   0  0  1  0  0  3  0  0  0  0  0  0
  191.3740  176.2910  147.4440 C   0  0  0  0  0  0  0  0  0  0  0  0
  190.5020  175.0710  147.6460 C   0  0  0  0  0  2  0  0  0  0  0  0
  191.6210  177.0830  148.7130 C   0  0  0  0  0  1  0  0  0  0  0  0
  189.9430  176.3110  146.9510 C   0  0  0  0  0  2  0  0  0  0  0  0
  189.3300  178.2960  142.0580 O   0  0  0  0  0  1  0  0  0  0  0  0
  190.2590  177.9590  143.0420 C   0  0  0  0  0  2  0  0  0  0  0  0
  195.7470  174.2450  142.7760 C   0  0  0  0  0  2  0  0  0  0  0  0
  197.4640  173.8620  141.1070 N   0  0  0  0  0  1  0  0  0  0  0  0
  196.3690  174.7370  141.4800 C   0  0  0  0  0  2  0  0  0  0  0  0
  1 11  1  0  0  0  0
  1  8  1  1  0  0  0
  1  2  1  0  0  0  0
  2 27  1  1  0  0  0
  3 34  1  6  0  0  0
  3  8  1  0  0  0  0
  4  2  1  0  0  0  0
  4 17  1  1  0  0  0
  5 13  1  0  0  0  0
  6 14  1  0  0  0  0
  6  3  1  0  0  0  0
  7 11  1  0  0  0  0
  9  7  2  0  0  0  0
 10  4  1  0  0  0  0
 10  5  1  0  0  0  0
 11 13  1  0  0  0  0
 12 15  1  6  0  0  0
 12 35  1  0  0  0  0
 12  4  1  0  0  0  0
 12  2  1  0  0  0  0
 14  7  1  0  0  0  0
 16 22  1  0  0  0  0
 17 16  2  0  0  0  0
 18 21  2  0  0  0  0
 18 17  1  0  0  0  0
 19 21  1  0  0  0  0
 20 22  2  0  0  0  0
 21 20  1  0  0  0  0
 25 23  1  0  0  0  0
 26 25  2  0  0  0  0
 27 26  1  6  0  0  0
 27 24  1  0  0  0  0
 28 24  1  1  0  0  0
 28 23  1  0  0  0  0
 28 29  1  0  0  0  0
 29 30  1  0  0  0  0
 29 31  1  0  0  0  0
 32 29  1  0  0  0  0
 32 30  1  0  0  0  0
 33 34  1  0  0  0  0
 36 37  1  0  0  0  0
 37 35  1  0  0  0  0
M  END
>  <MODEL>
5

>  <REMARK>
 VINA RESULT:      -6.4      1.998      2.690
  Name = 
  6 active torsions:
  status: ('A' for Active; 'I' for Inactive)
    1  A    between atoms: C_3  and  C_30
    2  A    between atoms: C_4  and  C_28
    3  A    between atoms: C_5  and  C_23
    4  A    between atoms: C_6  and  C_7
    5  A    between atoms: C_14  and  C_31
    6  A    between atoms: C_14  and  C_37
                            x       y       z     vdW  Elec       q    Type
                         _______ _______ _______ _____ _____    ______ ____

>  <TORSDO>
F 6

$$$$
=
 OpenBabel11052419583D

 37 42  0  0  1  0  0  0  0  0999 V2000
  190.8920  174.3820  142.5960 C   0  0  2  0  0  3  0  0  0  0  0  0
  192.3360  173.8480  142.8640 C   0  0  1  0  0  0  0  0  0  0  0  0
  189.3150  176.3930  142.7450 C   0  0  1  0  0  3  0  0  0  0  0  0
  192.6290  172.4110  142.3550 C   0  0  1  0  0  0  0  0  0  0  0  0
  190.7260  171.1860  142.7200 C   0  0  0  0  0  2  0  0  0  0  0  0
  188.8240  175.8170  141.5700 O   0  0  0  0  0  0  0  0  0  0  0  0
  188.5070  173.5600  142.3450 C   0  0  0  0  0  0  0  0  0  0  0  0
  190.6830  175.8170  143.0930 C   0  0  0  0  0  2  0  0  0  0  0  0
  187.8240  172.5210  142.1450 O   0  0  0  0  0  0  0  0  0  0  0  0
  191.5380  171.7750  141.7250 O   0  0  0  0  0  0  0  0  0  0  0  0
  189.8030  173.4590  142.9760 N   0  0  0  0  0  0  0  0  0  0  0  0
  193.1850  173.6270  141.5900 C   0  0  1  0  0  0  0  0  0  0  0  0
  190.1150  172.2160  143.6810 C   0  0  0  0  0  2  0  0  0  0  0  0
  187.8800  174.8840  142.0110 C   0  0  0  0  0  2  0  0  0  0  0  0
  192.5080  173.9620  140.2580 C   0  0  0  0  0  1  0  0  0  0  0  0
  194.7280  170.9830  142.2300 C   0  0  0  0  0  3  0  0  0  0  0  0
  193.6640  171.4980  142.9860 C   0  0  0  0  0  0  0  0  0  0  0  0
  193.6420  171.2750  144.3700 C   0  0  0  0  0  3  0  0  0  0  0  0
  194.5890  170.2720  146.3140 F   0  0  0  0  0  0  0  0  0  0  0  0
  195.6680  169.9600  144.2110 C   0  0  0  0  0  3  0  0  0  0  0  0
  194.6310  170.4970  144.9790 C   0  0  0  0  0  0  0  0  0  0  0  0
  195.7190  170.2080  142.8380 C   0  0  0  0  0  3  0  0  0  0  0  0
  192.8090  176.4750  146.0940 C   0  0  0  0  0  2  0  0  0  0  0  0
  192.1900  174.1630  145.4140 C   0  0  0  0  0  2  0  0  0  0  0  0
  193.6980  176.5740  144.8870 C   0  0  0  0  0  3  0  0  0  0  0  0
  193.8380  175.5560  144.0250 C   0  0  0  0  0  3  0  0  0  0  0  0
  193.0810  174.2510  144.1610 C   0  0  2  0  0  3  0  0  0  0  0  0
  191.6360  175.5260  145.8240 C   0  0  1  0  0  3  0  0  0  0  0  0
  190.6510  175.3790  146.9930 C   0  0  0  0  0  0  0  0  0  0  0  0
  189.4120  174.5420  146.7610 C   0  0  0  0  0  2  0  0  0  0  0  0
  191.1920  175.2910  148.4070 C   0  0  0  0  0  1  0  0  0  0  0  0
  189.3060  176.0610  146.8680 C   0  0  0  0  0  2  0  0  0  0  0  0
  188.4910  178.3300  141.6240 O   0  0  0  0  0  1  0  0  0  0  0  0
  189.4050  177.9000  142.5860 C   0  0  0  0  0  2  0  0  0  0  0  0
  194.6750  173.9690  141.7160 C   0  0  0  0  0  2  0  0  0  0  0  0
  195.6610  176.0200  140.8770 N   0  0  0  0  0  1  0  0  0  0  0  0
  195.1850  174.7050  140.4890 C   0  0  0  0  0  2  0  0  0  0  0  0
  1  2  1  0  0  0  0
  1 11  1  0  0  0  0
  1  8  1  1  0  0  0
  2 27  1  1  0  0  0
  3 34  1  6  0  0  0
  3  8  1  0  0  0  0
  4  2  1  0  0  0  0
  4 17  1  1  0  0  0
  5 13  1  0  0  0  0
  6 14  1  0  0  0  0
  6  3  1  0  0  0  0
  7 11  1  0  0  0  0
  9  7  2  0  0  0  0
 10  4  1  0  0  0  0
 10  5  1  0  0  0  0
 11 13  1  0  0  0  0
 12 15  1  6  0  0  0
 12 35  1  0  0  0  0
 12  4  1  0  0  0  0
 12  2  1  0  0  0  0
 14  7  1  0  0  0  0
 16 22  2  0  0  0  0
 16 17  1  0  0  0  0
 17 18  2  0  0  0  0
 18 21  1  0  0  0  0
 20 21  2  0  0  0  0
 21 19  1  0  0  0  0
 22 20  1  0  0  0  0
 25 23  1  0  0  0  0
 26 25  2  0  0  0  0
 27 26  1  6  0  0  0
 27 24  1  0  0  0  0
 28 24  1  1  0  0  0
 28 23  1  0  0  0  0
 28 29  1  0  0  0  0
 29 31  1  0  0  0  0
 30 32  1  0  0  0  0
 30 29  1  0  0  0  0
 32 29  1  0  0  0  0
 33 34  1  0  0  0  0
 37 36  1  0  0  0  0
 37 35  1  0  0  0  0
M  END
>  <MODEL>
6

>  <REMARK>
 VINA RESULT:      -6.4      1.917      2.663
  Name = 
  6 active torsions:
  status: ('A' for Active; 'I' for Inactive)
    1  A    between atoms: C_3  and  C_30
    2  A    between atoms: C_4  and  C_28
    3  A    between atoms: C_5  and  C_23
    4  A    between atoms: C_6  and  C_7
    5  A    between atoms: C_14  and  C_31
    6  A    between atoms: C_14  and  C_37
                            x       y       z     vdW  Elec       q    Type
                         _______ _______ _______ _____ _____    ______ ____

>  <TORSDO>
F 6

$$$$
=
 OpenBabel11052419583D

 37 42  0  0  1  0  0  0  0  0999 V2000
  192.3390  174.5650  145.0680 C   0  0  2  0  0  3  0  0  0  0  0  0
  192.6970  173.8170  143.7440 C   0  0  1  0  0  0  0  0  0  0  0  0
  190.4820  175.1840  146.7190 C   0  0  1  0  0  3  0  0  0  0  0  0
  194.2070  173.7610  143.3870 C   0  0  1  0  0  0  0  0  0  0  0  0
  195.1000  175.7830  143.9920 C   0  0  0  0  0  2  0  0  0  0  0  0
  191.5390  175.0450  147.6210 O   0  0  0  0  0  0  0  0  0  0  0  0
  193.1630  176.4570  146.5420 C   0  0  0  0  0  0  0  0  0  0  0  0
  190.8380  174.5530  145.3770 C   0  0  0  0  0  2  0  0  0  0  0  0
  194.1680  177.1810  146.7700 O   0  0  0  0  0  0  0  0  0  0  0  0
  195.0550  174.4070  144.3110 O   0  0  0  0  0  0  0  0  0  0  0  0
  192.9660  175.8940  145.2260 N   0  0  0  0  0  0  0  0  0  0  0  0
  193.4990  172.5100  143.9410 C   0  0  1  0  0  0  0  0  0  0  0  0
  193.7340  176.4720  144.1230 C   0  0  0  0  0  2  0  0  0  0  0  0
  192.1470  176.3050  147.6380 C   0  0  0  0  0  2  0  0  0  0  0  0
  193.8250  172.1260  145.3870 C   0  0  0  0  0  1  0  0  0  0  0  0
  194.2300  174.4850  140.9510 C   0  0  0  0  0  3  0  0  0  0  0  0
  194.7230  173.6510  141.9640 C   0  0  0  0  0  0  0  0  0  0  0  0
  195.8050  172.8040  141.6820 C   0  0  0  0  0  3  0  0  0  0  0  0
  197.3730  171.9080  140.1270 F   0  0  0  0  0  0  0  0  0  0  0  0
  195.8200  173.5560  139.3820 C   0  0  0  0  0  3  0  0  0  0  0  0
  196.3420  172.7450  140.3930 C   0  0  0  0  0  0  0  0  0  0  0  0
  194.7680  174.4310  139.6630 C   0  0  0  0  0  3  0  0  0  0  0  0
  188.8250  174.3210  142.2240 C   0  0  0  0  0  2  0  0  0  0  0  0
  191.1130  175.2900  142.3490 C   0  0  0  0  0  2  0  0  0  0  0  0
  189.4160  172.9490  142.3810 C   0  0  0  0  0  3  0  0  0  0  0  0
  190.7370  172.7560  142.4970 C   0  0  0  0  0  3  0  0  0  0  0  0
  191.7370  173.8940  142.5310 C   0  0  2  0  0  3  0  0  0  0  0  0
  189.6990  175.3690  142.9210 C   0  0  1  0  0  3  0  0  0  0  0  0
  189.1640  176.8060  142.8390 C   0  0  0  0  0  0  0  0  0  0  0  0
  190.0980  177.9240  143.2460 C   0  0  0  0  0  2  0  0  0  0  0  0
  188.2190  177.1790  141.7130 C   0  0  0  0  0  1  0  0  0  0  0  0
  188.9220  177.5400  144.1410 C   0  0  0  0  0  2  0  0  0  0  0  0
  188.1750  175.4560  147.2590 O   0  0  0  0  0  1  0  0  0  0  0  0
  189.2290  174.5410  147.2840 C   0  0  0  0  0  2  0  0  0  0  0  0
  193.1500  171.3640  142.9820 C   0  0  0  0  0  2  0  0  0  0  0  0
  192.6920  169.0880  143.6830 N   0  0  0  0  0  1  0  0  0  0  0  0
  193.7530  170.0480  143.4410 C   0  0  0  0  0  2  0  0  0  0  0  0
  1 11  1  0  0  0  0
  1  8  1  6  0  0  0
  2 27  1  6  0  0  0
  2 12  1  0  0  0  0
  2  1  1  0  0  0  0
  3 34  1  1  0  0  0
  3  6  1  0  0  0  0
  4 17  1  6  0  0  0
  4  2  1  0  0  0  0
  4 12  1  0  0  0  0
  4 10  1  0  0  0  0
  5 13  1  0  0  0  0
  5 10  1  0  0  0  0
  6 14  1  0  0  0  0
  7  9  2  0  0  0  0
  7 14  1  0  0  0  0
  8  3  1  0  0  0  0
 11  7  1  0  0  0  0
 12 15  1  1  0  0  0
 13 11  1  0  0  0  0
 16 17  1  0  0  0  0
 18 17  2  0  0  0  0
 19 21  1  0  0  0  0
 20 22  1  0  0  0  0
 20 21  2  0  0  0  0
 21 18  1  0  0  0  0
 22 16  2  0  0  0  0
 23 25  1  0  0  0  0
 24 28  1  0  0  0  0
 25 26  2  0  0  0  0
 26 27  1  0  0  0  0
 27 24  1  1  0  0  0
 28 23  1  6  0  0  0
 29 28  1  0  0  0  0
 29 30  1  0  0  0  0
 29 32  1  0  0  0  0
 30 32  1  0  0  0  0
 31 29  1  0  0  0  0
 33 34  1  0  0  0  0
 35 37  1  0  0  0  0
 35 12  1  0  0  0  0
 37 36  1  0  0  0  0
M  END
>  <MODEL>
7

>  <REMARK>
 VINA RESULT:      -6.4      2.730      5.152
  Name = 
  6 active torsions:
  status: ('A' for Active; 'I' for Inactive)
    1  A    between atoms: C_3  and  C_30
    2  A    between atoms: C_4  and  C_28
    3  A    between atoms: C_5  and  C_23
    4  A    between atoms: C_6  and  C_7
    5  A    between atoms: C_14  and  C_31
    6  A    between atoms: C_14  and  C_37
                            x       y       z     vdW  Elec       q    Type
                         _______ _______ _______ _____ _____    ______ ____

>  <TORSDO>
F 6

$$$$
=
 OpenBabel11052419583D

 37 42  0  0  1  0  0  0  0  0999 V2000
  191.5370  175.9120  143.9920 C   0  0  2  0  0  3  0  0  0  0  0  0
  189.9910  176.1090  144.1000 C   0  0  1  0  0  0  0  0  0  0  0  0
  193.4490  174.8290  142.6780 C   0  0  1  0  0  3  0  0  0  0  0  0
  189.5110  177.0980  145.1960 C   0  0  1  0  0  0  0  0  0  0  0  0
  190.8880  176.7930  147.0020 C   0  0  0  0  0  2  0  0  0  0  0  0
  194.0890  176.0110  143.0610 O   0  0  0  0  0  0  0  0  0  0  0  0
  193.6290  175.9570  145.4230 C   0  0  0  0  0  0  0  0  0  0  0  0
  191.9410  174.9510  142.8680 C   0  0  0  0  0  2  0  0  0  0  0  0
  194.0700  176.3470  146.5360 O   0  0  0  0  0  0  0  0  0  0  0  0
  190.5470  177.6800  145.9580 O   0  0  0  0  0  0  0  0  0  0  0  0
  192.2250  175.6500  145.2730 N   0  0  0  0  0  0  0  0  0  0  0  0
  189.4950  177.5230  143.7150 C   0  0  1  0  0  0  0  0  0  0  0  0
  191.4430  175.4550  146.4930 C   0  0  0  0  0  2  0  0  0  0  0  0
  194.6230  175.7220  144.3210 C   0  0  0  0  0  2  0  0  0  0  0  0
  190.5700  178.5230  143.2810 C   0  0  0  0  0  1  0  0  0  0  0  0
  187.9190  176.0680  146.8880 C   0  0  0  0  0  3  0  0  0  0  0  0
  188.1550  177.0030  145.8690 C   0  0  0  0  0  0  0  0  0  0  0  0
  187.1640  177.9490  145.5710 C   0  0  0  0  0  3  0  0  0  0  0  0
  184.9770  178.8280  145.9260 F   0  0  0  0  0  0  0  0  0  0  0  0
  185.6970  176.9640  147.2260 C   0  0  0  0  0  3  0  0  0  0  0  0
  185.9340  177.9220  146.2360 C   0  0  0  0  0  0  0  0  0  0  0  0
  186.6920  176.0410  147.5560 C   0  0  0  0  0  3  0  0  0  0  0  0
  188.9330  172.7830  141.7800 C   0  0  0  0  0  2  0  0  0  0  0  0
  189.7250  173.5510  144.0100 C   0  0  0  0  0  2  0  0  0  0  0  0
  188.2410  174.1030  141.5910 C   0  0  0  0  0  3  0  0  0  0  0  0
  188.2710  175.0600  142.5300 C   0  0  0  0  0  3  0  0  0  0  0  0
  189.0390  174.9170  143.8280 C   0  0  2  0  0  3  0  0  0  0  0  0
  190.1630  172.9430  142.6790 C   0  0  1  0  0  3  0  0  0  0  0  0
  190.9570  171.6500  142.9120 C   0  0  0  0  0  0  0  0  0  0  0  0
  191.7540  171.1000  141.7490 C   0  0  0  0  0  2  0  0  0  0  0  0
  191.6050  171.4130  144.2630 C   0  0  0  0  0  1  0  0  0  0  0  0
  190.4790  170.3970  142.2090 C   0  0  0  0  0  2  0  0  0  0  0  0
  194.4410  173.2880  141.1510 O   0  0  0  0  0  1  0  0  0  0  0  0
  193.7710  174.5100  141.2290 C   0  0  0  0  0  2  0  0  0  0  0  0
  188.1550  177.5780  142.9700 C   0  0  0  0  0  2  0  0  0  0  0  0
  187.1830  177.9150  140.7740 N   0  0  0  0  0  1  0  0  0  0  0  0
  188.2870  178.2920  141.6350 C   0  0  0  0  0  2  0  0  0  0  0  0
  1  8  1  6  0  0  0
  1  2  1  0  0  0  0
  1 11  1  0  0  0  0
  2 27  1  6  0  0  0
  2  4  1  0  0  0  0
  3 34  1  6  0  0  0
  3  8  1  0  0  0  0
  3  6  1  0  0  0  0
  4 17  1  1  0  0  0
  4 10  1  0  0  0  0
  6 14  1  0  0  0  0
  7  9  2  0  0  0  0
 10  5  1  0  0  0  0
 11  7  1  0  0  0  0
 11 13  1  0  0  0  0
 12 15  1  6  0  0  0
 12  2  1  0  0  0  0
 12  4  1  0  0  0  0
 13  5  1  0  0  0  0
 14  7  1  0  0  0  0
 16 22  1  0  0  0  0
 17 16  2  0  0  0  0
 18 17  1  0  0  0  0
 18 21  2  0  0  0  0
 19 21  1  0  0  0  0
 20 22  2  0  0  0  0
 21 20  1  0  0  0  0
 25 23  1  0  0  0  0
 25 26  2  0  0  0  0
 27 26  1  6  0  0  0
 27 24  1  0  0  0  0
 28 23  1  6  0  0  0
 28 29  1  0  0  0  0
 28 24  1  0  0  0  0
 29 31  1  0  0  0  0
 30 32  1  0  0  0  0
 30 29  1  0  0  0  0
 32 29  1  0  0  0  0
 33 34  1  0  0  0  0
 35 12  1  0  0  0  0
 36 37  1  0  0  0  0
 37 35  1  0  0  0  0
M  END
>  <MODEL>
8

>  <REMARK>
 VINA RESULT:      -6.3      3.414      6.916
  Name = 
  6 active torsions:
  status: ('A' for Active; 'I' for Inactive)
    1  A    between atoms: C_3  and  C_30
    2  A    between atoms: C_4  and  C_28
    3  A    between atoms: C_5  and  C_23
    4  A    between atoms: C_6  and  C_7
    5  A    between atoms: C_14  and  C_31
    6  A    between atoms: C_14  and  C_37
                            x       y       z     vdW  Elec       q    Type
                         _______ _______ _______ _____ _____    ______ ____

>  <TORSDO>
F 6

$$$$
=
 OpenBabel11052419583D

 37 42  0  0  1  0  0  0  0  0999 V2000
  193.2530  173.5780  145.0780 C   0  0  2  0  0  3  0  0  0  0  0  0
  192.5800  174.9880  145.0370 C   0  0  1  0  0  0  0  0  0  0  0  0
  195.4470  172.2830  145.3330 C   0  0  1  0  0  3  0  0  0  0  0  0
  191.0290  174.9930  144.9650 C   0  0  1  0  0  0  0  0  0  0  0  0
  190.4290  173.2520  143.6010 C   0  0  0  0  0  2  0  0  0  0  0  0
  194.5870  171.3850  145.9700 O   0  0  0  0  0  0  0  0  0  0  0  0
  192.8870  171.2010  144.2760 C   0  0  0  0  0  0  0  0  0  0  0  0
  194.7810  173.6470  145.1840 C   0  0  0  0  0  2  0  0  0  0  0  0
  192.0060  170.4230  143.8240 O   0  0  0  0  0  0  0  0  0  0  0  0
  190.4360  173.7130  144.9360 O   0  0  0  0  0  0  0  0  0  0  0  0
  192.7710  172.6250  144.0570 N   0  0  0  0  0  0  0  0  0  0  0  0
  191.7400  175.3350  146.2880 C   0  0  1  0  0  0  0  0  0  0  0  0
  191.8410  173.0750  143.0220 C   0  0  0  0  0  2  0  0  0  0  0  0
  194.0910  170.5870  144.9340 C   0  0  0  0  0  2  0  0  0  0  0  0
  191.6860  174.2690  147.3860 C   0  0  0  0  0  1  0  0  0  0  0  0
  190.5290  176.5880  143.0500 C   0  0  0  0  0  3  0  0  0  0  0  0
  190.2280  176.1190  144.3370 C   0  0  0  0  0  0  0  0  0  0  0  0
  189.0850  176.6050  144.9890 C   0  0  0  0  0  3  0  0  0  0  0  0
  187.2030  178.0660  145.0390 F   0  0  0  0  0  0  0  0  0  0  0  0
  188.6210  178.0750  143.1230 C   0  0  0  0  0  3  0  0  0  0  0  0
  188.2930  177.5900  144.3910 C   0  0  0  0  0  0  0  0  0  0  0  0
  189.7360  177.5690  142.4500 C   0  0  0  0  0  3  0  0  0  0  0  0
  195.9950  176.5820  143.2070 C   0  0  0  0  0  2  0  0  0  0  0  0
  193.6620  175.7980  142.8470 C   0  0  0  0  0  2  0  0  0  0  0  0
  195.6350  176.9540  144.6160 C   0  0  0  0  0  3  0  0  0  0  0  0
  194.3960  176.7820  145.1000 C   0  0  0  0  0  3  0  0  0  0  0  0
  193.2770  176.1550  144.2940 C   0  0  2  0  0  3  0  0  0  0  0  0
  195.1340  175.4110  142.7210 C   0  0  1  0  0  3  0  0  0  0  0  0
  195.4460  174.9370  141.2940 C   0  0  0  0  0  0  0  0  0  0  0  0
  195.6410  173.4520  141.0780 C   0  0  0  0  0  2  0  0  0  0  0  0
  194.7950  175.6450  140.1210 C   0  0  0  0  0  1  0  0  0  0  0  0
  196.8360  174.4020  141.0210 C   0  0  0  0  0  2  0  0  0  0  0  0
  197.2230  173.7190  146.0210 O   0  0  0  0  0  1  0  0  0  0  0  0
  196.7380  172.4140  146.1200 C   0  0  0  0  0  2  0  0  0  0  0  0
  191.8010  176.7980  146.7460 C   0  0  0  0  0  2  0  0  0  0  0  0
  191.7330  177.6910  148.9990 N   0  0  0  0  0  1  0  0  0  0  0  0
  190.9410  177.0360  147.9750 C   0  0  0  0  0  2  0  0  0  0  0  0
  1  8  1  6  0  0  0
  2 27  1  6  0  0  0
  2  1  1  0  0  0  0
  2 12  1  0  0  0  0
  3  6  1  0  0  0  0
  3 34  1  1  0  0  0
  4 17  1  6  0  0  0
  4  2  1  0  0  0  0
  4 12  1  0  0  0  0
  5 10  1  0  0  0  0
  7 14  1  0  0  0  0
  8  3  1  0  0  0  0
  9  7  2  0  0  0  0
 10  4  1  0  0  0  0
 11  7  1  0  0  0  0
 11  1  1  0  0  0  0
 12 35  1  0  0  0  0
 12 15  1  1  0  0  0
 13  5  1  0  0  0  0
 13 11  1  0  0  0  0
 14  6  1  0  0  0  0
 16 17  1  0  0  0  0
 17 18  2  0  0  0  0
 20 21  2  0  0  0  0
 21 18  1  0  0  0  0
 21 19  1  0  0  0  0
 22 16  2  0  0  0  0
 22 20  1  0  0  0  0
 23 25  1  0  0  0  0
 25 26  2  0  0  0  0
 27 24  1  6  0  0  0
 27 26  1  0  0  0  0
 28 29  1  6  0  0  0
 28 24  1  0  0  0  0
 28 23  1  0  0  0  0
 30 29  1  0  0  0  0
 31 29  1  0  0  0  0
 32 30  1  0  0  0  0
 32 29  1  0  0  0  0
 33 34  1  0  0  0  0
 35 37  1  0  0  0  0
 37 36  1  0  0  0  0
M  END
>  <MODEL>
9

>  <REMARK>
 VINA RESULT:      -6.0      3.139      6.876
  Name = 
  6 active torsions:
  status: ('A' for Active; 'I' for Inactive)
    1  A    between atoms: C_3  and  C_30
    2  A    between atoms: C_4  and  C_28
    3  A    between atoms: C_5  and  C_23
    4  A    between atoms: C_6  and  C_7
    5  A    between atoms: C_14  and  C_31
    6  A    between atoms: C_14  and  C_37
                            x       y       z     vdW  Elec       q    Type
                         _______ _______ _______ _____ _____    ______ ____

>  <TORSDO>
F 6

$$$$
