=
 OpenBabel11052418493D

 34 38  0  0  1  0  0  0  0  0999 V2000
  188.5520  174.1510  141.8830 C   0  0  0  0  0  0  0  0  0  0  0  0
  190.2290  172.6840  142.8400 C   0  0  0  0  0  3  0  0  0  0  0  0
  189.3610  174.6020  144.1450 C   0  0  0  0  0  0  0  0  0  0  0  0
  190.1230  175.1980  146.4700 N   0  0  0  0  0  0  0  0  0  0  0  0
  189.3880  172.2680  140.6120 C   0  0  0  0  0  3  0  0  0  0  0  0
  191.1060  170.7270  141.5640 C   0  0  0  0  0  1  0  0  0  0  0  0
  191.1710  173.4910  145.2780 O   0  0  0  0  0  0  0  0  0  0  0  0
  189.3970  173.8130  142.9640 C   0  0  0  0  0  0  0  0  0  0  0  0
  188.5520  173.3820  140.7140 C   0  0  0  0  0  3  0  0  0  0  0  0
  188.4500  175.6880  144.2130 C   0  0  0  0  0  0  0  0  0  0  0  0
  187.7360  175.2340  141.9670 N   0  0  0  0  0  0  0  0  0  0  0  0
  190.2250  171.9190  141.6710 C   0  0  0  0  0  0  0  0  0  0  0  0
  188.8570  175.8740  146.7010 C   0  0  0  0  0  2  0  0  0  0  0  0
  188.4150  176.6100  145.4330 C   0  0  2  0  0  3  0  0  0  0  0  0
  190.2680  174.3630  145.3120 C   0  0  0  0  0  0  0  0  0  0  0  0
  187.6760  175.9950  143.0840 C   0  0  0  0  0  3  0  0  0  0  0  0
  185.4800  178.9640  145.0550 C   0  0  0  0  0  0  0  0  0  0  0  0
  184.5450  178.3310  145.8180 N   0  0  0  0  0  0  0  0  0  0  0  0
  187.0620  177.2560  145.6370 C   0  0  0  0  0  0  0  0  0  0  0  0
  184.8540  177.2070  146.5080 C   0  0  0  0  0  3  0  0  0  0  0  0
  186.7600  178.4280  144.9430 C   0  0  0  0  0  3  0  0  0  0  0  0
  186.0970  176.6570  146.3940 N   0  0  0  0  0  0  0  0  0  0  0  0
  185.1040  180.1630  144.2660 C   0  0  0  0  0  1  0  0  0  0  0  0
  191.1570  175.2760  147.4930 C   0  0  0  0  0  2  0  0  0  0  0  0
  192.0940  176.4410  147.1990 C   0  0  0  0  0  2  0  0  0  0  0  0
  193.3510  175.9850  146.4640 C   0  0  0  0  0  2  0  0  0  0  0  0
  193.7860  176.9820  145.3870 C   0  0  0  0  0  2  0  0  0  0  0  0
  191.7850  177.3890  143.3500 C   0  0  0  0  0  1  0  0  0  0  0  0
  193.9090  176.3210  144.0880 N   0  0  0  0  0  0  0  0  0  0  0  0
  192.5790  176.0950  143.4900 C   0  0  2  0  0  3  0  0  0  0  0  0
  193.4690  174.1270  142.2530 C   0  0  0  0  0  2  0  0  0  0  0  0
  194.7980  174.3260  142.9830 C   0  0  0  0  0  2  0  0  0  0  0  0
  194.5430  175.0220  144.3200 C   0  0  0  0  0  2  0  0  0  0  0  0
  192.7400  175.4630  142.1040 C   0  0  0  0  0  2  0  0  0  0  0  0
  1 11  2  0  0  0  0
  1  8  1  0  0  0  0
  2  8  1  0  0  0  0
  3 10  1  0  0  0  0
  3 15  1  0  0  0  0
  4 13  1  0  0  0  0
  4 24  1  0  0  0  0
  5  9  2  0  0  0  0
  5 12  1  0  0  0  0
  6 12  1  0  0  0  0
  7 15  2  0  0  0  0
  8  3  2  0  0  0  0
  9  1  1  0  0  0  0
 10 14  1  0  0  0  0
 11 16  1  0  0  0  0
 12  2  2  0  0  0  0
 14 19  1  1  0  0  0
 14 13  1  0  0  0  0
 15  4  1  0  0  0  0
 16 10  2  0  0  0  0
 17 18  1  0  0  0  0
 18 20  2  0  0  0  0
 19 22  2  0  0  0  0
 21 17  2  0  0  0  0
 21 19  1  0  0  0  0
 22 20  1  0  0  0  0
 23 17  1  0  0  0  0
 25 24  1  0  0  0  0
 26 25  1  0  0  0  0
 27 26  1  0  0  0  0
 29 33  1  0  0  0  0
 29 27  1  0  0  0  0
 30 28  1  6  0  0  0
 30 29  1  0  0  0  0
 31 32  1  0  0  0  0
 32 33  1  0  0  0  0
 34 31  1  0  0  0  0
 34 30  1  0  0  0  0
M  END
>  <MODEL>
1

>  <REMARK>
 VINA RESULT:      -7.6      0.000      0.000
  Name = 
  6 active torsions:
  status: ('A' for Active; 'I' for Inactive)
    1  A    between atoms: C_3  and  N_13
    2  A    between atoms: C_3  and  C_17
    3  A    between atoms: N_5  and  C_18
    4  A    between atoms: C_12  and  C_28
    5  A    between atoms: C_17  and  C_29
    6  A    between atoms: C_18  and  C_29
                            x       y       z     vdW  Elec       q    Type
                         _______ _______ _______ _____ _____    ______ ____

>  <TORSDO>
F 6

$$$$
=
 OpenBabel11052418493D

 34 38  0  0  1  0  0  0  0  0999 V2000
  191.9250  176.5120  146.2860 C   0  0  0  0  0  0  0  0  0  0  0  0
  193.1560  176.0290  144.2530 C   0  0  0  0  0  3  0  0  0  0  0  0
  190.6790  176.0390  144.2370 C   0  0  0  0  0  0  0  0  0  0  0  0
  189.2700  175.5440  142.2090 N   0  0  0  0  0  0  0  0  0  0  0  0
  194.3450  176.5180  146.3000 C   0  0  0  0  0  3  0  0  0  0  0  0
  195.6510  176.0370  144.2270 C   0  0  0  0  0  1  0  0  0  0  0  0
  191.5880  175.2970  142.1340 O   0  0  0  0  0  0  0  0  0  0  0  0
  191.9210  176.1800  144.9120 C   0  0  0  0  0  0  0  0  0  0  0  0
  193.1320  176.6760  146.9730 C   0  0  0  0  0  3  0  0  0  0  0  0
  189.4790  176.2690  144.9590 C   0  0  0  0  0  0  0  0  0  0  0  0
  190.7520  176.6660  146.9550 N   0  0  0  0  0  0  0  0  0  0  0  0
  194.3590  176.1950  144.9440 C   0  0  0  0  0  0  0  0  0  0  0  0
  188.1810  176.3100  142.7900 C   0  0  0  0  0  2  0  0  0  0  0  0
  188.1130  176.0660  144.3000 C   0  0  2  0  0  3  0  0  0  0  0  0
  190.5750  175.6220  142.8020 C   0  0  0  0  0  0  0  0  0  0  0  0
  189.5570  176.5460  146.3310 C   0  0  0  0  0  3  0  0  0  0  0  0
  185.7030  178.9140  144.9150 C   0  0  0  0  0  0  0  0  0  0  0  0
  184.9330  178.3870  145.9070 N   0  0  0  0  0  0  0  0  0  0  0  0
  187.0310  176.9150  144.9290 C   0  0  0  0  0  0  0  0  0  0  0  0
  185.2120  177.1710  146.4330 C   0  0  0  0  0  3  0  0  0  0  0  0
  186.7660  178.1780  144.3980 C   0  0  0  0  0  3  0  0  0  0  0  0
  186.2370  176.4270  145.9260 N   0  0  0  0  0  0  0  0  0  0  0  0
  185.3470  180.2260  144.3170 C   0  0  0  0  0  1  0  0  0  0  0  0
  189.0390  174.8320  140.9590 C   0  0  0  0  0  2  0  0  0  0  0  0
  188.6290  173.3930  141.2470 C   0  0  0  0  0  2  0  0  0  0  0  0
  189.8080  172.4320  141.1180 C   0  0  0  0  0  2  0  0  0  0  0  0
  189.8070  171.3630  142.2130 C   0  0  0  0  0  2  0  0  0  0  0  0
  189.9960  172.4130  144.8930 C   0  0  0  0  0  1  0  0  0  0  0  0
  191.0850  171.3480  142.9240 N   0  0  0  0  0  0  0  0  0  0  0  0
  191.1520  172.4540  143.8990 C   0  0  2  0  0  3  0  0  0  0  0  0
  193.6320  172.4920  143.6870 C   0  0  0  0  0  2  0  0  0  0  0  0
  193.5090  171.4280  142.5950 C   0  0  0  0  0  2  0  0  0  0  0  0
  192.1390  171.5420  141.9260 C   0  0  0  0  0  2  0  0  0  0  0  0
  192.4720  172.3740  144.6750 C   0  0  0  0  0  2  0  0  0  0  0  0
  1 11  1  0  0  0  0
  1  9  2  0  0  0  0
  2  8  2  0  0  0  0
  2 12  1  0  0  0  0
  3  8  1  0  0  0  0
  3 10  2  0  0  0  0
  4 13  1  0  0  0  0
  4 15  1  0  0  0  0
  5  9  1  0  0  0  0
  6 12  1  0  0  0  0
  7 15  2  0  0  0  0
  8  1  1  0  0  0  0
 10 16  1  0  0  0  0
 12  5  2  0  0  0  0
 13 14  1  0  0  0  0
 14 19  1  1  0  0  0
 14 10  1  0  0  0  0
 15  3  1  0  0  0  0
 16 11  2  0  0  0  0
 17 18  1  0  0  0  0
 18 20  2  0  0  0  0
 19 22  2  0  0  0  0
 21 17  2  0  0  0  0
 21 19  1  0  0  0  0
 22 20  1  0  0  0  0
 23 17  1  0  0  0  0
 24 25  1  0  0  0  0
 24  4  1  0  0  0  0
 26 25  1  0  0  0  0
 26 27  1  0  0  0  0
 27 29  1  0  0  0  0
 29 30  1  0  0  0  0
 30 34  1  0  0  0  0
 30 28  1  1  0  0  0
 31 34  1  0  0  0  0
 32 31  1  0  0  0  0
 33 32  1  0  0  0  0
 33 29  1  0  0  0  0
M  END
>  <MODEL>
2

>  <REMARK>
 VINA RESULT:      -7.4      1.717      4.813
  Name = 
  6 active torsions:
  status: ('A' for Active; 'I' for Inactive)
    1  A    between atoms: C_3  and  N_13
    2  A    between atoms: C_3  and  C_17
    3  A    between atoms: N_5  and  C_18
    4  A    between atoms: C_12  and  C_28
    5  A    between atoms: C_17  and  C_29
    6  A    between atoms: C_18  and  C_29
                            x       y       z     vdW  Elec       q    Type
                         _______ _______ _______ _____ _____    ______ ____

>  <TORSDO>
F 6

$$$$
=
 OpenBabel11052418493D

 34 38  0  0  1  0  0  0  0  0999 V2000
  190.5150  171.0830  141.8710 C   0  0  0  0  0  0  0  0  0  0  0  0
  189.8830  171.9410  139.6930 C   0  0  0  0  0  3  0  0  0  0  0  0
  189.5760  173.3330  141.7180 C   0  0  0  0  0  0  0  0  0  0  0  0
  188.5960  175.6540  141.7100 N   0  0  0  0  0  0  0  0  0  0  0  0
  190.8320  169.7260  139.8920 C   0  0  0  0  0  3  0  0  0  0  0  0
  190.2040  170.5750  137.6290 C   0  0  0  0  0  1  0  0  0  0  0  0
  188.6380  174.3750  139.7610 O   0  0  0  0  0  0  0  0  0  0  0  0
  189.9770  172.1260  141.0850 C   0  0  0  0  0  0  0  0  0  0  0  0
  190.9370  169.8900  141.2750 C   0  0  0  0  0  3  0  0  0  0  0  0
  189.7600  173.4650  143.1190 C   0  0  0  0  0  0  0  0  0  0  0  0
  190.6210  171.2260  143.2190 N   0  0  0  0  0  0  0  0  0  0  0  0
  190.3060  170.7470  139.1020 C   0  0  0  0  0  0  0  0  0  0  0  0
  189.2980  175.9440  142.9480 C   0  0  0  0  0  2  0  0  0  0  0  0
  189.2850  174.7150  143.8610 C   0  0  2  0  0  3  0  0  0  0  0  0
  188.9310  174.4650  140.9790 C   0  0  0  0  0  0  0  0  0  0  0  0
  190.2540  172.3700  143.8430 C   0  0  0  0  0  3  0  0  0  0  0  0
  192.0570  175.8290  146.1790 C   0  0  0  0  0  0  0  0  0  0  0  0
  191.4550  175.6730  147.3910 N   0  0  0  0  0  0  0  0  0  0  0  0
  190.0770  174.9800  145.1230 C   0  0  0  0  0  0  0  0  0  0  0  0
  190.2090  175.1520  147.4870 C   0  0  0  0  0  3  0  0  0  0  0  0
  191.3700  175.4930  145.0160 C   0  0  0  0  0  3  0  0  0  0  0  0
  189.5130  174.8350  146.3570 N   0  0  0  0  0  0  0  0  0  0  0  0
  193.4020  176.4520  146.0950 C   0  0  0  0  0  1  0  0  0  0  0  0
  187.6760  176.6480  141.1750 C   0  0  0  0  0  2  0  0  0  0  0  0
  187.9440  178.0040  141.8160 C   0  0  0  0  0  2  0  0  0  0  0  0
  186.7710  178.4660  142.6760 C   0  0  0  0  0  2  0  0  0  0  0  0
  185.7440  177.3540  142.9020 C   0  0  0  0  0  2  0  0  0  0  0  0
  183.5300  178.9540  143.8290 C   0  0  0  0  0  1  0  0  0  0  0  0
  185.3340  177.3050  144.3050 N   0  0  0  0  0  0  0  0  0  0  0  0
  184.7160  178.5820  144.7130 C   0  0  2  0  0  3  0  0  0  0  0  0
  185.4390  178.1810  147.0610 C   0  0  0  0  0  2  0  0  0  0  0  0
  186.1650  176.9270  146.5760 C   0  0  0  0  0  2  0  0  0  0  0  0
  186.5420  177.0950  145.1040 C   0  0  0  0  0  2  0  0  0  0  0  0
  184.2370  178.4790  146.1650 C   0  0  0  0  0  2  0  0  0  0  0  0
  1 11  1  0  0  0  0
  2  8  1  0  0  0  0
  3 10  2  0  0  0  0
  4 13  1  0  0  0  0
  5  9  2  0  0  0  0
  6 12  1  0  0  0  0
  7 15  2  0  0  0  0
  8  3  1  0  0  0  0
  8  1  2  0  0  0  0
  9  1  1  0  0  0  0
 10 16  1  0  0  0  0
 10 14  1  0  0  0  0
 11 16  2  0  0  0  0
 12  2  2  0  0  0  0
 12  5  1  0  0  0  0
 13 14  1  0  0  0  0
 14 19  1  1  0  0  0
 15  4  1  0  0  0  0
 15  3  1  0  0  0  0
 17 18  1  0  0  0  0
 18 20  2  0  0  0  0
 19 22  2  0  0  0  0
 21 19  1  0  0  0  0
 21 17  2  0  0  0  0
 22 20  1  0  0  0  0
 23 17  1  0  0  0  0
 24  4  1  0  0  0  0
 24 25  1  0  0  0  0
 25 26  1  0  0  0  0
 26 27  1  0  0  0  0
 27 29  1  0  0  0  0
 29 30  1  0  0  0  0
 29 33  1  0  0  0  0
 30 28  1  6  0  0  0
 30 34  1  0  0  0  0
 32 31  1  0  0  0  0
 33 32  1  0  0  0  0
 34 31  1  0  0  0  0
M  END
>  <MODEL>
3

>  <REMARK>
 VINA RESULT:      -7.2      2.113      6.317
  Name = 
  6 active torsions:
  status: ('A' for Active; 'I' for Inactive)
    1  A    between atoms: C_3  and  N_13
    2  A    between atoms: C_3  and  C_17
    3  A    between atoms: N_5  and  C_18
    4  A    between atoms: C_12  and  C_28
    5  A    between atoms: C_17  and  C_29
    6  A    between atoms: C_18  and  C_29
                            x       y       z     vdW  Elec       q    Type
                         _______ _______ _______ _____ _____    ______ ____

>  <TORSDO>
F 6

$$$$
=
 OpenBabel11052418493D

 34 38  0  0  1  0  0  0  0  0999 V2000
  188.6290  174.0690  141.4250 C   0  0  0  0  0  0  0  0  0  0  0  0
  190.4130  172.6260  142.2080 C   0  0  0  0  0  3  0  0  0  0  0  0
  189.6240  174.5070  143.6140 C   0  0  0  0  0  0  0  0  0  0  0  0
  190.5760  175.0880  145.8720 N   0  0  0  0  0  0  0  0  0  0  0  0
  189.3880  172.2220  140.0570 C   0  0  0  0  0  3  0  0  0  0  0  0
  191.2140  170.7060  140.8300 C   0  0  0  0  0  1  0  0  0  0  0  0
  191.5500  173.4200  144.5660 O   0  0  0  0  0  0  0  0  0  0  0  0
  189.5730  173.7350  142.4220 C   0  0  0  0  0  0  0  0  0  0  0  0
  188.5420  173.3160  140.2490 C   0  0  0  0  0  3  0  0  0  0  0  0
  188.7010  175.5720  143.7790 C   0  0  0  0  0  0  0  0  0  0  0  0
  187.8010  175.1330  141.5960 N   0  0  0  0  0  0  0  0  0  0  0  0
  190.3220  171.8760  141.0320 C   0  0  0  0  0  0  0  0  0  0  0  0
  189.3220  175.7330  146.2230 C   0  0  0  0  0  2  0  0  0  0  0  0
  188.7550  176.4760  145.0110 C   0  0  2  0  0  3  0  0  0  0  0  0
  190.6350  174.2710  144.6930 C   0  0  0  0  0  0  0  0  0  0  0  0
  187.8250  175.8770  142.7260 C   0  0  0  0  0  3  0  0  0  0  0  0
  185.7510  178.7710  144.9280 C   0  0  0  0  0  0  0  0  0  0  0  0
  184.8990  178.1070  145.7600 N   0  0  0  0  0  0  0  0  0  0  0  0
  187.4120  177.0900  145.3420 C   0  0  0  0  0  0  0  0  0  0  0  0
  185.2910  176.9820  146.4030 C   0  0  0  0  0  3  0  0  0  0  0  0
  187.0260  178.2640  144.6950 C   0  0  0  0  0  3  0  0  0  0  0  0
  186.5300  176.4600  146.1720 N   0  0  0  0  0  0  0  0  0  0  0  0
  185.2820  179.9720  144.1930 C   0  0  0  0  0  1  0  0  0  0  0  0
  191.6940  175.1740  146.8010 C   0  0  0  0  0  2  0  0  0  0  0  0
  192.6230  176.3110  146.3950 C   0  0  0  0  0  2  0  0  0  0  0  0
  194.0920  175.9080  146.5000 C   0  0  0  0  0  2  0  0  0  0  0  0
  194.8740  176.2280  145.2250 C   0  0  0  0  0  2  0  0  0  0  0  0
  194.2320  174.8570  142.7700 C   0  0  0  0  0  1  0  0  0  0  0  0
  195.6620  175.0730  144.7960 N   0  0  0  0  0  0  0  0  0  0  0  0
  194.8420  174.1570  143.9800 C   0  0  2  0  0  3  0  0  0  0  0  0
  196.2600  172.2430  144.7030 C   0  0  0  0  0  2  0  0  0  0  0  0
  197.0090  173.2050  145.6250 C   0  0  0  0  0  2  0  0  0  0  0  0
  196.0890  174.3650  146.0050 C   0  0  0  0  0  2  0  0  0  0  0  0
  195.7080  172.9910  143.4890 C   0  0  0  0  0  2  0  0  0  0  0  0
  1 11  2  0  0  0  0
  1  8  1  0  0  0  0
  2  8  1  0  0  0  0
  3 10  1  0  0  0  0
  3 15  1  0  0  0  0
  4 13  1  0  0  0  0
  4 24  1  0  0  0  0
  5  9  2  0  0  0  0
  5 12  1  0  0  0  0
  6 12  1  0  0  0  0
  7 15  2  0  0  0  0
  8  3  2  0  0  0  0
  9  1  1  0  0  0  0
 10 14  1  0  0  0  0
 11 16  1  0  0  0  0
 12  2  2  0  0  0  0
 14 19  1  1  0  0  0
 14 13  1  0  0  0  0
 15  4  1  0  0  0  0
 16 10  2  0  0  0  0
 17 18  1  0  0  0  0
 18 20  2  0  0  0  0
 19 22  2  0  0  0  0
 21 17  2  0  0  0  0
 21 19  1  0  0  0  0
 22 20  1  0  0  0  0
 23 17  1  0  0  0  0
 25 26  1  0  0  0  0
 25 24  1  0  0  0  0
 27 26  1  0  0  0  0
 29 27  1  0  0  0  0
 29 33  1  0  0  0  0
 30 28  1  6  0  0  0
 30 29  1  0  0  0  0
 31 32  1  0  0  0  0
 32 33  1  0  0  0  0
 34 30  1  0  0  0  0
 34 31  1  0  0  0  0
M  END
>  <MODEL>
4

>  <REMARK>
 VINA RESULT:      -6.8      1.173      1.638
  Name = 
  6 active torsions:
  status: ('A' for Active; 'I' for Inactive)
    1  A    between atoms: C_3  and  N_13
    2  A    between atoms: C_3  and  C_17
    3  A    between atoms: N_5  and  C_18
    4  A    between atoms: C_12  and  C_28
    5  A    between atoms: C_17  and  C_29
    6  A    between atoms: C_18  and  C_29
                            x       y       z     vdW  Elec       q    Type
                         _______ _______ _______ _____ _____    ______ ____

>  <TORSDO>
F 6

$$$$
=
 OpenBabel11052418493D

 34 38  0  0  1  0  0  0  0  0999 V2000
  192.0590  176.4950  146.3400 C   0  0  0  0  0  0  0  0  0  0  0  0
  193.2000  175.9250  144.2780 C   0  0  0  0  0  3  0  0  0  0  0  0
  190.7260  175.9960  144.3530 C   0  0  0  0  0  0  0  0  0  0  0  0
  189.2300  175.4800  142.3930 N   0  0  0  0  0  0  0  0  0  0  0  0
  194.4770  176.4410  146.2650 C   0  0  0  0  0  3  0  0  0  0  0  0
  195.6930  175.8700  144.1600 C   0  0  0  0  0  1  0  0  0  0  0  0
  191.5370  175.1740  142.2410 O   0  0  0  0  0  0  0  0  0  0  0  0
  191.9960  176.1250  144.9780 C   0  0  0  0  0  0  0  0  0  0  0  0
  193.2940  176.6480  146.9770 C   0  0  0  0  0  3  0  0  0  0  0  0
  189.5590  176.2750  145.1120 C   0  0  0  0  0  0  0  0  0  0  0  0
  190.9160  176.6970  147.0470 N   0  0  0  0  0  0  0  0  0  0  0  0
  194.4330  176.0800  144.9190 C   0  0  0  0  0  0  0  0  0  0  0  0
  188.1830  176.2880  142.9920 C   0  0  0  0  0  2  0  0  0  0  0  0
  188.1660  176.0890  144.5100 C   0  0  2  0  0  3  0  0  0  0  0  0
  190.5580  175.5420  142.9360 C   0  0  0  0  0  0  0  0  0  0  0  0
  189.6950  176.5890  146.4720 C   0  0  0  0  0  3  0  0  0  0  0  0
  185.7550  178.9470  145.0680 C   0  0  0  0  0  0  0  0  0  0  0  0
  185.0980  178.5140  146.1810 N   0  0  0  0  0  0  0  0  0  0  0  0
  187.1280  176.9810  145.1540 C   0  0  0  0  0  0  0  0  0  0  0  0
  185.4580  177.3640  146.7980 C   0  0  0  0  0  3  0  0  0  0  0  0
  186.7810  178.1780  144.5260 C   0  0  0  0  0  3  0  0  0  0  0  0
  186.4480  176.5870  146.2700 N   0  0  0  0  0  0  0  0  0  0  0  0
  185.3080  180.1840  144.3790 C   0  0  0  0  0  1  0  0  0  0  0  0
  188.9360  174.7400  141.1740 C   0  0  0  0  0  2  0  0  0  0  0  0
  188.7190  173.2670  141.4980 C   0  0  0  0  0  2  0  0  0  0  0  0
  189.7200  172.3730  140.7720 C   0  0  0  0  0  2  0  0  0  0  0  0
  190.4830  173.1260  139.6790 C   0  0  0  0  0  2  0  0  0  0  0  0
  189.1460  173.8610  137.2320 C   0  0  0  0  0  1  0  0  0  0  0  0
  190.6260  172.2980  138.4820 N   0  0  0  0  0  0  0  0  0  0  0  0
  189.4320  172.4150  137.6220 C   0  0  2  0  0  3  0  0  0  0  0  0
  189.8470  170.1280  136.7330 C   0  0  0  0  0  2  0  0  0  0  0  0
  191.0050  170.0020  137.7230 C   0  0  0  0  0  2  0  0  0  0  0  0
  190.7450  170.9080  138.9270 C   0  0  0  0  0  2  0  0  0  0  0  0
  189.6360  171.5920  136.3460 C   0  0  0  0  0  2  0  0  0  0  0  0
  1  9  1  0  0  0  0
  1 11  1  0  0  0  0
  2 12  2  0  0  0  0
  2  8  1  0  0  0  0
  3  8  1  0  0  0  0
  3 10  2  0  0  0  0
  4 15  1  0  0  0  0
  4 13  1  0  0  0  0
  5  9  2  0  0  0  0
  6 12  1  0  0  0  0
  7 15  2  0  0  0  0
  8  1  2  0  0  0  0
 10 16  1  0  0  0  0
 12  5  1  0  0  0  0
 13 14  1  0  0  0  0
 14 10  1  0  0  0  0
 14 19  1  1  0  0  0
 15  3  1  0  0  0  0
 16 11  2  0  0  0  0
 17 18  1  0  0  0  0
 18 20  2  0  0  0  0
 19 22  2  0  0  0  0
 21 17  2  0  0  0  0
 21 19  1  0  0  0  0
 22 20  1  0  0  0  0
 23 17  1  0  0  0  0
 24 25  1  0  0  0  0
 24  4  1  0  0  0  0
 26 25  1  0  0  0  0
 27 26  1  0  0  0  0
 29 33  1  0  0  0  0
 29 27  1  0  0  0  0
 30 28  1  6  0  0  0
 30 29  1  0  0  0  0
 31 32  1  0  0  0  0
 32 33  1  0  0  0  0
 34 31  1  0  0  0  0
 34 30  1  0  0  0  0
M  END
>  <MODEL>
5

>  <REMARK>
 VINA RESULT:      -6.7      2.146      5.596
  Name = 
  6 active torsions:
  status: ('A' for Active; 'I' for Inactive)
    1  A    between atoms: C_3  and  N_13
    2  A    between atoms: C_3  and  C_17
    3  A    between atoms: N_5  and  C_18
    4  A    between atoms: C_12  and  C_28
    5  A    between atoms: C_17  and  C_29
    6  A    between atoms: C_18  and  C_29
                            x       y       z     vdW  Elec       q    Type
                         _______ _______ _______ _____ _____    ______ ____

>  <TORSDO>
F 6

$$$$
=
 OpenBabel11052418493D

 34 38  0  0  1  0  0  0  0  0999 V2000
  188.3810  174.6410  140.2630 C   0  0  0  0  0  0  0  0  0  0  0  0
  189.7920  172.9090  141.2060 C   0  0  0  0  0  3  0  0  0  0  0  0
  189.0610  174.8190  142.6040 C   0  0  0  0  0  0  0  0  0  0  0  0
  189.7080  175.1420  145.0160 N   0  0  0  0  0  0  0  0  0  0  0  0
  189.0810  172.7680  138.9000 C   0  0  0  0  0  3  0  0  0  0  0  0
  190.5250  170.9580  139.8340 C   0  0  0  0  0  1  0  0  0  0  0  0
  190.6340  173.4100  143.7600 O   0  0  0  0  0  0  0  0  0  0  0  0
  189.0940  174.1210  141.3660 C   0  0  0  0  0  0  0  0  0  0  0  0
  188.3790  173.9670  139.0370 C   0  0  0  0  0  3  0  0  0  0  0  0
  188.2840  176.0030  142.7010 C   0  0  0  0  0  0  0  0  0  0  0  0
  187.6960  175.8090  140.3810 N   0  0  0  0  0  0  0  0  0  0  0  0
  189.7870  172.2390  139.9800 C   0  0  0  0  0  0  0  0  0  0  0  0
  188.5190  175.9520  145.2160 C   0  0  0  0  0  2  0  0  0  0  0  0
  188.2660  176.8290  143.9880 C   0  0  2  0  0  3  0  0  0  0  0  0
  189.8410  174.3830  143.8060 C   0  0  0  0  0  0  0  0  0  0  0  0
  187.6420  176.4870  141.5510 C   0  0  0  0  0  3  0  0  0  0  0  0
  185.0380  178.1530  145.4460 C   0  0  0  0  0  0  0  0  0  0  0  0
  184.7810  179.1880  144.5990 N   0  0  0  0  0  0  0  0  0  0  0  0
  186.9890  177.6220  144.1530 C   0  0  0  0  0  0  0  0  0  0  0  0
  185.5760  179.4270  143.5300 C   0  0  0  0  0  3  0  0  0  0  0  0
  186.1600  177.3530  145.2420 C   0  0  0  0  0  3  0  0  0  0  0  0
  186.6900  178.6660  143.3250 N   0  0  0  0  0  0  0  0  0  0  0  0
  184.1820  177.9430  146.6410 C   0  0  0  0  0  1  0  0  0  0  0  0
  190.6620  175.0140  146.1090 C   0  0  0  0  0  2  0  0  0  0  0  0
  191.3990  176.3310  146.3150 C   0  0  0  0  0  2  0  0  0  0  0  0
  192.6840  176.3960  145.4940 C   0  0  0  0  0  2  0  0  0  0  0  0
  193.3190  175.0170  145.3010 C   0  0  0  0  0  2  0  0  0  0  0  0
  196.1140  174.4750  145.7630 C   0  0  0  0  0  1  0  0  0  0  0  0
  194.2680  175.0340  144.1890 N   0  0  0  0  0  0  0  0  0  0  0  0
  195.6170  175.4040  144.6600 C   0  0  2  0  0  3  0  0  0  0  0  0
  196.1470  176.3370  142.4140 C   0  0  0  0  0  2  0  0  0  0  0  0
  194.7040  176.0440  142.0020 C   0  0  0  0  0  2  0  0  0  0  0  0
  193.8100  176.0530  143.2420 C   0  0  0  0  0  2  0  0  0  0  0  0
  196.6030  175.3500  143.4890 C   0  0  0  0  0  2  0  0  0  0  0  0
  1 11  2  0  0  0  0
  1  8  1  0  0  0  0
  2  8  1  0  0  0  0
  3 10  1  0  0  0  0
  3 15  1  0  0  0  0
  4 13  1  0  0  0  0
  4 24  1  0  0  0  0
  5  9  2  0  0  0  0
  5 12  1  0  0  0  0
  6 12  1  0  0  0  0
  7 15  2  0  0  0  0
  8  3  2  0  0  0  0
  9  1  1  0  0  0  0
 10 14  1  0  0  0  0
 11 16  1  0  0  0  0
 12  2  2  0  0  0  0
 14 19  1  1  0  0  0
 14 13  1  0  0  0  0
 15  4  1  0  0  0  0
 16 10  2  0  0  0  0
 17 23  1  0  0  0  0
 18 17  2  0  0  0  0
 19 21  2  0  0  0  0
 20 18  1  0  0  0  0
 21 17  1  0  0  0  0
 22 20  2  0  0  0  0
 22 19  1  0  0  0  0
 24 25  1  0  0  0  0
 26 25  1  0  0  0  0
 27 26  1  0  0  0  0
 29 30  1  0  0  0  0
 29 27  1  0  0  0  0
 30 28  1  1  0  0  0
 31 34  1  0  0  0  0
 32 31  1  0  0  0  0
 32 33  1  0  0  0  0
 33 29  1  0  0  0  0
 34 30  1  0  0  0  0
M  END
>  <MODEL>
6

>  <REMARK>
 VINA RESULT:      -6.6      1.510      2.308
  Name = 
  6 active torsions:
  status: ('A' for Active; 'I' for Inactive)
    1  A    between atoms: C_3  and  N_13
    2  A    between atoms: C_3  and  C_17
    3  A    between atoms: N_5  and  C_18
    4  A    between atoms: C_12  and  C_28
    5  A    between atoms: C_17  and  C_29
    6  A    between atoms: C_18  and  C_29
                            x       y       z     vdW  Elec       q    Type
                         _______ _______ _______ _____ _____    ______ ____

>  <TORSDO>
F 6

$$$$
=
 OpenBabel11052418493D

 34 38  0  0  1  0  0  0  0  0999 V2000
  186.9930  176.7010  141.7590 C   0  0  0  0  0  0  0  0  0  0  0  0
  187.1110  177.9300  143.8460 C   0  0  0  0  0  3  0  0  0  0  0  0
  188.6570  176.0410  143.4230 C   0  0  0  0  0  0  0  0  0  0  0  0
  190.3980  175.2380  145.0570 N   0  0  0  0  0  0  0  0  0  0  0  0
  185.4920  178.5560  142.1640 C   0  0  0  0  0  3  0  0  0  0  0  0
  185.5870  179.8550  144.2940 C   0  0  0  0  0  1  0  0  0  0  0  0
  188.8720  176.8930  145.6650 O   0  0  0  0  0  0  0  0  0  0  0  0
  187.5860  176.8880  143.0280 C   0  0  0  0  0  0  0  0  0  0  0  0
  185.9500  177.5300  141.3340 C   0  0  0  0  0  3  0  0  0  0  0  0
  189.1190  175.0530  142.5150 C   0  0  0  0  0  0  0  0  0  0  0  0
  187.4260  175.7050  140.9420 N   0  0  0  0  0  0  0  0  0  0  0  0
  186.0690  178.7560  143.4170 C   0  0  0  0  0  0  0  0  0  0  0  0
  191.1640  174.6850  143.9540 C   0  0  0  0  0  2  0  0  0  0  0  0
  190.2230  174.0730  142.9140 C   0  0  2  0  0  3  0  0  0  0  0  0
  189.3000  176.1190  144.7740 C   0  0  0  0  0  0  0  0  0  0  0  0
  188.4500  174.8920  141.2930 C   0  0  0  0  0  3  0  0  0  0  0  0
  192.7850  173.8470  140.1430 C   0  0  0  0  0  0  0  0  0  0  0  0
  192.5810  172.5710  139.7090 N   0  0  0  0  0  0  0  0  0  0  0  0
  191.0040  173.5590  141.7240 C   0  0  0  0  0  0  0  0  0  0  0  0
  191.5940  171.8070  140.2340 C   0  0  0  0  0  3  0  0  0  0  0  0
  192.0020  174.3620  141.1720 C   0  0  0  0  0  3  0  0  0  0  0  0
  190.8290  172.2890  141.2560 N   0  0  0  0  0  0  0  0  0  0  0  0
  193.9070  174.6460  139.5890 C   0  0  0  0  0  1  0  0  0  0  0  0
  190.8530  174.9970  146.4190 C   0  0  0  0  0  2  0  0  0  0  0  0
  192.3660  174.8130  146.4380 C   0  0  0  0  0  2  0  0  0  0  0  0
  193.0850  176.0810  146.8900 C   0  0  0  0  0  2  0  0  0  0  0  0
  194.5660  176.0770  146.5060 C   0  0  0  0  0  2  0  0  0  0  0  0
  196.2750  173.7820  146.1390 C   0  0  0  0  0  1  0  0  0  0  0  0
  194.7550  175.5020  145.1750 N   0  0  0  0  0  0  0  0  0  0  0  0
  196.0760  174.8520  145.0700 C   0  0  2  0  0  3  0  0  0  0  0  0
  196.0980  175.2870  142.6190 C   0  0  0  0  0  2  0  0  0  0  0  0
  194.7870  176.0550  142.7900 C   0  0  0  0  0  2  0  0  0  0  0  0
  194.7020  176.6060  144.2140 C   0  0  0  0  0  2  0  0  0  0  0  0
  196.2210  174.2020  143.6900 C   0  0  0  0  0  2  0  0  0  0  0  0
  1  8  1  0  0  0  0
  3 15  1  0  0  0  0
  4 24  1  0  0  0  0
  5 12  2  0  0  0  0
  8  3  1  0  0  0  0
  8  2  2  0  0  0  0
  9  1  2  0  0  0  0
  9  5  1  0  0  0  0
 10 14  1  0  0  0  0
 10  3  2  0  0  0  0
 11 16  2  0  0  0  0
 11  1  1  0  0  0  0
 12  2  1  0  0  0  0
 12  6  1  0  0  0  0
 13  4  1  0  0  0  0
 14 19  1  6  0  0  0
 14 13  1  0  0  0  0
 15  4  1  0  0  0  0
 15  7  2  0  0  0  0
 16 10  1  0  0  0  0
 17 21  1  0  0  0  0
 18 17  2  0  0  0  0
 18 20  1  0  0  0  0
 20 22  2  0  0  0  0
 21 19  2  0  0  0  0
 22 19  1  0  0  0  0
 23 17  1  0  0  0  0
 24 25  1  0  0  0  0
 25 26  1  0  0  0  0
 27 26  1  0  0  0  0
 29 27  1  0  0  0  0
 30 29  1  0  0  0  0
 30 28  1  1  0  0  0
 31 32  1  0  0  0  0
 31 34  1  0  0  0  0
 32 33  1  0  0  0  0
 33 29  1  0  0  0  0
 34 30  1  0  0  0  0
M  END
>  <MODEL>
7

>  <REMARK>
 VINA RESULT:      -6.5      2.180      5.809
  Name = 
  6 active torsions:
  status: ('A' for Active; 'I' for Inactive)
    1  A    between atoms: C_3  and  N_13
    2  A    between atoms: C_3  and  C_17
    3  A    between atoms: N_5  and  C_18
    4  A    between atoms: C_12  and  C_28
    5  A    between atoms: C_17  and  C_29
    6  A    between atoms: C_18  and  C_29
                            x       y       z     vdW  Elec       q    Type
                         _______ _______ _______ _____ _____    ______ ____

>  <TORSDO>
F 6

$$$$
=
 OpenBabel11052418493D

 34 38  0  0  1  0  0  0  0  0999 V2000
  191.1930  176.5030  146.2260 C   0  0  0  0  0  0  0  0  0  0  0  0
  192.6640  175.5650  144.5420 C   0  0  0  0  0  3  0  0  0  0  0  0
  190.2550  175.8730  144.0590 C   0  0  0  0  0  0  0  0  0  0  0  0
  189.1500  175.2430  141.8850 N   0  0  0  0  0  0  0  0  0  0  0  0
  193.5510  176.2180  146.6940 C   0  0  0  0  0  3  0  0  0  0  0  0
  195.1020  175.2660  144.9850 C   0  0  0  0  0  1  0  0  0  0  0  0
  191.3850  174.7090  142.2810 O   0  0  0  0  0  0  0  0  0  0  0  0
  191.3720  175.9650  144.9320 C   0  0  0  0  0  0  0  0  0  0  0  0
  192.2780  176.6240  147.1010 C   0  0  0  0  0  3  0  0  0  0  0  0
  188.9970  176.3550  144.5060 C   0  0  0  0  0  0  0  0  0  0  0  0
  189.9600  176.9000  146.6370 N   0  0  0  0  0  0  0  0  0  0  0  0
  193.7450  175.6880  145.4190 C   0  0  0  0  0  0  0  0  0  0  0  0
  188.1040  176.2160  142.1460 C   0  0  0  0  0  2  0  0  0  0  0  0
  187.7470  176.2200  143.6350 C   0  0  2  0  0  3  0  0  0  0  0  0
  190.3330  175.2540  142.6980 C   0  0  0  0  0  0  0  0  0  0  0  0
  188.8830  176.8300  145.8210 C   0  0  0  0  0  3  0  0  0  0  0  0
  185.0280  178.1730  145.3920 C   0  0  0  0  0  0  0  0  0  0  0  0
  184.9770  179.2920  144.6170 N   0  0  0  0  0  0  0  0  0  0  0  0
  186.7110  177.2810  143.9330 C   0  0  0  0  0  0  0  0  0  0  0  0
  185.7400  179.4050  143.5050 C   0  0  0  0  0  3  0  0  0  0  0  0
  185.9100  177.1460  145.0670 C   0  0  0  0  0  3  0  0  0  0  0  0
  186.6240  178.4170  143.1810 N   0  0  0  0  0  0  0  0  0  0  0  0
  184.2210  178.0940  146.6360 C   0  0  0  0  0  1  0  0  0  0  0  0
  189.0310  174.3790  140.7180 C   0  0  0  0  0  2  0  0  0  0  0  0
  188.6080  172.9800  141.1470 C   0  0  0  0  0  2  0  0  0  0  0  0
  189.7780  172.0000  141.1170 C   0  0  0  0  0  2  0  0  0  0  0  0
  190.0050  171.3260  142.4720 C   0  0  0  0  0  2  0  0  0  0  0  0
  191.7920  169.3280  141.4070 C   0  0  0  0  0  1  0  0  0  0  0  0
  191.4230  171.3400  142.8270 N   0  0  0  0  0  0  0  0  0  0  0  0
  191.9870  169.9760  142.7730 C   0  0  2  0  0  3  0  0  0  0  0  0
  193.6790  170.6080  144.4860 C   0  0  0  0  0  2  0  0  0  0  0  0
  192.9930  171.9700  144.5960 C   0  0  0  0  0  2  0  0  0  0  0  0
  191.5230  171.8310  144.2020 C   0  0  0  0  0  2  0  0  0  0  0  0
  193.4870  170.0280  143.0840 C   0  0  0  0  0  2  0  0  0  0  0  0
  1 11  1  0  0  0  0
  1  9  2  0  0  0  0
  2  8  2  0  0  0  0
  2 12  1  0  0  0  0
  3 10  2  0  0  0  0
  3  8  1  0  0  0  0
  4 13  1  0  0  0  0
  4 15  1  0  0  0  0
  5  9  1  0  0  0  0
  6 12  1  0  0  0  0
  7 15  2  0  0  0  0
  8  1  1  0  0  0  0
 10 16  1  0  0  0  0
 12  5  2  0  0  0  0
 13 14  1  0  0  0  0
 14 19  1  6  0  0  0
 14 10  1  0  0  0  0
 15  3  1  0  0  0  0
 16 11  2  0  0  0  0
 17 23  1  0  0  0  0
 18 17  2  0  0  0  0
 19 21  2  0  0  0  0
 20 18  1  0  0  0  0
 21 17  1  0  0  0  0
 22 20  2  0  0  0  0
 22 19  1  0  0  0  0
 24 25  1  0  0  0  0
 24  4  1  0  0  0  0
 26 25  1  0  0  0  0
 26 27  1  0  0  0  0
 27 29  1  0  0  0  0
 29 33  1  0  0  0  0
 30 28  1  6  0  0  0
 30 29  1  0  0  0  0
 30 34  1  0  0  0  0
 31 32  1  0  0  0  0
 33 32  1  0  0  0  0
 34 31  1  0  0  0  0
M  END
>  <MODEL>
8

>  <REMARK>
 VINA RESULT:      -6.5      1.958      5.098
  Name = 
  6 active torsions:
  status: ('A' for Active; 'I' for Inactive)
    1  A    between atoms: C_3  and  N_13
    2  A    between atoms: C_3  and  C_17
    3  A    between atoms: N_5  and  C_18
    4  A    between atoms: C_12  and  C_28
    5  A    between atoms: C_17  and  C_29
    6  A    between atoms: C_18  and  C_29
                            x       y       z     vdW  Elec       q    Type
                         _______ _______ _______ _____ _____    ______ ____

>  <TORSDO>
F 6

$$$$
=
 OpenBabel11052418493D

 34 38  0  0  1  0  0  0  0  0999 V2000
  194.1630  173.9010  144.0140 C   0  0  0  0  0  0  0  0  0  0  0  0
  193.0190  175.7930  145.0100 C   0  0  0  0  0  3  0  0  0  0  0  0
  191.9230  174.4740  143.2230 C   0  0  0  0  0  0  0  0  0  0  0  0
  189.6340  174.9690  142.2940 N   0  0  0  0  0  0  0  0  0  0  0  0
  195.2300  175.1780  145.7720 C   0  0  0  0  0  3  0  0  0  0  0  0
  194.0840  177.1270  146.8310 C   0  0  0  0  0  1  0  0  0  0  0  0
  190.6310  176.4140  143.8290 O   0  0  0  0  0  0  0  0  0  0  0  0
  193.0270  174.7390  144.0780 C   0  0  0  0  0  0  0  0  0  0  0  0
  195.2570  174.1240  144.8560 C   0  0  0  0  0  3  0  0  0  0  0  0
  191.9840  173.3540  142.3540 C   0  0  0  0  0  0  0  0  0  0  0  0
  194.2050  172.8730  143.1260 N   0  0  0  0  0  0  0  0  0  0  0  0
  194.1150  176.0120  145.8490 C   0  0  0  0  0  0  0  0  0  0  0  0
  189.5100  173.5800  141.8870 C   0  0  0  0  0  2  0  0  0  0  0  0
  190.8530  173.0620  141.3660 C   0  0  2  0  0  3  0  0  0  0  0  0
  190.7070  175.3470  143.1700 C   0  0  0  0  0  0  0  0  0  0  0  0
  193.1630  172.5960  142.3090 C   0  0  0  0  0  3  0  0  0  0  0  0
  190.8130  169.8670  139.3450 C   0  0  0  0  0  0  0  0  0  0  0  0
  190.8020  168.9350  140.3390 N   0  0  0  0  0  0  0  0  0  0  0  0
  190.7570  171.5950  141.0080 C   0  0  0  0  0  0  0  0  0  0  0  0
  190.7340  169.3070  141.6400 C   0  0  0  0  0  3  0  0  0  0  0  0
  190.8010  171.2220  139.6650 C   0  0  0  0  0  3  0  0  0  0  0  0
  190.7410  170.6290  141.9730 N   0  0  0  0  0  0  0  0  0  0  0  0
  190.9420  169.4370  137.9290 C   0  0  0  0  0  1  0  0  0  0  0  0
  188.5860  175.9080  141.9180 C   0  0  0  0  0  2  0  0  0  0  0  0
  187.2440  175.4360  142.4640 C   0  0  0  0  0  2  0  0  0  0  0  0
  186.3260  176.6080  142.8020 C   0  0  0  0  0  2  0  0  0  0  0  0
  187.0790  177.7580  143.4740 C   0  0  0  0  0  2  0  0  0  0  0  0
  188.0290  177.0840  146.1130 C   0  0  0  0  0  1  0  0  0  0  0  0
  186.3610  178.2250  144.6600 N   0  0  0  0  0  0  0  0  0  0  0  0
  186.5540  177.2930  145.7870 C   0  0  2  0  0  3  0  0  0  0  0  0
  184.3550  177.9770  146.7310 C   0  0  0  0  0  2  0  0  0  0  0  0
  184.1420  178.8410  145.4880 C   0  0  0  0  0  2  0  0  0  0  0  0
  184.9370  178.2570  144.3200 C   0  0  0  0  0  2  0  0  0  0  0  0
  185.8470  177.8390  147.0320 C   0  0  0  0  0  2  0  0  0  0  0  0
  1  8  1  0  0  0  0
  1  9  2  0  0  0  0
  2 12  1  0  0  0  0
  3  8  1  0  0  0  0
  4 15  1  0  0  0  0
  5 12  2  0  0  0  0
  8  2  2  0  0  0  0
  9  5  1  0  0  0  0
 10  3  2  0  0  0  0
 11  1  1  0  0  0  0
 12  6  1  0  0  0  0
 13  4  1  0  0  0  0
 14 19  1  1  0  0  0
 14 13  1  0  0  0  0
 14 10  1  0  0  0  0
 15  3  1  0  0  0  0
 15  7  2  0  0  0  0
 16 10  1  0  0  0  0
 16 11  2  0  0  0  0
 17 21  2  0  0  0  0
 17 18  1  0  0  0  0
 18 20  2  0  0  0  0
 19 22  2  0  0  0  0
 20 22  1  0  0  0  0
 21 19  1  0  0  0  0
 23 17  1  0  0  0  0
 24  4  1  0  0  0  0
 24 25  1  0  0  0  0
 25 26  1  0  0  0  0
 26 27  1  0  0  0  0
 27 29  1  0  0  0  0
 29 30  1  0  0  0  0
 30 28  1  1  0  0  0
 30 34  1  0  0  0  0
 31 34  1  0  0  0  0
 32 31  1  0  0  0  0
 33 29  1  0  0  0  0
 33 32  1  0  0  0  0
M  END
>  <MODEL>
9

>  <REMARK>
 VINA RESULT:      -6.4      2.330      7.978
  Name = 
  6 active torsions:
  status: ('A' for Active; 'I' for Inactive)
    1  A    between atoms: C_3  and  N_13
    2  A    between atoms: C_3  and  C_17
    3  A    between atoms: N_5  and  C_18
    4  A    between atoms: C_12  and  C_28
    5  A    between atoms: C_17  and  C_29
    6  A    between atoms: C_18  and  C_29
                            x       y       z     vdW  Elec       q    Type
                         _______ _______ _______ _____ _____    ______ ____

>  <TORSDO>
F 6

$$$$
