=
 OpenBabel11052418143D

 28 30  0  0  1  0  0  0  0  0999 V2000
  187.2090  176.8710  141.5260 C   0  0  0  0  0  0  0  0  0  0  0  0
  184.7190  179.5560  144.6580 F   0  0  0  0  0  0  0  0  0  0  0  0
  187.6530  177.3890  145.1220 C   0  0  0  0  0  0  0  0  0  0  0  0
  185.9390  178.2350  143.1000 C   0  0  0  0  0  0  0  0  0  0  0  0
  187.8190  176.9530  143.8430 N   0  0  0  0  0  0  0  0  0  0  0  0
  185.3000  178.1690  140.7630 C   0  0  0  0  0  3  0  0  0  0  0  0
  185.7440  178.7010  144.4070 C   0  0  0  0  0  0  0  0  0  0  0  0
  185.0940  178.6410  142.0610 C   0  0  0  0  0  3  0  0  0  0  0  0
  186.6100  178.2760  145.4390 C   0  0  0  0  0  0  0  0  0  0  0  0
  186.3510  177.2890  140.4980 C   0  0  0  0  0  3  0  0  0  0  0  0
  187.0020  177.3460  142.8310 C   0  0  0  0  0  0  0  0  0  0  0  0
  190.0390  177.1140  145.7650 C   0  0  0  0  0  2  0  0  0  0  0  0
  188.3510  175.4410  146.5020 C   0  0  0  0  0  2  0  0  0  0  0  0
  190.5970  175.4530  147.5980 C   0  0  0  0  0  0  0  0  0  0  0  0
  188.5890  176.9170  146.1920 C   0  0  2  0  0  3  0  0  0  0  0  0
  189.3770  174.9080  147.4670 C   0  0  0  0  0  3  0  0  0  0  0  0
  191.4600  174.9140  148.4960 F   0  0  0  0  0  0  0  0  0  0  0  0
  190.9760  176.7460  146.9160 C   0  0  0  0  0  2  0  0  0  0  0  0
  186.4750  178.7000  146.7720 O   0  0  0  0  0  0  0  0  0  0  0  0
  185.4100  178.3240  147.6330 C   0  0  0  0  0  1  0  0  0  0  0  0
  188.2930  175.9640  141.2640 N   0  0  0  0  0  2  0  0  0  0  0  0
  188.1830  174.5100  141.1310 C   0  0  1  0  0  3  0  0  0  0  0  0
  188.4980  172.9120  139.1660 S   0  0  0  0  0  0  0  0  0  0  0  0
  188.9720  174.0120  139.9550 C   0  0  0  0  0  3  0  0  0  0  0  0
  188.6030  173.8220  142.4250 C   0  0  0  0  0  2  0  0  0  0  0  0
  190.5800  173.8350  143.9530 C   0  0  0  0  0  3  0  0  0  0  0  0
  190.1070  172.6280  144.6960 C   0  0  0  0  0  1  0  0  0  0  0  0
  189.9080  174.3670  142.9260 C   0  0  0  0  0  3  0  0  0  0  0  0
  1 11  1  0  0  0  0
  3  9  1  0  0  0  0
  4  7  1  0  0  0  0
  5  3  2  0  0  0  0
  6  8  2  0  0  0  0
  7  2  1  0  0  0  0
  7  9  2  0  0  0  0
  8  4  1  0  0  0  0
  9 19  1  0  0  0  0
 10  6  1  0  0  0  0
 10  1  2  0  0  0  0
 11  4  2  0  0  0  0
 11  5  1  0  0  0  0
 12 15  1  0  0  0  0
 12 18  1  0  0  0  0
 13 16  1  0  0  0  0
 14 17  1  0  0  0  0
 15  3  1  6  0  0  0
 15 13  1  0  0  0  0
 16 14  2  0  0  0  0
 18 14  1  0  0  0  0
 19 20  1  0  0  0  0
 21  1  1  0  0  0  0
 22 24  1  6  0  0  0
 22 21  1  0  0  0  0
 22 25  1  0  0  0  0
 23 24  2  0  0  0  0
 25 28  1  0  0  0  0
 26 27  1  0  0  0  0
 28 26  2  0  0  0  0
M  END
>  <MODEL>
1

>  <REMARK>
 VINA RESULT:      -7.1      0.000      0.000
  Name = 
  7 active torsions:
  status: ('A' for Active; 'I' for Inactive)
    1  A    between atoms: C_1  and  N_2
    2  A    between atoms: N_2  and  C_3
    3  A    between atoms: C_3  and  C_7
    4  A    between atoms: C_3  and  C_11
    5  A    between atoms: C_7  and  C_28
    6  A    between atoms: C_10  and  C_13
    7  A    between atoms: O_14  and  C_25
                            x       y       z     vdW  Elec       q    Type
                         _______ _______ _______ _____ _____    ______ ____

>  <TORSDO>
F 7

$$$$
=
 OpenBabel11052418143D

 28 30  0  0  1  0  0  0  0  0999 V2000
  185.5860  178.8980  144.1620 C   0  0  0  0  0  0  0  0  0  0  0  0
  186.4400  176.4250  148.2080 F   0  0  0  0  0  0  0  0  0  0  0  0
  188.5780  177.1230  145.2990 C   0  0  0  0  0  0  0  0  0  0  0  0
  186.0040  177.6490  146.2160 C   0  0  0  0  0  0  0  0  0  0  0  0
  187.7110  177.8590  144.5510 N   0  0  0  0  0  0  0  0  0  0  0  0
  183.8450  178.6880  145.8480 C   0  0  0  0  0  3  0  0  0  0  0  0
  186.8740  176.8890  147.0080 C   0  0  0  0  0  0  0  0  0  0  0  0
  184.7020  177.9300  146.6480 C   0  0  0  0  0  3  0  0  0  0  0  0
  188.1820  176.6180  146.5500 C   0  0  0  0  0  0  0  0  0  0  0  0
  184.2850  179.1690  144.6120 C   0  0  0  0  0  3  0  0  0  0  0  0
  186.4470  178.1350  144.9670 C   0  0  0  0  0  0  0  0  0  0  0  0
  190.4740  178.0430  143.9790 C   0  0  0  0  0  2  0  0  0  0  0  0
  189.9680  175.6080  143.9010 C   0  0  0  0  0  2  0  0  0  0  0  0
  192.1680  176.4120  143.0300 C   0  0  0  0  0  0  0  0  0  0  0  0
  189.9580  176.8540  144.7820 C   0  0  2  0  0  3  0  0  0  0  0  0
  191.3100  175.4020  143.2520 C   0  0  0  0  0  3  0  0  0  0  0  0
  193.3620  176.1390  142.4440 F   0  0  0  0  0  0  0  0  0  0  0  0
  191.9260  177.8020  143.5680 C   0  0  0  0  0  2  0  0  0  0  0  0
  189.1090  175.8640  147.2890 O   0  0  0  0  0  0  0  0  0  0  0  0
  189.0490  174.4550  147.4570 C   0  0  0  0  0  1  0  0  0  0  0  0
  186.0460  179.3860  142.8910 N   0  0  0  0  0  2  0  0  0  0  0  0
  185.9020  178.7030  141.6040 C   0  0  1  0  0  3  0  0  0  0  0  0
  187.2040  176.5230  141.3460 S   0  0  0  0  0  0  0  0  0  0  0  0
  187.1520  177.9540  141.2460 C   0  0  0  0  0  3  0  0  0  0  0  0
  184.6800  177.7920  141.6180 C   0  0  0  0  0  2  0  0  0  0  0  0
  182.4910  178.3320  140.5410 C   0  0  0  0  0  3  0  0  0  0  0  0
  181.7830  178.4190  141.8540 C   0  0  0  0  0  1  0  0  0  0  0  0
  183.7960  178.0580  140.4350 C   0  0  0  0  0  3  0  0  0  0  0  0
  1 10  2  0  0  0  0
  1 11  1  0  0  0  0
  3  9  1  0  0  0  0
  4  8  1  0  0  0  0
  4  7  1  0  0  0  0
  5 11  1  0  0  0  0
  5  3  2  0  0  0  0
  6  8  2  0  0  0  0
  7  2  1  0  0  0  0
  9  7  2  0  0  0  0
  9 19  1  0  0  0  0
 10  6  1  0  0  0  0
 11  4  2  0  0  0  0
 12 15  1  0  0  0  0
 13 15  1  0  0  0  0
 14 16  2  0  0  0  0
 14 18  1  0  0  0  0
 15  3  1  6  0  0  0
 16 13  1  0  0  0  0
 17 14  1  0  0  0  0
 18 12  1  0  0  0  0
 19 20  1  0  0  0  0
 21  1  1  0  0  0  0
 22 24  1  1  0  0  0
 22 25  1  0  0  0  0
 22 21  1  0  0  0  0
 24 23  2  0  0  0  0
 26 27  1  0  0  0  0
 28 26  2  0  0  0  0
 28 25  1  0  0  0  0
M  END
>  <MODEL>
2

>  <REMARK>
 VINA RESULT:      -6.7      2.559      4.967
  Name = 
  7 active torsions:
  status: ('A' for Active; 'I' for Inactive)
    1  A    between atoms: C_1  and  N_2
    2  A    between atoms: N_2  and  C_3
    3  A    between atoms: C_3  and  C_7
    4  A    between atoms: C_3  and  C_11
    5  A    between atoms: C_7  and  C_28
    6  A    between atoms: C_10  and  C_13
    7  A    between atoms: O_14  and  C_25
                            x       y       z     vdW  Elec       q    Type
                         _______ _______ _______ _____ _____    ______ ____

>  <TORSDO>
F 7

$$$$
=
 OpenBabel11052418143D

 28 30  0  0  1  0  0  0  0  0999 V2000
  185.4830  178.5450  143.6850 C   0  0  0  0  0  0  0  0  0  0  0  0
  186.5490  176.9210  148.0950 F   0  0  0  0  0  0  0  0  0  0  0  0
  188.4800  176.8810  144.9660 C   0  0  0  0  0  0  0  0  0  0  0  0
  186.0090  177.7280  145.9230 C   0  0  0  0  0  0  0  0  0  0  0  0
  187.5880  177.4930  144.1400 N   0  0  0  0  0  0  0  0  0  0  0  0
  183.8720  178.7870  145.4910 C   0  0  0  0  0  3  0  0  0  0  0  0
  186.9070  177.1020  146.7970 C   0  0  0  0  0  0  0  0  0  0  0  0
  184.7570  178.1650  146.3730 C   0  0  0  0  0  3  0  0  0  0  0  0
  188.1630  176.6700  146.3190 C   0  0  0  0  0  0  0  0  0  0  0  0
  184.2320  178.9760  144.1550 C   0  0  0  0  0  3  0  0  0  0  0  0
  186.3730  177.9190  144.5730 C   0  0  0  0  0  0  0  0  0  0  0  0
  190.3370  177.4370  143.4080 C   0  0  0  0  0  2  0  0  0  0  0  0
  189.6790  175.0640  143.7640 C   0  0  0  0  0  2  0  0  0  0  0  0
  191.8610  175.5580  142.6510 C   0  0  0  0  0  0  0  0  0  0  0  0
  189.8040  176.4350  144.4250 C   0  0  2  0  0  3  0  0  0  0  0  0
  190.9610  174.6610  143.0850 C   0  0  0  0  0  3  0  0  0  0  0  0
  192.9950  175.1090  142.0540 F   0  0  0  0  0  0  0  0  0  0  0  0
  191.7420  177.0300  142.9630 C   0  0  0  0  0  2  0  0  0  0  0  0
  189.1140  176.0340  147.1360 O   0  0  0  0  0  0  0  0  0  0  0  0
  189.0880  174.6560  147.4800 C   0  0  0  0  0  1  0  0  0  0  0  0
  185.8620  178.7330  142.3120 N   0  0  0  0  0  2  0  0  0  0  0  0
  185.5570  177.8260  141.2040 C   0  0  1  0  0  3  0  0  0  0  0  0
  183.0980  178.1980  140.6300 S   0  0  0  0  0  0  0  0  0  0  0  0
  184.4860  178.3920  140.3190 C   0  0  0  0  0  3  0  0  0  0  0  0
  186.8230  177.4970  140.4200 C   0  0  0  0  0  2  0  0  0  0  0  0
  188.0280  175.3090  140.4670 C   0  0  0  0  0  3  0  0  0  0  0  0
  187.7720  175.0530  139.0160 C   0  0  0  0  0  1  0  0  0  0  0  0
  187.6080  176.4120  141.0960 C   0  0  0  0  0  3  0  0  0  0  0  0
  1 10  2  0  0  0  0
  1 11  1  0  0  0  0
  3  9  1  0  0  0  0
  4  8  1  0  0  0  0
  4  7  1  0  0  0  0
  5 11  1  0  0  0  0
  5  3  2  0  0  0  0
  6  8  2  0  0  0  0
  7  2  1  0  0  0  0
  9  7  2  0  0  0  0
  9 19  1  0  0  0  0
 10  6  1  0  0  0  0
 11  4  2  0  0  0  0
 12 15  1  0  0  0  0
 13 15  1  0  0  0  0
 14 18  1  0  0  0  0
 14 16  2  0  0  0  0
 15  3  1  6  0  0  0
 16 13  1  0  0  0  0
 17 14  1  0  0  0  0
 18 12  1  0  0  0  0
 19 20  1  0  0  0  0
 21  1  1  0  0  0  0
 22 24  1  6  0  0  0
 22 21  1  0  0  0  0
 24 23  2  0  0  0  0
 25 28  1  0  0  0  0
 25 22  1  0  0  0  0
 26 28  2  0  0  0  0
 27 26  1  0  0  0  0
M  END
>  <MODEL>
3

>  <REMARK>
 VINA RESULT:      -6.6      2.661      4.327
  Name = 
  7 active torsions:
  status: ('A' for Active; 'I' for Inactive)
    1  A    between atoms: C_1  and  N_2
    2  A    between atoms: N_2  and  C_3
    3  A    between atoms: C_3  and  C_7
    4  A    between atoms: C_3  and  C_11
    5  A    between atoms: C_7  and  C_28
    6  A    between atoms: C_10  and  C_13
    7  A    between atoms: O_14  and  C_25
                            x       y       z     vdW  Elec       q    Type
                         _______ _______ _______ _____ _____    ______ ____

>  <TORSDO>
F 7

$$$$
=
 OpenBabel11052418143D

 28 30  0  0  1  0  0  0  0  0999 V2000
  186.2540  177.0760  144.1860 C   0  0  0  0  0  0  0  0  0  0  0  0
  187.1300  176.2900  139.5140 F   0  0  0  0  0  0  0  0  0  0  0  0
  188.7800  175.0040  142.5380 C   0  0  0  0  0  0  0  0  0  0  0  0
  186.6860  176.6880  141.8170 C   0  0  0  0  0  0  0  0  0  0  0  0
  188.0300  175.6260  143.4880 N   0  0  0  0  0  0  0  0  0  0  0  0
  184.8830  178.1600  142.4950 C   0  0  0  0  0  3  0  0  0  0  0  0
  187.4400  176.0610  140.8170 C   0  0  0  0  0  0  0  0  0  0  0  0
  185.6270  177.5420  141.4870 C   0  0  0  0  0  3  0  0  0  0  0  0
  188.5040  175.2040  141.1740 C   0  0  0  0  0  0  0  0  0  0  0  0
  185.1960  177.9290  143.8360 C   0  0  0  0  0  3  0  0  0  0  0  0
  187.0010  176.4550  143.1730 C   0  0  0  0  0  0  0  0  0  0  0  0
  189.4110  173.0480  143.9380 C   0  0  0  0  0  2  0  0  0  0  0  0
  191.0280  174.9080  143.5970 C   0  0  0  0  0  2  0  0  0  0  0  0
  191.8580  172.7410  144.5250 C   0  0  0  0  0  0  0  0  0  0  0  0
  189.9020  174.1030  142.9530 C   0  0  2  0  0  3  0  0  0  0  0  0
  192.0990  174.0100  144.1540 C   0  0  0  0  0  3  0  0  0  0  0  0
  192.8830  171.9970  145.0130 F   0  0  0  0  0  0  0  0  0  0  0  0
  190.5370  172.0640  144.2520 C   0  0  0  0  0  2  0  0  0  0  0  0
  189.3030  174.5420  140.2270 O   0  0  0  0  0  0  0  0  0  0  0  0
  188.8630  173.4610  139.4170 C   0  0  0  0  0  1  0  0  0  0  0  0
  186.5840  176.8340  145.5640 N   0  0  0  0  0  2  0  0  0  0  0  0
  187.3680  177.7180  146.4290 C   0  0  1  0  0  3  0  0  0  0  0  0
  185.5190  179.0390  147.5920 S   0  0  0  0  0  0  0  0  0  0  0  0
  186.5970  178.0940  147.6600 C   0  0  0  0  0  3  0  0  0  0  0  0
  188.7080  177.0780  146.7730 C   0  0  0  0  0  2  0  0  0  0  0  0
  189.5990  174.7860  147.2160 C   0  0  0  0  0  3  0  0  0  0  0  0
  190.9700  175.2970  147.5180 C   0  0  0  0  0  1  0  0  0  0  0  0
  188.5790  175.5880  146.8890 C   0  0  0  0  0  3  0  0  0  0  0  0
  1 21  1  0  0  0  0
  2  7  1  0  0  0  0
  3  5  2  0  0  0  0
  4 11  1  0  0  0  0
  6 10  2  0  0  0  0
  7  9  2  0  0  0  0
  7  4  1  0  0  0  0
  8  4  2  0  0  0  0
  8  6  1  0  0  0  0
  9  3  1  0  0  0  0
 10  1  1  0  0  0  0
 11  5  1  0  0  0  0
 11  1  2  0  0  0  0
 12 18  1  0  0  0  0
 13 16  1  0  0  0  0
 14 17  1  0  0  0  0
 15  3  1  1  0  0  0
 15 13  1  0  0  0  0
 15 12  1  0  0  0  0
 16 14  2  0  0  0  0
 18 14  1  0  0  0  0
 19  9  1  0  0  0  0
 20 19  1  0  0  0  0
 21 22  1  0  0  0  0
 22 25  1  1  0  0  0
 22 24  1  0  0  0  0
 23 24  2  0  0  0  0
 25 28  1  0  0  0  0
 26 27  1  0  0  0  0
 28 26  2  0  0  0  0
M  END
>  <MODEL>
4

>  <REMARK>
 VINA RESULT:      -6.3      3.169      5.338
  Name = 
  7 active torsions:
  status: ('A' for Active; 'I' for Inactive)
    1  A    between atoms: C_1  and  N_2
    2  A    between atoms: N_2  and  C_3
    3  A    between atoms: C_3  and  C_7
    4  A    between atoms: C_3  and  C_11
    5  A    between atoms: C_7  and  C_28
    6  A    between atoms: C_10  and  C_13
    7  A    between atoms: O_14  and  C_25
                            x       y       z     vdW  Elec       q    Type
                         _______ _______ _______ _____ _____    ______ ____

>  <TORSDO>
F 7

$$$$
=
 OpenBabel11052418143D

 28 30  0  0  1  0  0  0  0  0999 V2000
  190.6360  174.6090  144.0840 C   0  0  0  0  0  0  0  0  0  0  0  0
  187.9900  175.4840  140.1530 F   0  0  0  0  0  0  0  0  0  0  0  0
  187.4320  176.3320  143.6860 C   0  0  0  0  0  0  0  0  0  0  0  0
  189.3070  175.0450  142.0840 C   0  0  0  0  0  0  0  0  0  0  0  0
  188.5550  175.7900  144.2310 N   0  0  0  0  0  0  0  0  0  0  0  0
  191.4070  173.8470  141.9070 C   0  0  0  0  0  3  0  0  0  0  0  0
  188.1600  175.5940  141.4960 C   0  0  0  0  0  0  0  0  0  0  0  0
  190.2690  174.3900  141.3060 C   0  0  0  0  0  3  0  0  0  0  0  0
  187.2040  176.2490  142.3020 C   0  0  0  0  0  0  0  0  0  0  0  0
  191.5880  173.9560  143.2870 C   0  0  0  0  0  3  0  0  0  0  0  0
  189.4920  175.1550  143.4790 C   0  0  0  0  0  0  0  0  0  0  0  0
  186.6830  178.5240  144.5920 C   0  0  0  0  0  2  0  0  0  0  0  0
  186.5200  176.4770  145.9950 C   0  0  0  0  0  2  0  0  0  0  0  0
  185.2750  178.5250  146.7000 C   0  0  0  0  0  0  0  0  0  0  0  0
  186.4370  177.0200  144.5710 C   0  0  2  0  0  3  0  0  0  0  0  0
  185.6360  177.2530  146.9340 C   0  0  0  0  0  3  0  0  0  0  0  0
  184.4690  179.1510  147.5960 F   0  0  0  0  0  0  0  0  0  0  0  0
  185.5850  179.2200  145.3960 C   0  0  0  0  0  2  0  0  0  0  0  0
  186.0310  176.8230  141.7820 O   0  0  0  0  0  0  0  0  0  0  0  0
  185.9990  177.9600  140.9320 C   0  0  0  0  0  1  0  0  0  0  0  0
  190.8130  174.7250  145.5050 N   0  0  0  0  0  2  0  0  0  0  0  0
  191.5100  175.8100  146.1990 C   0  0  1  0  0  3  0  0  0  0  0  0
  189.8900  177.4400  147.3100 S   0  0  0  0  0  0  0  0  0  0  0  0
  190.7290  176.2790  147.3920 C   0  0  0  0  0  3  0  0  0  0  0  0
  192.9220  175.3790  146.5810 C   0  0  0  0  0  2  0  0  0  0  0  0
  194.6400  176.9160  145.6170 C   0  0  0  0  0  3  0  0  0  0  0  0
  194.6680  176.1870  144.3130 C   0  0  0  0  0  1  0  0  0  0  0  0
  193.8480  176.5580  146.6340 C   0  0  0  0  0  3  0  0  0  0  0  0
  1 21  1  0  0  0  0
  2  7  1  0  0  0  0
  3  5  1  0  0  0  0
  4 11  1  0  0  0  0
  6 10  1  0  0  0  0
  7  4  2  0  0  0  0
  7  9  1  0  0  0  0
  8  6  2  0  0  0  0
  8  4  1  0  0  0  0
  9  3  2  0  0  0  0
 10  1  2  0  0  0  0
 11  1  1  0  0  0  0
 11  5  2  0  0  0  0
 12 18  1  0  0  0  0
 13 16  1  0  0  0  0
 14 16  2  0  0  0  0
 14 17  1  0  0  0  0
 15  3  1  6  0  0  0
 15 12  1  0  0  0  0
 15 13  1  0  0  0  0
 18 14  1  0  0  0  0
 19  9  1  0  0  0  0
 20 19  1  0  0  0  0
 21 22  1  0  0  0  0
 22 25  1  1  0  0  0
 22 24  1  0  0  0  0
 23 24  2  0  0  0  0
 25 28  1  0  0  0  0
 26 28  2  0  0  0  0
 27 26  1  0  0  0  0
M  END
>  <MODEL>
5

>  <REMARK>
 VINA RESULT:      -6.3      3.106      5.710
  Name = 
  7 active torsions:
  status: ('A' for Active; 'I' for Inactive)
    1  A    between atoms: C_1  and  N_2
    2  A    between atoms: N_2  and  C_3
    3  A    between atoms: C_3  and  C_7
    4  A    between atoms: C_3  and  C_11
    5  A    between atoms: C_7  and  C_28
    6  A    between atoms: C_10  and  C_13
    7  A    between atoms: O_14  and  C_25
                            x       y       z     vdW  Elec       q    Type
                         _______ _______ _______ _____ _____    ______ ____

>  <TORSDO>
F 7

$$$$
=
 OpenBabel11052418143D

 28 30  0  0  1  0  0  0  0  0999 V2000
  186.6460  176.9030  146.7720 C   0  0  0  0  0  0  0  0  0  0  0  0
  183.9250  178.5770  143.1650 F   0  0  0  0  0  0  0  0  0  0  0  0
  186.8500  176.3510  143.1600 C   0  0  0  0  0  0  0  0  0  0  0  0
  185.2590  177.7590  144.9560 C   0  0  0  0  0  0  0  0  0  0  0  0
  187.1040  176.3040  144.4960 N   0  0  0  0  0  0  0  0  0  0  0  0
  184.7750  178.3810  147.2480 C   0  0  0  0  0  3  0  0  0  0  0  0
  184.9740  177.8250  143.5860 C   0  0  0  0  0  0  0  0  0  0  0  0
  184.4790  178.4560  145.8850 C   0  0  0  0  0  3  0  0  0  0  0  0
  185.7770  177.1130  142.6680 C   0  0  0  0  0  0  0  0  0  0  0  0
  185.8520  177.6100  147.6880 C   0  0  0  0  0  3  0  0  0  0  0  0
  186.3480  176.9790  145.4020 C   0  0  0  0  0  0  0  0  0  0  0  0
  187.5100  174.0830  142.3800 C   0  0  0  0  0  2  0  0  0  0  0  0
  189.1940  175.9130  142.4520 C   0  0  0  0  0  2  0  0  0  0  0  0
  189.7240  173.8360  141.1690 C   0  0  0  0  0  0  0  0  0  0  0  0
  187.7230  175.5840  142.2140 C   0  0  2  0  0  3  0  0  0  0  0  0
  190.0960  175.0460  141.6160 C   0  0  0  0  0  3  0  0  0  0  0  0
  190.5970  173.1210  140.4140 F   0  0  0  0  0  0  0  0  0  0  0  0
  188.3120  173.3240  141.3240 C   0  0  0  0  0  2  0  0  0  0  0  0
  185.5510  177.1320  141.2810 O   0  0  0  0  0  0  0  0  0  0  0  0
  185.7280  178.2720  140.4520 C   0  0  0  0  0  1  0  0  0  0  0  0
  187.7580  176.1080  147.2140 N   0  0  0  0  0  2  0  0  0  0  0  0
  189.0350  175.9510  146.5150 C   0  0  1  0  0  3  0  0  0  0  0  0
  191.1050  176.7150  147.7980 S   0  0  0  0  0  0  0  0  0  0  0  0
  190.0100  177.0170  146.9210 C   0  0  0  0  0  3  0  0  0  0  0  0
  189.5990  174.5520  146.7410 C   0  0  0  0  0  2  0  0  0  0  0  0
  190.8110  173.5540  144.7980 C   0  0  0  0  0  3  0  0  0  0  0  0
  192.1410  174.0240  145.2910 C   0  0  0  0  0  1  0  0  0  0  0  0
  189.6680  173.7840  145.4540 C   0  0  0  0  0  3  0  0  0  0  0  0
  1 21  1  0  0  0  0
  1 10  1  0  0  0  0
  2  7  1  0  0  0  0
  3  5  2  0  0  0  0
  4 11  1  0  0  0  0
  4  8  2  0  0  0  0
  5 11  1  0  0  0  0
  6 10  2  0  0  0  0
  7  4  1  0  0  0  0
  8  6  1  0  0  0  0
  9  3  1  0  0  0  0
  9  7  2  0  0  0  0
 11  1  2  0  0  0  0
 14 18  1  0  0  0  0
 14 16  2  0  0  0  0
 15 12  1  0  0  0  0
 15 13  1  0  0  0  0
 15  3  1  1  0  0  0
 16 13  1  0  0  0  0
 17 14  1  0  0  0  0
 18 12  1  0  0  0  0
 19  9  1  0  0  0  0
 20 19  1  0  0  0  0
 22 25  1  1  0  0  0
 22 24  1  0  0  0  0
 22 21  1  0  0  0  0
 24 23  2  0  0  0  0
 26 27  1  0  0  0  0
 26 28  2  0  0  0  0
 28 25  1  0  0  0  0
M  END
>  <MODEL>
6

>  <REMARK>
 VINA RESULT:      -6.3      3.013      5.257
  Name = 
  7 active torsions:
  status: ('A' for Active; 'I' for Inactive)
    1  A    between atoms: C_1  and  N_2
    2  A    between atoms: N_2  and  C_3
    3  A    between atoms: C_3  and  C_7
    4  A    between atoms: C_3  and  C_11
    5  A    between atoms: C_7  and  C_28
    6  A    between atoms: C_10  and  C_13
    7  A    between atoms: O_14  and  C_25
                            x       y       z     vdW  Elec       q    Type
                         _______ _______ _______ _____ _____    ______ ____

>  <TORSDO>
F 7

$$$$
=
 OpenBabel11052418143D

 28 30  0  0  1  0  0  0  0  0999 V2000
  187.0810  177.6840  141.4370 C   0  0  0  0  0  0  0  0  0  0  0  0
  188.9460  173.4190  140.1930 F   0  0  0  0  0  0  0  0  0  0  0  0
  189.1400  175.3250  143.3310 C   0  0  0  0  0  0  0  0  0  0  0  0
  188.0190  175.5260  140.7930 C   0  0  0  0  0  0  0  0  0  0  0  0
  188.4000  176.4130  142.9830 N   0  0  0  0  0  0  0  0  0  0  0  0
  186.6900  176.7910  139.2090 C   0  0  0  0  0  3  0  0  0  0  0  0
  188.7760  174.3940  141.1230 C   0  0  0  0  0  0  0  0  0  0  0  0
  187.4420  175.6570  139.5240 C   0  0  0  0  0  3  0  0  0  0  0  0
  189.3480  174.2850  142.4090 C   0  0  0  0  0  0  0  0  0  0  0  0
  186.5120  177.7980  140.1590 C   0  0  0  0  0  3  0  0  0  0  0  0
  187.8370  176.5440  141.7530 C   0  0  0  0  0  0  0  0  0  0  0  0
  188.6820  175.5460  145.7650 C   0  0  0  0  0  2  0  0  0  0  0  0
  190.8930  176.2240  144.8490 C   0  0  0  0  0  2  0  0  0  0  0  0
  190.6480  175.9350  147.3190 C   0  0  0  0  0  0  0  0  0  0  0  0
  189.7330  175.2420  144.7040 C   0  0  2  0  0  3  0  0  0  0  0  0
  191.4090  176.2640  146.2630 C   0  0  0  0  0  3  0  0  0  0  0  0
  191.1930  175.9930  148.5610 F   0  0  0  0  0  0  0  0  0  0  0  0
  189.2720  175.3330  147.1590 C   0  0  0  0  0  2  0  0  0  0  0  0
  190.1200  173.1810  142.8110 O   0  0  0  0  0  0  0  0  0  0  0  0
  189.5910  171.9000  143.1250 C   0  0  0  0  0  1  0  0  0  0  0  0
  186.9040  178.7160  142.4210 N   0  0  0  0  0  2  0  0  0  0  0  0
  185.8120  178.7980  143.3930 C   0  0  1  0  0  3  0  0  0  0  0  0
  183.5290  178.2910  142.3710 S   0  0  0  0  0  0  0  0  0  0  0  0
  184.7090  177.8400  143.0510 C   0  0  0  0  0  3  0  0  0  0  0  0
  186.3380  178.5760  144.8070 C   0  0  0  0  0  2  0  0  0  0  0  0
  185.2230  178.6360  147.0420 C   0  0  0  0  0  3  0  0  0  0  0  0
  185.9410  177.4140  147.5150 C   0  0  0  0  0  1  0  0  0  0  0  0
  185.4070  179.1630  145.8270 C   0  0  0  0  0  3  0  0  0  0  0  0
  1 11  1  0  0  0  0
  1 21  1  0  0  0  0
  2  7  1  0  0  0  0
  4  7  2  0  0  0  0
  4 11  1  0  0  0  0
  5  3  1  0  0  0  0
  6  8  2  0  0  0  0
  6 10  1  0  0  0  0
  7  9  1  0  0  0  0
  8  4  1  0  0  0  0
  9 19  1  0  0  0  0
  9  3  2  0  0  0  0
 10  1  2  0  0  0  0
 11  5  2  0  0  0  0
 12 18  1  0  0  0  0
 13 16  1  0  0  0  0
 14 17  1  0  0  0  0
 15  3  1  6  0  0  0
 15 13  1  0  0  0  0
 15 12  1  0  0  0  0
 16 14  2  0  0  0  0
 18 14  1  0  0  0  0
 19 20  1  0  0  0  0
 21 22  1  0  0  0  0
 22 24  1  6  0  0  0
 22 25  1  0  0  0  0
 23 24  2  0  0  0  0
 25 28  1  0  0  0  0
 26 27  1  0  0  0  0
 28 26  2  0  0  0  0
M  END
>  <MODEL>
7

>  <REMARK>
 VINA RESULT:      -6.1      2.908      5.068
  Name = 
  7 active torsions:
  status: ('A' for Active; 'I' for Inactive)
    1  A    between atoms: C_1  and  N_2
    2  A    between atoms: N_2  and  C_3
    3  A    between atoms: C_3  and  C_7
    4  A    between atoms: C_3  and  C_11
    5  A    between atoms: C_7  and  C_28
    6  A    between atoms: C_10  and  C_13
    7  A    between atoms: O_14  and  C_25
                            x       y       z     vdW  Elec       q    Type
                         _______ _______ _______ _____ _____    ______ ____

>  <TORSDO>
F 7

$$$$
=
 OpenBabel11052418143D

 28 30  0  0  1  0  0  0  0  0999 V2000
  188.9130  173.9710  142.4420 C   0  0  0  0  0  0  0  0  0  0  0  0
  186.8670  176.9830  139.2870 F   0  0  0  0  0  0  0  0  0  0  0  0
  186.5350  176.7080  142.9390 C   0  0  0  0  0  0  0  0  0  0  0  0
  187.8840  175.4890  140.8330 C   0  0  0  0  0  0  0  0  0  0  0  0
  187.3780  175.6640  143.1660 N   0  0  0  0  0  0  0  0  0  0  0  0
  189.4320  173.7850  140.0740 C   0  0  0  0  0  3  0  0  0  0  0  0
  187.0230  176.5620  140.5690 C   0  0  0  0  0  0  0  0  0  0  0  0
  188.5770  174.8540  139.7960 C   0  0  0  0  0  3  0  0  0  0  0  0
  186.3350  177.1870  141.6320 C   0  0  0  0  0  0  0  0  0  0  0  0
  189.5980  173.3460  141.3890 C   0  0  0  0  0  3  0  0  0  0  0  0
  188.0530  175.0450  142.1620 C   0  0  0  0  0  0  0  0  0  0  0  0
  186.3820  178.7360  144.3700 C   0  0  0  0  0  2  0  0  0  0  0  0
  185.9510  176.4890  145.3460 C   0  0  0  0  0  2  0  0  0  0  0  0
  185.2620  178.5160  146.6340 C   0  0  0  0  0  0  0  0  0  0  0  0
  185.8200  177.3470  144.0900 C   0  0  2  0  0  3  0  0  0  0  0  0
  185.3680  177.1800  146.5490 C   0  0  0  0  0  3  0  0  0  0  0  0
  184.7180  179.0590  147.7530 F   0  0  0  0  0  0  0  0  0  0  0  0
  185.5590  179.4200  145.4620 C   0  0  0  0  0  2  0  0  0  0  0  0
  185.4560  178.2670  141.4430 O   0  0  0  0  0  0  0  0  0  0  0  0
  184.2510  178.2030  140.6940 C   0  0  0  0  0  1  0  0  0  0  0  0
  189.0750  173.5250  143.7990 N   0  0  0  0  0  2  0  0  0  0  0  0
  190.2000  173.8470  144.6800 C   0  0  1  0  0  3  0  0  0  0  0  0
  192.6090  173.0960  144.2980 S   0  0  0  0  0  0  0  0  0  0  0  0
  191.2500  172.7770  144.6310 C   0  0  0  0  0  3  0  0  0  0  0  0
  190.7720  175.2180  144.3370 C   0  0  0  0  0  2  0  0  0  0  0  0
  189.8900  177.5140  144.7760 C   0  0  0  0  0  3  0  0  0  0  0  0
  190.1090  177.9480  143.3620 C   0  0  0  0  0  1  0  0  0  0  0  0
  190.1800  176.2830  145.2120 C   0  0  0  0  0  3  0  0  0  0  0  0
  1 21  1  0  0  0  0
  2  7  1  0  0  0  0
  3  5  1  0  0  0  0
  4 11  1  0  0  0  0
  6 10  1  0  0  0  0
  7  4  2  0  0  0  0
  7  9  1  0  0  0  0
  8  6  2  0  0  0  0
  8  4  1  0  0  0  0
  9  3  2  0  0  0  0
 10  1  2  0  0  0  0
 11  1  1  0  0  0  0
 11  5  2  0  0  0  0
 12 18  1  0  0  0  0
 13 16  1  0  0  0  0
 14 17  1  0  0  0  0
 15  3  1  6  0  0  0
 15 12  1  0  0  0  0
 15 13  1  0  0  0  0
 16 14  2  0  0  0  0
 18 14  1  0  0  0  0
 19  9  1  0  0  0  0
 20 19  1  0  0  0  0
 21 22  1  0  0  0  0
 22 25  1  6  0  0  0
 23 24  2  0  0  0  0
 24 22  1  0  0  0  0
 25 28  1  0  0  0  0
 26 28  2  0  0  0  0
 27 26  1  0  0  0  0
M  END
>  <MODEL>
8

>  <REMARK>
 VINA RESULT:      -6.1      2.679      4.864
  Name = 
  7 active torsions:
  status: ('A' for Active; 'I' for Inactive)
    1  A    between atoms: C_1  and  N_2
    2  A    between atoms: N_2  and  C_3
    3  A    between atoms: C_3  and  C_7
    4  A    between atoms: C_3  and  C_11
    5  A    between atoms: C_7  and  C_28
    6  A    between atoms: C_10  and  C_13
    7  A    between atoms: O_14  and  C_25
                            x       y       z     vdW  Elec       q    Type
                         _______ _______ _______ _____ _____    ______ ____

>  <TORSDO>
F 7

$$$$
=
 OpenBabel11052418143D

 28 30  0  0  1  0  0  0  0  0999 V2000
  188.2750  177.0700  143.8690 C   0  0  0  0  0  0  0  0  0  0  0  0
  189.3510  174.0290  140.2900 F   0  0  0  0  0  0  0  0  0  0  0  0
  191.3020  175.1230  143.2070 C   0  0  0  0  0  0  0  0  0  0  0  0
  188.8050  175.5330  142.0510 C   0  0  0  0  0  0  0  0  0  0  0  0
  190.4010  175.9670  143.7810 N   0  0  0  0  0  0  0  0  0  0  0  0
  186.6480  176.6360  142.1150 C   0  0  0  0  0  3  0  0  0  0  0  0
  189.7120  174.6580  141.4380 C   0  0  0  0  0  0  0  0  0  0  0  0
  187.5420  175.7610  141.4930 C   0  0  0  0  0  3  0  0  0  0  0  0
  190.9810  174.4450  142.0190 C   0  0  0  0  0  0  0  0  0  0  0  0
  187.0130  177.2860  143.2950 C   0  0  0  0  0  3  0  0  0  0  0  0
  189.1730  176.1900  143.2440 C   0  0  0  0  0  0  0  0  0  0  0  0
  192.5400  173.9260  145.0010 C   0  0  0  0  0  2  0  0  0  0  0  0
  193.1900  176.2450  144.3750 C   0  0  0  0  0  2  0  0  0  0  0  0
  194.7630  174.8830  145.7600 C   0  0  0  0  0  0  0  0  0  0  0  0
  192.6400  174.9210  143.8500 C   0  0  2  0  0  3  0  0  0  0  0  0
  194.4620  176.0440  145.1540 C   0  0  0  0  0  3  0  0  0  0  0  0
  195.9350  174.7840  146.4370 F   0  0  0  0  0  0  0  0  0  0  0  0
  193.9330  173.6370  145.5620 C   0  0  0  0  0  2  0  0  0  0  0  0
  191.9420  173.5830  141.4610 O   0  0  0  0  0  0  0  0  0  0  0  0
  192.6840  173.8600  140.2820 C   0  0  0  0  0  1  0  0  0  0  0  0
  188.6600  177.7360  145.0830 N   0  0  0  0  0  2  0  0  0  0  0  0
  188.5050  177.2090  146.4400 C   0  0  1  0  0  3  0  0  0  0  0  0
  190.7740  176.5170  147.3810 S   0  0  0  0  0  0  0  0  0  0  0  0
  189.7220  177.4870  147.2720 C   0  0  0  0  0  3  0  0  0  0  0  0
  187.2390  177.7610  147.0860 C   0  0  0  0  0  2  0  0  0  0  0  0
  184.9010  177.1910  146.4140 C   0  0  0  0  0  3  0  0  0  0  0  0
  184.6090  178.5880  145.9700 C   0  0  0  0  0  1  0  0  0  0  0  0
  186.0870  176.8170  146.9080 C   0  0  0  0  0  3  0  0  0  0  0  0
  1 21  1  0  0  0  0
  2  7  1  0  0  0  0
  3  5  2  0  0  0  0
  4 11  1  0  0  0  0
  6 10  2  0  0  0  0
  7  9  2  0  0  0  0
  7  4  1  0  0  0  0
  8  4  2  0  0  0  0
  8  6  1  0  0  0  0
  9  3  1  0  0  0  0
 10  1  1  0  0  0  0
 11  5  1  0  0  0  0
 11  1  2  0  0  0  0
 12 18  1  0  0  0  0
 13 16  1  0  0  0  0
 14 17  1  0  0  0  0
 15  3  1  1  0  0  0
 15 13  1  0  0  0  0
 15 12  1  0  0  0  0
 16 14  2  0  0  0  0
 18 14  1  0  0  0  0
 19  9  1  0  0  0  0
 20 19  1  0  0  0  0
 21 22  1  0  0  0  0
 22 25  1  1  0  0  0
 22 24  1  0  0  0  0
 24 23  2  0  0  0  0
 26 28  2  0  0  0  0
 27 26  1  0  0  0  0
 28 25  1  0  0  0  0
M  END
>  <MODEL>
9

>  <REMARK>
 VINA RESULT:      -6.0      3.749      6.048
  Name = 
  7 active torsions:
  status: ('A' for Active; 'I' for Inactive)
    1  A    between atoms: C_1  and  N_2
    2  A    between atoms: N_2  and  C_3
    3  A    between atoms: C_3  and  C_7
    4  A    between atoms: C_3  and  C_11
    5  A    between atoms: C_7  and  C_28
    6  A    between atoms: C_10  and  C_13
    7  A    between atoms: O_14  and  C_25
                            x       y       z     vdW  Elec       q    Type
                         _______ _______ _______ _____ _____    ______ ____

>  <TORSDO>
F 7

$$$$
