=
 OpenBabel11052418313D

 27 32  0  0  1  0  0  0  0  0999 V2000
  189.4040  174.9660  146.0650 C   0  0  2  0  0  3  0  0  0  0  0  0
  189.9690  174.2670  144.8250 C   0  0  1  0  0  3  0  0  0  0  0  0
  188.9210  176.3300  144.1320 C   0  0  2  0  0  0  0  0  0  0  0  0
  188.8600  172.4060  141.3430 N   0  0  0  0  0  0  0  0  0  0  0  0
  189.5750  173.3390  139.2110 C   0  0  0  0  0  1  0  0  0  0  0  0
  189.7110  172.7760  144.7770 C   0  0  0  0  0  3  0  0  0  0  0  0
  188.4120  175.0490  141.0230 S   0  0  0  0  0  0  0  0  0  0  0  0
  186.6530  177.4980  145.4820 C   0  0  2  0  0  3  0  0  0  0  0  0
  189.4790  177.5180  143.3910 C   0  0  0  0  0  2  0  0  0  0  0  0
  185.6990  176.5450  145.1220 O   0  0  0  0  0  1  0  0  0  0  0  0
  189.1230  174.3790  142.5100 C   0  0  2  0  0  3  0  0  0  0  0  0
  188.5120  173.3600  140.2920 C   0  0  2  0  0  3  0  0  0  0  0  0
  189.2160  172.9430  142.4560 C   0  0  0  0  0  0  0  0  0  0  0  0
  189.0320  176.4040  145.6500 C   0  0  1  0  0  3  0  0  0  0  0  0
  189.3780  175.0020  143.6660 C   0  0  2  0  0  3  0  0  0  0  0  0
  187.2190  178.1860  144.2390 C   0  0  0  0  0  2  0  0  0  0  0  0
  189.4160  172.1800  143.6540 N   0  0  0  0  0  0  0  0  0  0  0  0
  187.5910  176.7320  147.4980 O   0  0  0  0  0  0  0  0  0  0  0  0
  187.7420  176.8560  146.2930 C   0  0  0  0  0  0  0  0  0  0  0  0
  187.9770  177.2160  143.3330 C   0  0  2  0  0  3  0  0  0  0  0  0
  190.3760  174.9320  147.2500 C   0  0  0  0  0  2  0  0  0  0  0  0
  194.4210  175.9220  146.1950 C   0  0  0  0  0  3  0  0  0  0  0  0
  191.7820  175.2810  146.8720 C   0  0  0  0  0  0  0  0  0  0  0  0
  192.2840  176.5610  147.1380 C   0  0  0  0  0  3  0  0  0  0  0  0
  193.6020  176.8810  146.8000 C   0  0  0  0  0  3  0  0  0  0  0  0
  193.9220  174.6440  145.9300 C   0  0  0  0  0  3  0  0  0  0  0  0
  192.6050  174.3220  146.2680 C   0  0  0  0  0  3  0  0  0  0  0  0
  1 21  1  1  0  0  0
  2  6  1  6  0  0  0
  2  1  1  0  0  0  0
  3  9  1  6  0  0  0
  3 14  1  0  0  0  0
  4 13  2  0  0  0  0
  8 10  1  6  0  0  0
  8 19  1  0  0  0  0
 11  7  1  1  0  0  0
 11 15  1  0  0  0  0
 12  5  1  6  0  0  0
 12  7  1  0  0  0  0
 12  4  1  0  0  0  0
 13 11  1  0  0  0  0
 13 17  1  0  0  0  0
 14  1  1  0  0  0  0
 14 19  1  1  0  0  0
 15  3  1  0  0  0  0
 15  2  1  0  0  0  0
 16  8  1  0  0  0  0
 17  6  2  0  0  0  0
 19 18  2  0  0  0  0
 20  9  1  0  0  0  0
 20  3  1  0  0  0  0
 20 16  1  0  0  0  0
 22 25  1  0  0  0  0
 23 24  1  0  0  0  0
 23 21  1  0  0  0  0
 25 24  2  0  0  0  0
 26 22  2  0  0  0  0
 26 27  1  0  0  0  0
 27 23  2  0  0  0  0
M  END
>  <MODEL>
1

>  <REMARK>
 VINA RESULT:      -8.0      0.000      0.000
  Name = 
  2 active torsions:
  status: ('A' for Active; 'I' for Inactive)
    1  A    between atoms: C_1  and  C_15
    2  A    between atoms: C_9  and  C_15
                            x       y       z     vdW  Elec       q    Type
                         _______ _______ _______ _____ _____    ______ ____

>  <TORSDO>
F 2

$$$$
=
 OpenBabel11052418313D

 27 32  0  0  1  0  0  0  0  0999 V2000
  188.2540  176.2470  144.7780 C   0  0  2  0  0  3  0  0  0  0  0  0
  187.8730  175.3140  143.6230 C   0  0  1  0  0  3  0  0  0  0  0  0
  190.0760  174.7060  144.4070 C   0  0  2  0  0  0  0  0  0  0  0  0
  188.8560  174.3360  139.7650 N   0  0  0  0  0  0  0  0  0  0  0  0
  189.6140  172.0780  139.2620 C   0  0  0  0  0  1  0  0  0  0  0  0
  187.2260  176.0120  142.4460 C   0  0  0  0  0  3  0  0  0  0  0  0
  190.8150  173.3870  141.3610 S   0  0  0  0  0  0  0  0  0  0  0  0
  191.9460  176.5940  145.5330 C   0  0  2  0  0  3  0  0  0  0  0  0
  190.6070  173.3990  144.9380 C   0  0  0  0  0  2  0  0  0  0  0  0
  192.2320  177.3060  144.3670 O   0  0  0  0  0  1  0  0  0  0  0  0
  189.3810  174.2170  142.0080 C   0  0  2  0  0  3  0  0  0  0  0  0
  190.0310  173.4700  139.6940 C   0  0  2  0  0  3  0  0  0  0  0  0
  188.5070  174.6700  140.9570 C   0  0  0  0  0  0  0  0  0  0  0  0
  189.5010  175.6460  145.4590 C   0  0  1  0  0  3  0  0  0  0  0  0
  189.1410  174.6100  143.2640 C   0  0  2  0  0  3  0  0  0  0  0  0
  192.3610  175.1300  145.3830 C   0  0  0  0  0  2  0  0  0  0  0  0
  187.4990  175.6560  141.2210 N   0  0  0  0  0  0  0  0  0  0  0  0
  190.1020  177.6800  146.5080 O   0  0  0  0  0  0  0  0  0  0  0  0
  190.4860  176.7150  145.8660 C   0  0  0  0  0  0  0  0  0  0  0  0
  191.5640  174.4090  144.2960 C   0  0  2  0  0  3  0  0  0  0  0  0
  187.0980  176.4640  145.7600 C   0  0  0  0  0  2  0  0  0  0  0  0
  184.4770  179.6680  144.6070 C   0  0  0  0  0  3  0  0  0  0  0  0
  186.1890  177.5880  145.3660 C   0  0  0  0  0  0  0  0  0  0  0  0
  186.6350  178.5740  144.4790 C   0  0  0  0  0  3  0  0  0  0  0  0
  185.7790  179.6130  144.1000 C   0  0  0  0  0  3  0  0  0  0  0  0
  184.0310  178.6830  145.4930 C   0  0  0  0  0  3  0  0  0  0  0  0
  184.8850  177.6440  145.8720 C   0  0  0  0  0  3  0  0  0  0  0  0
  1 14  1  0  0  0  0
  1 21  1  1  0  0  0
  2  6  1  6  0  0  0
  2  1  1  0  0  0  0
  3  9  1  1  0  0  0
  3 14  1  0  0  0  0
  4 13  2  0  0  0  0
  7 11  1  0  0  0  0
  8 10  1  6  0  0  0
  8 19  1  0  0  0  0
 11 13  1  6  0  0  0
 11 15  1  0  0  0  0
 12  5  1  1  0  0  0
 12  4  1  0  0  0  0
 12  7  1  0  0  0  0
 13 17  1  0  0  0  0
 14 19  1  6  0  0  0
 15  2  1  0  0  0  0
 15  3  1  0  0  0  0
 16  8  1  0  0  0  0
 17  6  2  0  0  0  0
 19 18  2  0  0  0  0
 20  3  1  0  0  0  0
 20  9  1  0  0  0  0
 20 16  1  0  0  0  0
 22 26  1  0  0  0  0
 23 21  1  0  0  0  0
 23 27  1  0  0  0  0
 24 23  2  0  0  0  0
 25 24  1  0  0  0  0
 25 22  2  0  0  0  0
 26 27  2  0  0  0  0
M  END
>  <MODEL>
2

>  <REMARK>
 VINA RESULT:      -7.7      2.081      5.191
  Name = 
  2 active torsions:
  status: ('A' for Active; 'I' for Inactive)
    1  A    between atoms: C_1  and  C_15
    2  A    between atoms: C_9  and  C_15
                            x       y       z     vdW  Elec       q    Type
                         _______ _______ _______ _____ _____    ______ ____

>  <TORSDO>
F 2

$$$$
=
 OpenBabel11052418313D

 27 32  0  0  1  0  0  0  0  0999 V2000
  188.7020  176.5040  143.8570 C   0  0  2  0  0  3  0  0  0  0  0  0
  190.0390  176.8590  144.5170 C   0  0  1  0  0  3  0  0  0  0  0  0
  190.4440  175.2040  142.8050 C   0  0  2  0  0  0  0  0  0  0  0  0
  193.0230  175.3170  146.8680 N   0  0  0  0  0  0  0  0  0  0  0  0
  195.2880  175.1810  145.9860 C   0  0  0  0  0  1  0  0  0  0  0  0
  189.9820  176.9590  146.0260 C   0  0  0  0  0  3  0  0  0  0  0  0
  193.2530  174.1860  144.4280 S   0  0  0  0  0  0  0  0  0  0  0  0
  188.5260  173.1800  142.0580 C   0  0  2  0  0  3  0  0  0  0  0  0
  191.3360  175.2400  141.5900 C   0  0  0  0  0  2  0  0  0  0  0  0
  188.5810  172.4180  143.2260 O   0  0  0  0  0  1  0  0  0  0  0  0
  192.0180  175.4120  144.7940 C   0  0  2  0  0  3  0  0  0  0  0  0
  193.9500  174.4790  146.1090 C   0  0  2  0  0  3  0  0  0  0  0  0
  192.0680  175.8250  146.1730 C   0  0  0  0  0  0  0  0  0  0  0  0
  189.0220  175.7030  142.5780 C   0  0  1  0  0  3  0  0  0  0  0  0
  190.9950  175.8180  144.0330 C   0  0  2  0  0  3  0  0  0  0  0  0
  189.8930  173.2060  141.3710 C   0  0  0  0  0  2  0  0  0  0  0  0
  190.9620  176.5190  146.7670 N   0  0  0  0  0  0  0  0  0  0  0  0
  186.8470  174.7850  142.4200 O   0  0  0  0  0  0  0  0  0  0  0  0
  188.0470  174.5690  142.3700 C   0  0  0  0  0  0  0  0  0  0  0  0
  190.9580  173.8960  142.2220 C   0  0  2  0  0  3  0  0  0  0  0  0
  187.8440  177.7420  143.5730 C   0  0  0  0  0  2  0  0  0  0  0  0
  184.4910  178.1370  146.2290 C   0  0  0  0  0  3  0  0  0  0  0  0
  186.6820  177.8850  144.5060 C   0  0  0  0  0  0  0  0  0  0  0  0
  185.9510  179.0780  144.5410 C   0  0  0  0  0  3  0  0  0  0  0  0
  184.8560  179.2040  145.4010 C   0  0  0  0  0  3  0  0  0  0  0  0
  185.2200  176.9450  146.1960 C   0  0  0  0  0  3  0  0  0  0  0  0
  186.3140  176.8180  145.3350 C   0  0  0  0  0  3  0  0  0  0  0  0
  1 21  1  6  0  0  0
  1  2  1  0  0  0  0
  2  6  1  1  0  0  0
  3  9  1  6  0  0  0
  3 15  1  0  0  0  0
  6 17  2  0  0  0  0
  7 12  1  0  0  0  0
  8 19  1  0  0  0  0
  8 10  1  1  0  0  0
  9 20  1  0  0  0  0
 11  7  1  1  0  0  0
 11 13  1  0  0  0  0
 12  5  1  6  0  0  0
 12  4  1  0  0  0  0
 13 17  1  0  0  0  0
 13  4  2  0  0  0  0
 14 19  1  1  0  0  0
 14  3  1  0  0  0  0
 14  1  1  0  0  0  0
 15  2  1  0  0  0  0
 15 11  1  0  0  0  0
 16  8  1  0  0  0  0
 16 20  1  0  0  0  0
 19 18  2  0  0  0  0
 20  3  1  0  0  0  0
 21 23  1  0  0  0  0
 23 24  2  0  0  0  0
 23 27  1  0  0  0  0
 24 25  1  0  0  0  0
 25 22  2  0  0  0  0
 26 22  1  0  0  0  0
 27 26  2  0  0  0  0
M  END
>  <MODEL>
3

>  <REMARK>
 VINA RESULT:      -7.7      2.790      6.050
  Name = 
  2 active torsions:
  status: ('A' for Active; 'I' for Inactive)
    1  A    between atoms: C_1  and  C_15
    2  A    between atoms: C_9  and  C_15
                            x       y       z     vdW  Elec       q    Type
                         _______ _______ _______ _____ _____    ______ ____

>  <TORSDO>
F 2

$$$$
=
 OpenBabel11052418313D

 27 32  0  0  1  0  0  0  0  0999 V2000
  192.2330  176.0000  144.9140 C   0  0  2  0  0  3  0  0  0  0  0  0
  191.9400  175.8740  143.4150 C   0  0  1  0  0  3  0  0  0  0  0  0
  189.8740  176.3780  144.5600 C   0  0  2  0  0  0  0  0  0  0  0  0
  189.9760  173.5550  140.6620 N   0  0  0  0  0  0  0  0  0  0  0  0
  188.1930  174.5400  139.3280 C   0  0  0  0  0  1  0  0  0  0  0  0
  192.6230  174.7020  142.7430 C   0  0  0  0  0  3  0  0  0  0  0  0
  188.1040  174.9200  142.0490 S   0  0  0  0  0  0  0  0  0  0  0  0
  189.3010  175.5360  147.2610 C   0  0  2  0  0  3  0  0  0  0  0  0
  188.9020  177.5180  144.3850 C   0  0  0  0  0  2  0  0  0  0  0  0
  189.1790  174.1670  147.0170 O   0  0  0  0  0  1  0  0  0  0  0  0
  189.8460  175.1320  142.3420 C   0  0  2  0  0  3  0  0  0  0  0  0
  188.5420  173.8350  140.6240 C   0  0  2  0  0  3  0  0  0  0  0  0
  190.6370  174.2600  141.5110 C   0  0  0  0  0  0  0  0  0  0  0  0
  190.9870  176.6270  145.5720 C   0  0  1  0  0  3  0  0  0  0  0  0
  190.4500  175.8200  143.3170 C   0  0  2  0  0  3  0  0  0  0  0  0
  188.2420  176.3160  146.4800 C   0  0  0  0  0  2  0  0  0  0  0  0
  192.0130  174.0040  141.8250 N   0  0  0  0  0  0  0  0  0  0  0  0
  191.5730  175.8980  147.7450 O   0  0  0  0  0  0  0  0  0  0  0  0
  190.6870  176.0000  146.9130 C   0  0  0  0  0  0  0  0  0  0  0  0
  188.4210  176.1850  144.9680 C   0  0  2  0  0  3  0  0  0  0  0  0
  193.5090  176.8010  145.1950 C   0  0  0  0  0  2  0  0  0  0  0  0
  197.0860  174.4630  144.7500 C   0  0  0  0  0  3  0  0  0  0  0  0
  194.7610  175.9930  145.0480 C   0  0  0  0  0  0  0  0  0  0  0  0
  195.0120  174.9230  145.9140 C   0  0  0  0  0  3  0  0  0  0  0  0
  196.1730  174.1580  145.7650 C   0  0  0  0  0  3  0  0  0  0  0  0
  196.8360  175.5310  143.8840 C   0  0  0  0  0  3  0  0  0  0  0  0
  195.6750  176.2960  144.0310 C   0  0  0  0  0  3  0  0  0  0  0  0
  1 21  1  6  0  0  0
  1 14  1  0  0  0  0
  2  6  1  1  0  0  0
  2  1  1  0  0  0  0
  3  9  1  6  0  0  0
  3 20  1  0  0  0  0
  3 14  1  0  0  0  0
  4 13  2  0  0  0  0
  7 11  1  0  0  0  0
  8 10  1  6  0  0  0
  9 20  1  0  0  0  0
 11 13  1  1  0  0  0
 11 15  1  0  0  0  0
 12  5  1  6  0  0  0
 12  4  1  0  0  0  0
 12  7  1  0  0  0  0
 13 17  1  0  0  0  0
 14 19  1  1  0  0  0
 15  2  1  0  0  0  0
 15  3  1  0  0  0  0
 16  8  1  0  0  0  0
 17  6  2  0  0  0  0
 19  8  1  0  0  0  0
 19 18  2  0  0  0  0
 20 16  1  0  0  0  0
 22 25  1  0  0  0  0
 23 21  1  0  0  0  0
 23 24  1  0  0  0  0
 25 24  2  0  0  0  0
 26 27  1  0  0  0  0
 26 22  2  0  0  0  0
 27 23  2  0  0  0  0
M  END
>  <MODEL>
4

>  <REMARK>
 VINA RESULT:      -7.4      2.158      3.017
  Name = 
  2 active torsions:
  status: ('A' for Active; 'I' for Inactive)
    1  A    between atoms: C_1  and  C_15
    2  A    between atoms: C_9  and  C_15
                            x       y       z     vdW  Elec       q    Type
                         _______ _______ _______ _____ _____    ______ ____

>  <TORSDO>
F 2

$$$$
=
 OpenBabel11052418313D

 27 32  0  0  1  0  0  0  0  0999 V2000
  191.0340  176.9560  144.3640 C   0  0  2  0  0  3  0  0  0  0  0  0
  189.9280  177.9020  143.8870 C   0  0  1  0  0  3  0  0  0  0  0  0
  189.1350  176.7140  145.8350 C   0  0  2  0  0  0  0  0  0  0  0  0
  186.1670  177.9560  142.2550 N   0  0  0  0  0  0  0  0  0  0  0  0
  184.3410  178.9810  143.4980 C   0  0  0  0  0  1  0  0  0  0  0  0
  189.7210  177.9140  142.3880 C   0  0  0  0  0  3  0  0  0  0  0  0
  185.9200  177.1610  144.8230 S   0  0  0  0  0  0  0  0  0  0  0  0
  189.9600  174.0320  146.5140 C   0  0  2  0  0  3  0  0  0  0  0  0
  188.6320  177.2220  147.1630 C   0  0  0  0  0  2  0  0  0  0  0  0
  189.3160  173.3610  145.4740 O   0  0  0  0  0  1  0  0  0  0  0  0
  187.4880  177.6090  144.1140 C   0  0  2  0  0  3  0  0  0  0  0  0
  185.1260  177.7080  143.2510 C   0  0  2  0  0  3  0  0  0  0  0  0
  187.3660  177.9500  142.7200 C   0  0  0  0  0  0  0  0  0  0  0  0
  190.6350  176.4550  145.7680 C   0  0  1  0  0  3  0  0  0  0  0  0
  188.7100  177.4810  144.6440 C   0  0  2  0  0  3  0  0  0  0  0  0
  188.9410  174.7490  147.4020 C   0  0  0  0  0  2  0  0  0  0  0  0
  188.5240  177.9910  141.8740 N   0  0  0  0  0  0  0  0  0  0  0  0
  192.0900  174.5910  145.6890 O   0  0  0  0  0  0  0  0  0  0  0  0
  190.9700  174.9950  145.9570 C   0  0  0  0  0  0  0  0  0  0  0  0
  188.1880  175.8470  146.6520 C   0  0  2  0  0  3  0  0  0  0  0  0
  192.4160  177.6190  144.3500 C   0  0  0  0  0  2  0  0  0  0  0  0
  195.5220  174.9910  142.9690 C   0  0  0  0  0  3  0  0  0  0  0  0
  193.5040  176.7120  143.8640 C   0  0  0  0  0  0  0  0  0  0  0  0
  194.6720  176.5480  144.6180 C   0  0  0  0  0  3  0  0  0  0  0  0
  195.6790  175.6880  144.1710 C   0  0  0  0  0  3  0  0  0  0  0  0
  194.3560  175.1530  142.2150 C   0  0  0  0  0  3  0  0  0  0  0  0
  193.3480  176.0120  142.6610 C   0  0  0  0  0  3  0  0  0  0  0  0
  1 21  1  1  0  0  0
  1 14  1  0  0  0  0
  2  6  1  6  0  0  0
  2  1  1  0  0  0  0
  2 15  1  0  0  0  0
  3 20  1  0  0  0  0
  3  9  1  1  0  0  0
  4 13  2  0  0  0  0
  4 12  1  0  0  0  0
  8 10  1  6  0  0  0
  8 16  1  0  0  0  0
 11 13  1  6  0  0  0
 11 15  1  0  0  0  0
 11  7  1  0  0  0  0
 12  5  1  1  0  0  0
 12  7  1  0  0  0  0
 14  3  1  0  0  0  0
 14 19  1  6  0  0  0
 15  3  1  0  0  0  0
 17  6  2  0  0  0  0
 17 13  1  0  0  0  0
 18 19  2  0  0  0  0
 19  8  1  0  0  0  0
 20  9  1  0  0  0  0
 20 16  1  0  0  0  0
 22 25  1  0  0  0  0
 23 21  1  0  0  0  0
 23 24  1  0  0  0  0
 25 24  2  0  0  0  0
 26 27  1  0  0  0  0
 26 22  2  0  0  0  0
 27 23  2  0  0  0  0
M  END
>  <MODEL>
5

>  <REMARK>
 VINA RESULT:      -7.4      3.188      4.617
  Name = 
  2 active torsions:
  status: ('A' for Active; 'I' for Inactive)
    1  A    between atoms: C_1  and  C_15
    2  A    between atoms: C_9  and  C_15
                            x       y       z     vdW  Elec       q    Type
                         _______ _______ _______ _____ _____    ______ ____

>  <TORSDO>
F 2

$$$$
=
 OpenBabel11052418313D

 27 32  0  0  1  0  0  0  0  0999 V2000
  191.1110  175.6950  146.0590 C   0  0  2  0  0  3  0  0  0  0  0  0
  192.2620  176.5040  145.4520 C   0  0  1  0  0  3  0  0  0  0  0  0
  191.3440  175.0720  143.7370 C   0  0  2  0  0  0  0  0  0  0  0  0
  196.0360  176.1360  143.8920 N   0  0  0  0  0  0  0  0  0  0  0  0
  196.4410  176.7910  141.5820 C   0  0  0  0  0  1  0  0  0  0  0  0
  193.4900  176.5980  146.3320 C   0  0  0  0  0  3  0  0  0  0  0  0
  194.3120  175.1240  142.0780 S   0  0  0  0  0  0  0  0  0  0  0  0
  190.1610  172.4950  144.2770 C   0  0  2  0  0  3  0  0  0  0  0  0
  190.7530  175.4020  142.3900 C   0  0  0  0  0  2  0  0  0  0  0  0
  191.3270  171.8160  144.6370 O   0  0  0  0  0  1  0  0  0  0  0  0
  193.7650  175.8460  143.6090 C   0  0  2  0  0  3  0  0  0  0  0  0
  196.0200  175.6660  142.5080 C   0  0  2  0  0  3  0  0  0  0  0  0
  194.8740  176.2690  144.4260 C   0  0  0  0  0  0  0  0  0  0  0  0
  190.3480  175.0390  144.8900 C   0  0  1  0  0  3  0  0  0  0  0  0
  192.5340  175.8570  144.1330 C   0  0  2  0  0  3  0  0  0  0  0  0
  190.2530  172.9880  142.8320 C   0  0  0  0  0  2  0  0  0  0  0  0
  194.6900  176.5390  145.8220 N   0  0  0  0  0  0  0  0  0  0  0  0
  189.3170  173.4150  146.2690 O   0  0  0  0  0  0  0  0  0  0  0  0
  189.9130  173.6330  145.2260 C   0  0  0  0  0  0  0  0  0  0  0  0
  191.3650  174.0190  142.6390 C   0  0  2  0  0  3  0  0  0  0  0  0
  190.2000  176.5500  146.9470 C   0  0  0  0  0  2  0  0  0  0  0  0
  186.4540  177.5060  145.0740 C   0  0  0  0  0  3  0  0  0  0  0  0
  188.8950  176.8940  146.2990 C   0  0  0  0  0  0  0  0  0  0  0  0
  188.8740  177.6100  145.0970 C   0  0  0  0  0  3  0  0  0  0  0  0
  187.6540  177.9160  144.4850 C   0  0  0  0  0  3  0  0  0  0  0  0
  186.4730  176.7910  146.2750 C   0  0  0  0  0  3  0  0  0  0  0  0
  187.6920  176.4840  146.8870 C   0  0  0  0  0  3  0  0  0  0  0  0
  1 21  1  6  0  0  0
  2  1  1  0  0  0  0
  2  6  1  1  0  0  0
  3  9  1  6  0  0  0
  3 15  1  0  0  0  0
  3 14  1  0  0  0  0
  4 13  2  0  0  0  0
  7 12  1  0  0  0  0
  8 10  1  1  0  0  0
  8 19  1  0  0  0  0
  9 20  1  0  0  0  0
 11  7  1  1  0  0  0
 11 15  1  0  0  0  0
 11 13  1  0  0  0  0
 12  5  1  6  0  0  0
 12  4  1  0  0  0  0
 13 17  1  0  0  0  0
 14 19  1  1  0  0  0
 14  1  1  0  0  0  0
 15  2  1  0  0  0  0
 16  8  1  0  0  0  0
 17  6  2  0  0  0  0
 19 18  2  0  0  0  0
 20 16  1  0  0  0  0
 20  3  1  0  0  0  0
 22 26  1  0  0  0  0
 23 27  1  0  0  0  0
 23 21  1  0  0  0  0
 24 23  2  0  0  0  0
 25 22  2  0  0  0  0
 25 24  1  0  0  0  0
 26 27  2  0  0  0  0
M  END
>  <MODEL>
6

>  <REMARK>
 VINA RESULT:      -7.4      3.308      5.618
  Name = 
  2 active torsions:
  status: ('A' for Active; 'I' for Inactive)
    1  A    between atoms: C_1  and  C_15
    2  A    between atoms: C_9  and  C_15
                            x       y       z     vdW  Elec       q    Type
                         _______ _______ _______ _____ _____    ______ ____

>  <TORSDO>
F 2

$$$$
=
 OpenBabel11052418313D

 27 32  0  0  1  0  0  0  0  0999 V2000
  189.6840  176.1960  142.9850 C   0  0  2  0  0  3  0  0  0  0  0  0
  191.1090  176.4940  143.4650 C   0  0  1  0  0  3  0  0  0  0  0  0
  191.1230  174.3910  142.2770 C   0  0  2  0  0  0  0  0  0  0  0  0
  194.0200  175.1850  146.0380 N   0  0  0  0  0  0  0  0  0  0  0  0
  196.1600  174.4450  145.1420 C   0  0  0  0  0  1  0  0  0  0  0  0
  191.1930  177.0100  144.8860 C   0  0  0  0  0  3  0  0  0  0  0  0
  193.8790  173.4090  144.0100 S   0  0  0  0  0  0  0  0  0  0  0  0
  188.8750  172.5820  142.2080 C   0  0  2  0  0  3  0  0  0  0  0  0
  191.9070  173.9470  141.0680 C   0  0  0  0  0  2  0  0  0  0  0  0
  188.9140  172.1700  143.5410 O   0  0  0  0  0  1  0  0  0  0  0  0
  192.8710  174.8740  144.0620 C   0  0  2  0  0  3  0  0  0  0  0  0
  194.7480  174.0330  145.5120 C   0  0  2  0  0  3  0  0  0  0  0  0
  193.0960  175.6340  145.2650 C   0  0  0  0  0  0  0  0  0  0  0  0
  189.7750  175.0350  141.9740 C   0  0  1  0  0  3  0  0  0  0  0  0
  191.8590  175.2180  143.2580 C   0  0  2  0  0  3  0  0  0  0  0  0
  190.1680  172.1950  141.4890 C   0  0  0  0  0  2  0  0  0  0  0  0
  192.1560  176.6340  145.6820 N   0  0  0  0  0  0  0  0  0  0  0  0
  187.4840  174.4780  142.1670 O   0  0  0  0  0  0  0  0  0  0  0  0
  188.6310  174.0630  142.1330 C   0  0  0  0  0  0  0  0  0  0  0  0
  191.3900  172.9070  142.0680 C   0  0  2  0  0  3  0  0  0  0  0  0
  188.9950  177.4320  142.3960 C   0  0  0  0  0  2  0  0  0  0  0  0
  185.5930  178.7170  144.6840 C   0  0  0  0  0  3  0  0  0  0  0  0
  187.8150  177.8900  143.1960 C   0  0  0  0  0  0  0  0  0  0  0  0
  186.8020  178.6400  142.5870 C   0  0  0  0  0  3  0  0  0  0  0  0
  185.6920  179.0530  143.3300 C   0  0  0  0  0  3  0  0  0  0  0  0
  186.6040  177.9670  145.2930 C   0  0  0  0  0  3  0  0  0  0  0  0
  187.7130  177.5540  144.5510 C   0  0  0  0  0  3  0  0  0  0  0  0
  1 21  1  6  0  0  0
  1  2  1  0  0  0  0
  2  6  1  1  0  0  0
  3  9  1  6  0  0  0
  3 15  1  0  0  0  0
  6 17  2  0  0  0  0
  7 12  1  0  0  0  0
  8 10  1  1  0  0  0
  9 20  1  0  0  0  0
 11  7  1  1  0  0  0
 11 13  1  0  0  0  0
 12  5  1  6  0  0  0
 12  4  1  0  0  0  0
 13 17  1  0  0  0  0
 13  4  2  0  0  0  0
 14 19  1  1  0  0  0
 14  3  1  0  0  0  0
 14  1  1  0  0  0  0
 15  2  1  0  0  0  0
 15 11  1  0  0  0  0
 16 20  1  0  0  0  0
 16  8  1  0  0  0  0
 19 18  2  0  0  0  0
 19  8  1  0  0  0  0
 20  3  1  0  0  0  0
 21 23  1  0  0  0  0
 22 26  1  0  0  0  0
 23 27  1  0  0  0  0
 24 23  2  0  0  0  0
 24 25  1  0  0  0  0
 25 22  2  0  0  0  0
 27 26  2  0  0  0  0
M  END
>  <MODEL>
7

>  <REMARK>
 VINA RESULT:      -7.3      3.045      6.170
  Name = 
  2 active torsions:
  status: ('A' for Active; 'I' for Inactive)
    1  A    between atoms: C_1  and  C_15
    2  A    between atoms: C_9  and  C_15
                            x       y       z     vdW  Elec       q    Type
                         _______ _______ _______ _____ _____    ______ ____

>  <TORSDO>
F 2

$$$$
=
 OpenBabel11052418313D

 27 32  0  0  1  0  0  0  0  0999 V2000
  190.9250  174.8420  145.1110 C   0  0  2  0  0  3  0  0  0  0  0  0
  191.0540  173.9260  143.8890 C   0  0  1  0  0  3  0  0  0  0  0  0
  193.2080  174.0700  144.9720 C   0  0  2  0  0  0  0  0  0  0  0  0
  192.8090  173.6550  140.1930 N   0  0  0  0  0  0  0  0  0  0  0  0
  194.3830  171.8510  139.7490 C   0  0  0  0  0  1  0  0  0  0  0  0
  190.3580  174.4410  142.6470 C   0  0  0  0  0  3  0  0  0  0  0  0
  194.7560  173.3320  142.0350 S   0  0  0  0  0  0  0  0  0  0  0  0
  194.1180  176.4010  146.4110 C   0  0  2  0  0  3  0  0  0  0  0  0
  194.0990  172.9950  145.5410 C   0  0  0  0  0  2  0  0  0  0  0  0
  194.2780  177.2550  145.3190 O   0  0  0  0  0  1  0  0  0  0  0  0
  193.0490  173.5540  142.4850 C   0  0  2  0  0  3  0  0  0  0  0  0
  194.2150  173.2630  140.2740 C   0  0  2  0  0  3  0  0  0  0  0  0
  192.2140  173.7520  141.3290 C   0  0  0  0  0  0  0  0  0  0  0  0
  192.2050  174.6650  145.9530 C   0  0  1  0  0  3  0  0  0  0  0  0
  192.5250  173.7410  143.7020 C   0  0  2  0  0  3  0  0  0  0  0  0
  195.0450  175.1910  146.2850 C   0  0  0  0  0  2  0  0  0  0  0  0
  190.8950  174.2990  141.4670 N   0  0  0  0  0  0  0  0  0  0  0  0
  191.8990  176.6940  147.1310 O   0  0  0  0  0  0  0  0  0  0  0  0
  192.6810  175.9770  146.5280 C   0  0  0  0  0  0  0  0  0  0  0  0
  194.7060  174.3230  145.0740 C   0  0  2  0  0  3  0  0  0  0  0  0
  189.6510  174.5640  145.9170 C   0  0  0  0  0  2  0  0  0  0  0  0
  186.9190  177.8790  145.9470 C   0  0  0  0  0  3  0  0  0  0  0  0
  188.6910  175.7120  145.9230 C   0  0  0  0  0  0  0  0  0  0  0  0
  187.8270  175.9000  147.0080 C   0  0  0  0  0  3  0  0  0  0  0  0
  186.9420  176.9830  147.0200 C   0  0  0  0  0  3  0  0  0  0  0  0
  187.7810  177.6930  144.8620 C   0  0  0  0  0  3  0  0  0  0  0  0
  188.6660  176.6110  144.8490 C   0  0  0  0  0  3  0  0  0  0  0  0
  1 21  1  1  0  0  0
  1 14  1  0  0  0  0
  2  6  1  6  0  0  0
  2  1  1  0  0  0  0
  3 20  1  0  0  0  0
  3  9  1  1  0  0  0
  3 14  1  0  0  0  0
  4 12  1  0  0  0  0
  4 13  2  0  0  0  0
  7 11  1  0  0  0  0
  8 10  1  6  0  0  0
  8 19  1  0  0  0  0
 11 13  1  6  0  0  0
 11 15  1  0  0  0  0
 12  5  1  1  0  0  0
 12  7  1  0  0  0  0
 13 17  1  0  0  0  0
 14 19  1  6  0  0  0
 15  2  1  0  0  0  0
 15  3  1  0  0  0  0
 16  8  1  0  0  0  0
 17  6  2  0  0  0  0
 19 18  2  0  0  0  0
 20  9  1  0  0  0  0
 20 16  1  0  0  0  0
 21 23  1  0  0  0  0
 22 25  1  0  0  0  0
 23 24  1  0  0  0  0
 24 25  2  0  0  0  0
 26 22  2  0  0  0  0
 27 26  1  0  0  0  0
 27 23  2  0  0  0  0
M  END
>  <MODEL>
8

>  <REMARK>
 VINA RESULT:      -7.1      2.969      5.387
  Name = 
  2 active torsions:
  status: ('A' for Active; 'I' for Inactive)
    1  A    between atoms: C_1  and  C_15
    2  A    between atoms: C_9  and  C_15
                            x       y       z     vdW  Elec       q    Type
                         _______ _______ _______ _____ _____    ______ ____

>  <TORSDO>
F 2

$$$$
=
 OpenBabel11052418313D

 27 32  0  0  1  0  0  0  0  0999 V2000
  190.6190  174.2070  145.1690 C   0  0  2  0  0  3  0  0  0  0  0  0
  190.4010  172.7620  144.7060 C   0  0  1  0  0  3  0  0  0  0  0  0
  192.7770  173.1800  144.8210 C   0  0  2  0  0  0  0  0  0  0  0  0
  190.8860  170.2640  141.4910 N   0  0  0  0  0  0  0  0  0  0  0  0
  192.3340  168.3180  141.7000 C   0  0  0  0  0  1  0  0  0  0  0  0
  189.3140  172.5990  143.6650 C   0  0  0  0  0  3  0  0  0  0  0  0
  193.3370  170.7440  142.5160 S   0  0  0  0  0  0  0  0  0  0  0  0
  193.9670  175.7670  144.3450 C   0  0  2  0  0  3  0  0  0  0  0  0
  193.8640  172.4860  145.6020 C   0  0  0  0  0  2  0  0  0  0  0  0
  193.7170  175.8480  142.9740 O   0  0  0  0  0  1  0  0  0  0  0  0
  191.8560  171.4090  143.2430 C   0  0  2  0  0  3  0  0  0  0  0  0
  192.2630  169.7930  141.3580 C   0  0  2  0  0  3  0  0  0  0  0  0
  190.6830  171.0510  142.4880 C   0  0  0  0  0  0  0  0  0  0  0  0
  192.1100  174.3480  145.5380 C   0  0  1  0  0  3  0  0  0  0  0  0
  191.7420  172.3040  144.2310 C   0  0  2  0  0  3  0  0  0  0  0  0
  194.8710  174.5740  144.6560 C   0  0  0  0  0  2  0  0  0  0  0  0
  189.4500  171.7590  142.6760 N   0  0  0  0  0  0  0  0  0  0  0  0
  192.0840  176.7100  145.3920 O   0  0  0  0  0  0  0  0  0  0  0  0
  192.6710  175.6800  145.1000 C   0  0  0  0  0  0  0  0  0  0  0  0
  194.2110  173.2390  144.3130 C   0  0  2  0  0  3  0  0  0  0  0  0
  189.6910  174.5960  146.3250 C   0  0  0  0  0  2  0  0  0  0  0  0
  186.8790  177.6740  145.2870 C   0  0  0  0  0  3  0  0  0  0  0  0
  188.7190  175.6770  145.9660 C   0  0  0  0  0  0  0  0  0  0  0  0
  188.7200  176.2230  144.6770 C   0  0  0  0  0  3  0  0  0  0  0  0
  187.8000  177.2200  144.3380 C   0  0  0  0  0  3  0  0  0  0  0  0
  186.8760  177.1290  146.5740 C   0  0  0  0  0  3  0  0  0  0  0  0
  187.7940  176.1320  146.9140 C   0  0  0  0  0  3  0  0  0  0  0  0
  1 14  1  0  0  0  0
  1 21  1  1  0  0  0
  2  6  1  6  0  0  0
  2  1  1  0  0  0  0
  3 14  1  0  0  0  0
  3  9  1  1  0  0  0
  4 13  2  0  0  0  0
  7 11  1  0  0  0  0
  8 10  1  6  0  0  0
  8 16  1  0  0  0  0
  8 19  1  0  0  0  0
 11 13  1  6  0  0  0
 11 15  1  0  0  0  0
 12  4  1  0  0  0  0
 12  5  1  1  0  0  0
 12  7  1  0  0  0  0
 13 17  1  0  0  0  0
 14 19  1  6  0  0  0
 15  2  1  0  0  0  0
 15  3  1  0  0  0  0
 17  6  2  0  0  0  0
 19 18  2  0  0  0  0
 20 16  1  0  0  0  0
 20  3  1  0  0  0  0
 20  9  1  0  0  0  0
 22 26  1  0  0  0  0
 23 21  1  0  0  0  0
 23 27  1  0  0  0  0
 24 23  2  0  0  0  0
 25 24  1  0  0  0  0
 25 22  2  0  0  0  0
 26 27  2  0  0  0  0
M  END
>  <MODEL>
9

>  <REMARK>
 VINA RESULT:      -7.1      2.978      5.352
  Name = 
  2 active torsions:
  status: ('A' for Active; 'I' for Inactive)
    1  A    between atoms: C_1  and  C_15
    2  A    between atoms: C_9  and  C_15
                            x       y       z     vdW  Elec       q    Type
                         _______ _______ _______ _____ _____    ______ ____

>  <TORSDO>
F 2

$$$$
