=
 OpenBabel11052417193D

 30 33  0  0  1  0  0  0  0  0999 V2000
  188.0050  178.2230  145.3660 C   0  0  0  0  0  2  0  0  0  0  0  0
  185.9390  178.3240  146.8250 C   0  0  0  0  0  0  0  0  0  0  0  0
  185.5650  178.1740  141.8230 C   0  0  0  0  0  3  0  0  0  0  0  0
  188.5810  177.5480  144.1090 C   0  0  2  0  0  3  0  0  0  0  0  0
  186.1190  177.8770  140.5760 C   0  0  0  0  0  3  0  0  0  0  0  0
  184.6560  178.7120  146.9270 C   0  0  0  0  0  3  0  0  0  0  0  0
  186.8260  178.0020  148.3090 Cl  0  0  0  0  0  0  0  0  0  0  0  0
  186.3340  178.0600  142.9920 C   0  0  0  0  0  0  0  0  0  0  0  0
  183.7800  178.9670  145.7230 C   0  0  0  0  0  2  0  0  0  0  0  0
  186.5200  177.9090  145.4930 C   0  0  1  0  0  3  0  0  0  0  0  0
  187.6950  177.6820  142.8890 C   0  0  0  0  0  0  0  0  0  0  0  0
  187.4560  177.4910  140.4800 C   0  0  0  0  0  3  0  0  0  0  0  0
  188.2410  177.3990  141.6310 C   0  0  0  0  0  3  0  0  0  0  0  0
  184.2790  178.2310  144.4800 C   0  0  0  0  0  2  0  0  0  0  0  0
  185.7670  178.5240  144.3120 C   0  0  2  0  0  3  0  0  0  0  0  0
  189.0470  176.0950  144.3330 C   0  0  2  0  0  3  0  0  0  0  0  0
  191.4220  175.2380  147.2020 C   0  0  0  0  0  3  0  0  0  0  0  0
  188.9710  174.8880  147.0430 C   0  0  0  0  0  1  0  0  0  0  0  0
  190.3060  175.9200  145.1520 C   0  0  0  0  0  0  0  0  0  0  0  0
  191.5490  176.3270  144.6380 C   0  0  0  0  0  3  0  0  0  0  0  0
  190.2520  175.3660  146.4480 C   0  0  0  0  0  0  0  0  0  0  0  0
  192.6490  175.6540  146.6810 C   0  0  0  0  0  3  0  0  0  0  0  0
  192.7120  176.1960  145.3970 C   0  0  0  0  0  3  0  0  0  0  0  0
  189.0010  175.2570  143.0840 C   0  0  0  0  0  3  0  0  0  0  0  0
  189.2410  173.9430  143.0960 C   0  0  0  0  0  3  0  0  0  0  0  0
  189.1880  173.1490  141.8360 C   0  0  0  0  0  2  0  0  0  0  0  0
  188.9020  174.0240  140.7090 N   0  0  0  0  0  2  0  0  0  0  0  0
  188.1800  172.2910  139.3190 O   0  0  0  0  0  0  0  0  0  0  0  0
  188.3960  173.5230  139.4720 C   0  0  0  0  0  0  0  0  0  0  0  0
  188.1230  174.4620  138.3550 C   0  0  0  0  0  1  0  0  0  0  0  0
  2  6  2  0  0  0  0
  2  7  1  0  0  0  0
  3  8  1  0  0  0  0
  4 16  1  1  0  0  0
  4  1  1  0  0  0  0
  5  3  2  0  0  0  0
  8 15  1  0  0  0  0
  9  6  1  0  0  0  0
 10  1  1  1  0  0  0
 10  2  1  0  0  0  0
 11  8  2  0  0  0  0
 11  4  1  0  0  0  0
 12  5  1  0  0  0  0
 12 13  2  0  0  0  0
 13 11  1  0  0  0  0
 14  9  1  0  0  0  0
 15 14  1  1  0  0  0
 15 10  1  0  0  0  0
 16 24  1  6  0  0  0
 16 19  1  0  0  0  0
 19 21  1  0  0  0  0
 20 19  2  0  0  0  0
 20 23  1  0  0  0  0
 21 18  1  0  0  0  0
 21 17  2  0  0  0  0
 22 17  1  0  0  0  0
 23 22  2  0  0  0  0
 24 25  2  0  0  0  0
 26 25  1  0  0  0  0
 27 26  1  0  0  0  0
 28 29  2  0  0  0  0
 29 27  1  0  0  0  0
 30 29  1  0  0  0  0
M  END
>  <MODEL>
1

>  <REMARK>
 VINA RESULT:      -8.1      0.000      0.000
  Name = 
  5 active torsions:
  status: ('A' for Active; 'I' for Inactive)
    1  A    between atoms: C_4  and  C_13
    2  A    between atoms: N_7  and  C_16
    3  A    between atoms: C_8  and  C_13
    4  A    between atoms: C_13  and  C_27
    5  A    between atoms: C_16  and  C_30
                            x       y       z     vdW  Elec       q    Type
                         _______ _______ _______ _____ _____    ______ ____

>  <TORSDO>
F 5

$$$$
=
 OpenBabel11052417193D

 30 33  0  0  1  0  0  0  0  0999 V2000
  185.9670  176.3130  143.6390 C   0  0  0  0  0  2  0  0  0  0  0  0
  184.8280  178.2770  144.7590 C   0  0  0  0  0  0  0  0  0  0  0  0
  188.5850  175.8350  147.0180 C   0  0  0  0  0  3  0  0  0  0  0  0
  187.3460  175.6790  143.3920 C   0  0  2  0  0  3  0  0  0  0  0  0
  189.7000  174.9960  146.9480 C   0  0  0  0  0  3  0  0  0  0  0  0
  184.4870  178.8630  145.9200 C   0  0  0  0  0  3  0  0  0  0  0  0
  183.9660  178.7590  143.3040 Cl  0  0  0  0  0  0  0  0  0  0  0  0
  187.8100  176.0910  145.8770 C   0  0  0  0  0  0  0  0  0  0  0  0
  185.1920  178.5680  147.2230 C   0  0  0  0  0  2  0  0  0  0  0  0
  186.0860  177.4450  144.6500 C   0  0  1  0  0  3  0  0  0  0  0  0
  188.1450  175.4520  144.6570 C   0  0  0  0  0  0  0  0  0  0  0  0
  190.0350  174.3800  145.7420 C   0  0  0  0  0  3  0  0  0  0  0  0
  189.2580  174.6040  144.6040 C   0  0  0  0  0  3  0  0  0  0  0  0
  186.6030  178.0230  147.0060 C   0  0  0  0  0  2  0  0  0  0  0  0
  186.5280  176.8790  146.0000 C   0  0  2  0  0  3  0  0  0  0  0  0
  188.1750  176.3830  142.2990 C   0  0  2  0  0  3  0  0  0  0  0  0
  187.0910  175.9340  138.6610 C   0  0  0  0  0  3  0  0  0  0  0  0
  186.5240  177.7540  140.2500 C   0  0  0  0  0  1  0  0  0  0  0  0
  188.0370  175.8270  140.8990 C   0  0  0  0  0  0  0  0  0  0  0  0
  188.6980  174.6410  140.5390 C   0  0  0  0  0  3  0  0  0  0  0  0
  187.2300  176.4780  139.9420 C   0  0  0  0  0  0  0  0  0  0  0  0
  187.7480  174.7510  138.3190 C   0  0  0  0  0  3  0  0  0  0  0  0
  188.5540  174.1060  139.2580 C   0  0  0  0  0  3  0  0  0  0  0  0
  189.5940  176.6610  142.7150 C   0  0  0  0  0  3  0  0  0  0  0  0
  190.0460  177.8990  142.9320 C   0  0  0  0  0  3  0  0  0  0  0  0
  191.4600  178.1320  143.3410 C   0  0  0  0  0  2  0  0  0  0  0  0
  191.7420  177.4220  144.5800 N   0  0  0  0  0  2  0  0  0  0  0  0
  193.7370  176.4910  143.7990 O   0  0  0  0  0  0  0  0  0  0  0  0
  192.9070  176.6140  144.7400 C   0  0  0  0  0  0  0  0  0  0  0  0
  193.1440  175.9120  146.0270 C   0  0  0  0  0  1  0  0  0  0  0  0
  2  6  2  0  0  0  0
  4 16  1  6  0  0  0
  4  1  1  0  0  0  0
  4 11  1  0  0  0  0
  5  3  1  0  0  0  0
  6  9  1  0  0  0  0
  7  2  1  0  0  0  0
  8 15  1  0  0  0  0
  8  3  2  0  0  0  0
 10  1  1  6  0  0  0
 10  2  1  0  0  0  0
 10 15  1  0  0  0  0
 11  8  1  0  0  0  0
 12  5  2  0  0  0  0
 13 11  2  0  0  0  0
 13 12  1  0  0  0  0
 14  9  1  0  0  0  0
 15 14  1  1  0  0  0
 16 24  1  1  0  0  0
 17 21  1  0  0  0  0
 19 16  1  0  0  0  0
 20 19  1  0  0  0  0
 21 18  1  0  0  0  0
 21 19  2  0  0  0  0
 22 17  2  0  0  0  0
 22 23  1  0  0  0  0
 23 20  2  0  0  0  0
 24 25  2  0  0  0  0
 25 26  1  0  0  0  0
 26 27  1  0  0  0  0
 27 29  1  0  0  0  0
 28 29  2  0  0  0  0
 29 30  1  0  0  0  0
M  END
>  <MODEL>
2

>  <REMARK>
 VINA RESULT:      -8.0      2.474      5.719
  Name = 
  5 active torsions:
  status: ('A' for Active; 'I' for Inactive)
    1  A    between atoms: C_4  and  C_13
    2  A    between atoms: N_7  and  C_16
    3  A    between atoms: C_8  and  C_13
    4  A    between atoms: C_13  and  C_27
    5  A    between atoms: C_16  and  C_30
                            x       y       z     vdW  Elec       q    Type
                         _______ _______ _______ _____ _____    ______ ____

>  <TORSDO>
F 5

$$$$
=
 OpenBabel11052417193D

 30 33  0  0  1  0  0  0  0  0999 V2000
  191.3140  176.3280  142.8920 C   0  0  0  0  0  2  0  0  0  0  0  0
  193.2460  174.7670  142.4050 C   0  0  0  0  0  0  0  0  0  0  0  0
  192.2880  176.3130  147.0820 C   0  0  0  0  0  3  0  0  0  0  0  0
  190.1740  176.5860  143.8930 C   0  0  2  0  0  3  0  0  0  0  0  0
  191.4040  176.8440  148.0250 C   0  0  0  0  0  3  0  0  0  0  0  0
  194.4670  174.3440  142.7760 C   0  0  0  0  0  3  0  0  0  0  0  0
  192.7230  174.4400  140.7590 Cl  0  0  0  0  0  0  0  0  0  0  0  0
  191.9120  176.2000  145.7350 C   0  0  0  0  0  0  0  0  0  0  0  0
  195.0040  174.5210  144.1770 C   0  0  0  0  0  2  0  0  0  0  0  0
  192.2490  175.2540  143.4320 C   0  0  1  0  0  3  0  0  0  0  0  0
  190.6380  176.6720  145.3310 C   0  0  0  0  0  0  0  0  0  0  0  0
  190.1460  177.2950  147.6260 C   0  0  0  0  0  3  0  0  0  0  0  0
  189.7680  177.2140  146.2840 C   0  0  0  0  0  3  0  0  0  0  0  0
  193.8870  174.6870  145.2060 C   0  0  0  0  0  2  0  0  0  0  0  0
  192.9260  175.7620  144.7060 C   0  0  2  0  0  3  0  0  0  0  0  0
  188.9650  175.6430  143.7270 C   0  0  2  0  0  3  0  0  0  0  0  0
  189.8940  172.0220  142.9300 C   0  0  0  0  0  3  0  0  0  0  0  0
  189.7800  173.1590  145.1320 C   0  0  0  0  0  1  0  0  0  0  0  0
  189.2240  174.3590  142.9700 C   0  0  0  0  0  0  0  0  0  0  0  0
  189.0770  174.3180  141.5740 C   0  0  0  0  0  3  0  0  0  0  0  0
  189.6330  173.1920  143.6490 C   0  0  0  0  0  0  0  0  0  0  0  0
  189.7510  171.9980  141.5410 C   0  0  0  0  0  3  0  0  0  0  0  0
  189.3390  173.1460  140.8640 C   0  0  0  0  0  3  0  0  0  0  0  0
  187.7050  176.3570  143.3200 C   0  0  0  0  0  3  0  0  0  0  0  0
  187.7150  177.5950  142.8190 C   0  0  0  0  0  3  0  0  0  0  0  0
  186.4430  178.2680  142.4300 C   0  0  0  0  0  2  0  0  0  0  0  0
  185.4410  178.0750  143.4680 N   0  0  0  0  0  2  0  0  0  0  0  0
  185.5500  180.2800  144.2300 O   0  0  0  0  0  0  0  0  0  0  0  0
  185.0410  179.1330  144.3380 C   0  0  0  0  0  0  0  0  0  0  0  0
  184.0140  178.8790  145.3800 C   0  0  0  0  0  1  0  0  0  0  0  0
  1  4  1  0  0  0  0
  2  6  2  0  0  0  0
  2 10  1  0  0  0  0
  3  5  1  0  0  0  0
  4 16  1  1  0  0  0
  4 11  1  0  0  0  0
  6  9  1  0  0  0  0
  7  2  1  0  0  0  0
  8  3  2  0  0  0  0
  9 14  1  0  0  0  0
 10  1  1  6  0  0  0
 10 15  1  0  0  0  0
 11  8  1  0  0  0  0
 11 13  2  0  0  0  0
 12  5  2  0  0  0  0
 13 12  1  0  0  0  0
 15 14  1  1  0  0  0
 15  8  1  0  0  0  0
 16 24  1  6  0  0  0
 17 21  1  0  0  0  0
 19 21  2  0  0  0  0
 19 16  1  0  0  0  0
 20 19  1  0  0  0  0
 21 18  1  0  0  0  0
 22 17  2  0  0  0  0
 23 22  1  0  0  0  0
 23 20  2  0  0  0  0
 25 24  2  0  0  0  0
 26 25  1  0  0  0  0
 26 27  1  0  0  0  0
 27 29  1  0  0  0  0
 28 29  2  0  0  0  0
 29 30  1  0  0  0  0
M  END
>  <MODEL>
3

>  <REMARK>
 VINA RESULT:      -7.9      3.225      7.093
  Name = 
  5 active torsions:
  status: ('A' for Active; 'I' for Inactive)
    1  A    between atoms: C_4  and  C_13
    2  A    between atoms: N_7  and  C_16
    3  A    between atoms: C_8  and  C_13
    4  A    between atoms: C_13  and  C_27
    5  A    between atoms: C_16  and  C_30
                            x       y       z     vdW  Elec       q    Type
                         _______ _______ _______ _____ _____    ______ ____

>  <TORSDO>
F 5

$$$$
=
 OpenBabel11052417193D

 30 33  0  0  1  0  0  0  0  0999 V2000
  189.7860  174.2840  144.5820 C   0  0  0  0  0  2  0  0  0  0  0  0
  191.6970  173.0290  143.4930 C   0  0  0  0  0  0  0  0  0  0  0  0
  188.1910  175.3120  140.7210 C   0  0  0  0  0  3  0  0  0  0  0  0
  188.9500  175.5700  144.4720 C   0  0  2  0  0  3  0  0  0  0  0  0
  187.1770  176.2640  140.5960 C   0  0  0  0  0  3  0  0  0  0  0  0
  192.1150  172.3320  142.4230 C   0  0  0  0  0  3  0  0  0  0  0  0
  192.5970  172.8600  144.9940 Cl  0  0  0  0  0  0  0  0  0  0  0  0
  188.7990  175.0750  141.9640 C   0  0  0  0  0  0  0  0  0  0  0  0
  191.4530  172.4370  141.0690 C   0  0  0  0  0  2  0  0  0  0  0  0
  190.6680  174.1280  143.3500 C   0  0  1  0  0  3  0  0  0  0  0  0
  188.3420  175.7840  143.1030 C   0  0  0  0  0  0  0  0  0  0  0  0
  186.7400  176.9700  141.7170 C   0  0  0  0  0  3  0  0  0  0  0  0
  187.3170  176.7270  142.9640 C   0  0  0  0  0  3  0  0  0  0  0  0
  190.6910  173.7500  140.8990 C   0  0  0  0  0  2  0  0  0  0  0  0
  189.7880  173.9440  142.1130 C   0  0  2  0  0  3  0  0  0  0  0  0
  189.6660  176.8330  144.9940 C   0  0  2  0  0  3  0  0  0  0  0  0
  193.4860  176.7470  144.8890 C   0  0  0  0  0  3  0  0  0  0  0  0
  191.8890  177.4790  143.1370 C   0  0  0  0  0  1  0  0  0  0  0  0
  191.1110  176.6550  145.4040 C   0  0  0  0  0  0  0  0  0  0  0  0
  191.4300  176.1790  146.6860 C   0  0  0  0  0  3  0  0  0  0  0  0
  192.1570  176.9450  144.5020 C   0  0  0  0  0  0  0  0  0  0  0  0
  193.7880  176.2670  146.1640 C   0  0  0  0  0  3  0  0  0  0  0  0
  192.7600  175.9850  147.0640 C   0  0  0  0  0  3  0  0  0  0  0  0
  188.8400  177.6240  145.9700 C   0  0  0  0  0  3  0  0  0  0  0  0
  187.8290  177.0840  146.6560 C   0  0  0  0  0  3  0  0  0  0  0  0
  187.0340  177.9040  147.6130 C   0  0  0  0  0  2  0  0  0  0  0  0
  186.0260  178.6680  146.8930 N   0  0  0  0  0  2  0  0  0  0  0  0
  184.6620  176.8170  146.4830 O   0  0  0  0  0  0  0  0  0  0  0  0
  184.8570  178.0540  146.3520 C   0  0  0  0  0  0  0  0  0  0  0  0
  183.8610  178.8830  145.6260 C   0  0  0  0  0  1  0  0  0  0  0  0
  2  7  1  0  0  0  0
  3  8  1  0  0  0  0
  4  1  1  0  0  0  0
  4 16  1  6  0  0  0
  5  3  2  0  0  0  0
  5 12  1  0  0  0  0
  6  2  2  0  0  0  0
  8 15  1  0  0  0  0
  8 11  2  0  0  0  0
  9  6  1  0  0  0  0
 10  2  1  0  0  0  0
 10  1  1  1  0  0  0
 11  4  1  0  0  0  0
 12 13  2  0  0  0  0
 13 11  1  0  0  0  0
 14  9  1  0  0  0  0
 15 14  1  6  0  0  0
 15 10  1  0  0  0  0
 16 19  1  0  0  0  0
 16 24  1  1  0  0  0
 17 22  1  0  0  0  0
 18 21  1  0  0  0  0
 19 20  2  0  0  0  0
 20 23  1  0  0  0  0
 21 17  2  0  0  0  0
 21 19  1  0  0  0  0
 22 23  2  0  0  0  0
 24 25  2  0  0  0  0
 25 26  1  0  0  0  0
 27 26  1  0  0  0  0
 29 28  2  0  0  0  0
 29 27  1  0  0  0  0
 30 29  1  0  0  0  0
M  END
>  <MODEL>
4

>  <REMARK>
 VINA RESULT:      -7.9      3.085      6.028
  Name = 
  5 active torsions:
  status: ('A' for Active; 'I' for Inactive)
    1  A    between atoms: C_4  and  C_13
    2  A    between atoms: N_7  and  C_16
    3  A    between atoms: C_8  and  C_13
    4  A    between atoms: C_13  and  C_27
    5  A    between atoms: C_16  and  C_30
                            x       y       z     vdW  Elec       q    Type
                         _______ _______ _______ _____ _____    ______ ____

>  <TORSDO>
F 5

$$$$
=
 OpenBabel11052417193D

 30 33  0  0  1  0  0  0  0  0999 V2000
  186.9750  175.7220  142.5110 C   0  0  0  0  0  2  0  0  0  0  0  0
  185.9640  178.0430  142.5340 C   0  0  0  0  0  0  0  0  0  0  0  0
  188.3960  176.2430  146.5370 C   0  0  0  0  0  3  0  0  0  0  0  0
  188.2220  174.9290  142.9380 C   0  0  2  0  0  3  0  0  0  0  0  0
  189.3050  175.3420  147.0980 C   0  0  0  0  0  3  0  0  0  0  0  0
  185.4280  179.0250  143.2790 C   0  0  0  0  0  3  0  0  0  0  0  0
  185.6530  178.0540  140.8040 Cl  0  0  0  0  0  0  0  0  0  0  0  0
  188.0370  176.1460  145.1840 C   0  0  0  0  0  0  0  0  0  0  0  0
  185.6680  179.1480  144.7660 C   0  0  0  0  0  2  0  0  0  0  0  0
  187.0190  177.1230  143.1060 C   0  0  1  0  0  3  0  0  0  0  0  0
  188.5740  175.0940  144.4010 C   0  0  0  0  0  0  0  0  0  0  0  0
  189.8420  174.3170  146.3200 C   0  0  0  0  0  3  0  0  0  0  0  0
  189.4740  174.1910  144.9800 C   0  0  0  0  0  3  0  0  0  0  0  0
  186.9520  178.4460  145.2030 C   0  0  0  0  0  2  0  0  0  0  0  0
  186.9470  177.0310  144.6310 C   0  0  2  0  0  3  0  0  0  0  0  0
  189.4430  175.1320  142.0190 C   0  0  2  0  0  3  0  0  0  0  0  0
  189.7380  172.4660  139.2960 C   0  0  0  0  0  3  0  0  0  0  0  0
  188.2920  174.4810  139.3620 C   0  0  0  0  0  1  0  0  0  0  0  0
  189.8980  173.9180  141.2410 C   0  0  0  0  0  0  0  0  0  0  0  0
  190.8870  173.0690  141.7650 C   0  0  0  0  0  3  0  0  0  0  0  0
  189.3250  173.6080  139.9890 C   0  0  0  0  0  0  0  0  0  0  0  0
  190.7170  171.6280  139.8330 C   0  0  0  0  0  3  0  0  0  0  0  0
  191.2930  171.9320  141.0670 C   0  0  0  0  0  3  0  0  0  0  0  0
  190.5590  175.8990  142.6740 C   0  0  0  0  0  3  0  0  0  0  0  0
  190.5500  177.2310  142.7730 C   0  0  0  0  0  3  0  0  0  0  0  0
  191.6770  177.9530  143.4280 C   0  0  0  0  0  2  0  0  0  0  0  0
  191.8800  177.4400  144.7750 N   0  0  0  0  0  2  0  0  0  0  0  0
  193.9570  176.4890  144.2880 O   0  0  0  0  0  0  0  0  0  0  0  0
  193.0530  176.7110  145.1360 C   0  0  0  0  0  0  0  0  0  0  0  0
  193.2070  176.2100  146.5260 C   0  0  0  0  0  1  0  0  0  0  0  0
  1  4  1  0  0  0  0
  2 10  1  0  0  0  0
  2  6  2  0  0  0  0
  3  5  1  0  0  0  0
  4 16  1  6  0  0  0
  4 11  1  0  0  0  0
  6  9  1  0  0  0  0
  7  2  1  0  0  0  0
  8  3  2  0  0  0  0
  9 14  1  0  0  0  0
 10  1  1  6  0  0  0
 10 15  1  0  0  0  0
 11 13  2  0  0  0  0
 11  8  1  0  0  0  0
 12  5  2  0  0  0  0
 13 12  1  0  0  0  0
 15  8  1  0  0  0  0
 15 14  1  1  0  0  0
 16 24  1  1  0  0  0
 17 22  2  0  0  0  0
 17 21  1  0  0  0  0
 18 21  1  0  0  0  0
 19 20  1  0  0  0  0
 19 16  1  0  0  0  0
 21 19  2  0  0  0  0
 22 23  1  0  0  0  0
 23 20  2  0  0  0  0
 24 25  2  0  0  0  0
 25 26  1  0  0  0  0
 26 27  1  0  0  0  0
 27 29  1  0  0  0  0
 28 29  2  0  0  0  0
 29 30  1  0  0  0  0
M  END
>  <MODEL>
5

>  <REMARK>
 VINA RESULT:      -7.8      2.776      5.694
  Name = 
  5 active torsions:
  status: ('A' for Active; 'I' for Inactive)
    1  A    between atoms: C_4  and  C_13
    2  A    between atoms: N_7  and  C_16
    3  A    between atoms: C_8  and  C_13
    4  A    between atoms: C_13  and  C_27
    5  A    between atoms: C_16  and  C_30
                            x       y       z     vdW  Elec       q    Type
                         _______ _______ _______ _____ _____    ______ ____

>  <TORSDO>
F 5

$$$$
=
 OpenBabel11052417193D

 30 33  0  0  1  0  0  0  0  0999 V2000
  190.8450  173.6440  144.9000 C   0  0  0  0  0  2  0  0  0  0  0  0
  193.1060  172.7790  144.1600 C   0  0  0  0  0  0  0  0  0  0  0  0
  189.5910  174.0260  140.8030 C   0  0  0  0  0  3  0  0  0  0  0  0
  189.7740  174.6990  144.5750 C   0  0  2  0  0  3  0  0  0  0  0  0
  188.4220  174.7160  140.4730 C   0  0  0  0  0  3  0  0  0  0  0  0
  193.8020  172.1230  143.2150 C   0  0  0  0  0  3  0  0  0  0  0  0
  193.8160  172.9170  145.7630 Cl  0  0  0  0  0  0  0  0  0  0  0  0
  190.0660  174.0160  142.1230 C   0  0  0  0  0  0  0  0  0  0  0  0
  193.3170  171.9860  141.7910 C   0  0  0  0  0  2  0  0  0  0  0  0
  191.8940  173.6070  143.7970 C   0  0  1  0  0  3  0  0  0  0  0  0
  189.3210  174.6780  143.1310 C   0  0  0  0  0  0  0  0  0  0  0  0
  187.6990  175.3800  141.4650 C   0  0  0  0  0  3  0  0  0  0  0  0
  188.1450  175.3560  142.7870 C   0  0  0  0  0  3  0  0  0  0  0  0
  192.3210  173.0800  141.4110 C   0  0  0  0  0  2  0  0  0  0  0  0
  191.2450  173.1470  142.4910 C   0  0  2  0  0  3  0  0  0  0  0  0
  190.1280  176.1220  145.0530 C   0  0  2  0  0  3  0  0  0  0  0  0
  193.8560  176.9620  144.9490 C   0  0  0  0  0  3  0  0  0  0  0  0
  192.1690  177.1080  143.1370 C   0  0  0  0  0  1  0  0  0  0  0  0
  191.5630  176.3430  145.4750 C   0  0  0  0  0  0  0  0  0  0  0  0
  191.9600  176.0860  146.7980 C   0  0  0  0  0  3  0  0  0  0  0  0
  192.5270  176.7900  144.5480 C   0  0  0  0  0  0  0  0  0  0  0  0
  194.2370  176.6960  146.2660 C   0  0  0  0  0  3  0  0  0  0  0  0
  193.2870  176.2600  147.1910 C   0  0  0  0  0  3  0  0  0  0  0  0
  189.1100  176.7030  145.9950 C   0  0  0  0  0  3  0  0  0  0  0  0
  188.0080  176.0410  146.3550 C   0  0  0  0  0  3  0  0  0  0  0  0
  187.0220  176.6540  147.2900 C   0  0  0  0  0  2  0  0  0  0  0  0
  185.8120  177.0190  146.5690 N   0  0  0  0  0  2  0  0  0  0  0  0
  185.8880  179.2600  147.2220 O   0  0  0  0  0  0  0  0  0  0  0  0
  185.3000  178.3500  146.5790 C   0  0  0  0  0  0  0  0  0  0  0  0
  184.0600  178.6660  145.8240 C   0  0  0  0  0  1  0  0  0  0  0  0
  2  7  1  0  0  0  0
  3  8  1  0  0  0  0
  4  1  1  0  0  0  0
  4 16  1  6  0  0  0
  5  3  2  0  0  0  0
  5 12  1  0  0  0  0
  6  2  2  0  0  0  0
  8 15  1  0  0  0  0
  8 11  2  0  0  0  0
  9  6  1  0  0  0  0
 10  2  1  0  0  0  0
 10  1  1  1  0  0  0
 11  4  1  0  0  0  0
 12 13  2  0  0  0  0
 13 11  1  0  0  0  0
 14  9  1  0  0  0  0
 15 14  1  6  0  0  0
 15 10  1  0  0  0  0
 16 19  1  0  0  0  0
 16 24  1  1  0  0  0
 17 22  1  0  0  0  0
 18 21  1  0  0  0  0
 19 20  2  0  0  0  0
 20 23  1  0  0  0  0
 21 17  2  0  0  0  0
 21 19  1  0  0  0  0
 22 23  2  0  0  0  0
 24 25  2  0  0  0  0
 25 26  1  0  0  0  0
 27 29  1  0  0  0  0
 27 26  1  0  0  0  0
 29 28  2  0  0  0  0
 30 29  1  0  0  0  0
M  END
>  <MODEL>
6

>  <REMARK>
 VINA RESULT:      -7.7      3.506      6.607
  Name = 
  5 active torsions:
  status: ('A' for Active; 'I' for Inactive)
    1  A    between atoms: C_4  and  C_13
    2  A    between atoms: N_7  and  C_16
    3  A    between atoms: C_8  and  C_13
    4  A    between atoms: C_13  and  C_27
    5  A    between atoms: C_16  and  C_30
                            x       y       z     vdW  Elec       q    Type
                         _______ _______ _______ _____ _____    ______ ____

>  <TORSDO>
F 5

$$$$
=
 OpenBabel11052417193D

 30 33  0  0  1  0  0  0  0  0999 V2000
  189.6350  177.7870  144.6640 C   0  0  0  0  0  2  0  0  0  0  0  0
  188.6280  176.9020  146.8120 C   0  0  0  0  0  0  0  0  0  0  0  0
  185.8380  177.4270  142.6740 C   0  0  0  0  0  3  0  0  0  0  0  0
  189.6420  177.5750  143.1410 C   0  0  2  0  0  3  0  0  0  0  0  0
  185.7420  177.5530  141.2860 C   0  0  0  0  0  3  0  0  0  0  0  0
  187.5210  176.7800  147.5650 C   0  0  0  0  0  3  0  0  0  0  0  0
  190.1880  176.6890  147.5950 Cl  0  0  0  0  0  0  0  0  0  0  0  0
  187.0910  177.4130  143.3050 C   0  0  0  0  0  0  0  0  0  0  0  0
  186.1270  176.8900  146.9930 C   0  0  0  0  0  2  0  0  0  0  0  0
  188.5400  176.9430  145.3040 C   0  0  1  0  0  3  0  0  0  0  0  0
  188.2610  177.5740  142.5220 C   0  0  0  0  0  0  0  0  0  0  0  0
  186.8970  177.6960  140.5170 C   0  0  0  0  0  3  0  0  0  0  0  0
  188.1490  177.7110  141.1330 C   0  0  0  0  0  3  0  0  0  0  0  0
  186.0920  176.5920  145.4950 C   0  0  0  0  0  2  0  0  0  0  0  0
  187.1740  177.4240  144.8130 C   0  0  2  0  0  3  0  0  0  0  0  0
  190.4890  176.3730  142.6770 C   0  0  2  0  0  3  0  0  0  0  0  0
  188.9210  172.8910  142.8580 C   0  0  0  0  0  3  0  0  0  0  0  0
  189.0270  174.4610  140.9400 C   0  0  0  0  0  1  0  0  0  0  0  0
  190.0540  175.0180  143.1890 C   0  0  0  0  0  0  0  0  0  0  0  0
  190.3410  174.6340  144.5100 C   0  0  0  0  0  3  0  0  0  0  0  0
  189.3400  174.1290  142.3590 C   0  0  0  0  0  0  0  0  0  0  0  0
  189.2070  172.5260  144.1750 C   0  0  0  0  0  3  0  0  0  0  0  0
  189.9200  173.3970  145.0000 C   0  0  0  0  0  3  0  0  0  0  0  0
  191.9700  176.6190  142.7630 C   0  0  0  0  0  3  0  0  0  0  0  0
  192.8680  175.7640  142.2660 C   0  0  0  0  0  3  0  0  0  0  0  0
  194.3280  176.0450  142.3750 C   0  0  0  0  0  2  0  0  0  0  0  0
  194.9180  175.2110  143.4110 N   0  0  0  0  0  2  0  0  0  0  0  0
  194.7750  176.8560  145.0640 O   0  0  0  0  0  0  0  0  0  0  0  0
  195.1130  175.6850  144.7430 C   0  0  0  0  0  0  0  0  0  0  0  0
  195.7210  174.7900  145.7600 C   0  0  0  0  0  1  0  0  0  0  0  0
  2  6  2  0  0  0  0
  2  7  1  0  0  0  0
  3  8  1  0  0  0  0
  4 16  1  1  0  0  0
  4  1  1  0  0  0  0
  5  3  2  0  0  0  0
  8 15  1  0  0  0  0
  9  6  1  0  0  0  0
 10  1  1  1  0  0  0
 10  2  1  0  0  0  0
 11  4  1  0  0  0  0
 11  8  2  0  0  0  0
 12 13  2  0  0  0  0
 12  5  1  0  0  0  0
 13 11  1  0  0  0  0
 14  9  1  0  0  0  0
 15 10  1  0  0  0  0
 15 14  1  1  0  0  0
 16 24  1  1  0  0  0
 16 19  1  0  0  0  0
 17 22  1  0  0  0  0
 18 21  1  0  0  0  0
 19 20  2  0  0  0  0
 20 23  1  0  0  0  0
 21 17  2  0  0  0  0
 21 19  1  0  0  0  0
 22 23  2  0  0  0  0
 25 26  1  0  0  0  0
 25 24  2  0  0  0  0
 26 27  1  0  0  0  0
 27 29  1  0  0  0  0
 29 28  2  0  0  0  0
 29 30  1  0  0  0  0
M  END
>  <MODEL>
7

>  <REMARK>
 VINA RESULT:      -7.6      2.869      4.517
  Name = 
  5 active torsions:
  status: ('A' for Active; 'I' for Inactive)
    1  A    between atoms: C_4  and  C_13
    2  A    between atoms: N_7  and  C_16
    3  A    between atoms: C_8  and  C_13
    4  A    between atoms: C_13  and  C_27
    5  A    between atoms: C_16  and  C_30
                            x       y       z     vdW  Elec       q    Type
                         _______ _______ _______ _____ _____    ______ ____

>  <TORSDO>
F 5

$$$$
=
 OpenBabel11052417193D

 30 33  0  0  1  0  0  0  0  0999 V2000
  189.4260  177.8880  143.7070 C   0  0  0  0  0  2  0  0  0  0  0  0
  191.5370  176.5910  144.2270 C   0  0  0  0  0  0  0  0  0  0  0  0
  187.5410  176.3440  147.2520 C   0  0  0  0  0  3  0  0  0  0  0  0
  187.8920  177.7770  143.7120 C   0  0  2  0  0  3  0  0  0  0  0  0
  186.1700  176.5060  147.4630 C   0  0  0  0  0  3  0  0  0  0  0  0
  192.3150  176.0500  145.1810 C   0  0  0  0  0  3  0  0  0  0  0  0
  192.2510  176.8900  142.6480 Cl  0  0  0  0  0  0  0  0  0  0  0  0
  188.1280  176.7310  146.0380 C   0  0  0  0  0  0  0  0  0  0  0  0
  191.7990  175.7020  146.5570 C   0  0  0  0  0  2  0  0  0  0  0  0
  190.0390  176.6830  144.4070 C   0  0  1  0  0  3  0  0  0  0  0  0
  187.3200  177.3310  145.0400 C   0  0  0  0  0  0  0  0  0  0  0  0
  185.3750  177.0830  146.4730 C   0  0  0  0  0  3  0  0  0  0  0  0
  185.9490  177.4980  145.2700 C   0  0  0  0  0  3  0  0  0  0  0  0
  190.2850  175.4940  146.5700 C   0  0  0  0  0  2  0  0  0  0  0  0
  189.6290  176.6860  145.8810 C   0  0  2  0  0  3  0  0  0  0  0  0
  187.3160  176.9710  142.5300 C   0  0  2  0  0  3  0  0  0  0  0  0
  184.5850  178.1440  140.1260 C   0  0  0  0  0  3  0  0  0  0  0  0
  186.9040  177.4180  139.6260 C   0  0  0  0  0  1  0  0  0  0  0  0
  185.9860  177.4470  141.9880 C   0  0  0  0  0  0  0  0  0  0  0  0
  184.9100  177.6850  142.8580 C   0  0  0  0  0  3  0  0  0  0  0  0
  185.8120  177.6770  140.6070 C   0  0  0  0  0  0  0  0  0  0  0  0
  183.5260  178.3820  141.0040 C   0  0  0  0  0  3  0  0  0  0  0  0
  183.6880  178.1500  142.3700 C   0  0  0  0  0  3  0  0  0  0  0  0
  187.4060  175.4830  142.7250 C   0  0  0  0  0  3  0  0  0  0  0  0
  188.1200  174.6970  141.9150 C   0  0  0  0  0  3  0  0  0  0  0  0
  188.1820  173.2250  142.1420 C   0  0  0  0  0  2  0  0  0  0  0  0
  189.0230  172.9350  143.2940 N   0  0  0  0  0  2  0  0  0  0  0  0
  191.0180  173.0270  142.0810 O   0  0  0  0  0  0  0  0  0  0  0  0
  190.4440  172.8500  143.1890 C   0  0  0  0  0  0  0  0  0  0  0  0
  191.2530  172.5510  144.3970 C   0  0  0  0  0  1  0  0  0  0  0  0
  1  4  1  0  0  0  0
  2 10  1  0  0  0  0
  2  6  2  0  0  0  0
  3  5  1  0  0  0  0
  4 16  1  6  0  0  0
  4 11  1  0  0  0  0
  6  9  1  0  0  0  0
  7  2  1  0  0  0  0
  8  3  2  0  0  0  0
  9 14  1  0  0  0  0
 10  1  1  1  0  0  0
 10 15  1  0  0  0  0
 11 13  2  0  0  0  0
 11  8  1  0  0  0  0
 12  5  2  0  0  0  0
 13 12  1  0  0  0  0
 15  8  1  0  0  0  0
 15 14  1  6  0  0  0
 16 24  1  1  0  0  0
 17 21  2  0  0  0  0
 17 22  1  0  0  0  0
 18 21  1  0  0  0  0
 19 16  1  0  0  0  0
 19 20  2  0  0  0  0
 21 19  1  0  0  0  0
 22 23  2  0  0  0  0
 23 20  1  0  0  0  0
 25 26  1  0  0  0  0
 25 24  2  0  0  0  0
 26 27  1  0  0  0  0
 28 29  2  0  0  0  0
 29 27  1  0  0  0  0
 29 30  1  0  0  0  0
M  END
>  <MODEL>
8

>  <REMARK>
 VINA RESULT:      -7.6      2.197      6.153
  Name = 
  5 active torsions:
  status: ('A' for Active; 'I' for Inactive)
    1  A    between atoms: C_4  and  C_13
    2  A    between atoms: N_7  and  C_16
    3  A    between atoms: C_8  and  C_13
    4  A    between atoms: C_13  and  C_27
    5  A    between atoms: C_16  and  C_30
                            x       y       z     vdW  Elec       q    Type
                         _______ _______ _______ _____ _____    ______ ____

>  <TORSDO>
F 5

$$$$
=
 OpenBabel11052417193D

 30 33  0  0  1  0  0  0  0  0999 V2000
  188.9910  177.9150  144.6250 C   0  0  0  0  0  2  0  0  0  0  0  0
  187.7760  177.9010  146.8460 C   0  0  0  0  0  0  0  0  0  0  0  0
  185.2470  178.1160  142.5180 C   0  0  0  0  0  3  0  0  0  0  0  0
  188.9400  177.3370  143.2010 C   0  0  2  0  0  3  0  0  0  0  0  0
  185.1900  177.9140  141.1370 C   0  0  0  0  0  3  0  0  0  0  0  0
  186.6790  178.2750  147.5270 C   0  0  0  0  0  3  0  0  0  0  0  0
  189.2140  177.4740  147.7650 Cl  0  0  0  0  0  0  0  0  0  0  0  0
  186.4460  177.9200  143.2200 C   0  0  0  0  0  0  0  0  0  0  0  0
  185.3720  178.6140  146.8490 C   0  0  0  0  0  2  0  0  0  0  0  0
  187.7030  177.5870  145.3690 C   0  0  1  0  0  3  0  0  0  0  0  0
  187.6140  177.5570  142.5050 C   0  0  0  0  0  0  0  0  0  0  0  0
  186.3390  177.5420  140.4380 C   0  0  0  0  0  3  0  0  0  0  0  0
  187.5450  177.3690  141.1190 C   0  0  0  0  0  3  0  0  0  0  0  0
  185.2550  177.9730  145.4670 C   0  0  0  0  0  2  0  0  0  0  0  0
  186.5270  178.2840  144.6830 C   0  0  2  0  0  3  0  0  0  0  0  0
  189.4150  175.8740  143.0980 C   0  0  2  0  0  3  0  0  0  0  0  0
  192.1420  174.5470  145.4260 C   0  0  0  0  0  3  0  0  0  0  0  0
  189.6880  174.1950  145.5300 C   0  0  0  0  0  1  0  0  0  0  0  0
  190.7700  175.5720  143.6990 C   0  0  0  0  0  0  0  0  0  0  0  0
  191.9370  176.0840  143.1070 C   0  0  0  0  0  3  0  0  0  0  0  0
  190.8830  174.7910  144.8680 C   0  0  0  0  0  0  0  0  0  0  0  0
  193.2920  175.0670  144.8310 C   0  0  0  0  0  3  0  0  0  0  0  0
  193.1900  175.8340  143.6700 C   0  0  0  0  0  3  0  0  0  0  0  0
  189.1940  175.2700  141.7380 C   0  0  0  0  0  3  0  0  0  0  0  0
  189.1180  173.9510  141.5450 C   0  0  0  0  0  3  0  0  0  0  0  0
  188.9010  173.3940  140.1790 C   0  0  0  0  0  2  0  0  0  0  0  0
  188.1920  174.3610  139.3550 N   0  0  0  0  0  2  0  0  0  0  0  0
  188.7930  173.3470  137.3380 O   0  0  0  0  0  0  0  0  0  0  0  0
  188.1820  174.2750  137.9300 C   0  0  0  0  0  0  0  0  0  0  0  0
  187.4420  175.2910  137.1390 C   0  0  0  0  0  1  0  0  0  0  0  0
  2  6  2  0  0  0  0
  2  7  1  0  0  0  0
  3  8  1  0  0  0  0
  4 16  1  1  0  0  0
  4  1  1  0  0  0  0
  5  3  2  0  0  0  0
  8 15  1  0  0  0  0
  9  6  1  0  0  0  0
 10  1  1  6  0  0  0
 10  2  1  0  0  0  0
 11  4  1  0  0  0  0
 11  8  2  0  0  0  0
 12 13  2  0  0  0  0
 12  5  1  0  0  0  0
 13 11  1  0  0  0  0
 14  9  1  0  0  0  0
 15 10  1  0  0  0  0
 15 14  1  1  0  0  0
 16 24  1  6  0  0  0
 16 19  1  0  0  0  0
 19 21  2  0  0  0  0
 20 23  2  0  0  0  0
 20 19  1  0  0  0  0
 21 17  1  0  0  0  0
 21 18  1  0  0  0  0
 22 17  2  0  0  0  0
 23 22  1  0  0  0  0
 25 24  2  0  0  0  0
 26 25  1  0  0  0  0
 27 26  1  0  0  0  0
 28 29  2  0  0  0  0
 29 27  1  0  0  0  0
 30 29  1  0  0  0  0
M  END
>  <MODEL>
9

>  <REMARK>
 VINA RESULT:      -7.5      1.294      1.580
  Name = 
  5 active torsions:
  status: ('A' for Active; 'I' for Inactive)
    1  A    between atoms: C_4  and  C_13
    2  A    between atoms: N_7  and  C_16
    3  A    between atoms: C_8  and  C_13
    4  A    between atoms: C_13  and  C_27
    5  A    between atoms: C_16  and  C_30
                            x       y       z     vdW  Elec       q    Type
                         _______ _______ _______ _____ _____    ______ ____

>  <TORSDO>
F 5

$$$$
