=
 OpenBabel11052417313D

 25 28  0  0  1  0  0  0  0  0999 V2000
  186.7220  176.8140  143.5440 C   0  0  0  0  0  0  0  0  0  0  0  0
  187.8410  175.9630  143.5200 C   0  0  0  0  0  0  0  0  0  0  0  0
  186.7190  176.8890  141.1190 C   0  0  0  0  0  3  0  0  0  0  0  0
  186.0180  177.3160  144.6560 C   0  0  0  0  0  0  0  0  0  0  0  0
  184.3870  178.4990  146.5940 C   0  0  0  0  0  3  0  0  0  0  0  0
  187.8040  176.0660  141.1060 N   0  0  0  0  0  0  0  0  0  0  0  0
  184.9520  178.1370  144.2920 C   0  0  0  0  0  0  0  0  0  0  0  0
  184.1240  178.7390  145.2370 C   0  0  0  0  0  3  0  0  0  0  0  0
  189.4950  174.7510  142.2090 C   0  0  0  0  0  0  0  0  0  0  0  0
  190.0960  174.3400  140.9090 C   0  0  0  0  0  1  0  0  0  0  0  0
  188.4410  175.4720  144.6840 C   0  0  0  0  0  3  0  0  0  0  0  0
  185.4590  177.6720  146.9780 C   0  0  0  0  0  3  0  0  0  0  0  0
  186.1790  177.2620  142.3430 C   0  0  0  0  0  0  0  0  0  0  0  0
  184.8500  178.2640  142.6150 S   0  0  0  0  0  0  0  0  0  0  0  0
  190.0490  174.2970  143.3650 N   0  0  0  0  0  0  0  0  0  0  0  0
  186.2810  177.0760  146.0090 C   0  0  0  0  0  3  0  0  0  0  0  0
  189.5490  174.6300  144.5860 C   0  0  0  0  0  0  0  0  0  0  0  0
  188.3740  175.5970  142.2560 C   0  0  0  0  0  0  0  0  0  0  0  0
  190.2070  174.1230  145.8210 C   0  0  0  0  0  2  0  0  0  0  0  0
  189.6900  174.8800  147.0320 C   0  0  0  0  0  2  0  0  0  0  0  0
  190.8020  175.7100  147.6530 C   0  0  2  0  0  3  0  0  0  0  0  0
  190.5040  177.0660  147.5240 O   0  0  0  0  0  1  0  0  0  0  0  0
  192.1500  175.4090  147.0060 C   0  0  0  0  0  2  0  0  0  0  0  0
  192.6370  176.5330  146.3350 O   0  0  0  0  0  0  0  0  0  0  0  0
  193.7970  176.7800  146.9040 O   0  0  0  0  0  1  0  0  0  0  0  0
  1  4  1  0  0  0  0
  2  1  1  0  0  0  0
  2 11  1  0  0  0  0
  3 13  1  0  0  0  0
  4 16  1  0  0  0  0
  5 12  1  0  0  0  0
  6  3  2  0  0  0  0
  6 18  1  0  0  0  0
  7  4  2  0  0  0  0
  7  8  1  0  0  0  0
  8  5  2  0  0  0  0
  9 18  1  0  0  0  0
  9 15  2  0  0  0  0
 10  9  1  0  0  0  0
 13 14  1  0  0  0  0
 13  1  2  0  0  0  0
 14  7  1  0  0  0  0
 15 17  1  0  0  0  0
 16 12  2  0  0  0  0
 17 11  2  0  0  0  0
 17 19  1  0  0  0  0
 18  2  2  0  0  0  0
 19 20  1  0  0  0  0
 20 21  1  0  0  0  0
 21 22  1  6  0  0  0
 23 21  1  0  0  0  0
 24 25  1  0  0  0  0
 24 23  1  0  0  0  0
M  END
>  <MODEL>
1

>  <REMARK>
 VINA RESULT:      -7.1      0.000      0.000
  Name = 
  5 active torsions:
  status: ('A' for Active; 'I' for Inactive)
    1  A    between atoms: C_2  and  O_7
    2  A    between atoms: C_2  and  C_21
    3  A    between atoms: C_6  and  C_15
    4  A    between atoms: C_6  and  C_23
    5  A    between atoms: C_15  and  C_21
                            x       y       z     vdW  Elec       q    Type
                         _______ _______ _______ _____ _____    ______ ____

>  <TORSDO>
F 5

$$$$
=
 OpenBabel11052417313D

 25 28  0  0  1  0  0  0  0  0999 V2000
  186.8940  176.7650  144.1050 C   0  0  0  0  0  0  0  0  0  0  0  0
  188.0930  176.0310  144.0700 C   0  0  0  0  0  0  0  0  0  0  0  0
  186.7210  176.6070  141.6900 C   0  0  0  0  0  3  0  0  0  0  0  0
  186.2170  177.3000  145.2180 C   0  0  0  0  0  0  0  0  0  0  0  0
  184.6040  178.4950  147.1630 C   0  0  0  0  0  3  0  0  0  0  0  0
  187.8840  175.8980  141.6670 N   0  0  0  0  0  0  0  0  0  0  0  0
  185.0480  177.9720  144.8660 C   0  0  0  0  0  0  0  0  0  0  0  0
  184.2270  178.5770  145.8140 C   0  0  0  0  0  3  0  0  0  0  0  0
  189.7740  174.8690  142.7500 C   0  0  0  0  0  0  0  0  0  0  0  0
  190.3270  174.3970  141.4490 C   0  0  0  0  0  1  0  0  0  0  0  0
  188.8180  175.7160  145.2240 C   0  0  0  0  0  3  0  0  0  0  0  0
  185.7800  177.8190  147.5360 C   0  0  0  0  0  3  0  0  0  0  0  0
  186.2280  177.0410  142.9140 C   0  0  0  0  0  0  0  0  0  0  0  0
  184.8220  177.9280  143.1970 S   0  0  0  0  0  0  0  0  0  0  0  0
  190.4490  174.5840  143.8950 N   0  0  0  0  0  0  0  0  0  0  0  0
  186.5940  177.2180  146.5630 C   0  0  0  0  0  3  0  0  0  0  0  0
  189.9990  174.9820  145.1170 C   0  0  0  0  0  0  0  0  0  0  0  0
  188.5760  175.6000  142.8070 C   0  0  0  0  0  0  0  0  0  0  0  0
  190.7880  174.6630  146.3380 C   0  0  0  0  0  2  0  0  0  0  0  0
  192.2720  174.6790  146.0150 C   0  0  0  0  0  2  0  0  0  0  0  0
  192.9470  175.8690  146.6790 C   0  0  2  0  0  3  0  0  0  0  0  0
  192.0080  176.5880  147.4190 O   0  0  0  0  0  1  0  0  0  0  0  0
  193.6060  176.7820  145.6500 C   0  0  0  0  0  2  0  0  0  0  0  0
  193.0670  176.5650  144.3800 O   0  0  0  0  0  0  0  0  0  0  0  0
  192.2340  177.5660  144.2000 O   0  0  0  0  0  1  0  0  0  0  0  0
  1  4  1  0  0  0  0
  2  1  1  0  0  0  0
  2 11  1  0  0  0  0
  3 13  1  0  0  0  0
  4 16  1  0  0  0  0
  5 12  1  0  0  0  0
  6  3  2  0  0  0  0
  6 18  1  0  0  0  0
  7  4  2  0  0  0  0
  7  8  1  0  0  0  0
  8  5  2  0  0  0  0
  9 18  1  0  0  0  0
  9 15  2  0  0  0  0
 10  9  1  0  0  0  0
 13 14  1  0  0  0  0
 13  1  2  0  0  0  0
 14  7  1  0  0  0  0
 15 17  1  0  0  0  0
 16 12  2  0  0  0  0
 17 11  2  0  0  0  0
 17 19  1  0  0  0  0
 18  2  2  0  0  0  0
 20 19  1  0  0  0  0
 20 21  1  0  0  0  0
 21 22  1  6  0  0  0
 23 21  1  0  0  0  0
 24 23  1  0  0  0  0
 25 24  1  0  0  0  0
M  END
>  <MODEL>
2

>  <REMARK>
 VINA RESULT:      -7.0      1.057      1.331
  Name = 
  5 active torsions:
  status: ('A' for Active; 'I' for Inactive)
    1  A    between atoms: C_2  and  O_7
    2  A    between atoms: C_2  and  C_21
    3  A    between atoms: C_6  and  C_15
    4  A    between atoms: C_6  and  C_23
    5  A    between atoms: C_15  and  C_21
                            x       y       z     vdW  Elec       q    Type
                         _______ _______ _______ _____ _____    ______ ____

>  <TORSDO>
F 5

$$$$
=
 OpenBabel11052417313D

 25 28  0  0  1  0  0  0  0  0999 V2000
  185.7910  177.5680  143.7720 C   0  0  0  0  0  0  0  0  0  0  0  0
  186.5740  176.9530  142.7790 C   0  0  0  0  0  0  0  0  0  0  0  0
  184.4110  178.5920  142.0580 C   0  0  0  0  0  3  0  0  0  0  0  0
  185.9210  177.4940  145.1720 C   0  0  0  0  0  0  0  0  0  0  0  0
  185.8610  177.5900  147.9650 C   0  0  0  0  0  3  0  0  0  0  0  0
  185.1760  177.9930  141.1040 N   0  0  0  0  0  0  0  0  0  0  0  0
  184.9550  178.2420  145.8430 C   0  0  0  0  0  0  0  0  0  0  0  0
  184.9040  178.3070  147.2340 C   0  0  0  0  0  3  0  0  0  0  0  0
  187.0070  176.5870  140.4130 C   0  0  0  0  0  0  0  0  0  0  0  0
  186.6980  176.8060  138.9720 C   0  0  0  0  0  1  0  0  0  0  0  0
  187.6620  176.1290  143.0800 C   0  0  0  0  0  3  0  0  0  0  0  0
  186.8430  176.8290  147.3030 C   0  0  0  0  0  3  0  0  0  0  0  0
  184.7220  178.3770  143.3950 C   0  0  0  0  0  0  0  0  0  0  0  0
  183.9310  179.0040  144.7450 S   0  0  0  0  0  0  0  0  0  0  0  0
  188.0590  175.7930  140.7480 N   0  0  0  0  0  0  0  0  0  0  0  0
  186.8780  176.7780  145.9010 C   0  0  0  0  0  3  0  0  0  0  0  0
  188.3950  175.5490  142.0450 C   0  0  0  0  0  0  0  0  0  0  0  0
  186.2360  177.1890  141.4210 C   0  0  0  0  0  0  0  0  0  0  0  0
  189.5690  174.6890  142.3570 C   0  0  0  0  0  2  0  0  0  0  0  0
  189.7450  174.5780  143.8610 C   0  0  0  0  0  2  0  0  0  0  0  0
  191.1880  174.8580  144.2480 C   0  0  2  0  0  3  0  0  0  0  0  0
  191.5250  174.1080  145.3760 O   0  0  0  0  0  1  0  0  0  0  0  0
  191.4150  176.3410  144.5230 C   0  0  0  0  0  2  0  0  0  0  0  0
  190.3610  176.8710  145.2700 O   0  0  0  0  0  0  0  0  0  0  0  0
  190.1260  178.0440  144.7230 O   0  0  0  0  0  1  0  0  0  0  0  0
  1  4  1  0  0  0  0
  2 11  1  0  0  0  0
  2  1  1  0  0  0  0
  3 13  1  0  0  0  0
  4  7  2  0  0  0  0
  4 16  1  0  0  0  0
  6 18  1  0  0  0  0
  6  3  2  0  0  0  0
  7  8  1  0  0  0  0
  8  5  2  0  0  0  0
  9 15  2  0  0  0  0
  9 18  1  0  0  0  0
 10  9  1  0  0  0  0
 12  5  1  0  0  0  0
 13  1  2  0  0  0  0
 13 14  1  0  0  0  0
 14  7  1  0  0  0  0
 15 17  1  0  0  0  0
 16 12  2  0  0  0  0
 17 19  1  0  0  0  0
 17 11  2  0  0  0  0
 18  2  2  0  0  0  0
 19 20  1  0  0  0  0
 20 21  1  0  0  0  0
 21 23  1  0  0  0  0
 21 22  1  1  0  0  0
 23 24  1  0  0  0  0
 25 24  1  0  0  0  0
M  END
>  <MODEL>
3

>  <REMARK>
 VINA RESULT:      -6.8      1.897      2.837
  Name = 
  5 active torsions:
  status: ('A' for Active; 'I' for Inactive)
    1  A    between atoms: C_2  and  O_7
    2  A    between atoms: C_2  and  C_21
    3  A    between atoms: C_6  and  C_15
    4  A    between atoms: C_6  and  C_23
    5  A    between atoms: C_15  and  C_21
                            x       y       z     vdW  Elec       q    Type
                         _______ _______ _______ _____ _____    ______ ____

>  <TORSDO>
F 5

$$$$
=
 OpenBabel11052417313D

 25 28  0  0  1  0  0  0  0  0999 V2000
  187.3780  177.6250  144.3080 C   0  0  0  0  0  0  0  0  0  0  0  0
  188.7220  177.3550  144.6230 C   0  0  0  0  0  0  0  0  0  0  0  0
  186.8310  177.6890  146.6720 C   0  0  0  0  0  3  0  0  0  0  0  0
  186.7780  177.7650  143.0420 C   0  0  0  0  0  0  0  0  0  0  0  0
  185.2460  178.1080  140.7290 C   0  0  0  0  0  3  0  0  0  0  0  0
  188.1350  177.4260  146.9660 N   0  0  0  0  0  0  0  0  0  0  0  0
  185.4120  178.0330  143.1200 C   0  0  0  0  0  0  0  0  0  0  0  0
  184.6260  178.2070  141.9830 C   0  0  0  0  0  3  0  0  0  0  0  0
  190.4160  176.9860  146.3290 C   0  0  0  0  0  0  0  0  0  0  0  0
  190.8440  176.8700  147.7520 C   0  0  0  0  0  1  0  0  0  0  0  0
  189.7050  177.1790  143.6440 C   0  0  0  0  0  3  0  0  0  0  0  0
  186.6230  177.8390  140.6330 C   0  0  0  0  0  3  0  0  0  0  0  0
  186.4550  177.7880  145.3380 C   0  0  0  0  0  0  0  0  0  0  0  0
  184.9150  178.1020  144.7280 S   0  0  0  0  0  0  0  0  0  0  0  0
  191.3420  176.8200  145.3470 N   0  0  0  0  0  0  0  0  0  0  0  0
  187.3970  177.6650  141.7910 C   0  0  0  0  0  3  0  0  0  0  0  0
  191.0200  176.9160  144.0280 C   0  0  0  0  0  0  0  0  0  0  0  0
  189.0800  177.2590  145.9930 C   0  0  0  0  0  0  0  0  0  0  0  0
  192.0670  176.7040  142.9920 C   0  0  0  0  0  2  0  0  0  0  0  0
  193.0180  175.6060  143.4330 C   0  0  0  0  0  2  0  0  0  0  0  0
  194.4610  176.0640  143.2880 C   0  0  2  0  0  3  0  0  0  0  0  0
  195.1430  175.2010  142.4310 O   0  0  0  0  0  1  0  0  0  0  0  0
  195.1660  176.1190  144.6400 C   0  0  0  0  0  2  0  0  0  0  0  0
  194.7730  177.2520  145.3550 O   0  0  0  0  0  0  0  0  0  0  0  0
  194.4530  176.7960  146.5460 O   0  0  0  0  0  1  0  0  0  0  0  0
  1  2  2  0  0  0  0
  1 13  1  0  0  0  0
  2 18  1  0  0  0  0
  3  6  1  0  0  0  0
  4  7  1  0  0  0  0
  4  1  1  0  0  0  0
  5  8  1  0  0  0  0
  7 14  1  0  0  0  0
  8  7  2  0  0  0  0
  9 10  1  0  0  0  0
 11 17  2  0  0  0  0
 11  2  1  0  0  0  0
 12  5  2  0  0  0  0
 12 16  1  0  0  0  0
 13  3  2  0  0  0  0
 14 13  1  0  0  0  0
 15  9  2  0  0  0  0
 16  4  2  0  0  0  0
 17 15  1  0  0  0  0
 18  9  1  0  0  0  0
 18  6  2  0  0  0  0
 19 20  1  0  0  0  0
 19 17  1  0  0  0  0
 21 22  1  6  0  0  0
 21 20  1  0  0  0  0
 21 23  1  0  0  0  0
 23 24  1  0  0  0  0
 24 25  1  0  0  0  0
M  END
>  <MODEL>
4

>  <REMARK>
 VINA RESULT:      -6.6      2.627      4.321
  Name = 
  5 active torsions:
  status: ('A' for Active; 'I' for Inactive)
    1  A    between atoms: C_2  and  O_7
    2  A    between atoms: C_2  and  C_21
    3  A    between atoms: C_6  and  C_15
    4  A    between atoms: C_6  and  C_23
    5  A    between atoms: C_15  and  C_21
                            x       y       z     vdW  Elec       q    Type
                         _______ _______ _______ _____ _____    ______ ____

>  <TORSDO>
F 5

$$$$
=
 OpenBabel11052417313D

 25 28  0  0  1  0  0  0  0  0999 V2000
  188.5920  175.1810  142.8140 C   0  0  0  0  0  0  0  0  0  0  0  0
  187.8140  176.1800  142.2000 C   0  0  0  0  0  0  0  0  0  0  0  0
  188.8680  174.0730  140.6730 C   0  0  0  0  0  3  0  0  0  0  0  0
  188.9570  175.0520  144.1680 C   0  0  0  0  0  0  0  0  0  0  0  0
  189.8740  174.4640  146.7420 C   0  0  0  0  0  3  0  0  0  0  0  0
  188.1130  175.0440  140.0880 N   0  0  0  0  0  0  0  0  0  0  0  0
  189.7410  173.9260  144.4090 C   0  0  0  0  0  0  0  0  0  0  0  0
  190.2110  173.6100  145.6820 C   0  0  0  0  0  3  0  0  0  0  0  0
  186.8080  177.0680  140.1710 C   0  0  0  0  0  0  0  0  0  0  0  0
  186.5330  177.0110  138.7080 C   0  0  0  0  0  1  0  0  0  0  0  0
  187.2640  177.2500  142.9120 C   0  0  0  0  0  3  0  0  0  0  0  0
  189.0840  175.6060  146.5150 C   0  0  0  0  0  3  0  0  0  0  0  0
  189.1060  174.1450  142.0400 C   0  0  0  0  0  0  0  0  0  0  0  0
  190.0020  173.0710  142.9810 S   0  0  0  0  0  0  0  0  0  0  0  0
  186.2900  178.0930  140.9000 N   0  0  0  0  0  0  0  0  0  0  0  0
  188.6200  175.9050  145.2250 C   0  0  0  0  0  3  0  0  0  0  0  0
  186.5040  178.2070  142.2390 C   0  0  0  0  0  0  0  0  0  0  0  0
  187.5850  176.0830  140.8030 C   0  0  0  0  0  0  0  0  0  0  0  0
  185.8960  179.3360  142.9940 C   0  0  0  0  0  2  0  0  0  0  0  0
  185.8580  179.0090  144.4760 C   0  0  0  0  0  2  0  0  0  0  0  0
  184.5470  178.3270  144.8360 C   0  0  2  0  0  3  0  0  0  0  0  0
  183.4780  179.0880  144.3610 O   0  0  0  0  0  1  0  0  0  0  0  0
  184.4160  178.1290  146.3420 C   0  0  0  0  0  2  0  0  0  0  0  0
  184.7730  176.8270  146.7010 O   0  0  0  0  0  0  0  0  0  0  0  0
  185.9150  176.9620  147.3390 O   0  0  0  0  0  1  0  0  0  0  0  0
  1  4  1  0  0  0  0
  2  1  1  0  0  0  0
  2 11  1  0  0  0  0
  3 13  1  0  0  0  0
  4  7  2  0  0  0  0
  4 16  1  0  0  0  0
  6  3  2  0  0  0  0
  6 18  1  0  0  0  0
  7  8  1  0  0  0  0
  8  5  2  0  0  0  0
  9 18  1  0  0  0  0
  9 15  2  0  0  0  0
 10  9  1  0  0  0  0
 12  5  1  0  0  0  0
 13  1  2  0  0  0  0
 13 14  1  0  0  0  0
 14  7  1  0  0  0  0
 15 17  1  0  0  0  0
 16 12  2  0  0  0  0
 17 11  2  0  0  0  0
 17 19  1  0  0  0  0
 18  2  2  0  0  0  0
 19 20  1  0  0  0  0
 20 21  1  0  0  0  0
 21 22  1  1  0  0  0
 21 23  1  0  0  0  0
 23 24  1  0  0  0  0
 24 25  1  0  0  0  0
M  END
>  <MODEL>
5

>  <REMARK>
 VINA RESULT:      -6.5      3.030      5.660
  Name = 
  5 active torsions:
  status: ('A' for Active; 'I' for Inactive)
    1  A    between atoms: C_2  and  O_7
    2  A    between atoms: C_2  and  C_21
    3  A    between atoms: C_6  and  C_15
    4  A    between atoms: C_6  and  C_23
    5  A    between atoms: C_15  and  C_21
                            x       y       z     vdW  Elec       q    Type
                         _______ _______ _______ _____ _____    ______ ____

>  <TORSDO>
F 5

$$$$
=
 OpenBabel11052417313D

 25 28  0  0  1  0  0  0  0  0999 V2000
  186.7570  177.7590  144.7620 C   0  0  0  0  0  0  0  0  0  0  0  0
  188.1070  177.3780  144.8710 C   0  0  0  0  0  0  0  0  0  0  0  0
  186.6150  177.9710  147.1750 C   0  0  0  0  0  3  0  0  0  0  0  0
  185.9710  177.9030  143.6020 C   0  0  0  0  0  0  0  0  0  0  0  0
  184.1130  178.2920  141.5500 C   0  0  0  0  0  3  0  0  0  0  0  0
  187.9220  177.6000  147.2710 N   0  0  0  0  0  0  0  0  0  0  0  0
  184.6650  178.3000  143.8830 C   0  0  0  0  0  0  0  0  0  0  0  0
  183.7190  178.5000  142.8800 C   0  0  0  0  0  3  0  0  0  0  0  0
  190.0220  176.9230  146.3010 C   0  0  0  0  0  0  0  0  0  0  0  0
  190.6670  176.8260  147.6410 C   0  0  0  0  0  1  0  0  0  0  0  0
  188.8960  177.0720  143.7580 C   0  0  0  0  0  3  0  0  0  0  0  0
  185.4280  177.8920  141.2490 C   0  0  0  0  0  3  0  0  0  0  0  0
  186.0340  178.0500  145.9150 C   0  0  0  0  0  0  0  0  0  0  0  0
  184.4470  178.4800  145.5440 S   0  0  0  0  0  0  0  0  0  0  0  0
  190.7550  176.6320  145.1930 N   0  0  0  0  0  0  0  0  0  0  0  0
  186.3650  177.6950  142.2760 C   0  0  0  0  0  3  0  0  0  0  0  0
  190.2290  176.7030  143.9400 C   0  0  0  0  0  0  0  0  0  0  0  0
  188.6760  177.3050  146.1690 C   0  0  0  0  0  0  0  0  0  0  0  0
  191.0690  176.3530  142.7630 C   0  0  0  0  0  2  0  0  0  0  0  0
  191.5780  174.9280  142.8950 C   0  0  0  0  0  2  0  0  0  0  0  0
  190.4480  173.9370  142.6650 C   0  0  2  0  0  3  0  0  0  0  0  0
  190.9300  172.6350  142.8070 O   0  0  0  0  0  1  0  0  0  0  0  0
  189.8240  174.1130  141.2850 C   0  0  0  0  0  2  0  0  0  0  0  0
  188.4460  174.3140  141.3890 O   0  0  0  0  0  0  0  0  0  0  0  0
  188.1910  175.2940  140.5500 O   0  0  0  0  0  1  0  0  0  0  0  0
  1  2  2  0  0  0  0
  1 13  1  0  0  0  0
  2 18  1  0  0  0  0
  3  6  1  0  0  0  0
  4  7  1  0  0  0  0
  4  1  1  0  0  0  0
  5  8  1  0  0  0  0
  7 14  1  0  0  0  0
  8  7  2  0  0  0  0
  9 10  1  0  0  0  0
 11 17  2  0  0  0  0
 11  2  1  0  0  0  0
 12  5  2  0  0  0  0
 12 16  1  0  0  0  0
 13  3  2  0  0  0  0
 14 13  1  0  0  0  0
 15  9  2  0  0  0  0
 16  4  2  0  0  0  0
 17 15  1  0  0  0  0
 18  9  1  0  0  0  0
 18  6  2  0  0  0  0
 19 20  1  0  0  0  0
 19 17  1  0  0  0  0
 21 22  1  6  0  0  0
 21 20  1  0  0  0  0
 23 24  1  0  0  0  0
 23 21  1  0  0  0  0
 25 24  1  0  0  0  0
M  END
>  <MODEL>
6

>  <REMARK>
 VINA RESULT:      -6.5      3.049      4.748
  Name = 
  5 active torsions:
  status: ('A' for Active; 'I' for Inactive)
    1  A    between atoms: C_2  and  O_7
    2  A    between atoms: C_2  and  C_21
    3  A    between atoms: C_6  and  C_15
    4  A    between atoms: C_6  and  C_23
    5  A    between atoms: C_15  and  C_21
                            x       y       z     vdW  Elec       q    Type
                         _______ _______ _______ _____ _____    ______ ____

>  <TORSDO>
F 5

$$$$
=
 OpenBabel11052417313D

 25 28  0  0  1  0  0  0  0  0999 V2000
  185.8520  177.5550  143.7440 C   0  0  0  0  0  0  0  0  0  0  0  0
  186.6090  176.9210  142.7420 C   0  0  0  0  0  0  0  0  0  0  0  0
  184.4920  178.6280  142.0440 C   0  0  0  0  0  3  0  0  0  0  0  0
  185.9880  177.4690  145.1430 C   0  0  0  0  0  0  0  0  0  0  0  0
  185.9490  177.5520  147.9370 C   0  0  0  0  0  3  0  0  0  0  0  0
  185.2320  178.0110  141.0820 N   0  0  0  0  0  0  0  0  0  0  0  0
  185.0500  178.2420  145.8240 C   0  0  0  0  0  0  0  0  0  0  0  0
  185.0090  178.3010  147.2150 C   0  0  0  0  0  3  0  0  0  0  0  0
  187.0160  176.5550  140.3720 C   0  0  0  0  0  0  0  0  0  0  0  0
  186.7040  176.7900  138.9340 C   0  0  0  0  0  1  0  0  0  0  0  0
  187.6740  176.0630  143.0330 C   0  0  0  0  0  3  0  0  0  0  0  0
  186.9030  176.7650  147.2640 C   0  0  0  0  0  3  0  0  0  0  0  0
  184.8050  178.3970  143.3780 C   0  0  0  0  0  0  0  0  0  0  0  0
  184.0410  179.0410  144.7360 S   0  0  0  0  0  0  0  0  0  0  0  0
  188.0450  175.7280  140.6960 N   0  0  0  0  0  0  0  0  0  0  0  0
  186.9270  176.7210  145.8610 C   0  0  0  0  0  3  0  0  0  0  0  0
  188.3820  175.4660  141.9890 C   0  0  0  0  0  0  0  0  0  0  0  0
  186.2690  177.1750  141.3880 C   0  0  0  0  0  0  0  0  0  0  0  0
  189.5310  174.5700  142.2890 C   0  0  0  0  0  2  0  0  0  0  0  0
  189.6330  174.3410  143.7870 C   0  0  0  0  0  2  0  0  0  0  0  0
  189.7690  172.8580  144.0900 C   0  0  2  0  0  3  0  0  0  0  0  0
  191.0140  172.6090  144.6690 O   0  0  0  0  0  1  0  0  0  0  0  0
  189.6050  172.0140  142.8300 C   0  0  0  0  0  2  0  0  0  0  0  0
  190.8060  171.3850  142.4960 O   0  0  0  0  0  0  0  0  0  0  0  0
  190.4410  170.2630  141.9160 O   0  0  0  0  0  1  0  0  0  0  0  0
  1  4  1  0  0  0  0
  2 11  1  0  0  0  0
  2  1  1  0  0  0  0
  3 13  1  0  0  0  0
  4  7  2  0  0  0  0
  4 16  1  0  0  0  0
  6 18  1  0  0  0  0
  6  3  2  0  0  0  0
  7  8  1  0  0  0  0
  8  5  2  0  0  0  0
  9 15  2  0  0  0  0
  9 18  1  0  0  0  0
 10  9  1  0  0  0  0
 12  5  1  0  0  0  0
 13  1  2  0  0  0  0
 13 14  1  0  0  0  0
 14  7  1  0  0  0  0
 15 17  1  0  0  0  0
 16 12  2  0  0  0  0
 17 19  1  0  0  0  0
 17 11  2  0  0  0  0
 18  2  2  0  0  0  0
 19 20  1  0  0  0  0
 20 21  1  0  0  0  0
 21 22  1  6  0  0  0
 23 21  1  0  0  0  0
 24 23  1  0  0  0  0
 25 24  1  0  0  0  0
M  END
>  <MODEL>
7

>  <REMARK>
 VINA RESULT:      -6.4      2.659      3.742
  Name = 
  5 active torsions:
  status: ('A' for Active; 'I' for Inactive)
    1  A    between atoms: C_2  and  O_7
    2  A    between atoms: C_2  and  C_21
    3  A    between atoms: C_6  and  C_15
    4  A    between atoms: C_6  and  C_23
    5  A    between atoms: C_15  and  C_21
                            x       y       z     vdW  Elec       q    Type
                         _______ _______ _______ _____ _____    ______ ____

>  <TORSDO>
F 5

$$$$
=
 OpenBabel11052417313D

 25 28  0  0  1  0  0  0  0  0999 V2000
  185.7630  178.0770  143.7400 C   0  0  0  0  0  0  0  0  0  0  0  0
  186.5800  177.9470  144.8770 C   0  0  0  0  0  0  0  0  0  0  0  0
  183.9090  178.7690  145.1450 C   0  0  0  0  0  3  0  0  0  0  0  0
  186.0860  177.8480  142.3880 C   0  0  0  0  0  0  0  0  0  0  0  0
  186.3480  177.4970  139.6270 C   0  0  0  0  0  3  0  0  0  0  0  0
  184.7080  178.6370  146.2400 N   0  0  0  0  0  0  0  0  0  0  0  0
  185.0130  178.0840  141.5310 C   0  0  0  0  0  0  0  0  0  0  0  0
  185.1160  177.9160  140.1520 C   0  0  0  0  0  3  0  0  0  0  0  0
  186.8100  178.1110  147.2930 C   0  0  0  0  0  0  0  0  0  0  0  0
  186.2620  178.4020  148.6480 C   0  0  0  0  0  1  0  0  0  0  0  0
  187.9160  177.5410  144.8020 C   0  0  0  0  0  3  0  0  0  0  0  0
  187.4410  177.2550  140.4790 C   0  0  0  0  0  3  0  0  0  0  0  0
  184.4420  178.4870  143.8920 C   0  0  0  0  0  0  0  0  0  0  0  0
  183.6570  178.5740  142.4030 S   0  0  0  0  0  0  0  0  0  0  0  0
  188.1050  177.7130  147.1780 N   0  0  0  0  0  0  0  0  0  0  0  0
  187.3150  177.4290  141.8670 C   0  0  0  0  0  3  0  0  0  0  0  0
  188.6700  177.4340  145.9710 C   0  0  0  0  0  0  0  0  0  0  0  0
  186.0130  178.2400  146.1440 C   0  0  0  0  0  0  0  0  0  0  0  0
  190.0860  176.9800  145.9030 C   0  0  0  0  0  2  0  0  0  0  0  0
  190.7270  177.4740  144.6170 C   0  0  0  0  0  2  0  0  0  0  0  0
  192.1830  177.0400  144.5500 C   0  0  2  0  0  3  0  0  0  0  0  0
  192.5240  176.7470  143.2290 O   0  0  0  0  0  1  0  0  0  0  0  0
  192.4450  175.8280  145.4370 C   0  0  0  0  0  2  0  0  0  0  0  0
  193.7540  175.8480  145.9260 O   0  0  0  0  0  0  0  0  0  0  0  0
  193.7480  176.7910  146.8430 O   0  0  0  0  0  1  0  0  0  0  0  0
  1 13  1  0  0  0  0
  1  2  2  0  0  0  0
  2 18  1  0  0  0  0
  3  6  1  0  0  0  0
  4  1  1  0  0  0  0
  5  8  2  0  0  0  0
  5 12  1  0  0  0  0
  7  4  2  0  0  0  0
  7 14  1  0  0  0  0
  8  7  1  0  0  0  0
  9 10  1  0  0  0  0
 11  2  1  0  0  0  0
 11 17  2  0  0  0  0
 12 16  2  0  0  0  0
 13  3  2  0  0  0  0
 14 13  1  0  0  0  0
 15  9  2  0  0  0  0
 16  4  1  0  0  0  0
 17 15  1  0  0  0  0
 18  6  2  0  0  0  0
 18  9  1  0  0  0  0
 19 17  1  0  0  0  0
 20 19  1  0  0  0  0
 21 22  1  6  0  0  0
 21 20  1  0  0  0  0
 21 23  1  0  0  0  0
 23 24  1  0  0  0  0
 24 25  1  0  0  0  0
M  END
>  <MODEL>
8

>  <REMARK>
 VINA RESULT:      -6.3      2.568      4.551
  Name = 
  5 active torsions:
  status: ('A' for Active; 'I' for Inactive)
    1  A    between atoms: C_2  and  O_7
    2  A    between atoms: C_2  and  C_21
    3  A    between atoms: C_6  and  C_15
    4  A    between atoms: C_6  and  C_23
    5  A    between atoms: C_15  and  C_21
                            x       y       z     vdW  Elec       q    Type
                         _______ _______ _______ _____ _____    ______ ____

>  <TORSDO>
F 5

$$$$
=
 OpenBabel11052417313D

 25 28  0  0  1  0  0  0  0  0999 V2000
  186.3020  177.1790  144.8630 C   0  0  0  0  0  0  0  0  0  0  0  0
  187.4880  176.4230  144.8690 C   0  0  0  0  0  0  0  0  0  0  0  0
  186.4000  177.3620  147.2810 C   0  0  0  0  0  3  0  0  0  0  0  0
  185.5100  177.5720  143.7660 C   0  0  0  0  0  0  0  0  0  0  0  0
  183.7030  178.5310  141.8620 C   0  0  0  0  0  3  0  0  0  0  0  0
  187.5470  176.6280  147.2760 N   0  0  0  0  0  0  0  0  0  0  0  0
  184.3980  178.3210  144.1470 C   0  0  0  0  0  0  0  0  0  0  0  0
  183.4820  178.8110  143.2180 C   0  0  0  0  0  3  0  0  0  0  0  0
  189.2870  175.4000  146.1480 C   0  0  0  0  0  0  0  0  0  0  0  0
  189.9700  175.0870  147.4350 C   0  0  0  0  0  1  0  0  0  0  0  0
  188.0740  175.9300  143.6990 C   0  0  0  0  0  3  0  0  0  0  0  0
  184.8210  177.7770  141.4610 C   0  0  0  0  0  3  0  0  0  0  0  0
  185.7780  177.6360  146.0690 C   0  0  0  0  0  0  0  0  0  0  0  0
  184.3610  178.5150  145.8200 S   0  0  0  0  0  0  0  0  0  0  0  0
  189.8230  174.9370  144.9880 N   0  0  0  0  0  0  0  0  0  0  0  0
  185.7320  177.2930  142.4130 C   0  0  0  0  0  3  0  0  0  0  0  0
  189.2530  175.1890  143.7770 C   0  0  0  0  0  0  0  0  0  0  0  0
  188.1030  176.1560  146.1200 C   0  0  0  0  0  0  0  0  0  0  0  0
  189.8690  174.6410  142.5390 C   0  0  0  0  0  2  0  0  0  0  0  0
  188.8450  174.6130  141.4180 C   0  0  0  0  0  2  0  0  0  0  0  0
  188.5030  173.1790  141.0470 C   0  0  2  0  0  3  0  0  0  0  0  0
  189.1980  172.3000  141.8790 O   0  0  0  0  0  1  0  0  0  0  0  0
  188.8370  172.8860  139.5870 C   0  0  0  0  0  2  0  0  0  0  0  0
  188.6970  174.0370  138.8090 O   0  0  0  0  0  0  0  0  0  0  0  0
  188.1800  173.6100  137.6780 O   0  0  0  0  0  1  0  0  0  0  0  0
  1  2  2  0  0  0  0
  1 13  1  0  0  0  0
  2 18  1  0  0  0  0
  4  7  1  0  0  0  0
  4  1  1  0  0  0  0
  5  8  1  0  0  0  0
  6  3  1  0  0  0  0
  7 14  1  0  0  0  0
  8  7  2  0  0  0  0
  9 10  1  0  0  0  0
 11 17  2  0  0  0  0
 11  2  1  0  0  0  0
 12  5  2  0  0  0  0
 12 16  1  0  0  0  0
 13  3  2  0  0  0  0
 14 13  1  0  0  0  0
 15  9  2  0  0  0  0
 16  4  2  0  0  0  0
 17 15  1  0  0  0  0
 18  9  1  0  0  0  0
 18  6  2  0  0  0  0
 19 17  1  0  0  0  0
 20 19  1  0  0  0  0
 21 20  1  0  0  0  0
 21 22  1  1  0  0  0
 23 21  1  0  0  0  0
 24 23  1  0  0  0  0
 25 24  1  0  0  0  0
M  END
>  <MODEL>
9

>  <REMARK>
 VINA RESULT:      -6.3      3.506      5.258
  Name = 
  5 active torsions:
  status: ('A' for Active; 'I' for Inactive)
    1  A    between atoms: C_2  and  O_7
    2  A    between atoms: C_2  and  C_21
    3  A    between atoms: C_6  and  C_15
    4  A    between atoms: C_6  and  C_23
    5  A    between atoms: C_15  and  C_21
                            x       y       z     vdW  Elec       q    Type
                         _______ _______ _______ _____ _____    ______ ____

>  <TORSDO>
F 5

$$$$
