=
 OpenBabel11052419583D

 37 42  0  0  1  0  0  0  0  0999 V2000
  191.6110  175.9050  144.6510 C   0  0  0  0  0  0  0  0  0  0  0  0
  188.8710  177.8160  144.1560 C   0  0  2  0  0  3  0  0  0  0  0  0
  191.7900  172.6270  143.6060 C   0  0  2  0  0  3  0  0  0  0  0  0
  190.4140  176.1420  145.5960 C   0  0  2  0  0  0  0  0  0  0  0  0
  194.0090  173.5120  144.3630 C   0  0  1  0  0  3  0  0  0  0  0  0
  188.0580  174.1030  142.0130 C   0  0  0  0  0  3  0  0  0  0  0  0
  194.0050  176.0340  143.9650 C   0  0  0  0  0  2  0  0  0  0  0  0
  189.4500  175.1440  145.4400 O   0  0  0  0  0  0  0  0  0  0  0  0
  189.7930  177.5410  145.3700 C   0  0  0  0  0  2  0  0  0  0  0  0
  190.2750  174.5840  142.8890 C   0  0  0  0  0  0  0  0  0  0  0  0
  188.3430  172.7420  142.0170 C   0  0  0  0  0  3  0  0  0  0  0  0
  190.1890  174.9270  147.5980 O   0  0  0  0  0  0  0  0  0  0  0  0
  191.3630  175.5700  143.1970 C   0  0  0  0  0  2  0  0  0  0  0  0
  187.8440  176.7350  143.8770 C   0  0  0  0  0  2  0  0  0  0  0  0
  190.7940  176.0590  147.0590 C   0  0  0  0  0  2  0  0  0  0  0  0
  189.5680  172.2900  142.4950 C   0  0  0  0  0  3  0  0  0  0  0  0
  189.5120  177.5680  142.8050 C   0  0  0  0  0  2  0  0  0  0  0  0
  194.8460  174.7880  144.2550 C   0  0  0  0  0  2  0  0  0  0  0  0
  190.5470  173.1890  142.9400 C   0  0  0  0  0  0  0  0  0  0  0  0
  192.8920  176.2410  144.9720 C   0  0  0  0  0  0  0  0  0  0  0  0
  188.9970  175.0410  142.4540 C   0  0  0  0  0  0  0  0  0  0  0  0
  193.1070  173.2590  143.1490 C   0  0  1  0  0  3  0  0  0  0  0  0
  188.4890  176.4730  142.5240 C   0  0  1  0  0  3  0  0  0  0  0  0
  189.6800  174.2460  146.4900 C   0  0  0  0  0  2  0  0  0  0  0  0
  191.8480  171.2290  143.5530 O   0  0  0  0  0  1  0  0  0  0  0  0
  196.1050  172.0920  144.3370 C   0  0  0  0  0  3  0  0  0  0  0  0
  194.8060  172.3240  144.8150 C   0  0  0  0  0  0  0  0  0  0  0  0
  194.2290  171.4200  145.7140 C   0  0  0  0  0  3  0  0  0  0  0  0
  194.3820  169.4240  147.0090 F   0  0  0  0  0  0  0  0  0  0  0  0
  196.2400  170.0700  145.6610 C   0  0  0  0  0  3  0  0  0  0  0  0
  194.9440  170.2960  146.1380 C   0  0  0  0  0  0  0  0  0  0  0  0
  196.8200  170.9680  144.7620 C   0  0  0  0  0  3  0  0  0  0  0  0
  194.4600  177.3850  146.5130 C   0  0  0  0  0  1  0  0  0  0  0  0
  193.2030  176.7910  146.2200 O   0  0  0  0  0  0  0  0  0  0  0  0
  193.7910  172.5560  141.9750 C   0  0  0  0  0  2  0  0  0  0  0  0
  192.6190  173.7900  139.9650 C   0  0  0  0  0  1  0  0  0  0  0  0
  194.2800  173.7570  140.7000 S   0  0  0  0  0  0  0  0  0  0  0  0
  1 20  2  0  0  0  0
  1  4  1  0  0  0  0
  2 17  1  6  0  0  0
  2  9  1  0  0  0  0
  3 25  1  6  0  0  0
  4  9  1  6  0  0  0
  4 15  1  0  0  0  0
  5 27  1  6  0  0  0
  6 11  2  0  0  0  0
  6 21  1  0  0  0  0
  7 18  1  0  0  0  0
  7 20  1  0  0  0  0
  8  4  1  0  0  0  0
  8 24  1  0  0  0  0
 10 19  1  0  0  0  0
 10 13  1  0  0  0  0
 11 16  1  0  0  0  0
 13  1  1  0  0  0  0
 14  2  1  0  0  0  0
 15 12  1  0  0  0  0
 16 19  2  0  0  0  0
 18  5  1  0  0  0  0
 19  3  1  0  0  0  0
 20 34  1  0  0  0  0
 21 23  1  0  0  0  0
 21 10  2  0  0  0  0
 22 35  1  6  0  0  0
 22  3  1  0  0  0  0
 22  5  1  0  0  0  0
 23 17  1  1  0  0  0
 23 14  1  0  0  0  0
 24 12  1  0  0  0  0
 26 32  2  0  0  0  0
 26 27  1  0  0  0  0
 27 28  2  0  0  0  0
 28 31  1  0  0  0  0
 30 31  2  0  0  0  0
 31 29  1  0  0  0  0
 32 30  1  0  0  0  0
 34 33  1  0  0  0  0
 36 37  1  0  0  0  0
 37 35  1  0  0  0  0
M  END
>  <MODEL>
1

>  <REMARK>
 VINA RESULT:      -7.6      0.000      0.000
  Name = 
  4 active torsions:
  status: ('A' for Active; 'I' for Inactive)
    1  A    between atoms: C_6  and  C_7
    2  A    between atoms: C_14  and  C_31
    3  A    between atoms: C_14  and  S_37
    4  A    between atoms: C_29  and  O_33
                            x       y       z     vdW  Elec       q    Type
                         _______ _______ _______ _____ _____    ______ ____

>  <TORSDO>
F 4

$$$$
=
 OpenBabel11052419583D

 37 42  0  0  1  0  0  0  0  0999 V2000
  190.1200  174.6900  144.0010 C   0  0  0  0  0  0  0  0  0  0  0  0
  188.7120  176.1130  146.7210 C   0  0  2  0  0  3  0  0  0  0  0  0
  193.5010  174.8750  143.3610 C   0  0  2  0  0  3  0  0  0  0  0  0
  189.4850  176.0900  144.1400 C   0  0  2  0  0  0  0  0  0  0  0  0
  192.3270  173.2560  141.8490 C   0  0  1  0  0  3  0  0  0  0  0  0
  193.0100  176.6280  147.2760 C   0  0  0  0  0  3  0  0  0  0  0  0
  190.2920  172.3680  143.1080 C   0  0  0  0  0  2  0  0  0  0  0  0
  190.4540  177.0510  144.4370 O   0  0  0  0  0  0  0  0  0  0  0  0
  188.3680  176.0920  145.2100 C   0  0  0  0  0  2  0  0  0  0  0  0
  192.1370  175.1830  145.5250 C   0  0  0  0  0  0  0  0  0  0  0  0
  194.2030  176.7680  146.5770 C   0  0  0  0  0  3  0  0  0  0  0  0
  189.6170  177.6620  142.3940 O   0  0  0  0  0  0  0  0  0  0  0  0
  191.1050  174.2070  145.0420 C   0  0  0  0  0  2  0  0  0  0  0  0
  189.8130  177.0810  147.1100 C   0  0  0  0  0  2  0  0  0  0  0  0
  188.8630  176.5850  142.8520 C   0  0  0  0  0  2  0  0  0  0  0  0
  194.3570  176.1600  145.3360 C   0  0  0  0  0  3  0  0  0  0  0  0
  189.5570  174.9470  147.1940 C   0  0  0  0  0  2  0  0  0  0  0  0
  191.2400  172.1820  141.9210 C   0  0  0  0  0  2  0  0  0  0  0  0
  193.3390  175.3670  144.7880 C   0  0  0  0  0  0  0  0  0  0  0  0
  189.6530  173.7410  143.1420 C   0  0  0  0  0  0  0  0  0  0  0  0
  191.9590  175.8560  146.7700 C   0  0  0  0  0  0  0  0  0  0  0  0
  193.1380  173.4040  143.1430 C   0  0  1  0  0  3  0  0  0  0  0  0
  190.6720  175.9150  147.5770 C   0  0  1  0  0  3  0  0  0  0  0  0
  190.7470  177.6660  143.2140 C   0  0  0  0  0  2  0  0  0  0  0  0
  194.7580  175.1760  142.8230 O   0  0  0  0  0  1  0  0  0  0  0  0
  193.7120  171.9630  140.1690 C   0  0  0  0  0  3  0  0  0  0  0  0
  193.1500  173.1760  140.5970 C   0  0  0  0  0  0  0  0  0  0  0  0
  193.3760  174.3420  139.8560 C   0  0  0  0  0  3  0  0  0  0  0  0
  194.3680  175.4280  137.9800 F   0  0  0  0  0  0  0  0  0  0  0  0
  194.7090  173.0860  138.2700 C   0  0  0  0  0  3  0  0  0  0  0  0
  194.1530  174.2970  138.6940 C   0  0  0  0  0  0  0  0  0  0  0  0
  194.4880  171.9190  139.0070 C   0  0  0  0  0  3  0  0  0  0  0  0
  187.7170  172.9920  141.7890 C   0  0  0  0  0  1  0  0  0  0  0  0
  188.5740  174.0070  142.2910 O   0  0  0  0  0  0  0  0  0  0  0  0
  194.3000  172.4200  143.2900 C   0  0  0  0  0  2  0  0  0  0  0  0
  195.7250  172.5670  145.5000 C   0  0  0  0  0  1  0  0  0  0  0  0
  194.2760  171.6330  144.9300 S   0  0  0  0  0  0  0  0  0  0  0  0
  1  4  1  0  0  0  0
  1 13  1  0  0  0  0
  2  9  1  6  0  0  0
  2 14  1  0  0  0  0
  2 17  1  0  0  0  0
  3 25  1  1  0  0  0
  3 19  1  0  0  0  0
  4 15  1  6  0  0  0
  4  8  1  0  0  0  0
  4  9  1  0  0  0  0
  5 27  1  6  0  0  0
  5 18  1  0  0  0  0
  5 22  1  0  0  0  0
  7 20  1  0  0  0  0
 10 21  2  0  0  0  0
 11  6  2  0  0  0  0
 12 15  1  0  0  0  0
 12 24  1  0  0  0  0
 13 10  1  0  0  0  0
 16 11  1  0  0  0  0
 17 23  1  0  0  0  0
 18  7  1  0  0  0  0
 19 16  2  0  0  0  0
 19 10  1  0  0  0  0
 20  1  2  0  0  0  0
 21  6  1  0  0  0  0
 21 23  1  0  0  0  0
 22 35  1  6  0  0  0
 22  3  1  0  0  0  0
 23 14  1  6  0  0  0
 24  8  1  0  0  0  0
 26 27  1  0  0  0  0
 28 27  2  0  0  0  0
 29 31  1  0  0  0  0
 30 31  2  0  0  0  0
 30 32  1  0  0  0  0
 31 28  1  0  0  0  0
 32 26  2  0  0  0  0
 33 34  1  0  0  0  0
 34 20  1  0  0  0  0
 35 37  1  0  0  0  0
 37 36  1  0  0  0  0
M  END
>  <MODEL>
2

>  <REMARK>
 VINA RESULT:      -7.6      2.636      5.477
  Name = 
  4 active torsions:
  status: ('A' for Active; 'I' for Inactive)
    1  A    between atoms: C_6  and  C_7
    2  A    between atoms: C_14  and  C_31
    3  A    between atoms: C_14  and  S_37
    4  A    between atoms: C_29  and  O_33
                            x       y       z     vdW  Elec       q    Type
                         _______ _______ _______ _____ _____    ______ ____

>  <TORSDO>
F 4

$$$$
=
 OpenBabel11052419583D

 37 42  0  0  1  0  0  0  0  0999 V2000
  190.3360  174.8620  143.9270 C   0  0  0  0  0  0  0  0  0  0  0  0
  188.6580  176.0540  146.6050 C   0  0  2  0  0  3  0  0  0  0  0  0
  193.7350  175.2790  143.5420 C   0  0  2  0  0  3  0  0  0  0  0  0
  189.6070  176.2120  144.0880 C   0  0  2  0  0  0  0  0  0  0  0  0
  192.7720  173.6750  141.8730 C   0  0  1  0  0  3  0  0  0  0  0  0
  192.8670  176.7910  147.4910 C   0  0  0  0  0  3  0  0  0  0  0  0
  190.7140  172.6040  142.9380 C   0  0  0  0  0  2  0  0  0  0  0  0
  190.4910  177.2110  144.5000 O   0  0  0  0  0  0  0  0  0  0  0  0
  188.4210  176.0920  145.0740 C   0  0  0  0  0  2  0  0  0  0  0  0
  192.2090  175.3920  145.6150 C   0  0  0  0  0  0  0  0  0  0  0  0
  194.0950  177.0380  146.8870 C   0  0  0  0  0  3  0  0  0  0  0  0
  189.7600  177.8790  142.4340 O   0  0  0  0  0  0  0  0  0  0  0  0
  191.2750  174.3830  145.0120 C   0  0  0  0  0  2  0  0  0  0  0  0
  189.6670  177.0630  147.1190 C   0  0  0  0  0  2  0  0  0  0  0  0
  189.0450  176.7370  142.7840 C   0  0  0  0  0  2  0  0  0  0  0  0
  194.3710  176.5060  145.6320 C   0  0  0  0  0  3  0  0  0  0  0  0
  189.5400  174.9170  147.0810 C   0  0  0  0  0  2  0  0  0  0  0  0
  191.7510  172.5370  141.8140 C   0  0  0  0  0  2  0  0  0  0  0  0
  193.4450  175.6850  144.9750 C   0  0  0  0  0  0  0  0  0  0  0  0
  189.9890  173.9330  142.9930 C   0  0  0  0  0  0  0  0  0  0  0  0
  191.9040  175.9860  146.8740 C   0  0  0  0  0  0  0  0  0  0  0  0
  193.4800  173.8020  143.2270 C   0  0  1  0  0  3  0  0  0  0  0  0
  190.5640  175.9270  147.5890 C   0  0  1  0  0  3  0  0  0  0  0  0
  190.8290  177.9060  143.3330 C   0  0  0  0  0  2  0  0  0  0  0  0
  195.0040  175.6820  143.1100 O   0  0  0  0  0  1  0  0  0  0  0  0
  193.9890  174.9180  140.0330 C   0  0  0  0  0  3  0  0  0  0  0  0
  193.6820  173.7110  140.6800 C   0  0  0  0  0  0  0  0  0  0  0  0
  194.2140  172.5110  140.1950 C   0  0  0  0  0  3  0  0  0  0  0  0
  195.5660  171.3520  138.6110 F   0  0  0  0  0  0  0  0  0  0  0  0
  195.3580  173.7200  138.4350 C   0  0  0  0  0  3  0  0  0  0  0  0
  195.0520  172.5150  139.0760 C   0  0  0  0  0  0  0  0  0  0  0  0
  194.8260  174.9210  138.9130 C   0  0  0  0  0  3  0  0  0  0  0  0
  188.0510  173.1740  141.6470 C   0  0  0  0  0  1  0  0  0  0  0  0
  188.9570  174.1790  142.0800 O   0  0  0  0  0  0  0  0  0  0  0  0
  194.6880  172.8830  143.4090 C   0  0  0  0  0  2  0  0  0  0  0  0
  196.1240  173.1200  145.6040 C   0  0  0  0  0  1  0  0  0  0  0  0
  194.6910  172.1410  145.0700 S   0  0  0  0  0  0  0  0  0  0  0  0
  1  4  1  0  0  0  0
  1 13  1  0  0  0  0
  2  9  1  6  0  0  0
  2 17  1  0  0  0  0
  2 14  1  0  0  0  0
  3 25  1  1  0  0  0
  3 19  1  0  0  0  0
  4 15  1  6  0  0  0
  4  8  1  0  0  0  0
  4  9  1  0  0  0  0
  5 27  1  6  0  0  0
  5 22  1  0  0  0  0
  7 20  1  0  0  0  0
 10 21  1  0  0  0  0
 11  6  1  0  0  0  0
 12 15  1  0  0  0  0
 12 24  1  0  0  0  0
 13 10  1  0  0  0  0
 14 23  1  0  0  0  0
 16 11  2  0  0  0  0
 18  5  1  0  0  0  0
 18  7  1  0  0  0  0
 19 10  2  0  0  0  0
 19 16  1  0  0  0  0
 20  1  2  0  0  0  0
 21  6  2  0  0  0  0
 21 23  1  0  0  0  0
 22 35  1  6  0  0  0
 22  3  1  0  0  0  0
 23 17  1  6  0  0  0
 24  8  1  0  0  0  0
 26 27  1  0  0  0  0
 28 27  2  0  0  0  0
 29 31  1  0  0  0  0
 30 32  1  0  0  0  0
 30 31  2  0  0  0  0
 31 28  1  0  0  0  0
 32 26  2  0  0  0  0
 33 34  1  0  0  0  0
 34 20  1  0  0  0  0
 35 37  1  0  0  0  0
 37 36  1  0  0  0  0
M  END
>  <MODEL>
3

>  <REMARK>
 VINA RESULT:      -7.5      2.443      5.367
  Name = 
  4 active torsions:
  status: ('A' for Active; 'I' for Inactive)
    1  A    between atoms: C_6  and  C_7
    2  A    between atoms: C_14  and  C_31
    3  A    between atoms: C_14  and  S_37
    4  A    between atoms: C_29  and  O_33
                            x       y       z     vdW  Elec       q    Type
                         _______ _______ _______ _____ _____    ______ ____

>  <TORSDO>
F 4

$$$$
=
 OpenBabel11052419583D

 37 42  0  0  1  0  0  0  0  0999 V2000
  191.1830  176.1100  145.5440 C   0  0  0  0  0  0  0  0  0  0  0  0
  188.3280  177.7570  144.8050 C   0  0  2  0  0  3  0  0  0  0  0  0
  192.4890  173.6680  143.4940 C   0  0  2  0  0  3  0  0  0  0  0  0
  189.7380  175.7840  145.9770 C   0  0  2  0  0  0  0  0  0  0  0  0
  194.0790  174.3450  145.3100 C   0  0  1  0  0  3  0  0  0  0  0  0
  189.1630  175.3120  141.2870 C   0  0  0  0  0  3  0  0  0  0  0  0
  193.5580  176.7690  145.9200 C   0  0  0  0  0  2  0  0  0  0  0  0
  189.1500  174.8650  145.1040 O   0  0  0  0  0  0  0  0  0  0  0  0
  188.8820  177.0670  146.0770 C   0  0  0  0  0  2  0  0  0  0  0  0
  190.8170  175.5770  143.0500 C   0  0  0  0  0  0  0  0  0  0  0  0
  189.7670  174.1260  140.8870 C   0  0  0  0  0  3  0  0  0  0  0  0
  189.2370  173.7920  147.1270 O   0  0  0  0  0  0  0  0  0  0  0  0
  191.4760  176.4290  144.0940 C   0  0  0  0  0  2  0  0  0  0  0  0
  187.7410  176.8140  143.7730 C   0  0  0  0  0  2  0  0  0  0  0  0
  189.6690  175.1010  147.3270 C   0  0  0  0  0  2  0  0  0  0  0  0
  190.8650  173.6350  141.5860 C   0  0  0  0  0  3  0  0  0  0  0  0
  189.3870  178.1980  143.8120 C   0  0  0  0  0  2  0  0  0  0  0  0
  194.5600  175.6150  146.0150 C   0  0  0  0  0  2  0  0  0  0  0  0
  191.4050  174.3380  142.6710 C   0  0  0  0  0  0  0  0  0  0  0  0
  192.1800  176.3960  146.4270 C   0  0  0  0  0  0  0  0  0  0  0  0
  189.6560  176.0480  142.3690 C   0  0  0  0  0  0  0  0  0  0  0  0
  193.6780  174.5660  143.8460 C   0  0  1  0  0  3  0  0  0  0  0  0
  188.8070  177.2420  142.7750 C   0  0  1  0  0  3  0  0  0  0  0  0
  189.2730  173.6250  145.7410 C   0  0  0  0  0  2  0  0  0  0  0  0
  192.9120  172.4510  142.9450 O   0  0  0  0  0  1  0  0  0  0  0  0
  196.3740  173.3010  145.5450 C   0  0  0  0  0  3  0  0  0  0  0  0
  194.9770  173.1660  145.5460 C   0  0  0  0  0  0  0  0  0  0  0  0
  194.4040  171.9060  145.7510 C   0  0  0  0  0  3  0  0  0  0  0  0
  194.6600  169.5710  146.1570 F   0  0  0  0  0  0  0  0  0  0  0  0
  196.6110  170.9270  145.9580 C   0  0  0  0  0  3  0  0  0  0  0  0
  195.2190  170.7890  145.9580 C   0  0  0  0  0  0  0  0  0  0  0  0
  197.1880  172.1830  145.7510 C   0  0  0  0  0  3  0  0  0  0  0  0
  191.7380  177.5370  148.5820 C   0  0  0  0  0  1  0  0  0  0  0  0
  191.9520  176.3660  147.8070 O   0  0  0  0  0  0  0  0  0  0  0  0
  194.8370  174.5270  142.8490 C   0  0  0  0  0  2  0  0  0  0  0  0
  196.6870  176.3870  143.0810 C   0  0  0  0  0  1  0  0  0  0  0  0
  195.1430  176.1770  142.1480 S   0  0  0  0  0  0  0  0  0  0  0  0
  1  4  1  0  0  0  0
  1 20  2  0  0  0  0
  2 14  1  6  0  0  0
  2  9  1  0  0  0  0
  3 25  1  6  0  0  0
  3 22  1  0  0  0  0
  4  9  1  1  0  0  0
  4 15  1  0  0  0  0
  5 27  1  6  0  0  0
  5 18  1  0  0  0  0
  6 21  1  0  0  0  0
  7 18  1  0  0  0  0
  7 20  1  0  0  0  0
  8 24  1  0  0  0  0
  8  4  1  0  0  0  0
 10 13  1  0  0  0  0
 11  6  2  0  0  0  0
 11 16  1  0  0  0  0
 12 15  1  0  0  0  0
 13  1  1  0  0  0  0
 16 19  2  0  0  0  0
 17  2  1  0  0  0  0
 19 10  1  0  0  0  0
 19  3  1  0  0  0  0
 20 34  1  0  0  0  0
 21 23  1  0  0  0  0
 21 10  2  0  0  0  0
 22 35  1  6  0  0  0
 22  5  1  0  0  0  0
 23 14  1  1  0  0  0
 23 17  1  0  0  0  0
 24 12  1  0  0  0  0
 26 27  2  0  0  0  0
 26 32  1  0  0  0  0
 27 28  1  0  0  0  0
 28 31  2  0  0  0  0
 30 31  1  0  0  0  0
 31 29  1  0  0  0  0
 32 30  2  0  0  0  0
 34 33  1  0  0  0  0
 37 35  1  0  0  0  0
 37 36  1  0  0  0  0
M  END
>  <MODEL>
4

>  <REMARK>
 VINA RESULT:      -7.4      1.419      1.830
  Name = 
  4 active torsions:
  status: ('A' for Active; 'I' for Inactive)
    1  A    between atoms: C_6  and  C_7
    2  A    between atoms: C_14  and  C_31
    3  A    between atoms: C_14  and  S_37
    4  A    between atoms: C_29  and  O_33
                            x       y       z     vdW  Elec       q    Type
                         _______ _______ _______ _____ _____    ______ ____

>  <TORSDO>
F 4

$$$$
=
 OpenBabel11052419583D

 37 42  0  0  1  0  0  0  0  0999 V2000
  189.6890  174.8770  143.6950 C   0  0  0  0  0  0  0  0  0  0  0  0
  188.3070  176.2740  146.4420 C   0  0  2  0  0  3  0  0  0  0  0  0
  193.0970  174.7670  143.1950 C   0  0  2  0  0  3  0  0  0  0  0  0
  189.1850  176.3210  143.8960 C   0  0  2  0  0  0  0  0  0  0  0  0
  191.8420  173.3590  141.5450 C   0  0  1  0  0  3  0  0  0  0  0  0
  192.6060  176.3340  147.1880 C   0  0  0  0  0  3  0  0  0  0  0  0
  189.6780  172.6040  142.6700 C   0  0  0  0  0  2  0  0  0  0  0  0
  190.2280  177.1650  144.2870 O   0  0  0  0  0  0  0  0  0  0  0  0
  188.0290  176.3720  144.9210 C   0  0  0  0  0  2  0  0  0  0  0  0
  191.6770  175.0830  145.3220 C   0  0  0  0  0  0  0  0  0  0  0  0
  193.8370  176.3970  146.5440 C   0  0  0  0  0  3  0  0  0  0  0  0
  189.5410  177.9700  142.2540 O   0  0  0  0  0  0  0  0  0  0  0  0
  190.5780  174.2410  144.7420 C   0  0  0  0  0  2  0  0  0  0  0  0
  189.4780  177.1060  146.9300 C   0  0  0  0  0  2  0  0  0  0  0  0
  188.6690  176.9470  142.6170 C   0  0  0  0  0  2  0  0  0  0  0  0
  193.9860  175.8480  145.2750 C   0  0  0  0  0  3  0  0  0  0  0  0
  189.0160  175.0060  146.8750 C   0  0  0  0  0  2  0  0  0  0  0  0
  190.6550  172.3940  141.5100 C   0  0  0  0  0  2  0  0  0  0  0  0
  192.9220  175.1910  144.6420 C   0  0  0  0  0  0  0  0  0  0  0  0
  189.1720  174.0280  142.7640 C   0  0  0  0  0  0  0  0  0  0  0  0
  191.5100  175.6980  146.5970 C   0  0  0  0  0  0  0  0  0  0  0  0
  192.6050  173.3530  142.8750 C   0  0  1  0  0  3  0  0  0  0  0  0
  190.2010  175.8370  147.3570 C   0  0  1  0  0  3  0  0  0  0  0  0
  190.6310  177.8170  143.1150 C   0  0  0  0  0  2  0  0  0  0  0  0
  194.3990  174.9740  142.7240 O   0  0  0  0  0  1  0  0  0  0  0  0
  193.3080  174.4130  139.7710 C   0  0  0  0  0  3  0  0  0  0  0  0
  192.7060  173.2710  140.3220 C   0  0  0  0  0  0  0  0  0  0  0  0
  192.8950  172.0260  139.7100 C   0  0  0  0  0  3  0  0  0  0  0  0
  193.8630  170.7140  137.9720 F   0  0  0  0  0  0  0  0  0  0  0  0
  194.2830  173.0600  138.0150 C   0  0  0  0  0  3  0  0  0  0  0  0
  193.6830  171.9200  138.5600 C   0  0  0  0  0  0  0  0  0  0  0  0
  194.0960  174.3060  138.6200 C   0  0  0  0  0  3  0  0  0  0  0  0
  188.3450  174.5430  140.4850 C   0  0  0  0  0  1  0  0  0  0  0  0
  188.1610  174.4460  141.8900 O   0  0  0  0  0  0  0  0  0  0  0  0
  193.6610  172.2540  143.0050 C   0  0  0  0  0  2  0  0  0  0  0  0
  194.5170  171.9680  145.4800 C   0  0  0  0  0  1  0  0  0  0  0  0
  193.2880  171.1630  144.4120 S   0  0  0  0  0  0  0  0  0  0  0  0
  1  4  1  0  0  0  0
  1 13  1  0  0  0  0
  2  9  1  6  0  0  0
  2 17  1  0  0  0  0
  2 14  1  0  0  0  0
  3 25  1  1  0  0  0
  3 19  1  0  0  0  0
  4 15  1  6  0  0  0
  4  8  1  0  0  0  0
  4  9  1  0  0  0  0
  5 27  1  6  0  0  0
  5 22  1  0  0  0  0
  7 20  1  0  0  0  0
 10 21  2  0  0  0  0
 11  6  2  0  0  0  0
 12 15  1  0  0  0  0
 12 24  1  0  0  0  0
 13 10  1  0  0  0  0
 14 23  1  0  0  0  0
 16 11  1  0  0  0  0
 18  5  1  0  0  0  0
 18  7  1  0  0  0  0
 19 16  2  0  0  0  0
 19 10  1  0  0  0  0
 20  1  2  0  0  0  0
 21  6  1  0  0  0  0
 21 23  1  0  0  0  0
 22 35  1  6  0  0  0
 22  3  1  0  0  0  0
 23 17  1  6  0  0  0
 24  8  1  0  0  0  0
 26 27  1  0  0  0  0
 28 27  2  0  0  0  0
 29 31  1  0  0  0  0
 30 31  2  0  0  0  0
 30 32  1  0  0  0  0
 31 28  1  0  0  0  0
 32 26  2  0  0  0  0
 33 34  1  0  0  0  0
 34 20  1  0  0  0  0
 35 37  1  0  0  0  0
 37 36  1  0  0  0  0
M  END
>  <MODEL>
5

>  <REMARK>
 VINA RESULT:      -7.2      2.468      5.388
  Name = 
  4 active torsions:
  status: ('A' for Active; 'I' for Inactive)
    1  A    between atoms: C_6  and  C_7
    2  A    between atoms: C_14  and  C_31
    3  A    between atoms: C_14  and  S_37
    4  A    between atoms: C_29  and  O_33
                            x       y       z     vdW  Elec       q    Type
                         _______ _______ _______ _____ _____    ______ ____

>  <TORSDO>
F 4

$$$$
=
 OpenBabel11052419583D

 37 42  0  0  1  0  0  0  0  0999 V2000
  191.9270  174.9040  144.5080 C   0  0  0  0  0  0  0  0  0  0  0  0
  193.8090  176.6340  146.7150 C   0  0  2  0  0  3  0  0  0  0  0  0
  192.8230  174.5440  141.2000 C   0  0  2  0  0  3  0  0  0  0  0  0
  191.8200  176.3880  144.9150 C   0  0  2  0  0  0  0  0  0  0  0  0
  190.9050  173.0630  141.8390 C   0  0  1  0  0  3  0  0  0  0  0  0
  196.1890  176.5090  143.0590 C   0  0  0  0  0  3  0  0  0  0  0  0
  191.1290  172.5480  144.3290 C   0  0  0  0  0  2  0  0  0  0  0  0
  192.5360  177.2010  144.0340 O   0  0  0  0  0  0  0  0  0  0  0  0
  192.2990  176.6040  146.3700 C   0  0  0  0  0  2  0  0  0  0  0  0
  194.1900  175.1440  143.3000 C   0  0  0  0  0  0  0  0  0  0  0  0
  196.0810  176.4370  141.6750 C   0  0  0  0  0  3  0  0  0  0  0  0
  190.3510  177.8490  143.7990 O   0  0  0  0  0  0  0  0  0  0  0  0
  193.2780  174.3180  144.1590 C   0  0  0  0  0  2  0  0  0  0  0  0
  194.6660  177.4380  145.7560 C   0  0  0  0  0  2  0  0  0  0  0  0
  190.4040  176.9190  144.8330 C   0  0  0  0  0  2  0  0  0  0  0  0
  195.0110  175.7620  141.0950 C   0  0  0  0  0  3  0  0  0  0  0  0
  194.5670  175.3730  146.3500 C   0  0  0  0  0  2  0  0  0  0  0  0
  190.4650  172.1710  143.0020 C   0  0  0  0  0  2  0  0  0  0  0  0
  194.0530  175.1130  141.8850 C   0  0  0  0  0  0  0  0  0  0  0  0
  190.9240  174.0030  144.6990 C   0  0  0  0  0  0  0  0  0  0  0  0
  195.2540  175.8860  143.8930 C   0  0  0  0  0  0  0  0  0  0  0  0
  192.4260  173.1380  141.6570 C   0  0  1  0  0  3  0  0  0  0  0  0
  195.4240  176.1740  145.3760 C   0  0  1  0  0  3  0  0  0  0  0  0
  191.5810  177.7140  143.1490 C   0  0  0  0  0  2  0  0  0  0  0  0
  192.8930  174.6280  139.8040 O   0  0  0  0  0  1  0  0  0  0  0  0
  190.1760  171.5610  139.9350 C   0  0  0  0  0  3  0  0  0  0  0  0
  190.1310  172.8080  140.5790 C   0  0  0  0  0  0  0  0  0  0  0  0
  189.3680  173.8430  140.0270 C   0  0  0  0  0  3  0  0  0  0  0  0
  187.9140  174.6400  138.3160 F   0  0  0  0  0  0  0  0  0  0  0  0
  188.6970  172.3910  138.2080 C   0  0  0  0  0  3  0  0  0  0  0  0
  188.6510  173.6350  138.8450 C   0  0  0  0  0  0  0  0  0  0  0  0
  189.4590  171.3550  138.7530 C   0  0  0  0  0  3  0  0  0  0  0  0
  189.3550  174.1840  146.6090 C   0  0  0  0  0  1  0  0  0  0  0  0
  189.6970  174.3950  145.2470 O   0  0  0  0  0  0  0  0  0  0  0  0
  193.0330  171.9950  140.8410 C   0  0  0  0  0  2  0  0  0  0  0  0
  195.3600  171.7080  142.0390 C   0  0  0  0  0  1  0  0  0  0  0  0
  193.8120  170.7660  141.9320 S   0  0  0  0  0  0  0  0  0  0  0  0
  1 20  2  0  0  0  0
  1  4  1  0  0  0  0
  2 14  1  6  0  0  0
  3 25  1  6  0  0  0
  3 22  1  0  0  0  0
  3 19  1  0  0  0  0
  4 15  1  6  0  0  0
  4  9  1  0  0  0  0
  5 27  1  6  0  0  0
  5 18  1  0  0  0  0
  6 21  1  0  0  0  0
  7 20  1  0  0  0  0
  8  4  1  0  0  0  0
  9  2  1  0  0  0  0
 10 21  2  0  0  0  0
 10 13  1  0  0  0  0
 11  6  2  0  0  0  0
 12 15  1  0  0  0  0
 13  1  1  0  0  0  0
 16 11  1  0  0  0  0
 16 19  2  0  0  0  0
 17  2  1  0  0  0  0
 18  7  1  0  0  0  0
 19 10  1  0  0  0  0
 20 34  1  0  0  0  0
 21 23  1  0  0  0  0
 22 35  1  6  0  0  0
 22  5  1  0  0  0  0
 23 14  1  6  0  0  0
 23 17  1  0  0  0  0
 24 12  1  0  0  0  0
 24  8  1  0  0  0  0
 26 27  1  0  0  0  0
 28 27  2  0  0  0  0
 29 31  1  0  0  0  0
 30 32  1  0  0  0  0
 30 31  2  0  0  0  0
 31 28  1  0  0  0  0
 32 26  2  0  0  0  0
 34 33  1  0  0  0  0
 35 37  1  0  0  0  0
 37 36  1  0  0  0  0
M  END
>  <MODEL>
6

>  <REMARK>
 VINA RESULT:      -7.0      2.966      6.035
  Name = 
  4 active torsions:
  status: ('A' for Active; 'I' for Inactive)
    1  A    between atoms: C_6  and  C_7
    2  A    between atoms: C_14  and  C_31
    3  A    between atoms: C_14  and  S_37
    4  A    between atoms: C_29  and  O_33
                            x       y       z     vdW  Elec       q    Type
                         _______ _______ _______ _____ _____    ______ ____

>  <TORSDO>
F 4

$$$$
=
 OpenBabel11052419583D

 37 42  0  0  1  0  0  0  0  0999 V2000
  193.5740  174.2780  143.0540 C   0  0  0  0  0  0  0  0  0  0  0  0
  194.5660  176.3750  145.5080 C   0  0  2  0  0  3  0  0  0  0  0  0
  190.5880  172.5640  143.1840 C   0  0  2  0  0  3  0  0  0  0  0  0
  194.4610  173.9790  144.2810 C   0  0  2  0  0  0  0  0  0  0  0  0
  191.6880  172.4010  140.9370 C   0  0  1  0  0  3  0  0  0  0  0  0
  190.5000  175.2140  146.5910 C   0  0  0  0  0  3  0  0  0  0  0  0
  193.0940  174.5070  140.6170 C   0  0  0  0  0  2  0  0  0  0  0  0
  193.6970  173.4860  145.3410 O   0  0  0  0  0  0  0  0  0  0  0  0
  195.2530  175.2340  144.7160 C   0  0  0  0  0  2  0  0  0  0  0  0
  191.4150  174.6770  144.4030 C   0  0  0  0  0  0  0  0  0  0  0  0
  189.5790  174.1800  146.4680 C   0  0  0  0  0  3  0  0  0  0  0  0
  195.1250  171.7800  144.7920 O   0  0  0  0  0  0  0  0  0  0  0  0
  192.2810  175.0420  143.2320 C   0  0  0  0  0  2  0  0  0  0  0  0
  193.6570  175.9120  146.6310 C   0  0  0  0  0  2  0  0  0  0  0  0
  195.4750  172.8850  144.0210 C   0  0  0  0  0  2  0  0  0  0  0  0
  189.5960  173.3640  145.3420 C   0  0  0  0  0  3  0  0  0  0  0  0
  193.3850  177.0130  144.8040 C   0  0  0  0  0  2  0  0  0  0  0  0
  192.4470  173.2910  139.9510 C   0  0  0  0  0  2  0  0  0  0  0  0
  190.5060  173.5890  144.3000 C   0  0  0  0  0  0  0  0  0  0  0  0
  194.0040  174.1340  141.7690 C   0  0  0  0  0  0  0  0  0  0  0  0
  191.4350  175.4750  145.5840 C   0  0  0  0  0  0  0  0  0  0  0  0
  190.6430  173.1530  141.7720 C   0  0  1  0  0  3  0  0  0  0  0  0
  192.4650  176.5410  145.9240 C   0  0  1  0  0  3  0  0  0  0  0  0
  193.8610  172.0960  145.2950 C   0  0  0  0  0  2  0  0  0  0  0  0
  189.6040  171.5720  143.2850 O   0  0  0  0  0  1  0  0  0  0  0  0
  191.3870  169.8870  140.9590 C   0  0  0  0  0  3  0  0  0  0  0  0
  191.2000  171.1230  140.3200 C   0  0  0  0  0  0  0  0  0  0  0  0
  190.5660  171.1680  139.0730 C   0  0  0  0  0  3  0  0  0  0  0  0
  189.5030  170.0390  137.2640 F   0  0  0  0  0  0  0  0  0  0  0  0
  190.3030  168.7600  139.1100 C   0  0  0  0  0  3  0  0  0  0  0  0
  190.1170  169.9900  138.4700 C   0  0  0  0  0  0  0  0  0  0  0  0
  190.9370  168.7090  140.3540 C   0  0  0  0  0  3  0  0  0  0  0  0
  196.2020  174.3410  140.6440 C   0  0  0  0  0  1  0  0  0  0  0  0
  195.2890  173.6550  141.4880 O   0  0  0  0  0  0  0  0  0  0  0  0
  189.2860  173.3350  141.0910 C   0  0  0  0  0  2  0  0  0  0  0  0
  187.5180  174.7900  142.3920 C   0  0  0  0  0  1  0  0  0  0  0  0
  188.7790  175.0810  141.1180 S   0  0  0  0  0  0  0  0  0  0  0  0
  1 13  1  0  0  0  0
  1  4  1  0  0  0  0
  2  9  1  6  0  0  0
  2 14  1  0  0  0  0
  3 25  1  6  0  0  0
  3 19  1  0  0  0  0
  4 15  1  6  0  0  0
  4  9  1  0  0  0  0
  4  8  1  0  0  0  0
  5 27  1  6  0  0  0
  5 22  1  0  0  0  0
  7 20  1  0  0  0  0
 10 21  1  0  0  0  0
 11  6  1  0  0  0  0
 12 24  1  0  0  0  0
 13 10  1  0  0  0  0
 15 12  1  0  0  0  0
 16 11  2  0  0  0  0
 17  2  1  0  0  0  0
 18  7  1  0  0  0  0
 18  5  1  0  0  0  0
 19 10  2  0  0  0  0
 19 16  1  0  0  0  0
 20  1  2  0  0  0  0
 21 23  1  0  0  0  0
 21  6  2  0  0  0  0
 22 35  1  6  0  0  0
 22  3  1  0  0  0  0
 23 17  1  6  0  0  0
 23 14  1  0  0  0  0
 24  8  1  0  0  0  0
 27 26  2  0  0  0  0
 28 27  1  0  0  0  0
 29 31  1  0  0  0  0
 30 32  2  0  0  0  0
 31 28  2  0  0  0  0
 31 30  1  0  0  0  0
 32 26  1  0  0  0  0
 33 34  1  0  0  0  0
 34 20  1  0  0  0  0
 35 37  1  0  0  0  0
 37 36  1  0  0  0  0
M  END
>  <MODEL>
7

>  <REMARK>
 VINA RESULT:      -6.7      3.049      5.538
  Name = 
  4 active torsions:
  status: ('A' for Active; 'I' for Inactive)
    1  A    between atoms: C_6  and  C_7
    2  A    between atoms: C_14  and  C_31
    3  A    between atoms: C_14  and  S_37
    4  A    between atoms: C_29  and  O_33
                            x       y       z     vdW  Elec       q    Type
                         _______ _______ _______ _____ _____    ______ ____

>  <TORSDO>
F 4

$$$$
=
 OpenBabel11052419583D

 37 42  0  0  1  0  0  0  0  0999 V2000
  193.8910  174.9920  144.5600 C   0  0  0  0  0  0  0  0  0  0  0  0
  196.5270  172.8860  144.7260 C   0  0  2  0  0  3  0  0  0  0  0  0
  190.8090  174.0020  143.3800 C   0  0  2  0  0  3  0  0  0  0  0  0
  195.0060  174.7550  143.5200 C   0  0  2  0  0  0  0  0  0  0  0  0
  190.7400  176.2640  144.4580 C   0  0  1  0  0  3  0  0  0  0  0  0
  193.1560  170.3820  143.5370 C   0  0  0  0  0  3  0  0  0  0  0  0
  192.5930  176.3340  146.2130 C   0  0  0  0  0  2  0  0  0  0  0  0
  194.6140  173.8050  142.5750 O   0  0  0  0  0  0  0  0  0  0  0  0
  196.3270  174.3320  144.2050 C   0  0  0  0  0  2  0  0  0  0  0  0
  192.8130  172.6670  144.2960 C   0  0  0  0  0  0  0  0  0  0  0  0
  191.9420  170.4160  142.8610 C   0  0  0  0  0  3  0  0  0  0  0  0
  194.9050  175.7430  141.3860 O   0  0  0  0  0  0  0  0  0  0  0  0
  193.1940  173.8080  145.1930 C   0  0  0  0  0  2  0  0  0  0  0  0
  196.0520  171.7980  143.7820 C   0  0  0  0  0  2  0  0  0  0  0  0
  195.3120  175.9870  142.6950 C   0  0  0  0  0  2  0  0  0  0  0  0
  191.1800  171.5790  142.8580 C   0  0  0  0  0  3  0  0  0  0  0  0
  195.5140  172.4410  145.7620 C   0  0  0  0  0  2  0  0  0  0  0  0
  191.3130  176.9840  145.6810 C   0  0  0  0  0  2  0  0  0  0  0  0
  191.5950  172.7170  143.5630 C   0  0  0  0  0  0  0  0  0  0  0  0
  193.6680  176.1970  145.1540 C   0  0  0  0  0  0  0  0  0  0  0  0
  193.6210  171.4930  144.2480 C   0  0  0  0  0  0  0  0  0  0  0  0
  190.5100  174.7630  144.6750 C   0  0  1  0  0  3  0  0  0  0  0  0
  195.0250  171.3520  144.8130 C   0  0  1  0  0  3  0  0  0  0  0  0
  194.1890  174.5460  141.4660 C   0  0  0  0  0  2  0  0  0  0  0  0
  189.6510  173.8240  142.6130 O   0  0  0  0  0  1  0  0  0  0  0  0
  189.4990  177.1630  142.4430 C   0  0  0  0  0  3  0  0  0  0  0  0
  189.5880  176.9940  143.8330 C   0  0  0  0  0  0  0  0  0  0  0  0
  188.5960  177.5340  144.6600 C   0  0  0  0  0  3  0  0  0  0  0  0
  186.5620  178.7530  144.9070 F   0  0  0  0  0  0  0  0  0  0  0  0
  187.4340  178.3970  142.7170 C   0  0  0  0  0  3  0  0  0  0  0  0
  187.5200  178.2330  144.1030 C   0  0  0  0  0  0  0  0  0  0  0  0
  188.4230  177.8620  141.8870 C   0  0  0  0  0  3  0  0  0  0  0  0
  195.1730  178.0700  145.7630 C   0  0  0  0  0  1  0  0  0  0  0  0
  194.4280  177.3210  144.8120 O   0  0  0  0  0  0  0  0  0  0  0  0
  189.1830  174.4070  145.3460 C   0  0  0  0  0  2  0  0  0  0  0  0
  187.9260  175.7030  147.2630 C   0  0  0  0  0  1  0  0  0  0  0  0
  189.3170  174.5410  147.1550 S   0  0  0  0  0  0  0  0  0  0  0  0
  1 20  2  0  0  0  0
  1 13  1  0  0  0  0
  2 14  1  6  0  0  0
  2 17  1  0  0  0  0
  3 25  1  1  0  0  0
  3 19  1  0  0  0  0
  3 22  1  0  0  0  0
  4 15  1  6  0  0  0
  4  9  1  0  0  0  0
  4  1  1  0  0  0  0
  5 27  1  1  0  0  0
  5 22  1  0  0  0  0
  5 18  1  0  0  0  0
  6 21  1  0  0  0  0
  8  4  1  0  0  0  0
  9  2  1  0  0  0  0
 10 13  1  0  0  0  0
 11  6  2  0  0  0  0
 12 24  1  0  0  0  0
 12 15  1  0  0  0  0
 16 11  1  0  0  0  0
 16 19  2  0  0  0  0
 18  7  1  0  0  0  0
 19 10  1  0  0  0  0
 20  7  1  0  0  0  0
 21 10  2  0  0  0  0
 21 23  1  0  0  0  0
 22 35  1  6  0  0  0
 23 14  1  6  0  0  0
 23 17  1  0  0  0  0
 24  8  1  0  0  0  0
 26 27  1  0  0  0  0
 27 28  2  0  0  0  0
 30 31  2  0  0  0  0
 31 28  1  0  0  0  0
 31 29  1  0  0  0  0
 32 26  2  0  0  0  0
 32 30  1  0  0  0  0
 34 20  1  0  0  0  0
 34 33  1  0  0  0  0
 35 37  1  0  0  0  0
 37 36  1  0  0  0  0
M  END
>  <MODEL>
8

>  <REMARK>
 VINA RESULT:      -6.6      3.053      6.830
  Name = 
  4 active torsions:
  status: ('A' for Active; 'I' for Inactive)
    1  A    between atoms: C_6  and  C_7
    2  A    between atoms: C_14  and  C_31
    3  A    between atoms: C_14  and  S_37
    4  A    between atoms: C_29  and  O_33
                            x       y       z     vdW  Elec       q    Type
                         _______ _______ _______ _____ _____    ______ ____

>  <TORSDO>
F 4

$$$$
=
 OpenBabel11052419583D

 37 42  0  0  1  0  0  0  0  0999 V2000
  193.3910  174.4830  145.2600 C   0  0  0  0  0  0  0  0  0  0  0  0
  196.3240  172.9210  145.8590 C   0  0  2  0  0  3  0  0  0  0  0  0
  191.8320  174.3710  142.1880 C   0  0  2  0  0  3  0  0  0  0  0  0
  194.8240  175.0450  145.1550 C   0  0  2  0  0  0  0  0  0  0  0  0
  190.3680  175.3540  143.9690 C   0  0  1  0  0  3  0  0  0  0  0  0
  195.1780  171.6640  141.8400 C   0  0  0  0  0  3  0  0  0  0  0  0
  191.0850  174.3390  146.1990 C   0  0  0  0  0  2  0  0  0  0  0  0
  195.3090  174.9370  143.8500 O   0  0  0  0  0  0  0  0  0  0  0  0
  195.7740  174.3400  146.1510 C   0  0  0  0  0  2  0  0  0  0  0  0
  193.6180  172.8620  143.2700 C   0  0  0  0  0  0  0  0  0  0  0  0
  194.4750  172.0770  140.7140 C   0  0  0  0  0  3  0  0  0  0  0  0
  195.2260  177.1880  144.2700 O   0  0  0  0  0  0  0  0  0  0  0  0
  193.0640  173.1440  144.6360 C   0  0  0  0  0  2  0  0  0  0  0  0
  196.8010  172.7040  144.4360 C   0  0  0  0  0  2  0  0  0  0  0  0
  194.8970  176.5280  145.4510 C   0  0  0  0  0  2  0  0  0  0  0  0
  193.3730  172.9150  140.8510 C   0  0  0  0  0  3  0  0  0  0  0  0
  195.2620  171.8550  145.6750 C   0  0  0  0  0  2  0  0  0  0  0  0
  190.0080  175.1150  145.4370 C   0  0  0  0  0  2  0  0  0  0  0  0
  192.9280  173.3240  142.1160 C   0  0  0  0  0  0  0  0  0  0  0  0
  192.4520  174.9860  146.1100 C   0  0  0  0  0  0  0  0  0  0  0  0
  194.7820  172.0510  143.1250 C   0  0  0  0  0  0  0  0  0  0  0  0
  190.7250  174.0740  143.2040 C   0  0  1  0  0  3  0  0  0  0  0  0
  195.7300  171.6410  144.2400 C   0  0  1  0  0  3  0  0  0  0  0  0
  195.1230  176.2030  143.2840 C   0  0  0  0  0  2  0  0  0  0  0  0
  191.3020  174.6880  140.9320 O   0  0  0  0  0  1  0  0  0  0  0  0
  189.8360  177.3940  142.5660 C   0  0  0  0  0  3  0  0  0  0  0  0
  189.3980  176.2590  143.2660 C   0  0  0  0  0  0  0  0  0  0  0  0
  188.0300  175.9720  143.3320 C   0  0  0  0  0  3  0  0  0  0  0  0
  185.7830  176.5250  142.7650 F   0  0  0  0  0  0  0  0  0  0  0  0
  187.5460  177.9370  142.0000 C   0  0  0  0  0  3  0  0  0  0  0  0
  187.1050  176.8080  142.6990 C   0  0  0  0  0  0  0  0  0  0  0  0
  188.9110  178.2290  141.9340 C   0  0  0  0  0  3  0  0  0  0  0  0
  191.8300  176.5750  147.9060 C   0  0  0  0  0  1  0  0  0  0  0  0
  192.7320  176.0910  146.9210 O   0  0  0  0  0  0  0  0  0  0  0  0
  189.5280  173.3000  142.6500 C   0  0  0  0  0  2  0  0  0  0  0  0
  190.3070  170.8330  142.1590 C   0  0  0  0  0  1  0  0  0  0  0  0
  189.3730  171.6810  143.4650 S   0  0  0  0  0  0  0  0  0  0  0  0
  1 20  2  0  0  0  0
  2 14  1  6  0  0  0
  2  9  1  0  0  0  0
  3 25  1  6  0  0  0
  3 22  1  0  0  0  0
  4  1  1  0  0  0  0
  4 15  1  1  0  0  0
  4  9  1  0  0  0  0
  5 27  1  6  0  0  0
  5 18  1  0  0  0  0
  6 21  1  0  0  0  0
  8  4  1  0  0  0  0
 10 13  1  0  0  0  0
 11 16  1  0  0  0  0
 11  6  2  0  0  0  0
 12 15  1  0  0  0  0
 13  1  1  0  0  0  0
 16 19  2  0  0  0  0
 17  2  1  0  0  0  0
 18  7  1  0  0  0  0
 19  3  1  0  0  0  0
 19 10  1  0  0  0  0
 20  7  1  0  0  0  0
 20 34  1  0  0  0  0
 21 10  2  0  0  0  0
 21 23  1  0  0  0  0
 22 35  1  6  0  0  0
 22  5  1  0  0  0  0
 23 14  1  6  0  0  0
 23 17  1  0  0  0  0
 24  8  1  0  0  0  0
 24 12  1  0  0  0  0
 26 27  1  0  0  0  0
 27 28  2  0  0  0  0
 30 31  2  0  0  0  0
 31 29  1  0  0  0  0
 31 28  1  0  0  0  0
 32 30  1  0  0  0  0
 32 26  2  0  0  0  0
 34 33  1  0  0  0  0
 35 37  1  0  0  0  0
 36 37  1  0  0  0  0
M  END
>  <MODEL>
9

>  <REMARK>
 VINA RESULT:      -6.5      2.747      6.630
  Name = 
  4 active torsions:
  status: ('A' for Active; 'I' for Inactive)
    1  A    between atoms: C_6  and  C_7
    2  A    between atoms: C_14  and  C_31
    3  A    between atoms: C_14  and  S_37
    4  A    between atoms: C_29  and  O_33
                            x       y       z     vdW  Elec       q    Type
                         _______ _______ _______ _____ _____    ______ ____

>  <TORSDO>
F 4

$$$$
