=
 OpenBabel11052417513D

 31 34  0  0  1  0  0  0  0  0999 V2000
  191.0650  173.8350  141.0510 C   0  0  2  0  0  3  0  0  0  0  0  0
  190.0130  175.6170  142.4310 C   0  0  1  0  0  3  0  0  0  0  0  0
  189.9720  173.0140  141.3630 O   0  0  0  0  0  0  0  0  0  0  0  0
  192.3020  172.9830  140.8570 C   0  0  0  0  0  1  0  0  0  0  0  0
  191.3040  174.8250  142.1840 C   0  0  0  0  0  2  0  0  0  0  0  0
  188.8400  174.7290  142.5080 N   0  0  0  0  0  0  0  0  0  0  0  0
  188.8450  173.8500  141.3350 C   0  0  0  0  0  2  0  0  0  0  0  0
  190.1340  176.5130  143.6800 C   0  0  2  0  0  3  0  0  0  0  0  0
  190.1930  177.8640  143.3260 O   0  0  0  0  0  1  0  0  0  0  0  0
  191.2670  176.1540  144.6070 C   0  0  0  0  0  0  0  0  0  0  0  0
  193.5600  176.4920  145.3460 C   0  0  0  0  0  3  0  0  0  0  0  0
  192.5100  176.7940  144.4760 C   0  0  0  0  0  3  0  0  0  0  0  0
  193.3760  175.5580  146.3640 C   0  0  0  0  0  3  0  0  0  0  0  0
  192.1400  174.9240  146.5140 C   0  0  0  0  0  3  0  0  0  0  0  0
  191.0790  175.2090  145.6380 C   0  0  0  0  0  0  0  0  0  0  0  0
  189.3000  174.6750  147.2900 C   0  0  0  0  0  1  0  0  0  0  0  0
  189.7580  173.0940  145.4250 C   0  0  0  0  0  1  0  0  0  0  0  0
  189.7420  174.5540  145.8430 C   0  0  0  0  0  3  0  0  0  0  0  0
  187.6460  175.5550  142.3860 C   0  0  0  0  0  2  0  0  0  0  0  0
  187.6840  176.3390  141.0830 C   0  0  0  0  0  2  0  0  0  0  0  0
  187.4140  177.8120  141.3400 C   0  0  0  0  0  2  0  0  0  0  0  0
  185.1130  178.6320  146.0000 C   0  0  0  0  0  0  0  0  0  0  0  0
  186.8630  178.2200  144.3400 C   0  0  0  0  0  3  0  0  0  0  0  0
  183.6860  178.3190  142.2760 S   0  0  0  0  0  0  0  0  0  0  0  0
  184.9370  178.0450  141.2050 N   0  0  0  0  0  0  0  0  0  0  0  0
  184.7470  178.8450  147.3220 O   0  0  0  0  0  1  0  0  0  0  0  0
  186.0690  178.0060  141.9620 C   0  0  0  0  0  0  0  0  0  0  0  0
  186.4710  178.4370  145.6730 C   0  0  0  0  0  3  0  0  0  0  0  0
  184.5530  178.3970  143.6900 C   0  0  0  0  0  0  0  0  0  0  0  0
  185.8790  178.2030  143.3480 C   0  0  0  0  0  0  0  0  0  0  0  0
  184.1300  178.6140  144.9970 C   0  0  0  0  0  3  0  0  0  0  0  0
  1  4  1  1  0  0  0
  1  3  1  0  0  0  0
  1  5  1  0  0  0  0
  2  6  1  0  0  0  0
  2  8  1  1  0  0  0
  5  2  1  0  0  0  0
  7  3  1  0  0  0  0
  7  6  1  0  0  0  0
  8  9  1  6  0  0  0
  8 10  1  0  0  0  0
 10 15  1  0  0  0  0
 11 13  2  0  0  0  0
 12 10  2  0  0  0  0
 12 11  1  0  0  0  0
 13 14  1  0  0  0  0
 15 18  1  0  0  0  0
 15 14  2  0  0  0  0
 17 18  1  0  0  0  0
 18 16  1  0  0  0  0
 19  6  1  0  0  0  0
 20 21  1  0  0  0  0
 20 19  1  0  0  0  0
 21 27  1  0  0  0  0
 22 26  1  0  0  0  0
 23 28  2  0  0  0  0
 24 29  1  0  0  0  0
 25 27  2  0  0  0  0
 25 24  1  0  0  0  0
 27 30  1  0  0  0  0
 28 22  1  0  0  0  0
 29 31  1  0  0  0  0
 30 29  2  0  0  0  0
 30 23  1  0  0  0  0
 31 22  2  0  0  0  0
M  END
>  <MODEL>
1

>  <REMARK>
 VINA RESULT:      -7.7      0.000      0.000
  Name = 
  7 active torsions:
  status: ('A' for Active; 'I' for Inactive)
    1  A    between atoms: C_4  and  C_5
    2  A    between atoms: C_4  and  C_12
    3  A    between atoms: C_9  and  C_23
    4  A    between atoms: C_15  and  C_20
    5  A    between atoms: C_15  and  C_23
    6  A    between atoms: C_20  and  N_27
    7  A    between atoms: C_30  and  C_31
                            x       y       z     vdW  Elec       q    Type
                         _______ _______ _______ _____ _____    ______ ____

>  <TORSDO>
F 7

$$$$
=
 OpenBabel11052417513D

 31 34  0  0  1  0  0  0  0  0999 V2000
  191.9960  171.9700  143.3580 C   0  0  2  0  0  3  0  0  0  0  0  0
  191.6630  174.3680  142.7900 C   0  0  1  0  0  3  0  0  0  0  0  0
  190.6140  171.8800  143.5820 O   0  0  0  0  0  0  0  0  0  0  0  0
  192.7210  170.9980  144.2660 C   0  0  0  0  0  1  0  0  0  0  0  0
  192.4720  173.3870  143.6490 C   0  0  0  0  0  2  0  0  0  0  0  0
  190.2200  174.0830  142.8580 N   0  0  0  0  0  0  0  0  0  0  0  0
  190.0120  172.6590  142.5810 C   0  0  0  0  0  2  0  0  0  0  0  0
  191.9750  175.8310  143.1640 C   0  0  2  0  0  3  0  0  0  0  0  0
  192.7370  176.4520  142.1700 O   0  0  0  0  0  1  0  0  0  0  0  0
  192.6110  176.0140  144.5180 C   0  0  0  0  0  0  0  0  0  0  0  0
  194.6110  176.2680  145.8780 C   0  0  0  0  0  3  0  0  0  0  0  0
  194.0090  176.0700  144.6350 C   0  0  0  0  0  3  0  0  0  0  0  0
  193.8230  176.4270  147.0180 C   0  0  0  0  0  3  0  0  0  0  0  0
  192.4310  176.3880  146.9140 C   0  0  0  0  0  3  0  0  0  0  0  0
  191.8120  176.1770  145.6700 C   0  0  0  0  0  0  0  0  0  0  0  0
  189.7400  177.4610  146.1580 C   0  0  0  0  0  1  0  0  0  0  0  0
  189.6940  174.9760  146.2470 C   0  0  0  0  0  1  0  0  0  0  0  0
  190.3120  176.1850  145.5680 C   0  0  0  0  0  3  0  0  0  0  0  0
  189.5710  174.8020  141.7700 C   0  0  0  0  0  2  0  0  0  0  0  0
  188.6700  175.8930  142.3270 C   0  0  0  0  0  2  0  0  0  0  0  0
  187.2630  175.3630  142.5420 C   0  0  0  0  0  2  0  0  0  0  0  0
  184.9590  178.0490  146.4360 C   0  0  0  0  0  0  0  0  0  0  0  0
  186.3360  176.3790  145.2950 C   0  0  0  0  0  3  0  0  0  0  0  0
  184.7930  178.3500  142.4500 S   0  0  0  0  0  0  0  0  0  0  0  0
  185.7600  177.1840  141.7480 N   0  0  0  0  0  0  0  0  0  0  0  0
  184.4890  178.6040  147.6180 O   0  0  0  0  0  1  0  0  0  0  0  0
  186.3010  176.4820  142.7820 C   0  0  0  0  0  0  0  0  0  0  0  0
  185.8470  176.9550  146.4810 C   0  0  0  0  0  3  0  0  0  0  0  0
  185.0510  177.9870  144.0500 C   0  0  0  0  0  0  0  0  0  0  0  0
  185.9230  176.9140  144.0720 C   0  0  0  0  0  0  0  0  0  0  0  0
  184.5490  178.5810  145.2020 C   0  0  0  0  0  3  0  0  0  0  0  0
  1  3  1  0  0  0  0
  1  5  1  0  0  0  0
  1  4  1  1  0  0  0
  2  6  1  0  0  0  0
  2  8  1  1  0  0  0
  2  5  1  0  0  0  0
  7  6  1  0  0  0  0
  7  3  1  0  0  0  0
  8  9  1  6  0  0  0
  8 10  1  0  0  0  0
 10 12  2  0  0  0  0
 10 15  1  0  0  0  0
 11 13  2  0  0  0  0
 12 11  1  0  0  0  0
 14 13  1  0  0  0  0
 15 14  2  0  0  0  0
 18 15  1  0  0  0  0
 18 16  1  0  0  0  0
 18 17  1  0  0  0  0
 19 20  1  0  0  0  0
 19  6  1  0  0  0  0
 20 21  1  0  0  0  0
 21 27  1  0  0  0  0
 22 28  1  0  0  0  0
 22 26  1  0  0  0  0
 23 28  2  0  0  0  0
 24 29  1  0  0  0  0
 25 24  1  0  0  0  0
 25 27  2  0  0  0  0
 27 30  1  0  0  0  0
 29 30  2  0  0  0  0
 29 31  1  0  0  0  0
 30 23  1  0  0  0  0
 31 22  2  0  0  0  0
M  END
>  <MODEL>
2

>  <REMARK>
 VINA RESULT:      -7.5      1.700      1.991
  Name = 
  7 active torsions:
  status: ('A' for Active; 'I' for Inactive)
    1  A    between atoms: C_4  and  C_5
    2  A    between atoms: C_4  and  C_12
    3  A    between atoms: C_9  and  C_23
    4  A    between atoms: C_15  and  C_20
    5  A    between atoms: C_15  and  C_23
    6  A    between atoms: C_20  and  N_27
    7  A    between atoms: C_30  and  C_31
                            x       y       z     vdW  Elec       q    Type
                         _______ _______ _______ _____ _____    ______ ____

>  <TORSDO>
F 7

$$$$
=
 OpenBabel11052417513D

 31 34  0  0  1  0  0  0  0  0999 V2000
  190.9040  172.6330  140.5360 C   0  0  2  0  0  3  0  0  0  0  0  0
  190.4750  173.2060  142.9190 C   0  0  1  0  0  3  0  0  0  0  0  0
  189.5580  172.9290  140.2720 O   0  0  0  0  0  0  0  0  0  0  0  0
  191.3830  171.5570  139.5850 C   0  0  0  0  0  1  0  0  0  0  0  0
  191.0500  172.1440  141.9710 C   0  0  0  0  0  2  0  0  0  0  0  0
  189.1530  173.6740  142.4670 N   0  0  0  0  0  0  0  0  0  0  0  0
  189.2520  174.0540  141.0540 C   0  0  0  0  0  2  0  0  0  0  0  0
  190.4340  172.6970  144.3730 C   0  0  2  0  0  3  0  0  0  0  0  0
  189.2880  171.9310  144.6050 O   0  0  0  0  0  1  0  0  0  0  0  0
  190.5810  173.7700  145.4210 C   0  0  0  0  0  0  0  0  0  0  0  0
  189.6540  175.0090  147.2990 C   0  0  0  0  0  3  0  0  0  0  0  0
  189.5220  174.0380  146.3040 C   0  0  0  0  0  3  0  0  0  0  0  0
  190.8510  175.7130  147.4320 C   0  0  0  0  0  3  0  0  0  0  0  0
  191.9160  175.4460  146.5700 C   0  0  0  0  0  3  0  0  0  0  0  0
  191.7920  174.4810  145.5570 C   0  0  0  0  0  0  0  0  0  0  0  0
  194.0690  173.4870  145.4540 C   0  0  0  0  0  1  0  0  0  0  0  0
  193.5060  175.4200  143.9930 C   0  0  0  0  0  1  0  0  0  0  0  0
  192.9650  174.1720  144.6690 C   0  0  0  0  0  3  0  0  0  0  0  0
  188.8430  174.9000  143.1900 C   0  0  0  0  0  2  0  0  0  0  0  0
  189.7680  176.0210  142.7420 C   0  0  0  0  0  2  0  0  0  0  0  0
  189.5900  177.2430  143.6260 C   0  0  0  0  0  2  0  0  0  0  0  0
  185.3780  178.3280  146.5850 C   0  0  0  0  0  0  0  0  0  0  0  0
  187.6140  177.5530  145.9640 C   0  0  0  0  0  3  0  0  0  0  0  0
  186.1460  178.7510  142.6820 S   0  0  0  0  0  0  0  0  0  0  0  0
  187.6870  178.2070  142.3400 N   0  0  0  0  0  0  0  0  0  0  0  0
  184.4130  178.5330  147.5620 O   0  0  0  0  0  1  0  0  0  0  0  0
  188.1970  177.7750  143.5270 C   0  0  0  0  0  0  0  0  0  0  0  0
  186.6230  177.7680  146.9380 C   0  0  0  0  0  3  0  0  0  0  0  0
  186.1110  178.4560  144.3160 C   0  0  0  0  0  0  0  0  0  0  0  0
  187.3390  177.9080  144.6410 C   0  0  0  0  0  0  0  0  0  0  0  0
  185.1090  178.6820  145.2530 C   0  0  0  0  0  3  0  0  0  0  0  0
  1  4  1  6  0  0  0
  1  5  1  0  0  0  0
  2  8  1  1  0  0  0
  3  1  1  0  0  0  0
  3  7  1  0  0  0  0
  5  2  1  0  0  0  0
  6  2  1  0  0  0  0
  6 19  1  0  0  0  0
  7  6  1  0  0  0  0
  8  9  1  1  0  0  0
  8 10  1  0  0  0  0
 10 15  2  0  0  0  0
 10 12  1  0  0  0  0
 11 13  1  0  0  0  0
 12 11  2  0  0  0  0
 14 13  2  0  0  0  0
 15 14  1  0  0  0  0
 17 18  1  0  0  0  0
 18 16  1  0  0  0  0
 18 15  1  0  0  0  0
 20 19  1  0  0  0  0
 20 21  1  0  0  0  0
 22 28  1  0  0  0  0
 22 26  1  0  0  0  0
 23 28  2  0  0  0  0
 24 29  1  0  0  0  0
 25 24  1  0  0  0  0
 25 27  2  0  0  0  0
 27 21  1  0  0  0  0
 27 30  1  0  0  0  0
 29 30  2  0  0  0  0
 29 31  1  0  0  0  0
 30 23  1  0  0  0  0
 31 22  2  0  0  0  0
M  END
>  <MODEL>
3

>  <REMARK>
 VINA RESULT:      -7.5      1.845      2.839
  Name = 
  7 active torsions:
  status: ('A' for Active; 'I' for Inactive)
    1  A    between atoms: C_4  and  C_5
    2  A    between atoms: C_4  and  C_12
    3  A    between atoms: C_9  and  C_23
    4  A    between atoms: C_15  and  C_20
    5  A    between atoms: C_15  and  C_23
    6  A    between atoms: C_20  and  N_27
    7  A    between atoms: C_30  and  C_31
                            x       y       z     vdW  Elec       q    Type
                         _______ _______ _______ _____ _____    ______ ____

>  <TORSDO>
F 7

$$$$
=
 OpenBabel11052417513D

 31 34  0  0  1  0  0  0  0  0999 V2000
  190.4890  173.4920  145.0130 C   0  0  2  0  0  3  0  0  0  0  0  0
  190.5530  175.9320  145.4930 C   0  0  1  0  0  3  0  0  0  0  0  0
  191.1450  173.7610  143.8030 O   0  0  0  0  0  0  0  0  0  0  0  0
  189.5930  172.2820  144.8470 C   0  0  0  0  0  1  0  0  0  0  0  0
  189.6480  174.6950  145.4180 C   0  0  0  0  0  2  0  0  0  0  0  0
  191.4120  176.0440  144.3010 N   0  0  0  0  0  0  0  0  0  0  0  0
  192.0880  174.7600  144.0910 C   0  0  0  0  0  2  0  0  0  0  0  0
  189.7320  177.2160  145.7280 C   0  0  2  0  0  3  0  0  0  0  0  0
  190.1410  177.8670  146.8950 O   0  0  0  0  0  1  0  0  0  0  0  0
  188.2380  177.0190  145.7200 C   0  0  0  0  0  0  0  0  0  0  0  0
  186.1610  176.6850  146.9410 C   0  0  0  0  0  3  0  0  0  0  0  0
  187.5480  176.8390  146.9300 C   0  0  0  0  0  3  0  0  0  0  0  0
  185.4450  176.7230  145.7450 C   0  0  0  0  0  3  0  0  0  0  0  0
  186.1170  176.9150  144.5360 C   0  0  0  0  0  3  0  0  0  0  0  0
  187.5140  177.0590  144.5100 C   0  0  0  0  0  0  0  0  0  0  0  0
  187.4520  178.3240  142.3700 C   0  0  0  0  0  1  0  0  0  0  0  0
  188.4180  176.0330  142.4140 C   0  0  0  0  0  1  0  0  0  0  0  0
  188.2170  177.3130  143.2050 C   0  0  0  0  0  3  0  0  0  0  0  0
  192.4640  177.0070  144.5980 C   0  0  0  0  0  2  0  0  0  0  0  0
  193.4210  176.4330  145.6320 C   0  0  0  0  0  2  0  0  0  0  0  0
  194.8320  176.9440  145.3920 C   0  0  0  0  0  2  0  0  0  0  0  0
  197.3370  172.3460  144.8800 C   0  0  0  0  0  0  0  0  0  0  0  0
  196.1450  174.2110  145.9210 C   0  0  0  0  0  3  0  0  0  0  0  0
  196.4480  175.2660  142.2940 S   0  0  0  0  0  0  0  0  0  0  0  0
  195.6340  176.4950  143.0770 N   0  0  0  0  0  0  0  0  0  0  0  0
  197.9410  171.1020  144.9950 O   0  0  0  0  0  1  0  0  0  0  0  0
  195.5380  176.1040  144.3780 C   0  0  0  0  0  0  0  0  0  0  0  0
  196.7630  172.9520  146.0160 C   0  0  0  0  0  3  0  0  0  0  0  0
  196.6800  174.2360  143.5760 C   0  0  0  0  0  0  0  0  0  0  0  0
  196.1110  174.8480  144.6780 C   0  0  0  0  0  0  0  0  0  0  0  0
  197.2990  172.9920  143.6340 C   0  0  0  0  0  3  0  0  0  0  0  0
  1  4  1  6  0  0  0
  1  5  1  0  0  0  0
  2  8  1  6  0  0  0
  3  7  1  0  0  0  0
  3  1  1  0  0  0  0
  5  2  1  0  0  0  0
  6 19  1  0  0  0  0
  6  2  1  0  0  0  0
  7  6  1  0  0  0  0
  8  9  1  1  0  0  0
 10  8  1  0  0  0  0
 10 12  1  0  0  0  0
 12 11  2  0  0  0  0
 13 11  1  0  0  0  0
 14 13  2  0  0  0  0
 15 14  1  0  0  0  0
 15 10  2  0  0  0  0
 16 18  1  0  0  0  0
 17 18  1  0  0  0  0
 18 15  1  0  0  0  0
 19 20  1  0  0  0  0
 21 20  1  0  0  0  0
 22 26  1  0  0  0  0
 22 28  1  0  0  0  0
 23 28  2  0  0  0  0
 24 25  1  0  0  0  0
 24 29  1  0  0  0  0
 25 27  2  0  0  0  0
 27 30  1  0  0  0  0
 27 21  1  0  0  0  0
 29 31  1  0  0  0  0
 29 30  2  0  0  0  0
 30 23  1  0  0  0  0
 31 22  2  0  0  0  0
M  END
>  <MODEL>
4

>  <REMARK>
 VINA RESULT:      -7.3      3.992      8.287
  Name = 
  7 active torsions:
  status: ('A' for Active; 'I' for Inactive)
    1  A    between atoms: C_4  and  C_5
    2  A    between atoms: C_4  and  C_12
    3  A    between atoms: C_9  and  C_23
    4  A    between atoms: C_15  and  C_20
    5  A    between atoms: C_15  and  C_23
    6  A    between atoms: C_20  and  N_27
    7  A    between atoms: C_30  and  C_31
                            x       y       z     vdW  Elec       q    Type
                         _______ _______ _______ _____ _____    ______ ____

>  <TORSDO>
F 7

$$$$
=
 OpenBabel11052417513D

 31 34  0  0  1  0  0  0  0  0999 V2000
  185.8950  177.5550  145.6280 C   0  0  2  0  0  3  0  0  0  0  0  0
  188.1590  177.2060  144.6570 C   0  0  1  0  0  3  0  0  0  0  0  0
  185.5930  178.3520  144.5140 O   0  0  0  0  0  0  0  0  0  0  0  0
  185.1240  178.0520  146.8330 C   0  0  0  0  0  1  0  0  0  0  0  0
  187.3890  177.6240  145.9180 C   0  0  0  0  0  2  0  0  0  0  0  0
  187.6430  177.8890  143.4580 N   0  0  0  0  0  0  0  0  0  0  0  0
  186.1880  177.7160  143.4140 C   0  0  0  0  0  2  0  0  0  0  0  0
  189.6760  177.4210  144.8290 C   0  0  2  0  0  3  0  0  0  0  0  0
  190.1230  178.4910  144.0500 O   0  0  0  0  0  1  0  0  0  0  0  0
  190.5180  176.1950  144.5870 C   0  0  0  0  0  0  0  0  0  0  0  0
  191.9330  174.8820  143.1070 C   0  0  0  0  0  3  0  0  0  0  0  0
  191.1260  175.9970  143.3370 C   0  0  0  0  0  3  0  0  0  0  0  0
  192.1530  173.9570  144.1280 C   0  0  0  0  0  3  0  0  0  0  0  0
  191.5670  174.1490  145.3800 C   0  0  0  0  0  3  0  0  0  0  0  0
  190.7420  175.2610  145.6210 C   0  0  0  0  0  0  0  0  0  0  0  0
  191.2210  175.3230  148.0600 C   0  0  0  0  0  1  0  0  0  0  0  0
  189.0000  174.5330  147.2650 C   0  0  0  0  0  1  0  0  0  0  0  0
  190.1570  175.4780  146.9890 C   0  0  0  0  0  3  0  0  0  0  0  0
  188.1650  177.1940  142.2890 C   0  0  0  0  0  2  0  0  0  0  0  0
  187.2410  176.0480  141.9060 C   0  0  0  0  0  2  0  0  0  0  0  0
  187.8440  174.7170  142.3200 C   0  0  0  0  0  2  0  0  0  0  0  0
  190.8310  170.5530  141.1310 C   0  0  0  0  0  0  0  0  0  0  0  0
  189.5500  172.1600  142.4590 C   0  0  0  0  0  3  0  0  0  0  0  0
  189.2600  173.4960  138.9240 S   0  0  0  0  0  0  0  0  0  0  0  0
  188.4000  174.5440  139.8980 N   0  0  0  0  0  0  0  0  0  0  0  0
  191.5990  169.3980  141.0690 O   0  0  0  0  0  1  0  0  0  0  0  0
  188.5190  174.0540  141.1630 C   0  0  0  0  0  0  0  0  0  0  0  0
  190.3310  170.9940  142.3740 C   0  0  0  0  0  3  0  0  0  0  0  0
  189.7800  172.4210  140.0780 C   0  0  0  0  0  0  0  0  0  0  0  0
  189.2800  172.8710  141.2860 C   0  0  0  0  0  0  0  0  0  0  0  0
  190.5550  171.2730  139.9580 C   0  0  0  0  0  3  0  0  0  0  0  0
  1  5  1  0  0  0  0
  1  4  1  1  0  0  0
  2  8  1  1  0  0  0
  2  5  1  0  0  0  0
  3  1  1  0  0  0  0
  6  2  1  0  0  0  0
  7  6  1  0  0  0  0
  7  3  1  0  0  0  0
  8  9  1  6  0  0  0
 10  8  1  0  0  0  0
 10 15  1  0  0  0  0
 11 12  1  0  0  0  0
 11 13  2  0  0  0  0
 12 10  2  0  0  0  0
 13 14  1  0  0  0  0
 14 15  2  0  0  0  0
 15 18  1  0  0  0  0
 18 17  1  0  0  0  0
 18 16  1  0  0  0  0
 19  6  1  0  0  0  0
 20 19  1  0  0  0  0
 20 21  1  0  0  0  0
 22 28  1  0  0  0  0
 24 25  1  0  0  0  0
 24 29  1  0  0  0  0
 25 27  2  0  0  0  0
 26 22  1  0  0  0  0
 27 30  1  0  0  0  0
 27 21  1  0  0  0  0
 28 23  2  0  0  0  0
 29 30  2  0  0  0  0
 30 23  1  0  0  0  0
 31 29  1  0  0  0  0
 31 22  2  0  0  0  0
M  END
>  <MODEL>
5

>  <REMARK>
 VINA RESULT:      -7.0      2.363      6.107
  Name = 
  7 active torsions:
  status: ('A' for Active; 'I' for Inactive)
    1  A    between atoms: C_4  and  C_5
    2  A    between atoms: C_4  and  C_12
    3  A    between atoms: C_9  and  C_23
    4  A    between atoms: C_15  and  C_20
    5  A    between atoms: C_15  and  C_23
    6  A    between atoms: C_20  and  N_27
    7  A    between atoms: C_30  and  C_31
                            x       y       z     vdW  Elec       q    Type
                         _______ _______ _______ _____ _____    ______ ____

>  <TORSDO>
F 7

$$$$
=
 OpenBabel11052417513D

 31 34  0  0  1  0  0  0  0  0999 V2000
  193.7810  175.3130  145.7700 C   0  0  2  0  0  3  0  0  0  0  0  0
  191.5640  174.6300  144.8730 C   0  0  1  0  0  3  0  0  0  0  0  0
  193.7030  176.4560  144.9610 O   0  0  0  0  0  0  0  0  0  0  0  0
  195.2300  174.9080  145.9390 C   0  0  0  0  0  1  0  0  0  0  0  0
  193.0070  174.1720  145.1220 C   0  0  0  0  0  2  0  0  0  0  0  0
  191.5210  175.9580  144.2370 N   0  0  0  0  0  0  0  0  0  0  0  0
  192.3640  176.8730  145.0130 C   0  0  0  0  0  2  0  0  0  0  0  0
  190.7750  173.5830  144.0610 C   0  0  2  0  0  3  0  0  0  0  0  0
  190.8730  172.3170  144.6450 O   0  0  0  0  0  1  0  0  0  0  0  0
  191.1250  173.5250  142.5970 C   0  0  0  0  0  0  0  0  0  0  0  0
  192.7370  173.0280  140.8440 C   0  0  0  0  0  3  0  0  0  0  0  0
  192.4070  173.1140  142.1970 C   0  0  0  0  0  3  0  0  0  0  0  0
  191.7850  173.3380  139.8730 C   0  0  0  0  0  3  0  0  0  0  0  0
  190.5020  173.7340  140.2550 C   0  0  0  0  0  3  0  0  0  0  0  0
  190.1610  173.8370  141.6140 C   0  0  0  0  0  0  0  0  0  0  0  0
  187.8530  173.0030  142.0120 C   0  0  0  0  0  1  0  0  0  0  0  0
  188.1910  175.2910  141.0980 C   0  0  0  0  0  1  0  0  0  0  0  0
  188.7610  174.2190  142.0090 C   0  0  0  0  0  3  0  0  0  0  0  0
  190.1610  176.4670  144.3580 C   0  0  0  0  0  2  0  0  0  0  0  0
  189.8340  176.7440  145.8170 C   0  0  0  0  0  2  0  0  0  0  0  0
  188.5400  176.0530  146.2120 C   0  0  0  0  0  2  0  0  0  0  0  0
  184.5640  177.9540  143.3400 C   0  0  0  0  0  0  0  0  0  0  0  0
  186.5460  176.6560  143.9480 C   0  0  0  0  0  3  0  0  0  0  0  0
  185.8090  178.6660  147.0750 S   0  0  0  0  0  0  0  0  0  0  0  0
  187.1570  177.7420  147.4140 N   0  0  0  0  0  0  0  0  0  0  0  0
  183.5970  178.2910  142.4020 O   0  0  0  0  0  1  0  0  0  0  0  0
  187.4120  177.0310  146.2800 C   0  0  0  0  0  0  0  0  0  0  0  0
  185.5590  177.0120  143.0120 C   0  0  0  0  0  3  0  0  0  0  0  0
  185.5330  178.1780  145.5110 C   0  0  0  0  0  0  0  0  0  0  0  0
  186.5190  177.2560  145.2100 C   0  0  0  0  0  0  0  0  0  0  0  0
  184.5420  178.5530  144.6100 C   0  0  0  0  0  3  0  0  0  0  0  0
  1  4  1  6  0  0  0
  2  8  1  6  0  0  0
  2  5  1  0  0  0  0
  3  7  1  0  0  0  0
  3  1  1  0  0  0  0
  5  1  1  0  0  0  0
  6 19  1  0  0  0  0
  6  2  1  0  0  0  0
  6  7  1  0  0  0  0
  8  9  1  1  0  0  0
 10  8  1  0  0  0  0
 11 12  2  0  0  0  0
 12 10  1  0  0  0  0
 13 14  2  0  0  0  0
 13 11  1  0  0  0  0
 14 15  1  0  0  0  0
 15 18  1  0  0  0  0
 15 10  2  0  0  0  0
 17 18  1  0  0  0  0
 18 16  1  0  0  0  0
 19 20  1  0  0  0  0
 20 21  1  0  0  0  0
 21 27  1  0  0  0  0
 22 31  1  0  0  0  0
 23 30  2  0  0  0  0
 24 25  1  0  0  0  0
 26 22  1  0  0  0  0
 27 25  2  0  0  0  0
 28 22  2  0  0  0  0
 28 23  1  0  0  0  0
 29 24  1  0  0  0  0
 30 29  1  0  0  0  0
 30 27  1  0  0  0  0
 31 29  2  0  0  0  0
M  END
>  <MODEL>
6

>  <REMARK>
 VINA RESULT:      -7.0      2.427      4.692
  Name = 
  7 active torsions:
  status: ('A' for Active; 'I' for Inactive)
    1  A    between atoms: C_4  and  C_5
    2  A    between atoms: C_4  and  C_12
    3  A    between atoms: C_9  and  C_23
    4  A    between atoms: C_15  and  C_20
    5  A    between atoms: C_15  and  C_23
    6  A    between atoms: C_20  and  N_27
    7  A    between atoms: C_30  and  C_31
                            x       y       z     vdW  Elec       q    Type
                         _______ _______ _______ _____ _____    ______ ____

>  <TORSDO>
F 7

$$$$
=
 OpenBabel11052417513D

 31 34  0  0  1  0  0  0  0  0999 V2000
  193.6390  176.0380  146.1480 C   0  0  2  0  0  3  0  0  0  0  0  0
  191.7030  174.9020  145.0760 C   0  0  1  0  0  3  0  0  0  0  0  0
  192.7240  176.7670  146.9200 O   0  0  0  0  0  0  0  0  0  0  0  0
  194.8780  176.8750  145.9040 C   0  0  0  0  0  1  0  0  0  0  0  0
  193.0060  175.6700  144.8120 C   0  0  0  0  0  2  0  0  0  0  0  0
  190.8720  175.5800  146.0860 N   0  0  0  0  0  0  0  0  0  0  0  0
  191.7040  175.8640  147.2590 C   0  0  0  0  0  2  0  0  0  0  0  0
  190.9240  174.6520  143.7690 C   0  0  2  0  0  3  0  0  0  0  0  0
  191.7230  174.0030  142.8250 O   0  0  0  0  0  1  0  0  0  0  0  0
  190.2820  175.8790  143.1730 C   0  0  0  0  0  0  0  0  0  0  0  0
  190.2800  178.2870  142.8270 C   0  0  0  0  0  3  0  0  0  0  0  0
  190.8470  177.1450  143.3970 C   0  0  0  0  0  3  0  0  0  0  0  0
  189.1510  178.1750  142.0170 C   0  0  0  0  0  3  0  0  0  0  0  0
  188.5880  176.9210  141.7750 C   0  0  0  0  0  3  0  0  0  0  0  0
  189.1400  175.7650  142.3520 C   0  0  0  0  0  0  0  0  0  0  0  0
  188.7060  174.0870  140.5690 C   0  0  0  0  0  1  0  0  0  0  0  0
  187.0870  174.3360  142.4410 C   0  0  0  0  0  1  0  0  0  0  0  0
  188.5500  174.4170  142.0430 C   0  0  0  0  0  3  0  0  0  0  0  0
  189.8560  174.6370  146.5330 C   0  0  0  0  0  2  0  0  0  0  0  0
  188.5490  175.3660  146.8060 C   0  0  0  0  0  2  0  0  0  0  0  0
  188.5090  176.6850  146.0550 C   0  0  0  0  0  2  0  0  0  0  0  0
  184.0800  178.5860  143.9450 C   0  0  0  0  0  0  0  0  0  0  0  0
  186.2510  177.4710  144.1170 C   0  0  0  0  0  3  0  0  0  0  0  0
  185.5830  178.6650  147.6520 S   0  0  0  0  0  0  0  0  0  0  0  0
  187.0570  177.8820  147.6880 N   0  0  0  0  0  0  0  0  0  0  0  0
  182.9960  178.9760  143.1720 O   0  0  0  0  0  1  0  0  0  0  0  0
  187.2850  177.4650  146.4110 C   0  0  0  0  0  0  0  0  0  0  0  0
  185.1440  177.8770  143.3510 C   0  0  0  0  0  3  0  0  0  0  0  0
  185.2190  178.4810  146.0420 C   0  0  0  0  0  0  0  0  0  0  0  0
  186.2730  177.7850  145.4790 C   0  0  0  0  0  0  0  0  0  0  0  0
  184.1090  178.8970  145.3140 C   0  0  0  0  0  3  0  0  0  0  0  0
  1  4  1  6  0  0  0
  1  3  1  0  0  0  0
  2  8  1  6  0  0  0
  2  6  1  0  0  0  0
  3  7  1  0  0  0  0
  5  2  1  0  0  0  0
  5  1  1  0  0  0  0
  6 19  1  0  0  0  0
  6  7  1  0  0  0  0
  8  9  1  6  0  0  0
 10 12  1  0  0  0  0
 10  8  1  0  0  0  0
 11 12  2  0  0  0  0
 13 11  1  0  0  0  0
 14 13  2  0  0  0  0
 14 15  1  0  0  0  0
 15 10  2  0  0  0  0
 16 18  1  0  0  0  0
 18 15  1  0  0  0  0
 18 17  1  0  0  0  0
 19 20  1  0  0  0  0
 21 27  1  0  0  0  0
 21 20  1  0  0  0  0
 22 31  1  0  0  0  0
 23 30  2  0  0  0  0
 24 25  1  0  0  0  0
 26 22  1  0  0  0  0
 27 25  2  0  0  0  0
 28 22  2  0  0  0  0
 28 23  1  0  0  0  0
 29 24  1  0  0  0  0
 30 29  1  0  0  0  0
 30 27  1  0  0  0  0
 31 29  2  0  0  0  0
M  END
>  <MODEL>
7

>  <REMARK>
 VINA RESULT:      -7.0      2.463      4.673
  Name = 
  7 active torsions:
  status: ('A' for Active; 'I' for Inactive)
    1  A    between atoms: C_4  and  C_5
    2  A    between atoms: C_4  and  C_12
    3  A    between atoms: C_9  and  C_23
    4  A    between atoms: C_15  and  C_20
    5  A    between atoms: C_15  and  C_23
    6  A    between atoms: C_20  and  N_27
    7  A    between atoms: C_30  and  C_31
                            x       y       z     vdW  Elec       q    Type
                         _______ _______ _______ _____ _____    ______ ____

>  <TORSDO>
F 7

$$$$
=
 OpenBabel11052417513D

 31 34  0  0  1  0  0  0  0  0999 V2000
  192.2050  172.8430  142.2930 C   0  0  2  0  0  3  0  0  0  0  0  0
  193.2890  175.0630  142.5760 C   0  0  1  0  0  3  0  0  0  0  0  0
  191.1460  173.3130  143.0840 O   0  0  0  0  0  0  0  0  0  0  0  0
  192.3620  171.3500  142.4910 C   0  0  0  0  0  1  0  0  0  0  0  0
  193.4950  173.5470  142.6940 C   0  0  0  0  0  2  0  0  0  0  0  0
  192.0310  175.4890  143.2130 N   0  0  0  0  0  0  0  0  0  0  0  0
  190.9440  174.6480  142.7010 C   0  0  0  0  0  2  0  0  0  0  0  0
  194.5010  175.8380  143.1330 C   0  0  2  0  0  3  0  0  0  0  0  0
  195.3360  176.2730  142.1010 O   0  0  0  0  0  1  0  0  0  0  0  0
  195.2890  175.1040  144.1870 C   0  0  0  0  0  0  0  0  0  0  0  0
  197.1850  173.7050  144.7930 C   0  0  0  0  0  3  0  0  0  0  0  0
  196.4270  174.3660  143.8240 C   0  0  0  0  0  3  0  0  0  0  0  0
  196.8210  173.7850  146.1370 C   0  0  0  0  0  3  0  0  0  0  0  0
  195.7000  174.5270  146.5130 C   0  0  0  0  0  3  0  0  0  0  0  0
  194.9220  175.1870  145.5470 C   0  0  0  0  0  0  0  0  0  0  0  0
  194.1930  177.1660  146.8640 C   0  0  0  0  0  1  0  0  0  0  0  0
  192.6930  175.1890  146.6860 C   0  0  0  0  0  1  0  0  0  0  0  0
  193.7460  176.0200  145.9740 C   0  0  0  0  0  3  0  0  0  0  0  0
  191.7370  176.8420  142.7600 C   0  0  0  0  0  2  0  0  0  0  0  0
  191.0970  177.6420  143.8840 C   0  0  0  0  0  2  0  0  0  0  0  0
  189.5930  177.7220  143.6910 C   0  0  0  0  0  2  0  0  0  0  0  0
  184.9740  178.0580  146.1870 C   0  0  0  0  0  0  0  0  0  0  0  0
  186.7330  178.4780  144.5400 C   0  0  0  0  0  3  0  0  0  0  0  0
  188.3020  175.9520  146.8900 S   0  0  0  0  0  0  0  0  0  0  0  0
  189.4480  176.2890  145.7240 N   0  0  0  0  0  0  0  0  0  0  0  0
  183.6900  178.3060  146.6540 O   0  0  0  0  0  1  0  0  0  0  0  0
  188.8720  177.2010  144.8920 C   0  0  0  0  0  0  0  0  0  0  0  0
  185.4370  178.7160  145.0300 C   0  0  0  0  0  3  0  0  0  0  0  0
  187.0770  176.9400  146.3580 C   0  0  0  0  0  0  0  0  0  0  0  0
  187.5510  177.5750  145.2240 C   0  0  0  0  0  0  0  0  0  0  0  0
  185.8020  177.1510  146.8690 C   0  0  0  0  0  3  0  0  0  0  0  0
  1  4  1  1  0  0  0
  1  5  1  0  0  0  0
  1  3  1  0  0  0  0
  2  5  1  0  0  0  0
  2  8  1  1  0  0  0
  2  6  1  0  0  0  0
  7  3  1  0  0  0  0
  7  6  1  0  0  0  0
  8  9  1  6  0  0  0
  8 10  1  0  0  0  0
 10 15  1  0  0  0  0
 11 13  2  0  0  0  0
 12 10  2  0  0  0  0
 12 11  1  0  0  0  0
 13 14  1  0  0  0  0
 15 18  1  0  0  0  0
 15 14  2  0  0  0  0
 18 17  1  0  0  0  0
 18 16  1  0  0  0  0
 19  6  1  0  0  0  0
 19 20  1  0  0  0  0
 21 20  1  0  0  0  0
 21 27  1  0  0  0  0
 22 26  1  0  0  0  0
 22 31  1  0  0  0  0
 23 28  1  0  0  0  0
 23 30  2  0  0  0  0
 25 24  1  0  0  0  0
 27 30  1  0  0  0  0
 27 25  2  0  0  0  0
 28 22  2  0  0  0  0
 29 31  2  0  0  0  0
 29 24  1  0  0  0  0
 30 29  1  0  0  0  0
M  END
>  <MODEL>
8

>  <REMARK>
 VINA RESULT:      -7.0      2.772      3.851
  Name = 
  7 active torsions:
  status: ('A' for Active; 'I' for Inactive)
    1  A    between atoms: C_4  and  C_5
    2  A    between atoms: C_4  and  C_12
    3  A    between atoms: C_9  and  C_23
    4  A    between atoms: C_15  and  C_20
    5  A    between atoms: C_15  and  C_23
    6  A    between atoms: C_20  and  N_27
    7  A    between atoms: C_30  and  C_31
                            x       y       z     vdW  Elec       q    Type
                         _______ _______ _______ _____ _____    ______ ____

>  <TORSDO>
F 7

$$$$
=
 OpenBabel11052417513D

 31 34  0  0  1  0  0  0  0  0999 V2000
  191.2600  175.4840  146.9280 C   0  0  2  0  0  3  0  0  0  0  0  0
  191.9640  174.6780  144.6830 C   0  0  1  0  0  3  0  0  0  0  0  0
  190.9730  176.7250  146.3400 O   0  0  0  0  0  0  0  0  0  0  0  0
  191.6930  175.6910  148.3650 C   0  0  0  0  0  1  0  0  0  0  0  0
  192.3790  174.7970  146.1560 C   0  0  0  0  0  2  0  0  0  0  0  0
  191.4330  175.9510  144.1670 N   0  0  0  0  0  0  0  0  0  0  0  0
  190.4020  176.4340  145.0910 C   0  0  0  0  0  2  0  0  0  0  0  0
  193.1230  174.1490  143.8140 C   0  0  2  0  0  3  0  0  0  0  0  0
  192.7130  173.0630  143.0370 O   0  0  0  0  0  1  0  0  0  0  0  0
  194.3810  173.8170  144.5750 C   0  0  0  0  0  0  0  0  0  0  0  0
  195.7550  172.1870  145.7460 C   0  0  0  0  0  3  0  0  0  0  0  0
  194.5820  172.5170  145.0650 C   0  0  0  0  0  3  0  0  0  0  0  0
  196.7470  173.1490  145.9330 C   0  0  0  0  0  3  0  0  0  0  0  0
  196.5660  174.4420  145.4390 C   0  0  0  0  0  3  0  0  0  0  0  0
  195.3850  174.7910  144.7620 C   0  0  0  0  0  0  0  0  0  0  0  0
  196.5010  176.6200  143.5020 C   0  0  0  0  0  1  0  0  0  0  0  0
  194.8350  177.1810  145.2620 C   0  0  0  0  0  1  0  0  0  0  0  0
  195.2260  176.1740  144.1950 C   0  0  0  0  0  3  0  0  0  0  0  0
  190.7460  175.6720  142.9120 C   0  0  0  0  0  2  0  0  0  0  0  0
  189.5610  176.6100  142.7440 C   0  0  0  0  0  2  0  0  0  0  0  0
  188.3030  175.8240  142.4160 C   0  0  0  0  0  2  0  0  0  0  0  0
  184.8370  177.9500  145.7550 C   0  0  0  0  0  0  0  0  0  0  0  0
  186.7160  176.6170  144.9310 C   0  0  0  0  0  3  0  0  0  0  0  0
  185.3090  178.2060  141.7910 S   0  0  0  0  0  0  0  0  0  0  0  0
  186.6090  177.2770  141.3080 N   0  0  0  0  0  0  0  0  0  0  0  0
  184.0610  178.3910  146.8180 O   0  0  0  0  0  1  0  0  0  0  0  0
  187.0990  176.7090  142.4460 C   0  0  0  0  0  0  0  0  0  0  0  0
  185.9160  177.0750  145.9930 C   0  0  0  0  0  3  0  0  0  0  0  0
  185.3550  177.9090  143.4240 C   0  0  0  0  0  0  0  0  0  0  0  0
  186.4180  177.0500  143.6350 C   0  0  0  0  0  0  0  0  0  0  0  0
  184.5450  178.3800  144.4510 C   0  0  0  0  0  3  0  0  0  0  0  0
  1  4  1  1  0  0  0
  2  8  1  6  0  0  0
  2  5  1  0  0  0  0
  3  1  1  0  0  0  0
  5  1  1  0  0  0  0
  6  2  1  0  0  0  0
  6  7  1  0  0  0  0
  7  3  1  0  0  0  0
  8  9  1  1  0  0  0
  8 10  1  0  0  0  0
 10 15  2  0  0  0  0
 10 12  1  0  0  0  0
 11 13  1  0  0  0  0
 12 11  2  0  0  0  0
 14 13  2  0  0  0  0
 15 14  1  0  0  0  0
 16 18  1  0  0  0  0
 18 15  1  0  0  0  0
 18 17  1  0  0  0  0
 19  6  1  0  0  0  0
 20 19  1  0  0  0  0
 21 27  1  0  0  0  0
 21 20  1  0  0  0  0
 22 28  1  0  0  0  0
 22 26  1  0  0  0  0
 23 28  2  0  0  0  0
 24 29  1  0  0  0  0
 25 24  1  0  0  0  0
 25 27  2  0  0  0  0
 27 30  1  0  0  0  0
 29 30  2  0  0  0  0
 29 31  1  0  0  0  0
 30 23  1  0  0  0  0
 31 22  2  0  0  0  0
M  END
>  <MODEL>
9

>  <REMARK>
 VINA RESULT:      -6.8      2.263      4.229
  Name = 
  7 active torsions:
  status: ('A' for Active; 'I' for Inactive)
    1  A    between atoms: C_4  and  C_5
    2  A    between atoms: C_4  and  C_12
    3  A    between atoms: C_9  and  C_23
    4  A    between atoms: C_15  and  C_20
    5  A    between atoms: C_15  and  C_23
    6  A    between atoms: C_20  and  N_27
    7  A    between atoms: C_30  and  C_31
                            x       y       z     vdW  Elec       q    Type
                         _______ _______ _______ _____ _____    ______ ____

>  <TORSDO>
F 7

$$$$
