=
 OpenBabel11052418433D

 34 38  0  0  1  0  0  0  0  0999 V2000
  190.1970  171.8670  142.2610 C   0  0  2  0  0  3  0  0  0  0  0  0
  192.2900  172.8670  143.3060 C   0  0  0  0  0  0  0  0  0  0  0  0
  194.2500  173.3240  144.6650 O   0  0  0  0  0  0  0  0  0  0  0  0
  190.0190  173.8380  143.9540 C   0  0  2  0  0  3  0  0  0  0  0  0
  190.7210  175.9630  147.1350 C   0  0  0  0  0  2  0  0  0  0  0  0
  192.9310  172.2910  142.4370 O   0  0  0  0  0  0  0  0  0  0  0  0
  192.0910  174.1350  145.4620 C   0  0  1  0  0  3  0  0  0  0  0  0
  193.5190  175.1900  142.1740 N   0  0  0  0  0  2  0  0  0  0  0  0
  194.8880  174.3350  143.9190 C   0  0  1  0  0  3  0  0  0  0  0  0
  193.6060  175.0510  143.6170 C   0  0  2  0  0  3  0  0  0  0  0  0
  190.8130  172.5800  143.4910 C   0  0  1  0  0  3  0  0  0  0  0  0
  191.8400  175.2350  147.5860 O   0  0  0  0  0  0  0  0  0  0  0  0
  189.8810  175.1250  146.1650 C   0  0  2  0  0  3  0  0  0  0  0  0
  196.0240  176.3510  142.0560 S   0  0  0  0  0  0  0  0  0  0  0  0
  189.4800  174.6220  142.7700 C   0  0  0  0  0  0  0  0  0  0  0  0
  196.0350  176.5660  143.8900 C   0  0  0  0  0  2  0  0  0  0  0  0
  188.8440  172.4450  141.8330 C   0  0  0  0  0  2  0  0  0  0  0  0
  192.9910  173.8170  144.2590 C   0  0  2  0  0  0  0  0  0  0  0  0
  189.3890  173.9930  146.8210 O   0  0  0  0  0  1  0  0  0  0  0  0
  192.7120  175.0890  146.4900 C   0  0  0  0  0  2  0  0  0  0  0  0
  190.7610  174.7230  144.9800 C   0  0  2  0  0  3  0  0  0  0  0  0
  188.9380  173.9390  141.7540 C   0  0  0  0  0  3  0  0  0  0  0  0
  195.8300  175.2540  144.6760 C   0  0  0  0  0  2  0  0  0  0  0  0
  194.1910  176.4540  141.8530 C   0  0  0  0  0  2  0  0  0  0  0  0
  190.7570  169.8690  141.4870 C   0  0  0  0  0  1  0  0  0  0  0  0
  190.0660  170.5020  142.5220 O   0  0  0  0  0  0  0  0  0  0  0  0
  189.6510  176.1160  142.6570 C   0  0  0  0  0  2  0  0  0  0  0  0
  188.3510  176.9110  142.8180 C   0  0  1  0  0  3  0  0  0  0  0  0
  187.0850  177.3170  144.9710 C   0  0  0  0  0  0  0  0  0  0  0  0
  187.0420  177.9050  146.2270 O   0  0  0  0  0  1  0  0  0  0  0  0
  188.2470  177.4750  144.1570 N   0  0  0  0  0  2  0  0  0  0  0  0
  186.0990  176.6470  144.5620 O   0  0  0  0  0  0  0  0  0  0  0  0
  186.8150  177.3680  140.7380 C   0  0  0  0  0  1  0  0  0  0  0  0
  188.1940  178.2180  141.5570 S   0  0  0  0  0  0  0  0  0  0  0  0
  1 26  1  1  0  0  0
  1 11  1  0  0  0  0
  4 15  1  6  0  0  0
  4 21  1  0  0  0  0
  5 12  1  0  0  0  0
  6  2  2  0  0  0  0
  7 20  1  1  0  0  0
  9  3  1  0  0  0  0
  9 23  1  1  0  0  0
 10  8  1  6  0  0  0
 10  9  1  0  0  0  0
 10 18  1  0  0  0  0
 11  2  1  6  0  0  0
 11  4  1  0  0  0  0
 13 19  1  1  0  0  0
 13  5  1  0  0  0  0
 14 16  1  0  0  0  0
 16 23  1  0  0  0  0
 17  1  1  0  0  0  0
 18  2  1  6  0  0  0
 18  3  1  0  0  0  0
 18  7  1  0  0  0  0
 20 12  1  0  0  0  0
 21  7  1  0  0  0  0
 21 13  1  0  0  0  0
 22 17  1  0  0  0  0
 22 15  2  0  0  0  0
 24 14  1  0  0  0  0
 24  8  1  0  0  0  0
 25 26  1  0  0  0  0
 27 15  1  0  0  0  0
 27 28  1  0  0  0  0
 28 31  1  0  0  0  0
 29 30  1  0  0  0  0
 31 29  1  0  0  0  0
 32 29  2  0  0  0  0
 33 34  1  0  0  0  0
 34 28  1  0  0  0  0
M  END
>  <MODEL>
1

>  <REMARK>
 VINA RESULT:      -6.6      0.000      0.000
  Name = 
  5 active torsions:
  status: ('A' for Active; 'I' for Inactive)
    1  A    between atoms: C_1  and  O_19
    2  A    between atoms: C_12  and  N_23
    3  A    between atoms: C_12  and  S_27
    4  A    between atoms: C_12  and  C_28
    5  A    between atoms: C_21  and  C_28
                            x       y       z     vdW  Elec       q    Type
                         _______ _______ _______ _____ _____    ______ ____

>  <TORSDO>
F 5

$$$$
=
 OpenBabel11052418433D

 34 38  0  0  1  0  0  0  0  0999 V2000
  195.4750  175.7770  143.6610 C   0  0  2  0  0  3  0  0  0  0  0  0
  193.0030  175.7200  143.0650 C   0  0  0  0  0  0  0  0  0  0  0  0
  190.6880  176.2760  142.5780 O   0  0  0  0  0  0  0  0  0  0  0  0
  193.7000  175.0820  145.4370 C   0  0  2  0  0  3  0  0  0  0  0  0
  190.4040  175.1710  147.5000 C   0  0  0  0  0  2  0  0  0  0  0  0
  193.3420  175.7660  141.8910 O   0  0  0  0  0  0  0  0  0  0  0  0
  191.3000  175.8630  144.9040 C   0  0  1  0  0  3  0  0  0  0  0  0
  191.7550  173.2800  142.2420 N   0  0  0  0  0  2  0  0  0  0  0  0
  190.2230  175.0810  141.9930 C   0  0  1  0  0  3  0  0  0  0  0  0
  190.9260  174.2090  142.9900 C   0  0  2  0  0  3  0  0  0  0  0  0
  194.0200  175.9310  144.1700 C   0  0  1  0  0  3  0  0  0  0  0  0
  189.7300  176.1220  146.7070 O   0  0  0  0  0  0  0  0  0  0  0  0
  191.9180  175.2460  147.2700 C   0  0  2  0  0  3  0  0  0  0  0  0
  189.6040  172.4770  140.7040 S   0  0  0  0  0  0  0  0  0  0  0  0
  194.3840  173.7270  145.3850 C   0  0  0  0  0  0  0  0  0  0  0  0
  188.4360  173.3270  141.8560 C   0  0  0  0  0  2  0  0  0  0  0  0
  196.3620  174.9420  144.5910 C   0  0  0  0  0  2  0  0  0  0  0  0
  191.5400  175.5320  143.4240 C   0  0  2  0  0  0  0  0  0  0  0  0
  192.3940  176.5030  147.6540 O   0  0  0  0  0  1  0  0  0  0  0  0
  189.8470  175.7060  145.3670 C   0  0  0  0  0  2  0  0  0  0  0  0
  192.1990  174.9920  145.7870 C   0  0  2  0  0  3  0  0  0  0  0  0
  195.6520  173.6740  144.9580 C   0  0  0  0  0  3  0  0  0  0  0  0
  188.7280  174.8300  142.0470 C   0  0  0  0  0  2  0  0  0  0  0  0
  190.9030  172.1180  141.9660 C   0  0  0  0  0  2  0  0  0  0  0  0
  197.3290  176.7820  142.9870 C   0  0  0  0  0  1  0  0  0  0  0  0
  196.0450  177.0370  143.4700 O   0  0  0  0  0  0  0  0  0  0  0  0
  193.6410  172.4480  145.6770 C   0  0  0  0  0  2  0  0  0  0  0  0
  194.3470  171.1830  145.1730 C   0  0  1  0  0  3  0  0  0  0  0  0
  196.2330  170.0690  146.4390 C   0  0  0  0  0  0  0  0  0  0  0  0
  196.6410  169.2840  147.5090 O   0  0  0  0  0  1  0  0  0  0  0  0
  194.8510  170.3900  146.2860 N   0  0  0  0  0  2  0  0  0  0  0  0
  197.0870  170.4930  145.6160 O   0  0  0  0  0  0  0  0  0  0  0  0
  194.2470  170.5440  142.6290 C   0  0  0  0  0  1  0  0  0  0  0  0
  193.2610  170.1780  144.1080 S   0  0  0  0  0  0  0  0  0  0  0  0
  1 26  1  1  0  0  0
  1 11  1  0  0  0  0
  1 17  1  0  0  0  0
  2 18  1  0  0  0  0
  4 15  1  6  0  0  0
  4 21  1  0  0  0  0
  6  2  2  0  0  0  0
  7 20  1  1  0  0  0
  7 21  1  0  0  0  0
  9 23  1  1  0  0  0
  9  3  1  0  0  0  0
  9 10  1  0  0  0  0
 10  8  1  6  0  0  0
 10 18  1  0  0  0  0
 11  2  1  6  0  0  0
 11  4  1  0  0  0  0
 12  5  1  0  0  0  0
 13  5  1  0  0  0  0
 13 19  1  6  0  0  0
 14 16  1  0  0  0  0
 14 24  1  0  0  0  0
 15 27  1  0  0  0  0
 16 23  1  0  0  0  0
 17 22  1  0  0  0  0
 18  3  1  6  0  0  0
 18  7  1  0  0  0  0
 20 12  1  0  0  0  0
 21 13  1  0  0  0  0
 22 15  2  0  0  0  0
 24  8  1  0  0  0  0
 25 26  1  0  0  0  0
 28 27  1  0  0  0  0
 28 31  1  0  0  0  0
 29 30  1  0  0  0  0
 31 29  1  0  0  0  0
 32 29  2  0  0  0  0
 33 34  1  0  0  0  0
 34 28  1  0  0  0  0
M  END
>  <MODEL>
2

>  <REMARK>
 VINA RESULT:      -6.4      3.056      6.967
  Name = 
  5 active torsions:
  status: ('A' for Active; 'I' for Inactive)
    1  A    between atoms: C_1  and  O_19
    2  A    between atoms: C_12  and  N_23
    3  A    between atoms: C_12  and  S_27
    4  A    between atoms: C_12  and  C_28
    5  A    between atoms: C_21  and  C_28
                            x       y       z     vdW  Elec       q    Type
                         _______ _______ _______ _____ _____    ______ ____

>  <TORSDO>
F 5

$$$$
=
 OpenBabel11052418433D

 34 38  0  0  1  0  0  0  0  0999 V2000
  192.1070  176.6560  147.0560 C   0  0  2  0  0  3  0  0  0  0  0  0
  190.0300  176.1820  145.6670 C   0  0  0  0  0  0  0  0  0  0  0  0
  187.9190  175.3430  144.8050 O   0  0  0  0  0  0  0  0  0  0  0  0
  192.2270  175.0720  144.9920 C   0  0  2  0  0  3  0  0  0  0  0  0
  191.1970  172.2560  142.5140 C   0  0  0  0  0  2  0  0  0  0  0  0
  189.5110  177.1460  146.2150 O   0  0  0  0  0  0  0  0  0  0  0  0
  189.9500  174.1070  144.2580 C   0  0  1  0  0  3  0  0  0  0  0  0
  189.4840  177.6870  143.2960 N   0  0  0  0  0  2  0  0  0  0  0  0
  187.6390  176.2680  143.7800 C   0  0  1  0  0  3  0  0  0  0  0  0
  189.0560  176.2990  143.2930 C   0  0  2  0  0  3  0  0  0  0  0  0
  191.3600  175.6430  146.1540 C   0  0  1  0  0  3  0  0  0  0  0  0
  189.9010  172.0420  143.0260 O   0  0  0  0  0  0  0  0  0  0  0  0
  192.0820  172.9590  143.5510 C   0  0  2  0  0  3  0  0  0  0  0  0
  187.2940  178.4470  141.7900 S   0  0  0  0  0  0  0  0  0  0  0  0
  193.1380  176.1360  144.4040 C   0  0  0  0  0  0  0  0  0  0  0  0
  186.9120  176.6790  141.4150 C   0  0  0  0  0  2  0  0  0  0  0  0
  193.5980  176.7850  146.7260 C   0  0  0  0  0  2  0  0  0  0  0  0
  189.3010  175.4680  144.5430 C   0  0  2  0  0  0  0  0  0  0  0  0
  192.2210  172.1490  144.6810 O   0  0  0  0  0  1  0  0  0  0  0  0
  189.2830  173.3030  143.1360 C   0  0  0  0  0  2  0  0  0  0  0  0
  191.4320  174.2950  143.9200 C   0  0  2  0  0  3  0  0  0  0  0  0
  193.7720  176.9610  145.2470 C   0  0  0  0  0  3  0  0  0  0  0  0
  186.7170  175.8010  142.6690 C   0  0  0  0  0  2  0  0  0  0  0  0
  189.1180  178.2210  141.9790 C   0  0  0  0  0  2  0  0  0  0  0  0
  191.5800  177.4840  149.0410 C   0  0  0  0  0  1  0  0  0  0  0  0
  191.9490  176.3020  148.3970 O   0  0  0  0  0  0  0  0  0  0  0  0
  193.2450  176.3620  142.9180 C   0  0  0  0  0  2  0  0  0  0  0  0
  194.5410  175.8330  142.2940 C   0  0  1  0  0  3  0  0  0  0  0  0
  196.6220  175.4040  143.6670 C   0  0  0  0  0  0  0  0  0  0  0  0
  197.3010  174.5970  144.5700 O   0  0  0  0  0  1  0  0  0  0  0  0
  195.3020  175.0500  143.2570 N   0  0  0  0  0  2  0  0  0  0  0  0
  197.1770  176.4440  143.2220 O   0  0  0  0  0  0  0  0  0  0  0  0
  195.7550  175.4280  140.0010 C   0  0  0  0  0  1  0  0  0  0  0  0
  194.2210  174.8600  140.7850 S   0  0  0  0  0  0  0  0  0  0  0  0
  1 26  1  1  0  0  0
  2  6  2  0  0  0  0
  4 15  1  6  0  0  0
  4 11  1  0  0  0  0
  5 12  1  0  0  0  0
  5 13  1  0  0  0  0
  7 20  1  6  0  0  0
  7 18  1  0  0  0  0
  9 23  1  6  0  0  0
  9  3  1  0  0  0  0
 10  8  1  1  0  0  0
 10  9  1  0  0  0  0
 10 18  1  0  0  0  0
 11  2  1  6  0  0  0
 11  1  1  0  0  0  0
 12 20  1  0  0  0  0
 13 21  1  0  0  0  0
 13 19  1  1  0  0  0
 14 24  1  0  0  0  0
 15 22  2  0  0  0  0
 16 14  1  0  0  0  0
 16 23  1  0  0  0  0
 17  1  1  0  0  0  0
 18  3  1  1  0  0  0
 18  2  1  0  0  0  0
 21  7  1  0  0  0  0
 21  4  1  0  0  0  0
 22 17  1  0  0  0  0
 24  8  1  0  0  0  0
 26 25  1  0  0  0  0
 27 15  1  0  0  0  0
 28 27  1  0  0  0  0
 28 31  1  0  0  0  0
 29 30  1  0  0  0  0
 31 29  1  0  0  0  0
 32 29  2  0  0  0  0
 33 34  1  0  0  0  0
 34 28  1  0  0  0  0
M  END
>  <MODEL>
3

>  <REMARK>
 VINA RESULT:      -6.1      1.896      6.920
  Name = 
  5 active torsions:
  status: ('A' for Active; 'I' for Inactive)
    1  A    between atoms: C_1  and  O_19
    2  A    between atoms: C_12  and  N_23
    3  A    between atoms: C_12  and  S_27
    4  A    between atoms: C_12  and  C_28
    5  A    between atoms: C_21  and  C_28
                            x       y       z     vdW  Elec       q    Type
                         _______ _______ _______ _____ _____    ______ ____

>  <TORSDO>
F 5

$$$$
=
 OpenBabel11052418433D

 34 38  0  0  1  0  0  0  0  0999 V2000
  193.8060  176.1680  144.1920 C   0  0  2  0  0  3  0  0  0  0  0  0
  191.4310  177.0250  143.8830 C   0  0  0  0  0  0  0  0  0  0  0  0
  189.3570  178.2890  143.9680 O   0  0  0  0  0  0  0  0  0  0  0  0
  191.8300  175.0970  145.5090 C   0  0  2  0  0  3  0  0  0  0  0  0
  188.5660  174.8820  147.6140 C   0  0  0  0  0  2  0  0  0  0  0  0
  191.8270  177.5940  142.8750 O   0  0  0  0  0  0  0  0  0  0  0  0
  189.7320  176.5900  145.6790 C   0  0  1  0  0  3  0  0  0  0  0  0
  189.6500  175.7570  142.0370 N   0  0  0  0  0  2  0  0  0  0  0  0
  188.6350  177.7280  142.8960 C   0  0  1  0  0  3  0  0  0  0  0  0
  189.0470  176.3250  143.2300 C   0  0  2  0  0  3  0  0  0  0  0  0
  192.4130  176.3770  144.8390 C   0  0  1  0  0  3  0  0  0  0  0  0
  188.1920  176.2360  147.4920 O   0  0  0  0  0  0  0  0  0  0  0  0
  190.0600  174.7010  147.3180 C   0  0  2  0  0  3  0  0  0  0  0  0
  187.4430  176.4180  140.5110 S   0  0  0  0  0  0  0  0  0  0  0  0
  192.1510  173.8520  144.7020 C   0  0  0  0  0  0  0  0  0  0  0  0
  186.4720  176.7920  142.0380 C   0  0  0  0  0  2  0  0  0  0  0  0
  194.4080  174.7870  144.4710 C   0  0  0  0  0  2  0  0  0  0  0  0
  189.9520  177.0340  144.2260 C   0  0  2  0  0  0  0  0  0  0  0  0
  190.8170  175.4150  148.2500 O   0  0  0  0  0  1  0  0  0  0  0  0
  188.2650  176.5670  146.1260 C   0  0  0  0  0  2  0  0  0  0  0  0
  190.3390  175.2000  145.8990 C   0  0  2  0  0  3  0  0  0  0  0  0
  193.3850  173.7280  144.1950 C   0  0  0  0  0  3  0  0  0  0  0  0
  187.1240  177.8520  142.9500 C   0  0  0  0  0  2  0  0  0  0  0  0
  188.5480  175.1540  141.2810 C   0  0  0  0  0  2  0  0  0  0  0  0
  194.5670  177.1610  146.0190 C   0  0  0  0  0  1  0  0  0  0  0  0
  194.6830  177.1630  144.6280 O   0  0  0  0  0  0  0  0  0  0  0  0
  191.0970  172.8300  144.3580 C   0  0  0  0  0  2  0  0  0  0  0  0
  191.5630  171.7560  143.3690 C   0  0  1  0  0  3  0  0  0  0  0  0
  193.1360  169.8300  143.8380 C   0  0  0  0  0  0  0  0  0  0  0  0
  193.3890  168.6450  144.5130 O   0  0  0  0  0  1  0  0  0  0  0  0
  191.9080  170.5230  144.0620 N   0  0  0  0  0  2  0  0  0  0  0  0
  193.9940  170.2870  143.0370 O   0  0  0  0  0  0  0  0  0  0  0  0
  188.9560  171.9790  143.1470 C   0  0  0  0  0  1  0  0  0  0  0  0
  190.3170  171.4380  142.0750 S   0  0  0  0  0  0  0  0  0  0  0  0
  1 17  1  0  0  0  0
  1 26  1  1  0  0  0
  1 11  1  0  0  0  0
  3 18  1  0  0  0  0
  4 15  1  6  0  0  0
  4 21  1  0  0  0  0
  6  2  2  0  0  0  0
  7 21  1  0  0  0  0
  7 20  1  6  0  0  0
  9 23  1  1  0  0  0
  9 10  1  0  0  0  0
  9  3  1  0  0  0  0
 10  8  1  6  0  0  0
 10 18  1  0  0  0  0
 11  2  1  6  0  0  0
 11  4  1  0  0  0  0
 12  5  1  0  0  0  0
 13  5  1  0  0  0  0
 13 19  1  1  0  0  0
 14 24  1  0  0  0  0
 14 16  1  0  0  0  0
 16 23  1  0  0  0  0
 18  2  1  6  0  0  0
 18  7  1  0  0  0  0
 20 12  1  0  0  0  0
 21 13  1  0  0  0  0
 22 17  1  0  0  0  0
 22 15  2  0  0  0  0
 24  8  1  0  0  0  0
 26 25  1  0  0  0  0
 27 15  1  0  0  0  0
 28 31  1  0  0  0  0
 28 27  1  0  0  0  0
 29 31  1  0  0  0  0
 29 30  1  0  0  0  0
 32 29  2  0  0  0  0
 34 33  1  0  0  0  0
 34 28  1  0  0  0  0
M  END
>  <MODEL>
4

>  <REMARK>
 VINA RESULT:      -6.0      2.627      6.400
  Name = 
  5 active torsions:
  status: ('A' for Active; 'I' for Inactive)
    1  A    between atoms: C_1  and  O_19
    2  A    between atoms: C_12  and  N_23
    3  A    between atoms: C_12  and  S_27
    4  A    between atoms: C_12  and  C_28
    5  A    between atoms: C_21  and  C_28
                            x       y       z     vdW  Elec       q    Type
                         _______ _______ _______ _____ _____    ______ ____

>  <TORSDO>
F 5

$$$$
=
 OpenBabel11052418433D

 34 38  0  0  1  0  0  0  0  0999 V2000
  193.7750  176.0470  141.9050 C   0  0  2  0  0  3  0  0  0  0  0  0
  191.7270  176.6560  143.2860 C   0  0  0  0  0  0  0  0  0  0  0  0
  190.1820  177.2510  145.0630 O   0  0  0  0  0  0  0  0  0  0  0  0
  192.0970  174.2060  142.6690 C   0  0  2  0  0  3  0  0  0  0  0  0
  189.7060  172.2210  145.0070 C   0  0  0  0  0  2  0  0  0  0  0  0
  191.9250  177.8200  142.9630 O   0  0  0  0  0  0  0  0  0  0  0  0
  190.6160  174.8820  144.6700 C   0  0  1  0  0  3  0  0  0  0  0  0
  189.1990  177.1090  142.0240 N   0  0  0  0  0  2  0  0  0  0  0  0
  189.0440  177.6500  144.3340 C   0  0  1  0  0  3  0  0  0  0  0  0
  189.1620  176.5230  143.3530 C   0  0  2  0  0  3  0  0  0  0  0  0
  192.7540  175.5860  142.9760 C   0  0  1  0  0  3  0  0  0  0  0  0
  189.6760  173.1590  146.0600 O   0  0  0  0  0  0  0  0  0  0  0  0
  190.9340  172.4420  144.1160 C   0  0  2  0  0  3  0  0  0  0  0  0
  186.8770  178.5300  142.5030 S   0  0  0  0  0  0  0  0  0  0  0  0
  191.8200  174.0410  141.1850 C   0  0  0  0  0  0  0  0  0  0  0  0
  186.5570  177.5370  144.0270 C   0  0  0  0  0  2  0  0  0  0  0  0
  194.0560  174.9900  140.8330 C   0  0  0  0  0  2  0  0  0  0  0  0
  190.4820  176.2900  144.0730 C   0  0  2  0  0  0  0  0  0  0  0  0
  192.1010  172.2500  144.8620 O   0  0  0  0  0  1  0  0  0  0  0  0
  189.4050  174.4170  145.4890 C   0  0  0  0  0  2  0  0  0  0  0  0
  190.8800  173.8640  143.5550 C   0  0  2  0  0  3  0  0  0  0  0  0
  192.7600  174.4400  140.3180 C   0  0  0  0  0  3  0  0  0  0  0  0
  187.7100  177.5750  145.0530 C   0  0  0  0  0  2  0  0  0  0  0  0
  187.8000  177.2120  141.5950 C   0  0  0  0  0  2  0  0  0  0  0  0
  195.9420  176.3040  141.5270 C   0  0  0  0  0  1  0  0  0  0  0  0
  194.9690  176.4230  142.5220 O   0  0  0  0  0  0  0  0  0  0  0  0
  190.4850  173.5650  140.6700 C   0  0  0  0  0  2  0  0  0  0  0  0
  190.5480  172.2530  139.8800 C   0  0  1  0  0  3  0  0  0  0  0  0
  191.4590  170.2940  141.1960 C   0  0  0  0  0  0  0  0  0  0  0  0
  191.2150  169.1980  142.0130 O   0  0  0  0  0  1  0  0  0  0  0  0
  190.3700  171.1060  140.7600 N   0  0  0  0  0  2  0  0  0  0  0  0
  192.6410  170.5630  140.8520 O   0  0  0  0  0  0  0  0  0  0  0  0
  188.5710  173.7760  139.0640 C   0  0  0  0  0  1  0  0  0  0  0  0
  189.3290  172.2180  138.5240 S   0  0  0  0  0  0  0  0  0  0  0  0
  1 26  1  1  0  0  0
  1 11  1  0  0  0  0
  4 15  1  6  0  0  0
  4 11  1  0  0  0  0
  4 21  1  0  0  0  0
  5 12  1  0  0  0  0
  6  2  2  0  0  0  0
  7 20  1  6  0  0  0
  9 23  1  1  0  0  0
  9  3  1  0  0  0  0
 10  8  1  6  0  0  0
 10 18  1  0  0  0  0
 10  9  1  0  0  0  0
 11  2  1  6  0  0  0
 13 19  1  1  0  0  0
 13  5  1  0  0  0  0
 14 16  1  0  0  0  0
 16 23  1  0  0  0  0
 17  1  1  0  0  0  0
 18  2  1  6  0  0  0
 18  7  1  0  0  0  0
 18  3  1  0  0  0  0
 20 12  1  0  0  0  0
 21 13  1  0  0  0  0
 21  7  1  0  0  0  0
 22 17  1  0  0  0  0
 22 15  2  0  0  0  0
 24  8  1  0  0  0  0
 24 14  1  0  0  0  0
 25 26  1  0  0  0  0
 27 15  1  0  0  0  0
 28 27  1  0  0  0  0
 28 31  1  0  0  0  0
 29 30  1  0  0  0  0
 31 29  1  0  0  0  0
 32 29  2  0  0  0  0
 34 33  1  0  0  0  0
 34 28  1  0  0  0  0
M  END
>  <MODEL>
5

>  <REMARK>
 VINA RESULT:      -6.0      2.626      6.043
  Name = 
  5 active torsions:
  status: ('A' for Active; 'I' for Inactive)
    1  A    between atoms: C_1  and  O_19
    2  A    between atoms: C_12  and  N_23
    3  A    between atoms: C_12  and  S_27
    4  A    between atoms: C_12  and  C_28
    5  A    between atoms: C_21  and  C_28
                            x       y       z     vdW  Elec       q    Type
                         _______ _______ _______ _____ _____    ______ ____

>  <TORSDO>
F 5

$$$$
=
 OpenBabel11052418433D

 34 38  0  0  1  0  0  0  0  0999 V2000
  189.9140  172.5420  140.5560 C   0  0  2  0  0  3  0  0  0  0  0  0
  190.0310  174.5910  142.0590 C   0  0  0  0  0  0  0  0  0  0  0  0
  190.2490  176.8360  142.9600 O   0  0  0  0  0  0  0  0  0  0  0  0
  192.0630  173.0500  141.9370 C   0  0  2  0  0  3  0  0  0  0  0  0
  194.9660  175.1100  143.5040 C   0  0  0  0  0  2  0  0  0  0  0  0
  188.8140  174.6670  141.9550 O   0  0  0  0  0  0  0  0  0  0  0  0
  192.2780  175.5030  142.7070 C   0  0  1  0  0  3  0  0  0  0  0  0
  189.4240  174.3910  144.8480 N   0  0  0  0  0  2  0  0  0  0  0  0
  189.7380  176.6740  144.2630 C   0  0  1  0  0  3  0  0  0  0  0  0
  190.4360  175.3640  144.4750 C   0  0  2  0  0  3  0  0  0  0  0  0
  190.8180  173.6240  141.1960 C   0  0  1  0  0  3  0  0  0  0  0  0
  194.4610  176.3880  143.1890 O   0  0  0  0  0  0  0  0  0  0  0  0
  194.3280  174.0370  142.6130 C   0  0  2  0  0  3  0  0  0  0  0  0
  188.4970  176.0180  146.8820 S   0  0  0  0  0  0  0  0  0  0  0  0
  191.7290  171.7610  142.6670 C   0  0  0  0  0  0  0  0  0  0  0  0
  189.9850  177.1010  146.7220 C   0  0  0  0  0  2  0  0  0  0  0  0
  190.4990  171.1280  140.6410 C   0  0  0  0  0  2  0  0  0  0  0  0
  190.7710  175.5240  143.0000 C   0  0  2  0  0  0  0  0  0  0  0  0
  194.6490  174.2810  141.2750 O   0  0  0  0  0  1  0  0  0  0  0  0
  193.1170  176.4190  143.6060 C   0  0  0  0  0  2  0  0  0  0  0  0
  192.8120  174.0720  142.8200 C   0  0  2  0  0  3  0  0  0  0  0  0
  190.9630  170.8590  142.0410 C   0  0  0  0  0  3  0  0  0  0  0  0
  190.1910  177.6790  145.3060 C   0  0  0  0  0  2  0  0  0  0  0  0
  189.3180  174.4650  146.3090 C   0  0  0  0  0  2  0  0  0  0  0  0
  188.2840  172.6810  139.0640 C   0  0  0  0  0  1  0  0  0  0  0  0
  189.6580  172.8680  139.2230 O   0  0  0  0  0  0  0  0  0  0  0  0
  192.1280  171.5310  144.1030 C   0  0  0  0  0  2  0  0  0  0  0  0
  193.4210  170.7260  144.2750 C   0  0  1  0  0  3  0  0  0  0  0  0
  195.6530  171.5820  145.1020 C   0  0  0  0  0  0  0  0  0  0  0  0
  196.4080  172.1160  146.1380 O   0  0  0  0  0  1  0  0  0  0  0  0
  194.2670  171.3110  145.3050 N   0  0  0  0  0  2  0  0  0  0  0  0
  196.1990  171.3460  143.9910 O   0  0  0  0  0  0  0  0  0  0  0  0
  193.6880  168.4380  143.0140 C   0  0  0  0  0  1  0  0  0  0  0  0
  193.0840  168.9710  144.6400 S   0  0  0  0  0  0  0  0  0  0  0  0
  1 26  1  6  0  0  0
  1 17  1  0  0  0  0
  1 11  1  0  0  0  0
  3 18  1  0  0  0  0
  3  9  1  0  0  0  0
  4 15  1  1  0  0  0
  4 21  1  0  0  0  0
  6  2  2  0  0  0  0
  7 21  1  0  0  0  0
  7 18  1  0  0  0  0
  7 20  1  1  0  0  0
  8 24  1  0  0  0  0
  9 10  1  0  0  0  0
  9 23  1  1  0  0  0
 10  8  1  6  0  0  0
 11  4  1  0  0  0  0
 11  2  1  1  0  0  0
 12  5  1  0  0  0  0
 12 20  1  0  0  0  0
 13 19  1  6  0  0  0
 13 21  1  0  0  0  0
 13  5  1  0  0  0  0
 15 27  1  0  0  0  0
 16 14  1  0  0  0  0
 17 22  1  0  0  0  0
 18  2  1  6  0  0  0
 18 10  1  0  0  0  0
 22 15  2  0  0  0  0
 23 16  1  0  0  0  0
 24 14  1  0  0  0  0
 25 26  1  0  0  0  0
 27 28  1  0  0  0  0
 28 34  1  0  0  0  0
 28 31  1  0  0  0  0
 29 31  1  0  0  0  0
 29 30  1  0  0  0  0
 32 29  2  0  0  0  0
 33 34  1  0  0  0  0
M  END
>  <MODEL>
6

>  <REMARK>
 VINA RESULT:      -5.8      3.180      6.417
  Name = 
  5 active torsions:
  status: ('A' for Active; 'I' for Inactive)
    1  A    between atoms: C_1  and  O_19
    2  A    between atoms: C_12  and  N_23
    3  A    between atoms: C_12  and  S_27
    4  A    between atoms: C_12  and  C_28
    5  A    between atoms: C_21  and  C_28
                            x       y       z     vdW  Elec       q    Type
                         _______ _______ _______ _____ _____    ______ ____

>  <TORSDO>
F 5

$$$$
=
 OpenBabel11052418433D

 34 38  0  0  1  0  0  0  0  0999 V2000
  194.3230  170.4970  145.2070 C   0  0  2  0  0  3  0  0  0  0  0  0
  195.1830  172.8320  144.6780 C   0  0  0  0  0  0  0  0  0  0  0  0
  195.9990  175.1180  144.7870 O   0  0  0  0  0  0  0  0  0  0  0  0
  192.6840  172.3690  144.4340 C   0  0  2  0  0  3  0  0  0  0  0  0
  191.0380  175.8850  144.2090 C   0  0  0  0  0  2  0  0  0  0  0  0
  196.3070  172.3510  144.6470 O   0  0  0  0  0  0  0  0  0  0  0  0
  193.5840  174.7660  144.7440 C   0  0  1  0  0  3  0  0  0  0  0  0
  195.8140  173.5810  141.9890 N   0  0  0  0  0  2  0  0  0  0  0  0
  196.4700  175.3180  143.4740 C   0  0  1  0  0  3  0  0  0  0  0  0
  195.2940  174.6310  142.8470 C   0  0  2  0  0  3  0  0  0  0  0  0
  194.0070  172.0140  145.1750 C   0  0  1  0  0  3  0  0  0  0  0  0
  192.0210  176.5830  144.9420 O   0  0  0  0  0  0  0  0  0  0  0  0
  191.1030  174.3830  144.5060 C   0  0  2  0  0  3  0  0  0  0  0  0
  197.4670  175.3650  140.6760 S   0  0  0  0  0  0  0  0  0  0  0  0
  192.4790  171.4900  143.2120 C   0  0  0  0  0  0  0  0  0  0  0  0
  196.5770  176.7890  141.4460 C   0  0  0  0  0  2  0  0  0  0  0  0
  193.1970  169.6270  144.6390 C   0  0  0  0  0  2  0  0  0  0  0  0
  194.9700  174.2850  144.2930 C   0  0  2  0  0  0  0  0  0  0  0  0
  190.8360  174.1550  145.8590 O   0  0  0  0  0  1  0  0  0  0  0  0
  193.2720  176.2280  144.4030 C   0  0  0  0  0  2  0  0  0  0  0  0
  192.4980  173.8730  144.1380 C   0  0  2  0  0  3  0  0  0  0  0  0
  192.7480  170.1820  143.3210 C   0  0  0  0  0  3  0  0  0  0  0  0
  196.5530  176.7530  142.9880 C   0  0  0  0  0  2  0  0  0  0  0  0
  196.0290  174.2050  140.6800 C   0  0  0  0  0  2  0  0  0  0  0  0
  194.5800  168.7060  146.4840 C   0  0  0  0  0  1  0  0  0  0  0  0
  194.6120  170.1020  146.5140 O   0  0  0  0  0  0  0  0  0  0  0  0
  192.1080  172.0650  141.8690 C   0  0  0  0  0  2  0  0  0  0  0  0
  190.8700  171.4240  141.2310 C   0  0  1  0  0  3  0  0  0  0  0  0
  188.8250  172.5690  142.1850 C   0  0  0  0  0  0  0  0  0  0  0  0
  187.7910  173.4800  142.0190 O   0  0  0  0  0  0  0  0  0  0  0  0
  189.7770  172.3820  141.1380 N   0  0  0  0  0  2  0  0  0  0  0  0
  188.9160  171.9190  143.2610 O   0  0  0  0  0  1  0  0  0  0  0  0
  189.9540  171.7040  138.7870 C   0  0  0  0  0  1  0  0  0  0  0  0
  191.2410  170.7110  139.5940 S   0  0  0  0  0  0  0  0  0  0  0  0
  1 26  1  1  0  0  0
  4 15  1  6  0  0  0
  4 11  1  0  0  0  0
  5 13  1  0  0  0  0
  5 12  1  0  0  0  0
  6  2  2  0  0  0  0
  7 20  1  6  0  0  0
  9 23  1  6  0  0  0
  9  3  1  0  0  0  0
 10  8  1  6  0  0  0
 10  9  1  0  0  0  0
 10 18  1  0  0  0  0
 11  2  1  6  0  0  0
 11  1  1  0  0  0  0
 13 19  1  1  0  0  0
 14 24  1  0  0  0  0
 14 16  1  0  0  0  0
 15 22  2  0  0  0  0
 16 23  1  0  0  0  0
 17  1  1  0  0  0  0
 18  2  1  1  0  0  0
 18  7  1  0  0  0  0
 18  3  1  0  0  0  0
 20 12  1  0  0  0  0
 21  4  1  0  0  0  0
 21 13  1  0  0  0  0
 21  7  1  0  0  0  0
 22 17  1  0  0  0  0
 24  8  1  0  0  0  0
 25 26  1  0  0  0  0
 27 15  1  0  0  0  0
 28 27  1  0  0  0  0
 29 32  1  0  0  0  0
 30 29  2  0  0  0  0
 31 28  1  0  0  0  0
 31 29  1  0  0  0  0
 33 34  1  0  0  0  0
 34 28  1  0  0  0  0
M  END
>  <MODEL>
7

>  <REMARK>
 VINA RESULT:      -5.8      3.028      4.367
  Name = 
  5 active torsions:
  status: ('A' for Active; 'I' for Inactive)
    1  A    between atoms: C_1  and  O_19
    2  A    between atoms: C_12  and  N_23
    3  A    between atoms: C_12  and  S_27
    4  A    between atoms: C_12  and  C_28
    5  A    between atoms: C_21  and  C_28
                            x       y       z     vdW  Elec       q    Type
                         _______ _______ _______ _____ _____    ______ ____

>  <TORSDO>
F 5

$$$$
=
 OpenBabel11052418433D

 34 38  0  0  1  0  0  0  0  0999 V2000
  191.1420  176.1390  144.2950 C   0  0  2  0  0  3  0  0  0  0  0  0
  193.3070  174.9550  144.9120 C   0  0  0  0  0  0  0  0  0  0  0  0
  195.5510  174.3940  145.6540 O   0  0  0  0  0  0  0  0  0  0  0  0
  192.8550  175.4650  142.4520 C   0  0  2  0  0  3  0  0  0  0  0  0
  196.2890  174.9860  140.6910 C   0  0  0  0  0  2  0  0  0  0  0  0
  192.8050  174.7270  146.0050 O   0  0  0  0  0  0  0  0  0  0  0  0
  195.2470  175.0510  143.3230 C   0  0  1  0  0  3  0  0  0  0  0  0
  193.4920  172.1010  144.8010 N   0  0  0  0  0  2  0  0  0  0  0  0
  195.4760  172.9910  145.7630 C   0  0  1  0  0  3  0  0  0  0  0  0
  194.7020  172.8400  144.4870 C   0  0  2  0  0  3  0  0  0  0  0  0
  192.6280  175.8920  143.9330 C   0  0  1  0  0  3  0  0  0  0  0  0
  197.0990  175.2850  141.8060 O   0  0  0  0  0  0  0  0  0  0  0  0
  194.8750  175.5470  140.8790 C   0  0  2  0  0  3  0  0  0  0  0  0
  194.9440  170.0770  145.9990 S   0  0  0  0  0  0  0  0  0  0  0  0
  191.7550  174.5380  141.9660 C   0  0  0  0  0  0  0  0  0  0  0  0
  196.5110  170.7550  145.2930 C   0  0  0  0  0  2  0  0  0  0  0  0
  190.1990  176.0680  143.0890 C   0  0  0  0  0  2  0  0  0  0  0  0
  194.6580  174.3590  144.5610 C   0  0  2  0  0  0  0  0  0  0  0  0
  194.9270  176.9400  140.9790 O   0  0  0  0  0  1  0  0  0  0  0  0
  196.6180  174.5200  142.8870 C   0  0  0  0  0  2  0  0  0  0  0  0
  194.2730  174.9360  142.1470 C   0  0  2  0  0  3  0  0  0  0  0  0
  190.4900  174.8290  142.2970 C   0  0  0  0  0  3  0  0  0  0  0  0
  196.7830  172.2260  145.6710 C   0  0  0  0  0  2  0  0  0  0  0  0
  193.8380  170.6840  144.6490 C   0  0  0  0  0  2  0  0  0  0  0  0
  190.8140  178.2910  143.8880 C   0  0  0  0  0  1  0  0  0  0  0  0
  191.0090  177.3780  144.9260 O   0  0  0  0  0  0  0  0  0  0  0  0
  192.0580  173.2510  141.2410 C   0  0  0  0  0  2  0  0  0  0  0  0
  190.8610  172.6530  140.4940 C   0  0  1  0  0  3  0  0  0  0  0  0
  189.7210  173.7890  138.5420 C   0  0  0  0  0  0  0  0  0  0  0  0
  189.7520  174.1630  137.2050 O   0  0  0  0  0  0  0  0  0  0  0  0
  190.8360  173.1000  139.1090 N   0  0  0  0  0  2  0  0  0  0  0  0
  188.7110  174.0660  139.2430 O   0  0  0  0  0  1  0  0  0  0  0  0
  190.6510  170.8440  142.3860 C   0  0  0  0  0  1  0  0  0  0  0  0
  190.8460  170.8320  140.5820 S   0  0  0  0  0  0  0  0  0  0  0  0
  1 26  1  6  0  0  0
  2  6  2  0  0  0  0
  3  9  1  0  0  0  0
  4 15  1  1  0  0  0
  4 11  1  0  0  0  0
  5 13  1  0  0  0  0
  5 12  1  0  0  0  0
  7 20  1  6  0  0  0
  7 18  1  0  0  0  0
  9 23  1  6  0  0  0
 10 18  1  0  0  0  0
 10  8  1  1  0  0  0
 10  9  1  0  0  0  0
 11  1  1  0  0  0  0
 11  2  1  1  0  0  0
 12 20  1  0  0  0  0
 13 19  1  1  0  0  0
 13 21  1  0  0  0  0
 15 22  2  0  0  0  0
 16 23  1  0  0  0  0
 16 14  1  0  0  0  0
 17  1  1  0  0  0  0
 18  2  1  1  0  0  0
 18  3  1  0  0  0  0
 21  4  1  0  0  0  0
 21  7  1  0  0  0  0
 22 17  1  0  0  0  0
 24  8  1  0  0  0  0
 24 14  1  0  0  0  0
 25 26  1  0  0  0  0
 27 15  1  0  0  0  0
 28 34  1  0  0  0  0
 28 27  1  0  0  0  0
 29 31  1  0  0  0  0
 29 32  1  0  0  0  0
 30 29  2  0  0  0  0
 31 28  1  0  0  0  0
 34 33  1  0  0  0  0
M  END
>  <MODEL>
8

>  <REMARK>
 VINA RESULT:      -5.7      3.401      5.852
  Name = 
  5 active torsions:
  status: ('A' for Active; 'I' for Inactive)
    1  A    between atoms: C_1  and  O_19
    2  A    between atoms: C_12  and  N_23
    3  A    between atoms: C_12  and  S_27
    4  A    between atoms: C_12  and  C_28
    5  A    between atoms: C_21  and  C_28
                            x       y       z     vdW  Elec       q    Type
                         _______ _______ _______ _____ _____    ______ ____

>  <TORSDO>
F 5

$$$$
=
 OpenBabel11052418433D

 34 38  0  0  1  0  0  0  0  0999 V2000
  190.2200  174.1200  145.2110 C   0  0  2  0  0  3  0  0  0  0  0  0
  190.3640  172.4080  143.3350 C   0  0  0  0  0  0  0  0  0  0  0  0
  190.3040  170.3900  141.9850 O   0  0  0  0  0  0  0  0  0  0  0  0
  192.5160  173.0960  144.5250 C   0  0  2  0  0  3  0  0  0  0  0  0
  195.1240  170.4010  143.4990 C   0  0  0  0  0  2  0  0  0  0  0  0
  189.2350  172.7510  143.0110 O   0  0  0  0  0  0  0  0  0  0  0  0
  192.3440  170.8680  143.2370 C   0  0  1  0  0  3  0  0  0  0  0  0
  190.9930  173.2190  140.6640 N   0  0  0  0  0  2  0  0  0  0  0  0
  190.4170  170.9120  140.6810 C   0  0  1  0  0  3  0  0  0  0  0  0
  191.4680  171.9080  141.0700 C   0  0  2  0  0  3  0  0  0  0  0  0
  190.9740  172.8950  144.6350 C   0  0  1  0  0  3  0  0  0  0  0  0
  194.2100  169.3520  143.2740 O   0  0  0  0  0  0  0  0  0  0  0  0
  194.5020  171.4850  144.3860 C   0  0  2  0  0  3  0  0  0  0  0  0
  190.5470  172.3430  138.0810 S   0  0  0  0  0  0  0  0  0  0  0  0
  192.8620  174.5130  144.1020 C   0  0  0  0  0  0  0  0  0  0  0  0
  191.4940  170.7940  138.4190 C   0  0  0  0  0  2  0  0  0  0  0  0
  191.1500  175.2320  145.7070 C   0  0  0  0  0  2  0  0  0  0  0  0
  191.1330  171.4240  142.4730 C   0  0  2  0  0  0  0  0  0  0  0  0
  194.1870  170.9490  145.6380 O   0  0  0  0  0  1  0  0  0  0  0  0
  193.1880  169.8590  142.4490 C   0  0  0  0  0  2  0  0  0  0  0  0
  193.2460  172.0190  143.6940 C   0  0  2  0  0  3  0  0  0  0  0  0
  192.1860  175.5240  144.6630 C   0  0  0  0  0  3  0  0  0  0  0  0
  190.9550  169.9780  139.6130 C   0  0  0  0  0  2  0  0  0  0  0  0
  191.4610  173.4040  139.2860 C   0  0  0  0  0  2  0  0  0  0  0  0
  189.3440  174.7920  147.1310 C   0  0  0  0  0  1  0  0  0  0  0  0
  189.3780  173.7110  146.2470 O   0  0  0  0  0  0  0  0  0  0  0  0
  193.8440  174.7970  142.9940 C   0  0  0  0  0  2  0  0  0  0  0  0
  195.1150  175.5220  143.4510 C   0  0  1  0  0  3  0  0  0  0  0  0
  196.0690  174.5610  145.5880 C   0  0  0  0  0  0  0  0  0  0  0  0
  196.9600  173.6920  146.2030 O   0  0  0  0  0  0  0  0  0  0  0  0
  196.0050  174.6150  144.1630 N   0  0  0  0  0  2  0  0  0  0  0  0
  195.3220  175.2890  146.2940 O   0  0  0  0  0  1  0  0  0  0  0  0
  197.2880  176.9620  143.1390 C   0  0  0  0  0  1  0  0  0  0  0  0
  195.9850  176.3120  142.0570 S   0  0  0  0  0  0  0  0  0  0  0  0
  1 17  1  0  0  0  0
  1 26  1  1  0  0  0
  4 15  1  6  0  0  0
  4 11  1  0  0  0  0
  5 13  1  0  0  0  0
  6  2  2  0  0  0  0
  7 20  1  6  0  0  0
  7 21  1  0  0  0  0
  9 23  1  6  0  0  0
  9 10  1  0  0  0  0
  9  3  1  0  0  0  0
 10  8  1  1  0  0  0
 10 18  1  0  0  0  0
 11  2  1  6  0  0  0
 11  1  1  0  0  0  0
 12  5  1  0  0  0  0
 13 19  1  1  0  0  0
 14 16  1  0  0  0  0
 14 24  1  0  0  0  0
 15 22  2  0  0  0  0
 16 23  1  0  0  0  0
 18  3  1  6  0  0  0
 18  7  1  0  0  0  0
 18  2  1  0  0  0  0
 20 12  1  0  0  0  0
 21 13  1  0  0  0  0
 21  4  1  0  0  0  0
 22 17  1  0  0  0  0
 24  8  1  0  0  0  0
 26 25  1  0  0  0  0
 27 28  1  0  0  0  0
 27 15  1  0  0  0  0
 28 31  1  0  0  0  0
 29 30  2  0  0  0  0
 29 32  1  0  0  0  0
 31 29  1  0  0  0  0
 34 33  1  0  0  0  0
 34 28  1  0  0  0  0
M  END
>  <MODEL>
9

>  <REMARK>
 VINA RESULT:      -5.7      2.979      6.488
  Name = 
  5 active torsions:
  status: ('A' for Active; 'I' for Inactive)
    1  A    between atoms: C_1  and  O_19
    2  A    between atoms: C_12  and  N_23
    3  A    between atoms: C_12  and  S_27
    4  A    between atoms: C_12  and  C_28
    5  A    between atoms: C_21  and  C_28
                            x       y       z     vdW  Elec       q    Type
                         _______ _______ _______ _____ _____    ______ ____

>  <TORSDO>
F 5

$$$$
