=
 OpenBabel11052419023D

 34 39  0  0  1  0  0  0  0  0999 V2000
  185.1800  177.8090  143.7550 C   0  0  0  0  0  0  0  0  0  0  0  0
  185.7510  177.5610  146.1010 C   0  0  0  0  0  0  0  0  0  0  0  0
  187.2560  176.6280  144.2840 C   0  0  0  0  0  0  0  0  0  0  0  0
  189.4780  175.6270  144.5310 C   0  0  0  0  0  0  0  0  0  0  0  0
  184.1190  178.6450  144.1060 C   0  0  0  0  0  3  0  0  0  0  0  0
  184.6890  178.4070  146.4330 C   0  0  0  0  0  3  0  0  0  0  0  0
  188.7600  177.2540  146.1630 C   0  0  0  0  0  3  0  0  0  0  0  0
  186.1020  177.3510  144.7370 C   0  0  0  0  0  0  0  0  0  0  0  0
  189.9630  177.0990  146.8530 C   0  0  0  0  0  3  0  0  0  0  0  0
  190.6760  175.4620  145.2320 C   0  0  0  0  0  3  0  0  0  0  0  0
  183.8940  178.9720  145.4410 C   0  0  0  0  0  3  0  0  0  0  0  0
  187.2360  176.1000  142.9620 C   0  0  0  0  0  0  0  0  0  0  0  0
  185.2830  177.3960  142.4700 N   0  0  0  0  0  0  0  0  0  0  0  0
  186.3540  176.8610  147.1370 O   0  0  0  0  0  1  0  0  0  0  0  0
  189.3290  175.0090  143.3370 N   0  0  0  0  0  0  0  0  0  0  0  0
  188.2570  175.2170  142.5310 C   0  0  0  0  0  0  0  0  0  0  0  0
  190.9190  176.1860  146.4060 C   0  0  0  0  0  0  0  0  0  0  0  0
  188.4660  176.4840  145.0240 C   0  0  0  0  0  0  0  0  0  0  0  0
  186.2480  176.5360  142.0730 C   0  0  0  0  0  3  0  0  0  0  0  0
  187.9080  174.6070  138.8080 C   0  0  0  0  0  0  0  0  0  0  0  0
  188.2600  173.2590  138.7040 C   0  0  0  0  0  3  0  0  0  0  0  0
  188.2350  174.5160  141.2190 C   0  0  0  0  0  0  0  0  0  0  0  0
  188.6080  172.5380  139.8490 C   0  0  0  0  0  3  0  0  0  0  0  0
  187.9020  175.2330  140.0590 C   0  0  0  0  0  3  0  0  0  0  0  0
  188.6000  173.1650  141.0980 C   0  0  0  0  0  3  0  0  0  0  0  0
  187.5680  175.3260  137.6710 O   0  0  0  0  0  1  0  0  0  0  0  0
  192.1030  176.0350  147.1300 O   0  0  0  0  0  0  0  0  0  0  0  0
  193.1150  175.1070  146.7600 C   0  0  0  0  0  2  0  0  0  0  0  0
  194.6410  177.0810  146.8550 F   0  0  0  0  0  0  0  0  0  0  0  0
  194.1580  174.4450  143.5430 O   0  0  0  0  0  0  0  0  0  0  0  0
  194.6530  175.7610  144.4810 P   0  0  2  0  0  0  0  0  0  0  0  0
  195.4850  175.0360  145.9750 C   0  0  0  0  0  2  0  0  0  0  0  0
  194.3470  175.8540  146.2920 C   0  0  2  0  0  0  0  0  0  0  0  0
  195.6600  176.6810  143.8330 O   0  0  0  0  0  1  0  0  0  0  0  0
  1  5  2  0  0  0  0
  1  8  1  0  0  0  0
  2  6  1  0  0  0  0
  2 14  1  0  0  0  0
  3  8  1  0  0  0  0
  3 18  1  0  0  0  0
  4 18  2  0  0  0  0
  4 10  1  0  0  0  0
  5 11  1  0  0  0  0
  7  9  2  0  0  0  0
  8  2  2  0  0  0  0
 10 17  2  0  0  0  0
 11  6  2  0  0  0  0
 12  3  2  0  0  0  0
 13  1  1  0  0  0  0
 15  4  1  0  0  0  0
 16 12  1  0  0  0  0
 16 15  2  0  0  0  0
 17  9  1  0  0  0  0
 17 27  1  0  0  0  0
 18  7  1  0  0  0  0
 19 13  2  0  0  0  0
 19 12  1  0  0  0  0
 20 24  1  0  0  0  0
 21 20  2  0  0  0  0
 21 23  1  0  0  0  0
 22 16  1  0  0  0  0
 23 25  2  0  0  0  0
 24 22  2  0  0  0  0
 25 22  1  0  0  0  0
 26 20  1  0  0  0  0
 28 27  1  0  0  0  0
 31 30  2  6  0  0  0
 31 32  1  0  0  0  0
 31 33  1  0  0  0  0
 32 33  1  0  0  0  0
 33 28  1  0  0  0  0
 33 29  1  1  0  0  0
 34 31  1  0  0  0  0
M  END
>  <MODEL>
1

>  <REMARK>
 VINA RESULT:      -9.1      0.000      0.000
  Name = 
  4 active torsions:
  status: ('A' for Active; 'I' for Inactive)
    1  A    between atoms: O_3  and  C_13
    2  A    between atoms: O_3  and  C_29
    3  A    between atoms: C_12  and  C_28
    4  A    between atoms: C_13  and  C_33
                            x       y       z     vdW  Elec       q    Type
                         _______ _______ _______ _____ _____    ______ ____

>  <TORSDO>
F 4

$$$$
=
 OpenBabel11052419023D

 34 39  0  0  1  0  0  0  0  0999 V2000
  191.5620  176.2270  146.0980 C   0  0  0  0  0  0  0  0  0  0  0  0
  192.1200  174.1570  144.9600 C   0  0  0  0  0  0  0  0  0  0  0  0
  190.0420  175.4720  144.3360 C   0  0  0  0  0  0  0  0  0  0  0  0
  188.5040  175.0680  142.4730 C   0  0  0  0  0  0  0  0  0  0  0  0
  192.7900  176.1890  146.7600 C   0  0  0  0  0  3  0  0  0  0  0  0
  193.3490  174.1400  145.6260 C   0  0  0  0  0  3  0  0  0  0  0  0
  190.7980  174.3550  142.2470 C   0  0  0  0  0  3  0  0  0  0  0  0
  191.2520  175.2790  145.0840 C   0  0  0  0  0  0  0  0  0  0  0  0
  190.5190  173.8430  140.9780 C   0  0  0  0  0  3  0  0  0  0  0  0
  188.2220  174.5410  141.2100 C   0  0  0  0  0  3  0  0  0  0  0  0
  193.6980  175.1670  146.4990 C   0  0  0  0  0  3  0  0  0  0  0  0
  189.0610  176.3540  144.8700 C   0  0  0  0  0  0  0  0  0  0  0  0
  190.6470  177.1490  146.4790 N   0  0  0  0  0  0  0  0  0  0  0  0
  191.7470  173.0020  144.2870 O   0  0  0  0  0  1  0  0  0  0  0  0
  187.5460  175.7770  143.1140 N   0  0  0  0  0  0  0  0  0  0  0  0
  187.7750  176.4320  144.2810 C   0  0  0  0  0  0  0  0  0  0  0  0
  189.2250  173.9120  140.4610 C   0  0  0  0  0  0  0  0  0  0  0  0
  189.7900  174.9240  143.0440 C   0  0  0  0  0  0  0  0  0  0  0  0
  189.4150  177.2020  145.9250 C   0  0  0  0  0  3  0  0  0  0  0  0
  185.2770  179.2270  144.8240 C   0  0  0  0  0  0  0  0  0  0  0  0
  184.4930  178.7150  145.8610 C   0  0  0  0  0  3  0  0  0  0  0  0
  186.6540  177.2200  144.8590 C   0  0  0  0  0  0  0  0  0  0  0  0
  184.7790  177.4560  146.3940 C   0  0  0  0  0  3  0  0  0  0  0  0
  186.3470  178.4800  144.3220 C   0  0  0  0  0  3  0  0  0  0  0  0
  185.8490  176.7120  145.8920 C   0  0  0  0  0  3  0  0  0  0  0  0
  184.9910  180.4760  144.2880 O   0  0  0  0  0  1  0  0  0  0  0  0
  188.9700  173.3710  139.1990 O   0  0  0  0  0  0  0  0  0  0  0  0
  189.8840  173.4860  138.1160 C   0  0  0  0  0  2  0  0  0  0  0  0
  189.0120  172.1140  136.2200 F   0  0  0  0  0  0  0  0  0  0  0  0
  190.8230  170.6130  139.7730 O   0  0  0  0  0  1  0  0  0  0  0  0
  190.0140  170.6680  138.2890 P   0  0  2  0  0  0  0  0  0  0  0  0
  191.1460  171.5700  137.1260 C   0  0  0  0  0  2  0  0  0  0  0  0
  189.8710  172.2100  137.2980 C   0  0  2  0  0  0  0  0  0  0  0  0
  189.7260  169.3280  137.6550 O   0  0  0  0  0  0  0  0  0  0  0  0
  1 13  1  0  0  0  0
  1  5  2  0  0  0  0
  2  8  2  0  0  0  0
  2  6  1  0  0  0  0
  3 12  1  0  0  0  0
  3  8  1  0  0  0  0
  4 18  1  0  0  0  0
  4 15  2  0  0  0  0
  6 11  2  0  0  0  0
  7 18  1  0  0  0  0
  8  1  1  0  0  0  0
  9  7  2  0  0  0  0
 10  4  1  0  0  0  0
 11  5  1  0  0  0  0
 12 19  1  0  0  0  0
 14  2  1  0  0  0  0
 15 16  1  0  0  0  0
 16 22  1  0  0  0  0
 16 12  2  0  0  0  0
 17  9  1  0  0  0  0
 17 10  2  0  0  0  0
 18  3  2  0  0  0  0
 19 13  2  0  0  0  0
 20 21  1  0  0  0  0
 21 23  2  0  0  0  0
 22 25  2  0  0  0  0
 24 20  2  0  0  0  0
 24 22  1  0  0  0  0
 25 23  1  0  0  0  0
 26 20  1  0  0  0  0
 27 17  1  0  0  0  0
 28 27  1  0  0  0  0
 31 34  2  6  0  0  0
 31 30  1  0  0  0  0
 32 33  1  0  0  0  0
 32 31  1  0  0  0  0
 33 29  1  6  0  0  0
 33 28  1  0  0  0  0
 33 31  1  0  0  0  0
M  END
>  <MODEL>
2

>  <REMARK>
 VINA RESULT:      -8.9      3.627      7.586
  Name = 
  4 active torsions:
  status: ('A' for Active; 'I' for Inactive)
    1  A    between atoms: O_3  and  C_13
    2  A    between atoms: O_3  and  C_29
    3  A    between atoms: C_12  and  C_28
    4  A    between atoms: C_13  and  C_33
                            x       y       z     vdW  Elec       q    Type
                         _______ _______ _______ _____ _____    ______ ____

>  <TORSDO>
F 4

$$$$
=
 OpenBabel11052419023D

 34 39  0  0  1  0  0  0  0  0999 V2000
  191.4470  172.9270  140.3390 C   0  0  0  0  0  0  0  0  0  0  0  0
  189.0310  172.8850  140.1160 C   0  0  0  0  0  0  0  0  0  0  0  0
  190.1690  174.5010  141.7060 C   0  0  0  0  0  0  0  0  0  0  0  0
  189.1520  176.3200  142.9940 C   0  0  0  0  0  0  0  0  0  0  0  0
  191.5570  172.0370  139.2690 C   0  0  0  0  0  3  0  0  0  0  0  0
  189.1610  172.0010  139.0420 C   0  0  0  0  0  3  0  0  0  0  0  0
  188.1070  175.6500  140.9240 C   0  0  0  0  0  3  0  0  0  0  0  0
  190.1860  173.4740  140.7040 C   0  0  0  0  0  0  0  0  0  0  0  0
  187.1020  176.5980  141.1190 C   0  0  0  0  0  3  0  0  0  0  0  0
  188.1360  177.2590  143.1960 C   0  0  0  0  0  3  0  0  0  0  0  0
  190.4180  171.6000  138.5990 C   0  0  0  0  0  3  0  0  0  0  0  0
  191.3250  174.6570  142.5220 C   0  0  0  0  0  0  0  0  0  0  0  0
  192.5570  173.2160  141.0580 N   0  0  0  0  0  0  0  0  0  0  0  0
  187.7590  173.0630  140.6430 O   0  0  0  0  0  1  0  0  0  0  0  0
  190.2040  176.3030  143.8440 N   0  0  0  0  0  0  0  0  0  0  0  0
  191.2930  175.5160  143.6490 C   0  0  0  0  0  0  0  0  0  0  0  0
  187.0960  177.3930  142.2660 C   0  0  0  0  0  0  0  0  0  0  0  0
  189.1170  175.4490  141.8800 C   0  0  0  0  0  0  0  0  0  0  0  0
  192.5120  174.0210  142.1440 C   0  0  0  0  0  3  0  0  0  0  0  0
  194.2250  176.9360  145.5830 C   0  0  0  0  0  0  0  0  0  0  0  0
  194.4730  175.9230  146.5120 C   0  0  0  0  0  3  0  0  0  0  0  0
  192.4070  175.6280  144.6280 C   0  0  0  0  0  0  0  0  0  0  0  0
  193.6890  174.7680  146.5100 C   0  0  0  0  0  3  0  0  0  0  0  0
  193.1930  176.7910  144.6500 C   0  0  0  0  0  3  0  0  0  0  0  0
  192.6590  174.6240  145.5770 C   0  0  0  0  0  3  0  0  0  0  0  0
  194.9990  178.0880  145.5860 O   0  0  0  0  0  1  0  0  0  0  0  0
  186.0660  178.3170  142.4460 O   0  0  0  0  0  0  0  0  0  0  0  0
  184.9830  178.0950  143.3420 C   0  0  0  0  0  2  0  0  0  0  0  0
  185.5640  180.3500  144.2420 F   0  0  0  0  0  0  0  0  0  0  0  0
  185.2280  176.7580  146.5090 O   0  0  0  0  0  0  0  0  0  0  0  0
  185.5460  178.3670  146.0980 P   0  0  2  0  0  0  0  0  0  0  0  0
  183.9570  179.0410  145.4130 C   0  0  0  0  0  2  0  0  0  0  0  0
  185.0500  179.0900  144.4820 C   0  0  2  0  0  0  0  0  0  0  0  0
  185.9360  179.2680  147.2460 O   0  0  0  0  0  1  0  0  0  0  0  0
  1  8  2  0  0  0  0
  1 13  1  0  0  0  0
  2 14  1  0  0  0  0
  2  8  1  0  0  0  0
  3 18  2  0  0  0  0
  3 12  1  0  0  0  0
  4 10  1  0  0  0  0
  4 15  2  0  0  0  0
  5  1  1  0  0  0  0
  6  2  2  0  0  0  0
  7  9  2  0  0  0  0
  7 18  1  0  0  0  0
  8  3  1  0  0  0  0
  9 17  1  0  0  0  0
 11  6  1  0  0  0  0
 11  5  2  0  0  0  0
 12 16  2  0  0  0  0
 13 19  2  0  0  0  0
 16 15  1  0  0  0  0
 16 22  1  0  0  0  0
 17 27  1  0  0  0  0
 17 10  2  0  0  0  0
 18  4  1  0  0  0  0
 19 12  1  0  0  0  0
 20 26  1  0  0  0  0
 20 21  1  0  0  0  0
 22 24  1  0  0  0  0
 22 25  2  0  0  0  0
 23 21  2  0  0  0  0
 24 20  2  0  0  0  0
 25 23  1  0  0  0  0
 27 28  1  0  0  0  0
 28 33  1  0  0  0  0
 31 30  2  1  0  0  0
 31 34  1  0  0  0  0
 32 31  1  0  0  0  0
 33 29  1  6  0  0  0
 33 32  1  0  0  0  0
 33 31  1  0  0  0  0
M  END
>  <MODEL>
3

>  <REMARK>
 VINA RESULT:      -8.6      3.204      8.139
  Name = 
  4 active torsions:
  status: ('A' for Active; 'I' for Inactive)
    1  A    between atoms: O_3  and  C_13
    2  A    between atoms: O_3  and  C_29
    3  A    between atoms: C_12  and  C_28
    4  A    between atoms: C_13  and  C_33
                            x       y       z     vdW  Elec       q    Type
                         _______ _______ _______ _____ _____    ______ ____

>  <TORSDO>
F 4

$$$$
=
 OpenBabel11052419023D

 34 39  0  0  1  0  0  0  0  0999 V2000
  193.8600  173.8670  144.1950 C   0  0  0  0  0  0  0  0  0  0  0  0
  193.5820  175.7920  145.6450 C   0  0  0  0  0  0  0  0  0  0  0  0
  191.6200  174.8370  144.3520 C   0  0  0  0  0  0  0  0  0  0  0  0
  189.2570  175.4620  144.5140 C   0  0  0  0  0  0  0  0  0  0  0  0
  195.1650  173.7080  144.6630 C   0  0  0  0  0  3  0  0  0  0  0  0
  194.8890  175.6130  146.1080 C   0  0  0  0  0  3  0  0  0  0  0  0
  190.6660  175.7730  146.4490 C   0  0  0  0  0  3  0  0  0  0  0  0
  192.9930  174.8360  144.7710 C   0  0  0  0  0  0  0  0  0  0  0  0
  189.5860  176.3030  147.1560 C   0  0  0  0  0  3  0  0  0  0  0  0
  188.1800  176.0070  145.2180 C   0  0  0  0  0  3  0  0  0  0  0  0
  195.6690  174.5590  145.6430 C   0  0  0  0  0  3  0  0  0  0  0  0
  191.2870  174.1420  143.1550 C   0  0  0  0  0  0  0  0  0  0  0  0
  193.4530  173.1190  143.1420 N   0  0  0  0  0  0  0  0  0  0  0  0
  192.9480  176.9820  145.9770 O   0  0  0  0  0  1  0  0  0  0  0  0
  189.0370  174.9350  143.2880 N   0  0  0  0  0  0  0  0  0  0  0  0
  189.9940  174.2720  142.5900 C   0  0  0  0  0  0  0  0  0  0  0  0
  188.3420  176.4440  146.5390 C   0  0  0  0  0  0  0  0  0  0  0  0
  190.5430  175.3970  145.1000 C   0  0  0  0  0  0  0  0  0  0  0  0
  192.2240  173.2650  142.5970 C   0  0  0  0  0  3  0  0  0  0  0  0
  188.5420  173.9670  139.1050 C   0  0  0  0  0  0  0  0  0  0  0  0
  188.9350  172.6770  138.7420 C   0  0  0  0  0  3  0  0  0  0  0  0
  189.6110  173.6940  141.2740 C   0  0  0  0  0  0  0  0  0  0  0  0
  189.6720  171.8960  139.6340 C   0  0  0  0  0  3  0  0  0  0  0  0
  188.8840  174.4740  140.3620 C   0  0  0  0  0  3  0  0  0  0  0  0
  190.0120  172.4030  140.8910 C   0  0  0  0  0  3  0  0  0  0  0  0
  187.8140  174.7480  138.2170 O   0  0  0  0  0  1  0  0  0  0  0  0
  187.2850  176.9980  147.2640 O   0  0  0  0  0  0  0  0  0  0  0  0
  186.5800  178.1540  146.8290 C   0  0  0  0  0  2  0  0  0  0  0  0
  184.9720  176.4050  146.0590 F   0  0  0  0  0  0  0  0  0  0  0  0
  185.6650  180.1690  144.1860 O   0  0  0  0  0  1  0  0  0  0  0  0
  185.0880  178.6060  144.4720 P   0  0  2  0  0  0  0  0  0  0  0  0
  184.2400  178.6710  146.1220 C   0  0  0  0  0  2  0  0  0  0  0  0
  185.3330  177.7390  146.0740 C   0  0  2  0  0  0  0  0  0  0  0  0
  184.0650  178.0990  143.4830 O   0  0  0  0  0  0  0  0  0  0  0  0
  1  5  2  0  0  0  0
  1  8  1  0  0  0  0
  2 14  1  0  0  0  0
  2  6  1  0  0  0  0
  3  8  1  0  0  0  0
  3 18  1  0  0  0  0
  4 18  2  0  0  0  0
  4 10  1  0  0  0  0
  5 11  1  0  0  0  0
  7  9  2  0  0  0  0
  8  2  2  0  0  0  0
 10 17  2  0  0  0  0
 11  6  2  0  0  0  0
 12  3  2  0  0  0  0
 13  1  1  0  0  0  0
 15  4  1  0  0  0  0
 16 12  1  0  0  0  0
 16 15  2  0  0  0  0
 17  9  1  0  0  0  0
 17 27  1  0  0  0  0
 18  7  1  0  0  0  0
 19 13  2  0  0  0  0
 19 12  1  0  0  0  0
 20 24  1  0  0  0  0
 21 20  2  0  0  0  0
 21 23  1  0  0  0  0
 22 16  1  0  0  0  0
 23 25  2  0  0  0  0
 24 22  2  0  0  0  0
 25 22  1  0  0  0  0
 26 20  1  0  0  0  0
 28 27  1  0  0  0  0
 30 31  1  0  0  0  0
 31 34  2  6  0  0  0
 31 33  1  0  0  0  0
 31 32  1  0  0  0  0
 33 29  1  1  0  0  0
 33 32  1  0  0  0  0
 33 28  1  0  0  0  0
M  END
>  <MODEL>
4

>  <REMARK>
 VINA RESULT:      -8.3      3.047      6.909
  Name = 
  4 active torsions:
  status: ('A' for Active; 'I' for Inactive)
    1  A    between atoms: O_3  and  C_13
    2  A    between atoms: O_3  and  C_29
    3  A    between atoms: C_12  and  C_28
    4  A    between atoms: C_13  and  C_33
                            x       y       z     vdW  Elec       q    Type
                         _______ _______ _______ _____ _____    ______ ____

>  <TORSDO>
F 4

$$$$
=
 OpenBabel11052419023D

 34 39  0  0  1  0  0  0  0  0999 V2000
  191.6210  173.4480  140.4650 C   0  0  0  0  0  0  0  0  0  0  0  0
  189.2600  173.5930  141.0050 C   0  0  0  0  0  0  0  0  0  0  0  0
  191.0290  173.7960  142.8120 C   0  0  0  0  0  0  0  0  0  0  0  0
  190.7170  174.3780  145.1710 C   0  0  0  0  0  0  0  0  0  0  0  0
  191.3060  173.4500  139.1050 C   0  0  0  0  0  3  0  0  0  0  0  0
  188.9630  173.6010  139.6400 C   0  0  0  0  0  3  0  0  0  0  0  0
  189.1220  175.2060  143.5600 C   0  0  0  0  0  3  0  0  0  0  0  0
  190.6120  173.6500  141.4470 C   0  0  0  0  0  0  0  0  0  0  0  0
  188.4010  175.8230  144.5840 C   0  0  0  0  0  3  0  0  0  0  0  0
  189.9850  174.9820  146.1970 C   0  0  0  0  0  3  0  0  0  0  0  0
  189.9810  173.5610  138.6910 C   0  0  0  0  0  3  0  0  0  0  0  0
  192.3450  173.3760  143.1570 C   0  0  0  0  0  0  0  0  0  0  0  0
  192.8980  173.1930  140.8340 N   0  0  0  0  0  0  0  0  0  0  0  0
  188.2010  173.4080  141.8840 O   0  0  0  0  0  1  0  0  0  0  0  0
  191.9060  173.8060  145.4670 N   0  0  0  0  0  0  0  0  0  0  0  0
  192.7400  173.3120  144.5160 C   0  0  0  0  0  0  0  0  0  0  0  0
  188.8140  175.6960  145.9110 C   0  0  0  0  0  0  0  0  0  0  0  0
  190.2580  174.4250  143.8340 C   0  0  0  0  0  0  0  0  0  0  0  0
  193.2620  173.1140  142.1340 C   0  0  0  0  0  3  0  0  0  0  0  0
  196.3580  173.1250  145.6240 C   0  0  0  0  0  0  0  0  0  0  0  0
  196.5060  171.7620  145.8940 C   0  0  0  0  0  3  0  0  0  0  0  0
  194.0440  172.7540  144.9660 C   0  0  0  0  0  0  0  0  0  0  0  0
  195.4270  170.8940  145.7110 C   0  0  0  0  0  3  0  0  0  0  0  0
  195.1320  173.6180  145.1680 C   0  0  0  0  0  3  0  0  0  0  0  0
  194.2020  171.3890  145.2550 C   0  0  0  0  0  3  0  0  0  0  0  0
  197.4270  173.9900  145.8110 O   0  0  0  0  0  1  0  0  0  0  0  0
  188.0600  176.3040  146.9160 O   0  0  0  0  0  0  0  0  0  0  0  0
  187.7570  177.6940  146.9150 C   0  0  0  0  0  2  0  0  0  0  0  0
  185.6570  176.9540  148.0440 F   0  0  0  0  0  0  0  0  0  0  0  0
  185.9090  179.5710  144.6920 O   0  0  0  0  0  0  0  0  0  0  0  0
  185.2720  178.5770  145.9010 P   0  0  2  0  0  0  0  0  0  0  0  0
  185.9040  179.2600  147.5080 C   0  0  0  0  0  2  0  0  0  0  0  0
  186.2980  177.9000  147.2680 C   0  0  2  0  0  0  0  0  0  0  0  0
  183.7640  178.5620  146.0040 O   0  0  0  0  0  1  0  0  0  0  0  0
  1 13  2  0  0  0  0
  1  8  1  0  0  0  0
  2  8  1  0  0  0  0
  2 14  1  0  0  0  0
  3 12  1  0  0  0  0
  3 18  1  0  0  0  0
  4 15  1  0  0  0  0
  4 10  1  0  0  0  0
  5  1  1  0  0  0  0
  6  2  2  0  0  0  0
  7 18  1  0  0  0  0
  7  9  2  0  0  0  0
  8  3  2  0  0  0  0
  9 17  1  0  0  0  0
 11  5  2  0  0  0  0
 11  6  1  0  0  0  0
 12 16  1  0  0  0  0
 13 19  1  0  0  0  0
 16 22  1  0  0  0  0
 16 15  2  0  0  0  0
 17 10  2  0  0  0  0
 17 27  1  0  0  0  0
 18  4  2  0  0  0  0
 19 12  2  0  0  0  0
 20 26  1  0  0  0  0
 20 21  1  0  0  0  0
 22 24  1  0  0  0  0
 22 25  2  0  0  0  0
 23 21  2  0  0  0  0
 24 20  2  0  0  0  0
 25 23  1  0  0  0  0
 28 27  1  0  0  0  0
 28 33  1  0  0  0  0
 31 30  2  6  0  0  0
 31 34  1  0  0  0  0
 31 33  1  0  0  0  0
 31 32  1  0  0  0  0
 33 32  1  0  0  0  0
 33 29  1  1  0  0  0
M  END
>  <MODEL>
5

>  <REMARK>
 VINA RESULT:      -8.3      3.598      7.909
  Name = 
  4 active torsions:
  status: ('A' for Active; 'I' for Inactive)
    1  A    between atoms: O_3  and  C_13
    2  A    between atoms: O_3  and  C_29
    3  A    between atoms: C_12  and  C_28
    4  A    between atoms: C_13  and  C_33
                            x       y       z     vdW  Elec       q    Type
                         _______ _______ _______ _____ _____    ______ ____

>  <TORSDO>
F 4

$$$$
=
 OpenBabel11052419023D

 34 39  0  0  1  0  0  0  0  0999 V2000
  187.3480  177.1860  146.6060 C   0  0  0  0  0  0  0  0  0  0  0  0
  185.9840  179.1250  146.0880 C   0  0  0  0  0  0  0  0  0  0  0  0
  186.6110  177.4500  144.2890 C   0  0  0  0  0  0  0  0  0  0  0  0
  185.8150  177.3530  141.9740 C   0  0  0  0  0  0  0  0  0  0  0  0
  187.2640  177.4950  147.9650 C   0  0  0  0  0  3  0  0  0  0  0  0
  185.9040  179.4140  147.4530 C   0  0  0  0  0  3  0  0  0  0  0  0
  184.3820  178.3450  143.6430 C   0  0  0  0  0  3  0  0  0  0  0  0
  186.6010  177.9210  145.6450 C   0  0  0  0  0  0  0  0  0  0  0  0
  183.4250  178.6200  142.6650 C   0  0  0  0  0  3  0  0  0  0  0  0
  184.8630  177.6430  140.9930 C   0  0  0  0  0  3  0  0  0  0  0  0
  186.5150  178.5880  148.3920 C   0  0  0  0  0  3  0  0  0  0  0  0
  187.6240  176.5250  143.9110 C   0  0  0  0  0  0  0  0  0  0  0  0
  188.1990  176.2090  146.2150 N   0  0  0  0  0  0  0  0  0  0  0  0
  185.5490  180.1040  145.2050 O   0  0  0  0  0  1  0  0  0  0  0  0
  186.8970  176.6150  141.6360 N   0  0  0  0  0  0  0  0  0  0  0  0
  187.8020  176.1790  142.5490 C   0  0  0  0  0  0  0  0  0  0  0  0
  183.6680  178.2920  141.3310 C   0  0  0  0  0  0  0  0  0  0  0  0
  185.6180  177.7610  143.3140 C   0  0  0  0  0  0  0  0  0  0  0  0
  188.3780  175.9000  144.9100 C   0  0  0  0  0  3  0  0  0  0  0  0
  189.6880  173.4770  140.6790 C   0  0  0  0  0  0  0  0  0  0  0  0
  191.0110  173.7510  141.0350 C   0  0  0  0  0  3  0  0  0  0  0  0
  188.9220  175.3310  142.0570 C   0  0  0  0  0  0  0  0  0  0  0  0
  191.2950  174.8160  141.8920 C   0  0  0  0  0  3  0  0  0  0  0  0
  188.6500  174.2670  141.1830 C   0  0  0  0  0  3  0  0  0  0  0  0
  190.2570  175.6040  142.3950 C   0  0  0  0  0  3  0  0  0  0  0  0
  189.4030  172.4220  139.8220 O   0  0  0  0  0  1  0  0  0  0  0  0
  182.7030  178.6010  140.3710 O   0  0  0  0  0  0  0  0  0  0  0  0
  181.4320  177.9630  140.3280 C   0  0  0  0  0  2  0  0  0  0  0  0
  180.6530  180.3290  140.5090 F   0  0  0  0  0  0  0  0  0  0  0  0
  178.8160  176.9410  142.3250 O   0  0  0  0  0  0  0  0  0  0  0  0
  179.1670  178.5430  141.9160 P   0  0  2  0  0  0  0  0  0  0  0  0
  179.0400  178.6340  140.0650 C   0  0  0  0  0  2  0  0  0  0  0  0
  180.3390  178.9850  140.5700 C   0  0  2  0  0  0  0  0  0  0  0  0
  178.2140  179.5790  142.4630 O   0  0  0  0  0  1  0  0  0  0  0  0
  1  5  2  0  0  0  0
  2  6  1  0  0  0  0
  3  8  1  0  0  0  0
  4 18  1  0  0  0  0
  5 11  1  0  0  0  0
  6 11  2  0  0  0  0
  8  2  2  0  0  0  0
  8  1  1  0  0  0  0
  9  7  2  0  0  0  0
 10 17  2  0  0  0  0
 10  4  1  0  0  0  0
 12  3  1  0  0  0  0
 12 19  1  0  0  0  0
 13  1  1  0  0  0  0
 14  2  1  0  0  0  0
 15  4  2  0  0  0  0
 15 16  1  0  0  0  0
 16 12  2  0  0  0  0
 17  9  1  0  0  0  0
 18  7  1  0  0  0  0
 18  3  2  0  0  0  0
 19 13  2  0  0  0  0
 20 21  2  0  0  0  0
 20 24  1  0  0  0  0
 21 23  1  0  0  0  0
 22 25  1  0  0  0  0
 22 16  1  0  0  0  0
 23 25  2  0  0  0  0
 24 22  2  0  0  0  0
 26 20  1  0  0  0  0
 27 17  1  0  0  0  0
 28 27  1  0  0  0  0
 28 33  1  0  0  0  0
 31 30  2  1  0  0  0
 31 34  1  0  0  0  0
 32 33  1  0  0  0  0
 32 31  1  0  0  0  0
 33 29  1  6  0  0  0
 33 31  1  0  0  0  0
M  END
>  <MODEL>
6

>  <REMARK>
 VINA RESULT:      -8.3      5.194      8.410
  Name = 
  4 active torsions:
  status: ('A' for Active; 'I' for Inactive)
    1  A    between atoms: O_3  and  C_13
    2  A    between atoms: O_3  and  C_29
    3  A    between atoms: C_12  and  C_28
    4  A    between atoms: C_13  and  C_33
                            x       y       z     vdW  Elec       q    Type
                         _______ _______ _______ _____ _____    ______ ____

>  <TORSDO>
F 4

$$$$
=
 OpenBabel11052419023D

 34 39  0  0  1  0  0  0  0  0999 V2000
  193.4720  174.3860  144.4360 C   0  0  0  0  0  0  0  0  0  0  0  0
  192.7880  176.6710  144.8860 C   0  0  0  0  0  0  0  0  0  0  0  0
  191.4310  175.1800  143.3460 C   0  0  0  0  0  0  0  0  0  0  0  0
  189.2490  175.6430  142.3320 C   0  0  0  0  0  0  0  0  0  0  0  0
  194.4700  174.4990  145.4040 C   0  0  0  0  0  3  0  0  0  0  0  0
  193.7880  176.7630  145.8580 C   0  0  0  0  0  3  0  0  0  0  0  0
  189.7980  176.7150  144.4240 C   0  0  0  0  0  3  0  0  0  0  0  0
  192.5220  175.4280  144.2440 C   0  0  0  0  0  0  0  0  0  0  0  0
  188.5690  177.3760  144.4130 C   0  0  0  0  0  3  0  0  0  0  0  0
  188.0250  176.3180  142.3150 C   0  0  0  0  0  3  0  0  0  0  0  0
  194.6070  175.6740  146.1390 C   0  0  0  0  0  3  0  0  0  0  0  0
  191.5470  174.0880  142.4400 C   0  0  0  0  0  0  0  0  0  0  0  0
  193.4590  173.2900  143.6420 N   0  0  0  0  0  0  0  0  0  0  0  0
  192.1650  177.8500  144.5020 O   0  0  0  0  0  1  0  0  0  0  0  0
  189.4930  174.7060  141.3870 N   0  0  0  0  0  0  0  0  0  0  0  0
  190.5950  173.9150  141.4040 C   0  0  0  0  0  0  0  0  0  0  0  0
  187.6840  177.1990  143.3490 C   0  0  0  0  0  0  0  0  0  0  0  0
  190.1910  175.8830  143.3610 C   0  0  0  0  0  0  0  0  0  0  0  0
  192.5600  173.1440  142.6430 C   0  0  0  0  0  3  0  0  0  0  0  0
  191.5130  172.2640  138.1210 C   0  0  0  0  0  0  0  0  0  0  0  0
  191.0600  170.9580  138.3200 C   0  0  0  0  0  3  0  0  0  0  0  0
  190.7220  172.8870  140.3370 C   0  0  0  0  0  0  0  0  0  0  0  0
  190.4470  170.6090  139.5250 C   0  0  0  0  0  3  0  0  0  0  0  0
  191.3500  173.2210  139.1270 C   0  0  0  0  0  3  0  0  0  0  0  0
  190.2840  171.5660  140.5290 C   0  0  0  0  0  3  0  0  0  0  0  0
  192.1290  172.6120  136.9260 O   0  0  0  0  0  1  0  0  0  0  0  0
  186.4720  177.8910  143.3540 O   0  0  0  0  0  0  0  0  0  0  0  0
  185.4290  177.6060  144.2780 C   0  0  0  0  0  2  0  0  0  0  0  0
  185.3710  180.0730  144.6610 F   0  0  0  0  0  0  0  0  0  0  0  0
  185.9400  177.0870  147.6470 O   0  0  0  0  0  0  0  0  0  0  0  0
  185.8320  178.5960  146.8940 P   0  0  2  0  0  0  0  0  0  0  0  0
  184.1390  178.6660  146.1360 C   0  0  0  0  0  2  0  0  0  0  0  0
  185.2020  178.8030  145.1790 C   0  0  2  0  0  0  0  0  0  0  0  0
  185.9420  179.7910  147.8120 O   0  0  0  0  0  1  0  0  0  0  0  0
  1  5  2  0  0  0  0
  2  6  1  0  0  0  0
  3 18  1  0  0  0  0
  3  8  1  0  0  0  0
  4 18  1  0  0  0  0
  5 11  1  0  0  0  0
  6 11  2  0  0  0  0
  8  1  1  0  0  0  0
  8  2  2  0  0  0  0
  9  7  1  0  0  0  0
 10  4  2  0  0  0  0
 10 17  1  0  0  0  0
 12 19  1  0  0  0  0
 12  3  2  0  0  0  0
 13  1  1  0  0  0  0
 14  2  1  0  0  0  0
 15 16  2  0  0  0  0
 15  4  1  0  0  0  0
 16 12  1  0  0  0  0
 17 27  1  0  0  0  0
 17  9  2  0  0  0  0
 18  7  2  0  0  0  0
 19 13  2  0  0  0  0
 20 21  2  0  0  0  0
 20 24  1  0  0  0  0
 21 23  1  0  0  0  0
 22 25  1  0  0  0  0
 22 16  1  0  0  0  0
 23 25  2  0  0  0  0
 24 22  2  0  0  0  0
 26 20  1  0  0  0  0
 27 28  1  0  0  0  0
 28 33  1  0  0  0  0
 31 30  2  1  0  0  0
 31 34  1  0  0  0  0
 32 31  1  0  0  0  0
 33 29  1  6  0  0  0
 33 32  1  0  0  0  0
 33 31  1  0  0  0  0
M  END
>  <MODEL>
7

>  <REMARK>
 VINA RESULT:      -8.3      3.390      7.008
  Name = 
  4 active torsions:
  status: ('A' for Active; 'I' for Inactive)
    1  A    between atoms: O_3  and  C_13
    2  A    between atoms: O_3  and  C_29
    3  A    between atoms: C_12  and  C_28
    4  A    between atoms: C_13  and  C_33
                            x       y       z     vdW  Elec       q    Type
                         _______ _______ _______ _____ _____    ______ ____

>  <TORSDO>
F 4

$$$$
=
 OpenBabel11052419023D

 34 39  0  0  1  0  0  0  0  0999 V2000
  186.0860  177.1230  143.9840 C   0  0  0  0  0  0  0  0  0  0  0  0
  186.9600  176.8080  146.2250 C   0  0  0  0  0  0  0  0  0  0  0  0
  188.2810  176.0650  144.1910 C   0  0  0  0  0  0  0  0  0  0  0  0
  190.5750  175.2100  144.1100 C   0  0  0  0  0  0  0  0  0  0  0  0
  185.0270  177.8680  144.5060 C   0  0  0  0  0  3  0  0  0  0  0  0
  185.8970  177.5620  146.7300 C   0  0  0  0  0  3  0  0  0  0  0  0
  189.9660  176.7060  145.9030 C   0  0  0  0  0  3  0  0  0  0  0  0
  187.1500  176.6850  144.8200 C   0  0  0  0  0  0  0  0  0  0  0  0
  191.2530  176.6030  146.4330 C   0  0  0  0  0  3  0  0  0  0  0  0
  191.8590  175.0950  144.6500 C   0  0  0  0  0  3  0  0  0  0  0  0
  184.9500  178.1160  145.8740 C   0  0  0  0  0  3  0  0  0  0  0  0
  188.1290  175.5990  142.8540 C   0  0  0  0  0  0  0  0  0  0  0  0
  186.0520  176.7780  142.6760 N   0  0  0  0  0  0  0  0  0  0  0  0
  187.7310  176.1040  147.1410 O   0  0  0  0  0  1  0  0  0  0  0  0
  190.3170  174.6380  142.9120 N   0  0  0  0  0  0  0  0  0  0  0  0
  189.1410  174.8090  142.2550 C   0  0  0  0  0  0  0  0  0  0  0  0
  192.2010  175.7800  145.8240 C   0  0  0  0  0  0  0  0  0  0  0  0
  189.5810  175.9710  144.7690 C   0  0  0  0  0  0  0  0  0  0  0  0
  187.0120  176.0060  142.1170 C   0  0  0  0  0  3  0  0  0  0  0  0
  189.3320  172.2290  139.4870 C   0  0  0  0  0  0  0  0  0  0  0  0
  188.6830  172.8860  138.4380 C   0  0  0  0  0  3  0  0  0  0  0  0
  189.0000  174.1700  140.9190 C   0  0  0  0  0  0  0  0  0  0  0  0
  188.1850  174.1760  138.6250 C   0  0  0  0  0  3  0  0  0  0  0  0
  189.4830  172.8670  140.7220 C   0  0  0  0  0  3  0  0  0  0  0  0
  188.3370  174.8120  139.8600 C   0  0  0  0  0  3  0  0  0  0  0  0
  189.8230  170.9440  139.3050 O   0  0  0  0  0  1  0  0  0  0  0  0
  193.4740  175.6780  146.3890 O   0  0  0  0  0  0  0  0  0  0  0  0
  194.5320  174.9560  145.7700 C   0  0  0  0  0  2  0  0  0  0  0  0
  195.3090  177.2330  145.1000 F   0  0  0  0  0  0  0  0  0  0  0  0
  194.9390  173.8550  142.5300 O   0  0  0  0  0  1  0  0  0  0  0  0
  195.1870  175.4390  143.0640 P   0  0  2  0  0  0  0  0  0  0  0  0
  196.5390  175.3430  144.3340 C   0  0  0  0  0  2  0  0  0  0  0  0
  195.3060  175.8740  144.8470 C   0  0  2  0  0  0  0  0  0  0  0  0
  195.6550  176.4160  142.0110 O   0  0  0  0  0  0  0  0  0  0  0  0
  1  5  2  0  0  0  0
  1  8  1  0  0  0  0
  2  6  1  0  0  0  0
  2 14  1  0  0  0  0
  3 18  1  0  0  0  0
  3  8  1  0  0  0  0
  4 10  2  0  0  0  0
  4 18  1  0  0  0  0
  5 11  1  0  0  0  0
  7  9  1  0  0  0  0
  8  2  2  0  0  0  0
 10 17  1  0  0  0  0
 11  6  2  0  0  0  0
 12  3  2  0  0  0  0
 13  1  1  0  0  0  0
 15  4  1  0  0  0  0
 16 12  1  0  0  0  0
 16 15  2  0  0  0  0
 17 27  1  0  0  0  0
 17  9  2  0  0  0  0
 18  7  2  0  0  0  0
 19 13  2  0  0  0  0
 19 12  1  0  0  0  0
 20 24  1  0  0  0  0
 21 23  1  0  0  0  0
 21 20  2  0  0  0  0
 22 16  1  0  0  0  0
 23 25  2  0  0  0  0
 24 22  2  0  0  0  0
 25 22  1  0  0  0  0
 26 20  1  0  0  0  0
 28 27  1  0  0  0  0
 30 31  1  0  0  0  0
 31 34  2  6  0  0  0
 31 32  1  0  0  0  0
 31 33  1  0  0  0  0
 32 33  1  0  0  0  0
 33 29  1  1  0  0  0
 33 28  1  0  0  0  0
M  END
>  <MODEL>
8

>  <REMARK>
 VINA RESULT:      -8.3      1.439      1.785
  Name = 
  4 active torsions:
  status: ('A' for Active; 'I' for Inactive)
    1  A    between atoms: O_3  and  C_13
    2  A    between atoms: O_3  and  C_29
    3  A    between atoms: C_12  and  C_28
    4  A    between atoms: C_13  and  C_33
                            x       y       z     vdW  Elec       q    Type
                         _______ _______ _______ _____ _____    ______ ____

>  <TORSDO>
F 4

$$$$
=
 OpenBabel11052419023D

 34 39  0  0  1  0  0  0  0  0999 V2000
  187.7920  177.5800  146.5590 C   0  0  0  0  0  0  0  0  0  0  0  0
  186.5820  178.1190  144.5260 C   0  0  0  0  0  0  0  0  0  0  0  0
  188.6920  176.7130  144.4560 C   0  0  0  0  0  0  0  0  0  0  0  0
  189.6600  175.5370  142.5370 C   0  0  0  0  0  0  0  0  0  0  0  0
  186.7620  178.1390  147.3150 C   0  0  0  0  0  3  0  0  0  0  0  0
  185.5560  178.6680  145.3000 C   0  0  0  0  0  3  0  0  0  0  0  0
  187.2770  175.9140  142.5740 C   0  0  0  0  0  3  0  0  0  0  0  0
  187.6670  177.4390  145.1490 C   0  0  0  0  0  0  0  0  0  0  0  0
  187.1550  175.2960  141.3290 C   0  0  0  0  0  3  0  0  0  0  0  0
  189.5390  174.9320  141.2830 C   0  0  0  0  0  3  0  0  0  0  0  0
  185.6290  178.6520  146.6900 C   0  0  0  0  0  3  0  0  0  0  0  0
  189.9280  176.4960  145.1290 C   0  0  0  0  0  0  0  0  0  0  0  0
  188.9380  177.2240  147.1850 N   0  0  0  0  0  0  0  0  0  0  0  0
  186.5500  178.3680  143.1600 O   0  0  0  0  0  1  0  0  0  0  0  0
  190.8610  175.5150  143.1600 N   0  0  0  0  0  0  0  0  0  0  0  0
  191.0380  175.9610  144.4300 C   0  0  0  0  0  0  0  0  0  0  0  0
  188.2870  174.8210  140.6650 C   0  0  0  0  0  0  0  0  0  0  0  0
  188.5320  176.1010  143.1780 C   0  0  0  0  0  0  0  0  0  0  0  0
  190.0000  176.7340  146.5060 C   0  0  0  0  0  3  0  0  0  0  0  0
  194.4880  176.8840  145.6920 C   0  0  0  0  0  0  0  0  0  0  0  0
  194.9420  175.6660  146.2050 C   0  0  0  0  0  3  0  0  0  0  0  0
  192.3970  175.8350  145.0210 C   0  0  0  0  0  0  0  0  0  0  0  0
  194.1260  174.5350  146.1380 C   0  0  0  0  0  3  0  0  0  0  0  0
  193.2200  176.9680  145.1080 C   0  0  0  0  0  3  0  0  0  0  0  0
  192.8590  174.6200  145.5540 C   0  0  0  0  0  3  0  0  0  0  0  0
  195.2950  178.0110  145.7630 O   0  0  0  0  0  1  0  0  0  0  0  0
  188.1370  174.2280  139.4100 O   0  0  0  0  0  0  0  0  0  0  0  0
  188.2090  172.8210  139.2130 C   0  0  0  0  0  2  0  0  0  0  0  0
  190.5500  171.9940  139.4790 F   0  0  0  0  0  0  0  0  0  0  0  0
  189.1040  174.4480  136.3100 O   0  0  0  0  0  0  0  0  0  0  0  0
  190.1560  173.5880  137.3150 P   0  0  2  0  0  0  0  0  0  0  0  0
  189.5290  171.8400  137.3330 C   0  0  0  0  0  2  0  0  0  0  0  0
  189.5590  172.4530  138.6320 C   0  0  2  0  0  0  0  0  0  0  0  0
  191.5930  173.5240  136.8520 O   0  0  0  0  0  1  0  0  0  0  0  0
  1 13  1  0  0  0  0
  1  5  2  0  0  0  0
  2  8  2  0  0  0  0
  2  6  1  0  0  0  0
  3 12  1  0  0  0  0
  3  8  1  0  0  0  0
  4 15  2  0  0  0  0
  4 18  1  0  0  0  0
  6 11  2  0  0  0  0
  7 18  1  0  0  0  0
  8  1  1  0  0  0  0
  9  7  2  0  0  0  0
 10  4  1  0  0  0  0
 11  5  1  0  0  0  0
 12 19  1  0  0  0  0
 14  2  1  0  0  0  0
 15 16  1  0  0  0  0
 16 22  1  0  0  0  0
 16 12  2  0  0  0  0
 17 10  2  0  0  0  0
 17  9  1  0  0  0  0
 18  3  2  0  0  0  0
 19 13  2  0  0  0  0
 20 26  1  0  0  0  0
 20 21  1  0  0  0  0
 22 24  1  0  0  0  0
 22 25  2  0  0  0  0
 23 21  2  0  0  0  0
 24 20  2  0  0  0  0
 25 23  1  0  0  0  0
 27 17  1  0  0  0  0
 28 27  1  0  0  0  0
 31 30  2  6  0  0  0
 31 32  1  0  0  0  0
 31 33  1  0  0  0  0
 32 33  1  0  0  0  0
 33 28  1  0  0  0  0
 33 29  1  1  0  0  0
 34 31  1  0  0  0  0
M  END
>  <MODEL>
9

>  <REMARK>
 VINA RESULT:      -8.2      3.012      6.710
  Name = 
  4 active torsions:
  status: ('A' for Active; 'I' for Inactive)
    1  A    between atoms: O_3  and  C_13
    2  A    between atoms: O_3  and  C_29
    3  A    between atoms: C_12  and  C_28
    4  A    between atoms: C_13  and  C_33
                            x       y       z     vdW  Elec       q    Type
                         _______ _______ _______ _____ _____    ______ ____

>  <TORSDO>
F 4

$$$$
