=
 OpenBabel11052421053D

 43 46  0  0  1  0  0  0  0  0999 V2000
  189.3320  173.7000  140.1180 C   0  0  0  0  0  0  0  0  0  0  0  0
  190.3680  173.0760  142.7610 C   0  0  0  0  0  0  0  0  0  0  0  0
  190.2840  171.7890  137.9310 C   0  0  0  0  0  0  0  0  0  0  0  0
  190.7490  171.8020  139.1680 C   0  0  0  0  0  3  0  0  0  0  0  0
  191.1730  172.6680  141.5210 C   0  0  0  0  0  2  0  0  0  0  0  0
  190.2010  172.5400  140.3480 C   0  0  0  0  0  0  0  0  0  0  0  0
  188.7710  173.9110  138.7260 C   0  0  0  0  0  3  0  0  0  0  0  0
  188.8120  174.3620  141.2920 C   0  0  1  0  0  3  0  0  0  0  0  0
  189.3180  173.8840  142.6100 C   0  0  0  0  0  3  0  0  0  0  0  0
  189.0730  172.7990  137.6530 C   0  0  0  0  0  3  0  0  0  0  0  0
  190.7680  172.5230  144.0540 C   0  0  2  0  0  3  0  0  0  0  0  0
  189.6440  172.5800  144.9160 O   0  0  0  0  0  1  0  0  0  0  0  0
  191.8380  173.3270  144.5720 N   0  0  0  0  0  2  0  0  0  0  0  0
  193.2180  173.0570  144.6270 C   0  0  0  0  0  0  0  0  0  0  0  0
  193.7040  172.0610  143.9580 O   0  0  0  0  0  0  0  0  0  0  0  0
  194.1090  173.8930  145.4250 C   0  0  2  0  0  3  0  0  0  0  0  0
  194.3420  175.2920  144.7680 C   0  0  1  0  0  3  0  0  0  0  0  0
  194.2410  175.2350  143.3590 O   0  0  0  0  0  1  0  0  0  0  0  0
  193.5770  176.4860  145.3190 C   0  0  0  0  0  2  0  0  0  0  0  0
  193.0390  176.0860  146.6770 C   0  0  0  0  0  2  0  0  0  0  0  0
  190.9820  176.7230  145.5780 O   0  0  0  0  0  0  0  0  0  0  0  0
  191.6210  176.1340  146.6950 C   0  0  1  0  0  3  0  0  0  0  0  0
  188.7060  176.6900  145.5780 C   0  0  0  0  0  2  0  0  0  0  0  0
  189.5930  174.8930  147.3810 C   0  0  0  0  0  2  0  0  0  0  0  0
  188.6080  176.0260  146.9340 C   0  0  0  0  0  2  0  0  0  0  0  0
  190.9550  175.4370  147.6230 C   0  0  0  0  0  2  0  0  0  0  0  0
  189.8880  177.5640  145.6130 C   0  0  0  0  0  2  0  0  0  0  0  0
  196.2090  174.1630  145.9520 C   0  0  0  0  0  1  0  0  0  0  0  0
  195.2690  173.1680  145.6330 O   0  0  0  0  0  0  0  0  0  0  0  0
  187.8670  175.4420  141.2210 N   0  0  0  0  0  2  0  0  0  0  0  0
  185.6490  177.1240  143.8550 C   0  0  0  0  0  2  0  0  0  0  0  0
  186.0090  178.5470  143.5010 C   0  0  0  0  0  0  0  0  0  0  0  0
  187.3930  177.7220  141.5370 C   0  0  0  0  0  2  0  0  0  0  0  0
  186.2550  176.0460  142.9170 C   0  0  0  0  0  2  0  0  0  0  0  0
  187.5770  176.4040  142.2400 C   0  0  1  0  0  3  0  0  0  0  0  0
  186.8350  178.8250  142.5010 C   0  0  0  0  0  3  0  0  0  0  0  0
  185.5710  179.6360  144.3930 C   0  0  0  0  0  2  0  0  0  0  0  0
  185.8980  179.4440  145.6680 F   0  0  0  0  0  0  0  0  0  0  0  0
  190.8720  170.6830  136.9820 C   0  0  1  0  0  3  0  0  0  0  0  0
  191.8600  171.4720  135.8530 C   0  0  0  0  0  2  0  0  0  0  0  0
  193.6670  171.7660  135.9210 S   0  0  0  0  0  1  0  0  0  0  0  0
  191.0850  168.3110  136.5950 O   0  0  0  0  0  1  0  0  0  0  0  0
  191.2210  169.3780  137.5380 N   0  0  0  0  0  2  0  0  0  0  0  0
  1  6  1  0  0  0  0
  1  8  1  0  0  0  0
  2 11  1  0  0  0  0
  3  4  1  0  0  0  0
  4  6  2  0  0  0  0
  5  2  1  0  0  0  0
  6  5  1  0  0  0  0
  7  1  2  0  0  0  0
  8 30  1  6  0  0  0
  8  9  1  0  0  0  0
  9  2  2  0  0  0  0
 10  3  2  0  0  0  0
 10  7  1  0  0  0  0
 11 13  1  0  0  0  0
 11 12  1  1  0  0  0
 13 14  1  0  0  0  0
 15 14  2  0  0  0  0
 16 14  1  6  0  0  0
 16 29  1  0  0  0  0
 17 18  1  6  0  0  0
 17 19  1  0  0  0  0
 17 16  1  0  0  0  0
 19 20  1  0  0  0  0
 21 27  1  0  0  0  0
 21 22  1  0  0  0  0
 22 20  1  6  0  0  0
 22 26  1  0  0  0  0
 23 27  1  0  0  0  0
 23 25  1  0  0  0  0
 24 26  1  0  0  0  0
 25 24  1  0  0  0  0
 29 28  1  0  0  0  0
 32 31  1  0  0  0  0
 32 37  1  0  0  0  0
 33 35  1  0  0  0  0
 33 36  1  0  0  0  0
 34 31  1  0  0  0  0
 35 30  1  6  0  0  0
 35 34  1  0  0  0  0
 36 32  2  0  0  0  0
 37 38  1  0  0  0  0
 39 40  1  1  0  0  0
 39 43  1  0  0  0  0
 39  3  1  0  0  0  0
 40 41  1  0  0  0  0
 42 43  1  0  0  0  0
M  END
>  <MODEL>
1

>  <REMARK>
 VINA RESULT:      -7.1      0.000      0.000
  Name = 
  14 active torsions:
  status: ('A' for Active; 'I' for Inactive)
    1  A    between atoms: N_1  and  C_34
    2  A    between atoms: N_1  and  C_35
    3  A    between atoms: C_2  and  N_6
    4  A    between atoms: C_2  and  C_13
    5  A    between atoms: C_3  and  C_4
    6  A    between atoms: C_3  and  C_12
    7  A    between atoms: C_3  and  O_42
    8  A    between atoms: C_4  and  C_22
    9  A    between atoms: C_5  and  C_16
   10  A    between atoms: C_5  and  C_18
   11  A    between atoms: C_5  and  N_23
   12  A    between atoms: C_14  and  C_41
   13  A    between atoms: C_19  and  C_25
   14  A    between atoms: C_22  and  C_41
                            x       y       z     vdW  Elec       q    Type
                         _______ _______ _______ _____ _____    ______ ____

>  <TORSDO>
F 14

$$$$
=
 OpenBabel11052421053D

 43 46  0  0  1  0  0  0  0  0999 V2000
  191.0590  174.7930  144.7960 C   0  0  0  0  0  0  0  0  0  0  0  0
  189.1360  174.0490  142.7490 C   0  0  0  0  0  0  0  0  0  0  0  0
  193.3470  172.7950  145.1340 C   0  0  0  0  0  0  0  0  0  0  0  0
  192.2770  172.5880  144.3860 C   0  0  0  0  0  3  0  0  0  0  0  0
  189.9340  172.9530  143.4660 C   0  0  0  0  0  2  0  0  0  0  0  0
  191.2270  173.5780  143.9910 C   0  0  0  0  0  0  0  0  0  0  0  0
  192.1470  175.1510  145.7900 C   0  0  0  0  0  3  0  0  0  0  0  0
  190.0470  175.7260  144.3580 C   0  0  1  0  0  3  0  0  0  0  0  0
  189.1890  175.2960  143.2180 C   0  0  0  0  0  3  0  0  0  0  0  0
  193.4360  174.2470  145.8000 C   0  0  0  0  0  3  0  0  0  0  0  0
  188.3820  173.6800  141.5510 C   0  0  2  0  0  3  0  0  0  0  0  0
  187.4190  172.7100  141.9280 O   0  0  0  0  0  1  0  0  0  0  0  0
  189.3020  173.1290  140.5970 N   0  0  0  0  0  2  0  0  0  0  0  0
  189.1370  172.9020  139.2180 C   0  0  0  0  0  0  0  0  0  0  0  0
  188.1240  173.4200  138.6000 O   0  0  0  0  0  0  0  0  0  0  0  0
  190.1000  172.0960  138.4760 C   0  0  2  0  0  3  0  0  0  0  0  0
  191.4260  172.8770  138.2000 C   0  0  1  0  0  3  0  0  0  0  0  0
  191.1890  174.0890  137.5120 O   0  0  0  0  0  1  0  0  0  0  0  0
  192.3940  173.0880  139.3540 C   0  0  0  0  0  2  0  0  0  0  0  0
  193.3730  174.1630  138.9280 C   0  0  0  0  0  2  0  0  0  0  0  0
  195.1120  175.5860  139.8190 O   0  0  0  0  0  0  0  0  0  0  0  0
  193.9750  174.7770  140.0560 C   0  0  1  0  0  3  0  0  0  0  0  0
  195.9940  176.6510  141.6270 C   0  0  0  0  0  2  0  0  0  0  0  0
  193.4960  175.8420  142.2390 C   0  0  0  0  0  2  0  0  0  0  0  0
  195.0060  176.0450  142.6000 C   0  0  0  0  0  2  0  0  0  0  0  0
  193.3330  174.7620  141.2300 C   0  0  0  0  0  2  0  0  0  0  0  0
  196.2530  175.6380  140.5940 C   0  0  0  0  0  2  0  0  0  0  0  0
  189.9060  170.3220  137.2210 C   0  0  0  0  0  1  0  0  0  0  0  0
  189.4610  171.6500  137.3330 O   0  0  0  0  0  0  0  0  0  0  0  0
  189.8430  177.0030  144.9840 N   0  0  0  0  0  2  0  0  0  0  0  0
  186.5030  176.6150  146.8220 C   0  0  0  0  0  2  0  0  0  0  0  0
  185.7290  177.6050  145.9860 C   0  0  0  0  0  0  0  0  0  0  0  0
  187.7380  177.9050  144.4590 C   0  0  0  0  0  2  0  0  0  0  0  0
  187.9530  176.3450  146.3370 C   0  0  0  0  0  2  0  0  0  0  0  0
  188.6400  177.4860  145.5880 C   0  0  1  0  0  3  0  0  0  0  0  0
  186.2890  178.2330  144.9590 C   0  0  0  0  0  3  0  0  0  0  0  0
  184.3810  178.0090  146.4250 C   0  0  0  0  0  2  0  0  0  0  0  0
  184.3280  178.3880  147.6990 F   0  0  0  0  0  0  0  0  0  0  0  0
  194.4310  171.6570  145.1190 C   0  0  1  0  0  3  0  0  0  0  0  0
  195.8590  172.3410  144.5120 C   0  0  0  0  0  2  0  0  0  0  0  0
  197.1480  173.2840  145.4110 S   0  0  0  0  0  1  0  0  0  0  0  0
  194.6570  169.3330  145.7260 O   0  0  0  0  0  1  0  0  0  0  0  0
  194.4420  170.6680  146.1930 N   0  0  0  0  0  2  0  0  0  0  0  0
  1  7  1  0  0  0  0
  2  9  2  0  0  0  0
  2  5  1  0  0  0  0
  3 10  1  0  0  0  0
  4  3  2  0  0  0  0
  5  6  1  0  0  0  0
  6  4  1  0  0  0  0
  6  1  2  0  0  0  0
  7 10  2  0  0  0  0
  8  1  1  0  0  0  0
  8 30  1  1  0  0  0
  9  8  1  0  0  0  0
 11 12  1  1  0  0  0
 11  2  1  0  0  0  0
 13 11  1  0  0  0  0
 14 13  1  0  0  0  0
 15 14  2  0  0  0  0
 16 29  1  6  0  0  0
 16 14  1  0  0  0  0
 17 18  1  1  0  0  0
 17 16  1  0  0  0  0
 17 19  1  0  0  0  0
 20 19  1  0  0  0  0
 21 22  1  0  0  0  0
 21 27  1  0  0  0  0
 22 20  1  6  0  0  0
 22 26  1  0  0  0  0
 23 25  1  0  0  0  0
 24 25  1  0  0  0  0
 26 24  1  0  0  0  0
 27 23  1  0  0  0  0
 28 29  1  0  0  0  0
 32 37  1  0  0  0  0
 32 31  1  0  0  0  0
 33 36  1  0  0  0  0
 33 35  1  0  0  0  0
 34 31  1  0  0  0  0
 35 30  1  6  0  0  0
 35 34  1  0  0  0  0
 36 32  2  0  0  0  0
 37 38  1  0  0  0  0
 39 40  1  1  0  0  0
 39  3  1  0  0  0  0
 39 43  1  0  0  0  0
 40 41  1  0  0  0  0
 42 43  1  0  0  0  0
M  END
>  <MODEL>
2

>  <REMARK>
 VINA RESULT:      -6.8      3.158      6.699
  Name = 
  14 active torsions:
  status: ('A' for Active; 'I' for Inactive)
    1  A    between atoms: N_1  and  C_34
    2  A    between atoms: N_1  and  C_35
    3  A    between atoms: C_2  and  N_6
    4  A    between atoms: C_2  and  C_13
    5  A    between atoms: C_3  and  C_4
    6  A    between atoms: C_3  and  C_12
    7  A    between atoms: C_3  and  O_42
    8  A    between atoms: C_4  and  C_22
    9  A    between atoms: C_5  and  C_16
   10  A    between atoms: C_5  and  C_18
   11  A    between atoms: C_5  and  N_23
   12  A    between atoms: C_14  and  C_41
   13  A    between atoms: C_19  and  C_25
   14  A    between atoms: C_22  and  C_41
                            x       y       z     vdW  Elec       q    Type
                         _______ _______ _______ _____ _____    ______ ____

>  <TORSDO>
F 14

$$$$
=
 OpenBabel11052421053D

 43 46  0  0  1  0  0  0  0  0999 V2000
  189.2520  174.0290  140.3550 C   0  0  0  0  0  0  0  0  0  0  0  0
  190.9710  173.5710  142.6530 C   0  0  0  0  0  0  0  0  0  0  0  0
  190.2890  172.7850  137.7630 C   0  0  0  0  0  0  0  0  0  0  0  0
  190.9760  172.8480  138.8910 C   0  0  0  0  0  3  0  0  0  0  0  0
  191.5820  173.5880  141.2470 C   0  0  0  0  0  2  0  0  0  0  0  0
  190.4810  173.2340  140.2490 C   0  0  0  0  0  0  0  0  0  0  0  0
  188.3710  174.1560  139.1280 C   0  0  0  0  0  3  0  0  0  0  0  0
  188.8060  174.3560  141.6900 C   0  0  1  0  0  3  0  0  0  0  0  0
  189.7080  173.9690  142.8110 C   0  0  0  0  0  3  0  0  0  0  0  0
  188.7850  173.3240  137.8570 C   0  0  0  0  0  3  0  0  0  0  0  0
  191.7950  173.0780  143.7560 C   0  0  2  0  0  3  0  0  0  0  0  0
  191.2370  173.5650  144.9650 O   0  0  0  0  0  1  0  0  0  0  0  0
  193.1260  173.5830  143.5790 N   0  0  0  0  0  2  0  0  0  0  0  0
  194.3150  173.2360  144.2480 C   0  0  0  0  0  0  0  0  0  0  0  0
  194.3440  172.1810  144.9980 O   0  0  0  0  0  0  0  0  0  0  0  0
  195.5180  174.0490  144.0990 C   0  0  2  0  0  3  0  0  0  0  0  0
  195.5090  175.2860  145.0560 C   0  0  1  0  0  3  0  0  0  0  0  0
  195.4870  176.5040  144.3400 O   0  0  0  0  0  1  0  0  0  0  0  0
  194.5020  175.3100  146.1970 C   0  0  0  0  0  2  0  0  0  0  0  0
  193.8960  176.6970  146.2310 C   0  0  0  0  0  2  0  0  0  0  0  0
  191.6980  176.5930  147.2330 O   0  0  0  0  0  0  0  0  0  0  0  0
  192.4890  176.6410  146.0600 C   0  0  1  0  0  3  0  0  0  0  0  0
  189.4420  176.6160  146.9360 C   0  0  0  0  0  2  0  0  0  0  0  0
  190.6170  177.4550  144.6600 C   0  0  0  0  0  2  0  0  0  0  0  0
  189.5320  176.6250  145.4260 C   0  0  0  0  0  2  0  0  0  0  0  0
  191.9680  176.8640  144.8480 C   0  0  0  0  0  2  0  0  0  0  0  0
  190.5740  175.8170  147.4280 C   0  0  0  0  0  2  0  0  0  0  0  0
  196.5950  173.4710  142.2930 C   0  0  0  0  0  1  0  0  0  0  0  0
  195.6250  174.3750  142.7600 O   0  0  0  0  0  0  0  0  0  0  0  0
  187.5670  175.0360  141.9510 N   0  0  0  0  0  2  0  0  0  0  0  0
  185.7180  177.4020  144.3320 C   0  0  0  0  0  2  0  0  0  0  0  0
  185.9120  178.6560  143.5140 C   0  0  0  0  0  0  0  0  0  0  0  0
  186.9960  177.2970  141.6610 C   0  0  0  0  0  2  0  0  0  0  0  0
  186.2300  176.1000  143.6590 C   0  0  0  0  0  2  0  0  0  0  0  0
  187.3890  176.2570  142.6750 C   0  0  1  0  0  3  0  0  0  0  0  0
  186.5340  178.6310  142.3420 C   0  0  0  0  0  3  0  0  0  0  0  0
  185.5570  179.9570  144.1090 C   0  0  0  0  0  2  0  0  0  0  0  0
  185.6480  179.9780  145.4360 F   0  0  0  0  0  0  0  0  0  0  0  0
  190.9910  172.0480  136.5660 C   0  0  1  0  0  3  0  0  0  0  0  0
  190.2720  170.5180  136.4340 C   0  0  0  0  0  2  0  0  0  0  0  0
  190.5710  169.0220  137.4490 S   0  0  0  0  0  1  0  0  0  0  0  0
  190.6750  174.0490  135.2550 O   0  0  0  0  0  1  0  0  0  0  0  0
  191.3920  172.8180  135.3910 N   0  0  0  0  0  2  0  0  0  0  0  0
  1  8  1  0  0  0  0
  2  9  2  0  0  0  0
  2 11  1  0  0  0  0
  3 10  2  0  0  0  0
  3  4  1  0  0  0  0
  4  6  2  0  0  0  0
  5  2  1  0  0  0  0
  6  1  1  0  0  0  0
  6  5  1  0  0  0  0
  7  1  2  0  0  0  0
  8 30  1  6  0  0  0
  8  9  1  0  0  0  0
 10  7  1  0  0  0  0
 11 12  1  1  0  0  0
 13 11  1  0  0  0  0
 13 14  1  0  0  0  0
 14 15  2  0  0  0  0
 16 29  1  6  0  0  0
 16 14  1  0  0  0  0
 16 17  1  0  0  0  0
 17 18  1  6  0  0  0
 17 19  1  0  0  0  0
 19 20  1  0  0  0  0
 21 27  1  0  0  0  0
 22 20  1  1  0  0  0
 22 21  1  0  0  0  0
 23 27  1  0  0  0  0
 24 26  1  0  0  0  0
 24 25  1  0  0  0  0
 25 23  1  0  0  0  0
 26 22  1  0  0  0  0
 28 29  1  0  0  0  0
 32 37  1  0  0  0  0
 32 31  1  0  0  0  0
 33 36  1  0  0  0  0
 33 35  1  0  0  0  0
 34 31  1  0  0  0  0
 35 30  1  6  0  0  0
 35 34  1  0  0  0  0
 36 32  2  0  0  0  0
 37 38  1  0  0  0  0
 39 40  1  6  0  0  0
 39  3  1  0  0  0  0
 40 41  1  0  0  0  0
 42 43  1  0  0  0  0
 43 39  1  0  0  0  0
M  END
>  <MODEL>
3

>  <REMARK>
 VINA RESULT:      -6.7      1.754      2.027
  Name = 
  14 active torsions:
  status: ('A' for Active; 'I' for Inactive)
    1  A    between atoms: N_1  and  C_34
    2  A    between atoms: N_1  and  C_35
    3  A    between atoms: C_2  and  N_6
    4  A    between atoms: C_2  and  C_13
    5  A    between atoms: C_3  and  C_4
    6  A    between atoms: C_3  and  C_12
    7  A    between atoms: C_3  and  O_42
    8  A    between atoms: C_4  and  C_22
    9  A    between atoms: C_5  and  C_16
   10  A    between atoms: C_5  and  C_18
   11  A    between atoms: C_5  and  N_23
   12  A    between atoms: C_14  and  C_41
   13  A    between atoms: C_19  and  C_25
   14  A    between atoms: C_22  and  C_41
                            x       y       z     vdW  Elec       q    Type
                         _______ _______ _______ _____ _____    ______ ____

>  <TORSDO>
F 14

$$$$
=
 OpenBabel11052421053D

 43 46  0  0  1  0  0  0  0  0999 V2000
  189.4830  173.8650  140.2170 C   0  0  0  0  0  0  0  0  0  0  0  0
  191.3810  172.9630  142.2250 C   0  0  0  0  0  0  0  0  0  0  0  0
  190.4680  173.5360  137.3430 C   0  0  0  0  0  0  0  0  0  0  0  0
  191.2160  173.3500  138.4170 C   0  0  0  0  0  3  0  0  0  0  0  0
  191.8970  173.4480  140.8650 C   0  0  0  0  0  2  0  0  0  0  0  0
  190.7740  173.2750  139.8440 C   0  0  0  0  0  0  0  0  0  0  0  0
  188.5180  174.2400  139.1100 C   0  0  0  0  0  3  0  0  0  0  0  0
  189.0940  173.7460  141.6030 C   0  0  1  0  0  3  0  0  0  0  0  0
  190.0980  173.1560  142.5330 C   0  0  0  0  0  3  0  0  0  0  0  0
  188.9280  173.8570  137.6390 C   0  0  0  0  0  3  0  0  0  0  0  0
  192.3170  172.2700  143.1090 C   0  0  2  0  0  3  0  0  0  0  0  0
  191.5650  171.4030  143.9420 O   0  0  0  0  0  1  0  0  0  0  0  0
  192.9990  173.2560  143.8980 N   0  0  0  0  0  2  0  0  0  0  0  0
  194.3090  173.7550  143.7750 C   0  0  0  0  0  0  0  0  0  0  0  0
  194.9960  173.4960  142.7080 O   0  0  0  0  0  0  0  0  0  0  0  0
  194.8990  174.5660  144.8340 C   0  0  2  0  0  3  0  0  0  0  0  0
  194.4420  176.0590  144.7500 C   0  0  1  0  0  3  0  0  0  0  0  0
  193.8180  176.3490  143.5150 O   0  0  0  0  0  1  0  0  0  0  0  0
  193.6460  176.6380  145.9100 C   0  0  0  0  0  2  0  0  0  0  0  0
  192.8370  175.5050  146.5080 C   0  0  0  0  0  2  0  0  0  0  0  0
  190.5850  175.0750  147.2750 O   0  0  0  0  0  0  0  0  0  0  0  0
  191.4460  175.7510  146.3770 C   0  0  1  0  0  3  0  0  0  0  0  0
  188.3690  175.5690  147.1220 C   0  0  0  0  0  2  0  0  0  0  0  0
  189.7700  177.4970  145.8630 C   0  0  0  0  0  2  0  0  0  0  0  0
  188.5510  176.5180  145.9570 C   0  0  0  0  0  2  0  0  0  0  0  0
  191.0290  176.7540  145.5960 C   0  0  0  0  0  2  0  0  0  0  0  0
  189.3680  174.5020  146.9640 C   0  0  0  0  0  2  0  0  0  0  0  0
  196.5650  173.7270  145.9660 C   0  0  0  0  0  1  0  0  0  0  0  0
  196.2690  174.3920  144.7640 O   0  0  0  0  0  0  0  0  0  0  0  0
  187.8140  174.1810  142.0910 N   0  0  0  0  0  2  0  0  0  0  0  0
  187.9910  177.9810  142.5540 C   0  0  0  0  0  2  0  0  0  0  0  0
  186.6370  178.1390  143.2060 C   0  0  0  0  0  0  0  0  0  0  0  0
  186.3370  175.6160  143.2230 C   0  0  0  0  0  2  0  0  0  0  0  0
  188.4170  176.5130  142.2850 C   0  0  0  0  0  2  0  0  0  0  0  0
  187.2850  175.5110  142.0600 C   0  0  1  0  0  3  0  0  0  0  0  0
  185.8630  177.0920  143.4580 C   0  0  0  0  0  3  0  0  0  0  0  0
  186.0970  179.4960  143.4060 C   0  0  0  0  0  2  0  0  0  0  0  0
  185.7470  179.7490  144.6640 F   0  0  0  0  0  0  0  0  0  0  0  0
  191.1610  173.2550  135.9600 C   0  0  1  0  0  3  0  0  0  0  0  0
  191.3570  174.7520  135.1900 C   0  0  0  0  0  2  0  0  0  0  0  0
  192.6280  176.0370  135.4940 S   0  0  0  0  0  1  0  0  0  0  0  0
  191.7310  171.0770  135.0930 O   0  0  0  0  0  1  0  0  0  0  0  0
  192.1650  172.1980  135.8680 N   0  0  0  0  0  2  0  0  0  0  0  0
  1  8  1  0  0  0  0
  2  9  2  0  0  0  0
  2 11  1  0  0  0  0
  3 10  2  0  0  0  0
  3  4  1  0  0  0  0
  4  6  2  0  0  0  0
  5  2  1  0  0  0  0
  6  1  1  0  0  0  0
  6  5  1  0  0  0  0
  7  1  2  0  0  0  0
  8 30  1  1  0  0  0
  8  9  1  0  0  0  0
 10  7  1  0  0  0  0
 11 13  1  0  0  0  0
 11 12  1  1  0  0  0
 14 13  1  0  0  0  0
 15 14  2  0  0  0  0
 16 14  1  6  0  0  0
 17 18  1  6  0  0  0
 17 16  1  0  0  0  0
 17 19  1  0  0  0  0
 19 20  1  0  0  0  0
 22 20  1  1  0  0  0
 22 21  1  0  0  0  0
 24 25  1  0  0  0  0
 25 23  1  0  0  0  0
 26 24  1  0  0  0  0
 26 22  1  0  0  0  0
 27 23  1  0  0  0  0
 27 21  1  0  0  0  0
 29 16  1  0  0  0  0
 29 28  1  0  0  0  0
 31 32  1  0  0  0  0
 32 37  1  0  0  0  0
 32 36  2  0  0  0  0
 33 36  1  0  0  0  0
 34 31  1  0  0  0  0
 35 30  1  1  0  0  0
 35 34  1  0  0  0  0
 35 33  1  0  0  0  0
 37 38  1  0  0  0  0
 39 40  1  1  0  0  0
 39  3  1  0  0  0  0
 40 41  1  0  0  0  0
 42 43  1  0  0  0  0
 43 39  1  0  0  0  0
M  END
>  <MODEL>
4

>  <REMARK>
 VINA RESULT:      -6.6      1.594      1.996
  Name = 
  14 active torsions:
  status: ('A' for Active; 'I' for Inactive)
    1  A    between atoms: N_1  and  C_34
    2  A    between atoms: N_1  and  C_35
    3  A    between atoms: C_2  and  N_6
    4  A    between atoms: C_2  and  C_13
    5  A    between atoms: C_3  and  C_4
    6  A    between atoms: C_3  and  C_12
    7  A    between atoms: C_3  and  O_42
    8  A    between atoms: C_4  and  C_22
    9  A    between atoms: C_5  and  C_16
   10  A    between atoms: C_5  and  C_18
   11  A    between atoms: C_5  and  N_23
   12  A    between atoms: C_14  and  C_41
   13  A    between atoms: C_19  and  C_25
   14  A    between atoms: C_22  and  C_41
                            x       y       z     vdW  Elec       q    Type
                         _______ _______ _______ _____ _____    ______ ____

>  <TORSDO>
F 14

$$$$
=
 OpenBabel11052421053D

 43 46  0  0  1  0  0  0  0  0999 V2000
  184.9230  178.2990  142.5950 C   0  0  0  0  0  0  0  0  0  0  0  0
  186.6810  177.2170  140.5490 C   0  0  0  0  0  0  0  0  0  0  0  0
  182.0770  178.8450  141.6240 C   0  0  0  0  0  0  0  0  0  0  0  0
  183.0860  178.5100  140.8380 C   0  0  0  0  0  3  0  0  0  0  0  0
  185.4940  178.0960  140.1350 C   0  0  0  0  0  2  0  0  0  0  0  0
  184.4400  178.0180  141.2380 C   0  0  0  0  0  0  0  0  0  0  0  0
  183.9250  178.7900  143.6250 C   0  0  0  0  0  3  0  0  0  0  0  0
  186.2280  177.7820  142.9380 C   0  0  1  0  0  3  0  0  0  0  0  0
  187.0020  177.1360  141.8410 C   0  0  0  0  0  3  0  0  0  0  0  0
  182.4140  178.8500  143.1890 C   0  0  0  0  0  3  0  0  0  0  0  0
  187.3830  176.4720  139.5050 C   0  0  2  0  0  3  0  0  0  0  0  0
  186.4300  176.1000  138.5230 O   0  0  0  0  0  1  0  0  0  0  0  0
  187.9660  175.3050  140.1050 N   0  0  0  0  0  2  0  0  0  0  0  0
  188.5150  174.1610  139.4960 C   0  0  0  0  0  0  0  0  0  0  0  0
  188.7550  174.1650  138.2240 O   0  0  0  0  0  0  0  0  0  0  0  0
  188.8220  172.9730  140.2850 C   0  0  2  0  0  3  0  0  0  0  0  0
  188.3230  173.1060  141.7610 C   0  0  1  0  0  3  0  0  0  0  0  0
  187.1950  172.2910  142.0100 O   0  0  0  0  0  1  0  0  0  0  0  0
  189.3430  172.9780  142.8830 C   0  0  0  0  0  2  0  0  0  0  0  0
  189.6780  174.3810  143.3450 C   0  0  0  0  0  2  0  0  0  0  0  0
  191.6690  175.7520  143.3950 O   0  0  0  0  0  0  0  0  0  0  0  0
  191.0600  174.4990  143.6460 C   0  0  1  0  0  3  0  0  0  0  0  0
  193.8570  175.9530  143.9890 C   0  0  0  0  0  2  0  0  0  0  0  0
  192.8180  173.8040  145.2430 C   0  0  0  0  0  2  0  0  0  0  0  0
  193.9710  174.5200  144.4620 C   0  0  0  0  0  2  0  0  0  0  0  0
  191.6600  173.5330  144.3510 C   0  0  0  0  0  2  0  0  0  0  0  0
  192.9230  175.9550  142.8540 C   0  0  0  0  0  2  0  0  0  0  0  0
  190.2430  171.4340  139.6760 C   0  0  0  0  0  1  0  0  0  0  0  0
  190.1820  172.7480  140.1680 O   0  0  0  0  0  0  0  0  0  0  0  0
  186.7840  177.8880  144.2590 N   0  0  0  0  0  2  0  0  0  0  0  0
  188.3330  175.8360  147.1000 C   0  0  0  0  0  2  0  0  0  0  0  0
  189.7560  176.2940  146.8880 C   0  0  0  0  0  0  0  0  0  0  0  0
  188.9810  177.9160  145.0930 C   0  0  0  0  0  2  0  0  0  0  0  0
  187.2820  176.5390  146.2010 C   0  0  0  0  0  2  0  0  0  0  0  0
  187.7790  177.0440  144.8470 C   0  0  1  0  0  3  0  0  0  0  0  0
  190.0670  177.1830  145.9530 C   0  0  0  0  0  3  0  0  0  0  0  0
  190.8410  175.6120  147.6180 C   0  0  0  0  0  2  0  0  0  0  0  0
  191.1920  176.2260  148.7450 F   0  0  0  0  0  0  0  0  0  0  0  0
  180.6820  179.0210  140.9230 C   0  0  1  0  0  3  0  0  0  0  0  0
  179.6200  177.9150  141.6450 C   0  0  0  0  0  2  0  0  0  0  0  0
  177.7890  177.9630  141.7110 S   0  0  0  0  0  1  0  0  0  0  0  0
  179.2850  180.3410  139.4640 O   0  0  0  0  0  1  0  0  0  0  0  0
  180.2520  180.3570  140.5180 N   0  0  0  0  0  2  0  0  0  0  0  0
  1  8  1  0  0  0  0
  1  7  1  0  0  0  0
  2  9  2  0  0  0  0
  3 10  1  0  0  0  0
  4  6  1  0  0  0  0
  4  3  2  0  0  0  0
  5  2  1  0  0  0  0
  5  6  1  0  0  0  0
  6  1  2  0  0  0  0
  8 30  1  6  0  0  0
  9  8  1  0  0  0  0
 10  7  2  0  0  0  0
 11 12  1  6  0  0  0
 11 13  1  0  0  0  0
 11  2  1  0  0  0  0
 14 13  1  0  0  0  0
 15 14  2  0  0  0  0
 16 14  1  6  0  0  0
 16 17  1  0  0  0  0
 17 18  1  1  0  0  0
 17 19  1  0  0  0  0
 19 20  1  0  0  0  0
 21 22  1  0  0  0  0
 22 20  1  1  0  0  0
 22 26  1  0  0  0  0
 23 25  1  0  0  0  0
 25 24  1  0  0  0  0
 26 24  1  0  0  0  0
 27 21  1  0  0  0  0
 27 23  1  0  0  0  0
 28 29  1  0  0  0  0
 29 16  1  0  0  0  0
 32 31  1  0  0  0  0
 32 37  1  0  0  0  0
 33 36  1  0  0  0  0
 34 31  1  0  0  0  0
 35 30  1  1  0  0  0
 35 33  1  0  0  0  0
 35 34  1  0  0  0  0
 36 32  2  0  0  0  0
 37 38  1  0  0  0  0
 39  3  1  0  0  0  0
 39 40  1  1  0  0  0
 40 41  1  0  0  0  0
 42 43  1  0  0  0  0
 43 39  1  0  0  0  0
M  END
>  <MODEL>
5

>  <REMARK>
 VINA RESULT:      -6.6      4.796      8.266
  Name = 
  14 active torsions:
  status: ('A' for Active; 'I' for Inactive)
    1  A    between atoms: N_1  and  C_34
    2  A    between atoms: N_1  and  C_35
    3  A    between atoms: C_2  and  N_6
    4  A    between atoms: C_2  and  C_13
    5  A    between atoms: C_3  and  C_4
    6  A    between atoms: C_3  and  C_12
    7  A    between atoms: C_3  and  O_42
    8  A    between atoms: C_4  and  C_22
    9  A    between atoms: C_5  and  C_16
   10  A    between atoms: C_5  and  C_18
   11  A    between atoms: C_5  and  N_23
   12  A    between atoms: C_14  and  C_41
   13  A    between atoms: C_19  and  C_25
   14  A    between atoms: C_22  and  C_41
                            x       y       z     vdW  Elec       q    Type
                         _______ _______ _______ _____ _____    ______ ____

>  <TORSDO>
F 14

$$$$
=
 OpenBabel11052421053D

 43 46  0  0  1  0  0  0  0  0999 V2000
  189.9730  176.6900  142.9760 C   0  0  0  0  0  0  0  0  0  0  0  0
  188.8710  174.1410  142.1180 C   0  0  0  0  0  0  0  0  0  0  0  0
  192.8090  176.5000  144.1010 C   0  0  0  0  0  0  0  0  0  0  0  0
  192.0500  175.4590  143.8040 C   0  0  0  0  0  3  0  0  0  0  0  0
  189.9380  174.1680  143.2200 C   0  0  0  0  0  2  0  0  0  0  0  0
  190.7540  175.4500  143.0560 C   0  0  0  0  0  0  0  0  0  0  0  0
  190.6470  177.9890  143.3710 C   0  0  0  0  0  3  0  0  0  0  0  0
  188.7410  176.6310  142.2240 C   0  0  1  0  0  3  0  0  0  0  0  0
  188.3250  175.2910  141.7230 C   0  0  0  0  0  3  0  0  0  0  0  0
  192.1790  177.9240  143.7300 C   0  0  0  0  0  3  0  0  0  0  0  0
  188.5320  172.8500  141.5200 C   0  0  2  0  0  3  0  0  0  0  0  0
  187.2680  172.4570  142.0280 O   0  0  0  0  0  1  0  0  0  0  0  0
  189.5420  171.9030  141.9000 N   0  0  0  0  0  2  0  0  0  0  0  0
  190.4330  171.1700  141.0950 C   0  0  0  0  0  0  0  0  0  0  0  0
  190.5710  171.4800  139.8460 O   0  0  0  0  0  0  0  0  0  0  0  0
  191.2080  170.0680  141.6550 C   0  0  2  0  0  3  0  0  0  0  0  0
  192.4530  170.5750  142.4530 C   0  0  1  0  0  3  0  0  0  0  0  0
  193.0240  171.7250  141.8610 O   0  0  0  0  0  1  0  0  0  0  0  0
  192.3260  170.7480  143.9590 C   0  0  0  0  0  2  0  0  0  0  0  0
  193.2810  169.7660  144.6050 C   0  0  0  0  0  2  0  0  0  0  0  0
  194.5740  171.5760  145.5520 O   0  0  0  0  0  0  0  0  0  0  0  0
  194.5500  170.3620  144.8250 C   0  0  1  0  0  3  0  0  0  0  0  0
  196.6270  172.4560  145.9880 C   0  0  0  0  0  2  0  0  0  0  0  0
  196.9300  169.8690  145.2920 C   0  0  0  0  0  2  0  0  0  0  0  0
  197.3700  171.3710  145.2390 C   0  0  0  0  0  2  0  0  0  0  0  0
  195.6570  169.6620  144.5520 C   0  0  0  0  0  2  0  0  0  0  0  0
  195.3600  172.6770  145.2770 C   0  0  0  0  0  2  0  0  0  0  0  0
  192.2810  168.2150  141.2350 C   0  0  0  0  0  1  0  0  0  0  0  0
  191.5180  169.2160  140.6100 O   0  0  0  0  0  0  0  0  0  0  0  0
  187.9290  177.7900  141.9710 N   0  0  0  0  0  2  0  0  0  0  0  0
  186.2250  178.3070  145.3650 C   0  0  0  0  0  2  0  0  0  0  0  0
  184.8100  178.3750  144.8390 C   0  0  0  0  0  0  0  0  0  0  0  0
  185.6400  177.8300  142.5000 C   0  0  0  0  0  2  0  0  0  0  0  0
  187.3000  177.9700  144.2980 C   0  0  0  0  0  2  0  0  0  0  0  0
  186.9870  178.3940  142.8630 C   0  0  1  0  0  3  0  0  0  0  0  0
  184.5420  178.2200  143.5490 C   0  0  0  0  0  3  0  0  0  0  0  0
  183.7300  178.7920  145.7520 C   0  0  0  0  0  2  0  0  0  0  0  0
  184.0320  178.6410  147.0390 F   0  0  0  0  0  0  0  0  0  0  0  0
  194.2590  176.1760  144.6120 C   0  0  1  0  0  3  0  0  0  0  0  0
  195.2490  176.0400  143.2430 C   0  0  0  0  0  2  0  0  0  0  0  0
  196.9650  176.6380  143.0070 S   0  0  0  0  0  1  0  0  0  0  0  0
  193.7490  176.7770  146.8920 O   0  0  0  0  0  1  0  0  0  0  0  0
  194.7310  176.7870  145.8520 N   0  0  0  0  0  2  0  0  0  0  0  0
  1  6  2  0  0  0  0
  1  7  1  0  0  0  0
  2  5  1  0  0  0  0
  3 39  1  0  0  0  0
  4  3  2  0  0  0  0
  6  5  1  0  0  0  0
  6  4  1  0  0  0  0
  7 10  2  0  0  0  0
  8 30  1  1  0  0  0
  8  1  1  0  0  0  0
  9  2  2  0  0  0  0
  9  8  1  0  0  0  0
 10  3  1  0  0  0  0
 11 13  1  0  0  0  0
 11 12  1  1  0  0  0
 11  2  1  0  0  0  0
 14 16  1  0  0  0  0
 14 13  1  0  0  0  0
 15 14  2  0  0  0  0
 16 29  1  6  0  0  0
 16 17  1  0  0  0  0
 17 18  1  6  0  0  0
 17 19  1  0  0  0  0
 19 20  1  0  0  0  0
 22 20  1  1  0  0  0
 22 21  1  0  0  0  0
 25 24  1  0  0  0  0
 25 23  1  0  0  0  0
 26 22  1  0  0  0  0
 26 24  1  0  0  0  0
 27 21  1  0  0  0  0
 27 23  1  0  0  0  0
 29 28  1  0  0  0  0
 32 31  1  0  0  0  0
 32 37  1  0  0  0  0
 33 35  1  0  0  0  0
 33 36  1  0  0  0  0
 34 31  1  0  0  0  0
 35 30  1  6  0  0  0
 35 34  1  0  0  0  0
 36 32  2  0  0  0  0
 37 38  1  0  0  0  0
 39 40  1  6  0  0  0
 39 43  1  0  0  0  0
 41 40  1  0  0  0  0
 43 42  1  0  0  0  0
M  END
>  <MODEL>
6

>  <REMARK>
 VINA RESULT:      -6.6      3.056      6.407
  Name = 
  14 active torsions:
  status: ('A' for Active; 'I' for Inactive)
    1  A    between atoms: N_1  and  C_34
    2  A    between atoms: N_1  and  C_35
    3  A    between atoms: C_2  and  N_6
    4  A    between atoms: C_2  and  C_13
    5  A    between atoms: C_3  and  C_4
    6  A    between atoms: C_3  and  C_12
    7  A    between atoms: C_3  and  O_42
    8  A    between atoms: C_4  and  C_22
    9  A    between atoms: C_5  and  C_16
   10  A    between atoms: C_5  and  C_18
   11  A    between atoms: C_5  and  N_23
   12  A    between atoms: C_14  and  C_41
   13  A    between atoms: C_19  and  C_25
   14  A    between atoms: C_22  and  C_41
                            x       y       z     vdW  Elec       q    Type
                         _______ _______ _______ _____ _____    ______ ____

>  <TORSDO>
F 14

$$$$
=
 OpenBabel11052421053D

 43 46  0  0  1  0  0  0  0  0999 V2000
  189.2360  174.8000  142.4150 C   0  0  0  0  0  0  0  0  0  0  0  0
  192.0360  175.5590  142.2410 C   0  0  0  0  0  0  0  0  0  0  0  0
  187.3910  177.0620  143.3200 C   0  0  0  0  0  0  0  0  0  0  0  0
  188.7110  177.1250  143.3260 C   0  0  0  0  0  3  0  0  0  0  0  0
  191.1140  176.2990  143.2190 C   0  0  0  0  0  2  0  0  0  0  0  0
  189.6800  176.1680  142.7070 C   0  0  0  0  0  0  0  0  0  0  0  0
  187.7500  174.5050  142.4530 C   0  0  0  0  0  3  0  0  0  0  0  0
  190.2040  173.9240  141.7970 C   0  0  1  0  0  3  0  0  0  0  0  0
  191.5880  174.4550  141.6440 C   0  0  0  0  0  3  0  0  0  0  0  0
  186.7810  175.7230  142.6920 C   0  0  0  0  0  3  0  0  0  0  0  0
  193.3570  176.1280  141.9770 C   0  0  2  0  0  3  0  0  0  0  0  0
  193.9360  175.3990  140.9090 O   0  0  0  0  0  1  0  0  0  0  0  0
  194.1490  175.9880  143.1670 N   0  0  0  0  0  2  0  0  0  0  0  0
  194.7050  174.8320  143.7440 C   0  0  0  0  0  0  0  0  0  0  0  0
  194.7310  173.7270  143.0690 O   0  0  0  0  0  0  0  0  0  0  0  0
  195.2600  174.8660  145.0930 C   0  0  2  0  0  3  0  0  0  0  0  0
  195.0410  176.2540  145.7800 C   0  0  1  0  0  3  0  0  0  0  0  0
  195.3110  177.3250  144.8980 O   0  0  0  0  0  1  0  0  0  0  0  0
  193.7430  176.4890  146.5380 C   0  0  0  0  0  2  0  0  0  0  0  0
  192.9580  175.1950  146.4940 C   0  0  0  0  0  2  0  0  0  0  0  0
  191.1550  176.7900  146.7190 O   0  0  0  0  0  0  0  0  0  0  0  0
  191.5690  175.4380  146.6520 C   0  0  1  0  0  3  0  0  0  0  0  0
  188.9140  177.1590  146.8600 C   0  0  0  0  0  2  0  0  0  0  0  0
  189.3190  174.6330  146.0080 C   0  0  0  0  0  2  0  0  0  0  0  0
  188.5640  175.6870  146.8880 C   0  0  0  0  0  2  0  0  0  0  0  0
  190.7060  174.4260  146.5000 C   0  0  0  0  0  2  0  0  0  0  0  0
  190.1950  177.3080  147.5650 C   0  0  0  0  0  2  0  0  0  0  0  0
  196.8030  173.7880  146.1960 C   0  0  0  0  0  1  0  0  0  0  0  0
  196.5870  174.4890  144.9970 O   0  0  0  0  0  0  0  0  0  0  0  0
  189.8790  172.5940  141.3580 N   0  0  0  0  0  2  0  0  0  0  0  0
  190.7260  171.2720  137.8620 C   0  0  0  0  0  2  0  0  0  0  0  0
  189.8320  172.2200  137.0970 C   0  0  0  0  0  0  0  0  0  0  0  0
  189.2520  173.4320  139.2530 C   0  0  0  0  0  2  0  0  0  0  0  0
  190.7980  171.5350  139.3890 C   0  0  0  0  0  2  0  0  0  0  0  0
  189.5660  172.1780  140.0250 C   0  0  1  0  0  3  0  0  0  0  0  0
  189.1220  173.1540  137.7160 C   0  0  0  0  0  3  0  0  0  0  0  0
  189.6140  171.9880  135.6580 C   0  0  0  0  0  2  0  0  0  0  0  0
  190.0180  170.7900  135.2440 F   0  0  0  0  0  0  0  0  0  0  0  0
  186.6340  178.3630  143.7720 C   0  0  1  0  0  3  0  0  0  0  0  0
  185.6970  178.8750  142.4560 C   0  0  0  0  0  2  0  0  0  0  0  0
  184.0400  178.2900  141.9360 S   0  0  0  0  0  1  0  0  0  0  0  0
  184.9690  177.7140  145.3930 O   0  0  0  0  0  1  0  0  0  0  0  0
  186.1590  178.4700  145.1500 N   0  0  0  0  0  2  0  0  0  0  0  0
  1  7  2  0  0  0  0
  1  6  1  0  0  0  0
  2  5  1  0  0  0  0
  3  4  1  0  0  0  0
  3 39  1  0  0  0  0
  6  5  1  0  0  0  0
  6  4  2  0  0  0  0
  7 10  1  0  0  0  0
  8 30  1  1  0  0  0
  8  1  1  0  0  0  0
  9  8  1  0  0  0  0
  9  2  2  0  0  0  0
 10  3  2  0  0  0  0
 11 12  1  6  0  0  0
 11  2  1  0  0  0  0
 11 13  1  0  0  0  0
 13 14  1  0  0  0  0
 15 14  2  0  0  0  0
 16 14  1  6  0  0  0
 16 17  1  0  0  0  0
 17 18  1  6  0  0  0
 17 19  1  0  0  0  0
 20 19  1  0  0  0  0
 21 27  1  0  0  0  0
 22 20  1  6  0  0  0
 22 21  1  0  0  0  0
 23 25  1  0  0  0  0
 23 27  1  0  0  0  0
 24 26  1  0  0  0  0
 24 25  1  0  0  0  0
 26 22  1  0  0  0  0
 29 16  1  0  0  0  0
 29 28  1  0  0  0  0
 31 34  1  0  0  0  0
 32 36  2  0  0  0  0
 32 31  1  0  0  0  0
 33 35  1  0  0  0  0
 34 35  1  0  0  0  0
 35 30  1  1  0  0  0
 36 33  1  0  0  0  0
 37 32  1  0  0  0  0
 38 37  1  0  0  0  0
 39 40  1  6  0  0  0
 39 43  1  0  0  0  0
 41 40  1  0  0  0  0
 43 42  1  0  0  0  0
M  END
>  <MODEL>
7

>  <REMARK>
 VINA RESULT:      -6.4      3.720      6.604
  Name = 
  14 active torsions:
  status: ('A' for Active; 'I' for Inactive)
    1  A    between atoms: N_1  and  C_34
    2  A    between atoms: N_1  and  C_35
    3  A    between atoms: C_2  and  N_6
    4  A    between atoms: C_2  and  C_13
    5  A    between atoms: C_3  and  C_4
    6  A    between atoms: C_3  and  C_12
    7  A    between atoms: C_3  and  O_42
    8  A    between atoms: C_4  and  C_22
    9  A    between atoms: C_5  and  C_16
   10  A    between atoms: C_5  and  C_18
   11  A    between atoms: C_5  and  N_23
   12  A    between atoms: C_14  and  C_41
   13  A    between atoms: C_19  and  C_25
   14  A    between atoms: C_22  and  C_41
                            x       y       z     vdW  Elec       q    Type
                         _______ _______ _______ _____ _____    ______ ____

>  <TORSDO>
F 14

$$$$
=
 OpenBabel11052421053D

 43 46  0  0  1  0  0  0  0  0999 V2000
  191.3170  176.0040  144.1980 C   0  0  0  0  0  0  0  0  0  0  0  0
  189.6520  173.8180  143.2520 C   0  0  0  0  0  0  0  0  0  0  0  0
  194.2370  175.2290  144.6590 C   0  0  0  0  0  0  0  0  0  0  0  0
  193.2680  174.3710  144.3900 C   0  0  0  0  0  3  0  0  0  0  0  0
  190.8950  173.5070  144.0950 C   0  0  0  0  0  2  0  0  0  0  0  0
  191.8740  174.6710  143.9400 C   0  0  0  0  0  0  0  0  0  0  0  0
  192.2660  177.1090  144.6160 C   0  0  0  0  0  3  0  0  0  0  0  0
  189.9740  176.2480  143.7240 C   0  0  1  0  0  3  0  0  0  0  0  0
  189.2470  175.0840  143.1430 C   0  0  0  0  0  3  0  0  0  0  0  0
  193.8030  176.7700  144.6290 C   0  0  0  0  0  3  0  0  0  0  0  0
  188.9890  172.7080  142.5680 C   0  0  2  0  0  3  0  0  0  0  0  0
  188.7760  171.6790  143.5190 O   0  0  0  0  0  1  0  0  0  0  0  0
  189.8550  172.2490  141.5190 N   0  0  0  0  0  2  0  0  0  0  0  0
  189.9360  172.6620  140.1760 C   0  0  0  0  0  0  0  0  0  0  0  0
  189.3240  173.7390  139.7990 O   0  0  0  0  0  0  0  0  0  0  0  0
  190.7060  171.8930  139.2060 C   0  0  2  0  0  3  0  0  0  0  0  0
  192.1790  172.4060  139.0890 C   0  0  1  0  0  3  0  0  0  0  0  0
  192.3210  173.3660  138.0610 O   0  0  0  0  0  1  0  0  0  0  0  0
  192.8880  172.8600  140.3570 C   0  0  0  0  0  2  0  0  0  0  0  0
  194.0430  171.9080  140.5890 C   0  0  0  0  0  2  0  0  0  0  0  0
  194.8910  171.8140  142.8510 O   0  0  0  0  0  0  0  0  0  0  0  0
  193.9750  171.3340  141.8850 C   0  0  1  0  0  3  0  0  0  0  0  0
  194.6900  170.9610  144.9510 C   0  0  0  0  0  2  0  0  0  0  0  0
  192.4180  170.4480  143.5930 C   0  0  0  0  0  2  0  0  0  0  0  0
  193.5590  170.0260  144.5800 C   0  0  0  0  0  2  0  0  0  0  0  0
  192.9320  170.5580  142.2030 C   0  0  0  0  0  2  0  0  0  0  0  0
  195.5720  171.0530  143.7790 C   0  0  0  0  0  2  0  0  0  0  0  0
  190.0630  170.5860  137.5810 C   0  0  0  0  0  1  0  0  0  0  0  0
  190.0050  171.9220  138.0140 O   0  0  0  0  0  0  0  0  0  0  0  0
  189.3410  177.5350  143.8110 N   0  0  0  0  0  2  0  0  0  0  0  0
  186.6640  176.8870  146.4750 C   0  0  0  0  0  2  0  0  0  0  0  0
  185.5590  177.6670  145.8030 C   0  0  0  0  0  0  0  0  0  0  0  0
  187.0540  178.0760  143.7910 C   0  0  0  0  0  2  0  0  0  0  0  0
  187.9730  176.7700  145.6500 C   0  0  0  0  0  2  0  0  0  0  0  0
  188.2620  177.9090  144.6730 C   0  0  1  0  0  3  0  0  0  0  0  0
  185.7400  178.2530  144.6270 C   0  0  0  0  0  3  0  0  0  0  0  0
  184.3140  177.9260  146.5490 C   0  0  0  0  0  2  0  0  0  0  0  0
  184.4910  178.6640  147.6420 F   0  0  0  0  0  0  0  0  0  0  0  0
  195.6800  174.6220  144.8020 C   0  0  1  0  0  3  0  0  0  0  0  0
  196.6170  175.2690  143.5470 C   0  0  0  0  0  2  0  0  0  0  0  0
  197.8830  174.4360  142.5170 S   0  0  0  0  0  1  0  0  0  0  0  0
  197.0810  173.2440  146.2010 O   0  0  0  0  0  1  0  0  0  0  0  0
  196.2270  174.3900  146.1360 N   0  0  0  0  0  2  0  0  0  0  0  0
  1  7  1  0  0  0  0
  2  5  1  0  0  0  0
  3 39  1  0  0  0  0
  4  3  2  0  0  0  0
  6  5  1  0  0  0  0
  6  1  2  0  0  0  0
  6  4  1  0  0  0  0
  7 10  2  0  0  0  0
  8 30  1  1  0  0  0
  8  1  1  0  0  0  0
  9  2  2  0  0  0  0
  9  8  1  0  0  0  0
 10  3  1  0  0  0  0
 11  2  1  0  0  0  0
 11 12  1  1  0  0  0
 13 11  1  0  0  0  0
 14 13  1  0  0  0  0
 15 14  2  0  0  0  0
 16 29  1  6  0  0  0
 16 14  1  0  0  0  0
 17 18  1  6  0  0  0
 17 16  1  0  0  0  0
 17 19  1  0  0  0  0
 19 20  1  0  0  0  0
 21 27  1  0  0  0  0
 22 20  1  1  0  0  0
 22 26  1  0  0  0  0
 22 21  1  0  0  0  0
 24 25  1  0  0  0  0
 25 23  1  0  0  0  0
 26 24  1  0  0  0  0
 27 23  1  0  0  0  0
 28 29  1  0  0  0  0
 32 31  1  0  0  0  0
 32 37  1  0  0  0  0
 33 36  1  0  0  0  0
 33 35  1  0  0  0  0
 34 31  1  0  0  0  0
 35 30  1  6  0  0  0
 35 34  1  0  0  0  0
 36 32  2  0  0  0  0
 37 38  1  0  0  0  0
 39 40  1  1  0  0  0
 39 43  1  0  0  0  0
 41 40  1  0  0  0  0
 43 42  1  0  0  0  0
M  END
>  <MODEL>
8

>  <REMARK>
 VINA RESULT:      -6.4      2.793      6.612
  Name = 
  14 active torsions:
  status: ('A' for Active; 'I' for Inactive)
    1  A    between atoms: N_1  and  C_34
    2  A    between atoms: N_1  and  C_35
    3  A    between atoms: C_2  and  N_6
    4  A    between atoms: C_2  and  C_13
    5  A    between atoms: C_3  and  C_4
    6  A    between atoms: C_3  and  C_12
    7  A    between atoms: C_3  and  O_42
    8  A    between atoms: C_4  and  C_22
    9  A    between atoms: C_5  and  C_16
   10  A    between atoms: C_5  and  C_18
   11  A    between atoms: C_5  and  N_23
   12  A    between atoms: C_14  and  C_41
   13  A    between atoms: C_19  and  C_25
   14  A    between atoms: C_22  and  C_41
                            x       y       z     vdW  Elec       q    Type
                         _______ _______ _______ _____ _____    ______ ____

>  <TORSDO>
F 14

$$$$
=
 OpenBabel11052421053D

 43 46  0  0  1  0  0  0  0  0999 V2000
  192.5930  174.5540  141.2530 C   0  0  0  0  0  0  0  0  0  0  0  0
  189.9810  174.4720  142.5240 C   0  0  0  0  0  0  0  0  0  0  0  0
  192.7740  172.9090  138.6830 C   0  0  0  0  0  0  0  0  0  0  0  0
  191.7460  172.8900  139.5140 C   0  0  0  0  0  3  0  0  0  0  0  0
  190.4320  173.2920  141.6530 C   0  0  0  0  0  2  0  0  0  0  0  0
  191.4750  173.8090  140.6630 C   0  0  0  0  0  0  0  0  0  0  0  0
  193.9010  174.6100  140.4880 C   0  0  0  0  0  3  0  0  0  0  0  0
  192.2730  175.4430  142.3450 C   0  0  1  0  0  3  0  0  0  0  0  0
  190.8700  175.4120  142.8460 C   0  0  0  0  0  3  0  0  0  0  0  0
  193.9240  173.9580  139.0550 C   0  0  0  0  0  3  0  0  0  0  0  0
  188.5770  174.5320  142.9280 C   0  0  2  0  0  3  0  0  0  0  0  0
  187.8010  173.9780  141.8800 O   0  0  0  0  0  1  0  0  0  0  0  0
  188.2310  175.9090  143.1350 N   0  0  0  0  0  2  0  0  0  0  0  0
  186.9630  176.5070  143.2630 C   0  0  0  0  0  0  0  0  0  0  0  0
  185.9180  175.7620  143.4360 O   0  0  0  0  0  0  0  0  0  0  0  0
  186.8150  177.9570  143.2100 C   0  0  2  0  0  3  0  0  0  0  0  0
  186.6700  178.5820  144.6370 C   0  0  1  0  0  3  0  0  0  0  0  0
  185.8530  179.7360  144.6250 O   0  0  0  0  0  1  0  0  0  0  0  0
  186.2980  177.6660  145.7930 C   0  0  0  0  0  2  0  0  0  0  0  0
  187.3260  177.8820  146.8840 C   0  0  0  0  0  2  0  0  0  0  0  0
  189.7170  177.5360  146.8180 O   0  0  0  0  0  0  0  0  0  0  0  0
  188.4160  176.9850  146.7400 C   0  0  1  0  0  3  0  0  0  0  0  0
  191.4500  176.0650  146.6950 C   0  0  0  0  0  2  0  0  0  0  0  0
  189.1980  174.6970  147.2650 C   0  0  0  0  0  2  0  0  0  0  0  0
  190.5540  174.8610  146.4990 C   0  0  0  0  0  2  0  0  0  0  0  0
  188.1870  175.6670  146.7690 C   0  0  0  0  0  2  0  0  0  0  0  0
  190.7960  177.1980  146.0250 C   0  0  0  0  0  2  0  0  0  0  0  0
  186.3290  178.1260  141.0900 C   0  0  0  0  0  1  0  0  0  0  0  0
  185.7520  178.2270  142.3680 O   0  0  0  0  0  0  0  0  0  0  0  0
  193.2450  176.3130  142.9490 N   0  0  0  0  0  2  0  0  0  0  0  0
  196.7090  175.2500  144.1970 C   0  0  0  0  0  2  0  0  0  0  0  0
  196.2240  174.2490  145.2190 C   0  0  0  0  0  0  0  0  0  0  0  0
  193.8300  174.5980  144.4450 C   0  0  0  0  0  2  0  0  0  0  0  0
  195.5930  175.8760  143.3190 C   0  0  0  0  0  2  0  0  0  0  0  0
  194.2050  175.9700  143.9530 C   0  0  1  0  0  3  0  0  0  0  0  0
  194.9330  173.9910  145.3790 C   0  0  0  0  0  3  0  0  0  0  0  0
  197.1930  173.6780  146.1720 C   0  0  0  0  0  2  0  0  0  0  0  0
  196.9290  172.4180  146.5090 F   0  0  0  0  0  0  0  0  0  0  0  0
  192.6340  172.0290  137.3890 C   0  0  1  0  0  3  0  0  0  0  0  0
  192.8520  170.4150  137.8590 C   0  0  0  0  0  2  0  0  0  0  0  0
  192.6590  168.8940  136.8550 S   0  0  0  0  0  1  0  0  0  0  0  0
  191.7160  173.8050  136.0390 O   0  0  0  0  0  1  0  0  0  0  0  0
  191.6640  172.4140  136.3670 N   0  0  0  0  0  2  0  0  0  0  0  0
  1  8  1  0  0  0  0
  2  9  2  0  0  0  0
  2 11  1  0  0  0  0
  3 10  2  0  0  0  0
  3  4  1  0  0  0  0
  4  6  2  0  0  0  0
  5  2  1  0  0  0  0
  6  1  1  0  0  0  0
  6  5  1  0  0  0  0
  7  1  2  0  0  0  0
  8  9  1  0  0  0  0
  8 30  1  1  0  0  0
 10  7  1  0  0  0  0
 11 12  1  6  0  0  0
 11 13  1  0  0  0  0
 13 14  1  0  0  0  0
 14 15  2  0  0  0  0
 16 29  1  6  0  0  0
 16 14  1  0  0  0  0
 16 17  1  0  0  0  0
 17 18  1  6  0  0  0
 17 19  1  0  0  0  0
 19 20  1  0  0  0  0
 22 26  1  0  0  0  0
 22 21  1  0  0  0  0
 22 20  1  1  0  0  0
 25 23  1  0  0  0  0
 25 24  1  0  0  0  0
 26 24  1  0  0  0  0
 27 23  1  0  0  0  0
 27 21  1  0  0  0  0
 28 29  1  0  0  0  0
 31 32  1  0  0  0  0
 32 36  2  0  0  0  0
 32 37  1  0  0  0  0
 33 36  1  0  0  0  0
 34 35  1  0  0  0  0
 34 31  1  0  0  0  0
 35 30  1  6  0  0  0
 35 33  1  0  0  0  0
 37 38  1  0  0  0  0
 39 40  1  1  0  0  0
 39  3  1  0  0  0  0
 41 40  1  0  0  0  0
 42 43  1  0  0  0  0
 43 39  1  0  0  0  0
M  END
>  <MODEL>
9

>  <REMARK>
 VINA RESULT:      -6.3      3.315      6.635
  Name = 
  14 active torsions:
  status: ('A' for Active; 'I' for Inactive)
    1  A    between atoms: N_1  and  C_34
    2  A    between atoms: N_1  and  C_35
    3  A    between atoms: C_2  and  N_6
    4  A    between atoms: C_2  and  C_13
    5  A    between atoms: C_3  and  C_4
    6  A    between atoms: C_3  and  C_12
    7  A    between atoms: C_3  and  O_42
    8  A    between atoms: C_4  and  C_22
    9  A    between atoms: C_5  and  C_16
   10  A    between atoms: C_5  and  C_18
   11  A    between atoms: C_5  and  N_23
   12  A    between atoms: C_14  and  C_41
   13  A    between atoms: C_19  and  C_25
   14  A    between atoms: C_22  and  C_41
                            x       y       z     vdW  Elec       q    Type
                         _______ _______ _______ _____ _____    ______ ____

>  <TORSDO>
F 14

$$$$
