=
 OpenBabel11052420493D

 43 49  0  0  1  0  0  0  0  0999 V2000
  184.9490  178.1800  145.6450 C   0  0  0  0  0  0  0  0  0  0  0  0
  189.5190  176.0410  145.2800 C   0  0  2  0  0  3  0  0  0  0  0  0
  189.8170  174.9300  142.8690 N   0  0  0  0  0  0  0  0  0  0  0  0
  187.2720  177.6070  146.0200 C   0  0  0  0  0  0  0  0  0  0  0  0
  185.0660  177.7890  144.3070 C   0  0  0  0  0  3  0  0  0  0  0  0
  183.7050  178.6620  146.1390 N   0  0  0  0  0  1  0  0  0  0  0  0
  187.3920  177.2010  144.6720 C   0  0  0  0  0  0  0  0  0  0  0  0
  186.0540  178.0980  146.4990 C   0  0  0  0  0  3  0  0  0  0  0  0
  186.2870  177.3140  143.8190 C   0  0  0  0  0  3  0  0  0  0  0  0
  188.7170  175.9130  142.8930 C   0  0  0  0  0  2  0  0  0  0  0  0
  188.7490  176.7720  144.1700 C   0  0  2  0  0  3  0  0  0  0  0  0
  189.5280  176.8340  146.5560 C   0  0  0  0  0  3  0  0  0  0  0  0
  190.9260  175.6570  144.8070 C   0  0  2  0  0  3  0  0  0  0  0  0
  190.9840  175.5730  143.3380 N   0  0  0  0  0  2  0  0  0  0  0  0
  188.4440  177.5280  146.9170 C   0  0  0  0  0  3  0  0  0  0  0  0
  190.0560  174.5140  141.4820 C   0  0  2  0  0  3  0  0  0  0  0  0
  188.7400  174.1670  140.7960 C   0  0  0  0  0  1  0  0  0  0  0  0
  190.9430  173.2740  141.4480 C   0  0  0  0  0  2  0  0  0  0  0  0
  190.5760  171.4410  142.8760 C   0  0  0  0  0  2  0  0  0  0  0  0
  191.5860  170.3610  142.5520 C   0  0  1  0  0  3  0  0  0  0  0  0
  193.1780  170.4020  139.3600 O   0  0  0  0  0  0  0  0  0  0  0  0
  190.1400  172.0750  141.6370 N   0  0  0  0  0  0  0  0  0  0  0  0
  191.4700  170.1290  141.0530 C   0  0  1  0  0  3  0  0  0  0  0  0
  190.4730  171.1590  140.5500 C   0  0  0  0  0  2  0  0  0  0  0  0
  193.0120  170.8800  142.8190 C   0  0  2  0  0  3  0  0  0  0  0  0
  193.6770  170.8580  141.5710 O   0  0  0  0  0  0  0  0  0  0  0  0
  192.8280  170.4570  140.5680 C   0  0  0  0  0  0  0  0  0  0  0  0
  193.0230  168.9000  144.4800 C   0  0  0  0  0  3  0  0  0  0  0  0
  193.7250  170.0080  143.8020 C   0  0  0  0  0  0  0  0  0  0  0  0
  197.1710  169.5190  145.0740 C   0  0  0  0  0  1  0  0  0  0  0  0
  195.0330  168.4760  145.8670 C   0  0  0  0  0  2  0  0  0  0  0  0
  195.7380  169.3430  144.9200 N   0  0  0  0  0  0  0  0  0  0  0  0
  193.6330  168.1660  145.4140 C   0  0  0  0  0  3  0  0  0  0  0  0
  195.0280  170.1880  144.0070 C   0  0  0  0  0  3  0  0  0  0  0  0
  191.3220  174.3190  145.4240 C   0  0  0  0  0  2  0  0  0  0  0  0
  194.6260  175.9450  146.2500 N   0  0  0  0  0  2  0  0  0  0  0  0
  195.3850  175.3350  144.8170 S   0  0  0  0  0  0  0  0  0  0  0  0
  195.4320  176.4060  143.7660 O   0  0  0  0  0  0  0  0  0  0  0  0
  193.6570  173.3850  145.4300 C   0  0  0  0  0  2  0  0  0  0  0  0
  193.1860  175.8530  146.0380 C   0  0  0  0  0  2  0  0  0  0  0  0
  192.6940  174.3970  146.0780 C   0  0  1  0  0  3  0  0  0  0  0  0
  196.7780  174.8790  145.1400 O   0  0  0  0  0  0  0  0  0  0  0  0
  194.4150  173.9590  144.2390 C   0  0  0  0  0  2  0  0  0  0  0  0
  1  6  1  0  0  0  0
  1  8  1  0  0  0  0
  2 12  1  1  0  0  0
  3 10  1  0  0  0  0
  3 14  1  0  0  0  0
  4  8  2  0  0  0  0
  4 15  1  0  0  0  0
  5  1  2  0  0  0  0
  7  4  1  0  0  0  0
  9  5  1  0  0  0  0
  9  7  2  0  0  0  0
 11 10  1  6  0  0  0
 11  7  1  0  0  0  0
 11  2  1  0  0  0  0
 12 15  2  0  0  0  0
 13  2  1  0  0  0  0
 13 35  1  1  0  0  0
 14 13  1  0  0  0  0
 16 17  1  1  0  0  0
 16  3  1  0  0  0  0
 18 16  1  0  0  0  0
 18 22  1  0  0  0  0
 20 25  1  0  0  0  0
 20 19  1  6  0  0  0
 21 27  2  0  0  0  0
 22 19  1  0  0  0  0
 23 24  1  6  0  0  0
 23 20  1  0  0  0  0
 24 22  1  0  0  0  0
 25 29  1  1  0  0  0
 26 25  1  0  0  0  0
 27 23  1  0  0  0  0
 27 26  1  0  0  0  0
 28 33  2  0  0  0  0
 29 34  2  0  0  0  0
 29 28  1  0  0  0  0
 32 30  1  0  0  0  0
 32 31  1  0  0  0  0
 33 31  1  0  0  0  0
 34 32  1  0  0  0  0
 37 42  2  0  0  0  0
 37 36  1  0  0  0  0
 38 37  2  0  0  0  0
 39 41  1  0  0  0  0
 40 41  1  0  0  0  0
 40 36  1  0  0  0  0
 41 35  1  6  0  0  0
 43 37  1  0  0  0  0
 43 39  1  0  0  0  0
M  END
>  <MODEL>
1

>  <REMARK>
 VINA RESULT:      -8.2      0.000      0.000
  Name = 
  6 active torsions:
  status: ('A' for Active; 'I' for Inactive)
    1  A    between atoms: C_1  and  C_34
    2  A    between atoms: C_1  and  C_35
    3  A    between atoms: C_2  and  C_6
    4  A    between atoms: C_2  and  N_13
    5  A    between atoms: C_6  and  N_12
    6  A    between atoms: C_14  and  C_22
                            x       y       z     vdW  Elec       q    Type
                         _______ _______ _______ _____ _____    ______ ____

>  <TORSDO>
F 6

$$$$
=
 OpenBabel11052420493D

 43 49  0  0  1  0  0  0  0  0999 V2000
  197.3380  170.1880  145.2280 C   0  0  0  0  0  0  0  0  0  0  0  0
  195.4080  174.0630  142.6100 C   0  0  2  0  0  3  0  0  0  0  0  0
  194.0850  175.7040  144.2510 N   0  0  0  0  0  0  0  0  0  0  0  0
  196.9230  171.8360  143.5030 C   0  0  0  0  0  0  0  0  0  0  0  0
  196.8260  171.0630  146.1920 C   0  0  0  0  0  3  0  0  0  0  0  0
  197.8020  168.8990  145.6130 N   0  0  0  0  0  1  0  0  0  0  0  0
  196.3950  172.7190  144.4710 C   0  0  0  0  0  0  0  0  0  0  0  0
  197.3960  170.5770  143.8860 C   0  0  0  0  0  3  0  0  0  0  0  0
  196.3680  172.3290  145.8160 C   0  0  0  0  0  3  0  0  0  0  0  0
  195.0090  174.8160  144.9830 C   0  0  0  0  0  2  0  0  0  0  0  0
  195.9880  174.1040  144.0320 C   0  0  2  0  0  3  0  0  0  0  0  0
  196.3200  173.3320  141.6660 C   0  0  0  0  0  3  0  0  0  0  0  0
  195.0520  175.4720  142.1230 C   0  0  2  0  0  3  0  0  0  0  0  0
  194.8290  176.3820  143.2590 N   0  0  0  0  0  2  0  0  0  0  0  0
  196.9910  172.2540  142.0870 C   0  0  0  0  0  3  0  0  0  0  0  0
  193.5490  176.7050  145.1790 C   0  0  2  0  0  3  0  0  0  0  0  0
  194.3140  176.6740  146.4970 C   0  0  0  0  0  1  0  0  0  0  0  0
  192.0830  176.4150  145.4810 C   0  0  0  0  0  2  0  0  0  0  0  0
  190.5420  176.3310  143.7060 C   0  0  0  0  0  2  0  0  0  0  0  0
  189.1620  176.0730  144.2700 C   0  0  1  0  0  3  0  0  0  0  0  0
  188.8790  174.6330  147.5210 O   0  0  0  0  0  0  0  0  0  0  0  0
  191.5190  175.5500  144.4560 N   0  0  0  0  0  0  0  0  0  0  0  0
  189.3030  174.8380  145.1480 C   0  0  1  0  0  3  0  0  0  0  0  0
  190.7820  174.4930  145.1420 C   0  0  0  0  0  2  0  0  0  0  0  0
  188.7460  177.2350  145.1910 C   0  0  2  0  0  3  0  0  0  0  0  0
  188.5810  176.6750  146.4790 O   0  0  0  0  0  0  0  0  0  0  0  0
  188.9030  175.3390  146.4800 C   0  0  0  0  0  0  0  0  0  0  0  0
  187.2540  178.1770  143.3020 C   0  0  0  0  0  3  0  0  0  0  0  0
  187.4670  177.8560  144.7270 C   0  0  0  0  0  0  0  0  0  0  0  0
  184.1570  178.7470  146.1350 C   0  0  0  0  0  1  0  0  0  0  0  0
  185.0990  179.2640  143.8690 C   0  0  0  0  0  2  0  0  0  0  0  0
  185.2360  178.6110  145.1740 N   0  0  0  0  0  0  0  0  0  0  0  0
  186.1460  178.7990  142.8940 C   0  0  0  0  0  3  0  0  0  0  0  0
  186.4810  178.0480  145.6020 C   0  0  0  0  0  3  0  0  0  0  0  0
  193.8020  175.4070  141.2510 C   0  0  0  0  0  2  0  0  0  0  0  0
  192.5400  172.6020  139.0640 N   0  0  0  0  0  2  0  0  0  0  0  0
  190.8840  172.9160  139.4650 S   0  0  0  0  0  0  0  0  0  0  0  0
  190.2300  173.7010  138.3650 O   0  0  0  0  0  0  0  0  0  0  0  0
  192.1590  173.5630  141.7280 C   0  0  0  0  0  2  0  0  0  0  0  0
  193.2940  173.7980  139.4180 C   0  0  0  0  0  2  0  0  0  0  0  0
  193.4200  173.9670  140.9410 C   0  0  1  0  0  3  0  0  0  0  0  0
  190.1580  171.6160  139.6620 O   0  0  0  0  0  0  0  0  0  0  0  0
  190.8660  173.8560  140.9770 C   0  0  0  0  0  2  0  0  0  0  0  0
  1  6  1  0  0  0  0
  1  5  1  0  0  0  0
  2 12  1  6  0  0  0
  2 11  1  0  0  0  0
  3 10  1  0  0  0  0
  3 16  1  0  0  0  0
  4  8  1  0  0  0  0
  4  7  2  0  0  0  0
  7  9  1  0  0  0  0
  8  1  2  0  0  0  0
  9  5  2  0  0  0  0
 11  7  1  0  0  0  0
 11 10  1  1  0  0  0
 12 15  2  0  0  0  0
 13 35  1  1  0  0  0
 13  2  1  0  0  0  0
 13 14  1  0  0  0  0
 14  3  1  0  0  0  0
 15  4  1  0  0  0  0
 16 18  1  0  0  0  0
 16 17  1  1  0  0  0
 19 22  1  0  0  0  0
 20 19  1  1  0  0  0
 20 23  1  0  0  0  0
 20 25  1  0  0  0  0
 22 24  1  0  0  0  0
 22 18  1  0  0  0  0
 23 24  1  1  0  0  0
 23 27  1  0  0  0  0
 25 29  1  6  0  0  0
 25 26  1  0  0  0  0
 26 27  1  0  0  0  0
 27 21  2  0  0  0  0
 28 29  1  0  0  0  0
 29 34  2  0  0  0  0
 31 32  1  0  0  0  0
 32 34  1  0  0  0  0
 32 30  1  0  0  0  0
 33 28  2  0  0  0  0
 33 31  1  0  0  0  0
 36 40  1  0  0  0  0
 36 37  1  0  0  0  0
 37 42  2  0  0  0  0
 37 43  1  0  0  0  0
 38 37  2  0  0  0  0
 40 41  1  0  0  0  0
 41 35  1  6  0  0  0
 41 39  1  0  0  0  0
 43 39  1  0  0  0  0
M  END
>  <MODEL>
2

>  <REMARK>
 VINA RESULT:      -8.1      3.061      9.530
  Name = 
  6 active torsions:
  status: ('A' for Active; 'I' for Inactive)
    1  A    between atoms: C_1  and  C_34
    2  A    between atoms: C_1  and  C_35
    3  A    between atoms: C_2  and  C_6
    4  A    between atoms: C_2  and  N_13
    5  A    between atoms: C_6  and  N_12
    6  A    between atoms: C_14  and  C_22
                            x       y       z     vdW  Elec       q    Type
                         _______ _______ _______ _____ _____    ______ ____

>  <TORSDO>
F 6

$$$$
=
 OpenBabel11052420493D

 43 49  0  0  1  0  0  0  0  0999 V2000
  185.5420  177.9970  146.7780 C   0  0  0  0  0  0  0  0  0  0  0  0
  189.9990  175.8850  145.6540 C   0  0  2  0  0  3  0  0  0  0  0  0
  189.7740  174.4000  143.4450 N   0  0  0  0  0  0  0  0  0  0  0  0
  187.9140  177.5230  146.6650 C   0  0  0  0  0  0  0  0  0  0  0  0
  185.3580  177.3960  145.5290 C   0  0  0  0  0  3  0  0  0  0  0  0
  184.4260  178.5370  147.4780 N   0  0  0  0  0  1  0  0  0  0  0  0
  187.7320  176.9040  145.4070 C   0  0  0  0  0  0  0  0  0  0  0  0
  186.8200  178.0690  147.3420 C   0  0  0  0  0  3  0  0  0  0  0  0
  186.4520  176.8630  144.8400 C   0  0  0  0  0  3  0  0  0  0  0  0
  188.6620  175.3600  143.5810 C   0  0  0  0  0  2  0  0  0  0  0  0
  188.9510  176.4160  144.6640 C   0  0  2  0  0  3  0  0  0  0  0  0
  190.2690  176.8740  146.7520 C   0  0  0  0  0  3  0  0  0  0  0  0
  191.2720  175.4460  144.9200 C   0  0  2  0  0  3  0  0  0  0  0  0
  190.9850  175.1260  143.5120 N   0  0  0  0  0  2  0  0  0  0  0  0
  189.2670  177.6050  147.2520 C   0  0  0  0  0  3  0  0  0  0  0  0
  189.6990  173.7670  142.1230 C   0  0  2  0  0  3  0  0  0  0  0  0
  188.2510  173.4620  141.7610 C   0  0  0  0  0  1  0  0  0  0  0  0
  190.4700  172.4510  142.1230 C   0  0  0  0  0  2  0  0  0  0  0  0
  191.5690  173.4080  140.2770 C   0  0  0  0  0  2  0  0  0  0  0  0
  191.4530  172.4670  139.0980 C   0  0  1  0  0  3  0  0  0  0  0  0
  190.7360  169.0270  139.7130 O   0  0  0  0  0  0  0  0  0  0  0  0
  191.7690  172.6290  141.4930 N   0  0  0  0  0  0  0  0  0  0  0  0
  191.9480  171.1180  139.6000 C   0  0  1  0  0  3  0  0  0  0  0  0
  192.2310  171.3070  141.0800 C   0  0  0  0  0  2  0  0  0  0  0  0
  189.9710  172.2890  138.7150 C   0  0  2  0  0  3  0  0  0  0  0  0
  189.6790  170.9180  138.9060 O   0  0  0  0  0  0  0  0  0  0  0  0
  190.7660  170.2500  139.4160 C   0  0  0  0  0  0  0  0  0  0  0  0
  189.8540  171.6820  136.2050 C   0  0  0  0  0  3  0  0  0  0  0  0
  189.7350  172.6760  137.2900 C   0  0  0  0  0  0  0  0  0  0  0  0
  188.5760  175.6360  135.3860 C   0  0  0  0  0  1  0  0  0  0  0  0
  189.5090  173.4730  134.5260 C   0  0  0  0  0  2  0  0  0  0  0  0
  189.0730  174.2990  135.6550 N   0  0  0  0  0  0  0  0  0  0  0  0
  189.7190  172.0390  134.9260 C   0  0  0  0  0  3  0  0  0  0  0  0
  189.3360  173.9150  137.0100 C   0  0  0  0  0  3  0  0  0  0  0  0
  191.8700  174.2320  145.6230 C   0  0  0  0  0  2  0  0  0  0  0  0
  195.1290  176.1360  145.6380 N   0  0  0  0  0  2  0  0  0  0  0  0
  195.6950  175.3520  144.2010 S   0  0  0  0  0  0  0  0  0  0  0  0
  195.4930  176.2500  143.0140 O   0  0  0  0  0  0  0  0  0  0  0  0
  194.2420  173.4330  145.3700 C   0  0  0  0  0  2  0  0  0  0  0  0
  193.6850  175.9370  145.6870 C   0  0  0  0  0  2  0  0  0  0  0  0
  193.3180  174.4820  146.0180 C   0  0  1  0  0  3  0  0  0  0  0  0
  197.1530  175.0250  144.3470 O   0  0  0  0  0  0  0  0  0  0  0  0
  194.7550  173.8550  143.9990 C   0  0  0  0  0  2  0  0  0  0  0  0
  1  8  1  0  0  0  0
  1  6  1  0  0  0  0
  2 12  1  1  0  0  0
  3 14  1  0  0  0  0
  3 10  1  0  0  0  0
  4 15  1  0  0  0  0
  4  8  2  0  0  0  0
  5  1  2  0  0  0  0
  7  4  1  0  0  0  0
  9  7  2  0  0  0  0
  9  5  1  0  0  0  0
 11 10  1  6  0  0  0
 11  7  1  0  0  0  0
 11  2  1  0  0  0  0
 12 15  2  0  0  0  0
 13 35  1  1  0  0  0
 13  2  1  0  0  0  0
 14 13  1  0  0  0  0
 16 17  1  1  0  0  0
 16 18  1  0  0  0  0
 16  3  1  0  0  0  0
 19 22  1  0  0  0  0
 20 23  1  0  0  0  0
 20 19  1  1  0  0  0
 22 18  1  0  0  0  0
 23 24  1  1  0  0  0
 24 22  1  0  0  0  0
 25 29  1  6  0  0  0
 25 26  1  0  0  0  0
 25 20  1  0  0  0  0
 26 27  1  0  0  0  0
 27 23  1  0  0  0  0
 27 21  2  0  0  0  0
 28 29  1  0  0  0  0
 30 32  1  0  0  0  0
 31 33  1  0  0  0  0
 31 32  1  0  0  0  0
 32 34  1  0  0  0  0
 33 28  2  0  0  0  0
 34 29  2  0  0  0  0
 36 40  1  0  0  0  0
 37 42  2  0  0  0  0
 37 36  1  0  0  0  0
 38 37  2  0  0  0  0
 39 41  1  0  0  0  0
 40 41  1  0  0  0  0
 41 35  1  6  0  0  0
 43 37  1  0  0  0  0
 43 39  1  0  0  0  0
M  END
>  <MODEL>
3

>  <REMARK>
 VINA RESULT:      -8.0      2.433      4.956
  Name = 
  6 active torsions:
  status: ('A' for Active; 'I' for Inactive)
    1  A    between atoms: C_1  and  C_34
    2  A    between atoms: C_1  and  C_35
    3  A    between atoms: C_2  and  C_6
    4  A    between atoms: C_2  and  N_13
    5  A    between atoms: C_6  and  N_12
    6  A    between atoms: C_14  and  C_22
                            x       y       z     vdW  Elec       q    Type
                         _______ _______ _______ _____ _____    ______ ____

>  <TORSDO>
F 6

$$$$
=
 OpenBabel11052420493D

 43 49  0  0  1  0  0  0  0  0999 V2000
  185.3730  178.1610  145.7760 C   0  0  0  0  0  0  0  0  0  0  0  0
  188.8520  175.4180  143.3330 C   0  0  2  0  0  3  0  0  0  0  0  0
  191.0070  175.0910  144.8780 N   0  0  0  0  0  0  0  0  0  0  0  0
  186.4570  176.6560  144.2190 C   0  0  0  0  0  0  0  0  0  0  0  0
  186.3690  177.9040  146.7230 C   0  0  0  0  0  3  0  0  0  0  0  0
  184.3170  179.0650  146.0810 N   0  0  0  0  0  1  0  0  0  0  0  0
  187.4720  176.4010  145.1690 C   0  0  0  0  0  0  0  0  0  0  0  0
  185.4110  177.5300  144.5280 C   0  0  0  0  0  3  0  0  0  0  0  0
  187.4080  177.0170  146.4250 C   0  0  0  0  0  3  0  0  0  0  0  0
  189.8220  175.4960  145.6590 C   0  0  0  0  0  2  0  0  0  0  0  0
  188.5280  175.3760  144.8330 C   0  0  2  0  0  3  0  0  0  0  0  0
  187.6040  175.3510  142.4980 C   0  0  0  0  0  3  0  0  0  0  0  0
  189.8740  174.3370  142.9640 C   0  0  2  0  0  3  0  0  0  0  0  0
  190.6650  173.9360  144.1390 N   0  0  0  0  0  2  0  0  0  0  0  0
  186.4960  175.9800  142.9050 C   0  0  0  0  0  3  0  0  0  0  0  0
  192.0890  174.7350  145.8020 C   0  0  2  0  0  3  0  0  0  0  0  0
  192.2260  175.7890  146.8930 C   0  0  0  0  0  1  0  0  0  0  0  0
  193.4160  174.6570  145.0550 C   0  0  0  0  0  2  0  0  0  0  0  0
  193.9390  176.0100  143.2040 C   0  0  0  0  0  2  0  0  0  0  0  0
  195.3680  175.7390  142.7890 C   0  0  1  0  0  3  0  0  0  0  0  0
  197.5930  174.2690  145.1590 O   0  0  0  0  0  0  0  0  0  0  0  0
  193.8510  175.9880  144.6590 N   0  0  0  0  0  0  0  0  0  0  0  0
  196.2010  175.9090  144.0520 C   0  0  1  0  0  3  0  0  0  0  0  0
  195.2060  176.1680  145.1700 C   0  0  0  0  0  2  0  0  0  0  0  0
  195.5160  174.2700  142.3480 C   0  0  2  0  0  3  0  0  0  0  0  0
  196.4340  173.6800  143.2480 O   0  0  0  0  0  0  0  0  0  0  0  0
  196.8160  174.5750  144.2180 C   0  0  0  0  0  0  0  0  0  0  0  0
  196.5960  175.3650  140.2700 C   0  0  0  0  0  3  0  0  0  0  0  0
  196.0320  174.1810  140.9470 C   0  0  0  0  0  0  0  0  0  0  0  0
  196.6450  171.5710  138.3880 C   0  0  0  0  0  1  0  0  0  0  0  0
  196.8120  174.0630  138.1720 C   0  0  0  0  0  2  0  0  0  0  0  0
  196.5740  172.8830  139.0060 N   0  0  0  0  0  0  0  0  0  0  0  0
  196.9890  175.3090  138.9960 C   0  0  0  0  0  3  0  0  0  0  0  0
  196.0540  172.9980  140.3350 C   0  0  0  0  0  3  0  0  0  0  0  0
  190.7940  174.8620  141.8660 C   0  0  0  0  0  2  0  0  0  0  0  0
  190.0500  171.6380  140.0500 N   0  0  0  0  0  2  0  0  0  0  0  0
  191.2690  170.7650  140.9180 S   0  0  0  0  0  0  0  0  0  0  0  0
  190.6390  169.9680  142.0230 O   0  0  0  0  0  0  0  0  0  0  0  0
  192.3300  173.2160  140.7430 C   0  0  0  0  0  2  0  0  0  0  0  0
  189.7720  172.8490  140.8140 C   0  0  0  0  0  2  0  0  0  0  0  0
  190.9290  173.8570  140.7310 C   0  0  1  0  0  3  0  0  0  0  0  0
  191.9950  169.8450  139.9790 O   0  0  0  0  0  0  0  0  0  0  0  0
  192.4030  171.9570  141.5980 C   0  0  0  0  0  2  0  0  0  0  0  0
  1  6  1  0  0  0  0
  1  5  1  0  0  0  0
  2 12  1  6  0  0  0
  2 11  1  0  0  0  0
  3 10  1  0  0  0  0
  3 16  1  0  0  0  0
  4  8  1  0  0  0  0
  4  7  2  0  0  0  0
  7  9  1  0  0  0  0
  8  1  2  0  0  0  0
  9  5  2  0  0  0  0
 11  7  1  0  0  0  0
 11 10  1  1  0  0  0
 12 15  2  0  0  0  0
 13 35  1  6  0  0  0
 13  2  1  0  0  0  0
 13 14  1  0  0  0  0
 14  3  1  0  0  0  0
 15  4  1  0  0  0  0
 16 17  1  1  0  0  0
 18 16  1  0  0  0  0
 19 22  1  0  0  0  0
 20 19  1  1  0  0  0
 20 23  1  0  0  0  0
 22 18  1  0  0  0  0
 22 24  1  0  0  0  0
 23 27  1  0  0  0  0
 23 24  1  1  0  0  0
 25 29  1  6  0  0  0
 25 20  1  0  0  0  0
 25 26  1  0  0  0  0
 26 27  1  0  0  0  0
 27 21  2  0  0  0  0
 28 29  1  0  0  0  0
 30 32  1  0  0  0  0
 31 33  1  0  0  0  0
 31 32  1  0  0  0  0
 32 34  1  0  0  0  0
 33 28  2  0  0  0  0
 34 29  2  0  0  0  0
 36 40  1  0  0  0  0
 36 37  1  0  0  0  0
 37 43  1  0  0  0  0
 37 38  2  0  0  0  0
 39 43  1  0  0  0  0
 41 39  1  0  0  0  0
 41 40  1  0  0  0  0
 41 35  1  1  0  0  0
 42 37  2  0  0  0  0
M  END
>  <MODEL>
4

>  <REMARK>
 VINA RESULT:      -8.0      2.794      5.750
  Name = 
  6 active torsions:
  status: ('A' for Active; 'I' for Inactive)
    1  A    between atoms: C_1  and  C_34
    2  A    between atoms: C_1  and  C_35
    3  A    between atoms: C_2  and  C_6
    4  A    between atoms: C_2  and  N_13
    5  A    between atoms: C_6  and  N_12
    6  A    between atoms: C_14  and  C_22
                            x       y       z     vdW  Elec       q    Type
                         _______ _______ _______ _____ _____    ______ ____

>  <TORSDO>
F 6

$$$$
=
 OpenBabel11052420493D

 43 49  0  0  1  0  0  0  0  0999 V2000
  188.5670  173.9990  138.8800 C   0  0  0  0  0  0  0  0  0  0  0  0
  192.0490  172.8040  142.3500 C   0  0  2  0  0  3  0  0  0  0  0  0
  191.7430  174.3390  144.5160 N   0  0  0  0  0  0  0  0  0  0  0  0
  190.2560  172.8180  140.1510 C   0  0  0  0  0  0  0  0  0  0  0  0
  188.2120  174.7260  140.0210 C   0  0  0  0  0  3  0  0  0  0  0  0
  187.8950  174.2370  137.6490 N   0  0  0  0  0  1  0  0  0  0  0  0
  189.9090  173.5570  141.3040 C   0  0  0  0  0  0  0  0  0  0  0  0
  189.5820  173.0390  138.9460 C   0  0  0  0  0  3  0  0  0  0  0  0
  188.8720  174.4970  141.2320 C   0  0  0  0  0  3  0  0  0  0  0  0
  190.5350  174.3320  143.6680 C   0  0  0  0  0  2  0  0  0  0  0  0
  190.5920  173.2180  142.6060 C   0  0  2  0  0  3  0  0  0  0  0  0
  192.1420  171.7510  141.2840 C   0  0  0  0  0  3  0  0  0  0  0  0
  192.7380  172.3930  143.6570 C   0  0  2  0  0  3  0  0  0  0  0  0
  192.0680  172.9980  144.8200 N   0  0  0  0  0  2  0  0  0  0  0  0
  191.3220  171.7970  140.2270 C   0  0  0  0  0  3  0  0  0  0  0  0
  191.4390  175.0280  145.7750 C   0  0  2  0  0  3  0  0  0  0  0  0
  192.3460  174.5240  146.8910 C   0  0  0  0  0  1  0  0  0  0  0  0
  189.9960  174.7610  146.1870 C   0  0  0  0  0  2  0  0  0  0  0  0
  188.1330  176.0590  146.8020 C   0  0  0  0  0  2  0  0  0  0  0  0
  188.0440  177.2530  145.8780 C   0  0  1  0  0  3  0  0  0  0  0  0
  190.9670  178.2700  144.1030 O   0  0  0  0  0  0  0  0  0  0  0  0
  189.5350  175.7920  147.1050 N   0  0  0  0  0  0  0  0  0  0  0  0
  189.4160  177.9110  145.9250 C   0  0  1  0  0  3  0  0  0  0  0  0
  190.2770  177.0090  146.7930 C   0  0  0  0  0  2  0  0  0  0  0  0
  187.8220  176.7790  144.4290 C   0  0  2  0  0  3  0  0  0  0  0  0
  188.9500  177.2150  143.6960 O   0  0  0  0  0  0  0  0  0  0  0  0
  189.8610  177.8360  144.5170 C   0  0  0  0  0  0  0  0  0  0  0  0
  185.5910  178.0510  144.7240 C   0  0  0  0  0  3  0  0  0  0  0  0
  186.5720  177.3680  143.8570 C   0  0  0  0  0  0  0  0  0  0  0  0
  185.0620  177.9470  140.5230 C   0  0  0  0  0  1  0  0  0  0  0  0
  184.0570  178.2980  142.7930 C   0  0  0  0  0  2  0  0  0  0  0  0
  185.2090  177.9300  141.9670 N   0  0  0  0  0  0  0  0  0  0  0  0
  184.4400  178.5120  144.2320 C   0  0  0  0  0  3  0  0  0  0  0  0
  186.3840  177.3430  142.5390 C   0  0  0  0  0  3  0  0  0  0  0  0
  194.2020  172.8190  143.6150 C   0  0  0  0  0  2  0  0  0  0  0  0
  195.3500  175.9940  141.9280 N   0  0  0  0  0  2  0  0  0  0  0  0
  196.8770  175.9810  142.7470 S   0  0  0  0  0  0  0  0  0  0  0  0
  197.9410  175.4380  141.8380 O   0  0  0  0  0  0  0  0  0  0  0  0
  195.2370  174.9040  144.5680 C   0  0  0  0  0  2  0  0  0  0  0  0
  194.8040  174.6460  142.0320 C   0  0  0  0  0  2  0  0  0  0  0  0
  194.3340  174.3270  143.4610 C   0  0  1  0  0  3  0  0  0  0  0  0
  197.2340  177.3770  143.1700 O   0  0  0  0  0  0  0  0  0  0  0  0
  196.7100  174.9380  144.1800 C   0  0  0  0  0  2  0  0  0  0  0  0
  1  8  2  0  0  0  0
  1  5  1  0  0  0  0
  2 12  1  6  0  0  0
  2 11  1  0  0  0  0
  2 13  1  0  0  0  0
  3 14  1  0  0  0  0
  3 16  1  0  0  0  0
  4 15  1  0  0  0  0
  4  7  2  0  0  0  0
  5  9  2  0  0  0  0
  6  1  1  0  0  0  0
  7 11  1  0  0  0  0
  8  4  1  0  0  0  0
  9  7  1  0  0  0  0
 10  3  1  0  0  0  0
 11 10  1  1  0  0  0
 13 35  1  6  0  0  0
 13 14  1  0  0  0  0
 15 12  2  0  0  0  0
 16 18  1  0  0  0  0
 16 17  1  1  0  0  0
 18 22  1  0  0  0  0
 19 22  1  0  0  0  0
 20 23  1  0  0  0  0
 20 19  1  1  0  0  0
 21 27  2  0  0  0  0
 23 24  1  1  0  0  0
 24 22  1  0  0  0  0
 25 29  1  6  0  0  0
 25 20  1  0  0  0  0
 26 25  1  0  0  0  0
 26 27  1  0  0  0  0
 27 23  1  0  0  0  0
 29 28  1  0  0  0  0
 30 32  1  0  0  0  0
 31 33  1  0  0  0  0
 32 34  1  0  0  0  0
 32 31  1  0  0  0  0
 33 28  2  0  0  0  0
 34 29  2  0  0  0  0
 36 40  1  0  0  0  0
 36 37  1  0  0  0  0
 37 42  2  0  0  0  0
 37 43  1  0  0  0  0
 38 37  2  0  0  0  0
 40 41  1  0  0  0  0
 41 35  1  6  0  0  0
 41 39  1  0  0  0  0
 43 39  1  0  0  0  0
M  END
>  <MODEL>
5

>  <REMARK>
 VINA RESULT:      -7.8      2.825      7.935
  Name = 
  6 active torsions:
  status: ('A' for Active; 'I' for Inactive)
    1  A    between atoms: C_1  and  C_34
    2  A    between atoms: C_1  and  C_35
    3  A    between atoms: C_2  and  C_6
    4  A    between atoms: C_2  and  N_13
    5  A    between atoms: C_6  and  N_12
    6  A    between atoms: C_14  and  C_22
                            x       y       z     vdW  Elec       q    Type
                         _______ _______ _______ _____ _____    ______ ____

>  <TORSDO>
F 6

$$$$
=
 OpenBabel11052420493D

 43 49  0  0  1  0  0  0  0  0999 V2000
  185.7300  178.3960  145.3370 C   0  0  0  0  0  0  0  0  0  0  0  0
  188.9930  175.2570  143.0780 C   0  0  2  0  0  3  0  0  0  0  0  0
  191.1020  174.8370  144.6630 N   0  0  0  0  0  0  0  0  0  0  0  0
  186.7000  176.7290  143.8720 C   0  0  0  0  0  0  0  0  0  0  0  0
  186.6950  178.1080  146.3080 C   0  0  0  0  0  3  0  0  0  0  0  0
  184.7500  179.3970  145.5840 N   0  0  0  0  0  1  0  0  0  0  0  0
  187.6840  176.4420  144.8450 C   0  0  0  0  0  0  0  0  0  0  0  0
  185.7260  177.7000  144.1240 C   0  0  0  0  0  3  0  0  0  0  0  0
  187.6600  177.1260  146.0680 C   0  0  0  0  0  3  0  0  0  0  0  0
  189.9480  175.3760  145.4090 C   0  0  0  0  0  2  0  0  0  0  0  0
  188.6550  175.3190  144.5750 C   0  0  2  0  0  3  0  0  0  0  0  0
  187.7500  175.2480  142.2340 C   0  0  0  0  0  3  0  0  0  0  0  0
  189.9260  174.0790  142.7770 C   0  0  2  0  0  3  0  0  0  0  0  0
  190.6730  173.6770  143.9800 N   0  0  0  0  0  2  0  0  0  0  0  0
  186.6930  175.9860  142.5950 C   0  0  0  0  0  3  0  0  0  0  0  0
  192.1440  174.4430  145.6170 C   0  0  2  0  0  3  0  0  0  0  0  0
  192.1750  175.4020  146.8000 C   0  0  0  0  0  1  0  0  0  0  0  0
  193.5140  174.4800  144.9470 C   0  0  0  0  0  2  0  0  0  0  0  0
  194.0650  176.0560  143.2900 C   0  0  0  0  0  2  0  0  0  0  0  0
  195.5130  175.8630  142.8970 C   0  0  1  0  0  3  0  0  0  0  0  0
  197.6920  174.1620  145.1510 O   0  0  0  0  0  0  0  0  0  0  0  0
  193.9300  175.8580  144.7290 N   0  0  0  0  0  0  0  0  0  0  0  0
  196.3000  175.8970  144.1990 C   0  0  1  0  0  3  0  0  0  0  0  0
  195.2640  176.0010  145.3050 C   0  0  0  0  0  2  0  0  0  0  0  0
  195.7100  174.4620  142.2880 C   0  0  2  0  0  3  0  0  0  0  0  0
  196.6100  173.7850  143.1440 O   0  0  0  0  0  0  0  0  0  0  0  0
  196.9400  174.5640  144.2270 C   0  0  0  0  0  0  0  0  0  0  0  0
  197.3610  175.4970  140.5910 C   0  0  0  0  0  3  0  0  0  0  0  0
  196.2730  174.5510  140.9060 C   0  0  0  0  0  0  0  0  0  0  0  0
  195.9410  172.7820  137.6660 C   0  0  0  0  0  1  0  0  0  0  0  0
  197.1990  174.8870  138.1940 C   0  0  0  0  0  2  0  0  0  0  0  0
  196.3870  173.7550  138.6480 N   0  0  0  0  0  0  0  0  0  0  0  0
  197.8160  175.6340  139.3440 C   0  0  0  0  0  3  0  0  0  0  0  0
  195.8380  173.7090  139.9700 C   0  0  0  0  0  3  0  0  0  0  0  0
  190.8940  174.4700  141.6650 C   0  0  0  0  0  2  0  0  0  0  0  0
  192.1720  172.8800  138.4890 N   0  0  0  0  0  2  0  0  0  0  0  0
  190.7810  173.3690  137.5810 S   0  0  0  0  0  0  0  0  0  0  0  0
  191.1010  174.5930  136.7720 O   0  0  0  0  0  0  0  0  0  0  0  0
  189.7580  172.9460  140.0180 C   0  0  0  0  0  2  0  0  0  0  0  0
  192.2060  173.7090  139.6890 C   0  0  0  0  0  2  0  0  0  0  0  0
  191.0960  173.3280  140.6810 C   0  0  1  0  0  3  0  0  0  0  0  0
  190.3580  172.2540  136.6680 O   0  0  0  0  0  0  0  0  0  0  0  0
  189.4800  173.7300  138.7410 C   0  0  0  0  0  2  0  0  0  0  0  0
  1  6  1  0  0  0  0
  1  5  1  0  0  0  0
  2 12  1  6  0  0  0
  2 11  1  0  0  0  0
  3 10  1  0  0  0  0
  3 16  1  0  0  0  0
  4  8  1  0  0  0  0
  4  7  2  0  0  0  0
  7  9  1  0  0  0  0
  8  1  2  0  0  0  0
  9  5  2  0  0  0  0
 11  7  1  0  0  0  0
 11 10  1  1  0  0  0
 12 15  2  0  0  0  0
 13 35  1  6  0  0  0
 13  2  1  0  0  0  0
 13 14  1  0  0  0  0
 14  3  1  0  0  0  0
 15  4  1  0  0  0  0
 16 17  1  1  0  0  0
 18 16  1  0  0  0  0
 19 22  1  0  0  0  0
 20 19  1  1  0  0  0
 20 23  1  0  0  0  0
 22 18  1  0  0  0  0
 22 24  1  0  0  0  0
 23 27  1  0  0  0  0
 23 24  1  1  0  0  0
 25 29  1  6  0  0  0
 25 20  1  0  0  0  0
 25 26  1  0  0  0  0
 26 27  1  0  0  0  0
 27 21  2  0  0  0  0
 28 29  1  0  0  0  0
 30 32  1  0  0  0  0
 31 32  1  0  0  0  0
 31 33  1  0  0  0  0
 32 34  1  0  0  0  0
 33 28  2  0  0  0  0
 34 29  2  0  0  0  0
 36 40  1  0  0  0  0
 37 36  1  0  0  0  0
 37 43  1  0  0  0  0
 38 37  2  0  0  0  0
 39 41  1  0  0  0  0
 40 41  1  0  0  0  0
 41 35  1  1  0  0  0
 42 37  2  0  0  0  0
 43 39  1  0  0  0  0
M  END
>  <MODEL>
6

>  <REMARK>
 VINA RESULT:      -7.8      3.247      6.155
  Name = 
  6 active torsions:
  status: ('A' for Active; 'I' for Inactive)
    1  A    between atoms: C_1  and  C_34
    2  A    between atoms: C_1  and  C_35
    3  A    between atoms: C_2  and  C_6
    4  A    between atoms: C_2  and  N_13
    5  A    between atoms: C_6  and  N_12
    6  A    between atoms: C_14  and  C_22
                            x       y       z     vdW  Elec       q    Type
                         _______ _______ _______ _____ _____    ______ ____

>  <TORSDO>
F 6

$$$$
=
 OpenBabel11052420493D

 43 49  0  0  1  0  0  0  0  0999 V2000
  190.1210  173.9230  136.6210 C   0  0  0  0  0  0  0  0  0  0  0  0
  193.2880  174.5400  140.5170 C   0  0  2  0  0  3  0  0  0  0  0  0
  192.0720  173.8650  142.7980 N   0  0  0  0  0  0  0  0  0  0  0  0
  192.1270  174.1850  137.9530 C   0  0  0  0  0  0  0  0  0  0  0  0
  189.4540  173.3830  137.7250 C   0  0  0  0  0  3  0  0  0  0  0  0
  189.4380  174.0740  135.3820 N   0  0  0  0  0  1  0  0  0  0  0  0
  191.4540  173.6490  139.0740 C   0  0  0  0  0  0  0  0  0  0  0  0
  191.4590  174.3150  136.7310 C   0  0  0  0  0  3  0  0  0  0  0  0
  190.1220  173.2350  138.9440 C   0  0  0  0  0  3  0  0  0  0  0  0
  191.3770  173.3170  141.6170 C   0  0  0  0  0  2  0  0  0  0  0  0
  192.2380  173.4330  140.3450 C   0  0  2  0  0  3  0  0  0  0  0  0
  194.1150  174.7110  139.2740 C   0  0  0  0  0  3  0  0  0  0  0  0
  194.1390  174.2980  141.7690 C   0  0  2  0  0  3  0  0  0  0  0  0
  193.4220  173.4520  142.7380 N   0  0  0  0  0  2  0  0  0  0  0  0
  193.5430  174.5890  138.0710 C   0  0  0  0  0  3  0  0  0  0  0  0
  191.4770  173.2930  144.0100 C   0  0  2  0  0  3  0  0  0  0  0  0
  190.9730  171.8810  143.7410 C   0  0  0  0  0  1  0  0  0  0  0  0
  190.2890  174.1360  144.4640 C   0  0  0  0  0  2  0  0  0  0  0  0
  189.2190  174.9350  146.3990 C   0  0  0  0  0  2  0  0  0  0  0  0
  188.8940  176.4000  146.2080 C   0  0  1  0  0  3  0  0  0  0  0  0
  190.6990  178.2500  143.7490 O   0  0  0  0  0  0  0  0  0  0  0  0
  190.5200  174.6520  145.8050 N   0  0  0  0  0  0  0  0  0  0  0  0
  190.2030  177.0590  145.7960 C   0  0  1  0  0  3  0  0  0  0  0  0
  191.2100  175.9300  145.6620 C   0  0  0  0  0  2  0  0  0  0  0  0
  187.9150  176.5710  145.0310 C   0  0  2  0  0  3  0  0  0  0  0  0
  188.5950  177.3440  144.0620 O   0  0  0  0  0  0  0  0  0  0  0  0
  189.8820  177.6140  144.4630 C   0  0  0  0  0  0  0  0  0  0  0  0
  186.3880  177.4960  146.9010 C   0  0  0  0  0  3  0  0  0  0  0  0
  186.6660  177.2680  145.4690 C   0  0  0  0  0  0  0  0  0  0  0  0
  183.8000  179.0380  143.9230 C   0  0  0  0  0  1  0  0  0  0  0  0
  184.1550  178.4030  146.3230 C   0  0  0  0  0  2  0  0  0  0  0  0
  184.6520  178.4570  144.9460 N   0  0  0  0  0  0  0  0  0  0  0  0
  185.2420  178.0500  147.3010 C   0  0  0  0  0  3  0  0  0  0  0  0
  185.8370  177.7580  144.5490 C   0  0  0  0  0  3  0  0  0  0  0  0
  194.4960  175.6370  142.4070 C   0  0  0  0  0  2  0  0  0  0  0  0
  197.3310  173.7970  144.0880 N   0  0  0  0  0  2  0  0  0  0  0  0
  196.3790  173.4290  145.4870 S   0  0  0  0  0  0  0  0  0  0  0  0
  195.8740  172.0170  145.4060 O   0  0  0  0  0  0  0  0  0  0  0  0
  195.4120  175.8110  144.7430 C   0  0  0  0  0  2  0  0  0  0  0  0
  196.3990  174.1520  143.0240 C   0  0  0  0  0  2  0  0  0  0  0  0
  195.7460  175.5220  143.2670 C   0  0  1  0  0  3  0  0  0  0  0  0
  197.2130  173.5990  146.7230 O   0  0  0  0  0  0  0  0  0  0  0  0
  195.0080  174.5630  145.5190 C   0  0  0  0  0  2  0  0  0  0  0  0
  1  8  2  0  0  0  0
  1  5  1  0  0  0  0
  2 12  1  6  0  0  0
  2 13  1  0  0  0  0
  3 16  1  0  0  0  0
  4 15  1  0  0  0  0
  4  7  2  0  0  0  0
  5  9  2  0  0  0  0
  6  1  1  0  0  0  0
  7 11  1  0  0  0  0
  8  4  1  0  0  0  0
  9  7  1  0  0  0  0
 10  3  1  0  0  0  0
 11  2  1  0  0  0  0
 11 10  1  1  0  0  0
 13 35  1  1  0  0  0
 13 14  1  0  0  0  0
 14  3  1  0  0  0  0
 15 12  2  0  0  0  0
 16 17  1  6  0  0  0
 16 18  1  0  0  0  0
 18 22  1  0  0  0  0
 20 19  1  6  0  0  0
 21 27  2  0  0  0  0
 22 19  1  0  0  0  0
 23 24  1  6  0  0  0
 23 20  1  0  0  0  0
 24 22  1  0  0  0  0
 25 29  1  1  0  0  0
 25 20  1  0  0  0  0
 26 27  1  0  0  0  0
 26 25  1  0  0  0  0
 27 23  1  0  0  0  0
 28 33  2  0  0  0  0
 29 28  1  0  0  0  0
 30 32  1  0  0  0  0
 31 33  1  0  0  0  0
 32 31  1  0  0  0  0
 34 32  1  0  0  0  0
 34 29  2  0  0  0  0
 36 37  1  0  0  0  0
 37 43  1  0  0  0  0
 37 42  2  0  0  0  0
 38 37  2  0  0  0  0
 39 43  1  0  0  0  0
 40 41  1  0  0  0  0
 40 36  1  0  0  0  0
 41 35  1  6  0  0  0
 41 39  1  0  0  0  0
M  END
>  <MODEL>
7

>  <REMARK>
 VINA RESULT:      -7.7      2.909      8.327
  Name = 
  6 active torsions:
  status: ('A' for Active; 'I' for Inactive)
    1  A    between atoms: C_1  and  C_34
    2  A    between atoms: C_1  and  C_35
    3  A    between atoms: C_2  and  C_6
    4  A    between atoms: C_2  and  N_13
    5  A    between atoms: C_6  and  N_12
    6  A    between atoms: C_14  and  C_22
                            x       y       z     vdW  Elec       q    Type
                         _______ _______ _______ _____ _____    ______ ____

>  <TORSDO>
F 6

$$$$
=
 OpenBabel11052420493D

 43 49  0  0  1  0  0  0  0  0999 V2000
  190.2240  171.2810  139.6140 C   0  0  0  0  0  0  0  0  0  0  0  0
  189.6100  174.8100  143.1860 C   0  0  2  0  0  3  0  0  0  0  0  0
  191.4620  174.5160  145.0890 N   0  0  0  0  0  0  0  0  0  0  0  0
  189.5680  173.2950  140.7870 C   0  0  0  0  0  0  0  0  0  0  0  0
  191.3340  171.1480  140.4550 C   0  0  0  0  0  3  0  0  0  0  0  0
  189.9880  170.3180  138.5930 N   0  0  0  0  0  1  0  0  0  0  0  0
  190.6810  173.1600  141.6470 C   0  0  0  0  0  0  0  0  0  0  0  0
  189.3470  172.3580  139.7730 C   0  0  0  0  0  3  0  0  0  0  0  0
  191.5680  172.0920  141.4600 C   0  0  0  0  0  3  0  0  0  0  0  0
  191.8340  173.8190  143.8420 C   0  0  0  0  0  2  0  0  0  0  0  0
  190.9390  174.2450  142.6640 C   0  0  2  0  0  3  0  0  0  0  0  0
  188.6930  175.1910  142.0580 C   0  0  0  0  0  3  0  0  0  0  0  0
  189.8540  175.9600  144.1700 C   0  0  2  0  0  3  0  0  0  0  0  0
  191.1960  175.8660  144.7690 N   0  0  0  0  0  2  0  0  0  0  0  0
  188.6480  174.4400  140.9530 C   0  0  0  0  0  3  0  0  0  0  0  0
  192.6030  174.4850  146.0110 C   0  0  2  0  0  3  0  0  0  0  0  0
  192.8090  175.8530  146.6490 C   0  0  0  0  0  1  0  0  0  0  0  0
  193.8790  174.1200  145.2610 C   0  0  0  0  0  2  0  0  0  0  0  0
  195.1100  175.7490  144.0940 C   0  0  0  0  0  2  0  0  0  0  0  0
  196.3280  175.0930  143.4800 C   0  0  1  0  0  3  0  0  0  0  0  0
  197.4700  171.9940  144.8260 O   0  0  0  0  0  0  0  0  0  0  0  0
  194.8720  175.1730  145.4130 N   0  0  0  0  0  0  0  0  0  0  0  0
  197.0190  174.3620  144.6210 C   0  0  1  0  0  3  0  0  0  0  0  0
  196.1160  174.5350  145.8300 C   0  0  0  0  0  2  0  0  0  0  0  0
  195.8890  174.0240  142.4610 C   0  0  2  0  0  3  0  0  0  0  0  0
  196.3750  172.7900  142.9530 O   0  0  0  0  0  0  0  0  0  0  0  0
  196.9950  172.9550  144.1680 C   0  0  0  0  0  0  0  0  0  0  0  0
  197.4740  175.3630  140.9190 C   0  0  0  0  0  3  0  0  0  0  0  0
  196.4610  174.3060  141.1080 C   0  0  0  0  0  0  0  0  0  0  0  0
  196.3140  172.8760  137.6920 C   0  0  0  0  0  1  0  0  0  0  0  0
  197.3920  175.0040  138.4680 C   0  0  0  0  0  2  0  0  0  0  0  0
  196.6670  173.7690  138.7810 N   0  0  0  0  0  0  0  0  0  0  0  0
  197.9330  175.6690  139.7030 C   0  0  0  0  0  3  0  0  0  0  0  0
  196.1070  173.5390  140.0790 C   0  0  0  0  0  3  0  0  0  0  0  0
  188.7900  175.9280  145.2630 C   0  0  0  0  0  2  0  0  0  0  0  0
  186.1490  178.4730  146.1540 N   0  0  0  0  0  2  0  0  0  0  0  0
  185.6870  178.7020  144.5000 S   0  0  0  0  0  0  0  0  0  0  0  0
  184.4410  177.9190  144.2030 O   0  0  0  0  0  0  0  0  0  0  0  0
  188.3090  178.2020  144.3020 C   0  0  0  0  0  2  0  0  0  0  0  0
  186.8810  177.2130  146.2170 C   0  0  0  0  0  2  0  0  0  0  0  0
  188.2700  177.3250  145.5680 C   0  0  1  0  0  3  0  0  0  0  0  0
  185.4420  180.1610  144.2430 O   0  0  0  0  0  0  0  0  0  0  0  0
  187.0270  178.1240  143.4820 C   0  0  0  0  0  2  0  0  0  0  0  0
  1  8  2  0  0  0  0
  1  5  1  0  0  0  0
  2 12  1  6  0  0  0
  2 13  1  0  0  0  0
  3 16  1  0  0  0  0
  4 15  1  0  0  0  0
  4  7  2  0  0  0  0
  5  9  2  0  0  0  0
  6  1  1  0  0  0  0
  7 11  1  0  0  0  0
  8  4  1  0  0  0  0
  9  7  1  0  0  0  0
 10  3  1  0  0  0  0
 11  2  1  0  0  0  0
 11 10  1  1  0  0  0
 13 14  1  0  0  0  0
 13 35  1  1  0  0  0
 14  3  1  0  0  0  0
 15 12  2  0  0  0  0
 16 17  1  6  0  0  0
 18 22  1  0  0  0  0
 18 16  1  0  0  0  0
 19 22  1  0  0  0  0
 20 19  1  1  0  0  0
 20 23  1  0  0  0  0
 22 24  1  0  0  0  0
 23 24  1  1  0  0  0
 25 29  1  6  0  0  0
 25 26  1  0  0  0  0
 25 20  1  0  0  0  0
 26 27  1  0  0  0  0
 27 23  1  0  0  0  0
 27 21  2  0  0  0  0
 28 29  1  0  0  0  0
 30 32  1  0  0  0  0
 31 32  1  0  0  0  0
 31 33  1  0  0  0  0
 32 34  1  0  0  0  0
 33 28  2  0  0  0  0
 34 29  2  0  0  0  0
 36 40  1  0  0  0  0
 37 36  1  0  0  0  0
 38 37  2  0  0  0  0
 39 41  1  0  0  0  0
 41 35  1  6  0  0  0
 41 40  1  0  0  0  0
 42 37  2  0  0  0  0
 43 39  1  0  0  0  0
 43 37  1  0  0  0  0
M  END
>  <MODEL>
8

>  <REMARK>
 VINA RESULT:      -7.7      3.928      7.401
  Name = 
  6 active torsions:
  status: ('A' for Active; 'I' for Inactive)
    1  A    between atoms: C_1  and  C_34
    2  A    between atoms: C_1  and  C_35
    3  A    between atoms: C_2  and  C_6
    4  A    between atoms: C_2  and  N_13
    5  A    between atoms: C_6  and  N_12
    6  A    between atoms: C_14  and  C_22
                            x       y       z     vdW  Elec       q    Type
                         _______ _______ _______ _____ _____    ______ ____

>  <TORSDO>
F 6

$$$$
=
 OpenBabel11052420493D

 43 49  0  0  1  0  0  0  0  0999 V2000
  185.4410  177.6870  146.3200 C   0  0  0  0  0  0  0  0  0  0  0  0
  190.2710  176.2350  145.9260 C   0  0  2  0  0  3  0  0  0  0  0  0
  190.6000  174.7420  143.7350 N   0  0  0  0  0  0  0  0  0  0  0  0
  187.8460  177.5550  146.5770 C   0  0  0  0  0  0  0  0  0  0  0  0
  185.5380  177.0700  145.0680 C   0  0  0  0  0  3  0  0  0  0  0  0
  184.1670  178.0600  146.8320 N   0  0  0  0  0  1  0  0  0  0  0  0
  187.9480  176.9220  145.3180 C   0  0  0  0  0  0  0  0  0  0  0  0
  186.5940  177.9370  147.0700 C   0  0  0  0  0  3  0  0  0  0  0  0
  186.7880  176.7010  144.5630 C   0  0  0  0  0  3  0  0  0  0  0  0
  189.3550  175.5340  143.6830 C   0  0  0  0  0  2  0  0  0  0  0  0
  189.3230  176.6150  144.7790 C   0  0  2  0  0  3  0  0  0  0  0  0
  190.2280  177.2480  147.0340 C   0  0  0  0  0  3  0  0  0  0  0  0
  191.6900  175.9850  145.4020 C   0  0  2  0  0  3  0  0  0  0  0  0
  191.6710  175.6320  143.9730 N   0  0  0  0  0  2  0  0  0  0  0  0
  189.0670  177.8270  147.3630 C   0  0  0  0  0  3  0  0  0  0  0  0
  190.8180  174.1100  142.4290 C   0  0  2  0  0  3  0  0  0  0  0  0
  191.9830  174.7730  141.7040 C   0  0  0  0  0  1  0  0  0  0  0  0
  189.5770  174.2590  141.5560 C   0  0  0  0  0  2  0  0  0  0  0  0
  189.8540  172.0510  140.7960 C   0  0  0  0  0  2  0  0  0  0  0  0
  189.6180  172.0160  139.3020 C   0  0  1  0  0  3  0  0  0  0  0  0
  187.7590  174.6610  137.7960 O   0  0  0  0  0  0  0  0  0  0  0  0
  188.9070  172.9760  141.4080 N   0  0  0  0  0  0  0  0  0  0  0  0
  188.2650  172.6770  139.0850 C   0  0  1  0  0  3  0  0  0  0  0  0
  187.8200  173.1650  140.4530 C   0  0  0  0  0  2  0  0  0  0  0  0
  190.6660  172.8880  138.5850 C   0  0  2  0  0  3  0  0  0  0  0  0
  189.9430  173.9190  137.9400 O   0  0  0  0  0  0  0  0  0  0  0  0
  188.6010  173.8280  138.2200 C   0  0  0  0  0  0  0  0  0  0  0  0
  190.7570  171.1080  136.7130 C   0  0  0  0  0  3  0  0  0  0  0  0
  191.4360  172.0880  137.5830 C   0  0  0  0  0  0  0  0  0  0  0  0
  194.8890  171.9150  136.2490 C   0  0  0  0  0  1  0  0  0  0  0  0
  192.9510  170.3830  135.8180 C   0  0  0  0  0  2  0  0  0  0  0  0
  193.4880  171.5920  136.4470 N   0  0  0  0  0  0  0  0  0  0  0  0
  191.4490  170.3380  135.8710 C   0  0  0  0  0  3  0  0  0  0  0  0
  192.7370  172.3230  137.4240 C   0  0  0  0  0  3  0  0  0  0  0  0
  192.3400  174.8660  146.2100 C   0  0  0  0  0  2  0  0  0  0  0  0
  195.6440  176.3780  145.1900 N   0  0  0  0  0  2  0  0  0  0  0  0
  195.7900  175.3460  143.8070 S   0  0  0  0  0  0  0  0  0  0  0  0
  195.3800  176.0890  142.5680 O   0  0  0  0  0  0  0  0  0  0  0  0
  194.5140  173.7790  145.5630 C   0  0  0  0  0  2  0  0  0  0  0  0
  194.2430  176.3500  145.5920 C   0  0  0  0  0  2  0  0  0  0  0  0
  193.8550  175.0040  146.2260 C   0  0  1  0  0  3  0  0  0  0  0  0
  197.2110  174.8810  143.6730 O   0  0  0  0  0  0  0  0  0  0  0  0
  194.7160  173.9490  144.0620 C   0  0  0  0  0  2  0  0  0  0  0  0
  1  6  1  0  0  0  0
  1  8  1  0  0  0  0
  2 12  1  1  0  0  0
  3 14  1  0  0  0  0
  4  8  2  0  0  0  0
  4 15  1  0  0  0  0
  5  1  2  0  0  0  0
  7  4  1  0  0  0  0
  9  5  1  0  0  0  0
  9  7  2  0  0  0  0
 10  3  1  0  0  0  0
 11 10  1  6  0  0  0
 11  7  1  0  0  0  0
 11  2  1  0  0  0  0
 12 15  2  0  0  0  0
 13  2  1  0  0  0  0
 13 35  1  1  0  0  0
 14 13  1  0  0  0  0
 16 17  1  6  0  0  0
 16  3  1  0  0  0  0
 18 16  1  0  0  0  0
 19 22  1  0  0  0  0
 20 19  1  1  0  0  0
 21 27  2  0  0  0  0
 22 18  1  0  0  0  0
 23 20  1  0  0  0  0
 23 24  1  1  0  0  0
 24 22  1  0  0  0  0
 25 29  1  6  0  0  0
 25 20  1  0  0  0  0
 26 27  1  0  0  0  0
 26 25  1  0  0  0  0
 27 23  1  0  0  0  0
 28 29  1  0  0  0  0
 30 32  1  0  0  0  0
 31 33  1  0  0  0  0
 31 32  1  0  0  0  0
 32 34  1  0  0  0  0
 33 28  2  0  0  0  0
 34 29  2  0  0  0  0
 36 40  1  0  0  0  0
 37 43  1  0  0  0  0
 37 36  1  0  0  0  0
 38 37  2  0  0  0  0
 39 41  1  0  0  0  0
 40 41  1  0  0  0  0
 41 35  1  6  0  0  0
 42 37  2  0  0  0  0
 43 39  1  0  0  0  0
M  END
>  <MODEL>
9

>  <REMARK>
 VINA RESULT:      -7.6      2.763      4.317
  Name = 
  6 active torsions:
  status: ('A' for Active; 'I' for Inactive)
    1  A    between atoms: C_1  and  C_34
    2  A    between atoms: C_1  and  C_35
    3  A    between atoms: C_2  and  C_6
    4  A    between atoms: C_2  and  N_13
    5  A    between atoms: C_6  and  N_12
    6  A    between atoms: C_14  and  C_22
                            x       y       z     vdW  Elec       q    Type
                         _______ _______ _______ _____ _____    ______ ____

>  <TORSDO>
F 6

$$$$
