=
 OpenBabel11052421363D

 32 36  0  0  1  0  0  0  0  0999 V2000
  193.0030  174.1830  145.9070 C   0  0  0  0  0  3  0  0  0  0  0  0
  189.9370  177.8510  144.4340 C   0  0  1  0  0  3  0  0  0  0  0  0
  185.9230  176.8260  147.5220 C   0  0  0  0  0  3  0  0  0  0  0  0
  185.1960  177.3210  146.4430 C   0  0  0  0  0  3  0  0  0  0  0  0
  192.5820  176.5720  144.5600 C   0  0  0  0  0  0  0  0  0  0  0  0
  190.1890  176.6190  145.2690 C   0  0  0  0  0  0  0  0  0  0  0  0
  191.7400  174.7710  145.9350 C   0  0  0  0  0  3  0  0  0  0  0  0
  187.2560  176.4550  147.3510 C   0  0  0  0  0  3  0  0  0  0  0  0
  189.2450  176.1220  146.0140 N   0  0  0  0  0  0  0  0  0  0  0  0
  187.8880  176.5880  146.1090 C   0  0  0  0  0  0  0  0  0  0  0  0
  187.6910  177.1760  143.6170 C   0  0  0  0  0  0  0  0  0  0  0  0
  194.8050  176.4830  143.9350 O   0  0  0  0  0  0  0  0  0  0  0  0
  193.8430  175.9500  144.5570 C   0  0  0  0  0  0  0  0  0  0  0  0
  191.5210  175.9740  145.2580 C   0  0  0  0  0  0  0  0  0  0  0  0
  192.3730  177.8530  143.8610 C   0  0  0  0  0  3  0  0  0  0  0  0
  194.0260  174.7710  145.2280 N   0  0  0  0  0  0  0  0  0  0  0  0
  185.8000  177.4380  145.1920 C   0  0  0  0  0  3  0  0  0  0  0  0
  187.1450  177.0810  144.9980 C   0  0  0  0  0  0  0  0  0  0  0  0
  191.1760  178.4400  143.8150 C   0  0  0  0  0  3  0  0  0  0  0  0
  188.9570  177.5260  143.3650 C   0  0  0  0  0  3  0  0  0  0  0  0
  187.2210  176.0430  140.2030 C   0  0  0  0  0  0  0  0  0  0  0  0
  186.4010  177.1240  139.5580 C   0  0  0  0  0  2  0  0  0  0  0  0
  186.2590  178.1940  141.8060 C   0  0  1  0  0  3  0  0  0  0  0  0
  184.9630  178.9780  139.9550 O   0  0  0  0  0  1  0  0  0  0  0  0
  185.4820  177.8280  140.5490 C   0  0  1  0  0  3  0  0  0  0  0  0
  187.4300  176.0160  141.4870 N   0  0  0  0  0  0  0  0  0  0  0  0
  187.9120  175.1200  139.3700 N   0  0  0  0  0  1  0  0  0  0  0  0
  185.4210  178.8630  142.7000 O   0  0  0  0  0  1  0  0  0  0  0  0
  186.7770  176.9060  142.4530 C   0  0  1  0  0  3  0  0  0  0  0  0
  195.3220  174.1030  145.2270 C   0  0  0  0  0  2  0  0  0  0  0  0
  195.1380  172.6090  145.4280 C   0  0  0  0  0  2  0  0  0  0  0  0
  196.4580  171.9900  145.8350 C   0  0  0  0  0  1  0  0  0  0  0  0
  1  7  2  0  0  0  0
  2 20  1  6  0  0  0
  2  6  1  0  0  0  0
  4  3  2  0  0  0  0
  5 14  2  0  0  0  0
  6  9  2  0  0  0  0
  8  3  1  0  0  0  0
  9 10  1  0  0  0  0
 10  8  2  0  0  0  0
 11 18  1  0  0  0  0
 12 13  2  0  0  0  0
 13  5  1  0  0  0  0
 13 16  1  0  0  0  0
 14  6  1  0  0  0  0
 14  7  1  0  0  0  0
 15  5  1  0  0  0  0
 16  1  1  0  0  0  0
 17  4  1  0  0  0  0
 18 17  2  0  0  0  0
 18 10  1  0  0  0  0
 19 15  2  0  0  0  0
 19  2  1  0  0  0  0
 20 11  2  0  0  0  0
 21 26  2  0  0  0  0
 22 21  1  0  0  0  0
 22 25  1  0  0  0  0
 23 29  1  0  0  0  0
 23 28  1  1  0  0  0
 25 24  1  6  0  0  0
 25 23  1  0  0  0  0
 26 29  1  0  0  0  0
 27 21  1  0  0  0  0
 29 11  1  1  0  0  0
 30 16  1  0  0  0  0
 30 31  1  0  0  0  0
 31 32  1  0  0  0  0
M  END
>  <MODEL>
1

>  <REMARK>
 VINA RESULT:      -8.2      0.000      0.000
  Name = 
  3 active torsions:
  status: ('A' for Active; 'I' for Inactive)
    1  A    between atoms: C_1  and  C_10
    2  A    between atoms: C_10  and  N_24
    3  A    between atoms: C_16  and  C_32
                            x       y       z     vdW  Elec       q    Type
                         _______ _______ _______ _____ _____    ______ ____

>  <TORSDO>
F 3

$$$$
=
 OpenBabel11052421363D

 32 36  0  0  1  0  0  0  0  0999 V2000
  189.7570  177.7180  143.6170 C   0  0  0  0  0  3  0  0  0  0  0  0
  193.3280  175.2830  146.1340 C   0  0  0  0  0  0  0  0  0  0  0  0
  197.3580  176.4200  143.1070 C   0  0  0  0  0  3  0  0  0  0  0  0
  197.7900  175.1600  143.5130 C   0  0  0  0  0  3  0  0  0  0  0  0
  190.6260  176.4200  145.9110 C   0  0  0  0  0  0  0  0  0  0  0  0
  192.9010  176.0950  144.9360 C   0  0  0  0  0  0  0  0  0  0  0  0
  191.0690  177.2540  143.6850 C   0  0  0  0  0  3  0  0  0  0  0  0
  196.0270  176.7910  143.2900 C   0  0  0  0  0  3  0  0  0  0  0  0
  193.7490  176.3670  143.9870 N   0  0  0  0  0  0  0  0  0  0  0  0
  195.1120  175.9220  143.8970 C   0  0  0  0  0  0  0  0  0  0  0  0
  194.6380  173.5930  144.8710 C   0  0  0  0  0  0  0  0  0  0  0  0
  188.5060  176.7530  146.7670 O   0  0  0  0  0  0  0  0  0  0  0  0
  189.3100  176.9050  145.8050 C   0  0  0  0  0  0  0  0  0  0  0  0
  191.5130  176.5990  144.8370 C   0  0  0  0  0  0  0  0  0  0  0  0
  191.0860  175.7530  147.1410 C   0  0  0  0  0  3  0  0  0  0  0  0
  188.9050  177.5410  144.6630 N   0  0  0  0  0  0  0  0  0  0  0  0
  196.8900  174.2700  144.0970 C   0  0  0  0  0  3  0  0  0  0  0  0
  195.5460  174.6260  144.3020 C   0  0  0  0  0  0  0  0  0  0  0  0
  192.3160  175.2490  147.2480 C   0  0  0  0  0  3  0  0  0  0  0  0
  193.6350  173.8940  145.7030 C   0  0  0  0  0  2  0  0  0  0  0  0
  193.3450  170.3570  143.8650 C   0  0  0  0  0  0  0  0  0  0  0  0
  193.9450  169.3900  144.8470 C   0  0  0  0  0  2  0  0  0  0  0  0
  195.2440  171.3120  145.7630 C   0  0  1  0  0  3  0  0  0  0  0  0
  195.6770  169.0600  146.4460 O   0  0  0  0  0  1  0  0  0  0  0  0
  195.3080  169.8470  145.3550 C   0  0  1  0  0  3  0  0  0  0  0  0
  193.7330  171.5970  143.8010 N   0  0  0  0  0  0  0  0  0  0  0  0
  192.2200  169.9430  143.1000 N   0  0  0  0  0  1  0  0  0  0  0  0
  196.4870  171.7190  146.2530 O   0  0  0  0  0  1  0  0  0  0  0  0
  194.8790  172.1480  144.5320 C   0  0  1  0  0  3  0  0  0  0  0  0
  187.5410  178.0390  144.5280 C   0  0  0  0  0  2  0  0  0  0  0  0
  187.0140  177.7470  143.1340 C   0  0  0  0  0  2  0  0  0  0  0  0
  186.2930  176.4160  143.1380 C   0  0  0  0  0  1  0  0  0  0  0  0
  1  7  2  0  0  0  0
  1 16  1  0  0  0  0
  2 19  1  0  0  0  0
  3  8  2  0  0  0  0
  3  4  1  0  0  0  0
  4 17  2  0  0  0  0
  5 15  1  0  0  0  0
  6  2  2  0  0  0  0
  7 14  1  0  0  0  0
  8 10  1  0  0  0  0
  9  6  1  0  0  0  0
 10  9  2  0  0  0  0
 10 18  1  0  0  0  0
 11 20  1  0  0  0  0
 13  5  1  0  0  0  0
 13 12  2  0  0  0  0
 14  6  1  0  0  0  0
 14  5  2  0  0  0  0
 15 19  2  0  0  0  0
 16 13  1  0  0  0  0
 17 18  1  0  0  0  0
 18 11  2  0  0  0  0
 20  2  1  0  0  0  0
 21 22  1  0  0  0  0
 22 25  1  0  0  0  0
 23 28  1  6  0  0  0
 25 23  1  0  0  0  0
 25 24  1  1  0  0  0
 26 21  2  0  0  0  0
 26 29  1  0  0  0  0
 27 21  1  0  0  0  0
 29 11  1  1  0  0  0
 29 23  1  0  0  0  0
 30 16  1  0  0  0  0
 31 32  1  0  0  0  0
 31 30  1  0  0  0  0
M  END
>  <MODEL>
2

>  <REMARK>
 VINA RESULT:      -8.1      2.908      8.926
  Name = 
  3 active torsions:
  status: ('A' for Active; 'I' for Inactive)
    1  A    between atoms: C_1  and  C_10
    2  A    between atoms: C_10  and  N_24
    3  A    between atoms: C_16  and  C_32
                            x       y       z     vdW  Elec       q    Type
                         _______ _______ _______ _____ _____    ______ ____

>  <TORSDO>
F 3

$$$$
=
 OpenBabel11052421363D

 32 36  0  0  1  0  0  0  0  0999 V2000
  189.6400  173.6190  138.0430 C   0  0  0  0  0  3  0  0  0  0  0  0
  188.6690  173.3640  142.9430 C   0  0  0  0  0  0  0  0  0  0  0  0
  185.5470  177.4610  143.3540 C   0  0  0  0  0  3  0  0  0  0  0  0
  186.1190  177.5450  144.6210 C   0  0  0  0  0  3  0  0  0  0  0  0
  189.6870  172.2140  140.4360 C   0  0  0  0  0  0  0  0  0  0  0  0
  188.5290  174.0800  141.6220 C   0  0  0  0  0  0  0  0  0  0  0  0
  189.0860  174.1940  139.1850 C   0  0  0  0  0  3  0  0  0  0  0  0
  186.1470  176.6750  142.3710 C   0  0  0  0  0  3  0  0  0  0  0  0
  187.8910  175.2120  141.5500 N   0  0  0  0  0  0  0  0  0  0  0  0
  187.3110  175.9450  142.6420 C   0  0  0  0  0  0  0  0  0  0  0  0
  189.1910  175.3800  144.2970 C   0  0  0  0  0  0  0  0  0  0  0  0
  190.7530  170.5150  139.2890 O   0  0  0  0  0  0  0  0  0  0  0  0
  190.2330  171.6660  139.2620 C   0  0  0  0  0  0  0  0  0  0  0  0
  189.1070  173.4930  140.3940 C   0  0  0  0  0  0  0  0  0  0  0  0
  189.6960  171.4530  141.6970 C   0  0  0  0  0  3  0  0  0  0  0  0
  190.1990  172.3790  138.0940 N   0  0  0  0  0  0  0  0  0  0  0  0
  187.2920  176.8460  144.9030 C   0  0  0  0  0  3  0  0  0  0  0  0
  187.9080  176.0380  143.9330 C   0  0  0  0  0  0  0  0  0  0  0  0
  189.2210  171.9680  142.8320 C   0  0  0  0  0  3  0  0  0  0  0  0
  189.5330  174.1670  143.8480 C   0  0  0  0  0  2  0  0  0  0  0  0
  192.5550  176.4160  145.1730 C   0  0  0  0  0  0  0  0  0  0  0  0
  192.7150  176.0010  146.6090 C   0  0  0  0  0  2  0  0  0  0  0  0
  190.3150  175.3250  146.5550 C   0  0  1  0  0  3  0  0  0  0  0  0
  191.5630  175.3760  148.5950 O   0  0  0  0  0  1  0  0  0  0  0  0
  191.3950  176.0220  147.3710 C   0  0  1  0  0  3  0  0  0  0  0  0
  191.4020  176.3720  144.5720 N   0  0  0  0  0  0  0  0  0  0  0  0
  193.7210  176.7130  144.4140 N   0  0  0  0  0  1  0  0  0  0  0  0
  189.1150  175.3210  147.2690 O   0  0  0  0  0  1  0  0  0  0  0  0
  190.1280  176.0850  145.2390 C   0  0  1  0  0  3  0  0  0  0  0  0
  190.7700  171.8340  136.8680 C   0  0  0  0  0  2  0  0  0  0  0  0
  189.6890  171.1630  136.0410 C   0  0  0  0  0  2  0  0  0  0  0  0
  189.4910  171.9310  134.7510 C   0  0  0  0  0  1  0  0  0  0  0  0
  1 16  1  0  0  0  0
  1  7  2  0  0  0  0
  2 20  1  0  0  0  0
  3  4  1  0  0  0  0
  4 17  2  0  0  0  0
  5 15  1  0  0  0  0
  6  2  2  0  0  0  0
  7 14  1  0  0  0  0
  8 10  1  0  0  0  0
  8  3  2  0  0  0  0
  9  6  1  0  0  0  0
  9 10  2  0  0  0  0
 10 18  1  0  0  0  0
 13 12  2  0  0  0  0
 13  5  1  0  0  0  0
 14  5  2  0  0  0  0
 14  6  1  0  0  0  0
 15 19  2  0  0  0  0
 16 13  1  0  0  0  0
 18 11  2  0  0  0  0
 18 17  1  0  0  0  0
 19  2  1  0  0  0  0
 20 11  1  0  0  0  0
 21 22  1  0  0  0  0
 22 25  1  0  0  0  0
 23 28  1  1  0  0  0
 23 25  1  0  0  0  0
 25 24  1  1  0  0  0
 26 21  2  0  0  0  0
 26 29  1  0  0  0  0
 27 21  1  0  0  0  0
 29 11  1  6  0  0  0
 29 23  1  0  0  0  0
 30 16  1  0  0  0  0
 31 30  1  0  0  0  0
 32 31  1  0  0  0  0
M  END
>  <MODEL>
3

>  <REMARK>
 VINA RESULT:      -7.9      3.986      7.097
  Name = 
  3 active torsions:
  status: ('A' for Active; 'I' for Inactive)
    1  A    between atoms: C_1  and  C_10
    2  A    between atoms: C_10  and  N_24
    3  A    between atoms: C_16  and  C_32
                            x       y       z     vdW  Elec       q    Type
                         _______ _______ _______ _____ _____    ______ ____

>  <TORSDO>
F 3

$$$$
=
 OpenBabel11052421363D

 32 36  0  0  1  0  0  0  0  0999 V2000
  188.5260  178.2940  143.9330 C   0  0  0  0  0  3  0  0  0  0  0  0
  191.2820  174.5520  145.7830 C   0  0  0  0  0  0  0  0  0  0  0  0
  195.9190  176.0440  144.0590 C   0  0  0  0  0  3  0  0  0  0  0  0
  196.1390  174.6710  143.9960 C   0  0  0  0  0  3  0  0  0  0  0  0
  188.7990  176.1190  145.6350 C   0  0  0  0  0  0  0  0  0  0  0  0
  191.1790  175.8060  144.9500 C   0  0  0  0  0  0  0  0  0  0  0  0
  189.7490  177.6290  144.0030 C   0  0  0  0  0  3  0  0  0  0  0  0
  194.6190  176.5350  144.1780 C   0  0  0  0  0  3  0  0  0  0  0  0
  192.2190  176.2650  144.3170 N   0  0  0  0  0  0  0  0  0  0  0  0
  193.5240  175.6670  144.2570 C   0  0  0  0  0  0  0  0  0  0  0  0
  192.6460  173.2550  144.1620 C   0  0  0  0  0  0  0  0  0  0  0  0
  186.5940  176.4560  146.2380 O   0  0  0  0  0  0  0  0  0  0  0  0
  187.5820  176.8170  145.5390 C   0  0  0  0  0  0  0  0  0  0  0  0
  189.8930  176.5320  144.8580 C   0  0  1  0  0  3  0  0  0  0  0  0
  188.9420  174.9790  146.5580 C   0  0  0  0  0  3  0  0  0  0  0  0
  187.4720  177.8870  144.6920 N   0  0  0  0  0  0  0  0  0  0  0  0
  195.0600  173.7890  144.0490 C   0  0  0  0  0  3  0  0  0  0  0  0
  193.7430  174.2610  144.1800 C   0  0  0  0  0  0  0  0  0  0  0  0
  190.0730  174.2760  146.6360 C   0  0  0  0  0  3  0  0  0  0  0  0
  191.5320  173.3890  144.8910 C   0  0  0  0  0  3  0  0  0  0  0  0
  191.3360  170.9720  141.6660 C   0  0  0  0  0  0  0  0  0  0  0  0
  191.5180  169.6080  142.2720 C   0  0  0  0  0  2  0  0  0  0  0  0
  192.7110  170.7330  144.1510 C   0  0  1  0  0  3  0  0  0  0  0  0
  192.6740  168.3510  143.9290 O   0  0  0  0  0  1  0  0  0  0  0  0
  192.7230  169.5410  143.2030 C   0  0  1  0  0  3  0  0  0  0  0  0
  191.8630  172.0340  142.2010 N   0  0  0  0  0  0  0  0  0  0  0  0
  190.4360  171.1200  140.5750 N   0  0  0  0  0  1  0  0  0  0  0  0
  193.8000  170.6530  145.0210 O   0  0  0  0  0  1  0  0  0  0  0  0
  192.8080  172.0180  143.3220 C   0  0  1  0  0  3  0  0  0  0  0  0
  186.2160  178.6170  144.5680 C   0  0  0  0  0  2  0  0  0  0  0  0
  185.8590  178.7950  143.1030 C   0  0  0  0  0  2  0  0  0  0  0  0
  184.8560  177.7350  142.6970 C   0  0  0  0  0  1  0  0  0  0  0  0
  1  7  2  0  0  0  0
  1 16  1  0  0  0  0
  2 19  2  0  0  0  0
  3  8  1  0  0  0  0
  4 17  1  0  0  0  0
  4  3  2  0  0  0  0
  5 15  2  0  0  0  0
  6  2  1  0  0  0  0
  8 10  2  0  0  0  0
  9  6  2  0  0  0  0
 10  9  1  0  0  0  0
 11 18  1  0  0  0  0
 11 20  2  0  0  0  0
 13  5  1  0  0  0  0
 13 12  2  0  0  0  0
 14  7  1  6  0  0  0
 14  6  1  0  0  0  0
 14  5  1  0  0  0  0
 15 19  1  0  0  0  0
 16 13  1  0  0  0  0
 17 18  2  0  0  0  0
 18 10  1  0  0  0  0
 20  2  1  0  0  0  0
 21 26  2  0  0  0  0
 21 22  1  0  0  0  0
 22 25  1  0  0  0  0
 23 28  1  1  0  0  0
 25 24  1  1  0  0  0
 25 23  1  0  0  0  0
 26 29  1  0  0  0  0
 27 21  1  0  0  0  0
 29 23  1  0  0  0  0
 29 11  1  1  0  0  0
 30 16  1  0  0  0  0
 31 30  1  0  0  0  0
 32 31  1  0  0  0  0
M  END
>  <MODEL>
4

>  <REMARK>
 VINA RESULT:      -7.4      3.207      8.134
  Name = 
  3 active torsions:
  status: ('A' for Active; 'I' for Inactive)
    1  A    between atoms: C_1  and  C_10
    2  A    between atoms: C_10  and  N_24
    3  A    between atoms: C_16  and  C_32
                            x       y       z     vdW  Elec       q    Type
                         _______ _______ _______ _____ _____    ______ ____

>  <TORSDO>
F 3

$$$$
=
 OpenBabel11052421363D

 32 36  0  0  1  0  0  0  0  0999 V2000
  187.8540  177.0970  143.9790 C   0  0  0  0  0  3  0  0  0  0  0  0
  192.3100  176.0030  145.9710 C   0  0  0  0  0  0  0  0  0  0  0  0
  195.0710  175.6660  141.6170 C   0  0  0  0  0  3  0  0  0  0  0  0
  195.7740  174.7120  142.3480 C   0  0  0  0  0  3  0  0  0  0  0  0
  189.5310  176.9400  146.1850 C   0  0  0  0  0  0  0  0  0  0  0  0
  191.4400  176.2050  144.7540 C   0  0  0  0  0  0  0  0  0  0  0  0
  189.1790  176.7040  143.8040 C   0  0  0  0  0  3  0  0  0  0  0  0
  193.8150  176.0870  142.0500 C   0  0  0  0  0  3  0  0  0  0  0  0
  191.9250  176.0260  143.5600 N   0  0  0  0  0  0  0  0  0  0  0  0
  193.2500  175.5790  143.2260 C   0  0  0  0  0  0  0  0  0  0  0  0
  193.4120  173.9220  145.1810 C   0  0  0  0  0  0  0  0  0  0  0  0
  187.7330  177.6270  147.4620 O   0  0  0  0  0  0  0  0  0  0  0  0
  188.1880  177.3350  146.3210 C   0  0  0  0  0  0  0  0  0  0  0  0
  190.0290  176.6220  144.9110 C   0  0  0  0  0  0  0  0  0  0  0  0
  190.4210  176.8810  147.3570 C   0  0  0  0  0  3  0  0  0  0  0  0
  187.3800  177.4040  145.2180 N   0  0  0  0  0  0  0  0  0  0  0  0
  195.2190  174.1760  143.5090 C   0  0  0  0  0  3  0  0  0  0  0  0
  193.9590  174.5930  143.9710 C   0  0  0  0  0  0  0  0  0  0  0  0
  191.6860  176.4690  147.2590 C   0  0  0  0  0  3  0  0  0  0  0  0
  192.6660  174.5640  146.0870 C   0  0  0  0  0  2  0  0  0  0  0  0
  195.8630  171.2520  145.3360 C   0  0  0  0  0  0  0  0  0  0  0  0
  195.2650  170.1450  144.5120 C   0  0  0  0  0  2  0  0  0  0  0  0
  193.2260  171.5650  144.3010 C   0  0  1  0  0  3  0  0  0  0  0  0
  193.2590  169.2900  143.5600 O   0  0  0  0  0  1  0  0  0  0  0  0
  193.7410  170.1530  144.5440 C   0  0  1  0  0  3  0  0  0  0  0  0
  195.1780  172.3090  145.6610 N   0  0  0  0  0  0  0  0  0  0  0  0
  197.2530  171.2100  145.6300 N   0  0  0  0  0  1  0  0  0  0  0  0
  191.8300  171.5630  144.3020 O   0  0  0  0  0  1  0  0  0  0  0  0
  193.7400  172.4740  145.4210 C   0  0  1  0  0  3  0  0  0  0  0  0
  185.9820  177.7990  145.3390 C   0  0  0  0  0  2  0  0  0  0  0  0
  185.7870  179.2030  144.7930 C   0  0  0  0  0  2  0  0  0  0  0  0
  184.3960  179.3270  144.2090 C   0  0  0  0  0  1  0  0  0  0  0  0
  1 16  1  0  0  0  0
  2 20  1  0  0  0  0
  2 19  1  0  0  0  0
  3  8  2  0  0  0  0
  3  4  1  0  0  0  0
  4 17  2  0  0  0  0
  5 13  1  0  0  0  0
  5 15  1  0  0  0  0
  6 14  1  0  0  0  0
  6  2  2  0  0  0  0
  7  1  2  0  0  0  0
  7 14  1  0  0  0  0
  8 10  1  0  0  0  0
  9  6  1  0  0  0  0
 10  9  2  0  0  0  0
 10 18  1  0  0  0  0
 11 20  1  0  0  0  0
 13 12  2  0  0  0  0
 14  5  2  0  0  0  0
 16 30  1  0  0  0  0
 16 13  1  0  0  0  0
 17 18  1  0  0  0  0
 18 11  2  0  0  0  0
 19 15  2  0  0  0  0
 21 27  1  0  0  0  0
 21 26  2  0  0  0  0
 22 25  1  0  0  0  0
 22 21  1  0  0  0  0
 23 28  1  1  0  0  0
 23 25  1  0  0  0  0
 23 29  1  0  0  0  0
 25 24  1  6  0  0  0
 29 11  1  6  0  0  0
 29 26  1  0  0  0  0
 31 30  1  0  0  0  0
 32 31  1  0  0  0  0
M  END
>  <MODEL>
5

>  <REMARK>
 VINA RESULT:      -7.4      3.041      8.679
  Name = 
  3 active torsions:
  status: ('A' for Active; 'I' for Inactive)
    1  A    between atoms: C_1  and  C_10
    2  A    between atoms: C_10  and  N_24
    3  A    between atoms: C_16  and  C_32
                            x       y       z     vdW  Elec       q    Type
                         _______ _______ _______ _____ _____    ______ ____

>  <TORSDO>
F 3

$$$$
=
 OpenBabel11052421363D

 32 36  0  0  1  0  0  0  0  0999 V2000
  186.3390  176.7880  146.2950 C   0  0  0  0  0  3  0  0  0  0  0  0
  189.5730  176.3890  142.5000 C   0  0  1  0  0  3  0  0  0  0  0  0
  191.1450  171.5320  143.2950 C   0  0  0  0  0  3  0  0  0  0  0  0
  192.3400  172.0240  142.7780 C   0  0  0  0  0  3  0  0  0  0  0  0
  187.3720  177.7430  143.9030 C   0  0  0  0  0  0  0  0  0  0  0  0
  188.9310  175.8020  143.7330 C   0  0  0  0  0  0  0  0  0  0  0  0
  187.3400  176.0680  145.6460 C   0  0  0  0  0  3  0  0  0  0  0  0
  190.1600  172.4170  143.7320 C   0  0  0  0  0  3  0  0  0  0  0  0
  189.3000  174.6350  144.1760 N   0  0  0  0  0  0  0  0  0  0  0  0
  190.3430  173.8020  143.6430 C   0  0  0  0  0  0  0  0  0  0  0  0
  191.9050  175.7600  143.0740 C   0  0  0  0  0  0  0  0  0  0  0  0
  185.9050  179.5170  144.1070 O   0  0  0  0  0  0  0  0  0  0  0  0
  186.3590  178.4400  144.5860 C   0  0  0  0  0  0  0  0  0  0  0  0
  187.8660  176.5440  144.4420 C   0  0  0  0  0  0  0  0  0  0  0  0
  187.8990  178.2450  142.6220 C   0  0  0  0  0  3  0  0  0  0  0  0
  185.8660  177.9490  145.7640 N   0  0  0  0  0  0  0  0  0  0  0  0
  192.5530  173.4000  142.7030 C   0  0  0  0  0  3  0  0  0  0  0  0
  191.5710  174.3110  143.1280 C   0  0  0  0  0  0  0  0  0  0  0  0
  188.8880  177.6240  141.9780 C   0  0  0  0  0  3  0  0  0  0  0  0
  190.9970  176.7000  142.7880 C   0  0  0  0  0  3  0  0  0  0  0  0
  195.3520  175.9290  141.9560 C   0  0  0  0  0  0  0  0  0  0  0  0
  196.1520  175.4390  143.1300 C   0  0  0  0  0  2  0  0  0  0  0  0
  194.0110  175.3590  144.4050 C   0  0  1  0  0  3  0  0  0  0  0  0
  196.1270  175.0390  145.4760 O   0  0  0  0  0  1  0  0  0  0  0  0
  195.4820  175.7490  144.4630 C   0  0  1  0  0  3  0  0  0  0  0  0
  194.0800  176.1830  142.0540 N   0  0  0  0  0  0  0  0  0  0  0  0
  195.9690  175.9640  140.6750 N   0  0  0  0  0  1  0  0  0  0  0  0
  193.4070  175.6180  145.6370 O   0  0  0  0  0  1  0  0  0  0  0  0
  193.3280  176.1870  143.3130 C   0  0  1  0  0  3  0  0  0  0  0  0
  184.8250  178.6620  146.4950 C   0  0  0  0  0  2  0  0  0  0  0  0
  185.2150  178.8030  147.9550 C   0  0  0  0  0  2  0  0  0  0  0  0
  186.3150  179.8340  148.0860 C   0  0  0  0  0  1  0  0  0  0  0  0
  2 19  1  1  0  0  0
  2 20  1  0  0  0  0
  2  6  1  0  0  0  0
  3  8  1  0  0  0  0
  4  3  2  0  0  0  0
  5 14  2  0  0  0  0
  5 13  1  0  0  0  0
  6  9  2  0  0  0  0
  6 14  1  0  0  0  0
  7  1  2  0  0  0  0
 10  8  2  0  0  0  0
 10  9  1  0  0  0  0
 11 18  1  0  0  0  0
 12 13  2  0  0  0  0
 13 16  1  0  0  0  0
 14  7  1  0  0  0  0
 15  5  1  0  0  0  0
 16  1  1  0  0  0  0
 16 30  1  0  0  0  0
 17  4  1  0  0  0  0
 17 18  2  0  0  0  0
 18 10  1  0  0  0  0
 19 15  2  0  0  0  0
 20 11  2  0  0  0  0
 21 26  2  0  0  0  0
 21 22  1  0  0  0  0
 22 25  1  0  0  0  0
 23 25  1  0  0  0  0
 23 28  1  1  0  0  0
 25 24  1  1  0  0  0
 26 29  1  0  0  0  0
 27 21  1  0  0  0  0
 29 11  1  6  0  0  0
 29 23  1  0  0  0  0
 30 31  1  0  0  0  0
 31 32  1  0  0  0  0
M  END
>  <MODEL>
6

>  <REMARK>
 VINA RESULT:      -7.3      2.526      7.841
  Name = 
  3 active torsions:
  status: ('A' for Active; 'I' for Inactive)
    1  A    between atoms: C_1  and  C_10
    2  A    between atoms: C_10  and  N_24
    3  A    between atoms: C_16  and  C_32
                            x       y       z     vdW  Elec       q    Type
                         _______ _______ _______ _____ _____    ______ ____

>  <TORSDO>
F 3

$$$$
=
 OpenBabel11052421363D

 32 36  0  0  1  0  0  0  0  0999 V2000
  189.2770  177.9070  145.4250 C   0  0  0  0  0  3  0  0  0  0  0  0
  191.6570  173.8480  143.7290 C   0  0  1  0  0  3  0  0  0  0  0  0
  195.2770  176.1780  140.8710 C   0  0  0  0  0  3  0  0  0  0  0  0
  195.1370  175.0360  140.0850 C   0  0  0  0  0  3  0  0  0  0  0  0
  189.7760  175.1800  145.5530 C   0  0  0  0  0  0  0  0  0  0  0  0
  191.4810  175.3460  143.7380 C   0  0  0  0  0  0  0  0  0  0  0  0
  190.2260  177.3440  144.5730 C   0  0  0  0  0  3  0  0  0  0  0  0
  194.3050  176.4920  141.8200 C   0  0  0  0  0  3  0  0  0  0  0  0
  192.2130  176.1020  142.9720 N   0  0  0  0  0  0  0  0  0  0  0  0
  193.1920  175.6650  142.0140 C   0  0  0  0  0  0  0  0  0  0  0  0
  191.8500  173.6080  141.2640 C   0  0  0  0  0  0  0  0  0  0  0  0
  188.1920  175.0830  147.2330 O   0  0  0  0  0  0  0  0  0  0  0  0
  188.8280  175.7850  146.3980 C   0  0  0  0  0  0  0  0  0  0  0  0
  190.4810  175.9710  144.6320 C   0  0  0  0  0  0  0  0  0  0  0  0
  190.0510  173.7350  145.6430 C   0  0  0  0  0  3  0  0  0  0  0  0
  188.5990  177.1320  146.3150 N   0  0  0  0  0  0  0  0  0  0  0  0
  194.0230  174.2130  140.2460 C   0  0  0  0  0  3  0  0  0  0  0  0
  193.0370  174.5030  141.2040 C   0  0  0  0  0  0  0  0  0  0  0  0
  190.9140  173.1330  144.8250 C   0  0  0  0  0  3  0  0  0  0  0  0
  191.2280  173.3110  142.4100 C   0  0  0  0  0  3  0  0  0  0  0  0
  189.2280  173.2060  138.7900 C   0  0  0  0  0  0  0  0  0  0  0  0
  189.0830  171.7190  138.6340 C   0  0  0  0  0  2  0  0  0  0  0  0
  191.0380  171.4870  140.1640 C   0  0  1  0  0  3  0  0  0  0  0  0
  190.1270  169.6110  138.9930 O   0  0  0  0  0  1  0  0  0  0  0  0
  190.3900  170.9760  138.8850 C   0  0  1  0  0  3  0  0  0  0  0  0
  190.2100  173.7310  139.4640 N   0  0  0  0  0  0  0  0  0  0  0  0
  188.1810  174.0480  138.3220 N   0  0  0  0  0  1  0  0  0  0  0  0
  192.2210  170.7850  140.4060 O   0  0  0  0  0  1  0  0  0  0  0  0
  191.3500  172.9770  139.9940 C   0  0  1  0  0  3  0  0  0  0  0  0
  187.6120  177.7770  147.1720 C   0  0  0  0  0  2  0  0  0  0  0  0
  186.4190  178.2270  146.3480 C   0  0  0  0  0  2  0  0  0  0  0  0
  185.4840  177.0550  146.1350 C   0  0  0  0  0  1  0  0  0  0  0  0
  1 16  1  0  0  0  0
  2 20  1  6  0  0  0
  2  6  1  0  0  0  0
  2 19  1  0  0  0  0
  3  8  1  0  0  0  0
  4 17  1  0  0  0  0
  4  3  2  0  0  0  0
  5 15  1  0  0  0  0
  5 13  1  0  0  0  0
  6 14  1  0  0  0  0
  7 14  1  0  0  0  0
  7  1  2  0  0  0  0
  8 10  2  0  0  0  0
  9  6  2  0  0  0  0
 10  9  1  0  0  0  0
 11 20  2  0  0  0  0
 13 12  2  0  0  0  0
 14  5  2  0  0  0  0
 16 13  1  0  0  0  0
 16 30  1  0  0  0  0
 17 18  2  0  0  0  0
 18 11  1  0  0  0  0
 18 10  1  0  0  0  0
 19 15  2  0  0  0  0
 21 26  2  0  0  0  0
 22 21  1  0  0  0  0
 22 25  1  0  0  0  0
 23 28  1  6  0  0  0
 25 24  1  1  0  0  0
 25 23  1  0  0  0  0
 26 29  1  0  0  0  0
 27 21  1  0  0  0  0
 29 23  1  0  0  0  0
 29 11  1  1  0  0  0
 31 30  1  0  0  0  0
 32 31  1  0  0  0  0
M  END
>  <MODEL>
7

>  <REMARK>
 VINA RESULT:      -7.0      3.948      7.313
  Name = 
  3 active torsions:
  status: ('A' for Active; 'I' for Inactive)
    1  A    between atoms: C_1  and  C_10
    2  A    between atoms: C_10  and  N_24
    3  A    between atoms: C_16  and  C_32
                            x       y       z     vdW  Elec       q    Type
                         _______ _______ _______ _____ _____    ______ ____

>  <TORSDO>
F 3

$$$$
=
 OpenBabel11052421363D

 32 36  0  0  1  0  0  0  0  0999 V2000
  187.7970  176.3530  146.1520 C   0  0  0  0  0  3  0  0  0  0  0  0
  190.6340  174.4670  142.4890 C   0  0  1  0  0  3  0  0  0  0  0  0
  194.1910  172.0820  145.3790 C   0  0  0  0  0  3  0  0  0  0  0  0
  195.0220  172.4160  144.3130 C   0  0  0  0  0  3  0  0  0  0  0  0
  188.1600  175.7140  143.4760 C   0  0  0  0  0  0  0  0  0  0  0  0
  190.3890  174.6990  143.9590 C   0  0  0  0  0  0  0  0  0  0  0  0
  188.9660  175.7060  145.7550 C   0  0  0  0  0  3  0  0  0  0  0  0
  192.9520  172.7070  145.5170 C   0  0  0  0  0  3  0  0  0  0  0  0
  191.2520  174.2910  144.8440 N   0  0  0  0  0  0  0  0  0  0  0  0
  192.5150  173.6570  144.5860 C   0  0  0  0  0  0  0  0  0  0  0  0
  193.0420  175.0730  142.5100 C   0  0  0  0  0  0  0  0  0  0  0  0
  186.0900  176.6620  143.0830 O   0  0  0  0  0  0  0  0  0  0  0  0
  186.9930  176.3630  143.9140 C   0  0  0  0  0  0  0  0  0  0  0  0
  189.1560  175.3830  144.4090 C   0  0  0  0  0  0  0  0  0  0  0  0
  188.3360  175.3580  142.0570 C   0  0  0  0  0  3  0  0  0  0  0  0
  186.8370  176.6690  145.2400 N   0  0  0  0  0  0  0  0  0  0  0  0
  194.6170  173.3780  143.3880 C   0  0  0  0  0  3  0  0  0  0  0  0
  193.3680  174.0130  143.5010 C   0  0  0  0  0  0  0  0  0  0  0  0
  189.4520  174.7800  141.6100 C   0  0  0  0  0  3  0  0  0  0  0  0
  191.8020  175.2760  142.0520 C   0  0  0  0  0  3  0  0  0  0  0  0
  195.7860  175.5370  140.1830 C   0  0  0  0  0  0  0  0  0  0  0  0
  196.9300  176.0050  141.0390 C   0  0  0  0  0  2  0  0  0  0  0  0
  195.3250  176.0530  142.9470 C   0  0  1  0  0  3  0  0  0  0  0  0
  197.5320  176.9580  143.1340 O   0  0  0  0  0  1  0  0  0  0  0  0
  196.4620  176.7940  142.2560 C   0  0  1  0  0  3  0  0  0  0  0  0
  194.5750  175.4450  140.6490 N   0  0  0  0  0  0  0  0  0  0  0  0
  196.0670  175.0350  138.8820 N   0  0  0  0  0  1  0  0  0  0  0  0
  194.9180  176.7650  144.0770 O   0  0  0  0  0  1  0  0  0  0  0  0
  194.1540  175.9290  141.9680 C   0  0  1  0  0  3  0  0  0  0  0  0
  185.6400  177.3530  145.7140 C   0  0  0  0  0  2  0  0  0  0  0  0
  185.9410  178.8210  145.9590 C   0  0  0  0  0  2  0  0  0  0  0  0
  185.5750  179.6220  144.7280 C   0  0  0  0  0  1  0  0  0  0  0  0
  2 19  1  6  0  0  0
  2  6  1  0  0  0  0
  3  8  1  0  0  0  0
  4  3  2  0  0  0  0
  5 13  1  0  0  0  0
  5 14  2  0  0  0  0
  6 14  1  0  0  0  0
  6  9  2  0  0  0  0
  7  1  2  0  0  0  0
 10  9  1  0  0  0  0
 10  8  2  0  0  0  0
 11 18  1  0  0  0  0
 12 13  2  0  0  0  0
 13 16  1  0  0  0  0
 14  7  1  0  0  0  0
 15  5  1  0  0  0  0
 16 30  1  0  0  0  0
 16  1  1  0  0  0  0
 17 18  2  0  0  0  0
 17  4  1  0  0  0  0
 18 10  1  0  0  0  0
 19 15  2  0  0  0  0
 20  2  1  0  0  0  0
 20 11  2  0  0  0  0
 21 26  2  0  0  0  0
 21 22  1  0  0  0  0
 22 25  1  0  0  0  0
 23 28  1  1  0  0  0
 25 23  1  0  0  0  0
 25 24  1  1  0  0  0
 26 29  1  0  0  0  0
 27 21  1  0  0  0  0
 29 11  1  1  0  0  0
 29 23  1  0  0  0  0
 30 31  1  0  0  0  0
 32 31  1  0  0  0  0
M  END
>  <MODEL>
8

>  <REMARK>
 VINA RESULT:      -7.0      2.743      8.051
  Name = 
  3 active torsions:
  status: ('A' for Active; 'I' for Inactive)
    1  A    between atoms: C_1  and  C_10
    2  A    between atoms: C_10  and  N_24
    3  A    between atoms: C_16  and  C_32
                            x       y       z     vdW  Elec       q    Type
                         _______ _______ _______ _____ _____    ______ ____

>  <TORSDO>
F 3

$$$$
=
 OpenBabel11052421363D

 32 36  0  0  1  0  0  0  0  0999 V2000
  188.5460  174.4400  139.8550 C   0  0  0  0  0  3  0  0  0  0  0  0
  191.5630  172.5450  143.3670 C   0  0  0  0  0  0  0  0  0  0  0  0
  190.2000  175.5830  147.3180 C   0  0  0  0  0  3  0  0  0  0  0  0
  191.5320  175.4050  147.6810 C   0  0  0  0  0  3  0  0  0  0  0  0
  190.2450  172.4310  140.7410 C   0  0  0  0  0  0  0  0  0  0  0  0
  190.5460  173.5740  142.9400 C   0  0  0  0  0  0  0  0  0  0  0  0
  189.0930  174.5200  141.1350 C   0  0  0  0  0  3  0  0  0  0  0  0
  189.7840  175.2680  146.0250 C   0  0  0  0  0  3  0  0  0  0  0  0
  190.1760  174.5160  143.7590 N   0  0  0  0  0  0  0  0  0  0  0  0
  190.6830  174.7530  145.0830 C   0  0  0  0  0  0  0  0  0  0  0  0
  193.1040  174.1310  144.4970 C   0  0  0  0  0  0  0  0  0  0  0  0
  189.9280  171.4130  138.6920 O   0  0  0  0  0  0  0  0  0  0  0  0
  189.6720  172.3830  139.4580 C   0  0  0  0  0  0  0  0  0  0  0  0
  189.9500  173.5130  141.5870 C   0  0  2  0  0  3  0  0  0  0  0  0
  191.1270  171.3500  141.2120 C   0  0  0  0  0  3  0  0  0  0  0  0
  188.8370  173.3870  139.0440 N   0  0  0  0  0  0  0  0  0  0  0  0
  192.4490  174.9170  146.7510 C   0  0  0  0  0  3  0  0  0  0  0  0
  192.0500  174.5820  145.4460 C   0  0  0  0  0  0  0  0  0  0  0  0
  191.7150  171.3940  142.4090 C   0  0  0  0  0  3  0  0  0  0  0  0
  192.8810  173.2060  143.5570 C   0  0  0  0  0  3  0  0  0  0  0  0
  195.9170  175.8710  143.0080 C   0  0  0  0  0  0  0  0  0  0  0  0
  197.1100  175.0260  143.3570 C   0  0  0  0  0  2  0  0  0  0  0  0
  195.5650  173.6200  144.7200 C   0  0  1  0  0  3  0  0  0  0  0  0
  197.9380  173.3280  144.8050 O   0  0  0  0  0  1  0  0  0  0  0  0
  196.9330  174.2870  144.6790 C   0  0  1  0  0  3  0  0  0  0  0  0
  194.7470  175.6550  143.5350 N   0  0  0  0  0  0  0  0  0  0  0  0
  196.0390  176.8250  141.9610 N   0  0  0  0  0  1  0  0  0  0  0  0
  195.4180  172.9220  145.9200 O   0  0  0  0  0  1  0  0  0  0  0  0
  194.4890  174.7060  144.6220 C   0  0  1  0  0  3  0  0  0  0  0  0
  188.2430  173.3630  137.7130 C   0  0  0  0  0  2  0  0  0  0  0  0
  189.0660  174.2100  136.7580 C   0  0  0  0  0  2  0  0  0  0  0  0
  188.1930  175.2950  136.1660 C   0  0  0  0  0  1  0  0  0  0  0  0
  1  7  2  0  0  0  0
  2 20  1  0  0  0  0
  3  4  1  0  0  0  0
  5 15  2  0  0  0  0
  5 14  1  0  0  0  0
  6  2  1  0  0  0  0
  6  9  2  0  0  0  0
  8  3  2  0  0  0  0
  9 10  1  0  0  0  0
 10 18  2  0  0  0  0
 10  8  1  0  0  0  0
 11 18  1  0  0  0  0
 12 13  2  0  0  0  0
 13  5  1  0  0  0  0
 14  7  1  1  0  0  0
 14  6  1  0  0  0  0
 15 19  1  0  0  0  0
 16 13  1  0  0  0  0
 16  1  1  0  0  0  0
 17  4  2  0  0  0  0
 18 17  1  0  0  0  0
 19  2  2  0  0  0  0
 20 11  2  0  0  0  0
 21 22  1  0  0  0  0
 21 26  2  0  0  0  0
 22 25  1  0  0  0  0
 23 28  1  1  0  0  0
 25 23  1  0  0  0  0
 25 24  1  6  0  0  0
 26 29  1  0  0  0  0
 27 21  1  0  0  0  0
 29 11  1  6  0  0  0
 29 23  1  0  0  0  0
 30 16  1  0  0  0  0
 31 30  1  0  0  0  0
 32 31  1  0  0  0  0
M  END
>  <MODEL>
9

>  <REMARK>
 VINA RESULT:      -6.9      3.848      8.307
  Name = 
  3 active torsions:
  status: ('A' for Active; 'I' for Inactive)
    1  A    between atoms: C_1  and  C_10
    2  A    between atoms: C_10  and  N_24
    3  A    between atoms: C_16  and  C_32
                            x       y       z     vdW  Elec       q    Type
                         _______ _______ _______ _____ _____    ______ ____

>  <TORSDO>
F 3

$$$$
