=
 OpenBabel11052419273D

 55 60  0  0  1  0  0  0  0  0999 V2000
  193.5500  175.3820  143.7460 C   0  0  0  0  0  2  0  0  0  0  0  0
  188.0890  175.1250  143.8230 C   0  0  0  0  0  2  0  0  0  0  0  0
  187.6590  172.5020  142.3280 C   0  0  0  0  0  1  0  0  0  0  0  0
  191.5850  171.1820  141.2820 C   0  0  0  0  0  2  0  0  0  0  0  0
  192.1010  170.5700  139.9850 C   0  0  0  0  0  2  0  0  0  0  0  0
  193.2650  173.0830  140.9790 C   0  0  1  0  0  3  0  0  0  0  0  0
  193.7980  172.3750  139.7350 C   0  0  0  0  0  2  0  0  0  0  0  0
  189.9940  172.8950  143.1070 C   0  0  0  0  0  2  0  0  0  0  0  0
  193.5860  170.8690  139.8280 C   0  0  0  0  0  2  0  0  0  0  0  0
  191.7170  176.3750  142.5130 O   0  0  0  0  0  0  0  0  0  0  0  0
  191.7880  172.7080  141.2890 C   0  0  2  0  0  3  0  0  0  0  0  0
  191.0880  178.1140  144.0400 C   0  0  1  0  0  0  0  0  0  0  0  0
  192.7090  174.3700  144.5270 C   0  0  0  0  0  2  0  0  0  0  0  0
  192.2680  177.3790  144.6040 C   0  0  0  0  0  2  0  0  0  0  0  0
  193.6550  172.3610  143.1810 C   0  0  2  0  0  3  0  0  0  0  0  0
  187.7130  176.4730  143.9460 O   0  0  0  0  0  0  0  0  0  0  0  0
  194.2030  173.0110  142.0510 O   0  0  0  0  0  0  0  0  0  0  0  0
  188.5450  174.8470  142.3970 C   0  0  0  0  0  2  0  0  0  0  0  0
  188.8900  173.3760  142.1730 C   0  0  2  0  0  3  0  0  0  0  0  0
  190.6960  177.2970  142.8180 C   0  0  0  0  0  2  0  0  0  0  0  0
  188.0640  176.9310  145.2340 C   0  0  2  0  0  3  0  0  0  0  0  0
  192.7850  176.6500  143.3860 C   0  0  1  0  0  3  0  0  0  0  0  0
  191.3760  173.3410  142.6330 C   0  0  2  0  0  3  0  0  0  0  0  0
  192.4130  173.0880  143.7370 C   0  0  2  0  0  3  0  0  0  0  0  0
  189.5740  177.0330  145.4360 C   0  0  0  0  0  2  0  0  0  0  0  0
  190.0240  178.2800  144.9630 O   0  0  0  0  0  0  0  0  0  0  0  0
  191.5090  179.3750  143.6130 O   0  0  0  0  0  1  0  0  0  0  0  0
  194.0300  171.2930  145.4180 C   0  0  0  0  0  2  0  0  0  0  0  0
  195.6410  169.3360  145.3380 C   0  0  2  0  0  3  0  0  0  0  0  0
  195.8780  171.1970  143.6310 C   0  0  0  0  0  2  0  0  0  0  0  0
  196.5860  170.3700  144.7000 C   0  0  0  0  0  2  0  0  0  0  0  0
  194.1650  169.7750  145.3240 C   0  0  0  0  0  2  0  0  0  0  0  0
  194.7060  171.9940  144.2300 C   0  0  1  0  0  3  0  0  0  0  0  0
  196.0850  168.9680  146.7240 C   0  0  0  0  0  0  0  0  0  0  0  0
  195.2300  168.7740  147.6280 O   0  0  0  0  0  1  0  0  0  0  0  0
  197.4330  168.7770  147.0150 O   0  0  0  0  0  0  0  0  0  0  0  0
  187.3490  176.1800  146.3640 C   0  0  0  0  0  2  0  0  0  0  0  0
  184.0770  177.9220  146.1690 O   0  0  0  0  0  0  0  0  0  0  0  0
  187.1460  178.6380  148.3570 O   0  0  0  0  0  0  0  0  0  0  0  0
  184.3430  178.9780  145.2600 C   0  0  1  0  0  3  0  0  0  0  0  0
  185.8250  179.3400  145.0740 C   0  0  0  0  0  2  0  0  0  0  0  0
  186.6140  178.4060  147.2410 C   0  0  0  0  0  0  0  0  0  0  0  0
  186.1870  176.9880  146.9280 C   0  0  1  0  0  3  0  0  0  0  0  0
  186.4570  179.4700  146.3400 O   0  0  0  0  0  0  0  0  0  0  0  0
  185.0060  176.8870  145.9620 C   0  0  0  0  0  2  0  0  0  0  0  0
  183.5630  178.8660  143.9460 C   0  0  0  0  0  2  0  0  0  0  0  0
  184.2730  178.0320  142.8840 C   0  0  0  0  0  2  0  0  0  0  0  0
  184.0040  178.5630  141.4830 C   0  0  1  0  0  3  0  0  0  0  0  0
  185.2610  178.4540  140.6180 C   0  0  0  0  0  3  0  0  0  0  0  0
  186.3720  178.1510  141.4060 O   0  0  0  0  0  1  0  0  0  0  0  0
  185.0930  177.4510  139.6650 O   0  0  0  0  0  1  0  0  0  0  0  0
  182.9400  177.8150  140.9090 O   0  0  0  0  0  0  0  0  0  0  0  0
  181.6330  178.3040  140.8570 C   0  0  0  0  0  0  0  0  0  0  0  0
  180.8310  177.9150  139.9660 O   0  0  0  0  0  0  0  0  0  0  0  0
  181.2220  179.2150  141.7710 F   0  0  0  0  0  0  0  0  0  0  0  0
  1 13  1  0  0  0  0
  2 16  1  0  0  0  0
  5  4  1  0  0  0  0
  6  7  1  6  0  0  0
  6 11  1  0  0  0  0
  6 17  1  0  0  0  0
  7  9  1  0  0  0  0
  9  5  1  0  0  0  0
 10 20  1  0  0  0  0
 10 22  1  0  0  0  0
 11  4  1  1  0  0  0
 11 23  1  0  0  0  0
 12 27  1  6  0  0  0
 12 14  1  0  0  0  0
 12 26  1  0  0  0  0
 15 17  1  6  0  0  0
 15 24  1  0  0  0  0
 15 33  1  0  0  0  0
 16 21  1  0  0  0  0
 18  2  1  0  0  0  0
 19  3  1  1  0  0  0
 19 18  1  0  0  0  0
 19  8  1  0  0  0  0
 20 12  1  0  0  0  0
 21 25  1  0  0  0  0
 21 37  1  1  0  0  0
 22  1  1  1  0  0  0
 22 14  1  0  0  0  0
 23  8  1  1  0  0  0
 23 24  1  0  0  0  0
 24 13  1  6  0  0  0
 26 25  1  0  0  0  0
 29 34  1  1  0  0  0
 30 31  1  0  0  0  0
 31 29  1  0  0  0  0
 32 29  1  0  0  0  0
 32 28  1  0  0  0  0
 33 30  1  6  0  0  0
 33 28  1  0  0  0  0
 34 36  2  0  0  0  0
 34 35  1  0  0  0  0
 40 46  1  6  0  0  0
 40 38  1  0  0  0  0
 41 40  1  0  0  0  0
 41 44  1  0  0  0  0
 42 39  2  0  0  0  0
 43 37  1  6  0  0  0
 43 42  1  0  0  0  0
 44 42  1  0  0  0  0
 45 38  1  0  0  0  0
 45 43  1  0  0  0  0
 47 46  1  0  0  0  0
 48 47  1  1  0  0  0
 49 50  1  0  0  0  0
 49 48  1  0  0  0  0
 51 49  1  0  0  0  0
 52 48  1  0  0  0  0
 53 52  1  0  0  0  0
 53 55  1  0  0  0  0
 54 53  2  0  0  0  0
M  END
>  <MODEL>
1

>  <REMARK>
 VINA RESULT:      -8.1      0.000      0.000
  Name = 
  10 active torsions:
  status: ('A' for Active; 'I' for Inactive)
    1  A    between atoms: C_1  and  O_53
    2  A    between atoms: C_3  and  C_12
    3  A    between atoms: C_3  and  C_38
    4  A    between atoms: C_8  and  C_22
    5  A    between atoms: C_8  and  C_43
    6  A    between atoms: C_10  and  C_32
    7  A    between atoms: C_11  and  C_29
    8  A    between atoms: C_29  and  C_38
    9  A    between atoms: C_29  and  O_53
   10  A    between atoms: C_33  and  C_52
                            x       y       z     vdW  Elec       q    Type
                         _______ _______ _______ _____ _____    ______ ____

>  <TORSDO>
F 10

$$$$
=
 OpenBabel11052419273D

 55 60  0  0  1  0  0  0  0  0999 V2000
  190.3540  173.5850  138.7940 C   0  0  0  0  0  2  0  0  0  0  0  0
  192.0550  171.7150  143.6430 C   0  0  0  0  0  2  0  0  0  0  0  0
  194.0690  169.6170  142.7270 C   0  0  0  0  0  1  0  0  0  0  0  0
  193.8940  169.7200  138.4600 C   0  0  0  0  0  2  0  0  0  0  0  0
  193.8940  168.5780  137.4500 C   0  0  0  0  0  2  0  0  0  0  0  0
  191.6250  170.4480  137.5380 C   0  0  1  0  0  3  0  0  0  0  0  0
  191.7250  169.3390  136.4930 C   0  0  0  0  0  2  0  0  0  0  0  0
  193.3470  171.2190  140.9590 C   0  0  0  0  0  2  0  0  0  0  0  0
  193.1800  169.0130  136.1780 C   0  0  0  0  0  2  0  0  0  0  0  0
  189.5370  172.0520  140.4810 O   0  0  0  0  0  0  0  0  0  0  0  0
  192.4550  170.1380  138.8160 C   0  0  2  0  0  3  0  0  0  0  0  0
  188.6160  173.6160  142.0480 C   0  0  1  0  0  0  0  0  0  0  0  0
  191.7480  173.7800  139.3930 C   0  0  0  0  0  2  0  0  0  0  0  0
  189.1550  174.3730  140.8700 C   0  0  0  0  0  2  0  0  0  0  0  0
  192.8890  172.4280  137.4920 C   0  0  2  0  0  3  0  0  0  0  0  0
  190.9680  172.0010  144.4870 O   0  0  0  0  0  0  0  0  0  0  0  0
  191.7890  171.7320  136.9410 O   0  0  0  0  0  0  0  0  0  0  0  0
  191.7250  170.5100  142.7720 C   0  0  0  0  0  2  0  0  0  0  0  0
  192.8990  170.0960  141.8860 C   0  0  2  0  0  3  0  0  0  0  0  0
  189.0670  172.1840  141.8040 C   0  0  0  0  0  2  0  0  0  0  0  0
  190.8760  173.3980  144.6590 C   0  0  2  0  0  3  0  0  0  0  0  0
  189.2880  173.2770  139.8380 C   0  0  1  0  0  3  0  0  0  0  0  0
  192.4240  171.3630  139.7510 C   0  0  2  0  0  3  0  0  0  0  0  0
  192.7370  172.6700  139.0090 C   0  0  2  0  0  3  0  0  0  0  0  0
  190.4500  174.1250  143.3860 C   0  0  0  0  0  2  0  0  0  0  0  0
  189.0450  174.1290  143.3000 O   0  0  0  0  0  0  0  0  0  0  0  0
  187.2210  173.6550  142.0040 O   0  0  0  0  0  1  0  0  0  0  0  0
  194.5140  174.3300  137.3190 C   0  0  0  0  0  2  0  0  0  0  0  0
  195.7820  174.3690  135.1240 C   0  0  2  0  0  3  0  0  0  0  0  0
  193.4590  173.3530  135.1860 C   0  0  0  0  0  2  0  0  0  0  0  0
  194.3700  174.3750  134.5130 C   0  0  0  0  0  2  0  0  0  0  0  0
  195.8010  173.9340  136.6010 C   0  0  0  0  0  2  0  0  0  0  0  0
  193.2840  173.6640  136.6820 C   0  0  1  0  0  3  0  0  0  0  0  0
  196.4670  175.6930  134.9400 C   0  0  0  0  0  0  0  0  0  0  0  0
  195.7890  176.7540  134.9150 O   0  0  0  0  0  1  0  0  0  0  0  0
  197.8540  175.7730  134.8550 O   0  0  0  0  0  0  0  0  0  0  0  0
  192.1120  174.0140  145.3260 C   0  0  0  0  0  2  0  0  0  0  0  0
  189.7170  176.0710  147.2790 O   0  0  0  0  0  0  0  0  0  0  0  0
  193.3290  176.8050  146.2120 O   0  0  0  0  0  0  0  0  0  0  0  0
  189.1400  176.9000  146.2840 C   0  0  1  0  0  3  0  0  0  0  0  0
  189.9450  177.0400  144.9830 C   0  0  0  0  0  2  0  0  0  0  0  0
  192.1540  176.4360  145.9560 C   0  0  0  0  0  0  0  0  0  0  0  0
  191.7280  175.0460  146.3790 C   0  0  1  0  0  3  0  0  0  0  0  0
  191.3050  177.3250  145.2800 O   0  0  0  0  0  0  0  0  0  0  0  0
  190.2340  174.9110  146.6740 C   0  0  0  0  0  2  0  0  0  0  0  0
  187.6450  176.6410  146.0630 C   0  0  0  0  0  2  0  0  0  0  0  0
  186.8250  177.9150  145.8820 C   0  0  0  0  0  2  0  0  0  0  0  0
  186.1010  177.9280  144.5430 C   0  0  1  0  0  3  0  0  0  0  0  0
  184.9300  178.9110  144.5770 C   0  0  0  0  0  3  0  0  0  0  0  0
  184.3760  178.9670  145.8560 O   0  0  0  0  0  1  0  0  0  0  0  0
  185.3720  180.1830  144.2170 O   0  0  0  0  0  1  0  0  0  0  0  0
  187.0280  178.2940  143.5290 O   0  0  0  0  0  0  0  0  0  0  0  0
  187.2510  177.4960  142.4040 C   0  0  0  0  0  0  0  0  0  0  0  0
  188.3140  177.5980  141.7370 O   0  0  0  0  0  0  0  0  0  0  0  0
  186.3060  176.6030  142.0200 F   0  0  0  0  0  0  0  0  0  0  0  0
  1 13  1  0  0  0  0
  2 16  1  0  0  0  0
  5  4  1  0  0  0  0
  6  7  1  6  0  0  0
  6 11  1  0  0  0  0
  8 19  1  0  0  0  0
  9  7  1  0  0  0  0
  9  5  1  0  0  0  0
 10 20  1  0  0  0  0
 11  4  1  6  0  0  0
 11 23  1  0  0  0  0
 12 27  1  6  0  0  0
 12 26  1  0  0  0  0
 14 12  1  0  0  0  0
 15 17  1  6  0  0  0
 15 24  1  0  0  0  0
 16 21  1  0  0  0  0
 17  6  1  0  0  0  0
 18  2  1  0  0  0  0
 19  3  1  1  0  0  0
 19 18  1  0  0  0  0
 20 12  1  0  0  0  0
 21 37  1  6  0  0  0
 22  1  1  6  0  0  0
 22 10  1  0  0  0  0
 22 14  1  0  0  0  0
 23  8  1  1  0  0  0
 24 13  1  6  0  0  0
 24 23  1  0  0  0  0
 25 21  1  0  0  0  0
 26 25  1  0  0  0  0
 29 34  1  1  0  0  0
 29 32  1  0  0  0  0
 31 29  1  0  0  0  0
 31 30  1  0  0  0  0
 32 28  1  0  0  0  0
 33 30  1  6  0  0  0
 33 28  1  0  0  0  0
 33 15  1  0  0  0  0
 35 34  1  0  0  0  0
 36 34  2  0  0  0  0
 40 46  1  6  0  0  0
 40 38  1  0  0  0  0
 41 44  1  0  0  0  0
 41 40  1  0  0  0  0
 42 39  2  0  0  0  0
 42 43  1  0  0  0  0
 43 37  1  6  0  0  0
 43 45  1  0  0  0  0
 44 42  1  0  0  0  0
 45 38  1  0  0  0  0
 47 46  1  0  0  0  0
 48 49  1  0  0  0  0
 48 47  1  1  0  0  0
 49 50  1  0  0  0  0
 51 49  1  0  0  0  0
 52 48  1  0  0  0  0
 53 52  1  0  0  0  0
 54 53  2  0  0  0  0
 55 53  1  0  0  0  0
M  END
>  <MODEL>
2

>  <REMARK>
 VINA RESULT:      -7.6      3.330      6.695
  Name = 
  10 active torsions:
  status: ('A' for Active; 'I' for Inactive)
    1  A    between atoms: C_1  and  O_53
    2  A    between atoms: C_3  and  C_12
    3  A    between atoms: C_3  and  C_38
    4  A    between atoms: C_8  and  C_22
    5  A    between atoms: C_8  and  C_43
    6  A    between atoms: C_10  and  C_32
    7  A    between atoms: C_11  and  C_29
    8  A    between atoms: C_29  and  C_38
    9  A    between atoms: C_29  and  O_53
   10  A    between atoms: C_33  and  C_52
                            x       y       z     vdW  Elec       q    Type
                         _______ _______ _______ _____ _____    ______ ____

>  <TORSDO>
F 10

$$$$
=
 OpenBabel11052419273D

 55 60  0  0  1  0  0  0  0  0999 V2000
  195.7070  175.1610  141.4190 C   0  0  0  0  0  2  0  0  0  0  0  0
  193.2800  171.0210  138.7980 C   0  0  0  0  0  2  0  0  0  0  0  0
  193.0630  169.0050  141.0750 C   0  0  0  0  0  1  0  0  0  0  0  0
  194.8880  170.9320  144.4230 C   0  0  0  0  0  2  0  0  0  0  0  0
  195.8360  170.3740  145.4790 C   0  0  0  0  0  2  0  0  0  0  0  0
  196.6970  172.6180  143.7810 C   0  0  1  0  0  3  0  0  0  0  0  0
  197.5660  172.0740  144.9140 C   0  0  0  0  0  2  0  0  0  0  0  0
  193.5940  171.3340  141.7850 C   0  0  0  0  0  2  0  0  0  0  0  0
  196.7080  171.4940  146.0320 C   0  0  0  0  0  2  0  0  0  0  0  0
  196.3800  173.3820  139.9200 O   0  0  0  0  0  0  0  0  0  0  0  0
  195.6730  171.5690  143.2620 C   0  0  2  0  0  3  0  0  0  0  0  0
  195.7280  174.3420  137.8220 C   0  0  1  0  0  0  0  0  0  0  0  0
  194.2790  174.6630  141.6540 C   0  0  0  0  0  2  0  0  0  0  0  0
  195.4300  175.3250  138.9170 C   0  0  0  0  0  2  0  0  0  0  0  0
  194.7950  173.9590  144.1000 C   0  0  2  0  0  3  0  0  0  0  0  0
  193.6530  171.2350  137.4610 O   0  0  0  0  0  0  0  0  0  0  0  0
  196.2080  173.9210  144.0900 O   0  0  0  0  0  0  0  0  0  0  0  0
  194.4590  170.4500  139.5750 C   0  0  0  0  0  2  0  0  0  0  0  0
  194.0960  170.1150  141.0210 C   0  0  2  0  0  3  0  0  0  0  0  0
  196.1480  173.0820  138.5630 C   0  0  0  0  0  2  0  0  0  0  0  0
  192.9980  172.3900  136.9810 C   0  0  2  0  0  3  0  0  0  0  0  0
  196.2620  174.7770  140.0530 C   0  0  1  0  0  3  0  0  0  0  0  0
  194.7410  172.2380  142.2320 C   0  0  2  0  0  3  0  0  0  0  0  0
  194.1830  173.5780  142.7350 C   0  0  2  0  0  3  0  0  0  0  0  0
  193.5080  173.6730  137.6320 C   0  0  0  0  0  2  0  0  0  0  0  0
  194.6420  174.1300  136.9350 O   0  0  0  0  0  0  0  0  0  0  0  0
  196.8210  174.8090  137.0880 O   0  0  0  0  0  1  0  0  0  0  0  0
  192.7030  175.1490  144.8050 C   0  0  0  0  0  2  0  0  0  0  0  0
  192.6830  175.7700  147.2620 C   0  0  2  0  0  3  0  0  0  0  0  0
  194.9060  175.5900  146.0570 C   0  0  0  0  0  2  0  0  0  0  0  0
  194.0050  176.4750  146.9120 C   0  0  0  0  0  2  0  0  0  0  0  0
  192.2450  174.7430  146.2030 C   0  0  0  0  0  2  0  0  0  0  0  0
  194.2340  175.2420  144.7170 C   0  0  1  0  0  3  0  0  0  0  0  0
  191.5890  176.7610  147.5420 C   0  0  0  0  0  0  0  0  0  0  0  0
  190.6050  176.8490  146.7610 O   0  0  0  0  0  0  0  0  0  0  0  0
  191.6160  177.5490  148.6890 O   0  0  0  0  0  1  0  0  0  0  0  0
  191.4690  172.2710  136.9880 C   0  0  0  0  0  2  0  0  0  0  0  0
  189.8490  174.1090  139.7760 O   0  0  0  0  0  0  0  0  0  0  0  0
  189.3910  174.4440  135.9810 O   0  0  0  0  0  0  0  0  0  0  0  0
  188.6450  173.3830  139.9660 C   0  0  1  0  0  3  0  0  0  0  0  0
  188.2000  172.5090  138.7830 C   0  0  0  0  0  2  0  0  0  0  0  0
  189.4530  173.7530  137.0310 C   0  0  0  0  0  0  0  0  0  0  0  0
  190.8140  173.4840  137.6360 C   0  0  1  0  0  3  0  0  0  0  0  0
  188.2600  173.2560  137.5760 O   0  0  0  0  0  0  0  0  0  0  0  0
  190.7970  173.2800  139.1510 C   0  0  0  0  0  2  0  0  0  0  0  0
  188.5660  172.6760  141.3240 C   0  0  0  0  0  2  0  0  0  0  0  0
  188.1500  173.5960  142.4680 C   0  0  0  0  0  2  0  0  0  0  0  0
  189.3560  174.2550  143.1220 C   0  0  1  0  0  3  0  0  0  0  0  0
  189.1680  175.7710  143.1880 C   0  0  0  0  0  3  0  0  0  0  0  0
  188.5590  176.2380  142.0230 O   0  0  0  0  0  1  0  0  0  0  0  0
  188.3690  176.1010  144.2810 O   0  0  0  0  0  1  0  0  0  0  0  0
  189.5130  173.7170  144.4290 O   0  0  0  0  0  0  0  0  0  0  0  0
  189.9760  172.4170  144.6460 C   0  0  0  0  0  0  0  0  0  0  0  0
  191.0740  172.0310  144.1640 O   0  0  0  0  0  0  0  0  0  0  0  0
  189.2300  171.5550  145.3780 F   0  0  0  0  0  0  0  0  0  0  0  0
  1 13  1  0  0  0  0
  2 18  1  0  0  0  0
  4  5  1  0  0  0  0
  5  9  1  0  0  0  0
  6 17  1  0  0  0  0
  6  7  1  1  0  0  0
  7  9  1  0  0  0  0
 10 22  1  0  0  0  0
 11  6  1  0  0  0  0
 11  4  1  1  0  0  0
 12 27  1  6  0  0  0
 12 20  1  0  0  0  0
 12 14  1  0  0  0  0
 15 17  1  6  0  0  0
 15 33  1  0  0  0  0
 16  2  1  0  0  0  0
 18 19  1  0  0  0  0
 19  3  1  6  0  0  0
 19  8  1  0  0  0  0
 20 10  1  0  0  0  0
 21 37  1  1  0  0  0
 21 16  1  0  0  0  0
 21 25  1  0  0  0  0
 22 14  1  6  0  0  0
 22  1  1  0  0  0  0
 23  8  1  1  0  0  0
 23 24  1  0  0  0  0
 23 11  1  0  0  0  0
 24 13  1  6  0  0  0
 24 15  1  0  0  0  0
 26 25  1  0  0  0  0
 26 12  1  0  0  0  0
 28 32  1  0  0  0  0
 29 34  1  6  0  0  0
 30 31  1  0  0  0  0
 31 29  1  0  0  0  0
 32 29  1  0  0  0  0
 33 28  1  1  0  0  0
 33 30  1  0  0  0  0
 34 36  1  0  0  0  0
 35 34  2  0  0  0  0
 38 40  1  0  0  0  0
 39 42  2  0  0  0  0
 40 46  1  1  0  0  0
 41 40  1  0  0  0  0
 42 44  1  0  0  0  0
 42 43  1  0  0  0  0
 43 37  1  6  0  0  0
 43 45  1  0  0  0  0
 44 41  1  0  0  0  0
 45 38  1  0  0  0  0
 46 47  1  0  0  0  0
 48 47  1  1  0  0  0
 48 49  1  0  0  0  0
 48 52  1  0  0  0  0
 49 51  1  0  0  0  0
 50 49  1  0  0  0  0
 52 53  1  0  0  0  0
 53 55  1  0  0  0  0
 54 53  2  0  0  0  0
M  END
>  <MODEL>
3

>  <REMARK>
 VINA RESULT:      -7.5      4.046      7.894
  Name = 
  10 active torsions:
  status: ('A' for Active; 'I' for Inactive)
    1  A    between atoms: C_1  and  O_53
    2  A    between atoms: C_3  and  C_12
    3  A    between atoms: C_3  and  C_38
    4  A    between atoms: C_8  and  C_22
    5  A    between atoms: C_8  and  C_43
    6  A    between atoms: C_10  and  C_32
    7  A    between atoms: C_11  and  C_29
    8  A    between atoms: C_29  and  C_38
    9  A    between atoms: C_29  and  O_53
   10  A    between atoms: C_33  and  C_52
                            x       y       z     vdW  Elec       q    Type
                         _______ _______ _______ _____ _____    ______ ____

>  <TORSDO>
F 10

$$$$
=
 OpenBabel11052419273D

 55 60  0  0  1  0  0  0  0  0999 V2000
  194.0960  170.5120  141.4480 C   0  0  0  0  0  2  0  0  0  0  0  0
  195.2190  175.2110  144.0090 C   0  0  0  0  0  2  0  0  0  0  0  0
  196.4620  176.7850  141.7130 C   0  0  0  0  0  1  0  0  0  0  0  0
  196.4420  174.0870  138.3990 C   0  0  0  0  0  2  0  0  0  0  0  0
  197.5110  173.8180  137.3470 C   0  0  0  0  0  2  0  0  0  0  0  0
  196.5750  171.6260  139.0730 C   0  0  1  0  0  3  0  0  0  0  0  0
  197.5790  171.4020  137.9430 C   0  0  0  0  0  2  0  0  0  0  0  0
  195.2290  174.7290  141.0280 C   0  0  0  0  0  2  0  0  0  0  0  0
  197.3640  172.4000  136.8120 C   0  0  0  0  0  2  0  0  0  0  0  0
  195.8150  171.3450  142.9370 O   0  0  0  0  0  0  0  0  0  0  0  0
  196.5640  173.0990  139.5730 C   0  0  2  0  0  3  0  0  0  0  0  0
  194.6780  171.1330  145.0380 C   0  0  1  0  0  0  0  0  0  0  0  0
  193.4140  171.8580  141.1960 C   0  0  0  0  0  2  0  0  0  0  0  0
  193.7820  170.6180  143.9490 C   0  0  0  0  0  2  0  0  0  0  0  0
  194.2740  171.9760  138.7490 C   0  0  2  0  0  3  0  0  0  0  0  0
  195.3380  174.8150  145.3520 O   0  0  0  0  0  0  0  0  0  0  0  0
  195.3190  171.0230  138.7710 O   0  0  0  0  0  0  0  0  0  0  0  0
  196.4650  174.7950  143.2390 C   0  0  0  0  0  2  0  0  0  0  0  0
  196.4360  175.2690  141.7870 C   0  0  2  0  0  3  0  0  0  0  0  0
  195.8550  171.7400  144.2900 C   0  0  0  0  0  2  0  0  0  0  0  0
  194.0660  174.4430  145.8360 C   0  0  2  0  0  3  0  0  0  0  0  0
  194.7620  170.4210  142.8150 C   0  0  1  0  0  3  0  0  0  0  0  0
  195.4280  173.2760  140.6000 C   0  0  2  0  0  3  0  0  0  0  0  0
  194.0980  172.6920  140.1040 C   0  0  2  0  0  3  0  0  0  0  0  0
  193.5430  173.1570  145.2010 C   0  0  0  0  0  2  0  0  0  0  0  0
  194.0420  172.0510  145.9130 O   0  0  0  0  0  0  0  0  0  0  0  0
  195.1410  170.0480  145.7860 O   0  0  0  0  0  1  0  0  0  0  0  0
  191.9570  172.5700  137.9980 C   0  0  0  0  0  2  0  0  0  0  0  0
  191.5310  172.0510  135.5530 C   0  0  2  0  0  3  0  0  0  0  0  0
  193.2300  170.6650  136.8270 C   0  0  0  0  0  2  0  0  0  0  0  0
  191.9750  170.6350  135.9600 C   0  0  0  0  0  2  0  0  0  0  0  0
  191.9300  173.1290  136.5780 C   0  0  0  0  0  2  0  0  0  0  0  0
  192.9810  171.4330  138.1380 C   0  0  1  0  0  3  0  0  0  0  0  0
  190.0590  172.1020  135.2570 C   0  0  0  0  0  0  0  0  0  0  0  0
  189.3100  171.1630  135.6330 O   0  0  0  0  0  1  0  0  0  0  0  0
  189.4970  173.2060  134.6220 O   0  0  0  0  0  0  0  0  0  0  0  0
  193.0470  175.5900  145.8140 C   0  0  0  0  0  2  0  0  0  0  0  0
  189.4230  175.3510  145.0450 O   0  0  0  0  0  0  0  0  0  0  0  0
  191.2780  175.0570  148.3910 O   0  0  0  0  0  0  0  0  0  0  0  0
  188.9680  176.6720  145.2890 C   0  0  1  0  0  3  0  0  0  0  0  0
  189.8770  177.5370  146.1770 C   0  0  0  0  0  2  0  0  0  0  0  0
  191.0390  175.6500  147.3070 C   0  0  0  0  0  0  0  0  0  0  0  0
  191.6270  175.0830  146.0320 C   0  0  1  0  0  3  0  0  0  0  0  0
  190.2550  176.8130  147.3390 O   0  0  0  0  0  0  0  0  0  0  0  0
  190.8040  175.3780  144.7780 C   0  0  0  0  0  2  0  0  0  0  0  0
  188.4660  177.3890  144.0310 C   0  0  0  0  0  2  0  0  0  0  0  0
  186.9500  177.3500  143.8700 C   0  0  0  0  0  2  0  0  0  0  0  0
  186.2750  178.4640  144.6580 C   0  0  1  0  0  3  0  0  0  0  0  0
  185.3640  179.2890  143.7470 C   0  0  0  0  0  3  0  0  0  0  0  0
  185.2180  178.6650  142.5080 O   0  0  0  0  0  1  0  0  0  0  0  0
  184.1080  179.4270  144.3360 O   0  0  0  0  0  1  0  0  0  0  0  0
  185.5240  177.8820  145.7150 O   0  0  0  0  0  0  0  0  0  0  0  0
  185.9640  177.9120  147.0410 C   0  0  0  0  0  0  0  0  0  0  0  0
  186.1600  179.0070  147.6340 O   0  0  0  0  0  0  0  0  0  0  0  0
  186.1890  176.7490  147.6990 F   0  0  0  0  0  0  0  0  0  0  0  0
  2 16  1  0  0  0  0
  5  4  1  0  0  0  0
  6  7  1  6  0  0  0
  6 11  1  0  0  0  0
  8 19  1  0  0  0  0
  9  5  1  0  0  0  0
  9  7  1  0  0  0  0
 10 20  1  0  0  0  0
 11  4  1  6  0  0  0
 11 23  1  0  0  0  0
 12 27  1  1  0  0  0
 12 26  1  0  0  0  0
 13  1  1  0  0  0  0
 14 12  1  0  0  0  0
 15 17  1  1  0  0  0
 15 24  1  0  0  0  0
 16 21  1  0  0  0  0
 17  6  1  0  0  0  0
 18  2  1  0  0  0  0
 19  3  1  1  0  0  0
 19 18  1  0  0  0  0
 20 12  1  0  0  0  0
 21 37  1  6  0  0  0
 22  1  1  6  0  0  0
 22 10  1  0  0  0  0
 22 14  1  0  0  0  0
 23  8  1  6  0  0  0
 24 23  1  0  0  0  0
 24 13  1  1  0  0  0
 25 21  1  0  0  0  0
 25 26  1  0  0  0  0
 28 33  1  0  0  0  0
 29 34  1  1  0  0  0
 29 31  1  0  0  0  0
 29 32  1  0  0  0  0
 31 30  1  0  0  0  0
 32 28  1  0  0  0  0
 33 30  1  6  0  0  0
 33 15  1  0  0  0  0
 34 35  1  0  0  0  0
 36 34  2  0  0  0  0
 38 40  1  0  0  0  0
 40 46  1  6  0  0  0
 40 41  1  0  0  0  0
 41 44  1  0  0  0  0
 42 44  1  0  0  0  0
 42 39  2  0  0  0  0
 43 37  1  6  0  0  0
 43 42  1  0  0  0  0
 45 38  1  0  0  0  0
 45 43  1  0  0  0  0
 47 46  1  0  0  0  0
 48 47  1  6  0  0  0
 48 52  1  0  0  0  0
 49 51  1  0  0  0  0
 49 48  1  0  0  0  0
 50 49  1  0  0  0  0
 52 53  1  0  0  0  0
 53 54  2  0  0  0  0
 53 55  1  0  0  0  0
M  END
>  <MODEL>
4

>  <REMARK>
 VINA RESULT:      -7.3      3.283      7.156
  Name = 
  10 active torsions:
  status: ('A' for Active; 'I' for Inactive)
    1  A    between atoms: C_1  and  O_53
    2  A    between atoms: C_3  and  C_12
    3  A    between atoms: C_3  and  C_38
    4  A    between atoms: C_8  and  C_22
    5  A    between atoms: C_8  and  C_43
    6  A    between atoms: C_10  and  C_32
    7  A    between atoms: C_11  and  C_29
    8  A    between atoms: C_29  and  C_38
    9  A    between atoms: C_29  and  O_53
   10  A    between atoms: C_33  and  C_52
                            x       y       z     vdW  Elec       q    Type
                         _______ _______ _______ _____ _____    ______ ____

>  <TORSDO>
F 10

$$$$
=
 OpenBabel11052419273D

 55 60  0  0  1  0  0  0  0  0999 V2000
  194.4070  172.9840  144.2520 C   0  0  0  0  0  2  0  0  0  0  0  0
  189.3070  174.9190  143.8840 C   0  0  0  0  0  2  0  0  0  0  0  0
  188.2320  173.1630  141.6350 C   0  0  0  0  0  1  0  0  0  0  0  0
  191.5320  170.6990  140.4980 C   0  0  0  0  0  2  0  0  0  0  0  0
  192.0160  170.2850  139.1130 C   0  0  0  0  0  2  0  0  0  0  0  0
  193.8120  171.7790  140.9030 C   0  0  1  0  0  3  0  0  0  0  0  0
  194.2670  171.2600  139.5400 C   0  0  0  0  0  2  0  0  0  0  0  0
  190.3690  172.3770  142.6490 C   0  0  0  0  0  2  0  0  0  0  0  0
  193.5110  169.9950  139.1540 C   0  0  0  0  0  2  0  0  0  0  0  0
  193.3140  174.9050  143.2630 O   0  0  0  0  0  0  0  0  0  0  0  0
  192.2700  171.9600  140.9850 C   0  0  2  0  0  3  0  0  0  0  0  0
  193.0930  176.2980  145.2020 C   0  0  1  0  0  0  0  0  0  0  0  0
  193.1310  172.2290  144.6300 C   0  0  0  0  0  2  0  0  0  0  0  0
  193.8040  175.0350  145.5930 C   0  0  0  0  0  2  0  0  0  0  0  0
  193.5100  170.4260  142.8000 C   0  0  2  0  0  3  0  0  0  0  0  0
  189.4300  176.2250  144.3890 O   0  0  0  0  0  0  0  0  0  0  0  0
  194.4500  171.0680  141.9610 O   0  0  0  0  0  0  0  0  0  0  0  0
  189.8810  174.8560  142.4760 C   0  0  0  0  0  2  0  0  0  0  0  0
  189.7030  173.4800  141.8370 C   0  0  2  0  0  3  0  0  0  0  0  0
  192.6590  176.0470  143.7660 C   0  0  0  0  0  2  0  0  0  0  0  0
  189.6840  176.1590  145.7750 C   0  0  2  0  0  3  0  0  0  0  0  0
  194.2330  174.4970  144.2470 C   0  0  1  0  0  3  0  0  0  0  0  0
  191.8800  172.3380  142.4270 C   0  0  2  0  0  3  0  0  0  0  0  0
  192.5370  171.4200  143.4680 C   0  0  2  0  0  3  0  0  0  0  0  0
  191.0650  175.5940  146.0980 C   0  0  0  0  0  2  0  0  0  0  0  0
  192.0140  176.6330  146.0600 O   0  0  0  0  0  0  0  0  0  0  0  0
  194.0130  177.3490  145.2100 O   0  0  0  0  0  1  0  0  0  0  0  0
  195.6780  169.5610  143.7150 C   0  0  0  0  0  2  0  0  0  0  0  0
  195.8480  169.7480  146.2370 C   0  0  2  0  0  3  0  0  0  0  0  0
  193.5600  169.4950  145.1730 C   0  0  0  0  0  2  0  0  0  0  0  0
  194.5360  168.9430  146.2070 C   0  0  0  0  0  2  0  0  0  0  0  0
  196.1920  170.3970  144.8840 C   0  0  0  0  0  2  0  0  0  0  0  0
  194.1490  169.4150  143.7540 C   0  0  1  0  0  3  0  0  0  0  0  0
  196.9910  168.9170  146.7470 C   0  0  0  0  0  0  0  0  0  0  0  0
  197.9410  168.6150  145.9780 O   0  0  0  0  0  0  0  0  0  0  0  0
  197.0460  168.5220  148.0810 O   0  0  0  0  0  1  0  0  0  0  0  0
  188.5540  175.4950  146.5720 C   0  0  0  0  0  2  0  0  0  0  0  0
  185.5190  177.5830  147.0250 O   0  0  0  0  0  0  0  0  0  0  0  0
  189.1650  178.2540  148.0120 O   0  0  0  0  0  0  0  0  0  0  0  0
  185.5550  178.4320  145.8900 C   0  0  1  0  0  3  0  0  0  0  0  0
  186.9230  178.5670  145.2020 C   0  0  0  0  0  2  0  0  0  0  0  0
  188.2920  177.9100  147.1740 C   0  0  0  0  0  0  0  0  0  0  0  0
  187.6910  176.5260  147.2880 C   0  0  1  0  0  3  0  0  0  0  0  0
  187.9320  178.8220  146.1700 O   0  0  0  0  0  0  0  0  0  0  0  0
  186.2600  176.4180  146.7580 C   0  0  0  0  0  2  0  0  0  0  0  0
  184.3930  178.2040  144.9180 C   0  0  0  0  0  2  0  0  0  0  0  0
  184.4990  179.0250  143.6360 C   0  0  0  0  0  2  0  0  0  0  0  0
  184.4030  178.1440  142.3980 C   0  0  1  0  0  3  0  0  0  0  0  0
  183.2970  178.6460  141.4680 C   0  0  0  0  0  3  0  0  0  0  0  0
  183.6790  178.5040  140.1340 O   0  0  0  0  0  1  0  0  0  0  0  0
  182.1300  177.9150  141.6860 O   0  0  0  0  0  1  0  0  0  0  0  0
  185.6590  178.1610  141.7310 O   0  0  0  0  0  0  0  0  0  0  0  0
  186.6820  177.2670  142.0540 C   0  0  0  0  0  0  0  0  0  0  0  0
  187.8790  177.5140  141.7480 O   0  0  0  0  0  0  0  0  0  0  0  0
  186.3840  176.1140  142.7000 F   0  0  0  0  0  0  0  0  0  0  0  0
  1 13  1  0  0  0  0
  2 16  1  0  0  0  0
  5  9  1  0  0  0  0
  5  4  1  0  0  0  0
  6  7  1  6  0  0  0
  6 11  1  0  0  0  0
  6 17  1  0  0  0  0
  9  7  1  0  0  0  0
 10 20  1  0  0  0  0
 10 22  1  0  0  0  0
 11  4  1  1  0  0  0
 11 23  1  0  0  0  0
 12 27  1  1  0  0  0
 12 14  1  0  0  0  0
 12 26  1  0  0  0  0
 15 17  1  1  0  0  0
 15 24  1  0  0  0  0
 15 33  1  0  0  0  0
 16 21  1  0  0  0  0
 18  2  1  0  0  0  0
 19  3  1  1  0  0  0
 19 18  1  0  0  0  0
 19  8  1  0  0  0  0
 20 12  1  0  0  0  0
 21 25  1  0  0  0  0
 21 37  1  1  0  0  0
 22  1  1  1  0  0  0
 22 14  1  0  0  0  0
 23  8  1  6  0  0  0
 23 24  1  0  0  0  0
 24 13  1  1  0  0  0
 26 25  1  0  0  0  0
 28 32  1  0  0  0  0
 29 34  1  6  0  0  0
 30 31  1  0  0  0  0
 31 29  1  0  0  0  0
 32 29  1  0  0  0  0
 33 28  1  1  0  0  0
 33 30  1  0  0  0  0
 34 36  1  0  0  0  0
 35 34  2  0  0  0  0
 40 46  1  6  0  0  0
 40 38  1  0  0  0  0
 41 40  1  0  0  0  0
 41 44  1  0  0  0  0
 42 43  1  0  0  0  0
 42 39  2  0  0  0  0
 43 37  1  6  0  0  0
 44 42  1  0  0  0  0
 45 38  1  0  0  0  0
 45 43  1  0  0  0  0
 47 46  1  0  0  0  0
 48 47  1  1  0  0  0
 49 51  1  0  0  0  0
 49 48  1  0  0  0  0
 50 49  1  0  0  0  0
 52 53  1  0  0  0  0
 52 48  1  0  0  0  0
 53 55  1  0  0  0  0
 54 53  2  0  0  0  0
M  END
>  <MODEL>
5

>  <REMARK>
 VINA RESULT:      -7.0      1.706      2.487
  Name = 
  10 active torsions:
  status: ('A' for Active; 'I' for Inactive)
    1  A    between atoms: C_1  and  O_53
    2  A    between atoms: C_3  and  C_12
    3  A    between atoms: C_3  and  C_38
    4  A    between atoms: C_8  and  C_22
    5  A    between atoms: C_8  and  C_43
    6  A    between atoms: C_10  and  C_32
    7  A    between atoms: C_11  and  C_29
    8  A    between atoms: C_29  and  C_38
    9  A    between atoms: C_29  and  O_53
   10  A    between atoms: C_33  and  C_52
                            x       y       z     vdW  Elec       q    Type
                         _______ _______ _______ _____ _____    ______ ____

>  <TORSDO>
F 10

$$$$
=
 OpenBabel11052419273D

 55 60  0  0  1  0  0  0  0  0999 V2000
  194.1300  170.5430  141.4100 C   0  0  0  0  0  2  0  0  0  0  0  0
  195.0990  175.3030  143.9200 C   0  0  0  0  0  2  0  0  0  0  0  0
  196.4430  176.8360  141.6530 C   0  0  0  0  0  1  0  0  0  0  0  0
  196.6000  174.0680  138.4020 C   0  0  0  0  0  2  0  0  0  0  0  0
  197.7210  173.7840  137.4090 C   0  0  0  0  0  2  0  0  0  0  0  0
  196.7150  171.6230  139.1340 C   0  0  1  0  0  3  0  0  0  0  0  0
  197.7740  171.3810  138.0600 C   0  0  0  0  0  2  0  0  0  0  0  0
  195.2570  174.7580  140.9550 C   0  0  0  0  0  2  0  0  0  0  0  0
  197.6080  172.3530  136.8990 C   0  0  0  0  0  2  0  0  0  0  0  0
  195.7690  171.4200  142.9620 O   0  0  0  0  0  0  0  0  0  0  0  0
  196.6710  173.1060  139.6020 C   0  0  2  0  0  3  0  0  0  0  0  0
  194.5320  171.2440  145.0100 C   0  0  1  0  0  0  0  0  0  0  0  0
  193.4520  171.8780  141.0960 C   0  0  0  0  0  2  0  0  0  0  0  0
  193.6940  170.7000  143.8900 C   0  0  0  0  0  2  0  0  0  0  0  0
  194.4310  171.9490  138.6910 C   0  0  2  0  0  3  0  0  0  0  0  0
  195.1550  174.9360  145.2750 O   0  0  0  0  0  0  0  0  0  0  0  0
  195.4790  171.0050  138.7850 O   0  0  0  0  0  0  0  0  0  0  0  0
  196.3830  174.8790  143.2200 C   0  0  0  0  0  2  0  0  0  0  0  0
  196.4220  175.3220  141.7590 C   0  0  2  0  0  3  0  0  0  0  0  0
  195.7410  171.8440  144.3070 C   0  0  0  0  0  2  0  0  0  0  0  0
  193.8620  174.5670  145.7050 C   0  0  2  0  0  3  0  0  0  0  0  0
  194.7280  170.4860  142.8100 C   0  0  1  0  0  3  0  0  0  0  0  0
  195.4860  173.2970  140.5680 C   0  0  2  0  0  3  0  0  0  0  0  0
  194.1840  172.6940  140.0200 C   0  0  2  0  0  3  0  0  0  0  0  0
  193.3790  173.2640  145.0730 C   0  0  0  0  0  2  0  0  0  0  0  0
  193.8490  172.1760  145.8330 O   0  0  0  0  0  0  0  0  0  0  0  0
  194.9640  170.1790  145.8030 O   0  0  0  0  0  1  0  0  0  0  0  0
  191.9680  172.2810  138.3580 C   0  0  0  0  0  2  0  0  0  0  0  0
  191.3050  172.4930  135.9200 C   0  0  2  0  0  3  0  0  0  0  0  0
  193.3620  171.1380  136.5230 C   0  0  0  0  0  2  0  0  0  0  0  0
  192.0240  171.1380  135.7910 C   0  0  0  0  0  2  0  0  0  0  0  0
  191.6580  173.2460  137.2160 C   0  0  0  0  0  2  0  0  0  0  0  0
  193.1720  171.3850  138.0300 C   0  0  1  0  0  3  0  0  0  0  0  0
  189.8190  172.3430  135.7680 C   0  0  0  0  0  0  0  0  0  0  0  0
  189.3510  171.5380  134.9210 O   0  0  0  0  0  0  0  0  0  0  0  0
  188.9430  173.0410  136.5950 O   0  0  0  0  0  1  0  0  0  0  0  0
  192.8390  175.7050  145.6090 C   0  0  0  0  0  2  0  0  0  0  0  0
  189.1790  175.4770  145.0370 O   0  0  0  0  0  0  0  0  0  0  0  0
  191.2020  175.2740  148.2900 O   0  0  0  0  0  0  0  0  0  0  0  0
  188.7480  176.8100  145.2600 C   0  0  1  0  0  3  0  0  0  0  0  0
  189.7090  177.6940  146.0710 C   0  0  0  0  0  2  0  0  0  0  0  0
  190.9130  175.8340  147.2010 C   0  0  0  0  0  0  0  0  0  0  0  0
  191.4290  175.2200  145.9170 C   0  0  1  0  0  3  0  0  0  0  0  0
  190.1410  177.0050  147.2350 O   0  0  0  0  0  0  0  0  0  0  0  0
  190.5440  175.4820  144.6980 C   0  0  0  0  0  2  0  0  0  0  0  0
  188.1870  177.4900  144.0060 C   0  0  0  0  0  2  0  0  0  0  0  0
  186.8900  176.8660  143.5010 C   0  0  0  0  0  2  0  0  0  0  0  0
  187.0100  176.4250  142.0490 C   0  0  1  0  0  3  0  0  0  0  0  0
  186.7260  177.5970  141.1080 C   0  0  0  0  0  3  0  0  0  0  0  0
  186.7170  177.1670  139.7810 O   0  0  0  0  0  1  0  0  0  0  0  0
  185.4870  178.1570  141.4130 O   0  0  0  0  0  1  0  0  0  0  0  0
  188.3230  175.9230  141.8340 O   0  0  0  0  0  0  0  0  0  0  0  0
  188.5670  174.5740  141.5630 C   0  0  0  0  0  0  0  0  0  0  0  0
  189.6640  174.2000  141.0700 O   0  0  0  0  0  0  0  0  0  0  0  0
  187.6070  173.6550  141.8270 F   0  0  0  0  0  0  0  0  0  0  0  0
  2 16  1  0  0  0  0
  5  4  1  0  0  0  0
  6  7  1  6  0  0  0
  6 11  1  0  0  0  0
  8 19  1  0  0  0  0
  9  5  1  0  0  0  0
  9  7  1  0  0  0  0
 10 20  1  0  0  0  0
 11  4  1  6  0  0  0
 11 23  1  0  0  0  0
 12 27  1  1  0  0  0
 12 26  1  0  0  0  0
 13  1  1  0  0  0  0
 14 12  1  0  0  0  0
 15 17  1  1  0  0  0
 15 24  1  0  0  0  0
 16 21  1  0  0  0  0
 17  6  1  0  0  0  0
 18  2  1  0  0  0  0
 19  3  1  1  0  0  0
 19 18  1  0  0  0  0
 20 12  1  0  0  0  0
 21 37  1  6  0  0  0
 22  1  1  6  0  0  0
 22 10  1  0  0  0  0
 22 14  1  0  0  0  0
 23  8  1  6  0  0  0
 24 23  1  0  0  0  0
 24 13  1  1  0  0  0
 25 21  1  0  0  0  0
 25 26  1  0  0  0  0
 29 34  1  1  0  0  0
 29 32  1  0  0  0  0
 31 29  1  0  0  0  0
 31 30  1  0  0  0  0
 32 28  1  0  0  0  0
 33 30  1  6  0  0  0
 33 28  1  0  0  0  0
 33 15  1  0  0  0  0
 34 36  1  0  0  0  0
 35 34  2  0  0  0  0
 38 40  1  0  0  0  0
 40 46  1  6  0  0  0
 40 41  1  0  0  0  0
 41 44  1  0  0  0  0
 42 44  1  0  0  0  0
 42 39  2  0  0  0  0
 43 37  1  6  0  0  0
 43 42  1  0  0  0  0
 45 38  1  0  0  0  0
 45 43  1  0  0  0  0
 47 46  1  0  0  0  0
 48 47  1  1  0  0  0
 49 51  1  0  0  0  0
 49 48  1  0  0  0  0
 50 49  1  0  0  0  0
 52 48  1  0  0  0  0
 53 55  1  0  0  0  0
 53 52  1  0  0  0  0
 54 53  2  0  0  0  0
M  END
>  <MODEL>
6

>  <REMARK>
 VINA RESULT:      -7.0      3.286      7.045
  Name = 
  10 active torsions:
  status: ('A' for Active; 'I' for Inactive)
    1  A    between atoms: C_1  and  O_53
    2  A    between atoms: C_3  and  C_12
    3  A    between atoms: C_3  and  C_38
    4  A    between atoms: C_8  and  C_22
    5  A    between atoms: C_8  and  C_43
    6  A    between atoms: C_10  and  C_32
    7  A    between atoms: C_11  and  C_29
    8  A    between atoms: C_29  and  C_38
    9  A    between atoms: C_29  and  O_53
   10  A    between atoms: C_33  and  C_52
                            x       y       z     vdW  Elec       q    Type
                         _______ _______ _______ _____ _____    ______ ____

>  <TORSDO>
F 10

$$$$
=
 OpenBabel11052419273D

 55 60  0  0  1  0  0  0  0  0999 V2000
  195.1050  175.8430  141.4390 C   0  0  0  0  0  2  0  0  0  0  0  0
  194.9700  170.8610  139.1880 C   0  0  0  0  0  2  0  0  0  0  0  0
  195.3850  169.1440  141.6730 C   0  0  0  0  0  1  0  0  0  0  0  0
  195.8430  171.9380  144.8730 C   0  0  0  0  0  2  0  0  0  0  0  0
  196.8160  171.9360  146.0450 C   0  0  0  0  0  2  0  0  0  0  0  0
  196.8210  174.1840  144.1470 C   0  0  1  0  0  3  0  0  0  0  0  0
  197.7100  174.1660  145.3890 C   0  0  0  0  0  2  0  0  0  0  0  0
  194.7950  171.5220  142.1290 C   0  0  0  0  0  2  0  0  0  0  0  0
  197.0650  173.3640  146.5130 C   0  0  0  0  0  2  0  0  0  0  0  0
  196.6300  174.4180  140.2100 O   0  0  0  0  0  0  0  0  0  0  0  0
  196.4030  172.7560  143.6940 C   0  0  2  0  0  3  0  0  0  0  0  0
  195.8630  174.8250  137.9750 C   0  0  1  0  0  0  0  0  0  0  0  0
  194.0090  174.7950  141.6420 C   0  0  0  0  0  2  0  0  0  0  0  0
  195.0580  175.6660  138.9220 C   0  0  0  0  0  2  0  0  0  0  0  0
  194.5060  174.5870  144.1820 C   0  0  2  0  0  3  0  0  0  0  0  0
  195.3590  171.1070  137.8610 O   0  0  0  0  0  0  0  0  0  0  0  0
  195.7940  175.1660  144.2660 O   0  0  0  0  0  0  0  0  0  0  0  0
  196.1880  170.9240  140.1000 C   0  0  0  0  0  2  0  0  0  0  0  0
  195.8470  170.5840  141.5500 C   0  0  2  0  0  3  0  0  0  0  0  0
  196.6960  173.9370  138.8870 C   0  0  0  0  0  2  0  0  0  0  0  0
  194.3320  171.8190  137.2050 C   0  0  2  0  0  3  0  0  0  0  0  0
  195.9150  175.6280  140.1670 C   0  0  1  0  0  3  0  0  0  0  0  0
  195.3920  172.8680  142.5350 C   0  0  2  0  0  3  0  0  0  0  0  0
  194.2670  173.8680  142.8380 C   0  0  2  0  0  3  0  0  0  0  0  0
  194.1730  173.2450  137.7280 C   0  0  0  0  0  2  0  0  0  0  0  0
  195.0730  174.0910  137.0530 O   0  0  0  0  0  0  0  0  0  0  0  0
  196.7260  175.6590  137.2600 O   0  0  0  0  0  1  0  0  0  0  0  0
  192.0260  174.8600  144.4260 C   0  0  0  0  0  2  0  0  0  0  0  0
  191.3050  175.4050  146.7950 C   0  0  2  0  0  3  0  0  0  0  0  0
  193.6120  176.1160  146.0160 C   0  0  0  0  0  2  0  0  0  0  0  0
  192.2960  176.5730  146.6380 C   0  0  0  0  0  2  0  0  0  0  0  0
  191.5040  174.2970  145.7460 C   0  0  0  0  0  2  0  0  0  0  0  0
  193.3900  175.5440  144.6040 C   0  0  1  0  0  3  0  0  0  0  0  0
  189.8840  175.8890  146.8110 C   0  0  0  0  0  0  0  0  0  0  0  0
  188.9370  175.0600  146.8580 O   0  0  0  0  0  1  0  0  0  0  0  0
  189.5940  177.2510  146.8340 O   0  0  0  0  0  0  0  0  0  0  0  0
  193.0080  171.0490  137.1310 C   0  0  0  0  0  2  0  0  0  0  0  0
  190.2390  173.4360  136.4850 O   0  0  0  0  0  0  0  0  0  0  0  0
  191.1240  170.1300  134.7510 O   0  0  0  0  0  0  0  0  0  0  0  0
  189.1720  172.8810  137.2360 C   0  0  1  0  0  3  0  0  0  0  0  0
  189.3160  171.3960  137.6040 C   0  0  0  0  0  2  0  0  0  0  0  0
  190.9110  170.8130  135.7850 C   0  0  0  0  0  0  0  0  0  0  0  0
  191.9890  171.7660  136.2540 C   0  0  1  0  0  3  0  0  0  0  0  0
  189.6910  170.6450  136.4580 O   0  0  0  0  0  0  0  0  0  0  0  0
  191.4620  172.9850  137.0130 C   0  0  0  0  0  2  0  0  0  0  0  0
  188.7190  173.7680  138.4020 C   0  0  0  0  0  2  0  0  0  0  0  0
  188.7910  173.0740  139.7590 C   0  0  0  0  0  2  0  0  0  0  0  0
  189.1760  174.0480  140.8650 C   0  0  1  0  0  3  0  0  0  0  0  0
  188.3020  173.8260  142.1010 C   0  0  0  0  0  3  0  0  0  0  0  0
  187.4420  174.9080  142.2910 O   0  0  0  0  0  1  0  0  0  0  0  0
  187.5460  172.6670  141.9430 O   0  0  0  0  0  1  0  0  0  0  0  0
  190.5470  173.8520  141.1850 O   0  0  0  0  0  0  0  0  0  0  0  0
  191.1280  172.5820  141.2180 C   0  0  0  0  0  0  0  0  0  0  0  0
  190.9720  171.8240  142.2120 O   0  0  0  0  0  0  0  0  0  0  0  0
  191.8760  172.1610  140.1700 F   0  0  0  0  0  0  0  0  0  0  0  0
  1 13  1  0  0  0  0
  2 18  1  0  0  0  0
  4  5  1  0  0  0  0
  5  9  1  0  0  0  0
  6 17  1  0  0  0  0
  6  7  1  1  0  0  0
  7  9  1  0  0  0  0
 11  6  1  0  0  0  0
 11  4  1  1  0  0  0
 12 27  1  6  0  0  0
 12 20  1  0  0  0  0
 12 14  1  0  0  0  0
 15 17  1  6  0  0  0
 15 33  1  0  0  0  0
 16  2  1  0  0  0  0
 18 19  1  0  0  0  0
 19  3  1  6  0  0  0
 19  8  1  0  0  0  0
 20 10  1  0  0  0  0
 21 37  1  1  0  0  0
 21 25  1  0  0  0  0
 21 16  1  0  0  0  0
 22 14  1  6  0  0  0
 22 10  1  0  0  0  0
 22  1  1  0  0  0  0
 23  8  1  1  0  0  0
 23 24  1  0  0  0  0
 23 11  1  0  0  0  0
 24 13  1  6  0  0  0
 24 15  1  0  0  0  0
 26 25  1  0  0  0  0
 26 12  1  0  0  0  0
 28 32  1  0  0  0  0
 29 34  1  6  0  0  0
 30 31  1  0  0  0  0
 31 29  1  0  0  0  0
 32 29  1  0  0  0  0
 33 28  1  1  0  0  0
 33 30  1  0  0  0  0
 34 36  2  0  0  0  0
 34 35  1  0  0  0  0
 38 45  1  0  0  0  0
 38 40  1  0  0  0  0
 39 42  2  0  0  0  0
 40 41  1  0  0  0  0
 40 46  1  1  0  0  0
 42 43  1  0  0  0  0
 42 44  1  0  0  0  0
 43 45  1  0  0  0  0
 43 37  1  1  0  0  0
 44 41  1  0  0  0  0
 46 47  1  0  0  0  0
 48 47  1  6  0  0  0
 48 52  1  0  0  0  0
 48 49  1  0  0  0  0
 49 50  1  0  0  0  0
 51 49  1  0  0  0  0
 52 53  1  0  0  0  0
 53 54  2  0  0  0  0
 55 53  1  0  0  0  0
M  END
>  <MODEL>
7

>  <REMARK>
 VINA RESULT:      -7.0      4.215      8.756
  Name = 
  10 active torsions:
  status: ('A' for Active; 'I' for Inactive)
    1  A    between atoms: C_1  and  O_53
    2  A    between atoms: C_3  and  C_12
    3  A    between atoms: C_3  and  C_38
    4  A    between atoms: C_8  and  C_22
    5  A    between atoms: C_8  and  C_43
    6  A    between atoms: C_10  and  C_32
    7  A    between atoms: C_11  and  C_29
    8  A    between atoms: C_29  and  C_38
    9  A    between atoms: C_29  and  O_53
   10  A    between atoms: C_33  and  C_52
                            x       y       z     vdW  Elec       q    Type
                         _______ _______ _______ _____ _____    ______ ____

>  <TORSDO>
F 10

$$$$
=
 OpenBabel11052419273D

 55 60  0  0  1  0  0  0  0  0999 V2000
  192.7160  171.9760  141.5650 C   0  0  0  0  0  2  0  0  0  0  0  0
  190.9420  176.4790  144.1100 C   0  0  0  0  0  2  0  0  0  0  0  0
  193.4670  177.2620  145.6280 C   0  0  0  0  0  1  0  0  0  0  0  0
  196.3090  174.2190  144.6690 C   0  0  0  0  0  2  0  0  0  0  0  0
  197.3120  173.4970  145.5610 C   0  0  0  0  0  2  0  0  0  0  0  0
  195.2540  171.9550  144.1310 C   0  0  1  0  0  3  0  0  0  0  0  0
  196.3390  171.2820  144.9690 C   0  0  0  0  0  2  0  0  0  0  0  0
  193.8080  175.5720  143.8280 C   0  0  0  0  0  2  0  0  0  0  0  0
  197.6130  172.1180  144.9890 C   0  0  0  0  0  2  0  0  0  0  0  0
  191.3890  172.4910  143.5250 O   0  0  0  0  0  0  0  0  0  0  0  0
  194.9940  173.4260  144.5660 C   0  0  2  0  0  3  0  0  0  0  0  0
  189.2740  172.9350  142.4850 C   0  0  1  0  0  0  0  0  0  0  0  0
  193.1740  173.4080  141.2810 C   0  0  0  0  0  2  0  0  0  0  0  0
  190.2610  172.5430  141.4250 C   0  0  0  0  0  2  0  0  0  0  0  0
  195.6140  172.9020  142.0110 C   0  0  2  0  0  3  0  0  0  0  0  0
  189.5540  176.2720  144.1810 O   0  0  0  0  0  0  0  0  0  0  0  0
  195.4480  171.7030  142.7420 O   0  0  0  0  0  0  0  0  0  0  0  0
  191.6440  175.6090  145.1440 C   0  0  0  0  0  2  0  0  0  0  0  0
  193.1530  175.8470  145.1750 C   0  0  2  0  0  3  0  0  0  0  0  0
  190.1170  173.0560  143.7460 C   0  0  0  0  0  2  0  0  0  0  0  0
  189.0090  176.3620  142.8830 C   0  0  2  0  0  3  0  0  0  0  0  0
  191.3550  171.9030  142.2480 C   0  0  1  0  0  3  0  0  0  0  0  0
  194.0010  174.0760  143.5830 C   0  0  2  0  0  3  0  0  0  0  0  0
  194.3890  173.8340  142.1170 C   0  0  2  0  0  3  0  0  0  0  0  0
  189.4280  175.2010  141.9840 C   0  0  0  0  0  2  0  0  0  0  0  0
  188.5520  174.1180  142.1830 O   0  0  0  0  0  0  0  0  0  0  0  0
  188.3660  171.8880  142.6590 O   0  0  0  0  0  1  0  0  0  0  0  0
  196.1240  171.1660  140.2750 C   0  0  0  0  0  2  0  0  0  0  0  0
  194.8210  171.4870  138.1240 C   0  0  2  0  0  3  0  0  0  0  0  0
  195.3620  173.5140  139.5490 C   0  0  0  0  0  2  0  0  0  0  0  0
  195.4520  172.8900  138.1600 C   0  0  0  0  0  2  0  0  0  0  0  0
  194.8870  170.7580  139.4780 C   0  0  0  0  0  2  0  0  0  0  0  0
  196.1230  172.6710  140.5870 C   0  0  1  0  0  3  0  0  0  0  0  0
  195.4100  170.6470  137.0260 C   0  0  0  0  0  0  0  0  0  0  0  0
  194.7090  170.3360  136.0280 O   0  0  0  0  0  0  0  0  0  0  0  0
  196.7450  170.2550  137.0670 O   0  0  0  0  0  1  0  0  0  0  0  0
  189.2060  177.7370  142.2320 C   0  0  0  0  0  2  0  0  0  0  0  0
  185.9410  179.1540  143.2840 O   0  0  0  0  0  0  0  0  0  0  0  0
  187.0140  177.5970  139.9450 O   0  0  0  0  0  0  0  0  0  0  0  0
  185.2300  178.0050  143.7150 C   0  0  1  0  0  3  0  0  0  0  0  0
  185.7590  176.6590  143.1950 C   0  0  0  0  0  2  0  0  0  0  0  0
  186.9320  177.5740  141.2000 C   0  0  0  0  0  0  0  0  0  0  0  0
  187.8780  178.4440  142.0000 C   0  0  1  0  0  3  0  0  0  0  0  0
  185.9790  176.7320  141.7930 O   0  0  0  0  0  0  0  0  0  0  0  0
  187.3220  178.8980  143.3510 C   0  0  0  0  0  2  0  0  0  0  0  0
  184.9140  178.0090  145.2150 C   0  0  0  0  0  2  0  0  0  0  0  0
  185.4810  176.8050  145.9610 C   0  0  0  0  0  2  0  0  0  0  0  0
  186.5410  177.2210  146.9710 C   0  0  1  0  0  3  0  0  0  0  0  0
  187.8870  176.5780  146.6300 C   0  0  0  0  0  3  0  0  0  0  0  0
  188.9270  177.4840  146.8350 O   0  0  0  0  0  1  0  0  0  0  0  0
  188.0930  175.4600  147.4370 O   0  0  0  0  0  1  0  0  0  0  0  0
  186.6510  178.6380  146.9560 O   0  0  0  0  0  0  0  0  0  0  0  0
  186.6120  179.3980  148.1280 C   0  0  0  0  0  0  0  0  0  0  0  0
  187.4930  179.2590  149.0190 O   0  0  0  0  0  0  0  0  0  0  0  0
  185.6110  180.2910  148.3140 F   0  0  0  0  0  0  0  0  0  0  0  0
  1 22  1  0  0  0  0
  2 16  1  0  0  0  0
  2 18  1  0  0  0  0
  4  5  1  0  0  0  0
  6 11  1  0  0  0  0
  6  7  1  1  0  0  0
  7  9  1  0  0  0  0
  8 19  1  0  0  0  0
  9  5  1  0  0  0  0
 10 20  1  0  0  0  0
 11  4  1  6  0  0  0
 12 27  1  1  0  0  0
 12 20  1  0  0  0  0
 13  1  1  0  0  0  0
 14 12  1  0  0  0  0
 15 24  1  0  0  0  0
 15 17  1  6  0  0  0
 17  6  1  0  0  0  0
 18 19  1  0  0  0  0
 19  3  1  6  0  0  0
 21 37  1  6  0  0  0
 21 16  1  0  0  0  0
 22 14  1  6  0  0  0
 22 10  1  0  0  0  0
 23  8  1  1  0  0  0
 23 11  1  0  0  0  0
 24 13  1  6  0  0  0
 24 23  1  0  0  0  0
 25 26  1  0  0  0  0
 25 21  1  0  0  0  0
 26 12  1  0  0  0  0
 28 33  1  0  0  0  0
 29 34  1  6  0  0  0
 29 31  1  0  0  0  0
 29 32  1  0  0  0  0
 31 30  1  0  0  0  0
 32 28  1  0  0  0  0
 33 30  1  6  0  0  0
 33 15  1  0  0  0  0
 34 36  1  0  0  0  0
 35 34  2  0  0  0  0
 38 45  1  0  0  0  0
 38 40  1  0  0  0  0
 39 42  2  0  0  0  0
 40 46  1  1  0  0  0
 41 40  1  0  0  0  0
 42 44  1  0  0  0  0
 42 43  1  0  0  0  0
 43 37  1  1  0  0  0
 43 45  1  0  0  0  0
 44 41  1  0  0  0  0
 46 47  1  0  0  0  0
 48 47  1  6  0  0  0
 49 50  1  0  0  0  0
 49 48  1  0  0  0  0
 49 51  1  0  0  0  0
 52 48  1  0  0  0  0
 52 53  1  0  0  0  0
 53 55  1  0  0  0  0
 53 54  2  0  0  0  0
M  END
>  <MODEL>
8

>  <REMARK>
 VINA RESULT:      -7.0      2.533      6.024
  Name = 
  10 active torsions:
  status: ('A' for Active; 'I' for Inactive)
    1  A    between atoms: C_1  and  O_53
    2  A    between atoms: C_3  and  C_12
    3  A    between atoms: C_3  and  C_38
    4  A    between atoms: C_8  and  C_22
    5  A    between atoms: C_8  and  C_43
    6  A    between atoms: C_10  and  C_32
    7  A    between atoms: C_11  and  C_29
    8  A    between atoms: C_29  and  C_38
    9  A    between atoms: C_29  and  O_53
   10  A    between atoms: C_33  and  C_52
                            x       y       z     vdW  Elec       q    Type
                         _______ _______ _______ _____ _____    ______ ____

>  <TORSDO>
F 10

$$$$
=
 OpenBabel11052419273D

 55 60  0  0  1  0  0  0  0  0999 V2000
  195.0470  175.3910  141.0050 C   0  0  0  0  0  2  0  0  0  0  0  0
  196.1500  170.5690  138.6750 C   0  0  0  0  0  2  0  0  0  0  0  0
  196.6460  168.8770  141.1630 C   0  0  0  0  0  1  0  0  0  0  0  0
  196.2000  171.5870  144.4370 C   0  0  0  0  0  2  0  0  0  0  0  0
  197.0290  171.7340  145.7070 C   0  0  0  0  0  2  0  0  0  0  0  0
  196.7750  174.0070  143.8560 C   0  0  1  0  0  3  0  0  0  0  0  0
  197.5170  174.1200  145.1870 C   0  0  0  0  0  2  0  0  0  0  0  0
  195.5450  171.0720  141.5900 C   0  0  0  0  0  2  0  0  0  0  0  0
  196.9350  173.1650  146.2210 C   0  0  0  0  0  2  0  0  0  0  0  0
  196.9450  174.3440  139.9260 O   0  0  0  0  0  0  0  0  0  0  0  0
  196.7010  172.5420  143.3390 C   0  0  2  0  0  3  0  0  0  0  0  0
  196.3460  174.6730  137.6270 C   0  0  1  0  0  0  0  0  0  0  0  0
  194.1690  174.1400  141.0720 C   0  0  0  0  0  2  0  0  0  0  0  0
  195.2950  175.3020  138.4960 C   0  0  0  0  0  2  0  0  0  0  0  0
  194.4350  173.9410  143.6470 C   0  0  2  0  0  3  0  0  0  0  0  0
  196.6160  170.9360  137.4020 O   0  0  0  0  0  0  0  0  0  0  0  0
  195.5640  174.7600  143.8790 O   0  0  0  0  0  0  0  0  0  0  0  0
  197.2300  170.8390  139.7140 C   0  0  0  0  0  2  0  0  0  0  0  0
  196.8180  170.3850  141.1130 C   0  0  2  0  0  3  0  0  0  0  0  0
  197.2420  173.9350  138.6100 C   0  0  0  0  0  2  0  0  0  0  0  0
  195.5390  171.4540  136.6500 C   0  0  2  0  0  3  0  0  0  0  0  0
  196.0100  175.3890  139.8240 C   0  0  1  0  0  3  0  0  0  0  0  0
  195.8140  172.4940  142.0790 C   0  0  2  0  0  3  0  0  0  0  0  0
  194.4850  173.2390  142.2740 C   0  0  2  0  0  3  0  0  0  0  0  0
  195.0440  172.7990  137.1750 C   0  0  0  0  0  2  0  0  0  0  0  0
  195.8190  173.8310  136.6140 O   0  0  0  0  0  0  0  0  0  0  0  0
  197.0910  175.6870  137.0230 O   0  0  0  0  0  1  0  0  0  0  0  0
  192.4310  173.9510  145.1540 C   0  0  0  0  0  2  0  0  0  0  0  0
  192.1250  176.1360  146.4020 C   0  0  2  0  0  3  0  0  0  0  0  0
  193.2810  176.1590  144.1450 C   0  0  0  0  0  2  0  0  0  0  0  0
  192.1510  176.7420  144.9880 C   0  0  0  0  0  2  0  0  0  0  0  0
  192.6850  174.7030  146.4580 C   0  0  0  0  0  2  0  0  0  0  0  0
  193.1120  174.6410  143.9620 C   0  0  1  0  0  3  0  0  0  0  0  0
  190.7520  176.2050  147.0050 C   0  0  0  0  0  0  0  0  0  0  0  0
  190.2380  175.1780  147.5220 O   0  0  0  0  0  1  0  0  0  0  0  0
  190.0550  177.4100  147.0570 O   0  0  0  0  0  0  0  0  0  0  0  0
  194.4120  170.4390  136.4210 C   0  0  0  0  0  2  0  0  0  0  0  0
  191.2600  170.9330  138.3190 O   0  0  0  0  0  0  0  0  0  0  0  0
  191.9530  171.1580  134.5520 O   0  0  0  0  0  0  0  0  0  0  0  0
  190.6490  169.6550  138.2400 C   0  0  1  0  0  3  0  0  0  0  0  0
  191.1530  168.7430  137.1100 C   0  0  0  0  0  2  0  0  0  0  0  0
  192.0320  170.5610  135.6560 C   0  0  0  0  0  0  0  0  0  0  0  0
  193.0410  171.0550  136.6710 C   0  0  1  0  0  3  0  0  0  0  0  0
  191.1910  169.4620  135.8850 O   0  0  0  0  0  0  0  0  0  0  0  0
  192.6460  170.7960  138.1250 C   0  0  0  0  0  2  0  0  0  0  0  0
  190.5250  168.9510  139.5960 C   0  0  0  0  0  2  0  0  0  0  0  0
  191.7430  169.1430  140.4960 C   0  0  0  0  0  2  0  0  0  0  0  0
  191.3870  169.9080  141.7620 C   0  0  1  0  0  3  0  0  0  0  0  0
  192.1980  169.3870  142.9500 C   0  0  0  0  0  3  0  0  0  0  0  0
  193.2210  168.5450  142.5110 O   0  0  0  0  0  1  0  0  0  0  0  0
  192.7580  170.4570  143.6450 O   0  0  0  0  0  1  0  0  0  0  0  0
  191.6520  171.2890  141.5480 O   0  0  0  0  0  0  0  0  0  0  0  0
  190.6380  172.2490  141.5560 C   0  0  0  0  0  0  0  0  0  0  0  0
  189.5560  172.0540  140.9410 O   0  0  0  0  0  0  0  0  0  0  0  0
  190.8220  173.4110  142.2290 F   0  0  0  0  0  0  0  0  0  0  0  0
  1 13  1  0  0  0  0
  2 18  1  0  0  0  0
  4  5  1  0  0  0  0
  5  9  1  0  0  0  0
  6 17  1  0  0  0  0
  6  7  1  1  0  0  0
  7  9  1  0  0  0  0
 11  6  1  0  0  0  0
 11  4  1  1  0  0  0
 12 27  1  6  0  0  0
 12 14  1  0  0  0  0
 12 20  1  0  0  0  0
 15 17  1  6  0  0  0
 15 33  1  0  0  0  0
 16  2  1  0  0  0  0
 18 19  1  0  0  0  0
 19  3  1  6  0  0  0
 19  8  1  0  0  0  0
 20 10  1  0  0  0  0
 21 37  1  1  0  0  0
 21 25  1  0  0  0  0
 21 16  1  0  0  0  0
 22 14  1  6  0  0  0
 22 10  1  0  0  0  0
 22  1  1  0  0  0  0
 23  8  1  1  0  0  0
 23 24  1  0  0  0  0
 23 11  1  0  0  0  0
 24 13  1  6  0  0  0
 24 15  1  0  0  0  0
 26 25  1  0  0  0  0
 26 12  1  0  0  0  0
 28 32  1  0  0  0  0
 29 32  1  0  0  0  0
 29 34  1  6  0  0  0
 30 31  1  0  0  0  0
 31 29  1  0  0  0  0
 33 30  1  1  0  0  0
 33 28  1  0  0  0  0
 34 36  2  0  0  0  0
 34 35  1  0  0  0  0
 39 42  2  0  0  0  0
 40 38  1  0  0  0  0
 40 46  1  1  0  0  0
 41 40  1  0  0  0  0
 42 44  1  0  0  0  0
 42 43  1  0  0  0  0
 43 37  1  6  0  0  0
 43 45  1  0  0  0  0
 44 41  1  0  0  0  0
 45 38  1  0  0  0  0
 46 47  1  0  0  0  0
 48 47  1  6  0  0  0
 48 49  1  0  0  0  0
 49 51  1  0  0  0  0
 50 49  1  0  0  0  0
 52 53  1  0  0  0  0
 52 48  1  0  0  0  0
 53 55  1  0  0  0  0
 54 53  2  0  0  0  0
M  END
>  <MODEL>
9

>  <REMARK>
 VINA RESULT:      -6.9      4.898      9.730
  Name = 
  10 active torsions:
  status: ('A' for Active; 'I' for Inactive)
    1  A    between atoms: C_1  and  O_53
    2  A    between atoms: C_3  and  C_12
    3  A    between atoms: C_3  and  C_38
    4  A    between atoms: C_8  and  C_22
    5  A    between atoms: C_8  and  C_43
    6  A    between atoms: C_10  and  C_32
    7  A    between atoms: C_11  and  C_29
    8  A    between atoms: C_29  and  C_38
    9  A    between atoms: C_29  and  O_53
   10  A    between atoms: C_33  and  C_52
                            x       y       z     vdW  Elec       q    Type
                         _______ _______ _______ _____ _____    ______ ____

>  <TORSDO>
F 10

$$$$
