=
 OpenBabel11052418143D

 28 32  0  0  1  0  0  0  0  0999 V2000
  187.1140  176.9730  146.8140 C   0  0  1  0  0  3  0  0  0  0  0  0
  187.4720  173.9700  142.3800 C   0  0  0  0  0  3  0  0  0  0  0  0
  184.1090  178.3770  143.0800 C   0  0  0  0  0  1  0  0  0  0  0  0
  187.6480  175.7970  140.7890 C   0  0  0  0  0  0  0  0  0  0  0  0
  186.4820  176.1950  143.0210 C   0  0  1  0  0  3  0  0  0  0  0  0
  188.5500  173.6120  140.2450 C   0  0  0  0  0  0  0  0  0  0  0  0
  187.2530  175.3180  142.0600 C   0  0  0  0  0  0  0  0  0  0  0  0
  186.2950  177.8810  141.1410 C   0  0  0  0  0  2  0  0  0  0  0  0
  188.3120  174.9450  139.9010 C   0  0  0  0  0  3  0  0  0  0  0  0
  185.6560  178.0800  145.0060 C   0  0  2  0  0  3  0  0  0  0  0  0
  186.9370  175.9960  144.4800 C   0  0  0  0  0  2  0  0  0  0  0  0
  187.4480  177.2310  140.3860 C   0  0  0  0  0  2  0  0  0  0  0  0
  185.4880  178.8350  147.3560 C   0  0  0  0  0  2  0  0  0  0  0  0
  185.5590  178.5020  143.5290 C   0  0  1  0  0  3  0  0  0  0  0  0
  185.5060  179.2940  145.9100 C   0  0  0  0  0  2  0  0  0  0  0  0
  189.2060  172.7730  139.3560 O   0  0  0  0  0  1  0  0  0  0  0  0
  188.1240  173.1230  141.4810 C   0  0  0  0  0  3  0  0  0  0  0  0
  186.5110  177.6820  142.6360 C   0  0  1  0  0  3  0  0  0  0  0  0
  186.8240  178.1940  147.6940 C   0  0  0  0  0  2  0  0  0  0  0  0
  186.9480  177.2900  145.3100 C   0  0  2  0  0  3  0  0  0  0  0  0
  188.5120  176.4490  147.1920 C   0  0  1  0  0  3  0  0  0  0  0  0
  188.8550  175.0740  146.6960 C   0  0  0  0  0  3  0  0  0  0  0  0
  190.1990  175.9590  144.8270 C   0  0  0  0  0  0  0  0  0  0  0  0
  189.8850  177.6420  146.9890 S   0  0  0  0  0  0  0  0  0  0  0  0
  189.8560  173.5390  145.2350 O   0  0  0  0  0  1  0  0  0  0  0  0
  189.6250  174.8520  145.6250 C   0  0  0  0  0  0  0  0  0  0  0  0
  190.6440  175.7000  143.4300 C   0  0  0  0  0  1  0  0  0  0  0  0
  190.2500  177.2100  145.2810 C   0  0  0  0  0  3  0  0  0  0  0  0
  1 21  1  0  0  0  0
  1 19  1  1  0  0  0
  4  7  2  0  0  0  0
  5 11  1  1  0  0  0
  6 17  1  0  0  0  0
  7  2  1  0  0  0  0
  7  5  1  0  0  0  0
  9  6  2  0  0  0  0
  9  4  1  0  0  0  0
 10 20  1  0  0  0  0
 10 15  1  1  0  0  0
 12  4  1  0  0  0  0
 12  8  1  0  0  0  0
 13 19  1  0  0  0  0
 14  3  1  6  0  0  0
 14 10  1  0  0  0  0
 15 13  1  0  0  0  0
 16  6  1  0  0  0  0
 17  2  2  0  0  0  0
 18  8  1  6  0  0  0
 18  5  1  0  0  0  0
 18 14  1  0  0  0  0
 20 11  1  6  0  0  0
 20  1  1  0  0  0  0
 21 22  1  6  0  0  0
 23 28  2  0  0  0  0
 23 26  1  0  0  0  0
 24 21  1  0  0  0  0
 25 26  1  0  0  0  0
 26 22  2  0  0  0  0
 27 23  1  0  0  0  0
 28 24  1  0  0  0  0
M  END
>  <MODEL>
1

>  <REMARK>
 VINA RESULT:      -8.4      0.000      0.000
  Name = 
  1 active torsions:
  status: ('A' for Active; 'I' for Inactive)
    1  A    between atoms: C_1  and  C_2
                            x       y       z     vdW  Elec       q    Type
                         _______ _______ _______ _____ _____    ______ ____

>  <TORSDO>
F 1

$$$$
=
 OpenBabel11052418143D

 28 32  0  0  1  0  0  0  0  0999 V2000
  192.8760  175.1280  144.1310 C   0  0  1  0  0  3  0  0  0  0  0  0
  188.1280  176.0310  141.7980 C   0  0  0  0  0  3  0  0  0  0  0  0
  188.9420  174.8010  147.1880 C   0  0  0  0  0  1  0  0  0  0  0  0
  187.2630  177.5790  143.4600 C   0  0  0  0  0  0  0  0  0  0  0  0
  189.0240  175.8680  144.1460 C   0  0  1  0  0  3  0  0  0  0  0  0
  186.4390  177.6480  141.1800 C   0  0  0  0  0  0  0  0  0  0  0  0
  188.1510  176.5350  143.1070 C   0  0  0  0  0  0  0  0  0  0  0  0
  187.7420  177.1820  145.8910 C   0  0  0  0  0  2  0  0  0  0  0  0
  186.4290  178.1390  142.4870 C   0  0  0  0  0  3  0  0  0  0  0  0
  191.0920  175.1420  145.9830 C   0  0  2  0  0  3  0  0  0  0  0  0
  190.4320  175.5530  143.6050 C   0  0  0  0  0  2  0  0  0  0  0  0
  187.2420  178.1680  144.8420 C   0  0  0  0  0  2  0  0  0  0  0  0
  193.3790  174.3400  146.4830 C   0  0  0  0  0  2  0  0  0  0  0  0
  189.8440  175.8470  146.5460 C   0  0  1  0  0  3  0  0  0  0  0  0
  192.2060  175.1410  147.0180 C   0  0  0  0  0  2  0  0  0  0  0  0
  185.6040  178.2070  140.2220 O   0  0  0  0  0  1  0  0  0  0  0  0
  187.2820  176.5890  140.8370 C   0  0  0  0  0  3  0  0  0  0  0  0
  189.1070  176.6570  145.4610 C   0  0  1  0  0  3  0  0  0  0  0  0
  193.9270  175.0250  145.2420 C   0  0  0  0  0  2  0  0  0  0  0  0
  191.5540  175.7450  144.6390 C   0  0  2  0  0  3  0  0  0  0  0  0
  193.5150  175.8960  142.9580 C   0  0  1  0  0  3  0  0  0  0  0  0
  194.8440  176.5370  143.2380 C   0  0  0  0  0  3  0  0  0  0  0  0
  196.0840  174.7210  142.1200 C   0  0  0  0  0  0  0  0  0  0  0  0
  193.4600  175.0510  141.3360 S   0  0  0  0  0  0  0  0  0  0  0  0
  197.1840  176.6670  143.1900 O   0  0  0  0  0  1  0  0  0  0  0  0
  196.0090  176.0050  142.8530 C   0  0  0  0  0  0  0  0  0  0  0  0
  197.3590  173.9530  142.1170 C   0  0  0  0  0  1  0  0  0  0  0  0
  195.0190  174.1750  141.5340 C   0  0  0  0  0  3  0  0  0  0  0  0
  1 20  1  0  0  0  0
  1 19  1  1  0  0  0
  2  7  1  0  0  0  0
  4 12  1  0  0  0  0
  5 11  1  6  0  0  0
  5 18  1  0  0  0  0
  6  9  2  0  0  0  0
  7  4  2  0  0  0  0
  7  5  1  0  0  0  0
  9  4  1  0  0  0  0
 10 14  1  0  0  0  0
 10 15  1  1  0  0  0
 12  8  1  0  0  0  0
 13 15  1  0  0  0  0
 14  3  1  6  0  0  0
 16  6  1  0  0  0  0
 17  6  1  0  0  0  0
 17  2  2  0  0  0  0
 18  8  1  1  0  0  0
 18 14  1  0  0  0  0
 19 13  1  0  0  0  0
 20 11  1  6  0  0  0
 20 10  1  0  0  0  0
 21 22  1  1  0  0  0
 21  1  1  0  0  0  0
 23 26  1  0  0  0  0
 24 28  1  0  0  0  0
 24 21  1  0  0  0  0
 26 25  1  0  0  0  0
 26 22  2  0  0  0  0
 27 23  1  0  0  0  0
 28 23  2  0  0  0  0
M  END
>  <MODEL>
2

>  <REMARK>
 VINA RESULT:      -8.1      3.723      6.003
  Name = 
  1 active torsions:
  status: ('A' for Active; 'I' for Inactive)
    1  A    between atoms: C_1  and  C_2
                            x       y       z     vdW  Elec       q    Type
                         _______ _______ _______ _____ _____    ______ ____

>  <TORSDO>
F 1

$$$$
=
 OpenBabel11052418143D

 28 32  0  0  1  0  0  0  0  0999 V2000
  189.0590  176.9330  145.5270 C   0  0  1  0  0  3  0  0  0  0  0  0
  191.5660  174.1970  141.6500 C   0  0  0  0  0  3  0  0  0  0  0  0
  193.8480  175.8720  146.4680 C   0  0  0  0  0  1  0  0  0  0  0  0
  192.5780  172.5090  143.0750 C   0  0  0  0  0  0  0  0  0  0  0  0
  191.9980  174.7880  144.0600 C   0  0  1  0  0  3  0  0  0  0  0  0
  192.1500  172.0360  140.7350 C   0  0  0  0  0  0  0  0  0  0  0  0
  192.0100  173.7960  142.9180 C   0  0  0  0  0  0  0  0  0  0  0  0
  193.4660  173.1610  145.3300 C   0  0  0  0  0  2  0  0  0  0  0  0
  192.6240  171.6330  141.9850 C   0  0  0  0  0  3  0  0  0  0  0  0
  191.4020  176.3220  146.3980 C   0  0  2  0  0  3  0  0  0  0  0  0
  190.6830  175.5900  144.1150 C   0  0  0  0  0  2  0  0  0  0  0  0
  193.0670  172.0160  144.4070 C   0  0  0  0  0  2  0  0  0  0  0  0
  190.0130  177.9520  147.6380 C   0  0  0  0  0  2  0  0  0  0  0  0
  192.4710  175.2210  146.5130 C   0  0  1  0  0  3  0  0  0  0  0  0
  190.9790  176.7900  147.7820 C   0  0  0  0  0  2  0  0  0  0  0  0
  192.2040  171.1610  139.6590 O   0  0  0  0  0  1  0  0  0  0  0  0
  191.6280  173.3190  140.5650 C   0  0  0  0  0  3  0  0  0  0  0  0
  192.3060  174.1460  145.4200 C   0  0  1  0  0  3  0  0  0  0  0  0
  188.7570  177.4740  146.9290 C   0  0  0  0  0  2  0  0  0  0  0  0
  190.1930  175.8820  145.5430 C   0  0  2  0  0  3  0  0  0  0  0  0
  187.7350  176.4160  144.9340 C   0  0  1  0  0  3  0  0  0  0  0  0
  186.4980  176.7060  145.7340 C   0  0  0  0  0  3  0  0  0  0  0  0
  185.8690  178.6040  144.2900 C   0  0  0  0  0  0  0  0  0  0  0  0
  187.5060  176.7040  143.1410 S   0  0  0  0  0  0  0  0  0  0  0  0
  184.5500  177.8960  146.2650 O   0  0  0  0  0  1  0  0  0  0  0  0
  185.6490  177.6960  145.4390 C   0  0  0  0  0  0  0  0  0  0  0  0
  185.1910  179.9290  144.2630 C   0  0  0  0  0  1  0  0  0  0  0  0
  186.7300  178.3170  143.3140 C   0  0  0  0  0  3  0  0  0  0  0  0
  1 20  1  0  0  0  0
  1 19  1  1  0  0  0
  2  7  1  0  0  0  0
  4 12  1  0  0  0  0
  5 11  1  1  0  0  0
  5 18  1  0  0  0  0
  6  9  2  0  0  0  0
  7  4  2  0  0  0  0
  7  5  1  0  0  0  0
  9  4  1  0  0  0  0
 10 14  1  0  0  0  0
 10 15  1  1  0  0  0
 12  8  1  0  0  0  0
 13 15  1  0  0  0  0
 14  3  1  6  0  0  0
 16  6  1  0  0  0  0
 17  6  1  0  0  0  0
 17  2  2  0  0  0  0
 18  8  1  6  0  0  0
 18 14  1  0  0  0  0
 19 13  1  0  0  0  0
 20 11  1  6  0  0  0
 20 10  1  0  0  0  0
 21  1  1  0  0  0  0
 21 22  1  1  0  0  0
 23 26  1  0  0  0  0
 24 28  1  0  0  0  0
 24 21  1  0  0  0  0
 26 22  2  0  0  0  0
 26 25  1  0  0  0  0
 27 23  1  0  0  0  0
 28 23  2  0  0  0  0
M  END
>  <MODEL>
3

>  <REMARK>
 VINA RESULT:      -8.0      3.008      5.756
  Name = 
  1 active torsions:
  status: ('A' for Active; 'I' for Inactive)
    1  A    between atoms: C_1  and  C_2
                            x       y       z     vdW  Elec       q    Type
                         _______ _______ _______ _____ _____    ______ ____

>  <TORSDO>
F 1

$$$$
=
 OpenBabel11052418143D

 28 32  0  0  1  0  0  0  0  0999 V2000
  191.5970  176.0570  145.4830 C   0  0  1  0  0  3  0  0  0  0  0  0
  187.8970  175.8500  141.6020 C   0  0  0  0  0  3  0  0  0  0  0  0
  186.9020  176.7820  147.0210 C   0  0  0  0  0  1  0  0  0  0  0  0
  186.7100  177.8820  142.2060 C   0  0  0  0  0  0  0  0  0  0  0  0
  188.0110  176.6190  143.9970 C   0  0  1  0  0  3  0  0  0  0  0  0
  186.6340  177.0530  139.9270 C   0  0  0  0  0  0  0  0  0  0  0  0
  187.5640  176.8130  142.5660 C   0  0  0  0  0  0  0  0  0  0  0  0
  186.3810  178.4520  144.6270 C   0  0  0  0  0  2  0  0  0  0  0  0
  186.2690  178.0040  140.8840 C   0  0  0  0  0  3  0  0  0  0  0  0
  189.3400  176.7120  146.5280 C   0  0  2  0  0  3  0  0  0  0  0  0
  189.4820  176.1690  144.0890 C   0  0  0  0  0  2  0  0  0  0  0  0
  186.3200  178.9500  143.1880 C   0  0  0  0  0  2  0  0  0  0  0  0
  191.2800  176.2360  147.9880 C   0  0  0  0  0  2  0  0  0  0  0  0
  188.0500  177.5360  146.3610 C   0  0  1  0  0  3  0  0  0  0  0  0
  190.0780  177.1410  147.7860 C   0  0  0  0  0  2  0  0  0  0  0  0
  186.1880  177.1800  138.6190 O   0  0  0  0  0  1  0  0  0  0  0  0
  187.4410  175.9730  140.2880 C   0  0  0  0  0  3  0  0  0  0  0  0
  187.7580  177.8500  144.8800 C   0  0  1  0  0  3  0  0  0  0  0  0
  192.2430  176.4180  146.8260 C   0  0  0  0  0  2  0  0  0  0  0  0
  190.2450  176.7760  145.2780 C   0  0  2  0  0  3  0  0  0  0  0  0
  192.6320  176.3440  144.3790 C   0  0  1  0  0  3  0  0  0  0  0  0
  194.0730  176.2930  144.7990 C   0  0  0  0  0  3  0  0  0  0  0  0
  194.3860  174.0330  143.8640 C   0  0  0  0  0  0  0  0  0  0  0  0
  192.3300  175.5140  142.7760 S   0  0  0  0  0  0  0  0  0  0  0  0
  196.1810  175.2920  145.0200 O   0  0  0  0  0  1  0  0  0  0  0  0
  194.8700  175.2460  144.5610 C   0  0  0  0  0  0  0  0  0  0  0  0
  195.1290  172.7530  144.0210 C   0  0  0  0  0  1  0  0  0  0  0  0
  193.2500  174.0190  143.1680 C   0  0  0  0  0  3  0  0  0  0  0  0
  1 19  1  1  0  0  0
  2  7  1  0  0  0  0
  4  7  2  0  0  0  0
  4 12  1  0  0  0  0
  5 11  1  6  0  0  0
  5 18  1  0  0  0  0
  6 17  1  0  0  0  0
  6  9  2  0  0  0  0
  7  5  1  0  0  0  0
  9  4  1  0  0  0  0
 10 15  1  1  0  0  0
 12  8  1  0  0  0  0
 14 10  1  0  0  0  0
 14  3  1  6  0  0  0
 15 13  1  0  0  0  0
 16  6  1  0  0  0  0
 17  2  2  0  0  0  0
 18  8  1  1  0  0  0
 18 14  1  0  0  0  0
 19 13  1  0  0  0  0
 20 11  1  6  0  0  0
 20  1  1  0  0  0  0
 20 10  1  0  0  0  0
 21 22  1  1  0  0  0
 21  1  1  0  0  0  0
 23 27  1  0  0  0  0
 23 26  1  0  0  0  0
 24 28  1  0  0  0  0
 24 21  1  0  0  0  0
 26 22  2  0  0  0  0
 26 25  1  0  0  0  0
 28 23  2  0  0  0  0
M  END
>  <MODEL>
4

>  <REMARK>
 VINA RESULT:      -8.0      2.857      4.443
  Name = 
  1 active torsions:
  status: ('A' for Active; 'I' for Inactive)
    1  A    between atoms: C_1  and  C_2
                            x       y       z     vdW  Elec       q    Type
                         _______ _______ _______ _____ _____    ______ ____

>  <TORSDO>
F 1

$$$$
=
 OpenBabel11052418143D

 28 32  0  0  1  0  0  0  0  0999 V2000
  188.6820  176.5550  144.0200 C   0  0  1  0  0  3  0  0  0  0  0  0
  190.1010  173.3660  139.9440 C   0  0  0  0  0  3  0  0  0  0  0  0
  193.1260  174.3380  144.5410 C   0  0  0  0  0  1  0  0  0  0  0  0
  190.7860  171.4540  141.2790 C   0  0  0  0  0  0  0  0  0  0  0  0
  190.8680  173.7860  142.3060 C   0  0  1  0  0  3  0  0  0  0  0  0
  190.0570  171.1460  138.9860 C   0  0  0  0  0  0  0  0  0  0  0  0
  190.5400  172.8440  141.1700 C   0  0  0  0  0  0  0  0  0  0  0  0
  191.9950  171.8250  143.4460 C   0  0  0  0  0  2  0  0  0  0  0  0
  190.5220  170.6150  140.1910 C   0  0  0  0  0  3  0  0  0  0  0  0
  190.8690  175.3730  144.6840 C   0  0  2  0  0  3  0  0  0  0  0  0
  189.8010  174.8840  142.4750 C   0  0  0  0  0  2  0  0  0  0  0  0
  191.2500  170.8300  142.5650 C   0  0  0  0  0  2  0  0  0  0  0  0
  190.0340  177.2690  146.0380 C   0  0  0  0  0  2  0  0  0  0  0  0
  191.6410  174.0420  144.7080 C   0  0  1  0  0  3  0  0  0  0  0  0
  190.6930  175.9030  146.0990 C   0  0  0  0  0  2  0  0  0  0  0  0
  189.8020  170.3060  137.9110 O   0  0  0  0  0  1  0  0  0  0  0  0
  189.8530  172.5210  138.8600 C   0  0  0  0  0  3  0  0  0  0  0  0
  191.1240  173.0620  143.6360 C   0  0  1  0  0  3  0  0  0  0  0  0
  188.6430  177.1270  145.4430 C   0  0  0  0  0  2  0  0  0  0  0  0
  189.5200  175.2590  143.9390 C   0  0  2  0  0  3  0  0  0  0  0  0
  187.2260  176.3890  143.5460 C   0  0  1  0  0  3  0  0  0  0  0  0
  186.1670  176.5870  144.5930 C   0  0  0  0  0  3  0  0  0  0  0  0
  185.6710  178.8770  143.8230 C   0  0  0  0  0  0  0  0  0  0  0  0
  186.8150  177.1980  141.9570 S   0  0  0  0  0  0  0  0  0  0  0  0
  184.5230  177.8020  145.7380 O   0  0  0  0  0  1  0  0  0  0  0  0
  185.4580  177.7140  144.7150 C   0  0  0  0  0  0  0  0  0  0  0  0
  185.2180  180.2260  144.2580 C   0  0  0  0  0  1  0  0  0  0  0  0
  186.3390  178.7780  142.6740 C   0  0  0  0  0  3  0  0  0  0  0  0
  1 19  1  1  0  0  0
  2  7  1  0  0  0  0
  4 12  1  0  0  0  0
  5 11  1  1  0  0  0
  5 18  1  0  0  0  0
  6  9  2  0  0  0  0
  7  4  2  0  0  0  0
  7  5  1  0  0  0  0
  9  4  1  0  0  0  0
 10 14  1  0  0  0  0
 10 15  1  1  0  0  0
 12  8  1  0  0  0  0
 13 15  1  0  0  0  0
 14  3  1  6  0  0  0
 16  6  1  0  0  0  0
 17  6  1  0  0  0  0
 17  2  2  0  0  0  0
 18  8  1  6  0  0  0
 18 14  1  0  0  0  0
 19 13  1  0  0  0  0
 20 11  1  6  0  0  0
 20  1  1  0  0  0  0
 20 10  1  0  0  0  0
 21  1  1  0  0  0  0
 21 22  1  1  0  0  0
 22 26  2  0  0  0  0
 23 27  1  0  0  0  0
 23 26  1  0  0  0  0
 24 28  1  0  0  0  0
 24 21  1  0  0  0  0
 26 25  1  0  0  0  0
 28 23  2  0  0  0  0
M  END
>  <MODEL>
5

>  <REMARK>
 VINA RESULT:      -7.5      2.778      5.543
  Name = 
  1 active torsions:
  status: ('A' for Active; 'I' for Inactive)
    1  A    between atoms: C_1  and  C_2
                            x       y       z     vdW  Elec       q    Type
                         _______ _______ _______ _____ _____    ______ ____

>  <TORSDO>
F 1

$$$$
=
 OpenBabel11052418143D

 28 32  0  0  1  0  0  0  0  0999 V2000
  187.9040  176.0540  142.6880 C   0  0  1  0  0  3  0  0  0  0  0  0
  193.0950  176.4530  143.9890 C   0  0  0  0  0  3  0  0  0  0  0  0
  188.7930  178.0240  147.1900 C   0  0  0  0  0  1  0  0  0  0  0  0
  192.9250  175.4930  146.2140 C   0  0  0  0  0  0  0  0  0  0  0  0
  190.8820  176.6120  145.1800 C   0  0  1  0  0  3  0  0  0  0  0  0
  195.0260  175.4070  145.0040 C   0  0  0  0  0  0  0  0  0  0  0  0
  192.3160  176.1390  145.1120 C   0  0  0  0  0  0  0  0  0  0  0  0
  190.9290  176.0170  147.6410 C   0  0  0  0  0  2  0  0  0  0  0  0
  194.2700  175.1150  146.1410 C   0  0  0  0  0  3  0  0  0  0  0  0
  188.0330  176.8550  145.1300 C   0  0  2  0  0  3  0  0  0  0  0  0
  190.1330  176.3830  143.8530 C   0  0  0  0  0  2  0  0  0  0  0  0
  192.1460  175.1220  147.4440 C   0  0  0  0  0  2  0  0  0  0  0  0
  185.8740  176.9280  143.9230 C   0  0  0  0  0  2  0  0  0  0  0  0
  188.7160  176.6700  146.4970 C   0  0  1  0  0  3  0  0  0  0  0  0
  186.5350  176.6250  145.2550 C   0  0  0  0  0  2  0  0  0  0  0  0
  196.3600  175.0320  144.9420 O   0  0  0  0  0  1  0  0  0  0  0  0
  194.4400  176.0830  143.9310 C   0  0  0  0  0  3  0  0  0  0  0  0
  190.1030  176.0120  146.3600 C   0  0  1  0  0  3  0  0  0  0  0  0
  186.3860  175.9510  142.8780 C   0  0  0  0  0  2  0  0  0  0  0  0
  188.6630  175.9690  144.0320 C   0  0  2  0  0  3  0  0  0  0  0  0
  188.3180  174.9790  141.6660 C   0  0  1  0  0  3  0  0  0  0  0  0
  189.7410  175.0390  141.1900 C   0  0  0  0  0  3  0  0  0  0  0  0
  190.4440  173.2180  142.6980 C   0  0  0  0  0  0  0  0  0  0  0  0
  187.7650  173.2760  142.0420 S   0  0  0  0  0  0  0  0  0  0  0  0
  191.9950  174.3960  141.1660 O   0  0  0  0  0  1  0  0  0  0  0  0
  190.7040  174.2360  141.6550 C   0  0  0  0  0  0  0  0  0  0  0  0
  191.5790  172.6820  143.4980 C   0  0  0  0  0  1  0  0  0  0  0  0
  189.2100  172.8250  143.0130 C   0  0  0  0  0  3  0  0  0  0  0  0
  1 19  1  1  0  0  0
  1 20  1  0  0  0  0
  2  7  1  0  0  0  0
  4 12  1  0  0  0  0
  5 11  1  6  0  0  0
  5 18  1  0  0  0  0
  6  9  2  0  0  0  0
  7  5  1  0  0  0  0
  7  4  2  0  0  0  0
  9  4  1  0  0  0  0
 10 15  1  1  0  0  0
 10 14  1  0  0  0  0
 12  8  1  0  0  0  0
 13 15  1  0  0  0  0
 14  3  1  6  0  0  0
 16  6  1  0  0  0  0
 17  2  2  0  0  0  0
 17  6  1  0  0  0  0
 18 14  1  0  0  0  0
 18  8  1  1  0  0  0
 19 13  1  0  0  0  0
 20 11  1  6  0  0  0
 20 10  1  0  0  0  0
 21 22  1  1  0  0  0
 21 24  1  0  0  0  0
 21  1  1  0  0  0  0
 22 26  2  0  0  0  0
 23 28  2  0  0  0  0
 23 27  1  0  0  0  0
 24 28  1  0  0  0  0
 25 26  1  0  0  0  0
 26 23  1  0  0  0  0
M  END
>  <MODEL>
6

>  <REMARK>
 VINA RESULT:      -7.5      2.956      5.886
  Name = 
  1 active torsions:
  status: ('A' for Active; 'I' for Inactive)
    1  A    between atoms: C_1  and  C_2
                            x       y       z     vdW  Elec       q    Type
                         _______ _______ _______ _____ _____    ______ ____

>  <TORSDO>
F 1

$$$$
=
 OpenBabel11052418143D

 28 32  0  0  1  0  0  0  0  0999 V2000
  191.8750  175.3850  146.6360 C   0  0  1  0  0  3  0  0  0  0  0  0
  189.0480  173.2560  142.6020 C   0  0  0  0  0  3  0  0  0  0  0  0
  187.3240  177.3390  146.0040 C   0  0  0  0  0  1  0  0  0  0  0  0
  188.3340  175.3480  141.5950 C   0  0  0  0  0  0  0  0  0  0  0  0
  188.9030  175.2910  144.0790 C   0  0  1  0  0  3  0  0  0  0  0  0
  188.4780  173.3320  140.2530 C   0  0  0  0  0  0  0  0  0  0  0  0
  188.7990  174.6310  142.7220 C   0  0  0  0  0  0  0  0  0  0  0  0
  187.7130  177.2840  143.0660 C   0  0  0  0  0  2  0  0  0  0  0  0
  188.1980  174.6960  140.3650 C   0  0  0  0  0  3  0  0  0  0  0  0
  189.7080  176.7510  146.4020 C   0  0  2  0  0  3  0  0  0  0  0  0
  190.1630  174.8450  144.8460 C   0  0  0  0  0  2  0  0  0  0  0  0
  188.0550  176.8230  141.6540 C   0  0  0  0  0  2  0  0  0  0  0  0
  191.1480  177.0590  148.3900 C   0  0  0  0  0  2  0  0  0  0  0  0
  188.7300  177.4320  145.4270 C   0  0  1  0  0  3  0  0  0  0  0  0
  190.2810  177.7740  147.3700 C   0  0  0  0  0  2  0  0  0  0  0  0
  188.3360  172.6930  139.0300 O   0  0  0  0  0  1  0  0  0  0  0  0
  188.8960  172.6110  141.3730 C   0  0  0  0  0  3  0  0  0  0  0  0
  188.8140  176.8220  144.0130 C   0  0  1  0  0  3  0  0  0  0  0  0
  192.3270  176.4140  147.6800 C   0  0  0  0  0  2  0  0  0  0  0  0
  190.8180  175.9650  145.6700 C   0  0  2  0  0  3  0  0  0  0  0  0
  193.1390  174.8510  145.9350 C   0  0  1  0  0  3  0  0  0  0  0  0
  192.9570  173.6100  145.1090 C   0  0  0  0  0  3  0  0  0  0  0  0
  192.8860  174.8860  142.9990 C   0  0  0  0  0  0  0  0  0  0  0  0
  194.1760  176.1110  145.1070 S   0  0  0  0  0  0  0  0  0  0  0  0
  192.6520  172.4210  143.1120 O   0  0  0  0  0  1  0  0  0  0  0  0
  192.8470  173.6260  143.7760 C   0  0  0  0  0  0  0  0  0  0  0  0
  192.3160  174.9160  141.6240 C   0  0  0  0  0  1  0  0  0  0  0  0
  193.3320  176.0270  143.5200 C   0  0  0  0  0  3  0  0  0  0  0  0
  1 19  1  1  0  0  0
  2  7  1  0  0  0  0
  4 12  1  0  0  0  0
  4  7  2  0  0  0  0
  5 11  1  6  0  0  0
  6  9  2  0  0  0  0
  6 17  1  0  0  0  0
  7  5  1  0  0  0  0
  9  4  1  0  0  0  0
 10 15  1  6  0  0  0
 12  8  1  0  0  0  0
 14  3  1  1  0  0  0
 14 10  1  0  0  0  0
 15 13  1  0  0  0  0
 16  6  1  0  0  0  0
 17  2  2  0  0  0  0
 18  8  1  6  0  0  0
 18  5  1  0  0  0  0
 18 14  1  0  0  0  0
 19 13  1  0  0  0  0
 20 11  1  1  0  0  0
 20 10  1  0  0  0  0
 20  1  1  0  0  0  0
 21 22  1  6  0  0  0
 21  1  1  0  0  0  0
 23 28  2  0  0  0  0
 23 26  1  0  0  0  0
 24 21  1  0  0  0  0
 25 26  1  0  0  0  0
 26 22  2  0  0  0  0
 27 23  1  0  0  0  0
 28 24  1  0  0  0  0
M  END
>  <MODEL>
7

>  <REMARK>
 VINA RESULT:      -7.5      2.280      3.646
  Name = 
  1 active torsions:
  status: ('A' for Active; 'I' for Inactive)
    1  A    between atoms: C_1  and  C_2
                            x       y       z     vdW  Elec       q    Type
                         _______ _______ _______ _____ _____    ______ ____

>  <TORSDO>
F 1

$$$$
=
 OpenBabel11052418143D

 28 32  0  0  1  0  0  0  0  0999 V2000
  188.0460  175.4710  141.4370 C   0  0  1  0  0  3  0  0  0  0  0  0
  189.5100  176.2950  146.5340 C   0  0  0  0  0  3  0  0  0  0  0  0
  190.4460  171.6490  143.5740 C   0  0  0  0  0  1  0  0  0  0  0  0
  191.8050  175.5290  146.3180 C   0  0  0  0  0  0  0  0  0  0  0  0
  190.0370  174.6380  144.7120 C   0  0  1  0  0  3  0  0  0  0  0  0
  191.2020  177.1050  148.0600 C   0  0  0  0  0  0  0  0  0  0  0  0
  190.4700  175.5360  145.8490 C   0  0  0  0  0  0  0  0  0  0  0  0
  192.3200  173.5520  144.8610 C   0  0  0  0  0  2  0  0  0  0  0  0
  192.1630  176.3300  147.4070 C   0  0  0  0  0  3  0  0  0  0  0  0
  189.4640  173.4550  142.1720 C   0  0  2  0  0  3  0  0  0  0  0  0
  189.0480  175.3420  143.7630 C   0  0  0  0  0  2  0  0  0  0  0  0
  192.8830  174.7420  145.6260 C   0  0  0  0  0  2  0  0  0  0  0  0
  188.1920  173.3570  140.0530 C   0  0  0  0  0  2  0  0  0  0  0  0
  190.7320  172.9910  142.9130 C   0  0  1  0  0  3  0  0  0  0  0  0
  189.5010  172.9890  140.7250 C   0  0  0  0  0  2  0  0  0  0  0  0
  191.5660  177.8930  149.1430 O   0  0  0  0  0  1  0  0  0  0  0  0
  189.8750  177.0820  147.6280 C   0  0  0  0  0  3  0  0  0  0  0  0
  191.2180  174.0430  143.9300 C   0  0  1  0  0  3  0  0  0  0  0  0
  188.0520  174.8700  140.0260 C   0  0  0  0  0  2  0  0  0  0  0  0
  189.2430  174.9800  142.2810 C   0  0  2  0  0  3  0  0  0  0  0  0
  187.9710  177.0030  141.2880 C   0  0  1  0  0  3  0  0  0  0  0  0
  186.8320  177.5290  140.4640 C   0  0  0  0  0  3  0  0  0  0  0  0
  185.5090  178.1200  142.4600 C   0  0  0  0  0  0  0  0  0  0  0  0
  188.2380  177.9600  142.8250 S   0  0  0  0  0  0  0  0  0  0  0  0
  184.7100  178.4710  140.1400 O   0  0  0  0  0  1  0  0  0  0  0  0
  185.7170  178.0400  140.9960 C   0  0  0  0  0  0  0  0  0  0  0  0
  184.1280  178.2540  142.9980 C   0  0  0  0  0  1  0  0  0  0  0  0
  186.5110  177.9840  143.3270 C   0  0  0  0  0  3  0  0  0  0  0  0
  1 19  1  6  0  0  0
  1 20  1  0  0  0  0
  2 17  1  0  0  0  0
  4  9  2  0  0  0  0
  5 11  1  6  0  0  0
  5  7  1  0  0  0  0
  6 16  1  0  0  0  0
  7  4  1  0  0  0  0
  7  2  2  0  0  0  0
  8 12  1  0  0  0  0
  9  6  1  0  0  0  0
 10 15  1  6  0  0  0
 10 20  1  0  0  0  0
 10 14  1  0  0  0  0
 12  4  1  0  0  0  0
 13 15  1  0  0  0  0
 14  3  1  1  0  0  0
 14 18  1  0  0  0  0
 17  6  2  0  0  0  0
 18  5  1  0  0  0  0
 18  8  1  1  0  0  0
 19 13  1  0  0  0  0
 20 11  1  1  0  0  0
 21 22  1  1  0  0  0
 21  1  1  0  0  0  0
 21 24  1  0  0  0  0
 22 26  2  0  0  0  0
 23 27  1  0  0  0  0
 23 28  2  0  0  0  0
 24 28  1  0  0  0  0
 25 26  1  0  0  0  0
 26 23  1  0  0  0  0
M  END
>  <MODEL>
8

>  <REMARK>
 VINA RESULT:      -7.2      2.647      7.174
  Name = 
  1 active torsions:
  status: ('A' for Active; 'I' for Inactive)
    1  A    between atoms: C_1  and  C_2
                            x       y       z     vdW  Elec       q    Type
                         _______ _______ _______ _____ _____    ______ ____

>  <TORSDO>
F 1

$$$$
=
 OpenBabel11052418143D

 28 32  0  0  1  0  0  0  0  0999 V2000
  189.0550  175.3980  143.2550 C   0  0  1  0  0  3  0  0  0  0  0  0
  194.3850  175.6880  143.8150 C   0  0  0  0  0  3  0  0  0  0  0  0
  191.6310  172.0640  140.5740 C   0  0  0  0  0  1  0  0  0  0  0  0
  194.9420  175.6280  141.4510 C   0  0  0  0  0  0  0  0  0  0  0  0
  192.7560  174.5820  142.2440 C   0  0  1  0  0  3  0  0  0  0  0  0
  196.4630  176.6510  143.0390 C   0  0  0  0  0  0  0  0  0  0  0  0
  194.0330  175.3510  142.5000 C   0  0  0  0  0  0  0  0  0  0  0  0
  193.6270  174.1510  139.9050 C   0  0  0  0  0  2  0  0  0  0  0  0
  196.1400  176.2940  141.7280 C   0  0  0  0  0  3  0  0  0  0  0  0
  190.1030  173.7490  141.5810 C   0  0  2  0  0  3  0  0  0  0  0  0
  191.5700  175.1430  143.0520 C   0  0  0  0  0  2  0  0  0  0  0  0
  194.6240  175.2980  140.0200 C   0  0  0  0  0  2  0  0  0  0  0  0
  187.6680  173.6790  142.0190 C   0  0  0  0  0  2  0  0  0  0  0  0
  191.2100  173.5270  140.5340 C   0  0  1  0  0  3  0  0  0  0  0  0
  188.7330  173.5700  140.9430 C   0  0  0  0  0  2  0  0  0  0  0  0
  197.6570  177.3070  143.3050 O   0  0  0  0  0  1  0  0  0  0  0  0
  195.5890  176.3420  144.0830 C   0  0  0  0  0  3  0  0  0  0  0  0
  192.4030  174.4770  140.7530 C   0  0  1  0  0  3  0  0  0  0  0  0
  187.7000  175.0760  142.6140 C   0  0  0  0  0  2  0  0  0  0  0  0
  190.2320  175.1130  142.2950 C   0  0  2  0  0  3  0  0  0  0  0  0
  188.9970  176.8520  143.7590 C   0  0  1  0  0  3  0  0  0  0  0  0
  187.7900  177.6440  143.3450 C   0  0  0  0  0  3  0  0  0  0  0  0
  186.6920  177.3290  145.5310 C   0  0  0  0  0  0  0  0  0  0  0  0
  189.4400  177.0980  145.5170 S   0  0  0  0  0  0  0  0  0  0  0  0
  185.6660  178.5860  143.6570 O   0  0  0  0  0  1  0  0  0  0  0  0
  186.7460  177.8640  144.1510 C   0  0  0  0  0  0  0  0  0  0  0  0
  185.3760  177.1970  146.2140 C   0  0  0  0  0  1  0  0  0  0  0  0
  187.7750  176.8720  146.1580 C   0  0  0  0  0  3  0  0  0  0  0  0
  1 19  1  6  0  0  0
  1 21  1  0  0  0  0
  2 17  1  0  0  0  0
  4  9  2  0  0  0  0
  4  7  1  0  0  0  0
  5  7  1  0  0  0  0
  5 11  1  1  0  0  0
  6 16  1  0  0  0  0
  6 17  2  0  0  0  0
  7  2  2  0  0  0  0
  8 12  1  0  0  0  0
  9  6  1  0  0  0  0
 10 15  1  6  0  0  0
 10 20  1  0  0  0  0
 12  4  1  0  0  0  0
 13 19  1  0  0  0  0
 14  3  1  1  0  0  0
 14 18  1  0  0  0  0
 14 10  1  0  0  0  0
 15 13  1  0  0  0  0
 18  8  1  6  0  0  0
 18  5  1  0  0  0  0
 20 11  1  1  0  0  0
 20  1  1  0  0  0  0
 21 22  1  1  0  0  0
 21 24  1  0  0  0  0
 22 26  2  0  0  0  0
 23 28  2  0  0  0  0
 23 27  1  0  0  0  0
 24 28  1  0  0  0  0
 25 26  1  0  0  0  0
 26 23  1  0  0  0  0
M  END
>  <MODEL>
9

>  <REMARK>
 VINA RESULT:      -7.2      3.688      6.823
  Name = 
  1 active torsions:
  status: ('A' for Active; 'I' for Inactive)
    1  A    between atoms: C_1  and  C_2
                            x       y       z     vdW  Elec       q    Type
                         _______ _______ _______ _____ _____    ______ ____

>  <TORSDO>
F 1

$$$$
