=
 OpenBabel11052418223D

 27 30  0  0  1  0  0  0  0  0999 V2000
  188.1230  175.6750  146.8010 C   0  0  0  0  0  2  0  0  0  0  0  0
  189.2390  174.8700  144.5820 C   0  0  0  0  0  0  0  0  0  0  0  0
  187.9560  176.8290  143.9820 O   0  0  0  0  0  0  0  0  0  0  0  0
  189.1160  173.3080  140.7280 C   0  0  0  0  0  3  0  0  0  0  0  0
  188.4480  173.3950  138.3250 C   0  0  0  0  0  1  0  0  0  0  0  0
  189.8230  173.6910  144.2470 N   0  0  0  0  0  0  0  0  0  0  0  0
  187.8720  175.7580  141.2190 C   0  0  0  0  0  3  0  0  0  0  0  0
  185.4090  177.8730  144.8150 N   0  0  0  0  0  2  0  0  0  0  0  0
  187.8500  175.2070  139.9350 C   0  0  0  0  0  3  0  0  0  0  0  0
  185.0040  178.6890  145.9540 C   0  0  0  0  0  2  0  0  0  0  0  0
  188.5590  175.6180  143.5960 C   0  0  0  0  0  0  0  0  0  0  0  0
  189.4020  175.3390  146.0040 C   0  0  1  0  0  3  0  0  0  0  0  0
  188.4710  173.9820  139.6890 C   0  0  0  0  0  0  0  0  0  0  0  0
  189.1400  173.8580  142.0130 C   0  0  0  0  0  0  0  0  0  0  0  0
  187.7970  177.1570  146.8430 C   0  0  0  0  0  2  0  0  0  0  0  0
  188.5130  175.0960  142.2780 C   0  0  0  0  0  0  0  0  0  0  0  0
  186.3640  178.6310  144.0210 C   0  0  0  0  0  2  0  0  0  0  0  0
  189.7740  173.1980  143.0110 N   0  0  0  0  0  0  0  0  0  0  0  0
  186.0840  178.7150  147.0340 C   0  0  0  0  0  2  0  0  0  0  0  0
  186.4760  177.3630  147.4050 N   0  0  0  0  0  2  0  0  0  0  0  0
  187.1680  177.6770  143.1560 C   0  0  0  0  0  2  0  0  0  0  0  0
  193.4320  176.5600  146.7550 C   0  0  0  0  0  2  0  0  0  0  0  0
  190.6200  176.1340  146.2390 N   0  0  0  0  0  0  0  0  0  0  0  0
  191.6180  175.8300  145.2080 C   0  0  0  0  0  2  0  0  0  0  0  0
  192.8280  176.7460  145.3670 C   0  0  0  0  0  2  0  0  0  0  0  0
  192.3700  176.7890  147.8260 C   0  0  0  0  0  2  0  0  0  0  0  0
  191.1790  175.8700  147.5680 C   0  0  0  0  0  2  0  0  0  0  0  0
  1 15  1  0  0  0  0
  2 12  1  0  0  0  0
  4 14  1  0  0  0  0
  5 13  1  0  0  0  0
  6  2  1  0  0  0  0
  7 16  1  0  0  0  0
  8 10  1  0  0  0  0
  9  7  2  0  0  0  0
 10 19  1  0  0  0  0
 11  3  1  0  0  0  0
 11  2  2  0  0  0  0
 12 23  1  6  0  0  0
 12  1  1  0  0  0  0
 13  9  1  0  0  0  0
 13  4  2  0  0  0  0
 14 16  2  0  0  0  0
 14 18  1  0  0  0  0
 15 20  1  0  0  0  0
 16 11  1  0  0  0  0
 17  8  1  0  0  0  0
 18  6  2  0  0  0  0
 19 20  1  0  0  0  0
 21  3  1  0  0  0  0
 21 17  1  0  0  0  0
 22 26  1  0  0  0  0
 23 27  1  0  0  0  0
 24 25  1  0  0  0  0
 24 23  1  0  0  0  0
 25 22  1  0  0  0  0
 27 26  1  0  0  0  0
M  END
>  <MODEL>
1

>  <REMARK>
 VINA RESULT:      -7.5      0.000      0.000
  Name = 
  1 active torsions:
  status: ('A' for Active; 'I' for Inactive)
    1  A    between atoms: N_9  and  C_15
                            x       y       z     vdW  Elec       q    Type
                         _______ _______ _______ _____ _____    ______ ____

>  <TORSDO>
F 1

$$$$
=
 OpenBabel11052418223D

 27 30  0  0  1  0  0  0  0  0999 V2000
  188.9190  175.0730  146.6600 C   0  0  0  0  0  2  0  0  0  0  0  0
  190.0740  174.0740  144.5410 C   0  0  0  0  0  0  0  0  0  0  0  0
  188.5540  175.7610  143.7110 O   0  0  0  0  0  0  0  0  0  0  0  0
  190.0540  171.9450  140.9690 C   0  0  0  0  0  3  0  0  0  0  0  0
  189.3280  171.5910  138.6060 C   0  0  0  0  0  1  0  0  0  0  0  0
  190.7870  172.9320  144.3610 N   0  0  0  0  0  0  0  0  0  0  0  0
  188.5380  174.2820  141.1410 C   0  0  0  0  0  3  0  0  0  0  0  0
  185.9200  176.6210  144.4800 N   0  0  0  0  0  2  0  0  0  0  0  0
  188.5540  173.5450  139.9540 C   0  0  0  0  0  3  0  0  0  0  0  0
  185.4460  177.5470  145.5010 C   0  0  0  0  0  2  0  0  0  0  0  0
  189.2880  174.5820  143.4840 C   0  0  0  0  0  0  0  0  0  0  0  0
  190.2110  174.7680  145.8720 C   0  0  1  0  0  3  0  0  0  0  0  0
  189.3110  172.3750  139.8680 C   0  0  0  0  0  0  0  0  0  0  0  0
  190.0400  172.6810  142.1560 C   0  0  0  0  0  0  0  0  0  0  0  0
  188.4200  176.4970  146.4950 C   0  0  0  0  0  2  0  0  0  0  0  0
  189.2760  173.8650  142.2600 C   0  0  0  0  0  0  0  0  0  0  0  0
  186.7610  177.3540  143.5460 C   0  0  0  0  0  2  0  0  0  0  0  0
  190.7690  172.2560  143.2150 N   0  0  0  0  0  0  0  0  0  0  0  0
  186.5390  177.8590  146.5220 C   0  0  0  0  0  2  0  0  0  0  0  0
  187.0950  176.6330  147.0720 N   0  0  0  0  0  2  0  0  0  0  0  0
  187.6530  176.3790  142.8000 C   0  0  0  0  0  2  0  0  0  0  0  0
  194.0510  176.6260  145.5690 C   0  0  0  0  0  2  0  0  0  0  0  0
  191.3300  175.7240  145.9390 N   0  0  0  0  0  0  0  0  0  0  0  0
  191.8540  175.9700  144.5910 C   0  0  0  0  0  2  0  0  0  0  0  0
  192.9230  177.0570  144.6380 C   0  0  0  0  0  2  0  0  0  0  0  0
  193.4940  176.2830  146.9470 C   0  0  0  0  0  2  0  0  0  0  0  0
  192.4020  175.2260  146.8060 C   0  0  0  0  0  2  0  0  0  0  0  0
  2 12  1  0  0  0  0
  4 14  1  0  0  0  0
  5 13  1  0  0  0  0
  6  2  1  0  0  0  0
  7 16  1  0  0  0  0
  8 10  1  0  0  0  0
  9  7  2  0  0  0  0
 10 19  1  0  0  0  0
 11  3  1  0  0  0  0
 11  2  2  0  0  0  0
 12 23  1  6  0  0  0
 12  1  1  0  0  0  0
 13  9  1  0  0  0  0
 13  4  2  0  0  0  0
 14 16  2  0  0  0  0
 14 18  1  0  0  0  0
 15  1  1  0  0  0  0
 15 20  1  0  0  0  0
 16 11  1  0  0  0  0
 17  8  1  0  0  0  0
 18  6  2  0  0  0  0
 19 20  1  0  0  0  0
 21 17  1  0  0  0  0
 21  3  1  0  0  0  0
 22 26  1  0  0  0  0
 23 27  1  0  0  0  0
 24 25  1  0  0  0  0
 24 23  1  0  0  0  0
 25 22  1  0  0  0  0
 27 26  1  0  0  0  0
M  END
>  <MODEL>
2

>  <REMARK>
 VINA RESULT:      -7.4      1.170      1.357
  Name = 
  1 active torsions:
  status: ('A' for Active; 'I' for Inactive)
    1  A    between atoms: N_9  and  C_15
                            x       y       z     vdW  Elec       q    Type
                         _______ _______ _______ _____ _____    ______ ____

>  <TORSDO>
F 1

$$$$
=
 OpenBabel11052418223D

 27 30  0  0  1  0  0  0  0  0999 V2000
  186.8720  179.1350  143.4350 C   0  0  0  0  0  2  0  0  0  0  0  0
  189.1800  177.9160  143.3510 C   0  0  0  0  0  0  0  0  0  0  0  0
  188.0160  176.9590  145.2410 O   0  0  0  0  0  0  0  0  0  0  0  0
  192.9350  176.9860  144.8790 C   0  0  0  0  0  3  0  0  0  0  0  0
  194.4390  176.0040  146.6130 C   0  0  0  0  0  1  0  0  0  0  0  0
  190.3340  178.2220  142.7040 N   0  0  0  0  0  0  0  0  0  0  0  0
  190.6760  176.2570  146.3460 C   0  0  0  0  0  3  0  0  0  0  0  0
  186.2590  178.0310  147.2490 N   0  0  0  0  0  2  0  0  0  0  0  0
  191.9520  175.9570  146.8320 C   0  0  0  0  0  3  0  0  0  0  0  0
  184.8260  178.3000  147.2620 C   0  0  0  0  0  2  0  0  0  0  0  0
  189.2310  177.2500  144.5940 C   0  0  0  0  0  0  0  0  0  0  0  0
  187.8890  178.2700  142.6590 C   0  0  1  0  0  3  0  0  0  0  0  0
  193.0820  176.3220  146.0980 C   0  0  0  0  0  0  0  0  0  0  0  0
  191.6600  177.2850  144.3910 C   0  0  0  0  0  0  0  0  0  0  0  0
  185.7600  178.3360  144.0890 C   0  0  0  0  0  2  0  0  0  0  0  0
  190.5070  176.9260  145.1240 C   0  0  0  0  0  0  0  0  0  0  0  0
  186.4600  176.6060  147.0390 C   0  0  0  0  0  2  0  0  0  0  0  0
  191.5310  177.9240  143.2050 N   0  0  0  0  0  0  0  0  0  0  0  0
  184.2440  178.2900  145.8490 C   0  0  0  0  0  2  0  0  0  0  0  0
  184.9890  179.1860  144.9780 N   0  0  0  0  0  2  0  0  0  0  0  0
  187.8670  176.3660  146.5260 C   0  0  0  0  0  2  0  0  0  0  0  0
  187.4410  175.5190  139.4150 C   0  0  0  0  0  2  0  0  0  0  0  0
  187.3900  177.2260  141.7470 N   0  0  0  0  0  0  0  0  0  0  0  0
  188.3780  176.1480  141.6380 C   0  0  0  0  0  2  0  0  0  0  0  0
  187.8130  175.0040  140.8010 C   0  0  0  0  0  2  0  0  0  0  0  0
  186.4820  176.6990  139.5320 C   0  0  0  0  0  2  0  0  0  0  0  0
  187.1020  177.7750  140.4190 C   0  0  0  0  0  2  0  0  0  0  0  0
  1 15  1  0  0  0  0
  2 11  1  0  0  0  0
  3 21  1  0  0  0  0
  4 13  2  0  0  0  0
  6 18  1  0  0  0  0
  6  2  2  0  0  0  0
  7  9  2  0  0  0  0
  8 10  1  0  0  0  0
 11 16  2  0  0  0  0
 11  3  1  0  0  0  0
 12 23  1  1  0  0  0
 12  2  1  0  0  0  0
 12  1  1  0  0  0  0
 13  5  1  0  0  0  0
 13  9  1  0  0  0  0
 14  4  1  0  0  0  0
 14 16  1  0  0  0  0
 15 20  1  0  0  0  0
 16  7  1  0  0  0  0
 17  8  1  0  0  0  0
 18 14  2  0  0  0  0
 19 10  1  0  0  0  0
 20 19  1  0  0  0  0
 21 17  1  0  0  0  0
 22 26  1  0  0  0  0
 22 25  1  0  0  0  0
 24 23  1  0  0  0  0
 25 24  1  0  0  0  0
 26 27  1  0  0  0  0
 27 23  1  0  0  0  0
M  END
>  <MODEL>
3

>  <REMARK>
 VINA RESULT:      -7.3      2.000      5.805
  Name = 
  1 active torsions:
  status: ('A' for Active; 'I' for Inactive)
    1  A    between atoms: N_9  and  C_15
                            x       y       z     vdW  Elec       q    Type
                         _______ _______ _______ _____ _____    ______ ____

>  <TORSDO>
F 1

$$$$
=
 OpenBabel11052418223D

 27 30  0  0  1  0  0  0  0  0999 V2000
  192.9100  174.6840  141.7850 C   0  0  0  0  0  2  0  0  0  0  0  0
  191.1030  176.2780  142.7930 C   0  0  0  0  0  0  0  0  0  0  0  0
  190.1200  174.0690  142.8530 O   0  0  0  0  0  0  0  0  0  0  0  0
  187.4090  178.1890  142.7440 C   0  0  0  0  0  3  0  0  0  0  0  0
  184.9130  178.1830  142.7620 C   0  0  0  0  0  1  0  0  0  0  0  0
  190.9740  177.6290  142.7520 N   0  0  0  0  0  0  0  0  0  0  0  0
  187.4710  175.4010  142.8470 C   0  0  0  0  0  3  0  0  0  0  0  0
  190.1970  171.8060  141.0820 N   0  0  0  0  0  2  0  0  0  0  0  0
  186.2460  176.0730  142.8310 C   0  0  0  0  0  3  0  0  0  0  0  0
  191.1580  170.7240  140.9090 C   0  0  0  0  0  2  0  0  0  0  0  0
  189.9480  175.4660  142.8240 C   0  0  0  0  0  0  0  0  0  0  0  0
  192.5020  175.7220  142.8540 C   0  0  1  0  0  3  0  0  0  0  0  0
  186.2140  177.4670  142.7790 C   0  0  0  0  0  0  0  0  0  0  0  0
  188.6350  177.5190  142.7610 C   0  0  0  0  0  0  0  0  0  0  0  0
  192.8180  173.2460  142.2580 C   0  0  0  0  0  2  0  0  0  0  0  0
  188.6830  176.1080  142.8100 C   0  0  0  0  0  0  0  0  0  0  0  0
  189.6720  171.7450  142.4370 C   0  0  0  0  0  2  0  0  0  0  0  0
  189.7860  178.2300  142.7320 N   0  0  0  0  0  0  0  0  0  0  0  0
  192.4900  171.0470  141.5830 C   0  0  0  0  0  2  0  0  0  0  0  0
  192.9930  172.3380  141.1390 N   0  0  0  0  0  2  0  0  0  0  0  0
  189.0860  173.0940  142.8110 C   0  0  0  0  0  2  0  0  0  0  0  0
  194.1480  176.5210  146.7190 C   0  0  0  0  0  2  0  0  0  0  0  0
  193.0360  175.5870  144.2200 N   0  0  0  0  0  0  0  0  0  0  0  0
  192.2150  176.3650  145.1530 C   0  0  0  0  0  2  0  0  0  0  0  0
  192.6820  176.1240  146.5850 C   0  0  0  0  0  2  0  0  0  0  0  0
  194.9900  175.7770  145.6870 C   0  0  0  0  0  2  0  0  0  0  0  0
  194.4300  176.0330  144.2910 C   0  0  0  0  0  2  0  0  0  0  0  0
  1 15  1  0  0  0  0
  2 11  1  0  0  0  0
  2 12  1  0  0  0  0
  4 14  1  0  0  0  0
  4 13  2  0  0  0  0
  5 13  1  0  0  0  0
  6  2  2  0  0  0  0
  8 17  1  0  0  0  0
  9  7  2  0  0  0  0
 10  8  1  0  0  0  0
 10 19  1  0  0  0  0
 11  3  1  0  0  0  0
 12  1  1  1  0  0  0
 12 23  1  0  0  0  0
 13  9  1  0  0  0  0
 14 16  1  0  0  0  0
 16 11  2  0  0  0  0
 16  7  1  0  0  0  0
 17 21  1  0  0  0  0
 18  6  1  0  0  0  0
 18 14  2  0  0  0  0
 20 19  1  0  0  0  0
 20 15  1  0  0  0  0
 21  3  1  0  0  0  0
 23 27  1  0  0  0  0
 23 24  1  0  0  0  0
 24 25  1  0  0  0  0
 25 22  1  0  0  0  0
 26 22  1  0  0  0  0
 27 26  1  0  0  0  0
M  END
>  <MODEL>
4

>  <REMARK>
 VINA RESULT:      -7.0      2.977      5.812
  Name = 
  1 active torsions:
  status: ('A' for Active; 'I' for Inactive)
    1  A    between atoms: N_9  and  C_15
                            x       y       z     vdW  Elec       q    Type
                         _______ _______ _______ _____ _____    ______ ____

>  <TORSDO>
F 1

$$$$
=
 OpenBabel11052418223D

 27 30  0  0  1  0  0  0  0  0999 V2000
  189.5780  177.7260  145.0550 C   0  0  0  0  0  2  0  0  0  0  0  0
  187.8360  177.5630  143.1160 C   0  0  0  0  0  0  0  0  0  0  0  0
  188.8600  175.3770  143.2460 O   0  0  0  0  0  0  0  0  0  0  0  0
  186.7720  177.0980  139.1210 C   0  0  0  0  0  3  0  0  0  0  0  0
  186.6650  175.7920  136.9970 C   0  0  0  0  0  1  0  0  0  0  0  0
  187.1840  178.5240  142.4110 N   0  0  0  0  0  0  0  0  0  0  0  0
  188.0930  175.0020  140.4060 C   0  0  0  0  0  3  0  0  0  0  0  0
  191.5330  174.4590  143.7740 N   0  0  0  0  0  2  0  0  0  0  0  0
  187.7200  174.8760  139.0650 C   0  0  0  0  0  3  0  0  0  0  0  0
  192.2650  174.2190  145.0120 C   0  0  0  0  0  2  0  0  0  0  0  0
  188.1750  176.3450  142.4880 C   0  0  0  0  0  0  0  0  0  0  0  0
  188.1170  177.8470  144.5680 C   0  0  1  0  0  3  0  0  0  0  0  0
  187.0610  175.9250  138.4220 C   0  0  0  0  0  0  0  0  0  0  0  0
  187.1430  177.2260  140.4630 C   0  0  0  0  0  0  0  0  0  0  0  0
  189.8920  176.4060  145.7340 C   0  0  0  0  0  2  0  0  0  0  0  0
  187.8140  176.1740  141.1270 C   0  0  0  0  0  0  0  0  0  0  0  0
  190.3750  173.5780  143.7450 C   0  0  0  0  0  2  0  0  0  0  0  0
  186.8520  178.3660  141.1320 N   0  0  0  0  0  0  0  0  0  0  0  0
  191.5710  174.8710  146.2060 C   0  0  0  0  0  2  0  0  0  0  0  0
  191.3220  176.2820  145.9490 N   0  0  0  0  0  2  0  0  0  0  0  0
  189.3500  174.1290  142.7710 C   0  0  0  0  0  2  0  0  0  0  0  0
  184.8990  177.8980  147.3840 C   0  0  0  0  0  2  0  0  0  0  0  0
  187.0270  177.4570  145.4790 N   0  0  0  0  0  0  0  0  0  0  0  0
  185.7760  178.0960  145.0590 C   0  0  0  0  0  2  0  0  0  0  0  0
  184.6190  177.5920  145.9160 C   0  0  0  0  0  2  0  0  0  0  0  0
  186.2430  177.3090  147.7970 C   0  0  0  0  0  2  0  0  0  0  0  0
  187.3350  177.8250  146.8640 C   0  0  0  0  0  2  0  0  0  0  0  0
  1 15  1  0  0  0  0
  2 12  1  0  0  0  0
  4 14  1  0  0  0  0
  5 13  1  0  0  0  0
  6  2  2  0  0  0  0
  7 16  1  0  0  0  0
  8 10  1  0  0  0  0
  9  7  2  0  0  0  0
 10 19  1  0  0  0  0
 11  2  1  0  0  0  0
 11  3  1  0  0  0  0
 12  1  1  1  0  0  0
 12 23  1  0  0  0  0
 13  9  1  0  0  0  0
 13  4  2  0  0  0  0
 14 16  1  0  0  0  0
 14 18  2  0  0  0  0
 15 20  1  0  0  0  0
 16 11  2  0  0  0  0
 17  8  1  0  0  0  0
 18  6  1  0  0  0  0
 20 19  1  0  0  0  0
 21  3  1  0  0  0  0
 21 17  1  0  0  0  0
 22 26  1  0  0  0  0
 23 27  1  0  0  0  0
 24 23  1  0  0  0  0
 24 25  1  0  0  0  0
 25 22  1  0  0  0  0
 27 26  1  0  0  0  0
M  END
>  <MODEL>
5

>  <REMARK>
 VINA RESULT:      -7.0      1.837      5.049
  Name = 
  1 active torsions:
  status: ('A' for Active; 'I' for Inactive)
    1  A    between atoms: N_9  and  C_15
                            x       y       z     vdW  Elec       q    Type
                         _______ _______ _______ _____ _____    ______ ____

>  <TORSDO>
F 1

$$$$
=
 OpenBabel11052418223D

 27 30  0  0  1  0  0  0  0  0999 V2000
  189.0820  177.9160  144.7260 C   0  0  0  0  0  2  0  0  0  0  0  0
  188.0580  176.5680  142.7360 C   0  0  0  0  0  0  0  0  0  0  0  0
  189.0170  174.9090  144.2110 O   0  0  0  0  0  0  0  0  0  0  0  0
  188.3420  174.1140  139.3900 C   0  0  0  0  0  3  0  0  0  0  0  0
  188.9420  171.9700  138.2610 C   0  0  0  0  0  1  0  0  0  0  0  0
  187.6540  176.9600  141.5000 N   0  0  0  0  0  0  0  0  0  0  0  0
  189.2090  173.1250  141.8510 C   0  0  0  0  0  3  0  0  0  0  0  0
  191.3910  174.8190  145.8310 N   0  0  0  0  0  2  0  0  0  0  0  0
  189.2890  172.3240  140.7080 C   0  0  0  0  0  3  0  0  0  0  0  0
  191.6890  175.3160  147.1690 C   0  0  0  0  0  2  0  0  0  0  0  0
  188.5980  175.2760  142.9190 C   0  0  0  0  0  0  0  0  0  0  0  0
  187.8540  177.5420  143.8670 C   0  0  1  0  0  3  0  0  0  0  0  0
  188.8570  172.8190  139.4770 C   0  0  0  0  0  0  0  0  0  0  0  0
  188.2600  174.9160  140.5320 C   0  0  0  0  0  0  0  0  0  0  0  0
  189.1800  177.1430  146.0270 C   0  0  0  0  0  2  0  0  0  0  0  0
  188.6970  174.4300  141.7840 C   0  0  0  0  0  0  0  0  0  0  0  0
  190.3160  173.8430  145.9300 C   0  0  0  0  0  2  0  0  0  0  0  0
  187.7540  176.1680  140.4350 N   0  0  0  0  0  0  0  0  0  0  0  0
  190.6390  176.3210  147.6380 C   0  0  0  0  0  2  0  0  0  0  0  0
  190.4650  177.3810  146.6560 N   0  0  0  0  0  2  0  0  0  0  0  0
  189.6510  173.6890  144.5750 C   0  0  0  0  0  2  0  0  0  0  0  0
  184.4930  178.0990  146.4520 C   0  0  0  0  0  2  0  0  0  0  0  0
  186.5340  177.4420  144.5150 N   0  0  0  0  0  0  0  0  0  0  0  0
  185.8600  178.7430  144.4700 C   0  0  0  0  0  2  0  0  0  0  0  0
  184.4420  178.6160  145.0190 C   0  0  0  0  0  2  0  0  0  0  0  0
  185.2720  176.7900  146.5130 C   0  0  0  0  0  2  0  0  0  0  0  0
  186.6580  176.9920  145.9040 C   0  0  0  0  0  2  0  0  0  0  0  0
  1 15  1  0  0  0  0
  2 11  1  0  0  0  0
  2 12  1  0  0  0  0
  3 21  1  0  0  0  0
  4 13  2  0  0  0  0
  4 14  1  0  0  0  0
  5 13  1  0  0  0  0
  6  2  2  0  0  0  0
  8 17  1  0  0  0  0
  8 10  1  0  0  0  0
  9  7  2  0  0  0  0
 10 19  1  0  0  0  0
 11  3  1  0  0  0  0
 12 23  1  1  0  0  0
 12  1  1  0  0  0  0
 13  9  1  0  0  0  0
 14 16  1  0  0  0  0
 15 20  1  0  0  0  0
 16  7  1  0  0  0  0
 16 11  2  0  0  0  0
 18 14  2  0  0  0  0
 18  6  1  0  0  0  0
 20 19  1  0  0  0  0
 21 17  1  0  0  0  0
 22 26  1  0  0  0  0
 23 27  1  0  0  0  0
 24 23  1  0  0  0  0
 24 25  1  0  0  0  0
 25 22  1  0  0  0  0
 27 26  1  0  0  0  0
M  END
>  <MODEL>
6

>  <REMARK>
 VINA RESULT:      -6.9      1.726      4.798
  Name = 
  1 active torsions:
  status: ('A' for Active; 'I' for Inactive)
    1  A    between atoms: N_9  and  C_15
                            x       y       z     vdW  Elec       q    Type
                         _______ _______ _______ _____ _____    ______ ____

>  <TORSDO>
F 1

$$$$
=
 OpenBabel11052418223D

 27 30  0  0  1  0  0  0  0  0999 V2000
  187.9020  175.9330  145.3780 C   0  0  0  0  0  2  0  0  0  0  0  0
  189.3190  174.5030  143.7140 C   0  0  0  0  0  0  0  0  0  0  0  0
  188.2780  176.2180  142.3640 O   0  0  0  0  0  0  0  0  0  0  0  0
  189.7390  171.8880  140.5060 C   0  0  0  0  0  3  0  0  0  0  0  0
  189.4870  171.2790  138.0980 C   0  0  0  0  0  1  0  0  0  0  0  0
  189.8750  173.2700  143.8370 N   0  0  0  0  0  0  0  0  0  0  0  0
  188.5870  174.3890  140.0510 C   0  0  0  0  0  3  0  0  0  0  0  0
  185.6990  177.4890  142.4010 N   0  0  0  0  0  2  0  0  0  0  0  0
  188.7440  173.4880  138.9940 C   0  0  0  0  0  3  0  0  0  0  0  0
  185.1630  178.6060  143.1690 C   0  0  0  0  0  2  0  0  0  0  0  0
  188.8590  174.9390  142.4520 C   0  0  0  0  0  0  0  0  0  0  0  0
  189.2720  175.3630  144.9490 C   0  0  1  0  0  3  0  0  0  0  0  0
  189.3200  172.2370  139.2210 C   0  0  0  0  0  0  0  0  0  0  0  0
  189.5840  172.7880  141.5640 C   0  0  0  0  0  0  0  0  0  0  0  0
  187.6680  177.3660  144.9370 C   0  0  0  0  0  2  0  0  0  0  0  0
  189.0000  174.0560  141.3500 C   0  0  0  0  0  0  0  0  0  0  0  0
  186.8190  177.9710  141.6060 C   0  0  0  0  0  2  0  0  0  0  0  0
  190.0010  172.4390  142.8050 N   0  0  0  0  0  0  0  0  0  0  0  0
  186.0480  178.9320  144.3710 C   0  0  0  0  0  2  0  0  0  0  0  0
  186.2870  177.7430  145.1740 N   0  0  0  0  0  2  0  0  0  0  0  0
  187.6930  176.7980  141.2050 C   0  0  0  0  0  2  0  0  0  0  0  0
  193.2970  176.8100  144.9890 C   0  0  0  0  0  2  0  0  0  0  0  0
  190.4810  176.1780  145.1590 N   0  0  0  0  0  0  0  0  0  0  0  0
  191.0920  176.5030  143.8670 C   0  0  0  0  0  2  0  0  0  0  0  0
  192.2670  177.4560  144.0690 C   0  0  0  0  0  2  0  0  0  0  0  0
  192.6410  176.3900  146.3010 C   0  0  0  0  0  2  0  0  0  0  0  0
  191.4520  175.4800  146.0080 C   0  0  0  0  0  2  0  0  0  0  0  0
  2  6  1  0  0  0  0
  2 12  1  0  0  0  0
  3 11  1  0  0  0  0
  4 14  1  0  0  0  0
  5 13  1  0  0  0  0
  7 16  1  0  0  0  0
  8 10  1  0  0  0  0
  9 13  1  0  0  0  0
  9  7  2  0  0  0  0
 10 19  1  0  0  0  0
 11  2  2  0  0  0  0
 12 23  1  6  0  0  0
 12  1  1  0  0  0  0
 13  4  2  0  0  0  0
 14 18  1  0  0  0  0
 15 20  1  0  0  0  0
 15  1  1  0  0  0  0
 16 14  2  0  0  0  0
 16 11  1  0  0  0  0
 17  8  1  0  0  0  0
 18  6  2  0  0  0  0
 19 20  1  0  0  0  0
 21 17  1  0  0  0  0
 21  3  1  0  0  0  0
 22 26  1  0  0  0  0
 23 27  1  0  0  0  0
 24 25  1  0  0  0  0
 24 23  1  0  0  0  0
 25 22  1  0  0  0  0
 27 26  1  0  0  0  0
M  END
>  <MODEL>
7

>  <REMARK>
 VINA RESULT:      -6.9      1.309      1.827
  Name = 
  1 active torsions:
  status: ('A' for Active; 'I' for Inactive)
    1  A    between atoms: N_9  and  C_15
                            x       y       z     vdW  Elec       q    Type
                         _______ _______ _______ _____ _____    ______ ____

>  <TORSDO>
F 1

$$$$
=
 OpenBabel11052418223D

 27 30  0  0  1  0  0  0  0  0999 V2000
  187.3760  177.5470  141.2080 C   0  0  0  0  0  2  0  0  0  0  0  0
  189.1240  176.5640  142.8810 C   0  0  0  0  0  0  0  0  0  0  0  0
  187.0940  176.8460  144.1640 O   0  0  0  0  0  0  0  0  0  0  0  0
  191.5680  176.7850  146.2390 C   0  0  0  0  0  3  0  0  0  0  0  0
  191.9380  177.0260  148.6970 C   0  0  0  0  0  1  0  0  0  0  0  0
  190.4770  176.4700  142.8140 N   0  0  0  0  0  0  0  0  0  0  0  0
  188.8050  176.9800  146.5810 C   0  0  0  0  0  3  0  0  0  0  0  0
  185.0190  178.8350  144.1950 N   0  0  0  0  0  2  0  0  0  0  0  0
  189.6530  177.0490  147.6900 C   0  0  0  0  0  3  0  0  0  0  0  0
  183.8240  179.0250  143.3820 C   0  0  0  0  0  2  0  0  0  0  0  0
  188.4970  176.7410  144.1340 C   0  0  0  0  0  0  0  0  0  0  0  0
  188.3600  176.4200  141.5910 C   0  0  1  0  0  3  0  0  0  0  0  0
  191.0350  176.9520  147.5190 C   0  0  0  0  0  0  0  0  0  0  0  0
  190.7210  176.7150  145.1300 C   0  0  0  0  0  0  0  0  0  0  0  0
  185.9300  177.2450  141.5560 C   0  0  0  0  0  2  0  0  0  0  0  0
  189.3210  176.8150  145.2860 C   0  0  0  0  0  0  0  0  0  0  0  0
  184.9120  177.5560  144.8810 C   0  0  0  0  0  2  0  0  0  0  0  0
  191.2500  176.5470  143.8950 N   0  0  0  0  0  0  0  0  0  0  0  0
  183.8780  178.1850  142.1070 C   0  0  0  0  0  2  0  0  0  0  0  0
  185.1140  178.4320  141.3790 N   0  0  0  0  0  2  0  0  0  0  0  0
  186.2940  177.1000  145.3120 C   0  0  0  0  0  2  0  0  0  0  0  0
  188.5570  172.2400  140.7060 C   0  0  0  0  0  2  0  0  0  0  0  0
  188.0200  175.0280  141.2460 N   0  0  0  0  0  0  0  0  0  0  0  0
  188.4430  174.1310  142.3260 C   0  0  0  0  0  2  0  0  0  0  0  0
  187.9770  172.7080  142.0360 C   0  0  0  0  0  2  0  0  0  0  0  0
  188.1920  173.2220  139.5980 C   0  0  0  0  0  2  0  0  0  0  0  0
  188.6510  174.6250  139.9860 C   0  0  0  0  0  2  0  0  0  0  0  0
  1 15  1  0  0  0  0
  2 11  1  0  0  0  0
  3 21  1  0  0  0  0
  4 13  2  0  0  0  0
  6  2  2  0  0  0  0
  6 18  1  0  0  0  0
  7  9  2  0  0  0  0
  8 17  1  0  0  0  0
 10  8  1  0  0  0  0
 11  3  1  0  0  0  0
 11 16  2  0  0  0  0
 12  1  1  1  0  0  0
 12  2  1  0  0  0  0
 13  9  1  0  0  0  0
 13  5  1  0  0  0  0
 14 16  1  0  0  0  0
 14  4  1  0  0  0  0
 16  7  1  0  0  0  0
 17 21  1  0  0  0  0
 18 14  2  0  0  0  0
 19 10  1  0  0  0  0
 20 15  1  0  0  0  0
 20 19  1  0  0  0  0
 22 25  1  0  0  0  0
 23 12  1  0  0  0  0
 23 24  1  0  0  0  0
 25 24  1  0  0  0  0
 26 27  1  0  0  0  0
 26 22  1  0  0  0  0
 27 23  1  0  0  0  0
M  END
>  <MODEL>
8

>  <REMARK>
 VINA RESULT:      -6.7      1.875      5.918
  Name = 
  1 active torsions:
  status: ('A' for Active; 'I' for Inactive)
    1  A    between atoms: N_9  and  C_15
                            x       y       z     vdW  Elec       q    Type
                         _______ _______ _______ _____ _____    ______ ____

>  <TORSDO>
F 1

$$$$
=
 OpenBabel11052418223D

 27 30  0  0  1  0  0  0  0  0999 V2000
  190.1160  177.4920  144.9010 C   0  0  0  0  0  2  0  0  0  0  0  0
  188.6660  176.3820  143.0340 C   0  0  0  0  0  0  0  0  0  0  0  0
  190.0660  174.6110  143.8990 O   0  0  0  0  0  0  0  0  0  0  0  0
  188.1650  174.5200  139.3480 C   0  0  0  0  0  3  0  0  0  0  0  0
  188.5470  172.6440  137.7450 C   0  0  0  0  0  1  0  0  0  0  0  0
  187.9260  176.9220  142.0310 N   0  0  0  0  0  0  0  0  0  0  0  0
  189.7070  173.2430  141.2930 C   0  0  0  0  0  3  0  0  0  0  0  0
  192.7880  174.4940  144.8170 N   0  0  0  0  0  2  0  0  0  0  0  0
  189.5190  172.6430  140.0450 C   0  0  0  0  0  3  0  0  0  0  0  0
  193.4090  174.8010  146.1000 C   0  0  0  0  0  2  0  0  0  0  0  0
  189.2980  175.1340  142.8420 C   0  0  0  0  0  0  0  0  0  0  0  0
  188.7230  177.1430  144.3330 C   0  0  1  0  0  3  0  0  0  0  0  0
  188.7480  173.2810  139.0720 C   0  0  0  0  0  0  0  0  0  0  0  0
  188.3520  175.1210  140.5960 C   0  0  0  0  0  0  0  0  0  0  0  0
  190.5970  176.5380  145.9770 C   0  0  0  0  0  2  0  0  0  0  0  0
  189.1320  174.4890  141.5900 C   0  0  0  0  0  0  0  0  0  0  0  0
  191.8300  173.4170  145.0140 C   0  0  0  0  0  2  0  0  0  0  0  0
  187.7760  176.3190  140.8530 N   0  0  0  0  0  0  0  0  0  0  0  0
  192.4740  175.6160  146.9910 C   0  0  0  0  0  2  0  0  0  0  0  0
  191.9910  176.7960  146.2880 N   0  0  0  0  0  2  0  0  0  0  0  0
  190.8340  173.4140  143.8690 C   0  0  0  0  0  2  0  0  0  0  0  0
  185.3490  177.3780  146.9510 C   0  0  0  0  0  2  0  0  0  0  0  0
  187.6320  176.8180  145.2680 N   0  0  0  0  0  0  0  0  0  0  0  0
  186.3430  177.1830  144.6720 C   0  0  0  0  0  2  0  0  0  0  0  0
  185.2020  176.7300  145.5780 C   0  0  0  0  0  2  0  0  0  0  0  0
  186.7260  177.0720  147.5320 C   0  0  0  0  0  2  0  0  0  0  0  0
  187.8050  177.5140  146.5470 C   0  0  0  0  0  2  0  0  0  0  0  0
  1 15  1  0  0  0  0
  2 12  1  0  0  0  0
  4 14  1  0  0  0  0
  5 13  1  0  0  0  0
  6  2  2  0  0  0  0
  7 16  1  0  0  0  0
  8 17  1  0  0  0  0
  8 10  1  0  0  0  0
  9  7  2  0  0  0  0
 10 19  1  0  0  0  0
 11  2  1  0  0  0  0
 11  3  1  0  0  0  0
 12  1  1  1  0  0  0
 12 23  1  0  0  0  0
 13  4  2  0  0  0  0
 13  9  1  0  0  0  0
 14 18  2  0  0  0  0
 14 16  1  0  0  0  0
 15 20  1  0  0  0  0
 16 11  2  0  0  0  0
 18  6  1  0  0  0  0
 20 19  1  0  0  0  0
 21  3  1  0  0  0  0
 21 17  1  0  0  0  0
 22 26  1  0  0  0  0
 23 27  1  0  0  0  0
 24 23  1  0  0  0  0
 24 25  1  0  0  0  0
 25 22  1  0  0  0  0
 27 26  1  0  0  0  0
M  END
>  <MODEL>
9

>  <REMARK>
 VINA RESULT:      -6.6      1.972      4.891
  Name = 
  1 active torsions:
  status: ('A' for Active; 'I' for Inactive)
    1  A    between atoms: N_9  and  C_15
                            x       y       z     vdW  Elec       q    Type
                         _______ _______ _______ _____ _____    ______ ____

>  <TORSDO>
F 1

$$$$
