=
 OpenBabel11052420473D

 43 47  0  0  1  0  0  0  0  0999 V2000
  185.5810  178.3840  146.8450 C   0  0  1  0  0  3  0  0  0  0  0  0
  190.0390  176.1110  146.0170 C   0  0  1  0  0  3  0  0  0  0  0  0
  190.0590  175.0780  143.3800 C   0  0  0  0  0  0  0  0  0  0  0  0
  187.2720  176.4910  146.6140 C   0  0  0  0  0  0  0  0  0  0  0  0
  186.4540  179.0560  145.8630 N   0  0  0  0  0  2  0  0  0  0  0  0
  184.1250  178.5120  146.4370 C   0  0  0  0  0  1  0  0  0  0  0  0
  187.7560  177.0690  145.4930 C   0  0  0  0  0  0  0  0  0  0  0  0
  185.9190  176.9040  147.1250 C   0  0  0  0  0  2  0  0  0  0  0  0
  186.9320  178.1260  144.8380 C   0  0  0  0  0  2  0  0  0  0  0  0
  189.0330  175.9480  143.7760 O   0  0  0  0  0  0  0  0  0  0  0  0
  189.1310  176.7590  144.9520 C   0  0  2  0  0  3  0  0  0  0  0  0
  189.3020  174.9750  146.7160 C   0  0  0  0  0  2  0  0  0  0  0  0
  191.3420  175.6180  145.3910 C   0  0  1  0  0  3  0  0  0  0  0  0
  191.0940  174.8790  144.1470 N   0  0  0  0  0  0  0  0  0  0  0  0
  188.0920  175.5450  147.4570 C   0  0  0  0  0  2  0  0  0  0  0  0
  189.9390  174.3280  142.0820 C   0  0  1  0  0  3  0  0  0  0  0  0
  190.7150  173.0160  142.1790 C   0  0  0  0  0  1  0  0  0  0  0  0
  188.4560  174.1400  141.7060 C   0  0  2  0  0  3  0  0  0  0  0  0
  188.1430  172.7480  141.1700 C   0  0  0  0  0  1  0  0  0  0  0  0
  188.2450  174.9600  139.4960 O   0  0  0  0  0  0  0  0  0  0  0  0
  188.0420  175.1630  140.6900 C   0  0  0  0  0  0  0  0  0  0  0  0
  187.3340  176.4040  141.1230 C   0  0  0  0  0  2  0  0  0  0  0  0
  186.6160  177.0340  139.9460 C   0  0  0  0  0  2  0  0  0  0  0  0
  185.7320  178.1660  140.4290 C   0  0  0  0  0  2  0  0  0  0  0  0
  184.2760  177.8050  140.1960 C   0  0  0  0  0  2  0  0  0  0  0  0
  183.3930  178.4380  141.2640 C   0  0  2  0  0  3  0  0  0  0  0  0
  183.9560  178.1050  142.6350 C   0  0  0  0  0  1  0  0  0  0  0  0
  182.0410  177.9190  141.1580 N   0  0  0  0  0  2  0  0  0  0  0  0
  181.1460  179.0550  140.9770 C   0  0  2  0  0  3  0  0  0  0  0  0
  178.3090  177.1720  141.1880 C   0  0  0  0  0  1  0  0  0  0  0  0
  179.3530  178.7570  142.4890 N   0  0  0  0  0  2  0  0  0  0  0  0
  178.8120  178.5370  141.2080 N   0  0  0  0  0  0  0  0  0  0  0  0
  180.6020  179.4810  142.3060 C   0  0  0  0  0  2  0  0  0  0  0  0
  179.9100  178.6020  140.2450 C   0  0  0  0  0  2  0  0  0  0  0  0
  192.2610  176.8090  145.1250 C   0  0  0  0  0  2  0  0  0  0  0  0
  194.9140  174.4260  146.0230 C   0  0  0  0  0  2  0  0  0  0  0  0
  196.0320  174.4910  144.6320 S   0  0  0  0  0  0  0  0  0  0  0  0
  197.4540  174.3770  145.1110 O   0  0  0  0  0  0  0  0  0  0  0  0
  194.3670  176.4890  143.9210 C   0  0  0  0  0  3  0  0  0  0  0  0
  194.3470  175.8180  146.3070 C   0  0  0  0  0  2  0  0  0  0  0  0
  193.6950  176.3980  145.0770 C   0  0  0  0  0  0  0  0  0  0  0  0
  195.7240  173.3630  143.6870 O   0  0  0  0  0  0  0  0  0  0  0  0
  195.8000  176.0530  143.7970 C   0  0  0  0  0  2  0  0  0  0  0  0
  1  6  1  6  0  0  0
  1  8  1  0  0  0  0
  2 12  1  6  0  0  0
  3 10  1  0  0  0  0
  3 14  2  0  0  0  0
  4  8  1  0  0  0  0
  4 15  1  0  0  0  0
  5  1  1  0  0  0  0
  7  4  2  0  0  0  0
  9  7  1  0  0  0  0
  9  5  1  0  0  0  0
 11 10  1  6  0  0  0
 11  7  1  0  0  0  0
 11  2  1  0  0  0  0
 12 15  1  0  0  0  0
 13 35  1  6  0  0  0
 13  2  1  0  0  0  0
 14 13  1  0  0  0  0
 16 17  1  1  0  0  0
 16  3  1  0  0  0  0
 18 19  1  6  0  0  0
 18 16  1  0  0  0  0
 20 21  2  0  0  0  0
 21 22  1  0  0  0  0
 21 18  1  0  0  0  0
 23 24  1  0  0  0  0
 23 22  1  0  0  0  0
 25 24  1  0  0  0  0
 25 26  1  0  0  0  0
 26 27  1  1  0  0  0
 28 26  1  0  0  0  0
 29 28  1  1  0  0  0
 29 33  1  0  0  0  0
 30 32  1  0  0  0  0
 32 31  1  0  0  0  0
 33 31  1  0  0  0  0
 34 29  1  0  0  0  0
 34 32  1  0  0  0  0
 36 40  1  0  0  0  0
 37 38  2  0  0  0  0
 37 36  1  0  0  0  0
 39 41  2  0  0  0  0
 41 35  1  0  0  0  0
 41 40  1  0  0  0  0
 42 37  2  0  0  0  0
 43 39  1  0  0  0  0
 43 37  1  0  0  0  0
M  END
>  <MODEL>
1

>  <REMARK>
 VINA RESULT:      -7.9      0.000      0.000
  Name = 
  12 active torsions:
  status: ('A' for Active; 'I' for Inactive)
    1  A    between atoms: C_1  and  C_34
    2  A    between atoms: C_1  and  C_35
    3  A    between atoms: C_2  and  C_6
    4  A    between atoms: C_2  and  C_13
    5  A    between atoms: C_4  and  C_12
    6  A    between atoms: C_4  and  C_15
    7  A    between atoms: C_6  and  C_12
    8  A    between atoms: C_10  and  C_22
    9  A    between atoms: C_10  and  C_42
   10  A    between atoms: C_11  and  N_14
   11  A    between atoms: N_14  and  C_22
   12  A    between atoms: C_15  and  C_42
                            x       y       z     vdW  Elec       q    Type
                         _______ _______ _______ _____ _____    ______ ____

>  <TORSDO>
F 12

$$$$
=
 OpenBabel11052420473D

 43 47  0  0  1  0  0  0  0  0999 V2000
  189.7870  171.9960  140.6340 C   0  0  1  0  0  3  0  0  0  0  0  0
  189.9810  174.9430  144.7570 C   0  0  1  0  0  3  0  0  0  0  0  0
  192.5590  176.1040  144.9270 C   0  0  0  0  0  0  0  0  0  0  0  0
  190.3220  172.6980  143.0250 C   0  0  0  0  0  0  0  0  0  0  0  0
  189.8960  173.4430  140.3650 N   0  0  0  0  0  2  0  0  0  0  0  0
  190.5670  171.2040  139.6000 C   0  0  0  0  0  1  0  0  0  0  0  0
  190.7270  173.9050  142.5720 C   0  0  0  0  0  0  0  0  0  0  0  0
  190.2010  171.5560  142.0540 C   0  0  0  0  0  2  0  0  0  0  0  0
  190.9960  174.0520  141.1130 C   0  0  0  0  0  2  0  0  0  0  0  0
  192.1780  175.4310  143.7570 O   0  0  0  0  0  0  0  0  0  0  0  0
  190.8100  175.1170  143.4680 C   0  0  2  0  0  3  0  0  0  0  0  0
  190.2820  173.5930  145.3960 C   0  0  0  0  0  2  0  0  0  0  0  0
  190.2510  176.0870  145.7340 C   0  0  1  0  0  3  0  0  0  0  0  0
  191.6880  176.3540  145.8640 N   0  0  0  0  0  0  0  0  0  0  0  0
  189.8500  172.4800  144.4420 C   0  0  0  0  0  2  0  0  0  0  0  0
  193.9990  176.4930  145.1240 C   0  0  1  0  0  3  0  0  0  0  0  0
  194.2400  176.8180  146.5980 C   0  0  0  0  0  1  0  0  0  0  0  0
  194.9310  175.3970  144.5750 C   0  0  2  0  0  3  0  0  0  0  0  0
  195.7950  174.7480  145.6490 C   0  0  0  0  0  1  0  0  0  0  0  0
  196.4570  176.9860  143.7080 O   0  0  0  0  0  0  0  0  0  0  0  0
  195.8190  175.9560  143.5020 C   0  0  0  0  0  0  0  0  0  0  0  0
  195.9710  175.2340  142.2050 C   0  0  0  0  0  2  0  0  0  0  0  0
  194.6350  174.6770  141.7570 C   0  0  0  0  0  2  0  0  0  0  0  0
  194.7930  173.2250  141.3500 C   0  0  0  0  0  2  0  0  0  0  0  0
  194.2540  172.3300  142.4510 C   0  0  0  0  0  2  0  0  0  0  0  0
  194.6900  170.8890  142.2260 C   0  0  2  0  0  3  0  0  0  0  0  0
  193.5290  170.1050  141.6370 C   0  0  0  0  0  1  0  0  0  0  0  0
  195.0870  170.2900  143.4890 N   0  0  0  0  0  2  0  0  0  0  0  0
  195.6910  171.3380  144.3020 C   0  0  2  0  0  3  0  0  0  0  0  0
  196.3870  169.2550  146.9130 C   0  0  0  0  0  1  0  0  0  0  0  0
  197.6020  170.3910  145.3230 N   0  0  0  0  0  2  0  0  0  0  0  0
  196.6660  170.5710  146.3590 N   0  0  0  0  0  0  0  0  0  0  0  0
  197.1840  171.2400  144.2180 C   0  0  0  0  0  2  0  0  0  0  0  0
  195.4240  171.0530  145.7570 C   0  0  0  0  0  2  0  0  0  0  0  0
  189.5190  177.3420  145.2620 C   0  0  0  0  0  2  0  0  0  0  0  0
  186.4890  178.3180  147.1040 C   0  0  0  0  0  2  0  0  0  0  0  0
  185.2020  178.2600  145.8670 S   0  0  0  0  0  0  0  0  0  0  0  0
  183.9290  177.7400  146.4760 O   0  0  0  0  0  0  0  0  0  0  0  0
  187.2270  177.2380  144.4090 C   0  0  0  0  0  3  0  0  0  0  0  0
  187.4920  177.1860  146.8740 C   0  0  0  0  0  2  0  0  0  0  0  0
  188.0450  177.2310  145.4720 C   0  0  0  0  0  0  0  0  0  0  0  0
  184.9740  179.6400  145.3150 O   0  0  0  0  0  0  0  0  0  0  0  0
  185.7330  177.1700  144.5550 C   0  0  0  0  0  2  0  0  0  0  0  0
  1  6  1  6  0  0  0
  1  8  1  0  0  0  0
  2 12  1  1  0  0  0
  2 13  1  0  0  0  0
  3 16  1  0  0  0  0
  3 14  2  0  0  0  0
  4 15  1  0  0  0  0
  5  1  1  0  0  0  0
  5  9  1  0  0  0  0
  7  4  2  0  0  0  0
  8  4  1  0  0  0  0
  9  7  1  0  0  0  0
 10  3  1  0  0  0  0
 11  7  1  1  0  0  0
 11 10  1  0  0  0  0
 11  2  1  0  0  0  0
 13 35  1  6  0  0  0
 13 14  1  0  0  0  0
 15 12  1  0  0  0  0
 16 17  1  1  0  0  0
 18 16  1  0  0  0  0
 18 19  1  1  0  0  0
 21 20  2  0  0  0  0
 21 18  1  0  0  0  0
 22 21  1  0  0  0  0
 23 22  1  0  0  0  0
 24 23  1  0  0  0  0
 24 25  1  0  0  0  0
 26 27  1  1  0  0  0
 26 25  1  0  0  0  0
 26 28  1  0  0  0  0
 29 28  1  6  0  0  0
 29 34  1  0  0  0  0
 31 32  1  0  0  0  0
 32 30  1  0  0  0  0
 33 29  1  0  0  0  0
 33 31  1  0  0  0  0
 34 32  1  0  0  0  0
 35 41  1  0  0  0  0
 37 38  2  0  0  0  0
 37 36  1  0  0  0  0
 39 43  1  0  0  0  0
 39 41  2  0  0  0  0
 40 36  1  0  0  0  0
 41 40  1  0  0  0  0
 42 37  2  0  0  0  0
 43 37  1  0  0  0  0
M  END
>  <MODEL>
2

>  <REMARK>
 VINA RESULT:      -7.7      4.713     10.691
  Name = 
  12 active torsions:
  status: ('A' for Active; 'I' for Inactive)
    1  A    between atoms: C_1  and  C_34
    2  A    between atoms: C_1  and  C_35
    3  A    between atoms: C_2  and  C_6
    4  A    between atoms: C_2  and  C_13
    5  A    between atoms: C_4  and  C_12
    6  A    between atoms: C_4  and  C_15
    7  A    between atoms: C_6  and  C_12
    8  A    between atoms: C_10  and  C_22
    9  A    between atoms: C_10  and  C_42
   10  A    between atoms: C_11  and  N_14
   11  A    between atoms: N_14  and  C_22
   12  A    between atoms: C_15  and  C_42
                            x       y       z     vdW  Elec       q    Type
                         _______ _______ _______ _____ _____    ______ ____

>  <TORSDO>
F 12

$$$$
=
 OpenBabel11052420473D

 43 47  0  0  1  0  0  0  0  0999 V2000
  185.2720  177.9320  145.9910 C   0  0  1  0  0  3  0  0  0  0  0  0
  188.8630  175.9590  143.0020 C   0  0  1  0  0  3  0  0  0  0  0  0
  191.3000  175.8710  144.4420 C   0  0  0  0  0  0  0  0  0  0  0  0
  187.2700  177.8660  144.4100 C   0  0  0  0  0  0  0  0  0  0  0  0
  185.7670  176.6030  146.4000 N   0  0  0  0  0  2  0  0  0  0  0  0
  184.9580  178.7800  147.2100 C   0  0  0  0  0  1  0  0  0  0  0  0
  187.7860  176.8370  145.1170 C   0  0  0  0  0  0  0  0  0  0  0  0
  186.1940  178.7130  145.0320 C   0  0  0  0  0  2  0  0  0  0  0  0
  187.2280  176.5690  146.4740 C   0  0  0  0  0  2  0  0  0  0  0  0
  190.1060  176.1600  145.1180 O   0  0  0  0  0  0  0  0  0  0  0  0
  188.8200  175.8990  144.5420 C   0  0  2  0  0  3  0  0  0  0  0  0
  188.9120  177.4080  142.5340 C   0  0  0  0  0  2  0  0  0  0  0  0
  190.0510  175.1650  142.4610 C   0  0  1  0  0  3  0  0  0  0  0  0
  191.2810  175.4690  143.2010 N   0  0  0  0  0  0  0  0  0  0  0  0
  187.6290  178.1170  142.9660 C   0  0  0  0  0  2  0  0  0  0  0  0
  192.6180  176.0750  145.1390 C   0  0  1  0  0  3  0  0  0  0  0  0
  192.3720  176.3330  146.6250 C   0  0  0  0  0  1  0  0  0  0  0  0
  193.5570  174.8830  144.8690 C   0  0  2  0  0  3  0  0  0  0  0  0
  193.2010  173.6410  145.6770 C   0  0  0  0  0  1  0  0  0  0  0  0
  195.4390  176.3100  144.7020 O   0  0  0  0  0  0  0  0  0  0  0  0
  194.9800  175.2650  145.1560 C   0  0  0  0  0  0  0  0  0  0  0  0
  195.8210  174.4050  146.0390 C   0  0  0  0  0  2  0  0  0  0  0  0
  197.1220  174.0580  145.3440 C   0  0  0  0  0  2  0  0  0  0  0  0
  196.9880  172.7250  144.6360 C   0  0  0  0  0  2  0  0  0  0  0  0
  196.9610  172.9490  143.1360 C   0  0  0  0  0  2  0  0  0  0  0  0
  195.5580  172.7220  142.5890 C   0  0  2  0  0  3  0  0  0  0  0  0
  195.0350  171.3910  143.1020 C   0  0  0  0  0  1  0  0  0  0  0  0
  195.5920  172.7010  141.1370 N   0  0  0  0  0  2  0  0  0  0  0  0
  194.4580  173.4820  140.6590 C   0  0  2  0  0  3  0  0  0  0  0  0
  196.0060  176.4850  141.1290 C   0  0  0  0  0  1  0  0  0  0  0  0
  195.3420  175.2220  139.3240 N   0  0  0  0  0  2  0  0  0  0  0  0
  194.8660  175.8440  140.4940 N   0  0  0  0  0  0  0  0  0  0  0  0
  194.7070  173.9150  139.2460 C   0  0  0  0  0  2  0  0  0  0  0  0
  194.4080  174.7920  141.4000 C   0  0  0  0  0  2  0  0  0  0  0  0
  189.7420  173.6710  142.5380 C   0  0  0  0  0  2  0  0  0  0  0  0
  188.5130  173.7370  139.0720 C   0  0  0  0  0  2  0  0  0  0  0  0
  189.8410  172.9930  138.1360 S   0  0  0  0  0  0  0  0  0  0  0  0
  189.2750  172.1440  137.0300 O   0  0  0  0  0  0  0  0  0  0  0  0
  190.7980  172.5730  140.6220 C   0  0  0  0  0  3  0  0  0  0  0  0
  188.3710  173.0410  140.4270 C   0  0  0  0  0  2  0  0  0  0  0  0
  189.6770  173.0530  141.1810 C   0  0  0  0  0  0  0  0  0  0  0  0
  190.7100  174.0710  137.5540 O   0  0  0  0  0  0  0  0  0  0  0  0
  190.8070  171.9760  139.2440 C   0  0  0  0  0  2  0  0  0  0  0  0
  1  5  1  0  0  0  0
  1  6  1  1  0  0  0
  2 12  1  1  0  0  0
  2 11  1  0  0  0  0
  3 10  1  0  0  0  0
  3 16  1  0  0  0  0
  4  8  1  0  0  0  0
  4  7  2  0  0  0  0
  5  9  1  0  0  0  0
  7  9  1  0  0  0  0
  8  1  1  0  0  0  0
 11  7  1  1  0  0  0
 11 10  1  0  0  0  0
 12 15  1  0  0  0  0
 13 35  1  1  0  0  0
 13  2  1  0  0  0  0
 13 14  1  0  0  0  0
 14  3  2  0  0  0  0
 15  4  1  0  0  0  0
 16 17  1  1  0  0  0
 18 16  1  0  0  0  0
 18 21  1  0  0  0  0
 18 19  1  1  0  0  0
 20 21  2  0  0  0  0
 21 22  1  0  0  0  0
 23 22  1  0  0  0  0
 24 23  1  0  0  0  0
 25 24  1  0  0  0  0
 26 27  1  1  0  0  0
 26 25  1  0  0  0  0
 28 26  1  0  0  0  0
 29 28  1  1  0  0  0
 29 34  1  0  0  0  0
 31 32  1  0  0  0  0
 32 30  1  0  0  0  0
 32 34  1  0  0  0  0
 33 31  1  0  0  0  0
 33 29  1  0  0  0  0
 36 40  1  0  0  0  0
 37 36  1  0  0  0  0
 37 43  1  0  0  0  0
 38 37  2  0  0  0  0
 39 41  2  0  0  0  0
 40 41  1  0  0  0  0
 41 35  1  0  0  0  0
 42 37  2  0  0  0  0
 43 39  1  0  0  0  0
M  END
>  <MODEL>
3

>  <REMARK>
 VINA RESULT:      -7.6      3.855      9.301
  Name = 
  12 active torsions:
  status: ('A' for Active; 'I' for Inactive)
    1  A    between atoms: C_1  and  C_34
    2  A    between atoms: C_1  and  C_35
    3  A    between atoms: C_2  and  C_6
    4  A    between atoms: C_2  and  C_13
    5  A    between atoms: C_4  and  C_12
    6  A    between atoms: C_4  and  C_15
    7  A    between atoms: C_6  and  C_12
    8  A    between atoms: C_10  and  C_22
    9  A    between atoms: C_10  and  C_42
   10  A    between atoms: C_11  and  N_14
   11  A    between atoms: N_14  and  C_22
   12  A    between atoms: C_15  and  C_42
                            x       y       z     vdW  Elec       q    Type
                         _______ _______ _______ _____ _____    ______ ____

>  <TORSDO>
F 12

$$$$
=
 OpenBabel11052420473D

 43 47  0  0  1  0  0  0  0  0999 V2000
  184.8020  178.0460  145.5600 C   0  0  1  0  0  3  0  0  0  0  0  0
  188.7980  175.9890  143.2110 C   0  0  1  0  0  3  0  0  0  0  0  0
  191.0340  176.1040  144.9470 C   0  0  0  0  0  0  0  0  0  0  0  0
  186.9850  177.9350  144.2520 C   0  0  0  0  0  0  0  0  0  0  0  0
  185.2780  176.7720  146.1340 N   0  0  0  0  0  2  0  0  0  0  0  0
  184.3110  178.9710  146.6580 C   0  0  0  0  0  1  0  0  0  0  0  0
  187.4370  176.9840  145.0980 C   0  0  0  0  0  0  0  0  0  0  0  0
  185.8160  178.7860  144.6640 C   0  0  0  0  0  2  0  0  0  0  0  0
  186.7180  176.7990  146.3920 C   0  0  0  0  0  2  0  0  0  0  0  0
  189.7550  176.3980  145.4430 O   0  0  0  0  0  0  0  0  0  0  0  0
  188.5610  176.0450  144.7340 C   0  0  2  0  0  3  0  0  0  0  0  0
  188.8660  177.3990  142.6380 C   0  0  0  0  0  2  0  0  0  0  0  0
  190.0680  175.2020  142.8890 C   0  0  1  0  0  3  0  0  0  0  0  0
  191.1850  175.6090  143.7500 N   0  0  0  0  0  0  0  0  0  0  0  0
  187.5180  178.0900  142.8480 C   0  0  0  0  0  2  0  0  0  0  0  0
  192.2450  176.4100  145.7850 C   0  0  1  0  0  3  0  0  0  0  0  0
  191.9380  176.1110  147.2510 C   0  0  0  0  0  1  0  0  0  0  0  0
  193.4750  175.6540  145.2460 C   0  0  2  0  0  3  0  0  0  0  0  0
  193.9390  174.5290  146.1640 C   0  0  0  0  0  1  0  0  0  0  0  0
  194.8280  177.5090  145.8210 O   0  0  0  0  0  0  0  0  0  0  0  0
  194.6140  176.6040  145.0180 C   0  0  0  0  0  0  0  0  0  0  0  0
  195.5190  176.4200  143.8460 C   0  0  0  0  0  2  0  0  0  0  0  0
  194.8350  175.5850  142.7830 C   0  0  0  0  0  2  0  0  0  0  0  0
  195.8110  174.5740  142.2150 C   0  0  0  0  0  2  0  0  0  0  0  0
  196.0150  173.4510  143.2160 C   0  0  0  0  0  2  0  0  0  0  0  0
  195.9070  172.0980  142.5250 C   0  0  2  0  0  3  0  0  0  0  0  0
  194.5640  172.0050  141.8200 C   0  0  0  0  0  1  0  0  0  0  0  0
  196.0110  171.0330  143.5070 N   0  0  0  0  0  2  0  0  0  0  0  0
  195.7280  171.6100  144.8150 C   0  0  2  0  0  3  0  0  0  0  0  0
  194.5350  168.6940  146.1220 C   0  0  0  0  0  1  0  0  0  0  0  0
  196.3960  170.0130  146.4260 N   0  0  0  0  0  2  0  0  0  0  0  0
  194.9890  170.0320  146.4690 N   0  0  0  0  0  0  0  0  0  0  0  0
  196.8200  171.2430  145.7730 C   0  0  0  0  0  2  0  0  0  0  0  0
  194.5250  170.9270  145.4100 C   0  0  0  0  0  2  0  0  0  0  0  0
  189.7940  173.7080  143.0460 C   0  0  0  0  0  2  0  0  0  0  0  0
  188.6240  173.6410  139.5600 C   0  0  0  0  0  2  0  0  0  0  0  0
  189.9290  172.7860  138.6900 S   0  0  0  0  0  0  0  0  0  0  0  0
  189.3420  171.9050  137.6210 O   0  0  0  0  0  0  0  0  0  0  0  0
  190.8260  172.4590  141.2120 C   0  0  0  0  0  3  0  0  0  0  0  0
  188.4280  173.0280  140.9480 C   0  0  0  0  0  2  0  0  0  0  0  0
  189.7210  173.0200  141.7230 C   0  0  0  0  0  0  0  0  0  0  0  0
  190.8580  173.7890  138.0670 O   0  0  0  0  0  0  0  0  0  0  0  0
  190.8290  171.7870  139.8680 C   0  0  0  0  0  2  0  0  0  0  0  0
  1  5  1  0  0  0  0
  1  6  1  1  0  0  0
  2 12  1  1  0  0  0
  2 11  1  0  0  0  0
  3 10  1  0  0  0  0
  3 16  1  0  0  0  0
  4  8  1  0  0  0  0
  4  7  2  0  0  0  0
  5  9  1  0  0  0  0
  7  9  1  0  0  0  0
  8  1  1  0  0  0  0
 11  7  1  6  0  0  0
 11 10  1  0  0  0  0
 12 15  1  0  0  0  0
 13 35  1  1  0  0  0
 13  2  1  0  0  0  0
 13 14  1  0  0  0  0
 14  3  2  0  0  0  0
 15  4  1  0  0  0  0
 16 17  1  1  0  0  0
 18 16  1  0  0  0  0
 18 19  1  1  0  0  0
 21 18  1  0  0  0  0
 21 20  2  0  0  0  0
 22 21  1  0  0  0  0
 23 22  1  0  0  0  0
 24 23  1  0  0  0  0
 24 25  1  0  0  0  0
 26 27  1  1  0  0  0
 26 25  1  0  0  0  0
 26 28  1  0  0  0  0
 29 28  1  6  0  0  0
 29 34  1  0  0  0  0
 29 33  1  0  0  0  0
 30 32  1  0  0  0  0
 31 32  1  0  0  0  0
 33 31  1  0  0  0  0
 34 32  1  0  0  0  0
 36 40  1  0  0  0  0
 37 36  1  0  0  0  0
 37 43  1  0  0  0  0
 38 37  2  0  0  0  0
 39 41  2  0  0  0  0
 40 41  1  0  0  0  0
 41 35  1  0  0  0  0
 42 37  2  0  0  0  0
 43 39  1  0  0  0  0
M  END
>  <MODEL>
4

>  <REMARK>
 VINA RESULT:      -7.5      3.658      9.706
  Name = 
  12 active torsions:
  status: ('A' for Active; 'I' for Inactive)
    1  A    between atoms: C_1  and  C_34
    2  A    between atoms: C_1  and  C_35
    3  A    between atoms: C_2  and  C_6
    4  A    between atoms: C_2  and  C_13
    5  A    between atoms: C_4  and  C_12
    6  A    between atoms: C_4  and  C_15
    7  A    between atoms: C_6  and  C_12
    8  A    between atoms: C_10  and  C_22
    9  A    between atoms: C_10  and  C_42
   10  A    between atoms: C_11  and  N_14
   11  A    between atoms: N_14  and  C_22
   12  A    between atoms: C_15  and  C_42
                            x       y       z     vdW  Elec       q    Type
                         _______ _______ _______ _____ _____    ______ ____

>  <TORSDO>
F 12

$$$$
=
 OpenBabel11052420473D

 43 47  0  0  1  0  0  0  0  0999 V2000
  185.4590  178.6450  146.0900 C   0  0  1  0  0  3  0  0  0  0  0  0
  189.9500  176.3140  145.7530 C   0  0  1  0  0  3  0  0  0  0  0  0
  189.9240  174.6070  143.4920 C   0  0  0  0  0  0  0  0  0  0  0  0
  187.1920  176.7910  146.3200 C   0  0  0  0  0  0  0  0  0  0  0  0
  186.2860  179.0420  144.9340 N   0  0  0  0  0  2  0  0  0  0  0  0
  183.9890  178.6320  145.7120 C   0  0  0  0  0  1  0  0  0  0  0  0
  187.6290  177.0540  145.0690 C   0  0  0  0  0  0  0  0  0  0  0  0
  185.8440  177.3020  146.7460 C   0  0  0  0  0  2  0  0  0  0  0  0
  186.7600  177.8800  144.1820 C   0  0  0  0  0  2  0  0  0  0  0  0
  188.8870  175.5330  143.6740 O   0  0  0  0  0  0  0  0  0  0  0  0
  188.9960  176.6340  144.5840 C   0  0  2  0  0  3  0  0  0  0  0  0
  189.2640  175.3960  146.7560 C   0  0  0  0  0  2  0  0  0  0  0  0
  191.2480  175.6930  145.2380 C   0  0  1  0  0  3  0  0  0  0  0  0
  190.9850  174.6410  144.2490 N   0  0  0  0  0  0  0  0  0  0  0  0
  188.0610  176.1220  147.3580 C   0  0  0  0  0  2  0  0  0  0  0  0
  189.7870  173.5320  142.4490 C   0  0  1  0  0  3  0  0  0  0  0  0
  189.7820  172.1630  143.1270 C   0  0  0  0  0  1  0  0  0  0  0  0
  188.5460  173.7900  141.5730 C   0  0  2  0  0  3  0  0  0  0  0  0
  187.5130  172.6720  141.6490 C   0  0  0  0  0  1  0  0  0  0  0  0
  188.1800  174.5410  139.3580 O   0  0  0  0  0  0  0  0  0  0  0  0
  188.9490  173.9910  140.1420 C   0  0  0  0  0  0  0  0  0  0  0  0
  190.3050  173.5710  139.6810 C   0  0  0  0  0  2  0  0  0  0  0  0
  190.2180  172.2610  138.9230 C   0  0  0  0  0  2  0  0  0  0  0  0
  191.5620  171.5610  138.9480 C   0  0  0  0  0  2  0  0  0  0  0  0
  191.9190  171.2040  140.3790 C   0  0  0  0  0  2  0  0  0  0  0  0
  193.3240  171.6900  140.7140 C   0  0  2  0  0  3  0  0  0  0  0  0
  193.2660  172.5580  141.9590 C   0  0  0  0  0  1  0  0  0  0  0  0
  193.8540  172.4660  139.6070 N   0  0  0  0  0  2  0  0  0  0  0  0
  194.4550  173.6720  140.1630 C   0  0  2  0  0  3  0  0  0  0  0  0
  196.8470  173.8980  137.7420 C   0  0  0  0  0  1  0  0  0  0  0  0
  194.9670  175.0840  138.3360 N   0  0  0  0  0  2  0  0  0  0  0  0
  196.2060  174.6280  138.8250 N   0  0  0  0  0  0  0  0  0  0  0  0
  193.9870  174.8680  139.3900 C   0  0  0  0  0  2  0  0  0  0  0  0
  195.9350  173.6620  139.8890 C   0  0  0  0  0  2  0  0  0  0  0  0
  192.1280  176.7850  144.6300 C   0  0  0  0  0  2  0  0  0  0  0  0
  194.9570  174.9930  146.1490 C   0  0  0  0  0  2  0  0  0  0  0  0
  195.9170  174.4460  144.7460 S   0  0  0  0  0  0  0  0  0  0  0  0
  197.3850  174.5360  145.0610 O   0  0  0  0  0  0  0  0  0  0  0  0
  194.1040  175.9610  143.4460 C   0  0  0  0  0  3  0  0  0  0  0  0
  194.3670  176.3770  145.8750 C   0  0  0  0  0  2  0  0  0  0  0  0
  193.5640  176.3800  144.5990 C   0  0  0  0  0  0  0  0  0  0  0  0
  195.5560  173.0250  144.4140 O   0  0  0  0  0  0  0  0  0  0  0  0
  195.5320  175.5020  143.3570 C   0  0  0  0  0  2  0  0  0  0  0  0
  1  6  1  6  0  0  0
  1  8  1  0  0  0  0
  2 12  1  1  0  0  0
  3 10  1  0  0  0  0
  3 14  2  0  0  0  0
  4  8  1  0  0  0  0
  4 15  1  0  0  0  0
  5  1  1  0  0  0  0
  7  4  2  0  0  0  0
  9  5  1  0  0  0  0
  9  7  1  0  0  0  0
 11 10  1  6  0  0  0
 11  7  1  0  0  0  0
 11  2  1  0  0  0  0
 12 15  1  0  0  0  0
 13 35  1  6  0  0  0
 13  2  1  0  0  0  0
 14 13  1  0  0  0  0
 16 17  1  1  0  0  0
 16  3  1  0  0  0  0
 18 19  1  6  0  0  0
 18 16  1  0  0  0  0
 20 21  2  0  0  0  0
 21 18  1  0  0  0  0
 22 21  1  0  0  0  0
 23 24  1  0  0  0  0
 23 22  1  0  0  0  0
 24 25  1  0  0  0  0
 25 26  1  0  0  0  0
 26 27  1  1  0  0  0
 28 26  1  0  0  0  0
 29 28  1  6  0  0  0
 30 32  1  0  0  0  0
 31 32  1  0  0  0  0
 31 33  1  0  0  0  0
 32 34  1  0  0  0  0
 33 29  1  0  0  0  0
 34 29  1  0  0  0  0
 37 38  2  0  0  0  0
 37 36  1  0  0  0  0
 39 41  2  0  0  0  0
 40 36  1  0  0  0  0
 41 35  1  0  0  0  0
 41 40  1  0  0  0  0
 42 37  2  0  0  0  0
 43 39  1  0  0  0  0
 43 37  1  0  0  0  0
M  END
>  <MODEL>
5

>  <REMARK>
 VINA RESULT:      -7.4      3.115      7.389
  Name = 
  12 active torsions:
  status: ('A' for Active; 'I' for Inactive)
    1  A    between atoms: C_1  and  C_34
    2  A    between atoms: C_1  and  C_35
    3  A    between atoms: C_2  and  C_6
    4  A    between atoms: C_2  and  C_13
    5  A    between atoms: C_4  and  C_12
    6  A    between atoms: C_4  and  C_15
    7  A    between atoms: C_6  and  C_12
    8  A    between atoms: C_10  and  C_22
    9  A    between atoms: C_10  and  C_42
   10  A    between atoms: C_11  and  N_14
   11  A    between atoms: N_14  and  C_22
   12  A    between atoms: C_15  and  C_42
                            x       y       z     vdW  Elec       q    Type
                         _______ _______ _______ _____ _____    ______ ____

>  <TORSDO>
F 12

$$$$
=
 OpenBabel11052420473D

 43 47  0  0  1  0  0  0  0  0999 V2000
  190.5440  176.1790  147.4630 C   0  0  1  0  0  3  0  0  0  0  0  0
  188.2730  177.2100  143.0470 C   0  0  1  0  0  3  0  0  0  0  0  0
  188.3990  174.9100  141.3990 C   0  0  0  0  0  0  0  0  0  0  0  0
  190.3140  176.8000  145.0020 C   0  0  0  0  0  0  0  0  0  0  0  0
  189.2840  175.4500  147.2220 N   0  0  0  0  0  2  0  0  0  0  0  0
  191.5310  175.3000  148.2090 C   0  0  0  0  0  1  0  0  0  0  0  0
  189.3880  175.8280  144.8510 C   0  0  0  0  0  0  0  0  0  0  0  0
  191.2150  176.7700  146.2050 C   0  0  0  0  0  2  0  0  0  0  0  0
  189.2810  174.7900  145.9160 C   0  0  0  0  0  2  0  0  0  0  0  0
  188.7520  174.8130  142.7530 O   0  0  0  0  0  0  0  0  0  0  0  0
  188.4020  175.8220  143.7070 C   0  0  2  0  0  3  0  0  0  0  0  0
  189.6540  177.7870  142.7620 C   0  0  0  0  0  2  0  0  0  0  0  0
  187.4360  177.1270  141.7710 C   0  0  1  0  0  3  0  0  0  0  0  0
  187.8480  175.9950  140.9320 N   0  0  0  0  0  0  0  0  0  0  0  0
  190.3910  177.9960  144.0840 C   0  0  0  0  0  2  0  0  0  0  0  0
  188.7070  173.7700  140.4660 C   0  0  1  0  0  3  0  0  0  0  0  0
  188.4070  174.1940  139.0290 C   0  0  0  0  0  1  0  0  0  0  0  0
  190.1540  173.2830  140.6750 C   0  0  2  0  0  3  0  0  0  0  0  0
  191.1130  173.7630  139.5930 C   0  0  0  0  0  1  0  0  0  0  0  0
  190.0760  171.1220  139.7110 O   0  0  0  0  0  0  0  0  0  0  0  0
  190.1950  171.7840  140.7390 C   0  0  0  0  0  0  0  0  0  0  0  0
  190.4350  171.0960  142.0410 C   0  0  0  0  0  2  0  0  0  0  0  0
  190.5460  172.1150  143.1580 C   0  0  0  0  0  2  0  0  0  0  0  0
  192.0020  172.3150  143.5290 C   0  0  0  0  0  2  0  0  0  0  0  0
  192.2760  173.7960  143.7170 C   0  0  0  0  0  2  0  0  0  0  0  0
  193.6850  174.0110  144.2550 C   0  0  2  0  0  3  0  0  0  0  0  0
  193.7000  173.7080  145.7440 C   0  0  0  0  0  1  0  0  0  0  0  0
  194.0900  175.3890  144.0390 N   0  0  0  0  0  2  0  0  0  0  0  0
  195.5160  175.4800  144.3300 C   0  0  2  0  0  3  0  0  0  0  0  0
  196.4670  174.8270  141.1190 C   0  0  0  0  0  1  0  0  0  0  0  0
  196.5070  176.6470  142.5280 N   0  0  0  0  0  2  0  0  0  0  0  0
  196.9440  175.3140  142.4050 N   0  0  0  0  0  0  0  0  0  0  0  0
  196.0320  176.8170  143.8930 C   0  0  0  0  0  2  0  0  0  0  0  0
  196.2670  174.5290  143.4360 C   0  0  0  0  0  2  0  0  0  0  0  0
  185.9590  177.0050  142.1380 C   0  0  0  0  0  2  0  0  0  0  0  0
  185.6290  176.7680  145.7930 C   0  0  0  0  0  2  0  0  0  0  0  0
  186.1530  178.3750  146.3720 S   0  0  0  0  0  0  0  0  0  0  0  0
  185.3130  178.7950  147.5470 O   0  0  0  0  0  0  0  0  0  0  0  0
  186.1780  178.8590  143.7190 C   0  0  0  0  0  3  0  0  0  0  0  0
  184.8530  176.9080  144.4830 C   0  0  0  0  0  2  0  0  0  0  0  0
  185.6630  177.6510  143.4510 C   0  0  0  0  0  0  0  0  0  0  0  0
  187.5990  178.3160  146.7780 O   0  0  0  0  0  0  0  0  0  0  0  0
  185.9510  179.5450  145.0370 C   0  0  0  0  0  2  0  0  0  0  0  0
  1  6  1  6  0  0  0
  2 12  1  6  0  0  0
  2 11  1  0  0  0  0
  3 10  1  0  0  0  0
  4  8  1  0  0  0  0
  5  1  1  0  0  0  0
  7  4  2  0  0  0  0
  7  9  1  0  0  0  0
  8  1  1  0  0  0  0
  9  5  1  0  0  0  0
 11 10  1  6  0  0  0
 11  7  1  0  0  0  0
 12 15  1  0  0  0  0
 13 35  1  1  0  0  0
 13  2  1  0  0  0  0
 14  3  2  0  0  0  0
 14 13  1  0  0  0  0
 15  4  1  0  0  0  0
 16 17  1  6  0  0  0
 16 18  1  0  0  0  0
 16  3  1  0  0  0  0
 18 19  1  6  0  0  0
 18 21  1  0  0  0  0
 20 21  2  0  0  0  0
 21 22  1  0  0  0  0
 22 23  1  0  0  0  0
 23 24  1  0  0  0  0
 24 25  1  0  0  0  0
 25 26  1  0  0  0  0
 26 27  1  1  0  0  0
 28 26  1  0  0  0  0
 29 28  1  6  0  0  0
 30 32  1  0  0  0  0
 31 33  1  0  0  0  0
 32 31  1  0  0  0  0
 32 34  1  0  0  0  0
 33 29  1  0  0  0  0
 34 29  1  0  0  0  0
 35 41  1  0  0  0  0
 36 37  1  0  0  0  0
 37 42  2  0  0  0  0
 37 38  2  0  0  0  0
 39 43  1  0  0  0  0
 40 36  1  0  0  0  0
 41 39  2  0  0  0  0
 41 40  1  0  0  0  0
 43 37  1  0  0  0  0
M  END
>  <MODEL>
6

>  <REMARK>
 VINA RESULT:      -7.4      4.166      9.259
  Name = 
  12 active torsions:
  status: ('A' for Active; 'I' for Inactive)
    1  A    between atoms: C_1  and  C_34
    2  A    between atoms: C_1  and  C_35
    3  A    between atoms: C_2  and  C_6
    4  A    between atoms: C_2  and  C_13
    5  A    between atoms: C_4  and  C_12
    6  A    between atoms: C_4  and  C_15
    7  A    between atoms: C_6  and  C_12
    8  A    between atoms: C_10  and  C_22
    9  A    between atoms: C_10  and  C_42
   10  A    between atoms: C_11  and  N_14
   11  A    between atoms: N_14  and  C_22
   12  A    between atoms: C_15  and  C_42
                            x       y       z     vdW  Elec       q    Type
                         _______ _______ _______ _____ _____    ______ ____

>  <TORSDO>
F 12

$$$$
=
 OpenBabel11052420473D

 43 47  0  0  1  0  0  0  0  0999 V2000
  185.7480  178.2820  146.0460 C   0  0  1  0  0  3  0  0  0  0  0  0
  190.3110  176.0950  145.6980 C   0  0  1  0  0  3  0  0  0  0  0  0
  190.4740  174.7140  143.2310 C   0  0  0  0  0  0  0  0  0  0  0  0
  187.5110  176.4430  146.1380 C   0  0  0  0  0  0  0  0  0  0  0  0
  186.6370  178.8470  145.0120 N   0  0  0  0  0  2  0  0  0  0  0  0
  184.3070  178.2950  145.5730 C   0  0  0  0  0  1  0  0  0  0  0  0
  188.0200  176.8820  144.9660 C   0  0  0  0  0  0  0  0  0  0  0  0
  186.1260  176.8690  146.5390 C   0  0  0  0  0  2  0  0  0  0  0  0
  187.1880  177.8070  144.1430 C   0  0  0  0  0  2  0  0  0  0  0  0
  189.4030  175.5880  143.4660 O   0  0  0  0  0  0  0  0  0  0  0  0
  189.4260  176.5560  144.5220 C   0  0  2  0  0  3  0  0  0  0  0  0
  189.5860  175.0370  146.5200 C   0  0  0  0  0  2  0  0  0  0  0  0
  191.6550  175.5730  145.1920 C   0  0  1  0  0  3  0  0  0  0  0  0
  191.4830  174.6620  144.0540 N   0  0  0  0  0  0  0  0  0  0  0  0
  188.3290  175.6540  147.1320 C   0  0  0  0  0  2  0  0  0  0  0  0
  190.4320  173.7890  142.0440 C   0  0  1  0  0  3  0  0  0  0  0  0
  191.8250  173.2100  141.8030 C   0  0  0  0  0  1  0  0  0  0  0  0
  189.3430  172.7160  142.2390 C   0  0  2  0  0  3  0  0  0  0  0  0
  189.8640  171.2940  142.0720 C   0  0  0  0  0  1  0  0  0  0  0  0
  187.0560  172.7210  141.6290 O   0  0  0  0  0  0  0  0  0  0  0  0
  188.2120  172.9410  141.2780 C   0  0  0  0  0  0  0  0  0  0  0  0
  188.4850  173.4840  139.9150 C   0  0  0  0  0  2  0  0  0  0  0  0
  188.5960  172.3520  138.9140 C   0  0  0  0  0  2  0  0  0  0  0  0
  189.9950  172.3150  138.3320 C   0  0  0  0  0  2  0  0  0  0  0  0
  190.6150  173.6980  138.4170 C   0  0  0  0  0  2  0  0  0  0  0  0
  191.7330  173.8430  137.3940 C   0  0  2  0  0  3  0  0  0  0  0  0
  191.5380  172.8130  136.2940 C   0  0  0  0  0  1  0  0  0  0  0  0
  193.0190  173.6280  138.0340 N   0  0  0  0  0  2  0  0  0  0  0  0
  193.6970  174.9160  138.1050 C   0  0  2  0  0  3  0  0  0  0  0  0
  196.0540  173.8350  140.3220 C   0  0  0  0  0  1  0  0  0  0  0  0
  196.0180  174.4660  138.1090 N   0  0  0  0  0  2  0  0  0  0  0  0
  195.7150  174.9150  139.4080 N   0  0  0  0  0  0  0  0  0  0  0  0
  194.9250  174.8850  137.2460 C   0  0  0  0  0  2  0  0  0  0  0  0
  194.2670  175.1020  139.4870 C   0  0  0  0  0  2  0  0  0  0  0  0
  192.5430  176.7520  144.7970 C   0  0  0  0  0  2  0  0  0  0  0  0
  195.3190  174.6120  145.9080 C   0  0  0  0  0  2  0  0  0  0  0  0
  196.3230  174.4230  144.4430 S   0  0  0  0  0  0  0  0  0  0  0  0
  197.7810  174.4180  144.8170 O   0  0  0  0  0  0  0  0  0  0  0  0
  194.5560  176.2320  143.5070 C   0  0  0  0  0  3  0  0  0  0  0  0
  194.7400  176.0260  145.9710 C   0  0  0  0  0  2  0  0  0  0  0  0
  193.9790  176.3550  144.7110 C   0  0  0  0  0  0  0  0  0  0  0  0
  195.9720  173.1330  143.7560 O   0  0  0  0  0  0  0  0  0  0  0  0
  195.9860  175.7970  143.3510 C   0  0  0  0  0  2  0  0  0  0  0  0
  1  6  1  6  0  0  0
  1  8  1  0  0  0  0
  2 12  1  6  0  0  0
  3 10  1  0  0  0  0
  3 14  2  0  0  0  0
  4  8  1  0  0  0  0
  4 15  1  0  0  0  0
  5  1  1  0  0  0  0
  7  4  2  0  0  0  0
  9  7  1  0  0  0  0
  9  5  1  0  0  0  0
 11 10  1  6  0  0  0
 11  7  1  0  0  0  0
 11  2  1  0  0  0  0
 12 15  1  0  0  0  0
 13 35  1  6  0  0  0
 13  2  1  0  0  0  0
 14 13  1  0  0  0  0
 16 17  1  1  0  0  0
 16 18  1  0  0  0  0
 16  3  1  0  0  0  0
 18 19  1  6  0  0  0
 21 20  2  0  0  0  0
 21 18  1  0  0  0  0
 22 21  1  0  0  0  0
 23 22  1  0  0  0  0
 24 25  1  0  0  0  0
 24 23  1  0  0  0  0
 26 27  1  6  0  0  0
 26 28  1  0  0  0  0
 26 25  1  0  0  0  0
 29 28  1  1  0  0  0
 29 34  1  0  0  0  0
 31 32  1  0  0  0  0
 32 34  1  0  0  0  0
 32 30  1  0  0  0  0
 33 29  1  0  0  0  0
 33 31  1  0  0  0  0
 36 40  1  0  0  0  0
 37 38  2  0  0  0  0
 37 36  1  0  0  0  0
 39 41  2  0  0  0  0
 41 35  1  0  0  0  0
 41 40  1  0  0  0  0
 42 37  2  0  0  0  0
 43 39  1  0  0  0  0
 43 37  1  0  0  0  0
M  END
>  <MODEL>
7

>  <REMARK>
 VINA RESULT:      -7.3      3.252      7.101
  Name = 
  12 active torsions:
  status: ('A' for Active; 'I' for Inactive)
    1  A    between atoms: C_1  and  C_34
    2  A    between atoms: C_1  and  C_35
    3  A    between atoms: C_2  and  C_6
    4  A    between atoms: C_2  and  C_13
    5  A    between atoms: C_4  and  C_12
    6  A    between atoms: C_4  and  C_15
    7  A    between atoms: C_6  and  C_12
    8  A    between atoms: C_10  and  C_22
    9  A    between atoms: C_10  and  C_42
   10  A    between atoms: C_11  and  N_14
   11  A    between atoms: N_14  and  C_22
   12  A    between atoms: C_15  and  C_42
                            x       y       z     vdW  Elec       q    Type
                         _______ _______ _______ _____ _____    ______ ____

>  <TORSDO>
F 12

$$$$
=
 OpenBabel11052420473D

 43 47  0  0  1  0  0  0  0  0999 V2000
  185.1280  179.1490  144.7280 C   0  0  1  0  0  3  0  0  0  0  0  0
  189.5390  176.7630  145.4780 C   0  0  1  0  0  3  0  0  0  0  0  0
  189.6460  174.4920  143.7880 C   0  0  0  0  0  0  0  0  0  0  0  0
  186.7620  177.4130  145.6260 C   0  0  0  0  0  0  0  0  0  0  0  0
  186.0670  179.1970  143.5910 N   0  0  0  0  0  2  0  0  0  0  0  0
  183.6970  179.0490  144.2310 C   0  0  0  0  0  1  0  0  0  0  0  0
  187.3160  177.3100  144.3990 C   0  0  0  0  0  0  0  0  0  0  0  0
  185.4030  178.0400  145.7640 C   0  0  0  0  0  2  0  0  0  0  0  0
  186.5600  177.8650  143.2390 C   0  0  0  0  0  2  0  0  0  0  0  0
  188.6320  175.4440  143.6070 O   0  0  0  0  0  0  0  0  0  0  0  0
  188.7040  176.7550  144.1820 C   0  0  2  0  0  3  0  0  0  0  0  0
  188.7330  176.1710  146.6270 C   0  0  0  0  0  2  0  0  0  0  0  0
  190.8530  176.0070  145.2810 C   0  0  1  0  0  3  0  0  0  0  0  0
  190.6370  174.7240  144.6020 N   0  0  0  0  0  0  0  0  0  0  0  0
  187.5110  177.0510  146.8870 C   0  0  0  0  0  2  0  0  0  0  0  0
  189.5600  173.1700  143.0760 C   0  0  1  0  0  3  0  0  0  0  0  0
  188.3900  173.1970  142.0930 C   0  0  0  0  0  1  0  0  0  0  0  0
  190.9100  172.8270  142.4170 C   0  0  2  0  0  3  0  0  0  0  0  0
  191.0040  173.2830  140.9660 C   0  0  0  0  0  1  0  0  0  0  0  0
  191.3900  170.8150  143.5680 O   0  0  0  0  0  0  0  0  0  0  0  0
  191.1640  171.3500  142.4850 C   0  0  0  0  0  0  0  0  0  0  0  0
  191.0890  170.5200  141.2470 C   0  0  0  0  0  2  0  0  0  0  0  0
  192.1830  169.4710  141.2540 C   0  0  0  0  0  2  0  0  0  0  0  0
  193.4950  170.0920  140.8160 C   0  0  0  0  0  2  0  0  0  0  0  0
  194.5360  169.8930  141.9010 C   0  0  0  0  0  2  0  0  0  0  0  0
  194.8190  171.2080  142.6150 C   0  0  2  0  0  3  0  0  0  0  0  0
  194.7240  172.3470  141.6140 C   0  0  0  0  0  1  0  0  0  0  0  0
  196.1530  171.1800  143.1900 N   0  0  0  0  0  2  0  0  0  0  0  0
  196.0740  171.7810  144.5160 C   0  0  2  0  0  3  0  0  0  0  0  0
  194.5690  169.0650  145.9300 C   0  0  0  0  0  1  0  0  0  0  0  0
  196.6270  170.0840  146.0670 N   0  0  0  0  0  2  0  0  0  0  0  0
  195.2490  170.3160  146.2310 N   0  0  0  0  0  0  0  0  0  0  0  0
  197.1760  171.2420  145.3770 C   0  0  0  0  0  2  0  0  0  0  0  0
  194.8370  171.2820  145.2140 C   0  0  0  0  0  2  0  0  0  0  0  0
  191.8230  176.8740  144.4790 C   0  0  0  0  0  2  0  0  0  0  0  0
  194.6590  176.1690  142.2470 C   0  0  0  0  0  2  0  0  0  0  0  0
  196.0230  175.8950  143.3670 S   0  0  0  0  0  0  0  0  0  0  0  0
  196.9110  174.8020  142.8370 O   0  0  0  0  0  0  0  0  0  0  0  0
  194.0320  176.0860  145.1750 C   0  0  0  0  0  3  0  0  0  0  0  0
  193.3710  175.5930  142.8380 C   0  0  0  0  0  2  0  0  0  0  0  0
  193.1050  176.1590  144.2100 C   0  0  0  0  0  0  0  0  0  0  0  0
  196.8150  177.1650  143.5140 O   0  0  0  0  0  0  0  0  0  0  0  0
  195.3590  175.4160  144.9550 C   0  0  0  0  0  2  0  0  0  0  0  0
  1  6  1  6  0  0  0
  1  8  1  0  0  0  0
  2 12  1  1  0  0  0
  3 14  2  0  0  0  0
  4  8  1  0  0  0  0
  4 15  1  0  0  0  0
  5  1  1  0  0  0  0
  7  4  2  0  0  0  0
  9  5  1  0  0  0  0
  9  7  1  0  0  0  0
 10  3  1  0  0  0  0
 11 10  1  1  0  0  0
 11  7  1  0  0  0  0
 11  2  1  0  0  0  0
 12 15  1  0  0  0  0
 13 35  1  6  0  0  0
 13  2  1  0  0  0  0
 14 13  1  0  0  0  0
 16 17  1  6  0  0  0
 16  3  1  0  0  0  0
 18 19  1  6  0  0  0
 18 21  1  0  0  0  0
 18 16  1  0  0  0  0
 21 20  2  0  0  0  0
 22 23  1  0  0  0  0
 22 21  1  0  0  0  0
 24 23  1  0  0  0  0
 24 25  1  0  0  0  0
 25 26  1  0  0  0  0
 26 27  1  6  0  0  0
 26 28  1  0  0  0  0
 29 28  1  6  0  0  0
 29 34  1  0  0  0  0
 29 33  1  0  0  0  0
 30 32  1  0  0  0  0
 31 32  1  0  0  0  0
 33 31  1  0  0  0  0
 34 32  1  0  0  0  0
 36 40  1  0  0  0  0
 36 37  1  0  0  0  0
 37 42  2  0  0  0  0
 37 43  1  0  0  0  0
 38 37  2  0  0  0  0
 40 41  1  0  0  0  0
 41 35  1  0  0  0  0
 41 39  2  0  0  0  0
 43 39  1  0  0  0  0
M  END
>  <MODEL>
8

>  <REMARK>
 VINA RESULT:      -7.3      3.028      8.697
  Name = 
  12 active torsions:
  status: ('A' for Active; 'I' for Inactive)
    1  A    between atoms: C_1  and  C_34
    2  A    between atoms: C_1  and  C_35
    3  A    between atoms: C_2  and  C_6
    4  A    between atoms: C_2  and  C_13
    5  A    between atoms: C_4  and  C_12
    6  A    between atoms: C_4  and  C_15
    7  A    between atoms: C_6  and  C_12
    8  A    between atoms: C_10  and  C_22
    9  A    between atoms: C_10  and  C_42
   10  A    between atoms: C_11  and  N_14
   11  A    between atoms: N_14  and  C_22
   12  A    between atoms: C_15  and  C_42
                            x       y       z     vdW  Elec       q    Type
                         _______ _______ _______ _____ _____    ______ ____

>  <TORSDO>
F 12

$$$$
=
 OpenBabel11052420473D

 43 47  0  0  1  0  0  0  0  0999 V2000
  184.8800  178.0000  145.7960 C   0  0  1  0  0  3  0  0  0  0  0  0
  188.4900  176.0520  142.8140 C   0  0  1  0  0  3  0  0  0  0  0  0
  190.9120  175.9270  144.2780 C   0  0  0  0  0  0  0  0  0  0  0  0
  186.8940  177.9460  144.2350 C   0  0  0  0  0  0  0  0  0  0  0  0
  185.3630  176.6620  146.1900 N   0  0  0  0  0  2  0  0  0  0  0  0
  184.5580  178.8310  147.0240 C   0  0  0  0  0  1  0  0  0  0  0  0
  187.3970  176.9030  144.9320 C   0  0  0  0  0  0  0  0  0  0  0  0
  185.8170  178.7900  144.8580 C   0  0  0  0  0  2  0  0  0  0  0  0
  186.8240  176.6180  146.2780 C   0  0  0  0  0  2  0  0  0  0  0  0
  189.7130  176.2130  144.9450 O   0  0  0  0  0  0  0  0  0  0  0  0
  188.4310  175.9680  144.3530 C   0  0  2  0  0  3  0  0  0  0  0  0
  188.5530  177.5080  142.3690 C   0  0  0  0  0  2  0  0  0  0  0  0
  189.6800  175.2600  142.2730 C   0  0  1  0  0  3  0  0  0  0  0  0
  190.9040  175.5450  143.0310 N   0  0  0  0  0  0  0  0  0  0  0  0
  187.2690  178.2180  142.7980 C   0  0  0  0  0  2  0  0  0  0  0  0
  192.2230  176.1120  144.9920 C   0  0  1  0  0  3  0  0  0  0  0  0
  191.9660  176.3050  146.4850 C   0  0  0  0  0  1  0  0  0  0  0  0
  193.1750  174.9410  144.6770 C   0  0  2  0  0  3  0  0  0  0  0  0
  193.2930  173.9390  145.8190 C   0  0  0  0  0  1  0  0  0  0  0  0
  194.7340  176.0150  143.2550 O   0  0  0  0  0  0  0  0  0  0  0  0
  194.5410  175.4580  144.3330 C   0  0  0  0  0  0  0  0  0  0  0  0
  195.6540  175.3450  145.3210 C   0  0  0  0  0  2  0  0  0  0  0  0
  196.7090  174.3830  144.8130 C   0  0  0  0  0  2  0  0  0  0  0  0
  197.0180  173.3490  145.8770 C   0  0  0  0  0  2  0  0  0  0  0  0
  197.5270  172.0810  145.2170 C   0  0  0  0  0  2  0  0  0  0  0  0
  196.5120  170.9560  145.3720 C   0  0  2  0  0  3  0  0  0  0  0  0
  197.2460  169.6640  145.6880 C   0  0  0  0  0  1  0  0  0  0  0  0
  195.7620  170.7950  144.1390 N   0  0  0  0  0  2  0  0  0  0  0  0
  194.9620  169.5830  144.2640 C   0  0  2  0  0  3  0  0  0  0  0  0
  192.0080  171.1670  143.6280 C   0  0  0  0  0  1  0  0  0  0  0  0
  193.3490  169.6490  142.5360 N   0  0  0  0  0  2  0  0  0  0  0  0
  192.6350  169.8590  143.7310 N   0  0  0  0  0  0  0  0  0  0  0  0
  194.6280  169.0590  142.9000 C   0  0  0  0  0  2  0  0  0  0  0  0
  193.6080  169.9370  144.8210 C   0  0  0  0  0  2  0  0  0  0  0  0
  189.3620  173.7660  142.3230 C   0  0  0  0  0  2  0  0  0  0  0  0
  188.5080  173.7870  138.7460 C   0  0  0  0  0  2  0  0  0  0  0  0
  189.9420  173.0640  137.9630 S   0  0  0  0  0  0  0  0  0  0  0  0
  189.5140  172.1970  136.8100 O   0  0  0  0  0  0  0  0  0  0  0  0
  190.6360  172.6780  140.5400 C   0  0  0  0  0  3  0  0  0  0  0  0
  188.2360  173.0970  140.0840 C   0  0  0  0  0  2  0  0  0  0  0  0
  189.4530  173.1390  140.9720 C   0  0  0  0  0  0  0  0  0  0  0  0
  190.8480  174.1560  137.4680 O   0  0  0  0  0  0  0  0  0  0  0  0
  190.8030  172.0730  139.1750 C   0  0  0  0  0  2  0  0  0  0  0  0
  1  5  1  0  0  0  0
  1  6  1  1  0  0  0
  2 12  1  1  0  0  0
  2 11  1  0  0  0  0
  3 10  1  0  0  0  0
  3 16  1  0  0  0  0
  4  8  1  0  0  0  0
  4  7  2  0  0  0  0
  5  9  1  0  0  0  0
  7  9  1  0  0  0  0
  8  1  1  0  0  0  0
 11  7  1  1  0  0  0
 11 10  1  0  0  0  0
 12 15  1  0  0  0  0
 13 35  1  1  0  0  0
 13  2  1  0  0  0  0
 13 14  1  0  0  0  0
 14  3  2  0  0  0  0
 15  4  1  0  0  0  0
 16 17  1  1  0  0  0
 18 16  1  0  0  0  0
 18 19  1  1  0  0  0
 20 21  2  0  0  0  0
 21 18  1  0  0  0  0
 21 22  1  0  0  0  0
 23 22  1  0  0  0  0
 23 24  1  0  0  0  0
 25 26  1  0  0  0  0
 25 24  1  0  0  0  0
 26 27  1  6  0  0  0
 28 26  1  0  0  0  0
 29 28  1  6  0  0  0
 29 34  1  0  0  0  0
 30 32  1  0  0  0  0
 31 33  1  0  0  0  0
 31 32  1  0  0  0  0
 32 34  1  0  0  0  0
 33 29  1  0  0  0  0
 36 40  1  0  0  0  0
 37 36  1  0  0  0  0
 37 43  1  0  0  0  0
 38 37  2  0  0  0  0
 39 41  2  0  0  0  0
 40 41  1  0  0  0  0
 41 35  1  0  0  0  0
 42 37  2  0  0  0  0
 43 39  1  0  0  0  0
M  END
>  <MODEL>
9

>  <REMARK>
 VINA RESULT:      -7.3      3.708      9.695
  Name = 
  12 active torsions:
  status: ('A' for Active; 'I' for Inactive)
    1  A    between atoms: C_1  and  C_34
    2  A    between atoms: C_1  and  C_35
    3  A    between atoms: C_2  and  C_6
    4  A    between atoms: C_2  and  C_13
    5  A    between atoms: C_4  and  C_12
    6  A    between atoms: C_4  and  C_15
    7  A    between atoms: C_6  and  C_12
    8  A    between atoms: C_10  and  C_22
    9  A    between atoms: C_10  and  C_42
   10  A    between atoms: C_11  and  N_14
   11  A    between atoms: N_14  and  C_22
   12  A    between atoms: C_15  and  C_42
                            x       y       z     vdW  Elec       q    Type
                         _______ _______ _______ _____ _____    ______ ____

>  <TORSDO>
F 12

$$$$
