=
 OpenBabel11052419533D

 37 41  0  0  1  0  0  0  0  0999 V2000
  191.4480  174.0800  141.1580 C   0  0  2  0  0  3  0  0  0  0  0  0
  191.2820  174.6690  142.5790 C   0  0  2  0  0  3  0  0  0  0  0  0
  189.8210  175.0300  142.9030 C   0  0  2  0  0  3  0  0  0  0  0  0
  189.0170  173.3110  141.2720 C   0  0  0  0  0  2  0  0  0  0  0  0
  190.4360  172.5440  139.4270 C   0  0  0  0  0  1  0  0  0  0  0  0
  190.4460  172.9320  140.8940 C   0  0  1  0  0  3  0  0  0  0  0  0
  188.9420  173.7980  142.7120 C   0  0  0  0  0  2  0  0  0  0  0  0
  187.2710  176.2520  143.8170 C   0  0  0  0  0  3  0  0  0  0  0  0
  187.9940  176.7780  142.5870 C   0  0  2  0  0  0  0  0  0  0  0  0
  189.2900  177.4880  142.8990 C   0  0  0  0  0  2  0  0  0  0  0  0
  187.0960  177.5240  141.6390 C   0  0  0  0  0  2  0  0  0  0  0  0
  184.5940  178.5230  140.5690 C   0  0  0  0  0  1  0  0  0  0  0  0
  184.6690  177.8390  141.8340 N   0  0  0  0  0  0  0  0  0  0  0  0
  185.7750  177.3980  142.3210 C   0  0  0  0  0  0  0  0  0  0  0  0
  189.3060  176.2100  142.0650 C   0  0  1  0  0  3  0  0  0  0  0  0
  185.8160  176.6640  143.6220 C   0  0  0  0  0  3  0  0  0  0  0  0
  194.6110  176.3540  143.8850 C   0  0  2  0  0  3  0  0  0  0  0  0
  194.7620  176.7190  145.2600 O   0  0  0  0  0  0  0  0  0  0  0  0
  194.5200  175.6090  146.1160 C   0  0  0  0  0  2  0  0  0  0  0  0
  193.0410  175.5300  146.5880 C   0  0  2  0  0  3  0  0  0  0  0  0
  191.9890  175.2890  145.4740 C   0  0  0  0  0  2  0  0  0  0  0  0
  192.2140  175.8620  142.8280 C   0  0  1  0  0  3  0  0  0  0  0  0
  192.2820  176.2160  144.3090 C   0  0  2  0  0  3  0  0  0  0  0  0
  193.4090  175.4440  143.6470 C   0  0  2  0  0  3  0  0  0  0  0  0
  192.6530  176.6440  147.5640 C   0  0  0  0  0  2  0  0  0  0  0  0
  191.2070  176.5530  148.0240 C   0  0  0  0  0  1  0  0  0  0  0  0
  196.8580  176.7500  142.8840 C   0  0  0  0  0  1  0  0  0  0  0  0
  195.8730  175.6950  143.3510 C   0  0  0  0  0  2  0  0  0  0  0  0
  192.9130  173.6490  140.9410 C   0  0  2  0  0  3  0  0  0  0  0  0
  193.5720  174.1290  139.6460 C   0  0  2  0  0  3  0  0  0  0  0  0
  194.2180  173.0850  138.9800 O   0  0  0  0  0  1  0  0  0  0  0  0
  194.5670  175.2340  139.9410 C   0  0  0  0  0  1  0  0  0  0  0  0
  193.3410  172.2850  141.4980 C   0  0  0  0  0  2  0  0  0  0  0  0
  194.5230  172.3740  142.4490 C   0  0  0  0  0  2  0  0  0  0  0  0
  194.2300  171.6060  143.7260 C   0  0  0  0  0  2  0  0  0  0  0  0
  192.8000  171.6590  144.0390 C   0  0  0  0  0  0  0  0  0  0  0  0
  191.6220  171.7000  144.2950 C   0  0  0  0  0  3  0  0  0  0  0  0
  1 29  1  1  0  0  0
  1  2  1  0  0  0  0
  2 22  1  6  0  0  0
  2  3  1  0  0  0  0
  3  7  1  6  0  0  0
  4  7  1  0  0  0  0
  6  5  1  6  0  0  0
  6  1  1  0  0  0  0
  6  4  1  0  0  0  0
  9 11  1  6  0  0  0
  9 10  1  0  0  0  0
  9  8  1  0  0  0  0
 11 14  1  0  0  0  0
 12 13  1  0  0  0  0
 13 14  2  0  0  0  0
 14 16  1  0  0  0  0
 15  9  1  0  0  0  0
 15 10  1  1  0  0  0
 15  3  1  0  0  0  0
 16  8  2  0  0  0  0
 17 28  1  1  0  0  0
 17 18  1  0  0  0  0
 18 19  1  0  0  0  0
 19 20  1  0  0  0  0
 20 25  1  6  0  0  0
 21 20  1  0  0  0  0
 22 24  1  0  0  0  0
 22 23  1  0  0  0  0
 23 21  1  0  0  0  0
 24 17  1  0  0  0  0
 24 23  1  0  0  0  0
 25 26  1  0  0  0  0
 27 28  1  0  0  0  0
 29 33  1  0  0  0  0
 30 32  1  0  0  0  0
 30 29  1  0  0  0  0
 31 30  1  0  0  0  0
 33 34  1  0  0  0  0
 34 35  1  0  0  0  0
 35 36  1  0  0  0  0
 36 37  3  0  0  0  0
M  END
>  <MODEL>
1

>  <REMARK>
 VINA RESULT:      -5.9      0.000      0.000
  Name = 
  10 active torsions:
  status: ('A' for Active; 'I' for Inactive)
    1  A    between atoms: C_1  and  C_23
    2  A    between atoms: C_3  and  C_30
    3  A    between atoms: C_4  and  C_13
    4  A    between atoms: C_9  and  C_13
    5  A    between atoms: C_9  and  C_16
    6  A    between atoms: C_10  and  C_29
    7  A    between atoms: C_11  and  C_26
    8  A    between atoms: C_13  and  C_20
    9  A    between atoms: C_14  and  C_31
   10  A    between atoms: C_16  and  C_30
                            x       y       z     vdW  Elec       q    Type
                         _______ _______ _______ _____ _____    ______ ____

>  <TORSDO>
F 10

$$$$
=
 OpenBabel11052419533D

 37 41  0  0  1  0  0  0  0  0999 V2000
  191.7610  173.4530  143.4430 C   0  0  2  0  0  3  0  0  0  0  0  0
  190.4890  173.7170  142.6010 C   0  0  2  0  0  3  0  0  0  0  0  0
  190.2460  172.6270  141.5400 C   0  0  2  0  0  3  0  0  0  0  0  0
  191.4920  170.9650  142.9370 C   0  0  0  0  0  2  0  0  0  0  0  0
  193.1420  171.6840  144.6010 C   0  0  0  0  0  1  0  0  0  0  0  0
  191.7840  172.0130  144.0070 C   0  0  1  0  0  3  0  0  0  0  0  0
  190.1800  171.2640  142.2230 C   0  0  0  0  0  2  0  0  0  0  0  0
  189.5120  171.2050  139.0360 C   0  0  0  0  0  3  0  0  0  0  0  0
  190.8650  171.8850  139.1830 C   0  0  2  0  0  0  0  0  0  0  0  0
  190.7900  173.3920  139.2080 C   0  0  0  0  0  2  0  0  0  0  0  0
  191.9140  171.3350  138.2550 C   0  0  0  0  0  2  0  0  0  0  0  0
  193.0580  169.5240  136.3040 C   0  0  0  0  0  1  0  0  0  0  0  0
  191.6750  169.4520  136.6970 N   0  0  0  0  0  0  0  0  0  0  0  0
  191.1560  170.2560  137.5580 C   0  0  0  0  0  0  0  0  0  0  0  0
  191.3070  172.6370  140.4290 C   0  0  1  0  0  3  0  0  0  0  0  0
  189.7240  170.1370  137.9690 C   0  0  0  0  0  3  0  0  0  0  0  0
  190.0560  177.6450  142.6800 C   0  0  2  0  0  3  0  0  0  0  0  0
  188.7640  178.2460  142.5570 O   0  0  0  0  0  0  0  0  0  0  0  0
  187.8620  177.7300  143.5280 C   0  0  0  0  0  2  0  0  0  0  0  0
  187.0410  176.5200  142.9990 C   0  0  2  0  0  3  0  0  0  0  0  0
  187.8620  175.2530  142.6430 C   0  0  0  0  0  2  0  0  0  0  0  0
  190.4900  175.1130  141.9660 C   0  0  1  0  0  3  0  0  0  0  0  0
  189.0740  175.6620  141.8270 C   0  0  2  0  0  3  0  0  0  0  0  0
  189.9830  176.1430  142.9440 C   0  0  2  0  0  3  0  0  0  0  0  0
  186.0140  176.9020  141.9300 C   0  0  0  0  0  2  0  0  0  0  0  0
  185.1420  178.0770  142.3390 C   0  0  0  0  0  1  0  0  0  0  0  0
  190.4820  177.7830  145.1310 C   0  0  0  0  0  1  0  0  0  0  0  0
  190.8740  178.3220  143.7680 C   0  0  0  0  0  2  0  0  0  0  0  0
  191.8850  174.5240  144.5450 C   0  0  2  0  0  3  0  0  0  0  0  0
  193.1690  175.3580  144.5320 C   0  0  2  0  0  3  0  0  0  0  0  0
  194.0470  174.9360  143.5320 O   0  0  0  0  0  1  0  0  0  0  0  0
  193.8590  175.2790  145.8800 C   0  0  0  0  0  1  0  0  0  0  0  0
  191.2450  174.2200  145.9060 C   0  0  0  0  0  2  0  0  0  0  0  0
  189.7260  174.2550  145.8710 C   0  0  0  0  0  2  0  0  0  0  0  0
  189.1790  174.7340  147.2040 C   0  0  0  0  0  2  0  0  0  0  0  0
  188.1260  175.7310  146.9970 C   0  0  0  0  0  0  0  0  0  0  0  0
  187.2590  176.5520  146.8300 C   0  0  0  0  0  3  0  0  0  0  0  0
  1  6  1  0  0  0  0
  1 29  1  1  0  0  0
  2 22  1  6  0  0  0
  2  1  1  0  0  0  0
  3  7  1  1  0  0  0
  3  2  1  0  0  0  0
  4  6  1  0  0  0  0
  6  5  1  6  0  0  0
  7  4  1  0  0  0  0
  8  9  1  0  0  0  0
  9 11  1  6  0  0  0
  9 10  1  0  0  0  0
  9 15  1  0  0  0  0
 12 13  1  0  0  0  0
 13 14  2  0  0  0  0
 14 16  1  0  0  0  0
 14 11  1  0  0  0  0
 15 10  1  6  0  0  0
 15  3  1  0  0  0  0
 16  8  2  0  0  0  0
 17 24  1  0  0  0  0
 17 28  1  1  0  0  0
 18 17  1  0  0  0  0
 18 19  1  0  0  0  0
 20 25  1  6  0  0  0
 20 19  1  0  0  0  0
 21 20  1  0  0  0  0
 22 24  1  0  0  0  0
 23 22  1  0  0  0  0
 23 21  1  0  0  0  0
 23 24  1  0  0  0  0
 25 26  1  0  0  0  0
 28 27  1  0  0  0  0
 29 33  1  0  0  0  0
 30 29  1  0  0  0  0
 30 32  1  0  0  0  0
 31 30  1  0  0  0  0
 34 33  1  0  0  0  0
 34 35  1  0  0  0  0
 36 35  1  0  0  0  0
 37 36  3  0  0  0  0
M  END
>  <MODEL>
2

>  <REMARK>
 VINA RESULT:      -5.7      2.958      6.546
  Name = 
  10 active torsions:
  status: ('A' for Active; 'I' for Inactive)
    1  A    between atoms: C_1  and  C_23
    2  A    between atoms: C_3  and  C_30
    3  A    between atoms: C_4  and  C_13
    4  A    between atoms: C_9  and  C_13
    5  A    between atoms: C_9  and  C_16
    6  A    between atoms: C_10  and  C_29
    7  A    between atoms: C_11  and  C_26
    8  A    between atoms: C_13  and  C_20
    9  A    between atoms: C_14  and  C_31
   10  A    between atoms: C_16  and  C_30
                            x       y       z     vdW  Elec       q    Type
                         _______ _______ _______ _____ _____    ______ ____

>  <TORSDO>
F 10

$$$$
=
 OpenBabel11052419533D

 37 41  0  0  1  0  0  0  0  0999 V2000
  190.6160  173.8330  140.9080 C   0  0  2  0  0  3  0  0  0  0  0  0
  191.2460  174.2810  142.2490 C   0  0  2  0  0  3  0  0  0  0  0  0
  190.2070  174.8600  143.2260 C   0  0  2  0  0  3  0  0  0  0  0  0
  188.4050  173.5040  142.1400 C   0  0  0  0  0  2  0  0  0  0  0  0
  188.6290  172.7040  139.8340 C   0  0  0  0  0  1  0  0  0  0  0  0
  189.3890  172.9190  141.1300 C   0  0  1  0  0  3  0  0  0  0  0  0
  189.1010  173.8340  143.4530 C   0  0  0  0  0  2  0  0  0  0  0  0
  188.8020  176.4790  145.2850 C   0  0  0  0  0  3  0  0  0  0  0  0
  188.9170  176.9670  143.8490 C   0  0  2  0  0  0  0  0  0  0  0  0
  190.3180  177.3630  143.4490 C   0  0  0  0  0  2  0  0  0  0  0  0
  187.8630  177.9720  143.4740 C   0  0  0  0  0  2  0  0  0  0  0  0
  185.4620  179.5640  143.8030 C   0  0  0  0  0  1  0  0  0  0  0  0
  185.9980  178.7550  144.8670 N   0  0  0  0  0  0  0  0  0  0  0  0
  187.0670  178.0510  144.7330 C   0  0  0  0  0  0  0  0  0  0  0  0
  189.6270  176.1990  142.7440 C   0  0  1  0  0  3  0  0  0  0  0  0
  187.5810  177.1970  145.8470 C   0  0  0  0  0  3  0  0  0  0  0  0
  195.0790  175.1990  141.9430 C   0  0  2  0  0  3  0  0  0  0  0  0
  195.8780  175.4220  143.1080 O   0  0  0  0  0  0  0  0  0  0  0  0
  195.8080  174.3170  144.0000 C   0  0  0  0  0  2  0  0  0  0  0  0
  194.6940  174.4850  145.0730 C   0  0  2  0  0  3  0  0  0  0  0  0
  193.2410  174.5340  144.5340 C   0  0  0  0  0  2  0  0  0  0  0  0
  192.4160  175.2530  142.0470 C   0  0  1  0  0  3  0  0  0  0  0  0
  193.1860  175.4740  143.3440 C   0  0  2  0  0  3  0  0  0  0  0  0
  193.7340  174.5550  142.2680 C   0  0  2  0  0  3  0  0  0  0  0  0
  195.0010  175.5750  146.1030 C   0  0  0  0  0  2  0  0  0  0  0  0
  193.7490  176.2310  146.6620 C   0  0  0  0  0  1  0  0  0  0  0  0
  196.5880  175.2460  139.9610 C   0  0  0  0  0  1  0  0  0  0  0  0
  195.8240  174.3540  140.9220 C   0  0  0  0  0  2  0  0  0  0  0  0
  191.6940  173.1730  140.0230 C   0  0  2  0  0  3  0  0  0  0  0  0
  191.8140  173.7100  138.5950 C   0  0  2  0  0  3  0  0  0  0  0  0
  191.6460  172.6970  137.6490 O   0  0  0  0  0  1  0  0  0  0  0  0
  193.1640  174.3720  138.3950 C   0  0  0  0  0  1  0  0  0  0  0  0
  191.9880  171.6850  140.2540 C   0  0  0  0  0  2  0  0  0  0  0  0
  193.4060  171.4260  140.7380 C   0  0  0  0  0  2  0  0  0  0  0  0
  193.4000  170.3990  141.8560 C   0  0  0  0  0  2  0  0  0  0  0  0
  192.5580  170.8520  142.9650 C   0  0  0  0  0  0  0  0  0  0  0  0
  191.8630  171.2230  143.8780 C   0  0  0  0  0  3  0  0  0  0  0  0
  1 29  1  6  0  0  0
  1  6  1  0  0  0  0
  1  2  1  0  0  0  0
  2 22  1  6  0  0  0
  2  3  1  0  0  0  0
  3  7  1  6  0  0  0
  4  7  1  0  0  0  0
  6  5  1  6  0  0  0
  6  4  1  0  0  0  0
  8 16  2  0  0  0  0
  9 10  1  1  0  0  0
  9  8  1  0  0  0  0
 11  9  1  0  0  0  0
 11 14  1  0  0  0  0
 12 13  1  0  0  0  0
 14 13  2  0  0  0  0
 14 16  1  0  0  0  0
 15  3  1  0  0  0  0
 15 10  1  1  0  0  0
 15  9  1  0  0  0  0
 17 28  1  6  0  0  0
 17 24  1  0  0  0  0
 17 18  1  0  0  0  0
 18 19  1  0  0  0  0
 19 20  1  0  0  0  0
 20 25  1  6  0  0  0
 21 20  1  0  0  0  0
 22 24  1  0  0  0  0
 22 23  1  0  0  0  0
 23 21  1  0  0  0  0
 24 23  1  0  0  0  0
 25 26  1  0  0  0  0
 27 28  1  0  0  0  0
 29 33  1  0  0  0  0
 30 29  1  0  0  0  0
 31 30  1  0  0  0  0
 32 30  1  0  0  0  0
 33 34  1  0  0  0  0
 34 35  1  0  0  0  0
 35 36  1  0  0  0  0
 36 37  3  0  0  0  0
M  END
>  <MODEL>
3

>  <REMARK>
 VINA RESULT:      -5.7      1.783      2.145
  Name = 
  10 active torsions:
  status: ('A' for Active; 'I' for Inactive)
    1  A    between atoms: C_1  and  C_23
    2  A    between atoms: C_3  and  C_30
    3  A    between atoms: C_4  and  C_13
    4  A    between atoms: C_9  and  C_13
    5  A    between atoms: C_9  and  C_16
    6  A    between atoms: C_10  and  C_29
    7  A    between atoms: C_11  and  C_26
    8  A    between atoms: C_13  and  C_20
    9  A    between atoms: C_14  and  C_31
   10  A    between atoms: C_16  and  C_30
                            x       y       z     vdW  Elec       q    Type
                         _______ _______ _______ _____ _____    ______ ____

>  <TORSDO>
F 10

$$$$
=
 OpenBabel11052419533D

 37 41  0  0  1  0  0  0  0  0999 V2000
  192.2280  175.3240  144.0280 C   0  0  2  0  0  3  0  0  0  0  0  0
  191.1650  175.0760  142.9300 C   0  0  2  0  0  3  0  0  0  0  0  0
  190.0510  176.1380  142.9360 C   0  0  2  0  0  3  0  0  0  0  0  0
  191.6170  177.8010  143.9570 C   0  0  0  0  0  2  0  0  0  0  0  0
  193.5830  177.0820  145.2320 C   0  0  0  0  0  1  0  0  0  0  0  0
  192.7500  176.7800  144.0000 C   0  0  1  0  0  3  0  0  0  0  0  0
  190.6730  177.5240  142.7950 C   0  0  0  0  0  2  0  0  0  0  0  0
  187.5000  177.6590  142.8170 C   0  0  0  0  0  3  0  0  0  0  0  0
  187.8810  176.8640  144.0570 C   0  0  2  0  0  0  0  0  0  0  0  0
  187.8420  175.3690  143.8580 C   0  0  0  0  0  2  0  0  0  0  0  0
  187.1900  177.3380  145.3060 C   0  0  0  0  0  2  0  0  0  0  0  0
  185.5540  179.0780  146.9480 C   0  0  0  0  0  1  0  0  0  0  0  0
  185.6780  179.2600  145.5250 N   0  0  0  0  0  0  0  0  0  0  0  0
  186.3960  178.4890  144.7860 C   0  0  0  0  0  0  0  0  0  0  0  0
  189.1640  176.0560  144.1870 C   0  0  1  0  0  3  0  0  0  0  0  0
  186.5290  178.7220  143.3160 C   0  0  0  0  0  3  0  0  0  0  0  0
  191.1170  171.2170  142.0770 C   0  0  2  0  0  3  0  0  0  0  0  0
  190.5620  170.7410  140.8470 O   0  0  0  0  0  0  0  0  0  0  0  0
  191.1620  171.3840  139.7290 C   0  0  0  0  0  2  0  0  0  0  0  0
  190.3770  172.6460  139.2720 C   0  0  2  0  0  3  0  0  0  0  0  0
  190.3150  173.8100  140.2960 C   0  0  0  0  0  2  0  0  0  0  0  0
  190.5780  173.6610  142.9960 C   0  0  1  0  0  3  0  0  0  0  0  0
  189.9660  173.2490  141.6620 C   0  0  2  0  0  3  0  0  0  0  0  0
  191.3300  172.7280  142.0800 C   0  0  2  0  0  3  0  0  0  0  0  0
  189.0230  172.3220  138.6350 C   0  0  0  0  0  2  0  0  0  0  0  0
  188.2640  173.5620  138.1920 C   0  0  0  0  0  1  0  0  0  0  0  0
  192.5070  170.2130  143.8840 C   0  0  0  0  0  1  0  0  0  0  0  0
  192.4230  170.5090  142.3980 C   0  0  0  0  0  2  0  0  0  0  0  0
  193.3610  174.2850  143.8980 C   0  0  2  0  0  3  0  0  0  0  0  0
  193.5970  173.3910  145.1180 C   0  0  2  0  0  3  0  0  0  0  0  0
  192.9460  173.8830  146.2500 O   0  0  0  0  0  1  0  0  0  0  0  0
  195.0830  173.2710  145.3990 C   0  0  0  0  0  1  0  0  0  0  0  0
  194.5770  174.6650  143.0440 C   0  0  0  0  0  2  0  0  0  0  0  0
  194.5030  174.1200  141.6270 C   0  0  0  0  0  2  0  0  0  0  0  0
  194.0680  175.2120  140.6650 C   0  0  0  0  0  2  0  0  0  0  0  0
  193.7820  174.6470  139.3450 C   0  0  0  0  0  0  0  0  0  0  0  0
  193.5440  174.1810  138.2580 C   0  0  0  0  0  3  0  0  0  0  0  0
  1 29  1  6  0  0  0
  2  3  1  0  0  0  0
  2 22  1  1  0  0  0
  2  1  1  0  0  0  0
  3  7  1  1  0  0  0
  3 15  1  0  0  0  0
  4  6  1  0  0  0  0
  6  1  1  0  0  0  0
  6  5  1  1  0  0  0
  7  4  1  0  0  0  0
  8 16  2  0  0  0  0
  9  8  1  6  0  0  0
  9 15  1  0  0  0  0
  9 11  1  0  0  0  0
 10  9  1  0  0  0  0
 13 12  1  0  0  0  0
 14 11  1  0  0  0  0
 14 13  2  0  0  0  0
 15 10  1  6  0  0  0
 16 14  1  0  0  0  0
 17 24  1  0  0  0  0
 17 28  1  6  0  0  0
 18 17  1  0  0  0  0
 19 18  1  0  0  0  0
 20 25  1  1  0  0  0
 20 19  1  0  0  0  0
 20 21  1  0  0  0  0
 21 23  1  0  0  0  0
 23 24  1  0  0  0  0
 23 22  1  0  0  0  0
 24 22  1  0  0  0  0
 26 25  1  0  0  0  0
 28 27  1  0  0  0  0
 29 30  1  0  0  0  0
 30 32  1  0  0  0  0
 30 31  1  0  0  0  0
 33 29  1  0  0  0  0
 34 33  1  0  0  0  0
 35 34  1  0  0  0  0
 36 35  1  0  0  0  0
 37 36  3  0  0  0  0
M  END
>  <MODEL>
4

>  <REMARK>
 VINA RESULT:      -5.5      2.070      5.595
  Name = 
  10 active torsions:
  status: ('A' for Active; 'I' for Inactive)
    1  A    between atoms: C_1  and  C_23
    2  A    between atoms: C_3  and  C_30
    3  A    between atoms: C_4  and  C_13
    4  A    between atoms: C_9  and  C_13
    5  A    between atoms: C_9  and  C_16
    6  A    between atoms: C_10  and  C_29
    7  A    between atoms: C_11  and  C_26
    8  A    between atoms: C_13  and  C_20
    9  A    between atoms: C_14  and  C_31
   10  A    between atoms: C_16  and  C_30
                            x       y       z     vdW  Elec       q    Type
                         _______ _______ _______ _____ _____    ______ ____

>  <TORSDO>
F 10

$$$$
=
 OpenBabel11052419533D

 37 41  0  0  1  0  0  0  0  0999 V2000
  193.1890  174.3520  144.7800 C   0  0  2  0  0  3  0  0  0  0  0  0
  192.0400  174.5210  143.7560 C   0  0  2  0  0  3  0  0  0  0  0  0
  191.1720  175.7600  144.0410 C   0  0  2  0  0  3  0  0  0  0  0  0
  193.1020  176.8700  145.1850 C   0  0  0  0  0  2  0  0  0  0  0  0
  194.9410  175.5610  146.1380 C   0  0  0  0  0  1  0  0  0  0  0  0
  193.9980  175.6580  144.9530 C   0  0  1  0  0  3  0  0  0  0  0  0
  192.0600  177.0000  144.0820 C   0  0  0  0  0  2  0  0  0  0  0  0
  188.3780  176.7640  143.9210 C   0  0  0  0  0  3  0  0  0  0  0  0
  188.9390  176.1640  145.2010 C   0  0  2  0  0  0  0  0  0  0  0  0
  189.1780  174.6750  145.1230 C   0  0  0  0  0  2  0  0  0  0  0  0
  188.2100  176.6070  146.4390 C   0  0  0  0  0  2  0  0  0  0  0  0
  186.3260  178.1480  148.0130 C   0  0  0  0  0  1  0  0  0  0  0  0
  186.3680  178.2260  146.5750 N   0  0  0  0  0  0  0  0  0  0  0  0
  187.1970  177.5410  145.8680 C   0  0  0  0  0  0  0  0  0  0  0  0
  190.3550  175.6230  145.3350 C   0  0  1  0  0  3  0  0  0  0  0  0
  187.2380  177.6660  144.3790 C   0  0  0  0  0  3  0  0  0  0  0  0
  190.9760  171.1040  142.0760 C   0  0  2  0  0  3  0  0  0  0  0  0
  190.1090  171.0820  140.9400 O   0  0  0  0  0  0  0  0  0  0  0  0
  190.6140  171.8960  139.8890 C   0  0  0  0  0  2  0  0  0  0  0  0
  190.0560  173.3470  139.9360 C   0  0  2  0  0  3  0  0  0  0  0  0
  190.4490  174.1800  141.1840 C   0  0  0  0  0  2  0  0  0  0  0  0
  191.1770  173.2590  143.6340 C   0  0  1  0  0  3  0  0  0  0  0  0
  190.2490  173.3340  142.4270 C   0  0  2  0  0  3  0  0  0  0  0  0
  191.5160  172.5010  142.3750 C   0  0  2  0  0  3  0  0  0  0  0  0
  188.5690  173.4380  139.5840 C   0  0  0  0  0  2  0  0  0  0  0  0
  188.3200  174.0560  138.2180 C   0  0  0  0  0  1  0  0  0  0  0  0
  191.6300  168.7010  142.0130 C   0  0  0  0  0  1  0  0  0  0  0  0
  192.1300  170.1290  141.9050 C   0  0  0  0  0  2  0  0  0  0  0  0
  194.0730  173.1540  144.3750 C   0  0  2  0  0  3  0  0  0  0  0  0
  194.3220  172.1040  145.4600 C   0  0  2  0  0  3  0  0  0  0  0  0
  195.6790  171.9970  145.7700 O   0  0  0  0  0  1  0  0  0  0  0  0
  193.7960  170.7540  145.0130 C   0  0  0  0  0  1  0  0  0  0  0  0
  195.1930  173.4120  143.3590 C   0  0  0  0  0  2  0  0  0  0  0  0
  194.8980  172.8300  141.9860 C   0  0  0  0  0  2  0  0  0  0  0  0
  195.3320  173.7980  140.9000 C   0  0  0  0  0  2  0  0  0  0  0  0
  194.7080  175.1070  141.1000 C   0  0  0  0  0  0  0  0  0  0  0  0
  194.1930  176.1860  141.2630 C   0  0  0  0  0  3  0  0  0  0  0  0
  1 29  1  6  0  0  0
  1  6  1  0  0  0  0
  2 22  1  1  0  0  0
  2  3  1  0  0  0  0
  2  1  1  0  0  0  0
  3  7  1  1  0  0  0
  3 15  1  0  0  0  0
  6  4  1  0  0  0  0
  6  5  1  1  0  0  0
  7  4  1  0  0  0  0
  8 16  2  0  0  0  0
  9  8  1  6  0  0  0
  9 15  1  0  0  0  0
  9 11  1  0  0  0  0
 10  9  1  0  0  0  0
 13 12  1  0  0  0  0
 14 11  1  0  0  0  0
 14 13  2  0  0  0  0
 15 10  1  6  0  0  0
 16 14  1  0  0  0  0
 17 28  1  6  0  0  0
 17 24  1  0  0  0  0
 18 17  1  0  0  0  0
 19 20  1  0  0  0  0
 19 18  1  0  0  0  0
 20 25  1  1  0  0  0
 20 21  1  0  0  0  0
 21 23  1  0  0  0  0
 23 22  1  0  0  0  0
 24 23  1  0  0  0  0
 24 22  1  0  0  0  0
 26 25  1  0  0  0  0
 28 27  1  0  0  0  0
 29 30  1  0  0  0  0
 30 31  1  0  0  0  0
 32 30  1  0  0  0  0
 33 29  1  0  0  0  0
 34 33  1  0  0  0  0
 35 36  1  0  0  0  0
 35 34  1  0  0  0  0
 36 37  3  0  0  0  0
M  END
>  <MODEL>
5

>  <REMARK>
 VINA RESULT:      -5.3      2.349      5.778
  Name = 
  10 active torsions:
  status: ('A' for Active; 'I' for Inactive)
    1  A    between atoms: C_1  and  C_23
    2  A    between atoms: C_3  and  C_30
    3  A    between atoms: C_4  and  C_13
    4  A    between atoms: C_9  and  C_13
    5  A    between atoms: C_9  and  C_16
    6  A    between atoms: C_10  and  C_29
    7  A    between atoms: C_11  and  C_26
    8  A    between atoms: C_13  and  C_20
    9  A    between atoms: C_14  and  C_31
   10  A    between atoms: C_16  and  C_30
                            x       y       z     vdW  Elec       q    Type
                         _______ _______ _______ _____ _____    ______ ____

>  <TORSDO>
F 10

$$$$
=
 OpenBabel11052419533D

 37 41  0  0  1  0  0  0  0  0999 V2000
  191.1440  174.8680  143.7280 C   0  0  2  0  0  3  0  0  0  0  0  0
  190.3150  174.9350  142.4230 C   0  0  2  0  0  3  0  0  0  0  0  0
  189.2840  176.0780  142.4350 C   0  0  2  0  0  3  0  0  0  0  0  0
  190.6990  177.3600  144.0530 C   0  0  0  0  0  2  0  0  0  0  0  0
  192.3200  176.2280  145.5010 C   0  0  0  0  0  1  0  0  0  0  0  0
  191.7400  176.2460  144.0990 C   0  0  1  0  0  3  0  0  0  0  0  0
  189.9980  177.3990  142.7020 C   0  0  0  0  0  2  0  0  0  0  0  0
  187.0070  177.9830  142.3060 C   0  0  0  0  0  3  0  0  0  0  0  0
  187.0310  176.8610  143.3320 C   0  0  2  0  0  0  0  0  0  0  0  0
  186.8580  175.4850  142.7360 C   0  0  0  0  0  2  0  0  0  0  0  0
  186.1600  177.1270  144.5300 C   0  0  0  0  0  2  0  0  0  0  0  0
  184.4400  178.6660  146.2830 C   0  0  0  0  0  1  0  0  0  0  0  0
  184.8710  179.1630  145.0020 N   0  0  0  0  0  0  0  0  0  0  0  0
  185.6290  178.4850  144.2130 C   0  0  0  0  0  0  0  0  0  0  0  0
  188.1570  175.8440  143.4530 C   0  0  1  0  0  3  0  0  0  0  0  0
  186.0860  179.0410  142.9030 C   0  0  0  0  0  3  0  0  0  0  0  0
  190.2780  171.2700  140.9420 C   0  0  2  0  0  3  0  0  0  0  0  0
  190.0680  171.0420  139.5460 O   0  0  0  0  0  0  0  0  0  0  0  0
  190.9970  171.7750  138.7580 C   0  0  0  0  0  2  0  0  0  0  0  0
  190.4510  173.1660  138.3290 C   0  0  2  0  0  3  0  0  0  0  0  0
  190.1720  174.1660  139.4810 C   0  0  0  0  0  2  0  0  0  0  0  0
  189.6490  173.5950  142.0860 C   0  0  1  0  0  3  0  0  0  0  0  0
  189.4170  173.4500  140.5860 C   0  0  2  0  0  3  0  0  0  0  0  0
  190.5720  172.7330  141.2610 C   0  0  2  0  0  3  0  0  0  0  0  0
  189.3160  173.0840  137.3040 C   0  0  0  0  0  2  0  0  0  0  0  0
  188.7540  174.4460  136.9310 C   0  0  0  0  0  1  0  0  0  0  0  0
  190.9060  168.9610  141.6380 C   0  0  0  0  0  1  0  0  0  0  0  0
  191.3950  170.3890  141.4790 C   0  0  0  0  0  2  0  0  0  0  0  0
  192.2190  173.7690  143.6050 C   0  0  2  0  0  3  0  0  0  0  0  0
  192.1530  172.6420  144.6380 C   0  0  2  0  0  3  0  0  0  0  0  0
  193.0560  171.6190  144.3420 O   0  0  0  0  0  1  0  0  0  0  0  0
  190.7480  172.0750  144.7050 C   0  0  0  0  0  1  0  0  0  0  0  0
  193.6040  174.1870  143.0910 C   0  0  0  0  0  2  0  0  0  0  0  0
  193.7800  173.9550  141.5990 C   0  0  0  0  0  2  0  0  0  0  0  0
  193.7850  175.2810  140.8580 C   0  0  0  0  0  2  0  0  0  0  0  0
  194.9660  176.0670  141.2220 C   0  0  0  0  0  0  0  0  0  0  0  0
  195.9400  176.7120  141.5200 C   0  0  0  0  0  3  0  0  0  0  0  0
  1 29  1  6  0  0  0
  1  6  1  0  0  0  0
  2 22  1  1  0  0  0
  2  3  1  0  0  0  0
  2  1  1  0  0  0  0
  3  7  1  1  0  0  0
  3 15  1  0  0  0  0
  4  6  1  0  0  0  0
  6  5  1  1  0  0  0
  7  4  1  0  0  0  0
  8 16  2  0  0  0  0
  9  8  1  6  0  0  0
  9 15  1  0  0  0  0
  9 11  1  0  0  0  0
 10  9  1  0  0  0  0
 13 12  1  0  0  0  0
 14 11  1  0  0  0  0
 14 13  2  0  0  0  0
 15 10  1  6  0  0  0
 16 14  1  0  0  0  0
 17 24  1  0  0  0  0
 17 28  1  6  0  0  0
 18 17  1  0  0  0  0
 19 18  1  0  0  0  0
 20 25  1  1  0  0  0
 20 19  1  0  0  0  0
 20 21  1  0  0  0  0
 21 23  1  0  0  0  0
 23 24  1  0  0  0  0
 23 22  1  0  0  0  0
 24 22  1  0  0  0  0
 26 25  1  0  0  0  0
 28 27  1  0  0  0  0
 29 30  1  0  0  0  0
 30 32  1  0  0  0  0
 31 30  1  0  0  0  0
 33 29  1  0  0  0  0
 34 33  1  0  0  0  0
 35 36  1  0  0  0  0
 35 34  1  0  0  0  0
 36 37  3  0  0  0  0
M  END
>  <MODEL>
6

>  <REMARK>
 VINA RESULT:      -5.2      2.094      5.841
  Name = 
  10 active torsions:
  status: ('A' for Active; 'I' for Inactive)
    1  A    between atoms: C_1  and  C_23
    2  A    between atoms: C_3  and  C_30
    3  A    between atoms: C_4  and  C_13
    4  A    between atoms: C_9  and  C_13
    5  A    between atoms: C_9  and  C_16
    6  A    between atoms: C_10  and  C_29
    7  A    between atoms: C_11  and  C_26
    8  A    between atoms: C_13  and  C_20
    9  A    between atoms: C_14  and  C_31
   10  A    between atoms: C_16  and  C_30
                            x       y       z     vdW  Elec       q    Type
                         _______ _______ _______ _____ _____    ______ ____

>  <TORSDO>
F 10

$$$$
=
 OpenBabel11052419533D

 37 41  0  0  1  0  0  0  0  0999 V2000
  193.6470  174.9230  144.4720 C   0  0  2  0  0  3  0  0  0  0  0  0
  192.7630  174.7530  143.2130 C   0  0  2  0  0  3  0  0  0  0  0  0
  191.4980  175.6290  143.2570 C   0  0  2  0  0  3  0  0  0  0  0  0
  192.6560  177.2560  144.7650 C   0  0  0  0  0  2  0  0  0  0  0  0
  194.5630  176.5760  146.1460 C   0  0  0  0  0  1  0  0  0  0  0  0
  193.9270  176.4120  144.7780 C   0  0  1  0  0  3  0  0  0  0  0  0
  191.9000  177.0880  143.4540 C   0  0  0  0  0  2  0  0  0  0  0  0
  188.8590  176.9950  143.2440 C   0  0  0  0  0  3  0  0  0  0  0  0
  189.1820  175.9260  144.2760 C   0  0  2  0  0  0  0  0  0  0  0  0
  189.2790  174.5330  143.7020 C   0  0  0  0  0  2  0  0  0  0  0  0
  188.3410  176.0220  145.5200 C   0  0  0  0  0  2  0  0  0  0  0  0
  186.4260  177.1880  147.3570 C   0  0  0  0  0  1  0  0  0  0  0  0
  186.6690  177.7410  146.0490 N   0  0  0  0  0  0  0  0  0  0  0  0
  187.5110  177.2260  145.2240 C   0  0  0  0  0  0  0  0  0  0  0  0
  190.5060  175.1790  144.3400 C   0  0  1  0  0  3  0  0  0  0  0  0
  187.7640  177.8400  143.8850 C   0  0  0  0  0  3  0  0  0  0  0  0
  193.2260  171.2720  141.3980 C   0  0  2  0  0  3  0  0  0  0  0  0
  192.6380  171.0250  140.1170 O   0  0  0  0  0  0  0  0  0  0  0  0
  193.0250  172.0160  139.1730 C   0  0  0  0  0  2  0  0  0  0  0  0
  192.0160  173.1970  139.0990 C   0  0  2  0  0  3  0  0  0  0  0  0
  191.8740  174.0450  140.3890 C   0  0  0  0  0  2  0  0  0  0  0  0
  192.4090  173.2860  142.9430 C   0  0  1  0  0  3  0  0  0  0  0  0
  191.7450  173.1150  141.5810 C   0  0  2  0  0  3  0  0  0  0  0  0
  193.2050  172.7500  141.7790 C   0  0  2  0  0  3  0  0  0  0  0  0
  190.6740  172.8120  138.4700 C   0  0  0  0  0  2  0  0  0  0  0  0
  190.8270  171.9750  137.2110 C   0  0  0  0  0  1  0  0  0  0  0  0
  195.6390  171.8930  141.4390 C   0  0  0  0  0  1  0  0  0  0  0  0
  194.6500  170.7430  141.4580 C   0  0  0  0  0  2  0  0  0  0  0  0
  194.9400  174.0960  144.3140 C   0  0  2  0  0  3  0  0  0  0  0  0
  194.9850  172.7650  145.0670 C   0  0  2  0  0  3  0  0  0  0  0  0
  193.9550  172.6700  146.0050 O   0  0  0  0  0  1  0  0  0  0  0  0
  196.3220  172.6010  145.7630 C   0  0  0  0  0  1  0  0  0  0  0  0
  196.2570  174.8650  144.1430 C   0  0  0  0  0  2  0  0  0  0  0  0
  196.7510  174.8880  142.7060 C   0  0  0  0  0  2  0  0  0  0  0  0
  196.1650  176.0780  141.9670 C   0  0  0  0  0  2  0  0  0  0  0  0
  195.5640  175.6500  140.7020 C   0  0  0  0  0  0  0  0  0  0  0  0
  195.0680  175.2960  139.6610 C   0  0  0  0  0  3  0  0  0  0  0  0
  1 29  1  6  0  0  0
  1  6  1  0  0  0  0
  2 22  1  1  0  0  0
  2  3  1  0  0  0  0
  2  1  1  0  0  0  0
  3  7  1  1  0  0  0
  3 15  1  0  0  0  0
  4  6  1  0  0  0  0
  6  5  1  1  0  0  0
  7  4  1  0  0  0  0
  8 16  2  0  0  0  0
  9  8  1  6  0  0  0
  9 15  1  0  0  0  0
  9 11  1  0  0  0  0
 10  9  1  0  0  0  0
 13 12  1  0  0  0  0
 14 11  1  0  0  0  0
 14 13  2  0  0  0  0
 15 10  1  6  0  0  0
 16 14  1  0  0  0  0
 17 28  1  6  0  0  0
 17 24  1  0  0  0  0
 18 17  1  0  0  0  0
 19 18  1  0  0  0  0
 20 25  1  1  0  0  0
 20 19  1  0  0  0  0
 20 21  1  0  0  0  0
 21 23  1  0  0  0  0
 23 24  1  0  0  0  0
 23 22  1  0  0  0  0
 24 22  1  0  0  0  0
 26 25  1  0  0  0  0
 27 28  1  0  0  0  0
 29 30  1  0  0  0  0
 30 32  1  0  0  0  0
 30 31  1  0  0  0  0
 33 29  1  0  0  0  0
 34 33  1  0  0  0  0
 35 34  1  0  0  0  0
 36 35  1  0  0  0  0
 37 36  3  0  0  0  0
M  END
>  <MODEL>
7

>  <REMARK>
 VINA RESULT:      -4.9      2.106      5.697
  Name = 
  10 active torsions:
  status: ('A' for Active; 'I' for Inactive)
    1  A    between atoms: C_1  and  C_23
    2  A    between atoms: C_3  and  C_30
    3  A    between atoms: C_4  and  C_13
    4  A    between atoms: C_9  and  C_13
    5  A    between atoms: C_9  and  C_16
    6  A    between atoms: C_10  and  C_29
    7  A    between atoms: C_11  and  C_26
    8  A    between atoms: C_13  and  C_20
    9  A    between atoms: C_14  and  C_31
   10  A    between atoms: C_16  and  C_30
                            x       y       z     vdW  Elec       q    Type
                         _______ _______ _______ _____ _____    ______ ____

>  <TORSDO>
F 10

$$$$
=
 OpenBabel11052419533D

 37 41  0  0  1  0  0  0  0  0999 V2000
  194.3370  172.2940  143.2750 C   0  0  2  0  0  3  0  0  0  0  0  0
  192.8640  172.7400  143.4420 C   0  0  2  0  0  3  0  0  0  0  0  0
  191.9550  172.2100  142.3180 C   0  0  2  0  0  3  0  0  0  0  0  0
  193.5000  170.2740  141.9580 C   0  0  0  0  0  2  0  0  0  0  0  0
  195.8560  170.3850  142.6230 C   0  0  0  0  0  1  0  0  0  0  0  0
  194.4500  170.7690  143.0450 C   0  0  1  0  0  3  0  0  0  0  0  0
  192.0650  170.6900  142.2540 C   0  0  0  0  0  2  0  0  0  0  0  0
  190.0700  171.5560  140.1160 C   0  0  0  0  0  3  0  0  0  0  0  0
  191.2700  172.4590  139.8770 C   0  0  2  0  0  0  0  0  0  0  0  0
  191.1610  173.8070  140.5460 C   0  0  0  0  0  2  0  0  0  0  0  0
  191.6940  172.5190  138.4350 C   0  0  0  0  0  2  0  0  0  0  0  0
  191.7100  171.7870  135.6310 C   0  0  0  0  0  1  0  0  0  0  0  0
  190.7450  171.2540  136.5560 N   0  0  0  0  0  0  0  0  0  0  0  0
  190.7250  171.5780  137.8020 C   0  0  0  0  0  0  0  0  0  0  0  0
  192.2720  172.8440  140.9550 C   0  0  1  0  0  3  0  0  0  0  0  0
  189.7290  170.9840  138.7450 C   0  0  0  0  0  3  0  0  0  0  0  0
  192.6700  176.0940  145.5250 C   0  0  2  0  0  3  0  0  0  0  0  0
  191.4370  176.5310  146.1030 O   0  0  0  0  0  0  0  0  0  0  0  0
  190.8700  175.5220  146.9290 C   0  0  0  0  0  2  0  0  0  0  0  0
  189.8660  174.6160  146.1610 C   0  0  2  0  0  3  0  0  0  0  0  0
  190.4660  173.7670  145.0110 C   0  0  0  0  0  2  0  0  0  0  0  0
  192.7290  174.2600  143.5900 C   0  0  1  0  0  3  0  0  0  0  0  0
  191.3720  174.6450  144.1680 C   0  0  2  0  0  3  0  0  0  0  0  0
  192.6130  174.6470  145.0430 C   0  0  2  0  0  3  0  0  0  0  0  0
  188.5700  175.3350  145.7760 C   0  0  0  0  0  2  0  0  0  0  0  0
  188.0220  176.2090  146.8920 C   0  0  0  0  0  1  0  0  0  0  0  0
  194.6000  177.5330  146.1680 C   0  0  0  0  0  1  0  0  0  0  0  0
  193.8250  176.2710  146.4970 C   0  0  0  0  0  2  0  0  0  0  0  0
  195.1650  172.7740  144.4850 C   0  0  2  0  0  3  0  0  0  0  0  0
  196.4030  173.6150  144.1630 C   0  0  2  0  0  3  0  0  0  0  0  0
  196.4880  174.7400  144.9850 O   0  0  0  0  0  1  0  0  0  0  0  0
  196.3780  174.0490  142.7100 C   0  0  0  0  0  1  0  0  0  0  0  0
  195.2250  171.8560  145.7130 C   0  0  0  0  0  2  0  0  0  0  0  0
  196.6450  171.5210  146.1370 C   0  0  0  0  0  2  0  0  0  0  0  0
  196.9050  170.0330  145.9760 C   0  0  0  0  0  2  0  0  0  0  0  0
  196.0520  169.2630  146.8840 C   0  0  0  0  0  0  0  0  0  0  0  0
  195.3500  168.6300  147.6330 C   0  0  0  0  0  3  0  0  0  0  0  0
  1  2  1  0  0  0  0
  1 29  1  1  0  0  0
  2 22  1  6  0  0  0
  3  7  1  6  0  0  0
  3  2  1  0  0  0  0
  4  7  1  0  0  0  0
  4  6  1  0  0  0  0
  6  5  1  6  0  0  0
  6  1  1  0  0  0  0
  9 11  1  6  0  0  0
  9  8  1  0  0  0  0
  9 10  1  0  0  0  0
  9 15  1  0  0  0  0
 12 13  1  0  0  0  0
 13 14  2  0  0  0  0
 14 11  1  0  0  0  0
 14 16  1  0  0  0  0
 15 10  1  1  0  0  0
 15  3  1  0  0  0  0
 16  8  2  0  0  0  0
 17 18  1  0  0  0  0
 17 28  1  1  0  0  0
 18 19  1  0  0  0  0
 20 25  1  6  0  0  0
 20 19  1  0  0  0  0
 21 20  1  0  0  0  0
 22 23  1  0  0  0  0
 22 24  1  0  0  0  0
 23 21  1  0  0  0  0
 23 24  1  0  0  0  0
 24 17  1  0  0  0  0
 25 26  1  0  0  0  0
 27 28  1  0  0  0  0
 29 33  1  0  0  0  0
 30 29  1  0  0  0  0
 30 31  1  0  0  0  0
 32 30  1  0  0  0  0
 33 34  1  0  0  0  0
 35 34  1  0  0  0  0
 35 36  1  0  0  0  0
 36 37  3  0  0  0  0
M  END
>  <MODEL>
8

>  <REMARK>
 VINA RESULT:      -4.9      3.284      5.337
  Name = 
  10 active torsions:
  status: ('A' for Active; 'I' for Inactive)
    1  A    between atoms: C_1  and  C_23
    2  A    between atoms: C_3  and  C_30
    3  A    between atoms: C_4  and  C_13
    4  A    between atoms: C_9  and  C_13
    5  A    between atoms: C_9  and  C_16
    6  A    between atoms: C_10  and  C_29
    7  A    between atoms: C_11  and  C_26
    8  A    between atoms: C_13  and  C_20
    9  A    between atoms: C_14  and  C_31
   10  A    between atoms: C_16  and  C_30
                            x       y       z     vdW  Elec       q    Type
                         _______ _______ _______ _____ _____    ______ ____

>  <TORSDO>
F 10

$$$$
=
 OpenBabel11052419533D

 37 41  0  0  1  0  0  0  0  0999 V2000
  191.0850  175.8640  143.6760 C   0  0  2  0  0  3  0  0  0  0  0  0
  190.2830  175.3440  142.4580 C   0  0  2  0  0  3  0  0  0  0  0  0
  188.9930  176.1470  142.2140 C   0  0  2  0  0  3  0  0  0  0  0  0
  190.0110  178.1510  143.3150 C   0  0  0  0  0  2  0  0  0  0  0  0
  191.8510  177.9250  144.9180 C   0  0  0  0  0  1  0  0  0  0  0  0
  191.3030  177.3930  143.6060 C   0  0  1  0  0  3  0  0  0  0  0  0
  189.3400  177.6240  142.0530 C   0  0  0  0  0  2  0  0  0  0  0  0
  186.4540  177.6590  141.9020 C   0  0  0  0  0  3  0  0  0  0  0  0
  186.6830  176.7530  143.1020 C   0  0  2  0  0  0  0  0  0  0  0  0
  186.6960  175.2830  142.7620 C   0  0  0  0  0  2  0  0  0  0  0  0
  185.8260  177.1040  144.2880 C   0  0  0  0  0  2  0  0  0  0  0  0
  183.9600  178.6730  145.8550 C   0  0  0  0  0  1  0  0  0  0  0  0
  184.2650  178.9890  144.4830 N   0  0  0  0  0  0  0  0  0  0  0  0
  185.0870  178.2940  143.7770 C   0  0  0  0  0  0  0  0  0  0  0  0
  187.9510  175.9430  143.3250 C   0  0  1  0  0  3  0  0  0  0  0  0
  185.4070  178.6660  142.3650 C   0  0  0  0  0  3  0  0  0  0  0  0
  191.1520  171.5220  141.9420 C   0  0  2  0  0  3  0  0  0  0  0  0
  190.9210  170.8780  140.6870 O   0  0  0  0  0  0  0  0  0  0  0  0
  191.5620  171.5740  139.6250 C   0  0  0  0  0  2  0  0  0  0  0  0
  190.6300  172.6160  138.9450 C   0  0  2  0  0  3  0  0  0  0  0  0
  190.1640  173.7920  139.8430 C   0  0  0  0  0  2  0  0  0  0  0  0
  189.9880  173.8420  142.5540 C   0  0  1  0  0  3  0  0  0  0  0  0
  189.7070  173.2420  141.1810 C   0  0  2  0  0  3  0  0  0  0  0  0
  191.0560  173.0430  141.8490 C   0  0  2  0  0  3  0  0  0  0  0  0
  189.4970  171.9820  138.1340 C   0  0  0  0  0  2  0  0  0  0  0  0
  188.5650  173.0080  137.5130 C   0  0  0  0  0  1  0  0  0  0  0  0
  192.3100  170.4320  143.8600 C   0  0  0  0  0  1  0  0  0  0  0  0
  192.4990  171.1240  142.5230 C   0  0  0  0  0  2  0  0  0  0  0  0
  192.4080  175.0810  143.7990 C   0  0  2  0  0  3  0  0  0  0  0  0
  193.1880  174.8680  142.4990 C   0  0  2  0  0  3  0  0  0  0  0  0
  194.2120  173.9330  142.6610 O   0  0  0  0  0  1  0  0  0  0  0  0
  193.7710  176.1820  142.0160 C   0  0  0  0  0  1  0  0  0  0  0  0
  192.4860  173.9820  144.8670 C   0  0  0  0  0  2  0  0  0  0  0  0
  191.7210  174.3280  146.1340 C   0  0  0  0  0  2  0  0  0  0  0  0
  190.2970  173.8100  146.0460 C   0  0  0  0  0  2  0  0  0  0  0  0
  189.3520  174.8280  146.5100 C   0  0  0  0  0  0  0  0  0  0  0  0
  188.5730  175.6680  146.8890 C   0  0  0  0  0  3  0  0  0  0  0  0
  1 29  1  6  0  0  0
  2 22  1  1  0  0  0
  2  1  1  0  0  0  0
  3  7  1  1  0  0  0
  3  2  1  0  0  0  0
  3 15  1  0  0  0  0
  4  6  1  0  0  0  0
  6  1  1  0  0  0  0
  6  5  1  1  0  0  0
  7  4  1  0  0  0  0
  8 16  2  0  0  0  0
  9  8  1  6  0  0  0
  9 15  1  0  0  0  0
  9 11  1  0  0  0  0
 10  9  1  0  0  0  0
 13 12  1  0  0  0  0
 14 11  1  0  0  0  0
 14 13  2  0  0  0  0
 15 10  1  6  0  0  0
 16 14  1  0  0  0  0
 17 28  1  6  0  0  0
 18 17  1  0  0  0  0
 19 18  1  0  0  0  0
 20 25  1  1  0  0  0
 20 19  1  0  0  0  0
 20 21  1  0  0  0  0
 21 23  1  0  0  0  0
 23 24  1  0  0  0  0
 23 22  1  0  0  0  0
 24 17  1  0  0  0  0
 24 22  1  0  0  0  0
 26 25  1  0  0  0  0
 28 27  1  0  0  0  0
 29 33  1  0  0  0  0
 30 31  1  0  0  0  0
 30 29  1  0  0  0  0
 32 30  1  0  0  0  0
 33 34  1  0  0  0  0
 35 34  1  0  0  0  0
 35 36  1  0  0  0  0
 36 37  3  0  0  0  0
M  END
>  <MODEL>
9

>  <REMARK>
 VINA RESULT:      -4.6      1.976      5.377
  Name = 
  10 active torsions:
  status: ('A' for Active; 'I' for Inactive)
    1  A    between atoms: C_1  and  C_23
    2  A    between atoms: C_3  and  C_30
    3  A    between atoms: C_4  and  C_13
    4  A    between atoms: C_9  and  C_13
    5  A    between atoms: C_9  and  C_16
    6  A    between atoms: C_10  and  C_29
    7  A    between atoms: C_11  and  C_26
    8  A    between atoms: C_13  and  C_20
    9  A    between atoms: C_14  and  C_31
   10  A    between atoms: C_16  and  C_30
                            x       y       z     vdW  Elec       q    Type
                         _______ _______ _______ _____ _____    ______ ____

>  <TORSDO>
F 10

$$$$
