=
 OpenBabel11052417523D

 31 33  0  0  1  0  0  0  0  0999 V2000
  191.5990  174.0750  144.4970 C   0  0  0  0  0  0  0  0  0  0  0  0
  191.6270  175.2500  145.3310 N   0  0  0  0  0  0  0  0  0  0  0  0
  192.3630  173.1060  144.7510 O   0  0  0  0  0  0  0  0  0  0  0  0
  190.7140  173.9910  143.3190 C   0  0  0  0  0  0  0  0  0  0  0  0
  188.5240  173.4790  142.4160 C   0  0  0  0  0  3  0  0  0  0  0  0
  189.3830  173.6070  143.5060 C   0  0  0  0  0  3  0  0  0  0  0  0
  193.0880  175.8480  142.1820 C   0  0  0  0  0  1  0  0  0  0  0  0
  189.0090  173.7310  141.1340 C   0  0  0  0  0  3  0  0  0  0  0  0
  190.3070  174.0960  140.9570 N   0  0  0  0  0  0  0  0  0  0  0  0
  193.2950  173.7900  140.7880 C   0  0  0  0  0  1  0  0  0  0  0  0
  191.1690  174.2430  142.0050 C   0  0  0  0  0  0  0  0  0  0  0  0
  192.5340  174.5790  141.7370 N   0  0  0  0  0  0  0  0  0  0  0  0
  192.6020  175.3670  146.4130 C   0  0  0  0  0  2  0  0  0  0  0  0
  193.8560  176.0620  145.9170 C   0  0  1  0  0  3  0  0  0  0  0  0
  194.1770  177.2330  146.8280 C   0  0  0  0  0  1  0  0  0  0  0  0
  195.0060  175.0760  145.9240 C   0  0  0  0  0  2  0  0  0  0  0  0
  195.8560  175.3250  144.8460 O   0  0  0  0  0  1  0  0  0  0  0  0
  190.8020  176.4100  145.0070 C   0  0  0  0  0  2  0  0  0  0  0  0
  190.0350  176.8880  146.2260 C   0  0  0  0  0  2  0  0  0  0  0  0
  189.1580  175.7880  146.7180 C   0  0  0  0  0  3  0  0  0  0  0  0
  187.8600  175.8550  146.7850 N   0  0  0  0  0  0  0  0  0  0  0  0
  185.6620  177.9210  142.5570 C   0  0  0  0  0  0  0  0  0  0  0  0
  186.8900  176.3620  143.9760 C   0  0  0  0  0  3  0  0  0  0  0  0
  185.6540  179.0910  146.0880 C   0  0  0  0  0  3  0  0  0  0  0  0
  186.4400  178.2270  147.3120 S   0  0  0  0  0  0  0  0  0  0  0  0
  185.0810  178.3800  140.9700 Cl  0  0  0  0  0  0  0  0  0  0  0  0
  187.0060  176.9380  146.3780 C   0  0  0  0  0  0  0  0  0  0  0  0
  186.4160  176.7420  142.7120 C   0  0  0  0  0  3  0  0  0  0  0  0
  185.8500  178.3540  144.9210 C   0  0  0  0  0  0  0  0  0  0  0  0
  186.6000  177.1720  145.0760 C   0  0  0  0  0  0  0  0  0  0  0  0
  185.3760  178.7320  143.6650 C   0  0  0  0  0  3  0  0  0  0  0  0
  1  3  2  0  0  0  0
  1  2  1  0  0  0  0
  2 13  1  0  0  0  0
  4  6  1  0  0  0  0
  4  1  1  0  0  0  0
  5  6  2  0  0  0  0
  8  5  1  0  0  0  0
  9  8  2  0  0  0  0
  9 11  1  0  0  0  0
 10 12  1  0  0  0  0
 11  4  2  0  0  0  0
 12 11  1  0  0  0  0
 12  7  1  0  0  0  0
 14 16  1  0  0  0  0
 14 13  1  0  0  0  0
 14 15  1  1  0  0  0
 17 16  1  0  0  0  0
 18  2  1  0  0  0  0
 18 19  1  0  0  0  0
 19 20  1  0  0  0  0
 20 21  2  0  0  0  0
 22 28  1  0  0  0  0
 22 31  2  0  0  0  0
 23 30  1  0  0  0  0
 24 25  1  0  0  0  0
 26 22  1  0  0  0  0
 27 21  1  0  0  0  0
 27 25  1  0  0  0  0
 28 23  2  0  0  0  0
 29 30  1  0  0  0  0
 29 24  2  0  0  0  0
 30 27  2  0  0  0  0
 31 29  1  0  0  0  0
M  END
>  <MODEL>
1

>  <REMARK>
 VINA RESULT:      -6.6      0.000      0.000
  Name = 
  8 active torsions:
  status: ('A' for Active; 'I' for Inactive)
    1  A    between atoms: C_2  and  C_13
    2  A    between atoms: C_2  and  C_25
    3  A    between atoms: C_4  and  C_5
    4  A    between atoms: C_9  and  N_23
    5  A    between atoms: N_12  and  C_25
    6  A    between atoms: N_12  and  C_27
    7  A    between atoms: C_15  and  C_20
    8  A    between atoms: C_20  and  C_27
                            x       y       z     vdW  Elec       q    Type
                         _______ _______ _______ _____ _____    ______ ____

>  <TORSDO>
F 8

$$$$
=
 OpenBabel11052417523D

 31 33  0  0  1  0  0  0  0  0999 V2000
  189.8290  173.3010  144.1490 C   0  0  0  0  0  0  0  0  0  0  0  0
  189.1980  173.9250  143.0140 N   0  0  0  0  0  0  0  0  0  0  0  0
  189.9980  172.0530  144.1670 O   0  0  0  0  0  0  0  0  0  0  0  0
  190.2550  174.0920  145.3210 C   0  0  0  0  0  0  0  0  0  0  0  0
  189.7220  174.9920  147.5070 C   0  0  0  0  0  3  0  0  0  0  0  0
  189.3740  174.2230  146.3980 C   0  0  0  0  0  3  0  0  0  0  0  0
  193.0910  173.4730  143.9240 C   0  0  0  0  0  1  0  0  0  0  0  0
  190.9580  175.6360  147.5280 C   0  0  0  0  0  3  0  0  0  0  0  0
  191.8080  175.5110  146.4740 N   0  0  0  0  0  0  0  0  0  0  0  0
  192.9110  175.9520  143.7090 C   0  0  0  0  0  1  0  0  0  0  0  0
  191.5020  174.7560  145.3790 C   0  0  0  0  0  0  0  0  0  0  0  0
  192.4250  174.7140  144.2860 N   0  0  0  0  0  0  0  0  0  0  0  0
  188.6660  173.1110  141.9240 C   0  0  0  0  0  2  0  0  0  0  0  0
  189.6610  173.0510  140.7800 C   0  0  1  0  0  3  0  0  0  0  0  0
  190.1970  171.6370  140.6510 C   0  0  0  0  0  1  0  0  0  0  0  0
  188.9670  173.4560  139.4950 C   0  0  0  0  0  2  0  0  0  0  0  0
  187.9960  172.5120  139.1590 O   0  0  0  0  0  1  0  0  0  0  0  0
  188.9280  175.3600  143.0100 C   0  0  0  0  0  2  0  0  0  0  0  0
  187.7630  175.6910  142.0950 C   0  0  0  0  0  2  0  0  0  0  0  0
  188.0830  176.9200  141.3170 C   0  0  0  0  0  3  0  0  0  0  0  0
  187.3110  177.9660  141.2410 N   0  0  0  0  0  0  0  0  0  0  0  0
  185.2370  178.5020  145.9730 C   0  0  0  0  0  0  0  0  0  0  0  0
  186.9120  178.2800  144.2130 C   0  0  0  0  0  3  0  0  0  0  0  0
  183.6060  178.3750  142.6330 C   0  0  0  0  0  3  0  0  0  0  0  0
  184.5070  178.2070  141.2100 S   0  0  0  0  0  0  0  0  0  0  0  0
  184.8440  178.6310  147.6750 Cl  0  0  0  0  0  0  0  0  0  0  0  0
  186.0500  178.1850  141.8970 C   0  0  0  0  0  0  0  0  0  0  0  0
  186.5810  178.3860  145.5720 C   0  0  0  0  0  3  0  0  0  0  0  0
  184.5390  178.4040  143.6670 C   0  0  0  0  0  0  0  0  0  0  0  0
  185.8850  178.2930  143.2680 C   0  0  0  0  0  0  0  0  0  0  0  0
  184.2090  178.5120  145.0190 C   0  0  0  0  0  3  0  0  0  0  0  0
  1  3  2  0  0  0  0
  1  4  1  0  0  0  0
  2  1  1  0  0  0  0
  4 11  2  0  0  0  0
  4  6  1  0  0  0  0
  5  8  1  0  0  0  0
  6  5  2  0  0  0  0
  7 12  1  0  0  0  0
  9  8  2  0  0  0  0
 10 12  1  0  0  0  0
 11  9  1  0  0  0  0
 12 11  1  0  0  0  0
 13  2  1  0  0  0  0
 14 15  1  6  0  0  0
 14 13  1  0  0  0  0
 16 14  1  0  0  0  0
 17 16  1  0  0  0  0
 18  2  1  0  0  0  0
 19 18  1  0  0  0  0
 20 19  1  0  0  0  0
 21 20  2  0  0  0  0
 21 27  1  0  0  0  0
 22 26  1  0  0  0  0
 23 28  2  0  0  0  0
 24 29  2  0  0  0  0
 25 27  1  0  0  0  0
 25 24  1  0  0  0  0
 27 30  2  0  0  0  0
 28 22  1  0  0  0  0
 29 31  1  0  0  0  0
 30 29  1  0  0  0  0
 30 23  1  0  0  0  0
 31 22  2  0  0  0  0
M  END
>  <MODEL>
2

>  <REMARK>
 VINA RESULT:      -6.6      2.812      5.126
  Name = 
  8 active torsions:
  status: ('A' for Active; 'I' for Inactive)
    1  A    between atoms: C_2  and  C_13
    2  A    between atoms: C_2  and  C_25
    3  A    between atoms: C_4  and  C_5
    4  A    between atoms: C_9  and  N_23
    5  A    between atoms: N_12  and  C_25
    6  A    between atoms: N_12  and  C_27
    7  A    between atoms: C_15  and  C_20
    8  A    between atoms: C_20  and  C_27
                            x       y       z     vdW  Elec       q    Type
                         _______ _______ _______ _____ _____    ______ ____

>  <TORSDO>
F 8

$$$$
=
 OpenBabel11052417523D

 31 33  0  0  1  0  0  0  0  0999 V2000
  191.4850  175.4470  143.7330 C   0  0  0  0  0  0  0  0  0  0  0  0
  190.2350  174.9000  144.1990 N   0  0  0  0  0  0  0  0  0  0  0  0
  191.5830  175.8720  142.5520 O   0  0  0  0  0  0  0  0  0  0  0  0
  192.6760  175.4900  144.6040 C   0  0  0  0  0  0  0  0  0  0  0  0
  193.9370  176.6470  146.3200 C   0  0  0  0  0  3  0  0  0  0  0  0
  192.8100  176.5490  145.5070 C   0  0  0  0  0  3  0  0  0  0  0  0
  192.6670  172.3950  143.7120 C   0  0  0  0  0  1  0  0  0  0  0  0
  194.9350  175.6780  146.2200 C   0  0  0  0  0  3  0  0  0  0  0  0
  194.8030  174.6540  145.3340 N   0  0  0  0  0  0  0  0  0  0  0  0
  194.7660  173.2520  142.6730 C   0  0  0  0  0  1  0  0  0  0  0  0
  193.7060  174.5240  144.5340 C   0  0  0  0  0  0  0  0  0  0  0  0
  193.6610  173.4490  143.5900 N   0  0  0  0  0  0  0  0  0  0  0  0
  189.1070  174.7480  143.2830 C   0  0  0  0  0  2  0  0  0  0  0  0
  189.3930  173.6470  142.2790 C   0  0  1  0  0  3  0  0  0  0  0  0
  188.7100  172.3670  142.7250 C   0  0  0  0  0  1  0  0  0  0  0  0
  188.8630  174.0640  140.9210 C   0  0  0  0  0  2  0  0  0  0  0  0
  188.3160  175.3450  140.9940 O   0  0  0  0  0  1  0  0  0  0  0  0
  190.1260  174.3370  145.5420 C   0  0  0  0  0  2  0  0  0  0  0  0
  189.0170  175.0140  146.3260 C   0  0  0  0  0  2  0  0  0  0  0  0
  189.4630  176.3760  146.7310 C   0  0  0  0  0  3  0  0  0  0  0  0
  188.6960  177.4280  146.7500 N   0  0  0  0  0  0  0  0  0  0  0  0
  185.4520  178.1840  142.7650 C   0  0  0  0  0  0  0  0  0  0  0  0
  187.5240  177.8190  144.0000 C   0  0  0  0  0  3  0  0  0  0  0  0
  184.7480  177.7690  146.3940 C   0  0  0  0  0  3  0  0  0  0  0  0
  185.9890  177.5160  147.5160 S   0  0  0  0  0  0  0  0  0  0  0  0
  184.6320  178.4760  141.2450 Cl  0  0  0  0  0  0  0  0  0  0  0  0
  187.2930  177.5060  146.4430 C   0  0  0  0  0  0  0  0  0  0  0  0
  186.8530  178.0510  142.7910 C   0  0  0  0  0  3  0  0  0  0  0  0
  185.3760  177.8570  145.1530 C   0  0  0  0  0  0  0  0  0  0  0  0
  186.7770  177.7210  145.1760 C   0  0  0  0  0  0  0  0  0  0  0  0
  184.7070  178.0870  143.9500 C   0  0  0  0  0  3  0  0  0  0  0  0
  1  2  1  0  0  0  0
  1  4  1  0  0  0  0
  2 18  1  0  0  0  0
  3  1  2  0  0  0  0
  4  6  1  0  0  0  0
  6  5  2  0  0  0  0
  8  5  1  0  0  0  0
  9  8  2  0  0  0  0
 10 12  1  0  0  0  0
 11  4  2  0  0  0  0
 11  9  1  0  0  0  0
 12  7  1  0  0  0  0
 12 11  1  0  0  0  0
 13  2  1  0  0  0  0
 14 15  1  1  0  0  0
 14 13  1  0  0  0  0
 16 17  1  0  0  0  0
 16 14  1  0  0  0  0
 18 19  1  0  0  0  0
 19 20  1  0  0  0  0
 20 21  2  0  0  0  0
 22 28  1  0  0  0  0
 22 31  2  0  0  0  0
 23 30  1  0  0  0  0
 24 25  1  0  0  0  0
 26 22  1  0  0  0  0
 27 21  1  0  0  0  0
 27 25  1  0  0  0  0
 28 23  2  0  0  0  0
 29 30  1  0  0  0  0
 29 24  2  0  0  0  0
 30 27  2  0  0  0  0
 31 29  1  0  0  0  0
M  END
>  <MODEL>
3

>  <REMARK>
 VINA RESULT:      -6.6      1.905      4.175
  Name = 
  8 active torsions:
  status: ('A' for Active; 'I' for Inactive)
    1  A    between atoms: C_2  and  C_13
    2  A    between atoms: C_2  and  C_25
    3  A    between atoms: C_4  and  C_5
    4  A    between atoms: C_9  and  N_23
    5  A    between atoms: N_12  and  C_25
    6  A    between atoms: N_12  and  C_27
    7  A    between atoms: C_15  and  C_20
    8  A    between atoms: C_20  and  C_27
                            x       y       z     vdW  Elec       q    Type
                         _______ _______ _______ _____ _____    ______ ____

>  <TORSDO>
F 8

$$$$
=
 OpenBabel11052417523D

 31 33  0  0  1  0  0  0  0  0999 V2000
  193.0200  176.2430  144.3590 C   0  0  0  0  0  0  0  0  0  0  0  0
  191.6850  175.7430  144.5670 N   0  0  0  0  0  0  0  0  0  0  0  0
  193.4710  177.1580  145.0990 O   0  0  0  0  0  0  0  0  0  0  0  0
  193.8710  175.7310  143.2670 C   0  0  0  0  0  0  0  0  0  0  0  0
  194.5430  175.8600  140.9410 C   0  0  0  0  0  3  0  0  0  0  0  0
  193.7850  176.3370  142.0100 C   0  0  0  0  0  3  0  0  0  0  0  0
  195.4000  174.5580  145.8470 C   0  0  0  0  0  1  0  0  0  0  0  0
  195.3830  174.7660  141.1380 C   0  0  0  0  0  3  0  0  0  0  0  0
  195.4560  174.1740  142.3610 N   0  0  0  0  0  0  0  0  0  0  0  0
  194.6030  172.4890  144.7030 C   0  0  0  0  0  1  0  0  0  0  0  0
  194.7370  174.6260  143.4300 C   0  0  0  0  0  0  0  0  0  0  0  0
  194.8260  173.9210  144.6720 N   0  0  0  0  0  0  0  0  0  0  0  0
  190.8140  176.3530  145.5690 C   0  0  0  0  0  2  0  0  0  0  0  0
  190.9610  175.6370  146.8980 C   0  0  1  0  0  3  0  0  0  0  0  0
  191.3840  176.6320  147.9630 C   0  0  0  0  0  1  0  0  0  0  0  0
  189.6330  175.0140  147.2770 C   0  0  0  0  0  2  0  0  0  0  0  0
  189.3860  173.8940  146.4830 O   0  0  0  0  0  1  0  0  0  0  0  0
  191.1220  174.7350  143.6730 C   0  0  0  0  0  2  0  0  0  0  0  0
  190.2060  175.3730  142.6450 C   0  0  0  0  0  2  0  0  0  0  0  0
  189.0100  174.5060  142.4480 C   0  0  0  0  0  3  0  0  0  0  0  0
  187.7810  174.9380  142.4320 N   0  0  0  0  0  0  0  0  0  0  0  0
  186.2260  178.3980  145.9790 C   0  0  0  0  0  0  0  0  0  0  0  0
  187.1340  176.3490  145.0160 C   0  0  0  0  0  3  0  0  0  0  0  0
  186.3490  178.6460  142.2690 C   0  0  0  0  0  3  0  0  0  0  0  0
  186.9180  177.3720  141.3120 S   0  0  0  0  0  0  0  0  0  0  0  0
  185.7460  179.3200  147.3880 Cl  0  0  0  0  0  0  0  0  0  0  0  0
  187.3170  176.2940  142.5500 C   0  0  0  0  0  0  0  0  0  0  0  0
  186.7470  177.1000  146.1350 C   0  0  0  0  0  3  0  0  0  0  0  0
  186.4680  178.2080  143.5870 C   0  0  0  0  0  0  0  0  0  0  0  0
  186.9930  176.9120  143.7460 C   0  0  0  0  0  0  0  0  0  0  0  0
  186.0840  178.9580  144.7000 C   0  0  0  0  0  3  0  0  0  0  0  0
  1  2  1  0  0  0  0
  1  3  2  0  0  0  0
  2 13  1  0  0  0  0
  4 11  1  0  0  0  0
  4  1  1  0  0  0  0
  5  8  2  0  0  0  0
  5  6  1  0  0  0  0
  6  4  2  0  0  0  0
  8  9  1  0  0  0  0
  9 11  2  0  0  0  0
 11 12  1  0  0  0  0
 12 10  1  0  0  0  0
 12  7  1  0  0  0  0
 13 14  1  0  0  0  0
 14 16  1  0  0  0  0
 14 15  1  1  0  0  0
 17 16  1  0  0  0  0
 18  2  1  0  0  0  0
 19 18  1  0  0  0  0
 20 19  1  0  0  0  0
 21 20  2  0  0  0  0
 21 27  1  0  0  0  0
 22 28  1  0  0  0  0
 22 26  1  0  0  0  0
 23 28  2  0  0  0  0
 24 29  2  0  0  0  0
 25 24  1  0  0  0  0
 25 27  1  0  0  0  0
 27 30  2  0  0  0  0
 29 30  1  0  0  0  0
 29 31  1  0  0  0  0
 30 23  1  0  0  0  0
 31 22  2  0  0  0  0
M  END
>  <MODEL>
4

>  <REMARK>
 VINA RESULT:      -6.4      2.426      4.219
  Name = 
  8 active torsions:
  status: ('A' for Active; 'I' for Inactive)
    1  A    between atoms: C_2  and  C_13
    2  A    between atoms: C_2  and  C_25
    3  A    between atoms: C_4  and  C_5
    4  A    between atoms: C_9  and  N_23
    5  A    between atoms: N_12  and  C_25
    6  A    between atoms: N_12  and  C_27
    7  A    between atoms: C_15  and  C_20
    8  A    between atoms: C_20  and  C_27
                            x       y       z     vdW  Elec       q    Type
                         _______ _______ _______ _____ _____    ______ ____

>  <TORSDO>
F 8

$$$$
=
 OpenBabel11052417523D

 31 33  0  0  1  0  0  0  0  0999 V2000
  186.7160  176.2760  143.2560 C   0  0  0  0  0  0  0  0  0  0  0  0
  186.7510  176.4920  144.6810 N   0  0  0  0  0  0  0  0  0  0  0  0
  185.7970  176.7910  142.5650 O   0  0  0  0  0  0  0  0  0  0  0  0
  187.7200  175.4280  142.5840 C   0  0  0  0  0  0  0  0  0  0  0  0
  188.3680  173.2300  141.7940 C   0  0  0  0  0  3  0  0  0  0  0  0
  187.4320  174.0730  142.3900 C   0  0  0  0  0  3  0  0  0  0  0  0
  188.6880  178.3670  141.6880 C   0  0  0  0  0  1  0  0  0  0  0  0
  189.5980  173.7510  141.3970 C   0  0  0  0  0  3  0  0  0  0  0  0
  189.8760  175.0680  141.5950 N   0  0  0  0  0  0  0  0  0  0  0  0
  190.5890  177.5760  143.0960 C   0  0  0  0  0  1  0  0  0  0  0  0
  188.9760  175.9220  142.1650 C   0  0  0  0  0  0  0  0  0  0  0  0
  189.3580  177.2830  142.3880 N   0  0  0  0  0  0  0  0  0  0  0  0
  185.6750  177.2250  145.3450 C   0  0  0  0  0  2  0  0  0  0  0  0
  186.1040  178.6560  145.6120 C   0  0  1  0  0  3  0  0  0  0  0  0
  185.4300  179.5790  144.6120 C   0  0  0  0  0  1  0  0  0  0  0  0
  185.6980  179.0410  147.0200 C   0  0  0  0  0  2  0  0  0  0  0  0
  186.1440  178.0790  147.9260 O   0  0  0  0  0  1  0  0  0  0  0  0
  187.7650  175.8420  145.5060 C   0  0  0  0  0  2  0  0  0  0  0  0
  188.8630  176.8190  145.8850 C   0  0  0  0  0  2  0  0  0  0  0  0
  189.5150  176.3610  147.1450 C   0  0  0  0  0  3  0  0  0  0  0  0
  190.5480  175.5700  147.1940 N   0  0  0  0  0  0  0  0  0  0  0  0
  194.9240  176.2880  144.4900 C   0  0  0  0  0  0  0  0  0  0  0  0
  193.2280  176.5520  146.2240 C   0  0  0  0  0  3  0  0  0  0  0  0
  192.1620  173.8470  143.9920 C   0  0  0  0  0  3  0  0  0  0  0  0
  190.8260  173.7930  145.0290 S   0  0  0  0  0  0  0  0  0  0  0  0
  196.4410  176.7900  143.7740 Cl  0  0  0  0  0  0  0  0  0  0  0  0
  191.2930  175.0170  146.0950 C   0  0  0  0  0  0  0  0  0  0  0  0
  194.4420  176.9410  145.6400 C   0  0  0  0  0  3  0  0  0  0  0  0
  192.9860  174.8540  144.4910 C   0  0  0  0  0  0  0  0  0  0  0  0
  192.5080  175.5060  145.6450 C   0  0  0  0  0  0  0  0  0  0  0  0
  194.1950  175.2390  143.9110 C   0  0  0  0  0  3  0  0  0  0  0  0
  1  2  1  0  0  0  0
  2 13  1  0  0  0  0
  2 18  1  0  0  0  0
  3  1  2  0  0  0  0
  4  1  1  0  0  0  0
  5  6  2  0  0  0  0
  6  4  1  0  0  0  0
  7 12  1  0  0  0  0
  8  9  2  0  0  0  0
  8  5  1  0  0  0  0
  9 11  1  0  0  0  0
 11 12  1  0  0  0  0
 11  4  2  0  0  0  0
 12 10  1  0  0  0  0
 13 14  1  0  0  0  0
 14 15  1  6  0  0  0
 14 16  1  0  0  0  0
 16 17  1  0  0  0  0
 18 19  1  0  0  0  0
 19 20  1  0  0  0  0
 20 21  2  0  0  0  0
 22 28  1  0  0  0  0
 24 29  2  0  0  0  0
 24 25  1  0  0  0  0
 25 27  1  0  0  0  0
 26 22  1  0  0  0  0
 27 21  1  0  0  0  0
 28 23  2  0  0  0  0
 29 30  1  0  0  0  0
 30 27  2  0  0  0  0
 30 23  1  0  0  0  0
 31 22  2  0  0  0  0
 31 29  1  0  0  0  0
M  END
>  <MODEL>
5

>  <REMARK>
 VINA RESULT:      -6.3      3.699      6.569
  Name = 
  8 active torsions:
  status: ('A' for Active; 'I' for Inactive)
    1  A    between atoms: C_2  and  C_13
    2  A    between atoms: C_2  and  C_25
    3  A    between atoms: C_4  and  C_5
    4  A    between atoms: C_9  and  N_23
    5  A    between atoms: N_12  and  C_25
    6  A    between atoms: N_12  and  C_27
    7  A    between atoms: C_15  and  C_20
    8  A    between atoms: C_20  and  C_27
                            x       y       z     vdW  Elec       q    Type
                         _______ _______ _______ _____ _____    ______ ____

>  <TORSDO>
F 8

$$$$
=
 OpenBabel11052417523D

 31 33  0  0  1  0  0  0  0  0999 V2000
  193.0900  173.6900  145.0770 C   0  0  0  0  0  0  0  0  0  0  0  0
  191.8380  173.6110  144.3680 N   0  0  0  0  0  0  0  0  0  0  0  0
  193.6130  172.6450  145.5460 O   0  0  0  0  0  0  0  0  0  0  0  0
  193.7650  174.9840  145.3000 C   0  0  0  0  0  0  0  0  0  0  0  0
  194.1530  176.8850  146.7540 C   0  0  0  0  0  3  0  0  0  0  0  0
  193.5650  175.6430  146.5170 C   0  0  0  0  0  3  0  0  0  0  0  0
  195.5220  173.7750  142.8870 C   0  0  0  0  0  1  0  0  0  0  0  0
  194.9390  177.4650  145.7600 C   0  0  0  0  0  3  0  0  0  0  0  0
  195.1240  176.8230  144.5760 N   0  0  0  0  0  0  0  0  0  0  0  0
  194.4600  175.7730  141.8360 C   0  0  0  0  0  1  0  0  0  0  0  0
  194.5730  175.6020  144.3180 C   0  0  0  0  0  0  0  0  0  0  0  0
  194.7680  175.0100  143.0300 N   0  0  0  0  0  0  0  0  0  0  0  0
  191.1220  172.3410  144.2700 C   0  0  0  0  0  2  0  0  0  0  0  0
  191.3800  171.6960  142.9220 C   0  0  1  0  0  3  0  0  0  0  0  0
  192.3400  170.5330  143.0940 C   0  0  0  0  0  1  0  0  0  0  0  0
  190.0680  171.1960  142.3510 C   0  0  0  0  0  2  0  0  0  0  0  0
  189.0550  172.1250  142.5950 O   0  0  0  0  0  1  0  0  0  0  0  0
  191.1820  174.8210  143.8810 C   0  0  0  0  0  2  0  0  0  0  0  0
  190.0400  175.2240  144.7960 C   0  0  0  0  0  2  0  0  0  0  0  0
  190.3050  176.5850  145.3430 C   0  0  0  0  0  3  0  0  0  0  0  0
  189.3800  177.4460  145.6570 N   0  0  0  0  0  0  0  0  0  0  0  0
  185.3650  177.9940  142.4080 C   0  0  0  0  0  0  0  0  0  0  0  0
  187.6630  177.9110  143.2230 C   0  0  0  0  0  3  0  0  0  0  0  0
  185.4390  177.0240  145.9980 C   0  0  0  0  0  3  0  0  0  0  0  0
  186.8930  176.8960  146.8540 S   0  0  0  0  0  0  0  0  0  0  0  0
  184.2370  178.2910  141.1020 Cl  0  0  0  0  0  0  0  0  0  0  0  0
  187.9530  177.2750  145.5950 C   0  0  0  0  0  0  0  0  0  0  0  0
  186.7470  178.1440  142.1870 C   0  0  0  0  0  3  0  0  0  0  0  0
  185.7970  177.3810  144.7000 C   0  0  0  0  0  0  0  0  0  0  0  0
  187.1790  177.5280  144.4760 C   0  0  0  0  0  0  0  0  0  0  0  0
  184.8850  177.6100  143.6690 C   0  0  0  0  0  3  0  0  0  0  0  0
  1  4  1  0  0  0  0
  1  3  2  0  0  0  0
  2  1  1  0  0  0  0
  4  6  1  0  0  0  0
  6  5  2  0  0  0  0
  7 12  1  0  0  0  0
  8  5  1  0  0  0  0
  9  8  2  0  0  0  0
 10 12  1  0  0  0  0
 11  9  1  0  0  0  0
 11  4  2  0  0  0  0
 12 11  1  0  0  0  0
 13  2  1  0  0  0  0
 14 15  1  1  0  0  0
 14 13  1  0  0  0  0
 16 17  1  0  0  0  0
 16 14  1  0  0  0  0
 18  2  1  0  0  0  0
 18 19  1  0  0  0  0
 19 20  1  0  0  0  0
 20 21  2  0  0  0  0
 22 31  2  0  0  0  0
 23 30  1  0  0  0  0
 24 25  1  0  0  0  0
 26 22  1  0  0  0  0
 27 21  1  0  0  0  0
 27 25  1  0  0  0  0
 28 22  1  0  0  0  0
 28 23  2  0  0  0  0
 29 24  2  0  0  0  0
 30 29  1  0  0  0  0
 30 27  2  0  0  0  0
 31 29  1  0  0  0  0
M  END
>  <MODEL>
6

>  <REMARK>
 VINA RESULT:      -6.2      1.980      4.157
  Name = 
  8 active torsions:
  status: ('A' for Active; 'I' for Inactive)
    1  A    between atoms: C_2  and  C_13
    2  A    between atoms: C_2  and  C_25
    3  A    between atoms: C_4  and  C_5
    4  A    between atoms: C_9  and  N_23
    5  A    between atoms: N_12  and  C_25
    6  A    between atoms: N_12  and  C_27
    7  A    between atoms: C_15  and  C_20
    8  A    between atoms: C_20  and  C_27
                            x       y       z     vdW  Elec       q    Type
                         _______ _______ _______ _____ _____    ______ ____

>  <TORSDO>
F 8

$$$$
=
 OpenBabel11052417523D

 31 33  0  0  1  0  0  0  0  0999 V2000
  193.0260  173.3630  144.3890 C   0  0  0  0  0  0  0  0  0  0  0  0
  192.8000  173.5430  142.9770 N   0  0  0  0  0  0  0  0  0  0  0  0
  192.9320  172.2160  144.8990 O   0  0  0  0  0  0  0  0  0  0  0  0
  193.3330  174.5090  145.2690 C   0  0  0  0  0  0  0  0  0  0  0  0
  192.5510  176.1320  146.8900 C   0  0  0  0  0  3  0  0  0  0  0  0
  192.3140  175.0280  146.0730 C   0  0  0  0  0  3  0  0  0  0  0  0
  196.2880  173.3830  144.6610 C   0  0  0  0  0  1  0  0  0  0  0  0
  193.8160  176.7180  146.8920 C   0  0  0  0  0  3  0  0  0  0  0  0
  194.8010  176.2140  146.1010 N   0  0  0  0  0  0  0  0  0  0  0  0
  196.3310  175.6290  143.5780 C   0  0  0  0  0  1  0  0  0  0  0  0
  194.6040  175.1260  145.3000 C   0  0  0  0  0  0  0  0  0  0  0  0
  195.6720  174.6840  144.4570 N   0  0  0  0  0  0  0  0  0  0  0  0
  192.3700  172.4200  142.1480 C   0  0  0  0  0  2  0  0  0  0  0  0
  190.8730  172.4850  141.9120 C   0  0  1  0  0  3  0  0  0  0  0  0
  190.5820  172.2270  140.4440 C   0  0  0  0  0  1  0  0  0  0  0  0
  190.1890  171.4340  142.7630 C   0  0  0  0  0  2  0  0  0  0  0  0
  189.0830  171.9860  143.4080 O   0  0  0  0  0  1  0  0  0  0  0  0
  192.8330  174.8770  142.3830 C   0  0  0  0  0  2  0  0  0  0  0  0
  191.5700  175.6500  142.7150 C   0  0  0  0  0  2  0  0  0  0  0  0
  191.9300  177.0540  143.0620 C   0  0  0  0  0  3  0  0  0  0  0  0
  191.0660  178.0010  143.2890 N   0  0  0  0  0  0  0  0  0  0  0  0
  187.0860  177.1290  146.5100 C   0  0  0  0  0  0  0  0  0  0  0  0
  189.3630  177.5360  145.7330 C   0  0  0  0  0  3  0  0  0  0  0  0
  187.1330  177.6290  142.8250 C   0  0  0  0  0  3  0  0  0  0  0  0
  188.5730  177.9170  141.9850 S   0  0  0  0  0  0  0  0  0  0  0  0
  185.9770  176.7940  147.8240 Cl  0  0  0  0  0  0  0  0  0  0  0  0
  189.6310  177.9070  143.3020 C   0  0  0  0  0  0  0  0  0  0  0  0
  188.4620  177.2700  146.7740 C   0  0  0  0  0  3  0  0  0  0  0  0
  187.4950  177.5140  144.1650 C   0  0  0  0  0  0  0  0  0  0  0  0
  188.8700  177.6590  144.4320 C   0  0  0  0  0  0  0  0  0  0  0  0
  186.5970  177.2510  145.2010 C   0  0  0  0  0  3  0  0  0  0  0  0
  1  3  2  0  0  0  0
  1  4  1  0  0  0  0
  2  1  1  0  0  0  0
  4 11  2  0  0  0  0
  4  6  1  0  0  0  0
  5  8  1  0  0  0  0
  6  5  2  0  0  0  0
  9  8  2  0  0  0  0
 10 12  1  0  0  0  0
 11  9  1  0  0  0  0
 12  7  1  0  0  0  0
 12 11  1  0  0  0  0
 13  2  1  0  0  0  0
 14 15  1  6  0  0  0
 14 13  1  0  0  0  0
 14 16  1  0  0  0  0
 16 17  1  0  0  0  0
 18 19  1  0  0  0  0
 18  2  1  0  0  0  0
 19 20  1  0  0  0  0
 20 21  2  0  0  0  0
 21 27  1  0  0  0  0
 22 28  1  0  0  0  0
 22 26  1  0  0  0  0
 23 28  2  0  0  0  0
 24 29  2  0  0  0  0
 25 24  1  0  0  0  0
 25 27  1  0  0  0  0
 27 30  2  0  0  0  0
 29 30  1  0  0  0  0
 29 31  1  0  0  0  0
 30 23  1  0  0  0  0
 31 22  2  0  0  0  0
M  END
>  <MODEL>
7

>  <REMARK>
 VINA RESULT:      -6.2      2.618      5.062
  Name = 
  8 active torsions:
  status: ('A' for Active; 'I' for Inactive)
    1  A    between atoms: C_2  and  C_13
    2  A    between atoms: C_2  and  C_25
    3  A    between atoms: C_4  and  C_5
    4  A    between atoms: C_9  and  N_23
    5  A    between atoms: N_12  and  C_25
    6  A    between atoms: N_12  and  C_27
    7  A    between atoms: C_15  and  C_20
    8  A    between atoms: C_20  and  C_27
                            x       y       z     vdW  Elec       q    Type
                         _______ _______ _______ _____ _____    ______ ____

>  <TORSDO>
F 8

$$$$
=
 OpenBabel11052417523D

 31 33  0  0  1  0  0  0  0  0999 V2000
  189.5190  177.1380  145.1940 C   0  0  0  0  0  0  0  0  0  0  0  0
  190.3140  175.9360  145.1630 N   0  0  0  0  0  0  0  0  0  0  0  0
  190.0690  178.2590  145.0320 O   0  0  0  0  0  0  0  0  0  0  0  0
  188.0660  177.0900  145.4510 C   0  0  0  0  0  0  0  0  0  0  0  0
  186.2550  177.0770  147.0610 C   0  0  0  0  0  3  0  0  0  0  0  0
  187.6160  177.1560  146.7730 C   0  0  0  0  0  3  0  0  0  0  0  0
  188.1210  177.9160  142.3380 C   0  0  0  0  0  1  0  0  0  0  0  0
  185.3460  176.9240  146.0160 C   0  0  0  0  0  3  0  0  0  0  0  0
  185.7900  176.8510  144.7330 N   0  0  0  0  0  0  0  0  0  0  0  0
  187.0620  175.6580  142.2810 C   0  0  0  0  0  1  0  0  0  0  0  0
  187.1140  176.9390  144.4170 C   0  0  0  0  0  0  0  0  0  0  0  0
  187.5110  176.8030  143.0480 N   0  0  0  0  0  0  0  0  0  0  0  0
  191.7680  176.0140  145.0380 C   0  0  0  0  0  2  0  0  0  0  0  0
  192.4270  175.6530  146.3560 C   0  0  1  0  0  3  0  0  0  0  0  0
  193.8940  176.0430  146.3100 C   0  0  0  0  0  1  0  0  0  0  0  0
  191.7340  176.3970  147.4790 C   0  0  0  0  0  2  0  0  0  0  0  0
  191.1920  175.4900  148.3910 O   0  0  0  0  0  1  0  0  0  0  0  0
  189.7050  174.6350  145.4230 C   0  0  0  0  0  2  0  0  0  0  0  0
  189.6140  173.8140  144.1500 C   0  0  0  0  0  2  0  0  0  0  0  0
  190.0540  172.4190  144.4330 C   0  0  0  0  0  3  0  0  0  0  0  0
  191.2050  171.9230  144.0810 N   0  0  0  0  0  0  0  0  0  0  0  0
  196.1010  173.4840  144.8350 C   0  0  0  0  0  0  0  0  0  0  0  0
  193.9530  172.3960  145.2280 C   0  0  0  0  0  3  0  0  0  0  0  0
  193.8400  173.9790  141.9230 C   0  0  0  0  0  3  0  0  0  0  0  0
  192.2680  173.3540  141.9030 S   0  0  0  0  0  0  0  0  0  0  0  0
  197.7110  173.8910  145.3920 Cl  0  0  0  0  0  0  0  0  0  0  0  0
  192.2880  172.5890  143.4090 C   0  0  0  0  0  0  0  0  0  0  0  0
  195.2450  172.7290  145.6590 C   0  0  0  0  0  3  0  0  0  0  0  0
  194.3860  173.5850  143.1430 C   0  0  0  0  0  0  0  0  0  0  0  0
  193.5320  172.8270  143.9680 C   0  0  0  0  0  0  0  0  0  0  0  0
  195.6730  173.9150  143.5710 C   0  0  0  0  0  3  0  0  0  0  0  0
  1  4  1  0  0  0  0
  2  1  1  0  0  0  0
  2 18  1  0  0  0  0
  3  1  2  0  0  0  0
  4  6  1  0  0  0  0
  6  5  2  0  0  0  0
  7 12  1  0  0  0  0
  8  5  1  0  0  0  0
  9  8  2  0  0  0  0
 10 12  1  0  0  0  0
 11  9  1  0  0  0  0
 11  4  2  0  0  0  0
 12 11  1  0  0  0  0
 13  2  1  0  0  0  0
 13 14  1  0  0  0  0
 14 15  1  6  0  0  0
 14 16  1  0  0  0  0
 16 17  1  0  0  0  0
 19 20  1  0  0  0  0
 19 18  1  0  0  0  0
 21 20  2  0  0  0  0
 22 26  1  0  0  0  0
 22 28  1  0  0  0  0
 23 28  2  0  0  0  0
 24 29  2  0  0  0  0
 25 24  1  0  0  0  0
 25 27  1  0  0  0  0
 27 30  2  0  0  0  0
 27 21  1  0  0  0  0
 29 31  1  0  0  0  0
 29 30  1  0  0  0  0
 30 23  1  0  0  0  0
 31 22  2  0  0  0  0
M  END
>  <MODEL>
8

>  <REMARK>
 VINA RESULT:      -6.2      3.800      7.045
  Name = 
  8 active torsions:
  status: ('A' for Active; 'I' for Inactive)
    1  A    between atoms: C_2  and  C_13
    2  A    between atoms: C_2  and  C_25
    3  A    between atoms: C_4  and  C_5
    4  A    between atoms: C_9  and  N_23
    5  A    between atoms: N_12  and  C_25
    6  A    between atoms: N_12  and  C_27
    7  A    between atoms: C_15  and  C_20
    8  A    between atoms: C_20  and  C_27
                            x       y       z     vdW  Elec       q    Type
                         _______ _______ _______ _____ _____    ______ ____

>  <TORSDO>
F 8

$$$$
=
 OpenBabel11052417523D

 31 33  0  0  1  0  0  0  0  0999 V2000
  193.5270  174.9500  145.6070 C   0  0  0  0  0  0  0  0  0  0  0  0
  192.1330  175.2460  145.3930 N   0  0  0  0  0  0  0  0  0  0  0  0
  194.2050  175.6540  146.4010 O   0  0  0  0  0  0  0  0  0  0  0  0
  194.1980  173.8510  144.8840 C   0  0  0  0  0  0  0  0  0  0  0  0
  194.7390  171.4920  144.7570 C   0  0  0  0  0  3  0  0  0  0  0  0
  194.0900  172.5520  145.3890 C   0  0  0  0  0  3  0  0  0  0  0  0
  194.0750  176.1170  142.5980 C   0  0  0  0  0  1  0  0  0  0  0  0
  195.5030  171.7430  143.6190 C   0  0  0  0  0  3  0  0  0  0  0  0
  195.6100  173.0100  143.1370 N   0  0  0  0  0  0  0  0  0  0  0  0
  196.5270  175.8710  142.9860 C   0  0  0  0  0  1  0  0  0  0  0  0
  194.9770  174.0660  143.7240 C   0  0  0  0  0  0  0  0  0  0  0  0
  195.1790  175.3790  143.1910 N   0  0  0  0  0  0  0  0  0  0  0  0
  191.5210  176.4170  146.0180 C   0  0  0  0  0  2  0  0  0  0  0  0
  190.9630  176.0520  147.3810 C   0  0  1  0  0  3  0  0  0  0  0  0
  191.2920  177.1530  148.3720 C   0  0  0  0  0  1  0  0  0  0  0  0
  189.4600  175.8900  147.2740 C   0  0  0  0  0  2  0  0  0  0  0  0
  189.1100  174.5500  147.4410 O   0  0  0  0  0  1  0  0  0  0  0  0
  191.3520  174.4860  144.4210 C   0  0  0  0  0  2  0  0  0  0  0  0
  190.3670  175.3830  143.6950 C   0  0  0  0  0  2  0  0  0  0  0  0
  189.3310  174.5400  143.0340 C   0  0  0  0  0  3  0  0  0  0  0  0
  188.1620  174.9720  142.6570 N   0  0  0  0  0  0  0  0  0  0  0  0
  185.5360  178.1010  145.8650 C   0  0  0  0  0  0  0  0  0  0  0  0
  186.7490  176.1480  145.0460 C   0  0  0  0  0  3  0  0  0  0  0  0
  186.7200  178.6700  142.3850 C   0  0  0  0  0  3  0  0  0  0  0  0
  187.5830  177.4870  141.5350 S   0  0  0  0  0  0  0  0  0  0  0  0
  184.6400  178.8930  147.1430 Cl  0  0  0  0  0  0  0  0  0  0  0  0
  187.6400  176.3090  142.7440 C   0  0  0  0  0  0  0  0  0  0  0  0
  186.0310  176.7980  146.0610 C   0  0  0  0  0  3  0  0  0  0  0  0
  186.4660  178.1200  143.6400 C   0  0  0  0  0  0  0  0  0  0  0  0
  186.9640  176.8190  143.8390 C   0  0  0  0  0  0  0  0  0  0  0  0
  185.7530  178.7680  144.6500 C   0  0  0  0  0  3  0  0  0  0  0  0
  1  3  2  0  0  0  0
  2  1  1  0  0  0  0
  2 13  1  0  0  0  0
  4  6  1  0  0  0  0
  4  1  1  0  0  0  0
  5  6  2  0  0  0  0
  7 12  1  0  0  0  0
  8  5  1  0  0  0  0
  9  8  2  0  0  0  0
  9 11  1  0  0  0  0
 10 12  1  0  0  0  0
 11  4  2  0  0  0  0
 12 11  1  0  0  0  0
 13 14  1  0  0  0  0
 14 15  1  1  0  0  0
 16 14  1  0  0  0  0
 16 17  1  0  0  0  0
 18  2  1  0  0  0  0
 19 18  1  0  0  0  0
 20 19  1  0  0  0  0
 21 27  1  0  0  0  0
 21 20  2  0  0  0  0
 22 28  1  0  0  0  0
 22 26  1  0  0  0  0
 23 28  2  0  0  0  0
 24 29  2  0  0  0  0
 25 24  1  0  0  0  0
 25 27  1  0  0  0  0
 27 30  2  0  0  0  0
 29 30  1  0  0  0  0
 29 31  1  0  0  0  0
 30 23  1  0  0  0  0
 31 22  2  0  0  0  0
M  END
>  <MODEL>
9

>  <REMARK>
 VINA RESULT:      -6.1      2.641      4.134
  Name = 
  8 active torsions:
  status: ('A' for Active; 'I' for Inactive)
    1  A    between atoms: C_2  and  C_13
    2  A    between atoms: C_2  and  C_25
    3  A    between atoms: C_4  and  C_5
    4  A    between atoms: C_9  and  N_23
    5  A    between atoms: N_12  and  C_25
    6  A    between atoms: N_12  and  C_27
    7  A    between atoms: C_15  and  C_20
    8  A    between atoms: C_20  and  C_27
                            x       y       z     vdW  Elec       q    Type
                         _______ _______ _______ _____ _____    ______ ____

>  <TORSDO>
F 8

$$$$
