=
 OpenBabel11052419543D

 37 41  0  0  1  0  0  0  0  0999 V2000
  190.6580  176.3560  142.9060 O   0  0  0  0  0  0  0  0  0  0  0  0
  190.0990  172.3790  140.7160 C   0  0  0  0  0  0  0  0  0  0  0  0
  191.1880  172.5030  144.4240 C   0  0  0  0  0  2  0  0  0  0  0  0
  188.1930  173.9200  140.2700 C   0  0  0  0  0  2  0  0  0  0  0  0
  190.6200  173.2520  141.8460 C   0  0  2  0  0  3  0  0  0  0  0  0
  189.0960  172.7710  139.9370 C   0  0  0  0  0  0  0  0  0  0  0  0
  191.4670  172.4920  142.9010 C   0  0  1  0  0  3  0  0  0  0  0  0
  188.8240  171.9240  138.8320 N   0  0  0  0  0  2  0  0  0  0  0  0
  188.8740  174.9670  141.1560 C   0  0  2  0  0  3  0  0  0  0  0  0
  191.1380  170.1950  141.0200 C   0  0  0  0  0  2  0  0  0  0  0  0
  190.0760  170.6980  138.6040 S   0  0  0  0  0  0  0  0  0  0  0  0
  190.1080  173.4270  144.9740 C   0  0  0  0  0  2  0  0  0  0  0  0
  190.7340  171.1560  140.2030 C   0  0  0  0  0  0  0  0  0  0  0  0
  189.5840  174.2770  142.3340 C   0  0  2  0  0  3  0  0  0  0  0  0
  190.4040  174.8180  144.6480 N   0  0  0  0  0  0  0  0  0  0  0  0
  190.2240  175.2380  143.2940 C   0  0  0  0  0  0  0  0  0  0  0  0
  192.9590  172.5670  142.5670 C   0  0  2  0  0  3  0  0  0  0  0  0
  193.6150  171.3830  142.9220 O   0  0  0  0  0  1  0  0  0  0  0  0
  193.6110  174.9790  142.4770 C   0  0  0  0  0  3  0  0  0  0  0  0
  193.6360  173.7630  143.1670 C   0  0  0  0  0  0  0  0  0  0  0  0
  194.2660  173.6900  144.4180 C   0  0  0  0  0  3  0  0  0  0  0  0
  195.5020  174.7430  146.1610 F   0  0  0  0  0  0  0  0  0  0  0  0
  194.8590  176.0330  144.2650 C   0  0  0  0  0  3  0  0  0  0  0  0
  194.8800  174.8220  144.9620 C   0  0  0  0  0  0  0  0  0  0  0  0
  194.2230  176.1110  143.0240 C   0  0  0  0  0  3  0  0  0  0  0  0
  187.8100  175.9300  141.6700 C   0  0  0  0  0  2  0  0  0  0  0  0
  187.2730  176.7960  140.5380 C   0  0  0  0  0  2  0  0  0  0  0  0
  186.4680  177.8780  141.0790 N   0  0  0  0  0  2  0  0  0  0  0  0
  187.0760  178.2790  142.3370 C   0  0  0  0  0  2  0  0  0  0  0  0
  185.8170  179.0330  143.4060 S   0  0  0  0  0  1  0  0  0  0  0  0
  190.6590  175.8050  145.6950 C   0  0  1  0  0  3  0  0  0  0  0  0
  188.5640  175.2980  147.2610 C   0  0  0  0  0  1  0  0  0  0  0  0
  188.6140  177.3550  145.7520 C   0  0  0  0  0  2  0  0  0  0  0  0
  189.3550  176.2370  146.3670 C   0  0  2  0  0  0  0  0  0  0  0  0
  189.4230  177.5350  146.8950 O   0  0  0  0  0  0  0  0  0  0  0  0
  191.6860  175.2850  146.6980 C   0  0  0  0  0  2  0  0  0  0  0  0
  192.5730  176.4130  147.1740 C   0  0  0  0  0  1  0  0  0  0  0  0
  1 16  2  0  0  0  0
  3 12  1  0  0  0  0
  4  9  1  0  0  0  0
  5  2  1  1  0  0  0
  5 14  1  0  0  0  0
  5  7  1  0  0  0  0
  6  4  1  0  0  0  0
  6  2  2  0  0  0  0
  7 17  1  1  0  0  0
  7  3  1  0  0  0  0
  8  6  1  0  0  0  0
  9 26  1  1  0  0  0
  9 14  1  0  0  0  0
 11  8  1  0  0  0  0
 11 13  1  0  0  0  0
 13  2  1  0  0  0  0
 13 10  2  0  0  0  0
 14 16  1  6  0  0  0
 15 12  1  0  0  0  0
 15 31  1  0  0  0  0
 16 15  1  0  0  0  0
 17 18  1  1  0  0  0
 17 20  1  0  0  0  0
 19 25  2  0  0  0  0
 19 20  1  0  0  0  0
 20 21  2  0  0  0  0
 21 24  1  0  0  0  0
 23 24  2  0  0  0  0
 24 22  1  0  0  0  0
 25 23  1  0  0  0  0
 27 28  1  0  0  0  0
 27 26  1  0  0  0  0
 28 29  1  0  0  0  0
 29 30  1  0  0  0  0
 31 34  1  0  0  0  0
 31 36  1  1  0  0  0
 33 34  1  0  0  0  0
 33 35  1  0  0  0  0
 34 35  1  0  0  0  0
 34 32  1  1  0  0  0
 36 37  1  0  0  0  0
M  END
>  <MODEL>
1

>  <REMARK>
 VINA RESULT:      -6.2      0.000      0.000
  Name = 
  9 active torsions:
  status: ('A' for Active; 'I' for Inactive)
    1  A    between atoms: C_3  and  N_21
    2  A    between atoms: C_6  and  C_31
    3  A    between atoms: C_11  and  C_26
    4  A    between atoms: C_14  and  C_31
    5  A    between atoms: C_17  and  C_26
    6  A    between atoms: C_20  and  C_25
    7  A    between atoms: N_21  and  C_30
    8  A    between atoms: C_25  and  C_30
    9  A    between atoms: C_26  and  N_33
                            x       y       z     vdW  Elec       q    Type
                         _______ _______ _______ _____ _____    ______ ____

>  <TORSDO>
F 9

$$$$
=
 OpenBabel11052419543D

 37 41  0  0  1  0  0  0  0  0999 V2000
  191.1600  176.1930  142.9020 O   0  0  0  0  0  0  0  0  0  0  0  0
  190.2340  172.3150  140.6590 C   0  0  0  0  0  0  0  0  0  0  0  0
  191.4310  172.2800  144.3350 C   0  0  0  0  0  2  0  0  0  0  0  0
  188.4410  174.0070  140.2950 C   0  0  0  0  0  2  0  0  0  0  0  0
  190.8510  173.1220  141.7880 C   0  0  2  0  0  3  0  0  0  0  0  0
  189.2430  172.7980  139.9160 C   0  0  0  0  0  0  0  0  0  0  0  0
  191.6660  172.2780  142.8040 C   0  0  1  0  0  3  0  0  0  0  0  0
  188.8760  171.9970  138.8040 N   0  0  0  0  0  2  0  0  0  0  0  0
  189.2260  174.9800  141.1800 C   0  0  2  0  0  3  0  0  0  0  0  0
  191.1080  170.0520  140.8930 C   0  0  0  0  0  2  0  0  0  0  0  0
  190.0230  170.6830  138.5180 S   0  0  0  0  0  0  0  0  0  0  0  0
  190.4410  173.2740  144.9320 C   0  0  0  0  0  2  0  0  0  0  0  0
  190.7580  171.0570  140.1050 C   0  0  0  0  0  0  0  0  0  0  0  0
  189.9120  174.2140  142.3240 C   0  0  2  0  0  3  0  0  0  0  0  0
  190.8350  174.6430  144.6220 N   0  0  0  0  0  0  0  0  0  0  0  0
  190.6510  175.1030  143.2830 C   0  0  0  0  0  0  0  0  0  0  0  0
  193.1500  172.2450  142.4290 C   0  0  2  0  0  3  0  0  0  0  0  0
  193.9030  171.5950  143.4120 O   0  0  0  0  0  1  0  0  0  0  0  0
  193.7160  174.0570  140.8030 C   0  0  0  0  0  3  0  0  0  0  0  0
  193.7100  173.6020  142.1250 C   0  0  0  0  0  0  0  0  0  0  0  0
  194.1970  174.4320  143.1450 C   0  0  0  0  0  3  0  0  0  0  0  0
  195.1900  176.4890  143.8230 F   0  0  0  0  0  0  0  0  0  0  0  0
  194.7150  176.1460  141.5150 C   0  0  0  0  0  3  0  0  0  0  0  0
  194.7040  175.6990  142.8380 C   0  0  0  0  0  0  0  0  0  0  0  0
  194.2200  175.3260  140.4980 C   0  0  0  0  0  3  0  0  0  0  0  0
  188.2540  176.0120  141.7410 C   0  0  0  0  0  2  0  0  0  0  0  0
  187.0930  175.3300  142.4510 C   0  0  0  0  0  2  0  0  0  0  0  0
  186.2530  176.3230  143.0990 N   0  0  0  0  0  2  0  0  0  0  0  0
  186.9380  177.6010  142.9900 C   0  0  0  0  0  2  0  0  0  0  0  0
  185.7570  178.9500  143.2790 S   0  0  0  0  0  1  0  0  0  0  0  0
  191.1950  175.5870  145.6790 C   0  0  1  0  0  3  0  0  0  0  0  0
  189.1360  175.0240  147.2760 C   0  0  0  0  0  1  0  0  0  0  0  0
  189.2800  177.2570  146.0480 C   0  0  0  0  0  2  0  0  0  0  0  0
  189.9580  176.0170  146.4710 C   0  0  2  0  0  0  0  0  0  0  0  0
  190.1500  177.2240  147.1600 O   0  0  0  0  0  0  0  0  0  0  0  0
  192.2890  175.0130  146.5760 C   0  0  0  0  0  2  0  0  0  0  0  0
  193.5050  175.9110  146.5620 C   0  0  0  0  0  1  0  0  0  0  0  0
  1 16  2  0  0  0  0
  3 12  1  0  0  0  0
  4  9  1  0  0  0  0
  5  2  1  1  0  0  0
  5 14  1  0  0  0  0
  5  7  1  0  0  0  0
  6  4  1  0  0  0  0
  6  2  2  0  0  0  0
  7 17  1  1  0  0  0
  7  3  1  0  0  0  0
  8  6  1  0  0  0  0
  9 26  1  1  0  0  0
  9 14  1  0  0  0  0
 11  8  1  0  0  0  0
 11 13  1  0  0  0  0
 13  2  1  0  0  0  0
 13 10  2  0  0  0  0
 14 16  1  6  0  0  0
 15 12  1  0  0  0  0
 15 31  1  0  0  0  0
 16 15  1  0  0  0  0
 17 18  1  1  0  0  0
 19 20  1  0  0  0  0
 20 17  1  0  0  0  0
 20 21  2  0  0  0  0
 23 24  2  0  0  0  0
 24 21  1  0  0  0  0
 24 22  1  0  0  0  0
 25 19  2  0  0  0  0
 25 23  1  0  0  0  0
 26 27  1  0  0  0  0
 27 28  1  0  0  0  0
 29 28  1  0  0  0  0
 29 30  1  0  0  0  0
 31 34  1  0  0  0  0
 31 36  1  1  0  0  0
 33 34  1  0  0  0  0
 33 35  1  0  0  0  0
 34 35  1  0  0  0  0
 34 32  1  1  0  0  0
 37 36  1  0  0  0  0
M  END
>  <MODEL>
2

>  <REMARK>
 VINA RESULT:      -6.2      1.001      1.224
  Name = 
  9 active torsions:
  status: ('A' for Active; 'I' for Inactive)
    1  A    between atoms: C_3  and  N_21
    2  A    between atoms: C_6  and  C_31
    3  A    between atoms: C_11  and  C_26
    4  A    between atoms: C_14  and  C_31
    5  A    between atoms: C_17  and  C_26
    6  A    between atoms: C_20  and  C_25
    7  A    between atoms: N_21  and  C_30
    8  A    between atoms: C_25  and  C_30
    9  A    between atoms: C_26  and  N_33
                            x       y       z     vdW  Elec       q    Type
                         _______ _______ _______ _____ _____    ______ ____

>  <TORSDO>
F 9

$$$$
=
 OpenBabel11052419543D

 37 41  0  0  1  0  0  0  0  0999 V2000
  189.8810  174.0650  143.0800 O   0  0  0  0  0  0  0  0  0  0  0  0
  186.8040  177.3980  142.4930 C   0  0  0  0  0  0  0  0  0  0  0  0
  190.1800  178.0600  144.2580 C   0  0  0  0  0  2  0  0  0  0  0  0
  187.1080  176.0840  140.3980 C   0  0  0  0  0  2  0  0  0  0  0  0
  188.0310  176.7740  143.1350 C   0  0  2  0  0  3  0  0  0  0  0  0
  186.3330  176.9700  141.3260 C   0  0  0  0  0  0  0  0  0  0  0  0
  188.6870  177.6460  144.2390 C   0  0  1  0  0  3  0  0  0  0  0  0
  185.0960  177.5410  140.9280 N   0  0  0  0  0  2  0  0  0  0  0  0
  188.1260  175.2090  141.1340 C   0  0  2  0  0  3  0  0  0  0  0  0
  186.3270  179.4150  143.7750 C   0  0  0  0  0  2  0  0  0  0  0  0
  184.3430  178.4760  142.2250 S   0  0  0  0  0  0  0  0  0  0  0  0
  191.1270  177.4690  143.2200 C   0  0  0  0  0  2  0  0  0  0  0  0
  185.8800  178.3470  143.1310 C   0  0  0  0  0  0  0  0  0  0  0  0
  188.9410  176.0650  142.1200 C   0  0  2  0  0  3  0  0  0  0  0  0
  191.1520  176.0140  143.3140 N   0  0  0  0  0  0  0  0  0  0  0  0
  190.0130  175.2960  142.8380 C   0  0  0  0  0  0  0  0  0  0  0  0
  188.1530  177.2750  145.6250 C   0  0  2  0  0  3  0  0  0  0  0  0
  187.5550  178.3780  146.2440 O   0  0  0  0  0  1  0  0  0  0  0  0
  189.3720  175.2680  146.4790 C   0  0  0  0  0  3  0  0  0  0  0  0
  189.1920  176.6540  146.5090 C   0  0  0  0  0  0  0  0  0  0  0  0
  190.0040  177.4400  147.3390 C   0  0  0  0  0  3  0  0  0  0  0  0
  191.7440  177.5980  148.9590 F   0  0  0  0  0  0  0  0  0  0  0  0
  191.1450  175.4520  148.1190 C   0  0  0  0  0  3  0  0  0  0  0  0
  190.9740  176.8380  148.1460 C   0  0  0  0  0  0  0  0  0  0  0  0
  190.3450  174.6670  147.2850 C   0  0  0  0  0  3  0  0  0  0  0  0
  189.0480  174.5690  140.1020 C   0  0  0  0  0  2  0  0  0  0  0  0
  188.5610  173.1750  139.7320 C   0  0  0  0  0  2  0  0  0  0  0  0
  188.2690  173.1100  138.3100 N   0  0  0  0  0  2  0  0  0  0  0  0
  189.4430  172.5530  137.6560 C   0  0  0  0  0  2  0  0  0  0  0  0
  189.7830  170.9000  138.3260 S   0  0  0  0  0  1  0  0  0  0  0  0
  192.3750  175.2970  143.6710 C   0  0  1  0  0  3  0  0  0  0  0  0
  194.1080  176.2630  141.8910 C   0  0  0  0  0  1  0  0  0  0  0  0
  192.9590  174.0140  141.5250 C   0  0  0  0  0  2  0  0  0  0  0  0
  193.2790  175.1190  142.4490 C   0  0  2  0  0  0  0  0  0  0  0  0
  193.9960  173.9130  142.4780 O   0  0  0  0  0  0  0  0  0  0  0  0
  193.0930  175.9830  144.8300 C   0  0  0  0  0  2  0  0  0  0  0  0
  193.7650  174.9560  145.7130 C   0  0  0  0  0  1  0  0  0  0  0  0
  2 13  1  0  0  0  0
  4  9  1  0  0  0  0
  4  6  1  0  0  0  0
  5  2  1  6  0  0  0
  5  7  1  0  0  0  0
  6  2  2  0  0  0  0
  7  3  1  0  0  0  0
  7 17  1  1  0  0  0
  8  6  1  0  0  0  0
  8 11  1  0  0  0  0
  9 26  1  6  0  0  0
  9 14  1  0  0  0  0
 11 13  1  0  0  0  0
 12 15  1  0  0  0  0
 12  3  1  0  0  0  0
 13 10  2  0  0  0  0
 14 16  1  1  0  0  0
 14  5  1  0  0  0  0
 15 31  1  0  0  0  0
 16  1  2  0  0  0  0
 16 15  1  0  0  0  0
 17 18  1  1  0  0  0
 17 20  1  0  0  0  0
 19 20  2  0  0  0  0
 19 25  1  0  0  0  0
 20 21  1  0  0  0  0
 21 24  2  0  0  0  0
 23 24  1  0  0  0  0
 24 22  1  0  0  0  0
 25 23  2  0  0  0  0
 27 26  1  0  0  0  0
 28 27  1  0  0  0  0
 29 28  1  0  0  0  0
 29 30  1  0  0  0  0
 31 36  1  1  0  0  0
 33 34  1  0  0  0  0
 33 35  1  0  0  0  0
 34 32  1  6  0  0  0
 34 35  1  0  0  0  0
 34 31  1  0  0  0  0
 36 37  1  0  0  0  0
M  END
>  <MODEL>
3

>  <REMARK>
 VINA RESULT:      -6.0      2.011      6.100
  Name = 
  9 active torsions:
  status: ('A' for Active; 'I' for Inactive)
    1  A    between atoms: C_3  and  N_21
    2  A    between atoms: C_6  and  C_31
    3  A    between atoms: C_11  and  C_26
    4  A    between atoms: C_14  and  C_31
    5  A    between atoms: C_17  and  C_26
    6  A    between atoms: C_20  and  C_25
    7  A    between atoms: N_21  and  C_30
    8  A    between atoms: C_25  and  C_30
    9  A    between atoms: C_26  and  N_33
                            x       y       z     vdW  Elec       q    Type
                         _______ _______ _______ _____ _____    ______ ____

>  <TORSDO>
F 9

$$$$
=
 OpenBabel11052419543D

 37 41  0  0  1  0  0  0  0  0999 V2000
  191.5850  174.4520  143.0030 O   0  0  0  0  0  0  0  0  0  0  0  0
  195.1800  172.4730  145.0240 C   0  0  0  0  0  0  0  0  0  0  0  0
  193.5640  175.6750  146.4700 C   0  0  0  0  0  2  0  0  0  0  0  0
  193.4600  170.7800  144.4030 C   0  0  0  0  0  2  0  0  0  0  0  0
  194.2250  173.6260  144.7670 C   0  0  2  0  0  3  0  0  0  0  0  0
  194.8580  171.2190  144.7200 C   0  0  0  0  0  0  0  0  0  0  0  0
  194.5610  174.9210  145.5550 C   0  0  1  0  0  3  0  0  0  0  0  0
  195.9050  170.2740  144.8720 N   0  0  0  0  0  2  0  0  0  0  0  0
  192.6050  171.9100  143.8220 C   0  0  2  0  0  3  0  0  0  0  0  0
  196.9780  173.3810  146.3960 C   0  0  0  0  0  2  0  0  0  0  0  0
  197.4680  171.0460  145.1610 S   0  0  0  0  0  0  0  0  0  0  0  0
  192.1080  175.2270  146.5070 C   0  0  0  0  0  2  0  0  0  0  0  0
  196.5950  172.5880  145.4070 C   0  0  0  0  0  0  0  0  0  0  0  0
  192.7580  173.1790  144.6790 C   0  0  2  0  0  3  0  0  0  0  0  0
  191.5110  175.3030  145.1790 N   0  0  0  0  0  0  0  0  0  0  0  0
  191.8980  174.3210  144.2170 C   0  0  0  0  0  0  0  0  0  0  0  0
  195.4360  175.8610  144.7220 C   0  0  2  0  0  3  0  0  0  0  0  0
  195.1440  177.2000  145.0040 O   0  0  0  0  0  1  0  0  0  0  0  0
  194.3130  176.1440  142.5070 C   0  0  0  0  0  3  0  0  0  0  0  0
  195.3580  175.5870  143.2500 C   0  0  0  0  0  0  0  0  0  0  0  0
  196.3290  174.8090  142.6040 C   0  0  0  0  0  3  0  0  0  0  0  0
  197.1690  173.8110  140.6100 F   0  0  0  0  0  0  0  0  0  0  0  0
  195.1900  175.1290  140.4900 C   0  0  0  0  0  3  0  0  0  0  0  0
  196.2400  174.5760  141.2270 C   0  0  0  0  0  0  0  0  0  0  0  0
  194.2270  175.9140  141.1300 C   0  0  0  0  0  3  0  0  0  0  0  0
  191.1510  171.4540  143.8050 C   0  0  0  0  0  2  0  0  0  0  0  0
  190.7900  170.8490  142.4560 C   0  0  0  0  0  2  0  0  0  0  0  0
  189.9080  171.7450  141.7270 N   0  0  0  0  0  2  0  0  0  0  0  0
  188.9170  172.2340  142.6730 C   0  0  0  0  0  2  0  0  0  0  0  0
  188.2020  173.7840  142.0550 S   0  0  0  0  0  1  0  0  0  0  0  0
  190.3950  176.2050  144.8990 C   0  0  1  0  0  3  0  0  0  0  0  0
  189.2000  174.7050  146.7500 C   0  0  0  0  0  1  0  0  0  0  0  0
  187.8900  176.4370  145.4090 C   0  0  0  0  0  2  0  0  0  0  0  0
  189.2040  175.8970  145.8080 C   0  0  2  0  0  0  0  0  0  0  0  0
  188.6740  177.0470  146.4120 O   0  0  0  0  0  0  0  0  0  0  0  0
  190.8340  177.6640  144.9890 C   0  0  0  0  0  2  0  0  0  0  0  0
  191.3260  178.1490  143.6450 C   0  0  0  0  0  1  0  0  0  0  0  0
  1 16  2  0  0  0  0
  2 13  1  0  0  0  0
  3 12  1  0  0  0  0
  4  6  1  0  0  0  0
  5  2  1  1  0  0  0
  5  7  1  0  0  0  0
  6  8  1  0  0  0  0
  6  2  2  0  0  0  0
  7 17  1  6  0  0  0
  7  3  1  0  0  0  0
  8 11  1  0  0  0  0
  9 26  1  1  0  0  0
  9  4  1  0  0  0  0
  9 14  1  0  0  0  0
 11 13  1  0  0  0  0
 13 10  2  0  0  0  0
 14 16  1  6  0  0  0
 14  5  1  0  0  0  0
 15 12  1  0  0  0  0
 16 15  1  0  0  0  0
 17 18  1  6  0  0  0
 19 20  1  0  0  0  0
 20 17  1  0  0  0  0
 21 20  2  0  0  0  0
 22 24  1  0  0  0  0
 23 25  1  0  0  0  0
 23 24  2  0  0  0  0
 24 21  1  0  0  0  0
 25 19  2  0  0  0  0
 27 26  1  0  0  0  0
 28 27  1  0  0  0  0
 28 29  1  0  0  0  0
 30 29  1  0  0  0  0
 31 36  1  1  0  0  0
 31 15  1  0  0  0  0
 31 34  1  0  0  0  0
 33 34  1  0  0  0  0
 33 35  1  0  0  0  0
 34 35  1  0  0  0  0
 34 32  1  1  0  0  0
 37 36  1  0  0  0  0
M  END
>  <MODEL>
4

>  <REMARK>
 VINA RESULT:      -5.9      3.062      5.210
  Name = 
  9 active torsions:
  status: ('A' for Active; 'I' for Inactive)
    1  A    between atoms: C_3  and  N_21
    2  A    between atoms: C_6  and  C_31
    3  A    between atoms: C_11  and  C_26
    4  A    between atoms: C_14  and  C_31
    5  A    between atoms: C_17  and  C_26
    6  A    between atoms: C_20  and  C_25
    7  A    between atoms: N_21  and  C_30
    8  A    between atoms: C_25  and  C_30
    9  A    between atoms: C_26  and  N_33
                            x       y       z     vdW  Elec       q    Type
                         _______ _______ _______ _____ _____    ______ ____

>  <TORSDO>
F 9

$$$$
=
 OpenBabel11052419543D

 37 41  0  0  1  0  0  0  0  0999 V2000
  193.8990  173.8570  145.7340 O   0  0  0  0  0  0  0  0  0  0  0  0
  190.4020  173.4340  142.8150 C   0  0  0  0  0  0  0  0  0  0  0  0
  192.9720  176.3040  142.4800 C   0  0  0  0  0  2  0  0  0  0  0  0
  191.5240  171.2400  143.1900 C   0  0  0  0  0  2  0  0  0  0  0  0
  191.5320  174.1950  143.4870 C   0  0  2  0  0  3  0  0  0  0  0  0
  190.3560  172.1050  142.8200 C   0  0  0  0  0  0  0  0  0  0  0  0
  191.6680  175.6720  143.0280 C   0  0  1  0  0  3  0  0  0  0  0  0
  189.1670  171.5410  142.2910 N   0  0  0  0  0  2  0  0  0  0  0  0
  192.4900  171.9360  144.1530 C   0  0  2  0  0  3  0  0  0  0  0  0
  189.1680  175.0780  141.5060 C   0  0  0  0  0  2  0  0  0  0  0  0
  187.9150  172.7560  142.0130 S   0  0  0  0  0  0  0  0  0  0  0  0
  194.2620  175.4930  142.5170 C   0  0  0  0  0  2  0  0  0  0  0  0
  189.1550  174.0140  142.2950 C   0  0  0  0  0  0  0  0  0  0  0  0
  192.8080  173.3540  143.6450 C   0  0  2  0  0  3  0  0  0  0  0  0
  194.5910  175.1090  143.8850 N   0  0  0  0  0  0  0  0  0  0  0  0
  193.8050  174.0850  144.4970 C   0  0  0  0  0  0  0  0  0  0  0  0
  190.8940  176.6110  143.9570 C   0  0  2  0  0  3  0  0  0  0  0  0
  191.3870  177.9180  143.8750 O   0  0  0  0  0  1  0  0  0  0  0  0
  191.8900  176.4960  146.2460 C   0  0  0  0  0  3  0  0  0  0  0  0
  190.8570  176.1330  145.3770 C   0  0  0  0  0  0  0  0  0  0  0  0
  189.7910  175.3560  145.8550 C   0  0  0  0  0  3  0  0  0  0  0  0
  188.7530  174.1680  147.6400 F   0  0  0  0  0  0  0  0  0  0  0  0
  190.8120  175.2910  148.0500 C   0  0  0  0  0  3  0  0  0  0  0  0
  189.7740  174.9320  147.1880 C   0  0  0  0  0  0  0  0  0  0  0  0
  191.8700  176.0740  147.5800 C   0  0  0  0  0  3  0  0  0  0  0  0
  193.7650  171.1060  144.2390 C   0  0  0  0  0  2  0  0  0  0  0  0
  193.4460  169.6600  144.5940 C   0  0  0  0  0  2  0  0  0  0  0  0
  194.6680  168.9490  144.9320 N   0  0  0  0  0  2  0  0  0  0  0  0
  194.7210  168.8520  146.3810 C   0  0  0  0  0  2  0  0  0  0  0  0
  196.4190  169.1570  146.9480 S   0  0  0  0  0  1  0  0  0  0  0  0
  195.8110  175.5850  144.5340 C   0  0  1  0  0  3  0  0  0  0  0  0
  197.7820  175.8250  142.7560 C   0  0  0  0  0  1  0  0  0  0  0  0
  197.2350  173.5710  143.8210 C   0  0  0  0  0  2  0  0  0  0  0  0
  197.0530  175.0360  143.8300 C   0  0  2  0  0  0  0  0  0  0  0  0
  197.9410  174.4050  144.7150 O   0  0  0  0  0  0  0  0  0  0  0  0
  195.8220  177.1090  144.6280 C   0  0  0  0  0  2  0  0  0  0  0  0
  194.9380  177.5720  145.7630 C   0  0  0  0  0  1  0  0  0  0  0  0
  2  6  2  0  0  0  0
  3 12  1  0  0  0  0
  3  7  1  0  0  0  0
  4  9  1  0  0  0  0
  5  2  1  6  0  0  0
  5 14  1  0  0  0  0
  6  4  1  0  0  0  0
  7  5  1  0  0  0  0
  7 17  1  1  0  0  0
  8  6  1  0  0  0  0
  9 26  1  6  0  0  0
 10 13  2  0  0  0  0
 11  8  1  0  0  0  0
 11 13  1  0  0  0  0
 12 15  1  0  0  0  0
 13  2  1  0  0  0  0
 14  9  1  0  0  0  0
 14 16  1  1  0  0  0
 15 16  1  0  0  0  0
 15 31  1  0  0  0  0
 16  1  2  0  0  0  0
 17 18  1  1  0  0  0
 17 20  1  0  0  0  0
 19 25  1  0  0  0  0
 20 21  1  0  0  0  0
 20 19  2  0  0  0  0
 21 24  2  0  0  0  0
 24 22  1  0  0  0  0
 24 23  1  0  0  0  0
 25 23  2  0  0  0  0
 26 27  1  0  0  0  0
 27 28  1  0  0  0  0
 28 29  1  0  0  0  0
 29 30  1  0  0  0  0
 31 36  1  6  0  0  0
 33 34  1  0  0  0  0
 33 35  1  0  0  0  0
 34 32  1  6  0  0  0
 34 31  1  0  0  0  0
 34 35  1  0  0  0  0
 36 37  1  0  0  0  0
M  END
>  <MODEL>
5

>  <REMARK>
 VINA RESULT:      -5.9      3.362      6.754
  Name = 
  9 active torsions:
  status: ('A' for Active; 'I' for Inactive)
    1  A    between atoms: C_3  and  N_21
    2  A    between atoms: C_6  and  C_31
    3  A    between atoms: C_11  and  C_26
    4  A    between atoms: C_14  and  C_31
    5  A    between atoms: C_17  and  C_26
    6  A    between atoms: C_20  and  C_25
    7  A    between atoms: N_21  and  C_30
    8  A    between atoms: C_25  and  C_30
    9  A    between atoms: C_26  and  N_33
                            x       y       z     vdW  Elec       q    Type
                         _______ _______ _______ _____ _____    ______ ____

>  <TORSDO>
F 9

$$$$
=
 OpenBabel11052419543D

 37 41  0  0  1  0  0  0  0  0999 V2000
  191.8330  174.5230  141.2310 O   0  0  0  0  0  0  0  0  0  0  0  0
  189.9640  176.0080  145.1330 C   0  0  0  0  0  0  0  0  0  0  0  0
  187.7940  174.5390  142.2890 C   0  0  0  0  0  2  0  0  0  0  0  0
  191.9640  174.5930  145.5830 C   0  0  0  0  0  2  0  0  0  0  0  0
  189.9190  175.5880  143.6740 C   0  0  2  0  0  3  0  0  0  0  0  0
  190.9690  175.6590  145.9290 C   0  0  0  0  0  0  0  0  0  0  0  0
  188.5160  175.6980  143.0200 C   0  0  1  0  0  3  0  0  0  0  0  0
  190.9520  176.2520  147.2180 N   0  0  0  0  0  2  0  0  0  0  0  0
  192.1430  174.4230  144.0720 C   0  0  2  0  0  3  0  0  0  0  0  0
  187.7650  176.9320  145.6340 C   0  0  0  0  0  2  0  0  0  0  0  0
  189.7440  177.5350  147.3490 S   0  0  0  0  0  0  0  0  0  0  0  0
  188.5430  173.2330  142.0500 C   0  0  0  0  0  2  0  0  0  0  0  0
  189.0800  176.9900  145.7790 C   0  0  0  0  0  0  0  0  0  0  0  0
  190.7690  174.3410  143.3850 C   0  0  2  0  0  3  0  0  0  0  0  0
  189.7480  173.4670  141.2610 N   0  0  0  0  0  0  0  0  0  0  0  0
  190.8520  174.1050  141.9040 C   0  0  0  0  0  0  0  0  0  0  0  0
  188.3390  177.0480  142.3190 C   0  0  2  0  0  3  0  0  0  0  0  0
  189.3920  177.9150  142.6250 O   0  0  0  0  0  1  0  0  0  0  0  0
  185.8490  177.0920  142.0960 C   0  0  0  0  0  3  0  0  0  0  0  0
  187.0110  177.6860  142.5980 C   0  0  0  0  0  0  0  0  0  0  0  0
  186.9130  178.8470  143.3780 C   0  0  0  0  0  3  0  0  0  0  0  0
  185.5730  180.5480  144.3730 F   0  0  0  0  0  0  0  0  0  0  0  0
  184.5050  178.8250  143.1230 C   0  0  0  0  0  3  0  0  0  0  0  0
  185.6620  179.4170  143.6340 C   0  0  0  0  0  0  0  0  0  0  0  0
  184.5990  177.6610  142.3550 C   0  0  0  0  0  3  0  0  0  0  0  0
  192.9380  173.1460  143.8210 C   0  0  0  0  0  2  0  0  0  0  0  0
  194.4320  173.4380  143.7860 C   0  0  0  0  0  2  0  0  0  0  0  0
  194.6580  174.8440  143.4980 N   0  0  0  0  0  2  0  0  0  0  0  0
  196.0730  175.0000  143.2040 C   0  0  0  0  0  2  0  0  0  0  0  0
  196.4970  176.7650  143.1800 S   0  0  0  0  0  1  0  0  0  0  0  0
  189.9120  172.8770  139.9340 C   0  0  1  0  0  3  0  0  0  0  0  0
  190.6320  170.6330  141.1790 C   0  0  0  0  0  1  0  0  0  0  0  0
  191.9900  171.5480  139.2220 C   0  0  0  0  0  2  0  0  0  0  0  0
  190.7420  171.5930  140.0070 C   0  0  2  0  0  0  0  0  0  0  0  0
  190.8060  170.9200  138.7770 O   0  0  0  0  0  0  0  0  0  0  0  0
  188.5600  172.6570  139.2610 C   0  0  0  0  0  2  0  0  0  0  0  0
  188.2810  173.7620  138.2680 C   0  0  0  0  0  1  0  0  0  0  0  0
  1 16  2  0  0  0  0
  2 13  1  0  0  0  0
  2  6  2  0  0  0  0
  3  7  1  0  0  0  0
  4  6  1  0  0  0  0
  5  2  1  1  0  0  0
  6  8  1  0  0  0  0
  7 17  1  6  0  0  0
  7  5  1  0  0  0  0
  8 11  1  0  0  0  0
  9 26  1  1  0  0  0
  9  4  1  0  0  0  0
 10 13  2  0  0  0  0
 12  3  1  0  0  0  0
 13 11  1  0  0  0  0
 14 16  1  6  0  0  0
 14  5  1  0  0  0  0
 14  9  1  0  0  0  0
 15 16  1  0  0  0  0
 15 12  1  0  0  0  0
 17 20  1  0  0  0  0
 17 18  1  1  0  0  0
 19 25  2  0  0  0  0
 19 20  1  0  0  0  0
 20 21  2  0  0  0  0
 21 24  1  0  0  0  0
 23 24  2  0  0  0  0
 24 22  1  0  0  0  0
 25 23  1  0  0  0  0
 27 26  1  0  0  0  0
 28 27  1  0  0  0  0
 29 28  1  0  0  0  0
 30 29  1  0  0  0  0
 31 36  1  1  0  0  0
 31 34  1  0  0  0  0
 31 15  1  0  0  0  0
 33 34  1  0  0  0  0
 34 32  1  1  0  0  0
 35 33  1  0  0  0  0
 35 34  1  0  0  0  0
 37 36  1  0  0  0  0
M  END
>  <MODEL>
6

>  <REMARK>
 VINA RESULT:      -5.9      3.352      7.896
  Name = 
  9 active torsions:
  status: ('A' for Active; 'I' for Inactive)
    1  A    between atoms: C_3  and  N_21
    2  A    between atoms: C_6  and  C_31
    3  A    between atoms: C_11  and  C_26
    4  A    between atoms: C_14  and  C_31
    5  A    between atoms: C_17  and  C_26
    6  A    between atoms: C_20  and  C_25
    7  A    between atoms: N_21  and  C_30
    8  A    between atoms: C_25  and  C_30
    9  A    between atoms: C_26  and  N_33
                            x       y       z     vdW  Elec       q    Type
                         _______ _______ _______ _____ _____    ______ ____

>  <TORSDO>
F 9

$$$$
=
 OpenBabel11052419543D

 37 41  0  0  1  0  0  0  0  0999 V2000
  192.4200  172.7000  142.1800 O   0  0  0  0  0  0  0  0  0  0  0  0
  189.7060  175.8210  144.1340 C   0  0  0  0  0  0  0  0  0  0  0  0
  193.5010  176.4320  143.7100 C   0  0  0  0  0  2  0  0  0  0  0  0
  188.6820  174.9310  142.0430 C   0  0  0  0  0  2  0  0  0  0  0  0
  191.0520  175.1950  143.8140 C   0  0  2  0  0  3  0  0  0  0  0  0
  188.6270  175.5720  143.3980 C   0  0  0  0  0  0  0  0  0  0  0  0
  192.2610  175.9080  144.4770 C   0  0  1  0  0  3  0  0  0  0  0  0
  187.4130  176.1010  143.9070 N   0  0  0  0  0  2  0  0  0  0  0  0
  189.9050  174.0250  141.8710 C   0  0  2  0  0  3  0  0  0  0  0  0
  190.1420  177.5330  145.8140 C   0  0  0  0  0  2  0  0  0  0  0  0
  187.5930  176.7260  145.5500 S   0  0  0  0  0  0  0  0  0  0  0  0
  193.6420  176.1150  142.2250 C   0  0  0  0  0  2  0  0  0  0  0  0
  189.3640  176.5630  145.3570 C   0  0  0  0  0  0  0  0  0  0  0  0
  191.1730  174.7550  142.3460 C   0  0  2  0  0  3  0  0  0  0  0  0
  193.6620  174.6730  142.0060 N   0  0  0  0  0  0  0  0  0  0  0  0
  192.4320  173.9610  142.1490 C   0  0  0  0  0  0  0  0  0  0  0  0
  192.6200  175.2540  145.8140 C   0  0  2  0  0  3  0  0  0  0  0  0
  192.8770  176.2190  146.7930 O   0  0  0  0  0  1  0  0  0  0  0  0
  193.4720  172.9380  145.4170 C   0  0  0  0  0  3  0  0  0  0  0  0
  193.7520  174.2770  145.7050 C   0  0  0  0  0  0  0  0  0  0  0  0
  195.0840  174.6880  145.8580 C   0  0  0  0  0  3  0  0  0  0  0  0
  197.4070  174.1570  145.9050 F   0  0  0  0  0  0  0  0  0  0  0  0
  195.8380  172.4220  145.4600 C   0  0  0  0  0  3  0  0  0  0  0  0
  196.1240  173.7600  145.7400 C   0  0  0  0  0  0  0  0  0  0  0  0
  194.5130  172.0110  145.2970 C   0  0  0  0  0  3  0  0  0  0  0  0
  190.0270  173.6570  140.3960 C   0  0  0  0  0  2  0  0  0  0  0  0
  189.2560  172.3800  140.0920 C   0  0  0  0  0  2  0  0  0  0  0  0
  188.1860  172.6580  139.1490 N   0  0  0  0  0  2  0  0  0  0  0  0
  188.6330  173.7510  138.3010 C   0  0  0  0  0  2  0  0  0  0  0  0
  189.3120  173.0810  136.7560 S   0  0  0  0  0  1  0  0  0  0  0  0
  194.8350  174.0070  141.4440 C   0  0  1  0  0  3  0  0  0  0  0  0
  194.2020  174.9580  139.0360 C   0  0  0  0  0  1  0  0  0  0  0  0
  194.5300  172.4560  139.4210 C   0  0  0  0  0  2  0  0  0  0  0  0
  194.6900  173.8310  139.9310 C   0  0  2  0  0  0  0  0  0  0  0  0
  195.7670  173.1340  139.3620 O   0  0  0  0  0  0  0  0  0  0  0  0
  196.1170  174.7430  141.8240 C   0  0  0  0  0  2  0  0  0  0  0  0
  197.1750  173.7600  142.2690 C   0  0  0  0  0  1  0  0  0  0  0  0
  2 13  1  0  0  0  0
  3  7  1  0  0  0  0
  4  6  1  0  0  0  0
  5  2  1  6  0  0  0
  5  7  1  0  0  0  0
  6  8  1  0  0  0  0
  6  2  2  0  0  0  0
  7 17  1  1  0  0  0
  8 11  1  0  0  0  0
  9 26  1  6  0  0  0
  9  4  1  0  0  0  0
  9 14  1  0  0  0  0
 12  3  1  0  0  0  0
 13 11  1  0  0  0  0
 13 10  2  0  0  0  0
 14 16  1  1  0  0  0
 14  5  1  0  0  0  0
 15 16  1  0  0  0  0
 15 12  1  0  0  0  0
 16  1  2  0  0  0  0
 17 18  1  1  0  0  0
 19 20  1  0  0  0  0
 20 17  1  0  0  0  0
 20 21  2  0  0  0  0
 23 24  2  0  0  0  0
 24 21  1  0  0  0  0
 24 22  1  0  0  0  0
 25 19  2  0  0  0  0
 25 23  1  0  0  0  0
 27 26  1  0  0  0  0
 28 27  1  0  0  0  0
 29 28  1  0  0  0  0
 30 29  1  0  0  0  0
 31 36  1  6  0  0  0
 31 15  1  0  0  0  0
 33 34  1  0  0  0  0
 34 32  1  6  0  0  0
 34 31  1  0  0  0  0
 35 33  1  0  0  0  0
 35 34  1  0  0  0  0
 36 37  1  0  0  0  0
M  END
>  <MODEL>
7

>  <REMARK>
 VINA RESULT:      -5.8      2.303      5.902
  Name = 
  9 active torsions:
  status: ('A' for Active; 'I' for Inactive)
    1  A    between atoms: C_3  and  N_21
    2  A    between atoms: C_6  and  C_31
    3  A    between atoms: C_11  and  C_26
    4  A    between atoms: C_14  and  C_31
    5  A    between atoms: C_17  and  C_26
    6  A    between atoms: C_20  and  C_25
    7  A    between atoms: N_21  and  C_30
    8  A    between atoms: C_25  and  C_30
    9  A    between atoms: C_26  and  N_33
                            x       y       z     vdW  Elec       q    Type
                         _______ _______ _______ _____ _____    ______ ____

>  <TORSDO>
F 9

$$$$
=
 OpenBabel11052419543D

 37 41  0  0  1  0  0  0  0  0999 V2000
  190.9010  173.0570  144.3600 O   0  0  0  0  0  0  0  0  0  0  0  0
  188.7770  176.1470  141.7390 C   0  0  0  0  0  0  0  0  0  0  0  0
  192.3190  176.7930  143.1490 C   0  0  0  0  0  2  0  0  0  0  0  0
  188.5830  173.8620  140.7630 C   0  0  0  0  0  2  0  0  0  0  0  0
  189.8370  175.6990  142.7310 C   0  0  2  0  0  3  0  0  0  0  0  0
  188.1330  175.2780  140.9660 C   0  0  0  0  0  0  0  0  0  0  0  0
  190.7720  176.8360  143.2220 C   0  0  1  0  0  3  0  0  0  0  0  0
  187.0660  175.8220  140.2050 N   0  0  0  0  0  2  0  0  0  0  0  0
  189.3820  173.3220  141.9520 C   0  0  2  0  0  3  0  0  0  0  0  0
  188.9360  178.5770  141.6370 C   0  0  0  0  0  2  0  0  0  0  0  0
  186.6750  177.4760  140.6890 S   0  0  0  0  0  0  0  0  0  0  0  0
  193.0050  175.5060  142.7060 C   0  0  0  0  0  2  0  0  0  0  0  0
  188.1810  177.4880  141.6550 C   0  0  0  0  0  0  0  0  0  0  0  0
  190.4570  174.3400  142.3690 C   0  0  2  0  0  3  0  0  0  0  0  0
  192.6520  174.4020  143.5930 N   0  0  0  0  0  0  0  0  0  0  0  0
  191.3350  173.8600  143.4900 C   0  0  0  0  0  0  0  0  0  0  0  0
  190.2530  177.4530  144.5240 C   0  0  2  0  0  3  0  0  0  0  0  0
  190.8190  178.7130  144.7430 O   0  0  0  0  0  1  0  0  0  0  0  0
  191.6850  176.5260  146.3510 C   0  0  0  0  0  3  0  0  0  0  0  0
  190.4410  176.5590  145.7130 C   0  0  0  0  0  0  0  0  0  0  0  0
  189.3860  175.7830  146.2130 C   0  0  0  0  0  3  0  0  0  0  0  0
  188.5660  174.2050  147.7990 F   0  0  0  0  0  0  0  0  0  0  0  0
  190.8290  174.9300  147.9600 C   0  0  0  0  0  3  0  0  0  0  0  0
  189.5830  174.9660  147.3310 C   0  0  0  0  0  0  0  0  0  0  0  0
  191.8800  175.7110  147.4710 C   0  0  0  0  0  3  0  0  0  0  0  0
  190.0310  172.0060  141.5380 C   0  0  0  0  0  2  0  0  0  0  0  0
  190.2050  171.9410  140.0270 C   0  0  0  0  0  2  0  0  0  0  0  0
  191.3180  171.0680  139.6920 N   0  0  0  0  0  2  0  0  0  0  0  0
  192.0550  171.7070  138.6140 C   0  0  0  0  0  2  0  0  0  0  0  0
  191.1740  173.2010  138.0780 S   0  0  0  0  0  1  0  0  0  0  0  0
  193.6650  173.7230  144.3990 C   0  0  1  0  0  3  0  0  0  0  0  0
  194.0620  172.1300  142.3010 C   0  0  0  0  0  1  0  0  0  0  0  0
  193.7980  171.1720  144.6510 C   0  0  0  0  0  2  0  0  0  0  0  0
  194.0130  172.3590  143.8010 C   0  0  2  0  0  0  0  0  0  0  0  0
  195.0790  171.7340  144.4660 O   0  0  0  0  0  0  0  0  0  0  0  0
  194.8950  174.6060  144.5900 C   0  0  0  0  0  2  0  0  0  0  0  0
  195.1070  174.9020  146.0570 C   0  0  0  0  0  1  0  0  0  0  0  0
  3  7  1  0  0  0  0
  4  6  1  0  0  0  0
  4  9  1  0  0  0  0
  5  2  1  6  0  0  0
  5  7  1  0  0  0  0
  6  2  2  0  0  0  0
  7 17  1  1  0  0  0
  8 11  1  0  0  0  0
  8  6  1  0  0  0  0
  9 26  1  6  0  0  0
  9 14  1  0  0  0  0
 10 13  2  0  0  0  0
 11 13  1  0  0  0  0
 12  3  1  0  0  0  0
 12 15  1  0  0  0  0
 13  2  1  0  0  0  0
 14  5  1  0  0  0  0
 14 16  1  1  0  0  0
 15 31  1  0  0  0  0
 16 15  1  0  0  0  0
 16  1  2  0  0  0  0
 17 18  1  1  0  0  0
 17 20  1  0  0  0  0
 19 25  1  0  0  0  0
 20 21  1  0  0  0  0
 20 19  2  0  0  0  0
 21 24  2  0  0  0  0
 24 22  1  0  0  0  0
 24 23  1  0  0  0  0
 25 23  2  0  0  0  0
 27 26  1  0  0  0  0
 28 27  1  0  0  0  0
 29 28  1  0  0  0  0
 30 29  1  0  0  0  0
 31 36  1  6  0  0  0
 34 32  1  6  0  0  0
 34 31  1  0  0  0  0
 34 35  1  0  0  0  0
 34 33  1  0  0  0  0
 35 33  1  0  0  0  0
 36 37  1  0  0  0  0
M  END
>  <MODEL>
8

>  <REMARK>
 VINA RESULT:      -5.8      2.103      5.758
  Name = 
  9 active torsions:
  status: ('A' for Active; 'I' for Inactive)
    1  A    between atoms: C_3  and  N_21
    2  A    between atoms: C_6  and  C_31
    3  A    between atoms: C_11  and  C_26
    4  A    between atoms: C_14  and  C_31
    5  A    between atoms: C_17  and  C_26
    6  A    between atoms: C_20  and  C_25
    7  A    between atoms: N_21  and  C_30
    8  A    between atoms: C_25  and  C_30
    9  A    between atoms: C_26  and  N_33
                            x       y       z     vdW  Elec       q    Type
                         _______ _______ _______ _____ _____    ______ ____

>  <TORSDO>
F 9

$$$$
=
 OpenBabel11052419543D

 37 41  0  0  1  0  0  0  0  0999 V2000
  191.4000  173.8850  145.1820 O   0  0  0  0  0  0  0  0  0  0  0  0
  189.5480  174.2420  141.0150 C   0  0  0  0  0  0  0  0  0  0  0  0
  189.8890  177.3140  143.3400 C   0  0  0  0  0  2  0  0  0  0  0  0
  191.6510  172.9080  140.9460 C   0  0  0  0  0  2  0  0  0  0  0  0
  189.8280  174.7250  142.4270 C   0  0  2  0  0  3  0  0  0  0  0  0
  190.3050  173.3210  140.4280 C   0  0  0  0  0  0  0  0  0  0  0  0
  189.1450  176.0710  142.7900 C   0  0  1  0  0  3  0  0  0  0  0  0
  189.8320  172.8590  139.1740 N   0  0  0  0  0  2  0  0  0  0  0  0
  191.7840  173.1020  142.4590 C   0  0  2  0  0  3  0  0  0  0  0  0
  187.8780  175.7660  140.1020 C   0  0  0  0  0  2  0  0  0  0  0  0
  188.1920  173.4210  138.8290 S   0  0  0  0  0  0  0  0  0  0  0  0
  191.3660  177.1950  143.6990 C   0  0  0  0  0  2  0  0  0  0  0  0
  188.3420  174.5310  140.2240 C   0  0  0  0  0  0  0  0  0  0  0  0
  191.2870  174.5030  142.8560 C   0  0  2  0  0  3  0  0  0  0  0  0
  191.5680  176.1700  144.7160 N   0  0  0  0  0  0  0  0  0  0  0  0
  191.4460  174.8030  144.3190 C   0  0  0  0  0  0  0  0  0  0  0  0
  187.7920  175.8380  143.4670 C   0  0  2  0  0  3  0  0  0  0  0  0
  187.0330  174.8970  142.7630 O   0  0  0  0  0  1  0  0  0  0  0  0
  186.6260  177.8640  142.5830 C   0  0  0  0  0  3  0  0  0  0  0  0
  187.0190  177.1030  143.6880 C   0  0  0  0  0  0  0  0  0  0  0  0
  186.6600  177.5190  144.9790 C   0  0  0  0  0  3  0  0  0  0  0  0
  185.5990  179.1050  146.4060 F   0  0  0  0  0  0  0  0  0  0  0  0
  185.5450  179.4580  144.0510 C   0  0  0  0  0  3  0  0  0  0  0  0
  185.9290  178.6980  145.1580 C   0  0  0  0  0  0  0  0  0  0  0  0
  185.8920  179.0410  142.7640 C   0  0  0  0  0  3  0  0  0  0  0  0
  193.2510  172.9330  142.8390 C   0  0  0  0  0  2  0  0  0  0  0  0
  194.1080  173.9980  142.1710 C   0  0  0  0  0  2  0  0  0  0  0  0
  194.9610  174.6410  143.1570 N   0  0  0  0  0  2  0  0  0  0  0  0
  195.0820  176.0390  142.7740 C   0  0  0  0  0  2  0  0  0  0  0  0
  196.7600  176.6250  143.1390 S   0  0  0  0  0  1  0  0  0  0  0  0
  192.0940  176.5060  146.0380 C   0  0  1  0  0  3  0  0  0  0  0  0
  189.5320  176.2660  146.7320 C   0  0  0  0  0  1  0  0  0  0  0  0
  191.3000  176.9610  148.4360 C   0  0  0  0  0  2  0  0  0  0  0  0
  190.9990  176.4090  147.1010 C   0  0  2  0  0  0  0  0  0  0  0  0
  191.3560  175.5750  148.1720 O   0  0  0  0  0  0  0  0  0  0  0  0
  193.3110  175.6480  146.3770 C   0  0  0  0  0  2  0  0  0  0  0  0
  194.5670  176.4890  146.3630 C   0  0  0  0  0  1  0  0  0  0  0  0
  3 12  1  0  0  0  0
  4  9  1  0  0  0  0
  5  2  1  6  0  0  0
  5  7  1  0  0  0  0
  5 14  1  0  0  0  0
  6  4  1  0  0  0  0
  6  2  2  0  0  0  0
  7  3  1  0  0  0  0
  7 17  1  1  0  0  0
  8  6  1  0  0  0  0
  9 26  1  6  0  0  0
  9 14  1  0  0  0  0
 10 13  2  0  0  0  0
 11  8  1  0  0  0  0
 11 13  1  0  0  0  0
 12 15  1  0  0  0  0
 13  2  1  0  0  0  0
 14 16  1  1  0  0  0
 15 31  1  0  0  0  0
 16 15  1  0  0  0  0
 16  1  2  0  0  0  0
 17 18  1  6  0  0  0
 17 20  1  0  0  0  0
 19 25  2  0  0  0  0
 19 20  1  0  0  0  0
 20 21  2  0  0  0  0
 21 24  1  0  0  0  0
 23 24  2  0  0  0  0
 24 22  1  0  0  0  0
 25 23  1  0  0  0  0
 27 26  1  0  0  0  0
 27 28  1  0  0  0  0
 29 30  1  0  0  0  0
 29 28  1  0  0  0  0
 31 36  1  1  0  0  0
 31 34  1  0  0  0  0
 34 32  1  6  0  0  0
 34 35  1  0  0  0  0
 34 33  1  0  0  0  0
 35 33  1  0  0  0  0
 37 36  1  0  0  0  0
M  END
>  <MODEL>
9

>  <REMARK>
 VINA RESULT:      -5.6      3.127      5.877
  Name = 
  9 active torsions:
  status: ('A' for Active; 'I' for Inactive)
    1  A    between atoms: C_3  and  N_21
    2  A    between atoms: C_6  and  C_31
    3  A    between atoms: C_11  and  C_26
    4  A    between atoms: C_14  and  C_31
    5  A    between atoms: C_17  and  C_26
    6  A    between atoms: C_20  and  C_25
    7  A    between atoms: N_21  and  C_30
    8  A    between atoms: C_25  and  C_30
    9  A    between atoms: C_26  and  N_33
                            x       y       z     vdW  Elec       q    Type
                         _______ _______ _______ _____ _____    ______ ____

>  <TORSDO>
F 9

$$$$
