=
 OpenBabel11052417063D

 30 35  0  0  1  0  0  0  0  0999 V2000
  188.3840  175.6360  146.1130 C   0  0  0  0  0  2  0  0  0  0  0  0
  186.0790  178.1300  141.6000 N   0  0  0  0  0  2  0  0  0  0  0  0
  188.7020  176.3770  144.8800 N   0  0  0  0  0  0  0  0  0  0  0  0
  189.6350  175.0600  146.7740 C   0  0  0  0  0  2  0  0  0  0  0  0
  192.4830  176.8250  145.3330 C   0  0  0  0  0  2  0  0  0  0  0  0
  189.3860  174.5480  142.9610 C   0  0  1  0  0  3  0  0  0  0  0  0
  190.9820  176.9140  145.6140 C   0  0  2  0  0  3  0  0  0  0  0  0
  191.9630  175.5410  147.3230 N   0  0  0  0  0  2  0  0  0  0  0  0
  188.8170  175.5590  141.9790 C   0  0  1  0  0  3  0  0  0  0  0  0
  187.3930  177.5950  141.6510 C   0  0  0  0  0  0  0  0  0  0  0  0
  190.7030  176.1390  146.9270 C   0  0  2  0  0  3  0  0  0  0  0  0
  190.0920  176.4850  144.4270 C   0  0  1  0  0  3  0  0  0  0  0  0
  188.2990  174.6140  140.5480 S   0  0  0  0  0  0  0  0  0  0  0  0
  189.7970  173.3600  142.3250 O   0  0  0  0  0  0  0  0  0  0  0  0
  194.1820  175.5320  146.5000 N   0  0  0  0  0  2  0  0  0  0  0  0
  185.0800  177.5750  142.4920 C   0  0  2  0  0  3  0  0  0  0  0  0
  183.7280  178.1740  142.1680 C   0  0  0  0  0  1  0  0  0  0  0  0
  192.9750  175.9840  146.4420 C   0  0  0  0  0  0  0  0  0  0  0  0
  187.6260  176.7950  144.0080 C   0  0  0  0  0  0  0  0  0  0  0  0
  188.3250  178.1520  141.0120 O   0  0  0  0  0  0  0  0  0  0  0  0
  187.6470  176.4030  142.5280 C   0  0  2  0  0  3  0  0  0  0  0  0
  189.7090  173.5560  140.9370 C   0  0  0  0  0  2  0  0  0  0  0  0
  191.6300  175.3990  142.9280 O   0  0  0  0  0  1  0  0  0  0  0  0
  185.4200  177.8820  143.8410 O   0  0  0  0  0  0  0  0  0  0  0  0
  186.5830  177.4960  144.5450 C   0  0  0  0  0  0  0  0  0  0  0  0
  190.5340  175.1670  143.7630 C   0  0  2  0  0  3  0  0  0  0  0  0
  186.6690  177.9040  145.9140 N   0  0  0  0  0  2  0  0  0  0  0  0
  186.1360  179.1240  147.9340 C   0  0  0  0  0  2  0  0  0  0  0  0
  185.8520  178.9770  146.4540 C   0  0  0  0  0  3  0  0  0  0  0  0
  184.8890  178.4030  147.4720 C   0  0  0  0  0  2  0  0  0  0  0  0
  1  4  1  0  0  0  0
  2 10  1  0  0  0  0
  2 16  1  0  0  0  0
  3  1  1  0  0  0  0
  5 18  1  0  0  0  0
  6 14  1  6  0  0  0
  6 26  1  0  0  0  0
  7  5  1  6  0  0  0
  7 11  1  0  0  0  0
  9 13  1  6  0  0  0
  9 21  1  0  0  0  0
  9  6  1  0  0  0  0
 11  4  1  6  0  0  0
 11  8  1  0  0  0  0
 12  3  1  1  0  0  0
 12  7  1  0  0  0  0
 13 22  1  0  0  0  0
 16 17  1  6  0  0  0
 16 24  1  0  0  0  0
 18 15  2  0  0  0  0
 18  8  1  0  0  0  0
 19 25  2  0  0  0  0
 19  3  1  0  0  0  0
 20 10  2  0  0  0  0
 21 10  1  6  0  0  0
 21 19  1  0  0  0  0
 22 14  1  0  0  0  0
 24 25  1  0  0  0  0
 25 27  1  0  0  0  0
 26 23  1  6  0  0  0
 26 12  1  0  0  0  0
 27 29  1  0  0  0  0
 29 30  1  0  0  0  0
 29 28  1  0  0  0  0
 30 28  1  0  0  0  0
M  END
>  <MODEL>
1

>  <REMARK>
 VINA RESULT:      -8.4      0.000      0.000
  Name = 
  2 active torsions:
  status: ('A' for Active; 'I' for Inactive)
    1  A    between atoms: C_14  and  N_22
    2  A    between atoms: N_22  and  C_29
                            x       y       z     vdW  Elec       q    Type
                         _______ _______ _______ _____ _____    ______ ____

>  <TORSDO>
F 2

$$$$
=
 OpenBabel11052417063D

 30 35  0  0  1  0  0  0  0  0999 V2000
  189.0360  177.7190  143.5830 C   0  0  0  0  0  2  0  0  0  0  0  0
  191.8310  176.1990  148.2490 N   0  0  0  0  0  2  0  0  0  0  0  0
  189.7240  176.5910  144.2350 N   0  0  0  0  0  0  0  0  0  0  0  0
  188.6860  177.4130  142.1270 C   0  0  0  0  0  2  0  0  0  0  0  0
  188.9240  173.7930  141.7370 C   0  0  0  0  0  2  0  0  0  0  0  0
  192.2600  176.4570  143.2130 C   0  0  1  0  0  3  0  0  0  0  0  0
  188.7090  174.9200  142.7490 C   0  0  2  0  0  3  0  0  0  0  0  0
  187.8570  175.6710  140.6330 N   0  0  0  0  0  2  0  0  0  0  0  0
  192.6400  175.8990  144.5740 C   0  0  1  0  0  3  0  0  0  0  0  0
  191.9870  175.5950  146.9740 C   0  0  0  0  0  0  0  0  0  0  0  0
  187.9670  176.0710  142.0220 C   0  0  2  0  0  3  0  0  0  0  0  0
  189.9950  175.3630  143.4810 C   0  0  1  0  0  3  0  0  0  0  0  0
  194.3750  176.2880  144.7960 S   0  0  0  0  0  0  0  0  0  0  0  0
  193.3790  176.6240  142.3740 O   0  0  0  0  0  0  0  0  0  0  0  0
  188.4670  173.7800  139.3470 N   0  0  0  0  0  2  0  0  0  0  0  0
  191.3810  177.5770  148.3020 C   0  0  2  0  0  3  0  0  0  0  0  0
  191.4320  178.0690  149.7320 C   0  0  0  0  0  1  0  0  0  0  0  0
  188.3540  174.3550  140.4970 C   0  0  0  0  0  0  0  0  0  0  0  0
  190.3260  176.7860  145.5350 C   0  0  0  0  0  0  0  0  0  0  0  0
  192.2200  174.3600  146.8880 O   0  0  0  0  0  0  0  0  0  0  0  0
  191.8040  176.4450  145.7510 C   0  0  2  0  0  3  0  0  0  0  0  0
  194.4920  176.0500  143.0110 C   0  0  0  0  0  2  0  0  0  0  0  0
  191.7580  174.3390  142.2020 O   0  0  0  0  0  1  0  0  0  0  0  0
  190.0420  177.6600  147.8220 O   0  0  0  0  0  0  0  0  0  0  0  0
  189.5650  177.3210  146.5360 C   0  0  0  0  0  0  0  0  0  0  0  0
  191.2010  175.5740  142.5470 C   0  0  2  0  0  3  0  0  0  0  0  0
  188.1710  177.5340  146.2920 N   0  0  0  0  0  2  0  0  0  0  0  0
  185.9430  176.7350  145.7890 C   0  0  0  0  0  2  0  0  0  0  0  0
  187.1620  176.5580  146.6700 C   0  0  0  0  0  3  0  0  0  0  0  0
  185.9440  177.2840  147.2000 C   0  0  0  0  0  2  0  0  0  0  0  0
  1  3  1  0  0  0  0
  2 16  1  0  0  0  0
  3 19  1  0  0  0  0
  4  1  1  0  0  0  0
  6 14  1  6  0  0  0
  6  9  1  0  0  0  0
  7  5  1  6  0  0  0
  7 12  1  0  0  0  0
  8 11  1  0  0  0  0
  9 13  1  1  0  0  0
  9 21  1  0  0  0  0
 10  2  1  0  0  0  0
 11  4  1  6  0  0  0
 11  7  1  0  0  0  0
 12  3  1  6  0  0  0
 14 22  1  0  0  0  0
 15 18  2  0  0  0  0
 16 17  1  1  0  0  0
 18  8  1  0  0  0  0
 18  5  1  0  0  0  0
 19 25  2  0  0  0  0
 20 10  2  0  0  0  0
 21 19  1  6  0  0  0
 21 10  1  0  0  0  0
 22 13  1  0  0  0  0
 24 16  1  0  0  0  0
 25 24  1  0  0  0  0
 26 23  1  1  0  0  0
 26  6  1  0  0  0  0
 26 12  1  0  0  0  0
 27 25  1  0  0  0  0
 27 29  1  0  0  0  0
 28 29  1  0  0  0  0
 28 30  1  0  0  0  0
 29 30  1  0  0  0  0
M  END
>  <MODEL>
2

>  <REMARK>
 VINA RESULT:      -7.8      2.705      5.731
  Name = 
  2 active torsions:
  status: ('A' for Active; 'I' for Inactive)
    1  A    between atoms: C_14  and  N_22
    2  A    between atoms: N_22  and  C_29
                            x       y       z     vdW  Elec       q    Type
                         _______ _______ _______ _____ _____    ______ ____

>  <TORSDO>
F 2

$$$$
=
 OpenBabel11052417063D

 30 35  0  0  1  0  0  0  0  0999 V2000
  188.8900  175.7170  142.0590 C   0  0  0  0  0  2  0  0  0  0  0  0
  187.4210  176.6430  147.4330 N   0  0  0  0  0  2  0  0  0  0  0  0
  188.8240  175.0920  143.3910 N   0  0  0  0  0  0  0  0  0  0  0  0
  189.6550  174.8530  141.0570 C   0  0  0  0  0  2  0  0  0  0  0  0
  189.8270  171.5030  142.4900 C   0  0  0  0  0  2  0  0  0  0  0  0
  191.3150  175.2570  144.5130 C   0  0  1  0  0  3  0  0  0  0  0  0
  189.0430  172.8160  142.4980 C   0  0  2  0  0  3  0  0  0  0  0  0
  190.0050  172.5570  140.3130 N   0  0  0  0  0  2  0  0  0  0  0  0
  190.5730  175.3140  145.8380 C   0  0  1  0  0  3  0  0  0  0  0  0
  188.3900  175.6980  147.0060 C   0  0  0  0  0  0  0  0  0  0  0  0
  189.1250  173.4220  141.0730 C   0  0  2  0  0  3  0  0  0  0  0  0
  189.4570  173.7900  143.6220 C   0  0  1  0  0  3  0  0  0  0  0  0
  191.6600  176.1770  146.9720 S   0  0  0  0  0  0  0  0  0  0  0  0
  192.7080  175.4010  144.6750 O   0  0  0  0  0  0  0  0  0  0  0  0
  191.2030  170.5570  140.7200 N   0  0  0  0  0  2  0  0  0  0  0  0
  187.1710  177.7950  146.5880 C   0  0  2  0  0  3  0  0  0  0  0  0
  186.2280  178.7440  147.2960 C   0  0  0  0  0  1  0  0  0  0  0  0
  190.3510  171.4430  141.1110 C   0  0  0  0  0  0  0  0  0  0  0  0
  188.3370  175.8660  144.5120 C   0  0  0  0  0  0  0  0  0  0  0  0
  188.5220  174.6090  147.6250 O   0  0  0  0  0  0  0  0  0  0  0  0
  189.1940  176.0020  145.7740 C   0  0  2  0  0  3  0  0  0  0  0  0
  192.9910  175.3780  146.0510 C   0  0  0  0  0  2  0  0  0  0  0  0
  191.5230  172.8670  144.4420 O   0  0  0  0  0  1  0  0  0  0  0  0
  186.5800  177.3700  145.3630 O   0  0  0  0  0  0  0  0  0  0  0  0
  187.1340  176.5030  144.3950 C   0  0  0  0  0  0  0  0  0  0  0  0
  190.9810  173.9630  143.7650 C   0  0  2  0  0  3  0  0  0  0  0  0
  186.3470  176.2620  143.2240 N   0  0  0  0  0  2  0  0  0  0  0  0
  185.8640  177.4860  141.1940 C   0  0  0  0  0  2  0  0  0  0  0  0
  185.4880  177.2810  142.6460 C   0  0  0  0  0  3  0  0  0  0  0  0
  186.3320  178.4710  142.2430 C   0  0  0  0  0  2  0  0  0  0  0  0
  1  3  1  0  0  0  0
  3 19  1  0  0  0  0
  4  1  1  0  0  0  0
  6 14  1  1  0  0  0
  6  9  1  0  0  0  0
  7  5  1  6  0  0  0
  7 12  1  0  0  0  0
  8 11  1  0  0  0  0
  8 18  1  0  0  0  0
  9 13  1  1  0  0  0
 10  2  1  0  0  0  0
 10 20  2  0  0  0  0
 11  4  1  1  0  0  0
 11  7  1  0  0  0  0
 12  3  1  6  0  0  0
 12 26  1  0  0  0  0
 14 22  1  0  0  0  0
 15 18  2  0  0  0  0
 16 17  1  1  0  0  0
 16  2  1  0  0  0  0
 18  5  1  0  0  0  0
 21 19  1  6  0  0  0
 21  9  1  0  0  0  0
 21 10  1  0  0  0  0
 22 13  1  0  0  0  0
 24 16  1  0  0  0  0
 25 19  2  0  0  0  0
 25 24  1  0  0  0  0
 26 23  1  1  0  0  0
 26  6  1  0  0  0  0
 27 25  1  0  0  0  0
 28 30  1  0  0  0  0
 28 29  1  0  0  0  0
 29 27  1  0  0  0  0
 30 29  1  0  0  0  0
M  END
>  <MODEL>
3

>  <REMARK>
 VINA RESULT:      -7.4      2.868      5.227
  Name = 
  2 active torsions:
  status: ('A' for Active; 'I' for Inactive)
    1  A    between atoms: C_14  and  N_22
    2  A    between atoms: N_22  and  C_29
                            x       y       z     vdW  Elec       q    Type
                         _______ _______ _______ _____ _____    ______ ____

>  <TORSDO>
F 2

$$$$
=
 OpenBabel11052417063D

 30 35  0  0  1  0  0  0  0  0999 V2000
  189.9720  176.8090  145.0430 C   0  0  0  0  0  2  0  0  0  0  0  0
  189.3990  172.4850  141.4560 N   0  0  0  0  0  2  0  0  0  0  0  0
  188.9930  175.8700  144.4700 N   0  0  0  0  0  0  0  0  0  0  0  0
  189.3000  177.9180  145.8500 C   0  0  0  0  0  2  0  0  0  0  0  0
  185.9040  176.7830  146.5510 C   0  0  0  0  0  2  0  0  0  0  0  0
  187.7040  177.1540  142.4250 C   0  0  1  0  0  3  0  0  0  0  0  0
  187.3220  176.3190  146.2120 C   0  0  2  0  0  3  0  0  0  0  0  0
  187.5040  178.3760  147.4370 N   0  0  0  0  0  2  0  0  0  0  0  0
  187.5750  175.7700  141.8100 C   0  0  1  0  0  3  0  0  0  0  0  0
  188.3660  173.3930  141.8070 C   0  0  0  0  0  0  0  0  0  0  0  0
  188.3120  177.3250  146.8520 C   0  0  2  0  0  3  0  0  0  0  0  0
  187.5600  176.0700  144.7060 C   0  0  1  0  0  3  0  0  0  0  0  0
  187.4410  176.0300  140.0420 S   0  0  0  0  0  0  0  0  0  0  0  0
  187.1960  178.1620  141.5810 O   0  0  0  0  0  0  0  0  0  0  0  0
  185.1910  178.8300  147.6560 N   0  0  0  0  0  2  0  0  0  0  0  0
  190.7720  172.9410  141.5520 C   0  0  2  0  0  3  0  0  0  0  0  0
  191.6950  171.8820  140.9890 C   0  0  0  0  0  1  0  0  0  0  0  0
  186.1400  178.0280  147.3080 C   0  0  0  0  0  0  0  0  0  0  0  0
  189.4330  174.8950  143.4960 C   0  0  0  0  0  0  0  0  0  0  0  0
  187.1760  172.9890  141.8910 O   0  0  0  0  0  0  0  0  0  0  0  0
  188.7380  174.8100  142.1340 C   0  0  2  0  0  3  0  0  0  0  0  0
  186.5620  177.5410  140.4920 C   0  0  0  0  0  2  0  0  0  0  0  0
  185.6440  177.0780  143.6540 O   0  0  0  0  0  1  0  0  0  0  0  0
  191.1030  173.1770  142.9170 O   0  0  0  0  0  0  0  0  0  0  0  0
  190.5010  174.1000  143.8030 C   0  0  0  0  0  0  0  0  0  0  0  0
  187.0290  177.1960  143.7990 C   0  0  2  0  0  3  0  0  0  0  0  0
  191.0460  174.1700  145.1240 N   0  0  0  0  0  2  0  0  0  0  0  0
  192.9100  174.9160  146.4750 C   0  0  0  0  0  2  0  0  0  0  0  0
  192.4590  173.9610  145.3900 C   0  0  0  0  0  3  0  0  0  0  0  0
  193.2250  175.2150  145.0250 C   0  0  0  0  0  2  0  0  0  0  0  0
  1  4  1  0  0  0  0
  2 16  1  0  0  0  0
  2 10  1  0  0  0  0
  3  1  1  0  0  0  0
  5 18  1  0  0  0  0
  6 14  1  6  0  0  0
  6 26  1  0  0  0  0
  7  5  1  6  0  0  0
  7 11  1  0  0  0  0
  9 13  1  6  0  0  0
  9 21  1  0  0  0  0
  9  6  1  0  0  0  0
 10 20  2  0  0  0  0
 11  4  1  6  0  0  0
 11  8  1  0  0  0  0
 12  3  1  1  0  0  0
 12  7  1  0  0  0  0
 13 22  1  0  0  0  0
 16 17  1  1  0  0  0
 16 24  1  0  0  0  0
 18  8  1  0  0  0  0
 18 15  2  0  0  0  0
 19 25  2  0  0  0  0
 19  3  1  0  0  0  0
 21 10  1  1  0  0  0
 21 19  1  0  0  0  0
 22 14  1  0  0  0  0
 24 25  1  0  0  0  0
 25 27  1  0  0  0  0
 26 23  1  6  0  0  0
 26 12  1  0  0  0  0
 27 29  1  0  0  0  0
 29 28  1  0  0  0  0
 30 29  1  0  0  0  0
 30 28  1  0  0  0  0
M  END
>  <MODEL>
4

>  <REMARK>
 VINA RESULT:      -7.2      1.886      5.729
  Name = 
  2 active torsions:
  status: ('A' for Active; 'I' for Inactive)
    1  A    between atoms: C_14  and  N_22
    2  A    between atoms: N_22  and  C_29
                            x       y       z     vdW  Elec       q    Type
                         _______ _______ _______ _____ _____    ______ ____

>  <TORSDO>
F 2

$$$$
=
 OpenBabel11052417063D

 30 35  0  0  1  0  0  0  0  0999 V2000
  190.3920  177.2160  143.1320 C   0  0  0  0  0  2  0  0  0  0  0  0
  192.4560  172.2590  144.8830 N   0  0  0  0  0  2  0  0  0  0  0  0
  190.0100  175.8500  143.5300 N   0  0  0  0  0  0  0  0  0  0  0  0
  189.2170  177.9910  142.5390 C   0  0  0  0  0  2  0  0  0  0  0  0
  186.1910  176.1980  143.5090 C   0  0  0  0  0  2  0  0  0  0  0  0
  189.6550  174.3870  141.2440 C   0  0  1  0  0  3  0  0  0  0  0  0
  187.6550  176.4500  143.8760 C   0  0  2  0  0  3  0  0  0  0  0  0
  186.8280  178.4230  142.7840 N   0  0  0  0  0  2  0  0  0  0  0  0
  190.1030  173.2040  142.0860 C   0  0  1  0  0  3  0  0  0  0  0  0
  191.2310  172.4300  144.1850 C   0  0  0  0  0  0  0  0  0  0  0  0
  188.0010  177.9020  143.4580 C   0  0  2  0  0  3  0  0  0  0  0  0
  188.6330  175.3870  143.3310 C   0  0  1  0  0  3  0  0  0  0  0  0
  190.7950  172.0180  140.9350 S   0  0  0  0  0  0  0  0  0  0  0  0
  189.4370  174.0310  139.8980 O   0  0  0  0  0  0  0  0  0  0  0  0
  184.6600  177.6260  142.2700 N   0  0  0  0  0  2  0  0  0  0  0  0
  193.4960  173.2510  144.6900 C   0  0  2  0  0  3  0  0  0  0  0  0
  194.7580  172.8000  145.3940 C   0  0  0  0  0  1  0  0  0  0  0  0
  185.7910  177.4670  142.8690 C   0  0  0  0  0  0  0  0  0  0  0  0
  191.0420  174.9060  143.8980 C   0  0  0  0  0  0  0  0  0  0  0  0
  190.2500  171.6850  144.4460 O   0  0  0  0  0  0  0  0  0  0  0  0
  191.1230  173.5500  143.1910 C   0  0  2  0  0  3  0  0  0  0  0  0
  189.5400  172.6340  139.7940 C   0  0  0  0  0  2  0  0  0  0  0  0
  187.3140  174.1690  141.7290 O   0  0  0  0  0  1  0  0  0  0  0  0
  193.0740  174.4980  145.2320 O   0  0  0  0  0  0  0  0  0  0  0  0
  191.9570  175.2720  144.8450 C   0  0  0  0  0  0  0  0  0  0  0  0
  188.4050  175.0330  141.8490 C   0  0  2  0  0  3  0  0  0  0  0  0
  191.7700  176.5160  145.5270 N   0  0  0  0  0  2  0  0  0  0  0  0
  191.5870  176.7120  147.9320 C   0  0  0  0  0  2  0  0  0  0  0  0
  190.8280  176.6640  146.6230 C   0  0  0  0  0  3  0  0  0  0  0  0
  190.8960  175.4350  147.5050 C   0  0  0  0  0  2  0  0  0  0  0  0
  1  3  1  0  0  0  0
  3 19  1  0  0  0  0
  4  1  1  0  0  0  0
  6 14  1  6  0  0  0
  6 26  1  0  0  0  0
  6  9  1  0  0  0  0
  7  5  1  6  0  0  0
  8 18  1  0  0  0  0
  8 11  1  0  0  0  0
  9 13  1  6  0  0  0
  9 21  1  0  0  0  0
 10 20  2  0  0  0  0
 10  2  1  0  0  0  0
 11  4  1  6  0  0  0
 11  7  1  0  0  0  0
 12  3  1  6  0  0  0
 12  7  1  0  0  0  0
 15 18  2  0  0  0  0
 16  2  1  0  0  0  0
 16 24  1  0  0  0  0
 16 17  1  1  0  0  0
 18  5  1  0  0  0  0
 19 25  2  0  0  0  0
 21 19  1  1  0  0  0
 21 10  1  0  0  0  0
 22 14  1  0  0  0  0
 22 13  1  0  0  0  0
 25 24  1  0  0  0  0
 25 27  1  0  0  0  0
 26 23  1  1  0  0  0
 26 12  1  0  0  0  0
 27 29  1  0  0  0  0
 29 30  1  0  0  0  0
 29 28  1  0  0  0  0
 30 28  1  0  0  0  0
M  END
>  <MODEL>
5

>  <REMARK>
 VINA RESULT:      -6.9      2.540      6.202
  Name = 
  2 active torsions:
  status: ('A' for Active; 'I' for Inactive)
    1  A    between atoms: C_14  and  N_22
    2  A    between atoms: N_22  and  C_29
                            x       y       z     vdW  Elec       q    Type
                         _______ _______ _______ _____ _____    ______ ____

>  <TORSDO>
F 2

$$$$
=
 OpenBabel11052417063D

 30 35  0  0  1  0  0  0  0  0999 V2000
  188.7920  176.1150  142.7920 C   0  0  0  0  0  2  0  0  0  0  0  0
  191.1270  176.6910  147.9020 N   0  0  0  0  0  2  0  0  0  0  0  0
  189.6410  175.4380  143.7870 N   0  0  0  0  0  0  0  0  0  0  0  0
  188.7650  175.3700  141.4580 C   0  0  0  0  0  2  0  0  0  0  0  0
  190.0010  172.0020  142.1230 C   0  0  0  0  0  2  0  0  0  0  0  0
  192.2510  175.8090  143.0470 C   0  0  1  0  0  3  0  0  0  0  0  0
  189.3440  173.2300  142.7570 C   0  0  2  0  0  3  0  0  0  0  0  0
  188.6650  173.1480  140.4550 N   0  0  0  0  0  2  0  0  0  0  0  0
  192.5470  175.7420  144.5360 C   0  0  1  0  0  3  0  0  0  0  0  0
  191.6320  175.8630  146.8650 C   0  0  0  0  0  0  0  0  0  0  0  0
  188.4480  173.8930  141.6800 C   0  0  2  0  0  3  0  0  0  0  0  0
  190.3380  174.1980  143.4340 C   0  0  1  0  0  3  0  0  0  0  0  0
  194.0630  176.6670  144.7750 S   0  0  0  0  0  0  0  0  0  0  0  0
  193.4040  176.0850  142.2850 O   0  0  0  0  0  0  0  0  0  0  0  0
  189.9410  171.2640  139.8050 N   0  0  0  0  0  2  0  0  0  0  0  0
  190.3290  177.8430  147.5300 C   0  0  2  0  0  3  0  0  0  0  0  0
  190.0260  178.6660  148.7630 C   0  0  0  0  0  1  0  0  0  0  0  0
  189.5040  172.0460  140.7340 C   0  0  0  0  0  0  0  0  0  0  0  0
  189.9620  176.1180  145.0230 C   0  0  0  0  0  0  0  0  0  0  0  0
  192.1910  174.7710  147.1490 O   0  0  0  0  0  0  0  0  0  0  0  0
  191.4250  176.2910  145.4410 C   0  0  2  0  0  3  0  0  0  0  0  0
  194.5140  176.0400  143.1440 C   0  0  0  0  0  2  0  0  0  0  0  0
  192.4850  173.4550  142.6370 O   0  0  0  0  0  1  0  0  0  0  0  0
  189.1060  177.4070  146.9420 O   0  0  0  0  0  0  0  0  0  0  0  0
  188.9400  176.6350  145.7700 C   0  0  0  0  0  0  0  0  0  0  0  0
  191.5780  174.5160  142.5750 C   0  0  2  0  0  3  0  0  0  0  0  0
  187.5950  176.3600  145.3670 N   0  0  0  0  0  2  0  0  0  0  0  0
  185.5440  177.2740  144.4650 C   0  0  0  0  0  2  0  0  0  0  0  0
  186.5040  177.2810  145.6360 C   0  0  0  0  0  3  0  0  0  0  0  0
  186.5390  178.4040  144.6220 C   0  0  0  0  0  2  0  0  0  0  0  0
  1  3  1  0  0  0  0
  3 19  1  0  0  0  0
  4  1  1  0  0  0  0
  6 14  1  6  0  0  0
  6  9  1  0  0  0  0
  7  5  1  6  0  0  0
  7 12  1  0  0  0  0
  8 18  1  0  0  0  0
  8 11  1  0  0  0  0
  9 13  1  6  0  0  0
  9 21  1  0  0  0  0
 10 20  2  0  0  0  0
 10  2  1  0  0  0  0
 11  4  1  6  0  0  0
 11  7  1  0  0  0  0
 12  3  1  6  0  0  0
 14 22  1  0  0  0  0
 15 18  2  0  0  0  0
 16  2  1  0  0  0  0
 16 17  1  1  0  0  0
 18  5  1  0  0  0  0
 19 25  2  0  0  0  0
 21 19  1  6  0  0  0
 21 10  1  0  0  0  0
 22 13  1  0  0  0  0
 24 16  1  0  0  0  0
 25 24  1  0  0  0  0
 26 23  1  1  0  0  0
 26  6  1  0  0  0  0
 26 12  1  0  0  0  0
 27 29  1  0  0  0  0
 27 25  1  0  0  0  0
 28 30  1  0  0  0  0
 28 29  1  0  0  0  0
 30 29  1  0  0  0  0
M  END
>  <MODEL>
6

>  <REMARK>
 VINA RESULT:      -6.7      2.871      5.523
  Name = 
  2 active torsions:
  status: ('A' for Active; 'I' for Inactive)
    1  A    between atoms: C_14  and  N_22
    2  A    between atoms: N_22  and  C_29
                            x       y       z     vdW  Elec       q    Type
                         _______ _______ _______ _____ _____    ______ ____

>  <TORSDO>
F 2

$$$$
=
 OpenBabel11052417063D

 30 35  0  0  1  0  0  0  0  0999 V2000
  188.8620  174.2000  142.2970 C   0  0  0  0  0  2  0  0  0  0  0  0
  194.3890  174.5520  143.4030 N   0  0  0  0  0  2  0  0  0  0  0  0
  189.9370  175.1380  142.6640 N   0  0  0  0  0  0  0  0  0  0  0  0
  187.4810  174.8470  142.3880 C   0  0  0  0  0  2  0  0  0  0  0  0
  188.0220  178.4540  142.4640 C   0  0  0  0  0  2  0  0  0  0  0  0
  189.8270  175.5090  145.3750 C   0  0  1  0  0  3  0  0  0  0  0  0
  188.6290  177.1180  142.0330 C   0  0  2  0  0  3  0  0  0  0  0  0
  186.2400  176.8970  141.9300 N   0  0  0  0  0  2  0  0  0  0  0  0
  191.3280  175.7240  145.2760 C   0  0  1  0  0  3  0  0  0  0  0  0
  193.4020  175.4440  143.8980 C   0  0  0  0  0  0  0  0  0  0  0  0
  187.4630  176.1760  141.6380 C   0  0  2  0  0  3  0  0  0  0  0  0
  189.6090  176.5100  143.0610 C   0  0  1  0  0  3  0  0  0  0  0  0
  191.9920  175.2910  146.8830 S   0  0  0  0  0  0  0  0  0  0  0  0
  189.3700  175.5470  146.7070 O   0  0  0  0  0  0  0  0  0  0  0  0
  185.6800  179.0410  142.7630 N   0  0  0  0  0  2  0  0  0  0  0  0
  193.9810  173.2030  143.0620 C   0  0  2  0  0  3  0  0  0  0  0  0
  195.2030  172.3820  142.7080 C   0  0  0  0  0  1  0  0  0  0  0  0
  186.5710  178.2070  142.3450 C   0  0  0  0  0  0  0  0  0  0  0  0
  191.2800  174.6350  142.8520 C   0  0  0  0  0  0  0  0  0  0  0  0
  193.6780  176.6630  144.0530 O   0  0  0  0  0  0  0  0  0  0  0  0
  192.0230  174.9130  144.1620 C   0  0  2  0  0  3  0  0  0  0  0  0
  190.4390  175.9500  147.5240 C   0  0  0  0  0  2  0  0  0  0  0  0
  189.2210  177.8090  145.0510 O   0  0  0  0  0  1  0  0  0  0  0  0
  193.0980  173.2390  141.9450 O   0  0  0  0  0  0  0  0  0  0  0  0
  191.8400  173.8770  141.8620 C   0  0  0  0  0  0  0  0  0  0  0  0
  189.0810  176.5280  144.5090 C   0  0  2  0  0  3  0  0  0  0  0  0
  191.1260  173.7310  140.6300 N   0  0  0  0  0  2  0  0  0  0  0  0
  189.8710  172.1760  139.2650 C   0  0  0  0  0  2  0  0  0  0  0  0
  191.2380  172.5380  139.8080 C   0  0  0  0  0  3  0  0  0  0  0  0
  190.4420  171.4200  140.4450 C   0  0  0  0  0  2  0  0  0  0  0  0
  1  4  1  0  0  0  0
  1  3  1  0  0  0  0
  2 10  1  0  0  0  0
  3 19  1  0  0  0  0
  6 14  1  1  0  0  0
  7  5  1  1  0  0  0
  7 12  1  0  0  0  0
  8 18  1  0  0  0  0
  9  6  1  0  0  0  0
  9 13  1  1  0  0  0
 10 20  2  0  0  0  0
 10 21  1  0  0  0  0
 11  8  1  0  0  0  0
 11  7  1  0  0  0  0
 11  4  1  1  0  0  0
 12  3  1  6  0  0  0
 12 26  1  0  0  0  0
 13 22  1  0  0  0  0
 14 22  1  0  0  0  0
 16 17  1  6  0  0  0
 16  2  1  0  0  0  0
 18  5  1  0  0  0  0
 18 15  2  0  0  0  0
 21 19  1  6  0  0  0
 21  9  1  0  0  0  0
 24 16  1  0  0  0  0
 25 24  1  0  0  0  0
 25 19  2  0  0  0  0
 26 23  1  1  0  0  0
 26  6  1  0  0  0  0
 27 25  1  0  0  0  0
 28 29  1  0  0  0  0
 28 30  1  0  0  0  0
 29 30  1  0  0  0  0
 29 27  1  0  0  0  0
M  END
>  <MODEL>
7

>  <REMARK>
 VINA RESULT:      -6.7      3.040      7.287
  Name = 
  2 active torsions:
  status: ('A' for Active; 'I' for Inactive)
    1  A    between atoms: C_14  and  N_22
    2  A    between atoms: N_22  and  C_29
                            x       y       z     vdW  Elec       q    Type
                         _______ _______ _______ _____ _____    ______ ____

>  <TORSDO>
F 2

$$$$
=
 OpenBabel11052417063D

 30 35  0  0  1  0  0  0  0  0999 V2000
  192.5460  175.4520  143.1140 C   0  0  0  0  0  2  0  0  0  0  0  0
  188.6470  172.6520  140.1390 N   0  0  0  0  0  2  0  0  0  0  0  0
  191.1900  174.8810  143.1840 N   0  0  0  0  0  0  0  0  0  0  0  0
  192.8720  176.3080  144.3370 C   0  0  0  0  0  2  0  0  0  0  0  0
  190.4300  175.4320  146.9020 C   0  0  0  0  0  2  0  0  0  0  0  0
  189.4070  176.9140  142.7590 C   0  0  1  0  0  3  0  0  0  0  0  0
  191.1330  174.9350  145.6380 C   0  0  2  0  0  3  0  0  0  0  0  0
  192.6330  176.4360  146.7620 N   0  0  0  0  0  2  0  0  0  0  0  0
  188.5180  175.8360  142.1610 C   0  0  1  0  0  3  0  0  0  0  0  0
  188.3720  173.5140  141.2320 C   0  0  0  0  0  0  0  0  0  0  0  0
  192.5580  175.5450  145.6210 C   0  0  2  0  0  3  0  0  0  0  0  0
  190.3330  175.1670  144.3380 C   0  0  1  0  0  3  0  0  0  0  0  0
  187.4410  176.6770  141.0020 S   0  0  0  0  0  0  0  0  0  0  0  0
  188.8350  178.1970  142.6500 O   0  0  0  0  0  0  0  0  0  0  0  0
  191.1930  177.0730  148.5280 N   0  0  0  0  0  2  0  0  0  0  0  0
  189.8610  172.8780  139.3790 C   0  0  2  0  0  3  0  0  0  0  0  0
  189.8820  171.9580  138.1770 C   0  0  0  0  0  1  0  0  0  0  0  0
  191.4400  176.3210  147.5100 C   0  0  0  0  0  0  0  0  0  0  0  0
  190.6340  174.2340  142.0160 C   0  0  0  0  0  0  0  0  0  0  0  0
  187.4170  173.2550  142.0130 O   0  0  0  0  0  0  0  0  0  0  0  0
  189.2780  174.6880  141.4660 C   0  0  2  0  0  3  0  0  0  0  0  0
  187.5240  178.0520  142.1680 C   0  0  0  0  0  2  0  0  0  0  0  0
  188.5950  176.6930  145.0070 O   0  0  0  0  0  1  0  0  0  0  0  0
  190.9950  172.6100  140.1980 O   0  0  0  0  0  0  0  0  0  0  0  0
  191.3630  173.2570  141.3990 C   0  0  0  0  0  0  0  0  0  0  0  0
  189.7420  176.5850  144.2170 C   0  0  2  0  0  3  0  0  0  0  0  0
  192.5790  172.8220  142.0160 N   0  0  0  0  0  2  0  0  0  0  0  0
  192.8440  171.8780  144.2280 C   0  0  0  0  0  2  0  0  0  0  0  0
  192.6680  171.5740  142.7550 C   0  0  0  0  0  3  0  0  0  0  0  0
  194.0370  171.4710  143.3910 C   0  0  0  0  0  2  0  0  0  0  0  0
  1  3  1  0  0  0  0
  1  4  1  0  0  0  0
  2 10  1  0  0  0  0
  5 18  1  0  0  0  0
  6 14  1  1  0  0  0
  6 26  1  0  0  0  0
  7  5  1  1  0  0  0
  8 18  1  0  0  0  0
  9 13  1  6  0  0  0
  9  6  1  0  0  0  0
 10 20  2  0  0  0  0
 11  4  1  6  0  0  0
 11  7  1  0  0  0  0
 11  8  1  0  0  0  0
 12  3  1  6  0  0  0
 12  7  1  0  0  0  0
 13 22  1  0  0  0  0
 16 17  1  6  0  0  0
 16  2  1  0  0  0  0
 16 24  1  0  0  0  0
 18 15  2  0  0  0  0
 19  3  1  0  0  0  0
 21 10  1  1  0  0  0
 21 19  1  0  0  0  0
 21  9  1  0  0  0  0
 22 14  1  0  0  0  0
 24 25  1  0  0  0  0
 25 27  1  0  0  0  0
 25 19  2  0  0  0  0
 26 12  1  0  0  0  0
 26 23  1  1  0  0  0
 27 29  1  0  0  0  0
 29 30  1  0  0  0  0
 29 28  1  0  0  0  0
 30 28  1  0  0  0  0
M  END
>  <MODEL>
8

>  <REMARK>
 VINA RESULT:      -6.6      2.978      5.788
  Name = 
  2 active torsions:
  status: ('A' for Active; 'I' for Inactive)
    1  A    between atoms: C_14  and  N_22
    2  A    between atoms: N_22  and  C_29
                            x       y       z     vdW  Elec       q    Type
                         _______ _______ _______ _____ _____    ______ ____

>  <TORSDO>
F 2

$$$$
=
 OpenBabel11052417063D

 30 35  0  0  1  0  0  0  0  0999 V2000
  191.7190  177.2800  143.6360 C   0  0  0  0  0  2  0  0  0  0  0  0
  194.6150  172.7410  141.9300 N   0  0  0  0  0  2  0  0  0  0  0  0
  191.7630  175.8090  143.7100 N   0  0  0  0  0  0  0  0  0  0  0  0
  190.4240  177.8440  144.2200 C   0  0  0  0  0  2  0  0  0  0  0  0
  188.9410  175.1850  146.2290 C   0  0  0  0  0  2  0  0  0  0  0  0
  190.0050  174.8290  141.8540 C   0  0  1  0  0  3  0  0  0  0  0  0
  190.2520  175.7110  145.6410 C   0  0  2  0  0  3  0  0  0  0  0  0
  188.8260  177.6010  146.0470 N   0  0  0  0  0  2  0  0  0  0  0  0
  190.9530  173.6440  141.7710 C   0  0  1  0  0  3  0  0  0  0  0  0
  193.2380  172.7460  142.2740 C   0  0  0  0  0  0  0  0  0  0  0  0
  190.1640  177.2590  145.6050 C   0  0  2  0  0  3  0  0  0  0  0  0
  190.6390  175.0700  144.2910 C   0  0  1  0  0  3  0  0  0  0  0  0
  190.7230  172.9450  140.1380 S   0  0  0  0  0  0  0  0  0  0  0  0
  188.9440  174.7280  140.9320 O   0  0  0  0  0  0  0  0  0  0  0  0
  186.9210  176.4160  146.8000 N   0  0  0  0  0  2  0  0  0  0  0  0
  195.2060  173.9790  141.4600 C   0  0  2  0  0  3  0  0  0  0  0  0
  196.6260  173.7190  141.0060 C   0  0  0  0  0  1  0  0  0  0  0  0
  188.1630  176.4200  146.4500 C   0  0  0  0  0  0  0  0  0  0  0  0
  192.8060  175.0970  143.0040 C   0  0  0  0  0  0  0  0  0  0  0  0
  192.7260  171.7400  142.8340 O   0  0  0  0  0  0  0  0  0  0  0  0
  192.4380  173.9890  142.0130 C   0  0  2  0  0  3  0  0  0  0  0  0
  189.0040  173.4570  140.3370 C   0  0  0  0  0  2  0  0  0  0  0  0
  188.6310  173.9330  143.6060 O   0  0  0  0  0  1  0  0  0  0  0  0
  195.2170  174.9350  142.5170 O   0  0  0  0  0  0  0  0  0  0  0  0
  194.1060  175.4690  143.2070 C   0  0  0  0  0  0  0  0  0  0  0  0
  189.4780  174.9970  143.2820 C   0  0  2  0  0  3  0  0  0  0  0  0
  194.3840  176.4500  144.2110 N   0  0  0  0  0  2  0  0  0  0  0  0
  193.8000  175.8610  146.4840 C   0  0  0  0  0  2  0  0  0  0  0  0
  194.9340  176.0950  145.5080 C   0  0  0  0  0  3  0  0  0  0  0  0
  194.5660  177.1660  146.5130 C   0  0  0  0  0  2  0  0  0  0  0  0
  1  3  1  0  0  0  0
  1  4  1  0  0  0  0
  2 10  1  0  0  0  0
  5 18  1  0  0  0  0
  6 14  1  6  0  0  0
  6 26  1  0  0  0  0
  7  5  1  6  0  0  0
  8 18  1  0  0  0  0
  9 13  1  6  0  0  0
  9  6  1  0  0  0  0
  9 21  1  0  0  0  0
 10 20  2  0  0  0  0
 11  4  1  6  0  0  0
 11  7  1  0  0  0  0
 11  8  1  0  0  0  0
 12  3  1  6  0  0  0
 12  7  1  0  0  0  0
 13 22  1  0  0  0  0
 16 17  1  1  0  0  0
 16  2  1  0  0  0  0
 16 24  1  0  0  0  0
 18 15  2  0  0  0  0
 19 25  2  0  0  0  0
 19  3  1  0  0  0  0
 21 10  1  1  0  0  0
 21 19  1  0  0  0  0
 22 14  1  0  0  0  0
 24 25  1  0  0  0  0
 25 27  1  0  0  0  0
 26 23  1  1  0  0  0
 26 12  1  0  0  0  0
 27 29  1  0  0  0  0
 28 30  1  0  0  0  0
 29 28  1  0  0  0  0
 29 30  1  0  0  0  0
M  END
>  <MODEL>
9

>  <REMARK>
 VINA RESULT:      -6.6      3.004      6.531
  Name = 
  2 active torsions:
  status: ('A' for Active; 'I' for Inactive)
    1  A    between atoms: C_14  and  N_22
    2  A    between atoms: N_22  and  C_29
                            x       y       z     vdW  Elec       q    Type
                         _______ _______ _______ _____ _____    ______ ____

>  <TORSDO>
F 2

$$$$
