=
 OpenBabel11052420313D

 34 36  0  0  1  0  0  0  0  0999 V2000
  192.9800  172.1870  143.4710 C   0  0  1  0  0  3  0  0  0  0  0  0
  194.1690  174.3780  142.0340 C   0  0  0  0  0  3  0  0  0  0  0  0
  192.4860  171.3480  141.1850 C   0  0  0  0  0  1  0  0  0  0  0  0
  193.1980  173.7170  141.4030 C   0  0  0  0  0  0  0  0  0  0  0  0
  192.4470  172.5800  142.0770 C   0  0  2  0  0  3  0  0  0  0  0  0
  194.5010  174.1080  143.3980 N   0  0  0  0  0  0  0  0  0  0  0  0
  194.1850  172.9200  145.4000 O   0  0  0  0  0  1  0  0  0  0  0  0
  193.5530  173.3750  144.2380 C   0  0  2  0  0  3  0  0  0  0  0  0
  193.8340  174.6920  139.2130 C   0  0  0  0  0  1  0  0  0  0  0  0
  192.8800  174.1370  140.1070 O   0  0  0  0  0  0  0  0  0  0  0  0
  195.6110  174.8460  143.9910 C   0  0  0  0  0  2  0  0  0  0  0  0
  195.3100  176.3410  144.0250 C   0  0  2  0  0  3  0  0  0  0  0  0
  196.4830  177.0670  143.8050 O   0  0  0  0  0  1  0  0  0  0  0  0
  194.6890  176.7430  145.3590 C   0  0  0  0  0  0  0  0  0  0  0  0
  195.0900  178.0220  145.6970 F   0  0  0  0  0  0  0  0  0  0  0  0
  195.1120  175.8690  146.3440 F   0  0  0  0  0  0  0  0  0  0  0  0
  193.3080  176.7020  145.2800 F   0  0  0  0  0  0  0  0  0  0  0  0
  191.8690  171.5470  144.2980 C   0  0  0  0  0  2  0  0  0  0  0  0
  190.6750  172.4350  144.3750 C   0  0  0  0  0  0  0  0  0  0  0  0
  189.5870  172.0500  143.8720 O   0  0  0  0  0  0  0  0  0  0  0  0
  190.7860  173.7090  145.0240 N   0  0  0  0  0  2  0  0  0  0  0  0
  188.1980  175.7530  146.7620 C   0  0  0  0  0  3  0  0  0  0  0  0
  189.2010  175.4140  144.1680 C   0  0  0  0  0  3  0  0  0  0  0  0
  186.1050  178.1700  144.8850 C   0  0  0  0  0  0  0  0  0  0  0  0
  186.6390  177.4180  145.9430 C   0  0  0  0  0  3  0  0  0  0  0  0
  187.6670  176.5010  145.7090 C   0  0  0  0  0  0  0  0  0  0  0  0
  187.6430  177.0770  143.3470 C   0  0  0  0  0  3  0  0  0  0  0  0
  188.1730  176.3300  144.4010 C   0  0  0  0  0  0  0  0  0  0  0  0
  186.6140  177.9920  143.5890 C   0  0  0  0  0  3  0  0  0  0  0  0
  189.7350  174.6620  145.2260 C   0  0  0  0  0  0  0  0  0  0  0  0
  189.2270  174.8380  146.5190 C   0  0  0  0  0  3  0  0  0  0  0  0
  185.0510  179.1120  145.1220 N   0  0  0  0  0  0  0  0  0  0  0  0
  184.1840  178.9330  146.1750 O   0  0  0  0  0  0  0  0  0  0  0  0
  184.9060  180.1030  144.3760 O   0  0  0  0  0  0  0  0  0  0  0  0
  1  8  1  0  0  0  0
  1 18  1  1  0  0  0
  2  6  1  0  0  0  0
  4  2  2  0  0  0  0
  4  5  1  0  0  0  0
  5  3  1  6  0  0  0
  5  1  1  0  0  0  0
  6 11  1  0  0  0  0
  6  8  1  0  0  0  0
  8  7  1  1  0  0  0
  9 10  1  0  0  0  0
 10  4  1  0  0  0  0
 11 12  1  0  0  0  0
 12 13  1  1  0  0  0
 12 14  1  0  0  0  0
 14 15  1  0  0  0  0
 14 16  1  0  0  0  0
 17 14  1  0  0  0  0
 18 19  1  0  0  0  0
 19 21  1  0  0  0  0
 20 19  2  0  0  0  0
 21 30  1  0  0  0  0
 23 28  2  0  0  0  0
 23 30  1  0  0  0  0
 24 32  1  0  0  0  0
 24 25  2  0  0  0  0
 26 25  1  0  0  0  0
 26 22  2  0  0  0  0
 27 29  2  0  0  0  0
 27 28  1  0  0  0  0
 28 26  1  0  0  0  0
 29 24  1  0  0  0  0
 30 31  2  0  0  0  0
 31 22  1  0  0  0  0
 32 33  2  0  0  0  0
 34 32  2  0  0  0  0
M  END
>  <MODEL>
1

>  <REMARK>
 VINA RESULT:      -6.9      0.000      0.000
  Name = 
  8 active torsions:
  status: ('A' for Active; 'I' for Inactive)
    1  A    between atoms: C_1  and  C_9
    2  A    between atoms: C_2  and  C_23
    3  A    between atoms: C_2  and  N_32
    4  A    between atoms: C_3  and  C_23
    5  A    between atoms: C_7  and  N_11
    6  A    between atoms: C_8  and  C_9
    7  A    between atoms: N_18  and  C_30
    8  A    between atoms: C_19  and  O_22
                            x       y       z     vdW  Elec       q    Type
                         _______ _______ _______ _____ _____    ______ ____

>  <TORSDO>
F 8

$$$$
=
 OpenBabel11052420313D

 34 36  0  0  1  0  0  0  0  0999 V2000
  195.0970  174.6830  144.8930 C   0  0  1  0  0  3  0  0  0  0  0  0
  196.6020  172.9880  143.1210 C   0  0  0  0  0  3  0  0  0  0  0  0
  195.6640  176.4310  143.2210 C   0  0  0  0  0  1  0  0  0  0  0  0
  196.9100  174.2850  143.0990 C   0  0  0  0  0  0  0  0  0  0  0  0
  196.2320  175.2760  144.0330 C   0  0  2  0  0  3  0  0  0  0  0  0
  195.6790  172.4480  144.0700 N   0  0  0  0  0  0  0  0  0  0  0  0
  194.1960  172.6990  145.8750 O   0  0  0  0  0  1  0  0  0  0  0  0
  195.3410  173.2230  145.2650 C   0  0  2  0  0  3  0  0  0  0  0  0
  197.8130  174.5010  140.8000 C   0  0  0  0  0  1  0  0  0  0  0  0
  197.9070  174.6890  142.2050 O   0  0  0  0  0  0  0  0  0  0  0  0
  195.3640  171.0270  143.9860 C   0  0  0  0  0  2  0  0  0  0  0  0
  196.5700  170.1810  144.3830 C   0  0  2  0  0  3  0  0  0  0  0  0
  196.8060  169.2050  143.4120 O   0  0  0  0  0  1  0  0  0  0  0  0
  196.3540  169.5250  145.7430 C   0  0  0  0  0  0  0  0  0  0  0  0
  195.0370  169.1190  145.8630 F   0  0  0  0  0  0  0  0  0  0  0  0
  196.6310  170.4390  146.7430 F   0  0  0  0  0  0  0  0  0  0  0  0
  197.1860  168.4290  145.8870 F   0  0  0  0  0  0  0  0  0  0  0  0
  194.9210  175.5010  146.1700 C   0  0  0  0  0  2  0  0  0  0  0  0
  193.5940  176.1760  146.1980 C   0  0  0  0  0  0  0  0  0  0  0  0
  193.3990  177.1220  147.0060 O   0  0  0  0  0  0  0  0  0  0  0  0
  192.5620  175.7380  145.3030 N   0  0  0  0  0  2  0  0  0  0  0  0
  189.7650  177.8260  143.9920 C   0  0  0  0  0  3  0  0  0  0  0  0
  190.1940  175.9350  146.0140 C   0  0  0  0  0  3  0  0  0  0  0  0
  186.3930  177.6680  145.5230 C   0  0  0  0  0  0  0  0  0  0  0  0
  187.4490  178.0340  144.6750 C   0  0  0  0  0  3  0  0  0  0  0  0
  188.7130  177.4610  144.8350 C   0  0  0  0  0  0  0  0  0  0  0  0
  187.8800  176.1420  146.6990 C   0  0  0  0  0  3  0  0  0  0  0  0
  188.9300  176.5080  145.8540 C   0  0  0  0  0  0  0  0  0  0  0  0
  186.6180  176.7200  146.5340 C   0  0  0  0  0  3  0  0  0  0  0  0
  191.2510  176.3010  145.1660 C   0  0  0  0  0  0  0  0  0  0  0  0
  191.0270  177.2470  144.1580 C   0  0  0  0  0  3  0  0  0  0  0  0
  185.0940  178.2530  145.3610 N   0  0  0  0  0  0  0  0  0  0  0  0
  184.4440  178.1770  144.1510 O   0  0  0  0  0  0  0  0  0  0  0  0
  184.5390  178.8400  146.3140 O   0  0  0  0  0  0  0  0  0  0  0  0
  1  8  1  0  0  0  0
  1 18  1  1  0  0  0
  2  6  1  0  0  0  0
  4  2  2  0  0  0  0
  4  5  1  0  0  0  0
  5  3  1  6  0  0  0
  5  1  1  0  0  0  0
  6  8  1  0  0  0  0
  8  7  1  6  0  0  0
  9 10  1  0  0  0  0
 10  4  1  0  0  0  0
 11  6  1  0  0  0  0
 11 12  1  0  0  0  0
 12 13  1  6  0  0  0
 12 14  1  0  0  0  0
 14 15  1  0  0  0  0
 14 17  1  0  0  0  0
 14 16  1  0  0  0  0
 18 19  1  0  0  0  0
 19 20  2  0  0  0  0
 21 19  1  0  0  0  0
 22 31  2  0  0  0  0
 22 26  1  0  0  0  0
 24 29  1  0  0  0  0
 25 26  1  0  0  0  0
 25 24  2  0  0  0  0
 26 28  2  0  0  0  0
 28 23  1  0  0  0  0
 28 27  1  0  0  0  0
 29 27  2  0  0  0  0
 30 21  1  0  0  0  0
 30 23  2  0  0  0  0
 31 30  1  0  0  0  0
 32 24  1  0  0  0  0
 32 34  2  0  0  0  0
 33 32  2  0  0  0  0
M  END
>  <MODEL>
2

>  <REMARK>
 VINA RESULT:      -6.9      3.259      4.605
  Name = 
  8 active torsions:
  status: ('A' for Active; 'I' for Inactive)
    1  A    between atoms: C_1  and  C_9
    2  A    between atoms: C_2  and  C_23
    3  A    between atoms: C_2  and  N_32
    4  A    between atoms: C_3  and  C_23
    5  A    between atoms: C_7  and  N_11
    6  A    between atoms: C_8  and  C_9
    7  A    between atoms: N_18  and  C_30
    8  A    between atoms: C_19  and  O_22
                            x       y       z     vdW  Elec       q    Type
                         _______ _______ _______ _____ _____    ______ ____

>  <TORSDO>
F 8

$$$$
=
 OpenBabel11052420313D

 34 36  0  0  1  0  0  0  0  0999 V2000
  196.0170  174.7500  145.1620 C   0  0  1  0  0  3  0  0  0  0  0  0
  196.5360  173.4170  142.6660 C   0  0  0  0  0  3  0  0  0  0  0  0
  196.7970  172.5990  146.1300 C   0  0  0  0  0  1  0  0  0  0  0  0
  196.2560  172.6310  143.7060 C   0  0  0  0  0  0  0  0  0  0  0  0
  195.9010  173.2140  145.0650 C   0  0  2  0  0  3  0  0  0  0  0  0
  196.4430  174.8410  142.7500 N   0  0  0  0  0  0  0  0  0  0  0  0
  195.9950  176.8100  143.9500 O   0  0  0  0  0  1  0  0  0  0  0  0
  195.6880  175.4490  143.8460 C   0  0  2  0  0  3  0  0  0  0  0  0
  195.1640  170.4060  143.7700 C   0  0  0  0  0  1  0  0  0  0  0  0
  196.2700  171.2500  143.4840 O   0  0  0  0  0  0  0  0  0  0  0  0
  196.8180  175.6210  141.5760 C   0  0  0  0  0  2  0  0  0  0  0  0
  196.1270  175.0840  140.3260 C   0  0  2  0  0  3  0  0  0  0  0  0
  196.8300  175.4820  139.1870 O   0  0  0  0  0  1  0  0  0  0  0  0
  194.6840  175.5710  140.2470 C   0  0  0  0  0  0  0  0  0  0  0  0
  194.5760  176.8160  140.8410 F   0  0  0  0  0  0  0  0  0  0  0  0
  193.8620  174.6850  140.9200 F   0  0  0  0  0  0  0  0  0  0  0  0
  194.2750  175.6560  138.9290 F   0  0  0  0  0  0  0  0  0  0  0  0
  195.0910  175.2790  146.2540 C   0  0  0  0  0  2  0  0  0  0  0  0
  193.6820  175.3500  145.7770 C   0  0  0  0  0  0  0  0  0  0  0  0
  193.0860  174.2890  145.4520 O   0  0  0  0  0  0  0  0  0  0  0  0
  193.0270  176.6240  145.7000 N   0  0  0  0  0  2  0  0  0  0  0  0
  190.1130  177.6650  143.6220 C   0  0  0  0  0  3  0  0  0  0  0  0
  190.5920  176.5900  146.1640 C   0  0  0  0  0  3  0  0  0  0  0  0
  186.6510  177.3640  144.9130 C   0  0  0  0  0  0  0  0  0  0  0  0
  187.7290  177.6430  144.0590 C   0  0  0  0  0  3  0  0  0  0  0  0
  189.0390  177.3880  144.4710 C   0  0  0  0  0  0  0  0  0  0  0  0
  188.2090  176.5670  146.6040 C   0  0  0  0  0  3  0  0  0  0  0  0
  189.2810  176.8450  145.7530 C   0  0  0  0  0  0  0  0  0  0  0  0
  186.9010  176.8260  146.1850 C   0  0  0  0  0  3  0  0  0  0  0  0
  191.6700  176.8680  145.3100 C   0  0  0  0  0  0  0  0  0  0  0  0
  191.4210  177.4060  144.0410 C   0  0  0  0  0  3  0  0  0  0  0  0
  185.3050  177.6250  144.4930 N   0  0  0  0  0  0  0  0  0  0  0  0
  184.9460  177.4650  143.1750 O   0  0  0  0  0  0  0  0  0  0  0  0
  184.4450  178.0000  145.3170 O   0  0  0  0  0  0  0  0  0  0  0  0
  1 18  1  1  0  0  0
  2  6  1  0  0  0  0
  2  4  2  0  0  0  0
  4  5  1  0  0  0  0
  5  1  1  0  0  0  0
  5  3  1  1  0  0  0
  6  8  1  0  0  0  0
  8  7  1  1  0  0  0
  8  1  1  0  0  0  0
 10  4  1  0  0  0  0
 10  9  1  0  0  0  0
 11  6  1  0  0  0  0
 12 13  1  6  0  0  0
 12 11  1  0  0  0  0
 14 12  1  0  0  0  0
 14 15  1  0  0  0  0
 14 16  1  0  0  0  0
 17 14  1  0  0  0  0
 19 18  1  0  0  0  0
 20 19  2  0  0  0  0
 21 19  1  0  0  0  0
 22 31  2  0  0  0  0
 22 26  1  0  0  0  0
 24 29  1  0  0  0  0
 25 26  1  0  0  0  0
 25 24  2  0  0  0  0
 26 28  2  0  0  0  0
 28 23  1  0  0  0  0
 28 27  1  0  0  0  0
 29 27  2  0  0  0  0
 30 21  1  0  0  0  0
 30 23  2  0  0  0  0
 31 30  1  0  0  0  0
 32 24  1  0  0  0  0
 32 34  2  0  0  0  0
 33 32  2  0  0  0  0
M  END
>  <MODEL>
3

>  <REMARK>
 VINA RESULT:      -6.8      2.784      4.107
  Name = 
  8 active torsions:
  status: ('A' for Active; 'I' for Inactive)
    1  A    between atoms: C_1  and  C_9
    2  A    between atoms: C_2  and  C_23
    3  A    between atoms: C_2  and  N_32
    4  A    between atoms: C_3  and  C_23
    5  A    between atoms: C_7  and  N_11
    6  A    between atoms: C_8  and  C_9
    7  A    between atoms: N_18  and  C_30
    8  A    between atoms: C_19  and  O_22
                            x       y       z     vdW  Elec       q    Type
                         _______ _______ _______ _____ _____    ______ ____

>  <TORSDO>
F 8

$$$$
=
 OpenBabel11052420313D

 34 36  0  0  1  0  0  0  0  0999 V2000
  193.0650  173.0820  142.6370 C   0  0  1  0  0  3  0  0  0  0  0  0
  194.3520  175.5510  143.3650 C   0  0  0  0  0  3  0  0  0  0  0  0
  194.4380  173.3190  140.5810 C   0  0  0  0  0  1  0  0  0  0  0  0
  194.2430  175.3050  142.0590 C   0  0  0  0  0  0  0  0  0  0  0  0
  193.5270  174.0670  141.5430 C   0  0  2  0  0  3  0  0  0  0  0  0
  193.7400  174.7080  144.3440 N   0  0  0  0  0  0  0  0  0  0  0  0
  192.4570  172.8300  144.9350 O   0  0  0  0  0  1  0  0  0  0  0  0
  192.6800  173.7850  143.9360 C   0  0  2  0  0  3  0  0  0  0  0  0
  196.0640  176.8420  141.3720 C   0  0  0  0  0  1  0  0  0  0  0  0
  194.7850  176.2540  141.1850 O   0  0  0  0  0  0  0  0  0  0  0  0
  193.9560  175.0250  145.7510 C   0  0  0  0  0  2  0  0  0  0  0  0
  193.3790  176.3950  146.0920 C   0  0  2  0  0  3  0  0  0  0  0  0
  194.3330  177.1580  146.7700 O   0  0  0  0  0  1  0  0  0  0  0  0
  192.1170  176.2610  146.9400 C   0  0  0  0  0  0  0  0  0  0  0  0
  191.9130  174.9340  147.2700 F   0  0  0  0  0  0  0  0  0  0  0  0
  191.0280  176.7120  146.2160 F   0  0  0  0  0  0  0  0  0  0  0  0
  192.2330  177.0090  148.0980 F   0  0  0  0  0  0  0  0  0  0  0  0
  191.8770  172.2630  142.1410 C   0  0  0  0  0  2  0  0  0  0  0  0
  190.5870  172.8750  142.5660 C   0  0  0  0  0  0  0  0  0  0  0  0
  189.7630  172.1840  143.2220 O   0  0  0  0  0  0  0  0  0  0  0  0
  190.3080  174.2390  142.2230 N   0  0  0  0  0  2  0  0  0  0  0  0
  186.9890  175.9130  141.9440 C   0  0  0  0  0  3  0  0  0  0  0  0
  188.9950  175.5540  143.8660 C   0  0  0  0  0  3  0  0  0  0  0  0
  185.5440  177.7640  144.8130 C   0  0  0  0  0  0  0  0  0  0  0  0
  185.6940  177.2040  143.5350 C   0  0  0  0  0  3  0  0  0  0  0  0
  186.8390  176.4700  143.2160 C   0  0  0  0  0  0  0  0  0  0  0  0
  187.7040  176.8460  145.4570 C   0  0  0  0  0  3  0  0  0  0  0  0
  187.8510  176.2890  144.1850 C   0  0  0  0  0  0  0  0  0  0  0  0
  186.5550  177.5800  145.7690 C   0  0  0  0  0  3  0  0  0  0  0  0
  189.1450  174.9940  142.5880 C   0  0  0  0  0  0  0  0  0  0  0  0
  188.1370  175.1790  141.6340 C   0  0  0  0  0  3  0  0  0  0  0  0
  184.3700  178.5180  145.1440 N   0  0  0  0  0  0  0  0  0  0  0  0
  183.6890  179.2060  144.1660 O   0  0  0  0  0  0  0  0  0  0  0  0
  183.9530  178.5600  146.3200 O   0  0  0  0  0  0  0  0  0  0  0  0
  1 18  1  6  0  0  0
  1  8  1  0  0  0  0
  2  6  1  0  0  0  0
  4  2  2  0  0  0  0
  5  3  1  6  0  0  0
  5  4  1  0  0  0  0
  5  1  1  0  0  0  0
  6 11  1  0  0  0  0
  8  6  1  0  0  0  0
  8  7  1  1  0  0  0
 10  9  1  0  0  0  0
 10  4  1  0  0  0  0
 11 12  1  0  0  0  0
 12 13  1  1  0  0  0
 12 14  1  0  0  0  0
 14 15  1  0  0  0  0
 14 17  1  0  0  0  0
 16 14  1  0  0  0  0
 18 19  1  0  0  0  0
 19 20  2  0  0  0  0
 21 19  1  0  0  0  0
 21 30  1  0  0  0  0
 22 26  1  0  0  0  0
 23 28  1  0  0  0  0
 24 32  1  0  0  0  0
 24 29  1  0  0  0  0
 25 24  2  0  0  0  0
 26 25  1  0  0  0  0
 26 28  2  0  0  0  0
 27 29  2  0  0  0  0
 28 27  1  0  0  0  0
 30 23  2  0  0  0  0
 31 22  2  0  0  0  0
 31 30  1  0  0  0  0
 32 34  2  0  0  0  0
 33 32  2  0  0  0  0
M  END
>  <MODEL>
4

>  <REMARK>
 VINA RESULT:      -6.8      1.843      2.691
  Name = 
  8 active torsions:
  status: ('A' for Active; 'I' for Inactive)
    1  A    between atoms: C_1  and  C_9
    2  A    between atoms: C_2  and  C_23
    3  A    between atoms: C_2  and  N_32
    4  A    between atoms: C_3  and  C_23
    5  A    between atoms: C_7  and  N_11
    6  A    between atoms: C_8  and  C_9
    7  A    between atoms: N_18  and  C_30
    8  A    between atoms: C_19  and  O_22
                            x       y       z     vdW  Elec       q    Type
                         _______ _______ _______ _____ _____    ______ ____

>  <TORSDO>
F 8

$$$$
=
 OpenBabel11052420313D

 34 36  0  0  1  0  0  0  0  0999 V2000
  191.6000  175.6680  146.4540 C   0  0  1  0  0  3  0  0  0  0  0  0
  192.8080  174.3630  144.1930 C   0  0  0  0  0  3  0  0  0  0  0  0
  189.8100  173.9850  146.0910 C   0  0  0  0  0  1  0  0  0  0  0  0
  191.4800  174.2860  144.2780 C   0  0  0  0  0  0  0  0  0  0  0  0
  190.7160  174.9870  145.3900 C   0  0  2  0  0  3  0  0  0  0  0  0
  193.5760  175.1670  145.0920 N   0  0  0  0  0  0  0  0  0  0  0  0
  193.7360  176.6350  146.9190 O   0  0  0  0  0  1  0  0  0  0  0  0
  192.9070  176.2060  145.8770 C   0  0  2  0  0  3  0  0  0  0  0  0
  191.4960  172.8990  142.2220 C   0  0  0  0  0  1  0  0  0  0  0  0
  190.8180  173.5610  143.2800 O   0  0  0  0  0  0  0  0  0  0  0  0
  195.0270  175.1500  144.9550 C   0  0  0  0  0  2  0  0  0  0  0  0
  195.4320  174.8240  143.5200 C   0  0  2  0  0  3  0  0  0  0  0  0
  196.5580  173.9970  143.5210 O   0  0  0  0  0  1  0  0  0  0  0  0
  195.7180  176.0970  142.7300 C   0  0  0  0  0  0  0  0  0  0  0  0
  196.3470  177.0220  143.5430 F   0  0  0  0  0  0  0  0  0  0  0  0
  194.5250  176.6370  142.2820 F   0  0  0  0  0  0  0  0  0  0  0  0
  196.5260  175.8180  141.6420 F   0  0  0  0  0  0  0  0  0  0  0  0
  190.8390  176.8130  147.1170 C   0  0  0  0  0  2  0  0  0  0  0  0
  189.7480  177.3150  146.2360 C   0  0  0  0  0  0  0  0  0  0  0  0
  190.0430  177.8960  145.1580 O   0  0  0  0  0  0  0  0  0  0  0  0
  188.3820  177.1250  146.6280 N   0  0  0  0  0  2  0  0  0  0  0  0
  185.0500  178.6040  145.8470 C   0  0  0  0  0  3  0  0  0  0  0  0
  187.0580  177.1610  144.5310 C   0  0  0  0  0  3  0  0  0  0  0  0
  183.5830  178.3060  142.4560 C   0  0  0  0  0  0  0  0  0  0  0  0
  183.7410  178.6460  143.8080 C   0  0  0  0  0  3  0  0  0  0  0  0
  184.8930  178.2670  144.5010 C   0  0  0  0  0  0  0  0  0  0  0  0
  185.7500  177.2000  142.4920 C   0  0  0  0  0  3  0  0  0  0  0  0
  185.9060  177.5390  143.8380 C   0  0  0  0  0  0  0  0  0  0  0  0
  184.5940  177.5820  141.8050 C   0  0  0  0  0  3  0  0  0  0  0  0
  187.2160  177.5010  145.8840 C   0  0  0  0  0  0  0  0  0  0  0  0
  186.2070  178.2220  146.5330 C   0  0  0  0  0  3  0  0  0  0  0  0
  182.4020  178.6940  141.7420 N   0  0  0  0  0  0  0  0  0  0  0  0
  181.3680  179.3210  142.3990 O   0  0  0  0  0  0  0  0  0  0  0  0
  182.2960  178.4660  140.5190 O   0  0  0  0  0  0  0  0  0  0  0  0
  1 18  1  6  0  0  0
  2  4  2  0  0  0  0
  2  6  1  0  0  0  0
  4  5  1  0  0  0  0
  5  3  1  1  0  0  0
  5  1  1  0  0  0  0
  6  8  1  0  0  0  0
  8  1  1  0  0  0  0
  8  7  1  1  0  0  0
  9 10  1  0  0  0  0
 10  4  1  0  0  0  0
 11  6  1  0  0  0  0
 12 13  1  1  0  0  0
 12 11  1  0  0  0  0
 14 12  1  0  0  0  0
 14 15  1  0  0  0  0
 16 14  1  0  0  0  0
 17 14  1  0  0  0  0
 19 21  1  0  0  0  0
 19 18  1  0  0  0  0
 20 19  2  0  0  0  0
 22 31  1  0  0  0  0
 23 30  1  0  0  0  0
 24 25  2  0  0  0  0
 25 26  1  0  0  0  0
 26 22  2  0  0  0  0
 27 28  1  0  0  0  0
 28 26  1  0  0  0  0
 28 23  2  0  0  0  0
 29 24  1  0  0  0  0
 29 27  2  0  0  0  0
 30 31  2  0  0  0  0
 30 21  1  0  0  0  0
 32 33  2  0  0  0  0
 32 24  1  0  0  0  0
 34 32  2  0  0  0  0
M  END
>  <MODEL>
5

>  <REMARK>
 VINA RESULT:      -6.7      2.737      3.987
  Name = 
  8 active torsions:
  status: ('A' for Active; 'I' for Inactive)
    1  A    between atoms: C_1  and  C_9
    2  A    between atoms: C_2  and  C_23
    3  A    between atoms: C_2  and  N_32
    4  A    between atoms: C_3  and  C_23
    5  A    between atoms: C_7  and  N_11
    6  A    between atoms: C_8  and  C_9
    7  A    between atoms: N_18  and  C_30
    8  A    between atoms: C_19  and  O_22
                            x       y       z     vdW  Elec       q    Type
                         _______ _______ _______ _____ _____    ______ ____

>  <TORSDO>
F 8

$$$$
=
 OpenBabel11052420313D

 34 36  0  0  1  0  0  0  0  0999 V2000
  195.9420  174.7370  144.0800 C   0  0  1  0  0  3  0  0  0  0  0  0
  197.1070  172.1870  143.4360 C   0  0  0  0  0  3  0  0  0  0  0  0
  195.3990  174.7660  141.6570 C   0  0  0  0  0  1  0  0  0  0  0  0
  197.0360  173.0710  142.4410 C   0  0  0  0  0  0  0  0  0  0  0  0
  196.5000  174.4760  142.6660 C   0  0  2  0  0  3  0  0  0  0  0  0
  196.7580  172.5330  144.7790 N   0  0  0  0  0  0  0  0  0  0  0  0
  196.0030  174.0800  146.3780 O   0  0  0  0  0  1  0  0  0  0  0  0
  196.6760  173.9450  145.1580 C   0  0  2  0  0  3  0  0  0  0  0  0
  197.6490  171.2950  140.8210 C   0  0  0  0  0  1  0  0  0  0  0  0
  197.5070  172.6600  141.1880 O   0  0  0  0  0  0  0  0  0  0  0  0
  196.8180  171.4870  145.7930 C   0  0  0  0  0  2  0  0  0  0  0  0
  195.6680  170.5000  145.6200 C   0  0  2  0  0  3  0  0  0  0  0  0
  194.4470  171.1640  145.7580 O   0  0  0  0  0  1  0  0  0  0  0  0
  195.7650  169.3660  146.6370 C   0  0  0  0  0  0  0  0  0  0  0  0
  194.5780  169.2650  147.3400 F   0  0  0  0  0  0  0  0  0  0  0  0
  196.7880  169.6340  147.5280 F   0  0  0  0  0  0  0  0  0  0  0  0
  196.0220  168.1660  145.9980 F   0  0  0  0  0  0  0  0  0  0  0  0
  196.0240  176.2250  144.4120 C   0  0  0  0  0  2  0  0  0  0  0  0
  194.6880  176.7670  144.7850 C   0  0  0  0  0  0  0  0  0  0  0  0
  194.6190  177.8100  145.4870 O   0  0  0  0  0  0  0  0  0  0  0  0
  193.5040  176.0950  144.3340 N   0  0  0  0  0  2  0  0  0  0  0  0
  190.3070  177.9800  143.9830 C   0  0  0  0  0  3  0  0  0  0  0  0
  191.3420  175.8870  145.5310 C   0  0  0  0  0  3  0  0  0  0  0  0
  187.3810  177.1790  146.1140 C   0  0  0  0  0  0  0  0  0  0  0  0
  188.1880  177.7930  145.1440 C   0  0  0  0  0  3  0  0  0  0  0  0
  189.5040  177.3680  144.9480 C   0  0  0  0  0  0  0  0  0  0  0  0
  189.2250  175.7000  146.6940 C   0  0  0  0  0  3  0  0  0  0  0  0
  190.0260  176.3120  145.7280 C   0  0  0  0  0  0  0  0  0  0  0  0
  187.9090  176.1320  146.8860 C   0  0  0  0  0  3  0  0  0  0  0  0
  192.1480  176.5010  144.5600 C   0  0  0  0  0  0  0  0  0  0  0  0
  191.6220  177.5470  143.7920 C   0  0  0  0  0  3  0  0  0  0  0  0
  186.0300  177.6130  146.3180 N   0  0  0  0  0  0  0  0  0  0  0  0
  185.6780  178.9210  146.0790 O   0  0  0  0  0  0  0  0  0  0  0  0
  185.1590  176.8120  146.7160 O   0  0  0  0  0  0  0  0  0  0  0  0
  1 18  1  1  0  0  0
  1  8  1  0  0  0  0
  2  6  1  0  0  0  0
  4  5  1  0  0  0  0
  4  2  2  0  0  0  0
  5  3  1  6  0  0  0
  5  1  1  0  0  0  0
  6  8  1  0  0  0  0
  6 11  1  0  0  0  0
  8  7  1  1  0  0  0
  9 10  1  0  0  0  0
 10  4  1  0  0  0  0
 12 13  1  1  0  0  0
 12 11  1  0  0  0  0
 12 14  1  0  0  0  0
 14 15  1  0  0  0  0
 14 16  1  0  0  0  0
 17 14  1  0  0  0  0
 18 19  1  0  0  0  0
 19 20  2  0  0  0  0
 21 30  1  0  0  0  0
 21 19  1  0  0  0  0
 22 26  1  0  0  0  0
 23 28  1  0  0  0  0
 24 32  1  0  0  0  0
 24 29  1  0  0  0  0
 25 24  2  0  0  0  0
 26 25  1  0  0  0  0
 26 28  2  0  0  0  0
 27 29  2  0  0  0  0
 28 27  1  0  0  0  0
 30 23  2  0  0  0  0
 31 22  2  0  0  0  0
 31 30  1  0  0  0  0
 32 34  2  0  0  0  0
 33 32  2  0  0  0  0
M  END
>  <MODEL>
6

>  <REMARK>
 VINA RESULT:      -6.7      3.450      4.847
  Name = 
  8 active torsions:
  status: ('A' for Active; 'I' for Inactive)
    1  A    between atoms: C_1  and  C_9
    2  A    between atoms: C_2  and  C_23
    3  A    between atoms: C_2  and  N_32
    4  A    between atoms: C_3  and  C_23
    5  A    between atoms: C_7  and  N_11
    6  A    between atoms: C_8  and  C_9
    7  A    between atoms: N_18  and  C_30
    8  A    between atoms: C_19  and  O_22
                            x       y       z     vdW  Elec       q    Type
                         _______ _______ _______ _____ _____    ______ ____

>  <TORSDO>
F 8

$$$$
=
 OpenBabel11052420313D

 34 36  0  0  1  0  0  0  0  0999 V2000
  193.8840  174.0870  142.7730 C   0  0  1  0  0  3  0  0  0  0  0  0
  194.2290  173.3200  145.5240 C   0  0  0  0  0  3  0  0  0  0  0  0
  195.4060  175.9440  143.4110 C   0  0  0  0  0  1  0  0  0  0  0  0
  194.3940  174.6140  145.2480 C   0  0  0  0  0  0  0  0  0  0  0  0
  194.1780  175.1580  143.8440 C   0  0  2  0  0  3  0  0  0  0  0  0
  193.7670  172.3920  144.5400 N   0  0  0  0  0  0  0  0  0  0  0  0
  193.0500  171.8860  142.3600 O   0  0  0  0  0  1  0  0  0  0  0  0
  193.1140  172.8930  143.3290 C   0  0  2  0  0  3  0  0  0  0  0  0
  194.0400  176.6510  146.6180 C   0  0  0  0  0  1  0  0  0  0  0  0
  194.7410  175.4540  146.3120 O   0  0  0  0  0  0  0  0  0  0  0  0
  193.6650  170.9880  144.9190 C   0  0  0  0  0  2  0  0  0  0  0  0
  194.9460  170.5170  145.6020 C   0  0  2  0  0  3  0  0  0  0  0  0
  195.9790  170.4300  144.6670 O   0  0  0  0  0  1  0  0  0  0  0  0
  194.7390  169.1660  146.2800 C   0  0  0  0  0  0  0  0  0  0  0  0
  195.8460  168.3640  146.0750 F   0  0  0  0  0  0  0  0  0  0  0  0
  193.6300  168.5440  145.7350 F   0  0  0  0  0  0  0  0  0  0  0  0
  194.5400  169.3340  147.6390 F   0  0  0  0  0  0  0  0  0  0  0  0
  193.0920  174.6990  141.6210 C   0  0  0  0  0  2  0  0  0  0  0  0
  191.7100  175.0550  142.0470 C   0  0  0  0  0  0  0  0  0  0  0  0
  190.7640  174.2620  141.7980 O   0  0  0  0  0  0  0  0  0  0  0  0
  191.4820  176.2920  142.7370 N   0  0  0  0  0  2  0  0  0  0  0  0
  188.1910  178.0360  142.8960 C   0  0  0  0  0  3  0  0  0  0  0  0
  189.8150  176.4770  144.5630 C   0  0  0  0  0  3  0  0  0  0  0  0
  186.1340  177.9410  145.9790 C   0  0  0  0  0  0  0  0  0  0  0  0
  186.5520  178.2300  144.6710 C   0  0  0  0  0  3  0  0  0  0  0  0
  187.7750  177.7470  144.1970 C   0  0  0  0  0  0  0  0  0  0  0  0
  188.1790  176.6720  146.3390 C   0  0  0  0  0  3  0  0  0  0  0  0
  188.5930  176.9610  145.0380 C   0  0  0  0  0  0  0  0  0  0  0  0
  186.9550  177.1600  146.8070 C   0  0  0  0  0  3  0  0  0  0  0  0
  190.2330  176.7660  143.2550 C   0  0  0  0  0  0  0  0  0  0  0  0
  189.4150  177.5470  142.4290 C   0  0  0  0  0  3  0  0  0  0  0  0
  184.8800  178.4360  146.4670 N   0  0  0  0  0  0  0  0  0  0  0  0
  183.9300  178.9050  145.5910 O   0  0  0  0  0  0  0  0  0  0  0  0
  184.6370  178.4480  147.6920 O   0  0  0  0  0  0  0  0  0  0  0  0
  1 18  1  6  0  0  0
  1  8  1  0  0  0  0
  1  5  1  0  0  0  0
  4  2  2  0  0  0  0
  4 10  1  0  0  0  0
  5  3  1  6  0  0  0
  5  4  1  0  0  0  0
  6 11  1  0  0  0  0
  6  2  1  0  0  0  0
  8  7  1  6  0  0  0
  8  6  1  0  0  0  0
 10  9  1  0  0  0  0
 11 12  1  0  0  0  0
 12 13  1  6  0  0  0
 12 14  1  0  0  0  0
 14 17  1  0  0  0  0
 15 14  1  0  0  0  0
 16 14  1  0  0  0  0
 18 19  1  0  0  0  0
 19 21  1  0  0  0  0
 20 19  2  0  0  0  0
 21 30  1  0  0  0  0
 22 26  1  0  0  0  0
 23 28  1  0  0  0  0
 24 32  1  0  0  0  0
 24 29  1  0  0  0  0
 25 24  2  0  0  0  0
 26 25  1  0  0  0  0
 26 28  2  0  0  0  0
 27 29  2  0  0  0  0
 28 27  1  0  0  0  0
 30 23  2  0  0  0  0
 31 22  2  0  0  0  0
 31 30  1  0  0  0  0
 32 34  2  0  0  0  0
 33 32  2  0  0  0  0
M  END
>  <MODEL>
7

>  <REMARK>
 VINA RESULT:      -6.6      2.949      4.629
  Name = 
  8 active torsions:
  status: ('A' for Active; 'I' for Inactive)
    1  A    between atoms: C_1  and  C_9
    2  A    between atoms: C_2  and  C_23
    3  A    between atoms: C_2  and  N_32
    4  A    between atoms: C_3  and  C_23
    5  A    between atoms: C_7  and  N_11
    6  A    between atoms: C_8  and  C_9
    7  A    between atoms: N_18  and  C_30
    8  A    between atoms: C_19  and  O_22
                            x       y       z     vdW  Elec       q    Type
                         _______ _______ _______ _____ _____    ______ ____

>  <TORSDO>
F 8

$$$$
=
 OpenBabel11052420313D

 34 36  0  0  1  0  0  0  0  0999 V2000
  193.9610  174.2160  145.0500 C   0  0  1  0  0  3  0  0  0  0  0  0
  196.4970  173.4760  143.9120 C   0  0  0  0  0  3  0  0  0  0  0  0
  194.2920  176.2740  143.6990 C   0  0  0  0  0  1  0  0  0  0  0  0
  196.2540  174.7830  144.0100 C   0  0  0  0  0  0  0  0  0  0  0  0
  194.9780  175.3050  144.6510 C   0  0  2  0  0  3  0  0  0  0  0  0
  195.6130  172.5010  144.4700 N   0  0  0  0  0  0  0  0  0  0  0  0
  193.6590  171.9190  145.6370 O   0  0  0  0  0  1  0  0  0  0  0  0
  194.6310  172.9120  145.4740 C   0  0  2  0  0  3  0  0  0  0  0  0
  197.6270  175.7060  142.1620 C   0  0  0  0  0  1  0  0  0  0  0  0
  197.2390  175.6530  143.5270 O   0  0  0  0  0  0  0  0  0  0  0  0
  195.9340  171.0920  144.2700 C   0  0  0  0  0  2  0  0  0  0  0  0
  196.3580  170.4420  145.5830 C   0  0  2  0  0  3  0  0  0  0  0  0
  197.7520  170.4190  145.6730 O   0  0  0  0  0  1  0  0  0  0  0  0
  195.8040  169.0250  145.6960 C   0  0  0  0  0  0  0  0  0  0  0  0
  195.3850  168.5860  144.4530 F   0  0  0  0  0  0  0  0  0  0  0  0
  194.7210  169.0230  146.5570 F   0  0  0  0  0  0  0  0  0  0  0  0
  196.7720  168.1660  146.1840 F   0  0  0  0  0  0  0  0  0  0  0  0
  193.0750  174.7150  146.1880 C   0  0  0  0  0  2  0  0  0  0  0  0
  191.6750  174.9280  145.7260 C   0  0  0  0  0  0  0  0  0  0  0  0
  191.0470  173.9720  145.1980 O   0  0  0  0  0  0  0  0  0  0  0  0
  191.0660  176.2160  145.8940 N   0  0  0  0  0  2  0  0  0  0  0  0
  187.3880  176.7380  146.2100 C   0  0  0  0  0  3  0  0  0  0  0  0
  189.3950  177.1010  144.2890 C   0  0  0  0  0  3  0  0  0  0  0  0
  185.4130  178.1190  143.3930 C   0  0  0  0  0  0  0  0  0  0  0  0
  185.7410  177.5980  144.6540 C   0  0  0  0  0  3  0  0  0  0  0  0
  187.0620  177.2580  144.9550 C   0  0  0  0  0  0  0  0  0  0  0  0
  187.7500  177.9600  142.7320 C   0  0  0  0  0  3  0  0  0  0  0  0
  188.0740  177.4410  143.9870 C   0  0  0  0  0  0  0  0  0  0  0  0
  186.4250  178.2970  142.4370 C   0  0  0  0  0  3  0  0  0  0  0  0
  189.7230  176.5800  145.5510 C   0  0  0  0  0  0  0  0  0  0  0  0
  188.7120  176.4010  146.5040 C   0  0  0  0  0  3  0  0  0  0  0  0
  184.0580  178.4700  143.0800 N   0  0  0  0  0  0  0  0  0  0  0  0
  183.5600  178.2560  141.8160 O   0  0  0  0  0  0  0  0  0  0  0  0
  183.3170  178.9730  143.9500 O   0  0  0  0  0  0  0  0  0  0  0  0
  1  8  1  0  0  0  0
  1 18  1  1  0  0  0
  2  4  2  0  0  0  0
  2  6  1  0  0  0  0
  4  5  1  0  0  0  0
  5  3  1  6  0  0  0
  5  1  1  0  0  0  0
  6  8  1  0  0  0  0
  8  7  1  6  0  0  0
  9 10  1  0  0  0  0
 10  4  1  0  0  0  0
 11  6  1  0  0  0  0
 11 12  1  0  0  0  0
 12 13  1  6  0  0  0
 12 14  1  0  0  0  0
 14 17  1  0  0  0  0
 14 16  1  0  0  0  0
 15 14  1  0  0  0  0
 19 21  1  0  0  0  0
 19 18  1  0  0  0  0
 20 19  2  0  0  0  0
 22 31  1  0  0  0  0
 23 30  1  0  0  0  0
 24 25  2  0  0  0  0
 25 26  1  0  0  0  0
 26 22  2  0  0  0  0
 27 28  1  0  0  0  0
 28 23  2  0  0  0  0
 28 26  1  0  0  0  0
 29 27  2  0  0  0  0
 29 24  1  0  0  0  0
 30 21  1  0  0  0  0
 30 31  2  0  0  0  0
 32 24  1  0  0  0  0
 32 34  2  0  0  0  0
 33 32  2  0  0  0  0
M  END
>  <MODEL>
8

>  <REMARK>
 VINA RESULT:      -6.6      3.369      4.310
  Name = 
  8 active torsions:
  status: ('A' for Active; 'I' for Inactive)
    1  A    between atoms: C_1  and  C_9
    2  A    between atoms: C_2  and  C_23
    3  A    between atoms: C_2  and  N_32
    4  A    between atoms: C_3  and  C_23
    5  A    between atoms: C_7  and  N_11
    6  A    between atoms: C_8  and  C_9
    7  A    between atoms: N_18  and  C_30
    8  A    between atoms: C_19  and  O_22
                            x       y       z     vdW  Elec       q    Type
                         _______ _______ _______ _____ _____    ______ ____

>  <TORSDO>
F 8

$$$$
=
 OpenBabel11052420313D

 34 36  0  0  1  0  0  0  0  0999 V2000
  194.1260  173.5490  144.5660 C   0  0  1  0  0  3  0  0  0  0  0  0
  192.6460  171.7900  142.8350 C   0  0  0  0  0  3  0  0  0  0  0  0
  195.0390  171.4170  145.4570 C   0  0  0  0  0  1  0  0  0  0  0  0
  193.0270  171.2810  144.0070 C   0  0  0  0  0  0  0  0  0  0  0  0
  193.7600  172.1260  145.0370 C   0  0  2  0  0  3  0  0  0  0  0  0
  192.8360  173.1700  142.5160 N   0  0  0  0  0  0  0  0  0  0  0  0
  193.5910  175.3270  143.0610 O   0  0  0  0  0  1  0  0  0  0  0  0
  193.1040  174.1270  143.5900 C   0  0  2  0  0  3  0  0  0  0  0  0
  192.6650  168.9460  143.2510 C   0  0  0  0  0  1  0  0  0  0  0  0
  192.6930  169.9450  144.2610 O   0  0  0  0  0  0  0  0  0  0  0  0
  192.4350  173.6270  141.1900 C   0  0  0  0  0  2  0  0  0  0  0  0
  190.9780  173.2680  140.9130 C   0  0  2  0  0  3  0  0  0  0  0  0
  190.7200  173.3570  139.5430 O   0  0  0  0  0  1  0  0  0  0  0  0
  190.0330  174.1860  141.6830 C   0  0  0  0  0  0  0  0  0  0  0  0
  188.8780  174.3910  140.9510 F   0  0  0  0  0  0  0  0  0  0  0  0
  190.6490  175.4060  141.8940 F   0  0  0  0  0  0  0  0  0  0  0  0
  189.7080  173.6260  142.9050 F   0  0  0  0  0  0  0  0  0  0  0  0
  194.2560  174.4830  145.7650 C   0  0  0  0  0  2  0  0  0  0  0  0
  193.0140  175.2810  145.9630 C   0  0  0  0  0  0  0  0  0  0  0  0
  193.1030  176.5160  146.1920 O   0  0  0  0  0  0  0  0  0  0  0  0
  191.7390  174.6290  145.8850 N   0  0  0  0  0  2  0  0  0  0  0  0
  188.3880  175.5080  147.2640 C   0  0  0  0  0  3  0  0  0  0  0  0
  189.9700  176.1490  145.0420 C   0  0  0  0  0  3  0  0  0  0  0  0
  186.1660  177.8880  145.4910 C   0  0  0  0  0  0  0  0  0  0  0  0
  186.6470  176.9870  146.4530 C   0  0  0  0  0  3  0  0  0  0  0  0
  187.9100  176.4060  146.3070 C   0  0  0  0  0  0  0  0  0  0  0  0
  188.2300  177.6260  144.2290 C   0  0  0  0  0  3  0  0  0  0  0  0
  188.7070  176.7300  145.1870 C   0  0  0  0  0  0  0  0  0  0  0  0
  186.9660  178.2030  144.3810 C   0  0  0  0  0  3  0  0  0  0  0  0
  190.4510  175.2470  146.0040 C   0  0  0  0  0  0  0  0  0  0  0  0
  189.6530  174.9330  147.1110 C   0  0  0  0  0  3  0  0  0  0  0  0
  184.8710  178.4860  145.6380 N   0  0  0  0  0  0  0  0  0  0  0  0
  184.0660  178.1460  146.7010 O   0  0  0  0  0  0  0  0  0  0  0  0
  184.4590  179.3190  144.8050 O   0  0  0  0  0  0  0  0  0  0  0  0
  1  5  1  0  0  0  0
  1 18  1  1  0  0  0
  2  4  2  0  0  0  0
  4 10  1  0  0  0  0
  4  5  1  0  0  0  0
  5  3  1  6  0  0  0
  6  2  1  0  0  0  0
  6  8  1  0  0  0  0
  8  7  1  6  0  0  0
  8  1  1  0  0  0  0
  9 10  1  0  0  0  0
 11  6  1  0  0  0  0
 12 13  1  6  0  0  0
 12 11  1  0  0  0  0
 12 14  1  0  0  0  0
 14 16  1  0  0  0  0
 14 17  1  0  0  0  0
 15 14  1  0  0  0  0
 18 19  1  0  0  0  0
 19 20  2  0  0  0  0
 21 19  1  0  0  0  0
 21 30  1  0  0  0  0
 23 28  2  0  0  0  0
 23 30  1  0  0  0  0
 24 32  1  0  0  0  0
 24 25  2  0  0  0  0
 26 25  1  0  0  0  0
 26 22  2  0  0  0  0
 27 29  2  0  0  0  0
 27 28  1  0  0  0  0
 28 26  1  0  0  0  0
 29 24  1  0  0  0  0
 30 31  2  0  0  0  0
 31 22  1  0  0  0  0
 32 33  2  0  0  0  0
 34 32  2  0  0  0  0
M  END
>  <MODEL>
9

>  <REMARK>
 VINA RESULT:      -6.5      2.454      4.043
  Name = 
  8 active torsions:
  status: ('A' for Active; 'I' for Inactive)
    1  A    between atoms: C_1  and  C_9
    2  A    between atoms: C_2  and  C_23
    3  A    between atoms: C_2  and  N_32
    4  A    between atoms: C_3  and  C_23
    5  A    between atoms: C_7  and  N_11
    6  A    between atoms: C_8  and  C_9
    7  A    between atoms: N_18  and  C_30
    8  A    between atoms: C_19  and  O_22
                            x       y       z     vdW  Elec       q    Type
                         _______ _______ _______ _____ _____    ______ ____

>  <TORSDO>
F 8

$$$$
