=
 OpenBabel11052418203D

 27 31  0  0  1  0  0  0  0  0999 V2000
  188.7280  177.5510  145.0680 C   0  0  0  0  0  2  0  0  0  0  0  0
  187.9550  176.1430  143.1610 C   0  0  0  0  0  0  0  0  0  0  0  0
  189.3660  174.5140  144.6130 C   0  0  0  0  0  2  0  0  0  0  0  0
  189.0790  173.9910  139.9010 N   0  0  0  0  0  0  0  0  0  0  0  0
  190.5730  172.1720  139.7690 O   0  0  0  0  0  0  0  0  0  0  0  0
  187.4400  176.4730  142.0000 N   0  0  0  0  0  0  0  0  0  0  0  0
  190.1090  173.1380  141.9600 C   0  0  2  0  0  3  0  0  0  0  0  0
  191.9560  175.6660  147.1690 C   0  0  0  0  0  2  0  0  0  0  0  0
  189.5080  171.9080  142.6210 C   0  0  0  0  0  1  0  0  0  0  0  0
  191.0400  176.5880  147.9540 C   0  0  1  0  0  3  0  0  0  0  0  0
  189.2230  174.3210  142.1640 C   0  0  0  0  0  0  0  0  0  0  0  0
  187.6440  176.9250  144.3250 N   0  0  0  0  0  0  0  0  0  0  0  0
  189.9660  173.0250  140.4680 C   0  0  0  0  0  0  0  0  0  0  0  0
  188.6800  174.7070  140.8930 C   0  0  0  0  0  0  0  0  0  0  0  0
  189.3890  176.5870  146.0480 C   0  0  2  0  0  3  0  0  0  0  0  0
  188.8990  174.9910  143.2760 C   0  0  0  0  0  0  0  0  0  0  0  0
  191.1120  174.7430  146.3030 C   0  0  0  0  0  2  0  0  0  0  0  0
  187.7570  175.7850  140.8100 N   0  0  0  0  0  2  0  0  0  0  0  0
  191.8060  177.4120  148.7780 O   0  0  0  0  0  1  0  0  0  0  0  0
  190.2420  177.4450  146.9840 C   0  0  0  0  0  2  0  0  0  0  0  0
  190.2500  175.5330  145.3170 C   0  0  1  0  0  3  0  0  0  0  0  0
  184.3010  178.8410  146.1940 C   0  0  0  0  0  2  0  0  0  0  0  0
  186.2760  177.3150  144.6630 C   0  0  0  0  0  3  0  0  0  0  0  0
  185.9270  176.9390  146.1050 C   0  0  0  0  0  2  0  0  0  0  0  0
  184.4900  177.3440  146.4210 C   0  0  0  0  0  2  0  0  0  0  0  0
  184.6230  179.1980  144.7470 C   0  0  0  0  0  2  0  0  0  0  0  0
  186.0620  178.8100  144.4150 C   0  0  0  0  0  2  0  0  0  0  0  0
  2 16  1  0  0  0  0
  2 12  1  0  0  0  0
  4 13  1  0  0  0  0
  4 14  2  0  0  0  0
  5 13  2  0  0  0  0
  6  2  2  0  0  0  0
  7 11  1  0  0  0  0
  7  9  1  1  0  0  0
  8 10  1  0  0  0  0
 10 19  1  1  0  0  0
 11 16  2  0  0  0  0
 12 23  1  0  0  0  0
 12  1  1  0  0  0  0
 13  7  1  0  0  0  0
 14 11  1  0  0  0  0
 15  1  1  6  0  0  0
 15 20  1  0  0  0  0
 16  3  1  0  0  0  0
 17  8  1  0  0  0  0
 18 14  1  0  0  0  0
 18  6  1  0  0  0  0
 20 10  1  0  0  0  0
 21  3  1  1  0  0  0
 21 15  1  0  0  0  0
 21 17  1  0  0  0  0
 22 25  1  0  0  0  0
 23 24  1  0  0  0  0
 24 25  1  0  0  0  0
 26 22  1  0  0  0  0
 27 23  1  0  0  0  0
 27 26  1  0  0  0  0
M  END
>  <MODEL>
1

>  <REMARK>
 VINA RESULT:      -8.8      0.000      0.000
  Name = 
  1 active torsions:
  status: ('A' for Active; 'I' for Inactive)
    1  A    between atoms: C_9  and  N_15
                            x       y       z     vdW  Elec       q    Type
                         _______ _______ _______ _____ _____    ______ ____

>  <TORSDO>
F 1

$$$$
=
 OpenBabel11052418203D

 27 31  0  0  1  0  0  0  0  0999 V2000
  188.6240  177.5360  144.2660 C   0  0  0  0  0  2  0  0  0  0  0  0
  187.3030  176.7060  142.3210 C   0  0  0  0  0  0  0  0  0  0  0  0
  188.8590  174.7120  142.9220 C   0  0  0  0  0  2  0  0  0  0  0  0
  187.4360  175.4640  138.4530 N   0  0  0  0  0  0  0  0  0  0  0  0
  188.6860  173.7050  137.5030 O   0  0  0  0  0  0  0  0  0  0  0  0
  186.5640  177.3460  141.4450 N   0  0  0  0  0  0  0  0  0  0  0  0
  188.8350  174.0680  139.9110 C   0  0  2  0  0  3  0  0  0  0  0  0
  192.0660  175.0740  144.9580 C   0  0  0  0  0  2  0  0  0  0  0  0
  188.2940  172.7240  140.3700 C   0  0  0  0  0  1  0  0  0  0  0  0
  191.4470  175.7810  146.1520 C   0  0  1  0  0  3  0  0  0  0  0  0
  188.1330  175.1780  140.6170 C   0  0  0  0  0  0  0  0  0  0  0  0
  187.3440  177.1590  143.6840 N   0  0  0  0  0  0  0  0  0  0  0  0
  188.3390  174.3590  138.5220 C   0  0  0  0  0  0  0  0  0  0  0  0
  187.3460  175.9030  139.6600 C   0  0  0  0  0  0  0  0  0  0  0  0
  189.4040  176.3300  144.7770 C   0  0  2  0  0  3  0  0  0  0  0  0
  188.1380  175.5390  141.9060 C   0  0  0  0  0  0  0  0  0  0  0  0
  190.9630  174.4370  144.1270 C   0  0  0  0  0  2  0  0  0  0  0  0
  186.5310  176.9890  140.0810 N   0  0  0  0  0  2  0  0  0  0  0  0
  192.4550  176.3360  146.9380 O   0  0  0  0  0  1  0  0  0  0  0  0
  190.5260  176.8860  145.6570 C   0  0  0  0  0  2  0  0  0  0  0  0
  189.9710  175.4840  143.6160 C   0  0  1  0  0  3  0  0  0  0  0  0
  184.7170  178.6060  146.7410 C   0  0  0  0  0  2  0  0  0  0  0  0
  186.1340  177.4830  144.4370 C   0  0  0  0  0  3  0  0  0  0  0  0
  186.0990  176.7520  145.7810 C   0  0  0  0  0  2  0  0  0  0  0  0
  184.8180  177.0970  146.5350 C   0  0  0  0  0  2  0  0  0  0  0  0
  184.7230  179.3210  145.3940 C   0  0  0  0  0  2  0  0  0  0  0  0
  186.0040  178.9960  144.6290 C   0  0  0  0  0  2  0  0  0  0  0  0
  2 12  1  0  0  0  0
  4 13  1  0  0  0  0
  4 14  2  0  0  0  0
  5 13  2  0  0  0  0
  6  2  2  0  0  0  0
  7  9  1  1  0  0  0
  7 11  1  0  0  0  0
  8 10  1  0  0  0  0
 10 19  1  1  0  0  0
 11 16  2  0  0  0  0
 12  1  1  0  0  0  0
 12 23  1  0  0  0  0
 13  7  1  0  0  0  0
 14 18  1  0  0  0  0
 14 11  1  0  0  0  0
 15  1  1  6  0  0  0
 15 20  1  0  0  0  0
 16  2  1  0  0  0  0
 16  3  1  0  0  0  0
 17  8  1  0  0  0  0
 18  6  1  0  0  0  0
 20 10  1  0  0  0  0
 21  3  1  1  0  0  0
 21 17  1  0  0  0  0
 21 15  1  0  0  0  0
 23 27  1  0  0  0  0
 23 24  1  0  0  0  0
 24 25  1  0  0  0  0
 25 22  1  0  0  0  0
 26 22  1  0  0  0  0
 27 26  1  0  0  0  0
M  END
>  <MODEL>
2

>  <REMARK>
 VINA RESULT:      -7.9      1.530      1.831
  Name = 
  1 active torsions:
  status: ('A' for Active; 'I' for Inactive)
    1  A    between atoms: C_9  and  N_15
                            x       y       z     vdW  Elec       q    Type
                         _______ _______ _______ _____ _____    ______ ____

>  <TORSDO>
F 1

$$$$
=
 OpenBabel11052418203D

 27 31  0  0  1  0  0  0  0  0999 V2000
  187.3450  176.9770  143.2460 C   0  0  0  0  0  2  0  0  0  0  0  0
  189.6510  176.0470  143.4220 C   0  0  0  0  0  0  0  0  0  0  0  0
  188.7870  176.0540  145.8730 C   0  0  0  0  0  2  0  0  0  0  0  0
  193.4000  176.6140  144.8880 N   0  0  0  0  0  0  0  0  0  0  0  0
  194.0830  176.9510  147.1190 O   0  0  0  0  0  0  0  0  0  0  0  0
  190.6490  176.0520  142.5700 N   0  0  0  0  0  0  0  0  0  0  0  0
  191.7160  176.5650  146.6750 C   0  0  2  0  0  3  0  0  0  0  0  0
  185.8800  178.2110  147.0830 C   0  0  0  0  0  2  0  0  0  0  0  0
  191.5460  175.2880  147.4810 C   0  0  0  0  0  1  0  0  0  0  0  0
  184.8660  177.7470  146.0520 C   0  0  1  0  0  3  0  0  0  0  0  0
  191.1570  176.3910  145.3030 C   0  0  0  0  0  0  0  0  0  0  0  0
  188.3040  175.9260  142.9390 N   0  0  0  0  0  0  0  0  0  0  0  0
  193.1600  176.7270  146.2930 C   0  0  0  0  0  0  0  0  0  0  0  0
  192.2400  176.4260  144.3620 C   0  0  0  0  0  0  0  0  0  0  0  0
  186.7280  176.8090  144.6300 C   0  0  2  0  0  3  0  0  0  0  0  0
  189.8980  176.2130  144.8860 C   0  0  0  0  0  0  0  0  0  0  0  0
  187.0460  177.2350  147.1110 C   0  0  0  0  0  2  0  0  0  0  0  0
  191.9880  176.2320  142.9760 N   0  0  0  0  0  2  0  0  0  0  0  0
  183.7770  178.6170  146.0460 O   0  0  0  0  0  1  0  0  0  0  0  0
  185.5170  177.7440  144.6760 C   0  0  0  0  0  2  0  0  0  0  0  0
  187.7380  177.1480  145.7490 C   0  0  1  0  0  3  0  0  0  0  0  0
  188.4970  172.8600  139.9550 C   0  0  0  0  0  2  0  0  0  0  0  0
  187.9130  174.9160  141.9570 C   0  0  0  0  0  3  0  0  0  0  0  0
  188.3870  175.2890  140.5510 C   0  0  0  0  0  2  0  0  0  0  0  0
  187.9510  174.2260  139.5470 C   0  0  0  0  0  2  0  0  0  0  0  0
  187.9940  172.4860  141.3450 C   0  0  0  0  0  2  0  0  0  0  0  0
  188.4310  173.5350  142.3650 C   0  0  0  0  0  2  0  0  0  0  0  0
  2 16  1  0  0  0  0
  4 13  1  0  0  0  0
  6 18  1  0  0  0  0
  6  2  2  0  0  0  0
  7  9  1  1  0  0  0
  8 17  1  0  0  0  0
 10 19  1  6  0  0  0
 10  8  1  0  0  0  0
 11  7  1  0  0  0  0
 12  1  1  0  0  0  0
 12  2  1  0  0  0  0
 13  7  1  0  0  0  0
 13  5  2  0  0  0  0
 14  4  2  0  0  0  0
 14 11  1  0  0  0  0
 15  1  1  6  0  0  0
 15 20  1  0  0  0  0
 15 21  1  0  0  0  0
 16 11  2  0  0  0  0
 16  3  1  0  0  0  0
 18 14  1  0  0  0  0
 20 10  1  0  0  0  0
 21  3  1  1  0  0  0
 21 17  1  0  0  0  0
 22 26  1  0  0  0  0
 23 27  1  0  0  0  0
 23 12  1  0  0  0  0
 24 23  1  0  0  0  0
 25 22  1  0  0  0  0
 25 24  1  0  0  0  0
 26 27  1  0  0  0  0
M  END
>  <MODEL>
3

>  <REMARK>
 VINA RESULT:      -7.8      2.627      5.853
  Name = 
  1 active torsions:
  status: ('A' for Active; 'I' for Inactive)
    1  A    between atoms: C_9  and  N_15
                            x       y       z     vdW  Elec       q    Type
                         _______ _______ _______ _____ _____    ______ ____

>  <TORSDO>
F 1

$$$$
=
 OpenBabel11052418203D

 27 31  0  0  1  0  0  0  0  0999 V2000
  188.0110  176.8610  141.6240 C   0  0  0  0  0  2  0  0  0  0  0  0
  189.8310  175.8910  143.0250 C   0  0  0  0  0  0  0  0  0  0  0  0
  187.7770  175.9530  144.6170 C   0  0  0  0  0  2  0  0  0  0  0  0
  192.2000  176.4110  146.2870 N   0  0  0  0  0  0  0  0  0  0  0  0
  191.5740  176.7700  148.5300 O   0  0  0  0  0  0  0  0  0  0  0  0
  191.1310  175.8640  142.8490 N   0  0  0  0  0  0  0  0  0  0  0  0
  189.8160  176.4220  146.8760 C   0  0  2  0  0  3  0  0  0  0  0  0
  184.7320  178.1830  144.0510 C   0  0  0  0  0  2  0  0  0  0  0  0
  189.2050  175.1610  147.4650 C   0  0  0  0  0  1  0  0  0  0  0  0
  184.4270  177.7220  142.6370 C   0  0  1  0  0  3  0  0  0  0  0  0
  190.0860  176.2360  145.4210 C   0  0  0  0  0  0  0  0  0  0  0  0
  188.9570  175.7880  141.8890 N   0  0  0  0  0  0  0  0  0  0  0  0
  191.2410  176.5500  147.3370 C   0  0  0  0  0  0  0  0  0  0  0  0
  191.5060  176.2360  145.2160 C   0  0  0  0  0  0  0  0  0  0  0  0
  186.7380  176.7270  142.4540 C   0  0  2  0  0  3  0  0  0  0  0  0
  189.2490  176.0760  144.3890 C   0  0  0  0  0  0  0  0  0  0  0  0
  185.6730  177.1860  144.7100 C   0  0  0  0  0  2  0  0  0  0  0  0
  192.0400  176.0250  143.9160 N   0  0  0  0  0  2  0  0  0  0  0  0
  183.5360  178.6120  142.0390 O   0  0  0  0  0  1  0  0  0  0  0  0
  185.7190  177.6840  141.8330 C   0  0  0  0  0  2  0  0  0  0  0  0
  186.9900  177.0650  143.9400 C   0  0  1  0  0  3  0  0  0  0  0  0
  188.2300  172.4940  139.2500 C   0  0  0  0  0  2  0  0  0  0  0  0
  189.1360  174.7700  140.8550 C   0  0  0  0  0  3  0  0  0  0  0  0
  189.0740  173.3580  141.4430 C   0  0  0  0  0  2  0  0  0  0  0  0
  189.2800  172.3200  140.3440 C   0  0  0  0  0  2  0  0  0  0  0  0
  188.3220  173.8940  138.6510 C   0  0  0  0  0  2  0  0  0  0  0  0
  188.1080  174.9470  139.7360 C   0  0  0  0  0  2  0  0  0  0  0  0
  1 12  1  0  0  0  0
  2 16  1  0  0  0  0
  4 13  1  0  0  0  0
  6  2  2  0  0  0  0
  6 18  1  0  0  0  0
  7 13  1  0  0  0  0
  7  9  1  1  0  0  0
  8 17  1  0  0  0  0
 10 19  1  6  0  0  0
 10  8  1  0  0  0  0
 11  7  1  0  0  0  0
 12  2  1  0  0  0  0
 13  5  2  0  0  0  0
 14 11  1  0  0  0  0
 14  4  2  0  0  0  0
 15  1  1  6  0  0  0
 15 21  1  0  0  0  0
 16  3  1  0  0  0  0
 16 11  2  0  0  0  0
 18 14  1  0  0  0  0
 20 15  1  0  0  0  0
 20 10  1  0  0  0  0
 21  3  1  1  0  0  0
 21 17  1  0  0  0  0
 22 25  1  0  0  0  0
 23 24  1  0  0  0  0
 23 12  1  0  0  0  0
 25 24  1  0  0  0  0
 26 22  1  0  0  0  0
 26 27  1  0  0  0  0
 27 23  1  0  0  0  0
M  END
>  <MODEL>
4

>  <REMARK>
 VINA RESULT:      -7.6      2.796      6.567
  Name = 
  1 active torsions:
  status: ('A' for Active; 'I' for Inactive)
    1  A    between atoms: C_9  and  N_15
                            x       y       z     vdW  Elec       q    Type
                         _______ _______ _______ _____ _____    ______ ____

>  <TORSDO>
F 1

$$$$
=
 OpenBabel11052418203D

 27 31  0  0  1  0  0  0  0  0999 V2000
  190.2520  176.7170  144.1390 C   0  0  0  0  0  2  0  0  0  0  0  0
  189.0220  175.1520  142.6380 C   0  0  0  0  0  0  0  0  0  0  0  0
  190.7350  173.6300  143.8650 C   0  0  0  0  0  2  0  0  0  0  0  0
  189.2920  172.6470  139.4480 N   0  0  0  0  0  0  0  0  0  0  0  0
  190.6940  170.7750  139.1480 O   0  0  0  0  0  0  0  0  0  0  0  0
  188.2400  175.3810  141.6090 N   0  0  0  0  0  0  0  0  0  0  0  0
  190.7910  171.9710  141.2720 C   0  0  2  0  0  3  0  0  0  0  0  0
  193.8820  174.9450  145.5770 C   0  0  0  0  0  2  0  0  0  0  0  0
  190.3610  170.8340  142.1850 C   0  0  0  0  0  1  0  0  0  0  0  0
  193.1960  175.9710  146.4600 C   0  0  1  0  0  3  0  0  0  0  0  0
  189.9920  173.1970  141.5590 C   0  0  0  0  0  0  0  0  0  0  0  0
  189.0130  176.0560  143.7540 N   0  0  0  0  0  0  0  0  0  0  0  0
  190.2850  171.7140  139.8800 C   0  0  0  0  0  0  0  0  0  0  0  0
  189.1550  173.4720  140.4260 C   0  0  0  0  0  0  0  0  0  0  0  0
  191.1260  175.8350  145.0240 C   0  0  2  0  0  3  0  0  0  0  0  0
  189.9560  173.9860  142.6400 C   0  0  0  0  0  0  0  0  0  0  0  0
  192.8440  173.9680  145.0450 C   0  0  0  0  0  2  0  0  0  0  0  0
  188.2490  174.5670  140.4570 N   0  0  0  0  0  2  0  0  0  0  0  0
  194.1470  176.8480  146.9800 O   0  0  0  0  0  1  0  0  0  0  0  0
  192.1890  176.7530  145.6290 C   0  0  0  0  0  2  0  0  0  0  0  0
  191.7720  174.6840  144.2210 C   0  0  1  0  0  3  0  0  0  0  0  0
  186.2440  178.2810  146.1460 C   0  0  0  0  0  2  0  0  0  0  0  0
  187.7740  176.5240  144.3720 C   0  0  0  0  0  3  0  0  0  0  0  0
  187.8000  176.3360  145.8900 C   0  0  0  0  0  2  0  0  0  0  0  0
  186.4880  176.8170  146.5040 C   0  0  0  0  0  2  0  0  0  0  0  0
  186.1900  178.4500  144.6310 C   0  0  0  0  0  2  0  0  0  0  0  0
  187.5000  177.9830  144.0010 C   0  0  0  0  0  2  0  0  0  0  0  0
  2 16  1  0  0  0  0
  2 12  1  0  0  0  0
  4 13  1  0  0  0  0
  4 14  2  0  0  0  0
  5 13  2  0  0  0  0
  6  2  2  0  0  0  0
  7 11  1  0  0  0  0
  7  9  1  1  0  0  0
  8 10  1  0  0  0  0
 10 19  1  6  0  0  0
 11 16  2  0  0  0  0
 12  1  1  0  0  0  0
 12 23  1  0  0  0  0
 13  7  1  0  0  0  0
 14 18  1  0  0  0  0
 14 11  1  0  0  0  0
 15  1  1  6  0  0  0
 15 20  1  0  0  0  0
 16  3  1  0  0  0  0
 17  8  1  0  0  0  0
 18  6  1  0  0  0  0
 20 10  1  0  0  0  0
 21  3  1  1  0  0  0
 21 15  1  0  0  0  0
 21 17  1  0  0  0  0
 22 25  1  0  0  0  0
 23 24  1  0  0  0  0
 24 25  1  0  0  0  0
 26 22  1  0  0  0  0
 27 23  1  0  0  0  0
 27 26  1  0  0  0  0
M  END
>  <MODEL>
5

>  <REMARK>
 VINA RESULT:      -7.6      1.574      1.909
  Name = 
  1 active torsions:
  status: ('A' for Active; 'I' for Inactive)
    1  A    between atoms: C_9  and  N_15
                            x       y       z     vdW  Elec       q    Type
                         _______ _______ _______ _____ _____    ______ ____

>  <TORSDO>
F 1

$$$$
=
 OpenBabel11052418203D

 27 31  0  0  1  0  0  0  0  0999 V2000
  186.1760  176.4850  144.2810 C   0  0  0  0  0  2  0  0  0  0  0  0
  188.4150  175.9600  145.2440 C   0  0  0  0  0  0  0  0  0  0  0  0
  188.9590  177.2550  143.0570 C   0  0  0  0  0  2  0  0  0  0  0  0
  191.8960  173.9220  144.7380 N   0  0  0  0  0  0  0  0  0  0  0  0
  193.4290  174.0290  142.9510 O   0  0  0  0  0  0  0  0  0  0  0  0
  188.7730  175.1130  146.1810 N   0  0  0  0  0  0  0  0  0  0  0  0
  191.4830  175.4970  142.9000 C   0  0  2  0  0  3  0  0  0  0  0  0
  186.5000  177.6480  140.1660 C   0  0  0  0  0  2  0  0  0  0  0  0
  192.2120  176.8300  142.9050 C   0  0  0  0  0  1  0  0  0  0  0  0
  185.3530  178.2230  140.9780 C   0  0  1  0  0  3  0  0  0  0  0  0
  190.4190  175.4840  143.9460 C   0  0  0  0  0  0  0  0  0  0  0  0
  187.1560  176.6440  145.3450 N   0  0  0  0  0  0  0  0  0  0  0  0
  192.3700  174.4390  143.4930 C   0  0  0  0  0  0  0  0  0  0  0  0
  190.7880  174.5380  144.9600 C   0  0  0  0  0  0  0  0  0  0  0  0
  186.4440  177.4190  143.1050 C   0  0  2  0  0  3  0  0  0  0  0  0
  189.2830  176.1840  144.0480 C   0  0  0  0  0  0  0  0  0  0  0  0
  187.7830  177.7450  140.9750 C   0  0  0  0  0  2  0  0  0  0  0  0
  189.9660  174.3640  146.1070 N   0  0  0  0  0  2  0  0  0  0  0  0
  184.1790  178.1690  140.2270 O   0  0  0  0  0  1  0  0  0  0  0  0
  185.1770  177.4030  142.2470 C   0  0  0  0  0  2  0  0  0  0  0  0
  187.6770  176.9700  142.2910 C   0  0  1  0  0  3  0  0  0  0  0  0
  186.0180  179.6570  148.1680 C   0  0  0  0  0  2  0  0  0  0  0  0
  186.7210  177.3020  146.5760 C   0  0  0  0  0  3  0  0  0  0  0  0
  187.7980  178.2430  147.1190 C   0  0  0  0  0  2  0  0  0  0  0  0
  187.3210  178.9010  148.4100 C   0  0  0  0  0  2  0  0  0  0  0  0
  184.9440  178.7020  147.6560 C   0  0  0  0  0  2  0  0  0  0  0  0
  185.4000  178.0430  146.3570 C   0  0  0  0  0  2  0  0  0  0  0  0
  1 12  1  0  0  0  0
  2 12  1  0  0  0  0
  2  6  2  0  0  0  0
  3 16  1  0  0  0  0
  4 14  2  0  0  0  0
  5 13  2  0  0  0  0
  7  9  1  1  0  0  0
  7 13  1  0  0  0  0
  7 11  1  0  0  0  0
  8 17  1  0  0  0  0
  8 10  1  0  0  0  0
 10 19  1  6  0  0  0
 10 20  1  0  0  0  0
 11 16  2  0  0  0  0
 11 14  1  0  0  0  0
 12 23  1  0  0  0  0
 13  4  1  0  0  0  0
 14 18  1  0  0  0  0
 15 20  1  6  0  0  0
 15  1  1  0  0  0  0
 16  2  1  0  0  0  0
 18  6  1  0  0  0  0
 21 17  1  6  0  0  0
 21  3  1  0  0  0  0
 21 15  1  0  0  0  0
 22 25  1  0  0  0  0
 23 24  1  0  0  0  0
 24 25  1  0  0  0  0
 26 22  1  0  0  0  0
 27 23  1  0  0  0  0
 27 26  1  0  0  0  0
M  END
>  <MODEL>
6

>  <REMARK>
 VINA RESULT:      -7.5      3.115      5.077
  Name = 
  1 active torsions:
  status: ('A' for Active; 'I' for Inactive)
    1  A    between atoms: C_9  and  N_15
                            x       y       z     vdW  Elec       q    Type
                         _______ _______ _______ _____ _____    ______ ____

>  <TORSDO>
F 1

$$$$
=
 OpenBabel11052418203D

 27 31  0  0  1  0  0  0  0  0999 V2000
  188.3910  175.1580  143.3730 C   0  0  0  0  0  2  0  0  0  0  0  0
  190.1320  176.2610  144.7760 C   0  0  0  0  0  0  0  0  0  0  0  0
  191.4230  175.5090  142.6490 C   0  0  0  0  0  2  0  0  0  0  0  0
  193.5750  175.7510  146.8770 N   0  0  0  0  0  0  0  0  0  0  0  0
  195.6510  174.9160  146.1380 O   0  0  0  0  0  0  0  0  0  0  0  0
  190.1320  176.5940  146.0460 N   0  0  0  0  0  0  0  0  0  0  0  0
  193.8450  175.1360  144.5140 C   0  0  2  0  0  3  0  0  0  0  0  0
  190.1770  172.7960  140.2710 C   0  0  0  0  0  2  0  0  0  0  0  0
  194.5120  176.1270  143.5750 C   0  0  0  0  0  1  0  0  0  0  0  0
  188.8090  173.3990  140.0050 C   0  0  1  0  0  3  0  0  0  0  0  0
  192.4740  175.6040  144.8720 C   0  0  0  0  0  0  0  0  0  0  0  0
  188.9170  176.3530  144.0160 N   0  0  0  0  0  0  0  0  0  0  0  0
  194.4640  175.2450  145.8790 C   0  0  0  0  0  0  0  0  0  0  0  0
  192.4570  175.9410  146.2670 C   0  0  0  0  0  0  0  0  0  0  0  0
  189.0600  174.8830  142.0300 C   0  0  2  0  0  3  0  0  0  0  0  0
  191.3730  175.7420  144.1250 C   0  0  0  0  0  0  0  0  0  0  0  0
  191.0790  173.8540  140.8880 C   0  0  0  0  0  2  0  0  0  0  0  0
  191.2760  176.4650  146.8610 N   0  0  0  0  0  2  0  0  0  0  0  0
  187.9880  172.4450  139.4060 O   0  0  0  0  0  1  0  0  0  0  0  0
  188.1910  173.8400  141.3240 C   0  0  0  0  0  2  0  0  0  0  0  0
  190.5080  174.3760  142.2090 C   0  0  1  0  0  3  0  0  0  0  0  0
  185.4690  178.8890  143.8550 C   0  0  0  0  0  2  0  0  0  0  0  0
  188.0590  177.5370  144.0530 C   0  0  0  0  0  3  0  0  0  0  0  0
  187.3980  177.7920  142.6970 C   0  0  0  0  0  2  0  0  0  0  0  0
  186.5240  179.0410  142.7630 C   0  0  0  0  0  2  0  0  0  0  0  0
  186.1410  178.6650  145.2070 C   0  0  0  0  0  2  0  0  0  0  0  0
  187.0120  177.4130  145.1620 C   0  0  0  0  0  2  0  0  0  0  0  0
  1 12  1  0  0  0  0
  2  6  2  0  0  0  0
  3 16  1  0  0  0  0
  6 18  1  0  0  0  0
  7  9  1  6  0  0  0
  7 11  1  0  0  0  0
  7 13  1  0  0  0  0
  8 17  1  0  0  0  0
 10 19  1  1  0  0  0
 10  8  1  0  0  0  0
 10 20  1  0  0  0  0
 11 14  1  0  0  0  0
 12 23  1  0  0  0  0
 12  2  1  0  0  0  0
 13  5  2  0  0  0  0
 13  4  1  0  0  0  0
 14 18  1  0  0  0  0
 14  4  2  0  0  0  0
 15 20  1  1  0  0  0
 15 21  1  0  0  0  0
 15  1  1  0  0  0  0
 16  2  1  0  0  0  0
 16 11  2  0  0  0  0
 21 17  1  6  0  0  0
 21  3  1  0  0  0  0
 22 26  1  0  0  0  0
 23 27  1  0  0  0  0
 24 25  1  0  0  0  0
 24 23  1  0  0  0  0
 25 22  1  0  0  0  0
 27 26  1  0  0  0  0
M  END
>  <MODEL>
7

>  <REMARK>
 VINA RESULT:      -7.4      2.587      5.663
  Name = 
  1 active torsions:
  status: ('A' for Active; 'I' for Inactive)
    1  A    between atoms: C_9  and  N_15
                            x       y       z     vdW  Elec       q    Type
                         _______ _______ _______ _____ _____    ______ ____

>  <TORSDO>
F 1

$$$$
=
 OpenBabel11052418203D

 27 31  0  0  1  0  0  0  0  0999 V2000
  189.0880  176.0130  146.2570 C   0  0  0  0  0  2  0  0  0  0  0  0
  190.0860  174.9260  144.2480 C   0  0  0  0  0  0  0  0  0  0  0  0
  188.1250  176.3380  143.2900 C   0  0  0  0  0  2  0  0  0  0  0  0
  189.4920  172.2940  141.2080 N   0  0  0  0  0  0  0  0  0  0  0  0
  187.8180  172.2990  139.5490 O   0  0  0  0  0  0  0  0  0  0  0  0
  190.9180  173.9170  144.1380 N   0  0  0  0  0  0  0  0  0  0  0  0
  187.8630  174.1310  141.1580 C   0  0  2  0  0  3  0  0  0  0  0  0
  185.1890  177.5740  145.3920 C   0  0  0  0  0  2  0  0  0  0  0  0
  188.0850  175.2750  140.1830 C   0  0  0  0  0  1  0  0  0  0  0  0
  186.0100  178.2700  146.4630 C   0  0  1  0  0  3  0  0  0  0  0  0
  188.8410  174.2100  142.2820 C   0  0  0  0  0  0  0  0  0  0  0  0
  190.2130  175.8370  145.3510 N   0  0  0  0  0  0  0  0  0  0  0  0
  188.3540  172.8490  140.5460 C   0  0  0  0  0  0  0  0  0  0  0  0
  189.7370  173.0920  142.1870 C   0  0  0  0  0  0  0  0  0  0  0  0
  188.0640  177.0070  145.7200 C   0  0  2  0  0  3  0  0  0  0  0  0
  188.9780  175.1100  143.2620 C   0  0  0  0  0  0  0  0  0  0  0  0
  186.0690  177.3070  144.1810 C   0  0  0  0  0  2  0  0  0  0  0  0
  190.8060  172.9530  143.1140 N   0  0  0  0  0  2  0  0  0  0  0  0
  185.1990  178.5500  147.5620 O   0  0  0  0  0  1  0  0  0  0  0  0
  187.1470  177.3560  146.8940 C   0  0  0  0  0  2  0  0  0  0  0  0
  187.2610  176.4160  144.5400 C   0  0  1  0  0  3  0  0  0  0  0  0
  194.4080  176.3390  146.0520 C   0  0  0  0  0  2  0  0  0  0  0  0
  191.4970  176.4160  145.7430 C   0  0  0  0  0  3  0  0  0  0  0  0
  192.1560  175.6100  146.8650 C   0  0  0  0  0  2  0  0  0  0  0  0
  193.4840  176.2470  147.2620 C   0  0  0  0  0  2  0  0  0  0  0  0
  193.7540  177.1700  144.9520 C   0  0  0  0  0  2  0  0  0  0  0  0
  192.4270  176.5400  144.5340 C   0  0  0  0  0  2  0  0  0  0  0  0
  2 12  1  0  0  0  0
  4 14  2  0  0  0  0
  5 13  2  0  0  0  0
  6  2  2  0  0  0  0
  7  9  1  6  0  0  0
  7 11  1  0  0  0  0
  8 10  1  0  0  0  0
 10 20  1  0  0  0  0
 10 19  1  1  0  0  0
 11 16  2  0  0  0  0
 12 23  1  0  0  0  0
 12  1  1  0  0  0  0
 13  7  1  0  0  0  0
 13  4  1  0  0  0  0
 14 11  1  0  0  0  0
 14 18  1  0  0  0  0
 15  1  1  1  0  0  0
 15 20  1  0  0  0  0
 16  3  1  0  0  0  0
 16  2  1  0  0  0  0
 17 21  1  0  0  0  0
 17  8  1  0  0  0  0
 18  6  1  0  0  0  0
 21  3  1  6  0  0  0
 21 15  1  0  0  0  0
 22 25  1  0  0  0  0
 23 24  1  0  0  0  0
 24 25  1  0  0  0  0
 26 22  1  0  0  0  0
 27 26  1  0  0  0  0
 27 23  1  0  0  0  0
M  END
>  <MODEL>
8

>  <REMARK>
 VINA RESULT:      -7.2      2.335      5.098
  Name = 
  1 active torsions:
  status: ('A' for Active; 'I' for Inactive)
    1  A    between atoms: C_9  and  N_15
                            x       y       z     vdW  Elec       q    Type
                         _______ _______ _______ _____ _____    ______ ____

>  <TORSDO>
F 1

$$$$
=
 OpenBabel11052418203D

 27 31  0  0  1  0  0  0  0  0999 V2000
  187.4870  174.9750  142.2990 C   0  0  0  0  0  2  0  0  0  0  0  0
  188.4290  176.5050  144.0270 C   0  0  0  0  0  0  0  0  0  0  0  0
  190.4980  175.7870  142.6290 C   0  0  0  0  0  2  0  0  0  0  0  0
  190.8900  176.8300  147.2460 N   0  0  0  0  0  0  0  0  0  0  0  0
  193.1820  176.3080  147.4170 O   0  0  0  0  0  0  0  0  0  0  0  0
  187.9170  176.9570  145.1480 N   0  0  0  0  0  0  0  0  0  0  0  0
  192.0890  176.0400  145.2540 C   0  0  2  0  0  3  0  0  0  0  0  0
  190.5820  172.6730  140.4250 C   0  0  0  0  0  2  0  0  0  0  0  0
  192.9200  177.0350  144.4610 C   0  0  0  0  0  1  0  0  0  0  0  0
  189.3420  172.9920  139.6080 C   0  0  1  0  0  3  0  0  0  0  0  0
  190.6340  176.2890  145.0340 C   0  0  0  0  0  0  0  0  0  0  0  0
  187.5780  176.3030  142.8870 N   0  0  0  0  0  0  0  0  0  0  0  0
  192.1420  176.3930  146.7130 C   0  0  0  0  0  0  0  0  0  0  0  0
  190.0600  176.7550  146.2640 C   0  0  0  0  0  0  0  0  0  0  0  0
  188.6330  174.6910  141.3340 C   0  0  2  0  0  3  0  0  0  0  0  0
  189.8780  176.1540  143.9380 C   0  0  0  0  0  0  0  0  0  0  0  0
  191.0460  173.9300  141.1420 C   0  0  0  0  0  2  0  0  0  0  0  0
  188.6870  177.1160  146.3190 N   0  0  0  0  0  2  0  0  0  0  0  0
  188.9320  171.8520  138.9190 O   0  0  0  0  0  1  0  0  0  0  0  0
  188.2300  173.4440  140.5430 C   0  0  0  0  0  2  0  0  0  0  0  0
  189.9660  174.4710  142.0820 C   0  0  1  0  0  3  0  0  0  0  0  0
  184.1080  178.1520  141.1890 C   0  0  0  0  0  2  0  0  0  0  0  0
  186.6210  177.3120  142.4370 C   0  0  0  0  0  3  0  0  0  0  0  0
  186.4360  177.2700  140.9180 C   0  0  0  0  0  2  0  0  0  0  0  0
  185.4450  178.3440  140.4780 C   0  0  0  0  0  2  0  0  0  0  0  0
  184.3010  178.2250  142.7000 C   0  0  0  0  0  2  0  0  0  0  0  0
  185.2820  177.1500  143.1600 C   0  0  0  0  0  2  0  0  0  0  0  0
  1 12  1  0  0  0  0
  2  6  2  0  0  0  0
  3 16  1  0  0  0  0
  6 18  1  0  0  0  0
  7  9  1  6  0  0  0
  7 13  1  0  0  0  0
  8 17  1  0  0  0  0
 10 19  1  1  0  0  0
 10  8  1  0  0  0  0
 10 20  1  0  0  0  0
 11  7  1  0  0  0  0
 11 14  1  0  0  0  0
 12  2  1  0  0  0  0
 13  4  1  0  0  0  0
 13  5  2  0  0  0  0
 14 18  1  0  0  0  0
 14  4  2  0  0  0  0
 15 20  1  1  0  0  0
 15 21  1  0  0  0  0
 15  1  1  0  0  0  0
 16  2  1  0  0  0  0
 16 11  2  0  0  0  0
 21 17  1  6  0  0  0
 21  3  1  0  0  0  0
 22 26  1  0  0  0  0
 23 12  1  0  0  0  0
 23 27  1  0  0  0  0
 24 23  1  0  0  0  0
 25 24  1  0  0  0  0
 25 22  1  0  0  0  0
 26 27  1  0  0  0  0
M  END
>  <MODEL>
9

>  <REMARK>
 VINA RESULT:      -7.1      2.082      5.771
  Name = 
  1 active torsions:
  status: ('A' for Active; 'I' for Inactive)
    1  A    between atoms: C_9  and  N_15
                            x       y       z     vdW  Elec       q    Type
                         _______ _______ _______ _____ _____    ______ ____

>  <TORSDO>
F 1

$$$$
