=
 OpenBabel11052418483D

 34 39  0  0  1  0  0  0  0  0999 V2000
  187.0470  177.4590  145.2160 C   0  0  0  0  0  0  0  0  0  0  0  0
  187.8800  178.0550  143.0070 C   0  0  0  0  0  0  0  0  0  0  0  0
  189.1890  176.3700  144.3660 C   0  0  1  0  0  3  0  0  0  0  0  0
  189.5500  173.9150  144.0130 N   0  0  0  0  0  0  0  0  0  0  0  0
  185.8070  179.0070  143.8210 C   0  0  0  0  0  3  0  0  0  0  0  0
  186.7720  178.8860  142.8210 C   0  0  0  0  0  3  0  0  0  0  0  0
  188.4650  174.9420  142.3350 C   0  0  0  0  0  3  0  0  0  0  0  0
  188.0210  177.3180  144.1990 C   0  0  0  0  0  0  0  0  0  0  0  0
  189.3160  172.9860  143.0740 C   0  0  0  0  0  3  0  0  0  0  0  0
  185.9520  178.3060  145.0190 C   0  0  0  0  0  3  0  0  0  0  0  0
  189.4930  176.0790  145.8500 C   0  0  2  0  0  3  0  0  0  0  0  0
  187.2230  176.8420  146.5760 C   0  0  0  0  0  2  0  0  0  0  0  0
  188.8380  177.9710  142.0020 O   0  0  0  0  0  1  0  0  0  0  0  0
  190.1750  173.6670  145.3090 C   0  0  0  0  0  2  0  0  0  0  0  0
  190.5550  174.9790  146.0160 C   0  0  1  0  0  3  0  0  0  0  0  0
  188.6570  173.6060  142.0310 C   0  0  0  0  0  0  0  0  0  0  0  0
  189.0190  175.0820  143.5960 C   0  0  0  0  0  0  0  0  0  0  0  0
  188.2120  175.6820  146.5780 C   0  0  0  0  0  2  0  0  0  0  0  0
  193.9300  176.7500  146.1310 C   0  0  0  0  0  0  0  0  0  0  0  0
  194.5150  176.2820  144.9520 C   0  0  0  0  0  3  0  0  0  0  0  0
  191.9330  175.4520  145.6560 C   0  0  0  0  0  0  0  0  0  0  0  0
  193.8150  175.3970  144.1260 C   0  0  0  0  0  3  0  0  0  0  0  0
  192.6430  176.3360  146.4840 C   0  0  0  0  0  3  0  0  0  0  0  0
  192.5270  174.9820  144.4810 C   0  0  0  0  0  3  0  0  0  0  0  0
  194.6110  177.6050  146.9340 F   0  0  0  0  0  0  0  0  0  0  0  0
  188.2080  172.9410  140.7790 C   0  0  0  0  0  2  0  0  0  0  0  0
  189.0950  173.2660  139.7190 O   0  0  0  0  0  0  0  0  0  0  0  0
  189.2790  174.1850  136.6390 S   0  0  0  0  0  0  0  0  0  0  0  0
  189.4890  172.3760  138.7100 C   0  0  0  0  0  0  0  0  0  0  0  0
  189.4250  172.6730  137.2490 C   0  0  0  0  0  0  0  0  0  0  0  0
  189.9480  170.3560  136.7190 C   0  0  0  0  0  3  0  0  0  0  0  0
  190.4240  170.1310  138.1290 C   0  0  0  0  0  2  0  0  0  0  0  0
  189.9180  171.1700  139.0970 C   0  0  0  0  0  3  0  0  0  0  0  0
  189.5330  171.5530  136.3020 C   0  0  0  0  0  3  0  0  0  0  0  0
  1 12  1  0  0  0  0
  2  8  1  0  0  0  0
  3 17  1  6  0  0  0
  3 11  1  0  0  0  0
  4 14  1  0  0  0  0
  5 10  2  0  0  0  0
  6  2  2  0  0  0  0
  6  5  1  0  0  0  0
  7 17  2  0  0  0  0
  8  3  1  0  0  0  0
  8  1  2  0  0  0  0
  9  4  1  0  0  0  0
 10  1  1  0  0  0  0
 11 15  1  0  0  0  0
 11 18  1  1  0  0  0
 12 18  1  0  0  0  0
 13  2  1  0  0  0  0
 14 15  1  0  0  0  0
 15 21  1  6  0  0  0
 16  7  1  0  0  0  0
 16  9  2  0  0  0  0
 17  4  1  0  0  0  0
 19 23  1  0  0  0  0
 19 25  1  0  0  0  0
 20 19  2  0  0  0  0
 21 23  2  0  0  0  0
 22 24  2  0  0  0  0
 22 20  1  0  0  0  0
 24 21  1  0  0  0  0
 26 16  1  0  0  0  0
 27 26  1  0  0  0  0
 28 30  2  0  0  0  0
 29 33  2  0  0  0  0
 29 27  1  0  0  0  0
 30 29  1  0  0  0  0
 31 32  1  0  0  0  0
 32 33  1  0  0  0  0
 34 31  2  0  0  0  0
 34 30  1  0  0  0  0
M  END
>  <MODEL>
1

>  <REMARK>
 VINA RESULT:      -8.9      0.000      0.000
  Name = 
  4 active torsions:
  status: ('A' for Active; 'I' for Inactive)
    1  A    between atoms: O_3  and  C_13
    2  A    between atoms: O_3  and  C_17
    3  A    between atoms: C_12  and  C_28
    4  A    between atoms: C_17  and  C_29
                            x       y       z     vdW  Elec       q    Type
                         _______ _______ _______ _____ _____    ______ ____

>  <TORSDO>
F 4

$$$$
=
 OpenBabel11052418483D

 34 39  0  0  1  0  0  0  0  0999 V2000
  186.9000  177.6210  145.2110 C   0  0  0  0  0  0  0  0  0  0  0  0
  187.7550  178.1250  142.9870 C   0  0  0  0  0  0  0  0  0  0  0  0
  189.1000  176.5710  144.4640 C   0  0  1  0  0  3  0  0  0  0  0  0
  189.5620  174.1170  144.2570 N   0  0  0  0  0  0  0  0  0  0  0  0
  185.6310  179.0380  143.7080 C   0  0  0  0  0  3  0  0  0  0  0  0
  186.6210  178.9000  142.7340 C   0  0  0  0  0  3  0  0  0  0  0  0
  188.4730  175.0050  142.5030 C   0  0  0  0  0  3  0  0  0  0  0  0
  187.9000  177.4620  144.2220 C   0  0  0  0  0  0  0  0  0  0  0  0
  189.3830  173.1280  143.3680 C   0  0  0  0  0  3  0  0  0  0  0  0
  185.7780  178.4110  144.9460 C   0  0  0  0  0  3  0  0  0  0  0  0
  189.3840  176.3750  145.9670 C   0  0  2  0  0  3  0  0  0  0  0  0
  187.0720  177.0880  146.6070 C   0  0  0  0  0  2  0  0  0  0  0  0
  188.7370  178.0220  142.0070 O   0  0  0  0  0  1  0  0  0  0  0  0
  190.1690  173.9660  145.5760 C   0  0  0  0  0  2  0  0  0  0  0  0
  190.4840  175.3290  146.2150 C   0  0  1  0  0  3  0  0  0  0  0  0
  188.7220  173.6630  142.2790 C   0  0  0  0  0  0  0  0  0  0  0  0
  188.9950  175.2370  143.7650 C   0  0  0  0  0  0  0  0  0  0  0  0
  188.1040  175.9700  146.6930 C   0  0  0  0  0  2  0  0  0  0  0  0
  193.5820  176.3120  144.2190 C   0  0  0  0  0  0  0  0  0  0  0  0
  194.3980  176.8210  145.2320 C   0  0  0  0  0  3  0  0  0  0  0  0
  191.8500  175.8360  145.8540 C   0  0  0  0  0  0  0  0  0  0  0  0
  193.9430  176.8430  146.5540 C   0  0  0  0  0  3  0  0  0  0  0  0
  192.3100  175.8220  144.5280 C   0  0  0  0  0  3  0  0  0  0  0  0
  192.6700  176.3530  146.8620 C   0  0  0  0  0  3  0  0  0  0  0  0
  194.0210  176.2960  142.9370 F   0  0  0  0  0  0  0  0  0  0  0  0
  188.3240  172.9110  141.0590 C   0  0  0  0  0  2  0  0  0  0  0  0
  189.4710  172.3180  140.4680 O   0  0  0  0  0  0  0  0  0  0  0  0
  188.8310  173.6290  137.5960 S   0  0  0  0  0  0  0  0  0  0  0  0
  190.4480  173.0200  139.7470 C   0  0  0  0  0  0  0  0  0  0  0  0
  190.2830  173.4950  138.3420 C   0  0  0  0  0  0  0  0  0  0  0  0
  192.6380  174.0980  138.2310 C   0  0  0  0  0  3  0  0  0  0  0  0
  192.7360  174.0260  139.7310 C   0  0  0  0  0  2  0  0  0  0  0  0
  191.6150  173.2410  140.3620 C   0  0  0  0  0  3  0  0  0  0  0  0
  191.4830  173.9000  137.5950 C   0  0  0  0  0  3  0  0  0  0  0  0
  1 12  1  0  0  0  0
  2  8  1  0  0  0  0
  3 17  1  1  0  0  0
  3 11  1  0  0  0  0
  4 14  1  0  0  0  0
  5 10  2  0  0  0  0
  6  2  2  0  0  0  0
  6  5  1  0  0  0  0
  7 17  2  0  0  0  0
  8  3  1  0  0  0  0
  8  1  2  0  0  0  0
  9  4  1  0  0  0  0
 10  1  1  0  0  0  0
 11 15  1  0  0  0  0
 11 18  1  1  0  0  0
 12 18  1  0  0  0  0
 13  2  1  0  0  0  0
 14 15  1  0  0  0  0
 15 21  1  6  0  0  0
 16  7  1  0  0  0  0
 16  9  2  0  0  0  0
 17  4  1  0  0  0  0
 19 23  2  0  0  0  0
 19 20  1  0  0  0  0
 20 22  2  0  0  0  0
 21 24  2  0  0  0  0
 22 24  1  0  0  0  0
 23 21  1  0  0  0  0
 25 19  1  0  0  0  0
 26 16  1  0  0  0  0
 27 26  1  0  0  0  0
 28 30  2  0  0  0  0
 29 33  2  0  0  0  0
 29 27  1  0  0  0  0
 30 29  1  0  0  0  0
 31 32  1  0  0  0  0
 32 33  1  0  0  0  0
 34 31  2  0  0  0  0
 34 30  1  0  0  0  0
M  END
>  <MODEL>
2

>  <REMARK>
 VINA RESULT:      -8.9      1.442      1.864
  Name = 
  4 active torsions:
  status: ('A' for Active; 'I' for Inactive)
    1  A    between atoms: O_3  and  C_13
    2  A    between atoms: O_3  and  C_17
    3  A    between atoms: C_12  and  C_28
    4  A    between atoms: C_17  and  C_29
                            x       y       z     vdW  Elec       q    Type
                         _______ _______ _______ _____ _____    ______ ____

>  <TORSDO>
F 4

$$$$
=
 OpenBabel11052418483D

 34 39  0  0  1  0  0  0  0  0999 V2000
  191.8600  177.0470  144.8420 C   0  0  0  0  0  0  0  0  0  0  0  0
  190.9170  175.3750  146.3420 C   0  0  0  0  0  0  0  0  0  0  0  0
  189.3880  176.4560  144.6390 C   0  0  1  0  0  3  0  0  0  0  0  0
  188.2670  175.4990  142.6130 N   0  0  0  0  0  0  0  0  0  0  0  0
  193.2770  175.9100  146.4470 C   0  0  0  0  0  3  0  0  0  0  0  0
  192.1800  175.1800  146.9060 C   0  0  0  0  0  3  0  0  0  0  0  0
  189.3420  173.9840  143.8780 C   0  0  0  0  0  3  0  0  0  0  0  0
  190.7460  176.2980  145.2910 C   0  0  0  0  0  0  0  0  0  0  0  0
  188.0710  174.3020  142.0380 C   0  0  0  0  0  3  0  0  0  0  0  0
  193.1130  176.8490  145.4280 C   0  0  0  0  0  3  0  0  0  0  0  0
  189.2390  177.8180  143.9300 C   0  0  2  0  0  3  0  0  0  0  0  0
  191.7160  178.1680  143.8510 C   0  0  0  0  0  2  0  0  0  0  0  0
  189.8370  174.6500  146.8330 O   0  0  0  0  0  1  0  0  0  0  0  0
  187.8000  176.7760  142.0820 C   0  0  0  0  0  2  0  0  0  0  0  0
  187.9370  177.9050  143.1170 C   0  0  1  0  0  3  0  0  0  0  0  0
  188.7190  173.3590  142.8120 C   0  0  0  0  0  0  0  0  0  0  0  0
  189.0510  175.3260  143.6960 C   0  0  0  0  0  0  0  0  0  0  0  0
  190.4400  178.0690  143.0230 C   0  0  0  0  0  2  0  0  0  0  0  0
  185.2470  177.2070  145.7300 C   0  0  0  0  0  0  0  0  0  0  0  0
  184.4630  178.3580  145.6150 C   0  0  0  0  0  3  0  0  0  0  0  0
  186.7230  178.0400  143.9900 C   0  0  0  0  0  0  0  0  0  0  0  0
  184.8070  179.3520  144.6940 C   0  0  0  0  0  3  0  0  0  0  0  0
  186.3750  177.0490  144.9210 C   0  0  0  0  0  3  0  0  0  0  0  0
  185.9370  179.1930  143.8860 C   0  0  0  0  0  3  0  0  0  0  0  0
  184.9160  176.2460  146.6260 F   0  0  0  0  0  0  0  0  0  0  0  0
  188.7570  171.8980  142.5370 C   0  0  0  0  0  2  0  0  0  0  0  0
  190.0600  171.5240  142.1140 O   0  0  0  0  0  0  0  0  0  0  0  0
  192.8090  173.1750  142.4040 S   0  0  0  0  0  0  0  0  0  0  0  0
  190.7170  172.0570  140.9960 C   0  0  0  0  0  0  0  0  0  0  0  0
  191.8880  172.9810  141.0650 C   0  0  0  0  0  0  0  0  0  0  0  0
  191.7420  173.3990  138.6720 C   0  0  0  0  0  3  0  0  0  0  0  0
  190.8630  172.1900  138.5040 C   0  0  0  0  0  2  0  0  0  0  0  0
  190.2290  171.7350  139.7940 C   0  0  0  0  0  3  0  0  0  0  0  0
  192.2570  173.7330  139.8560 C   0  0  0  0  0  3  0  0  0  0  0  0
  1  8  2  0  0  0  0
  1 10  1  0  0  0  0
  2 13  1  0  0  0  0
  2  6  2  0  0  0  0
  3 17  1  6  0  0  0
  3  8  1  0  0  0  0
  4 17  1  0  0  0  0
  5  6  1  0  0  0  0
  8  2  1  0  0  0  0
  9  4  1  0  0  0  0
  9 16  2  0  0  0  0
 10  5  2  0  0  0  0
 11 18  1  6  0  0  0
 11  3  1  0  0  0  0
 12  1  1  0  0  0  0
 14  4  1  0  0  0  0
 14 15  1  0  0  0  0
 15 11  1  0  0  0  0
 15 21  1  1  0  0  0
 16  7  1  0  0  0  0
 17  7  2  0  0  0  0
 18 12  1  0  0  0  0
 19 25  1  0  0  0  0
 20 19  1  0  0  0  0
 21 23  1  0  0  0  0
 22 20  2  0  0  0  0
 23 19  2  0  0  0  0
 24 21  2  0  0  0  0
 24 22  1  0  0  0  0
 26 16  1  0  0  0  0
 27 26  1  0  0  0  0
 29 30  1  0  0  0  0
 29 27  1  0  0  0  0
 30 28  2  0  0  0  0
 31 34  2  0  0  0  0
 32 31  1  0  0  0  0
 32 33  1  0  0  0  0
 33 29  2  0  0  0  0
 34 30  1  0  0  0  0
M  END
>  <MODEL>
3

>  <REMARK>
 VINA RESULT:      -8.8      2.831      5.573
  Name = 
  4 active torsions:
  status: ('A' for Active; 'I' for Inactive)
    1  A    between atoms: O_3  and  C_13
    2  A    between atoms: O_3  and  C_17
    3  A    between atoms: C_12  and  C_28
    4  A    between atoms: C_17  and  C_29
                            x       y       z     vdW  Elec       q    Type
                         _______ _______ _______ _____ _____    ______ ____

>  <TORSDO>
F 4

$$$$
=
 OpenBabel11052418483D

 34 39  0  0  1  0  0  0  0  0999 V2000
  187.0600  177.4730  145.2110 C   0  0  0  0  0  0  0  0  0  0  0  0
  187.9500  178.0500  143.0180 C   0  0  0  0  0  0  0  0  0  0  0  0
  189.2160  176.3670  144.4210 C   0  0  1  0  0  3  0  0  0  0  0  0
  189.5720  173.9080  144.0930 N   0  0  0  0  0  0  0  0  0  0  0  0
  185.8630  179.0180  143.7750 C   0  0  0  0  0  3  0  0  0  0  0  0
  186.8510  178.8850  142.8000 C   0  0  0  0  0  3  0  0  0  0  0  0
  188.5340  174.9290  142.3820 C   0  0  0  0  0  3  0  0  0  0  0  0
  188.0580  177.3200  144.2190 C   0  0  0  0  0  0  0  0  0  0  0  0
  189.3560  172.9730  143.1560 C   0  0  0  0  0  3  0  0  0  0  0  0
  185.9750  178.3240  144.9810 C   0  0  0  0  0  3  0  0  0  0  0  0
  189.4820  176.0850  145.9140 C   0  0  2  0  0  3  0  0  0  0  0  0
  187.1990  176.8650  146.5790 C   0  0  0  0  0  2  0  0  0  0  0  0
  188.9320  177.9530  142.0380 O   0  0  0  0  0  1  0  0  0  0  0  0
  190.1640  173.6660  145.4060 C   0  0  0  0  0  2  0  0  0  0  0  0
  190.5340  174.9800  146.1130 C   0  0  1  0  0  3  0  0  0  0  0  0
  188.7260  173.5900  142.0920 C   0  0  0  0  0  0  0  0  0  0  0  0
  189.0580  175.0750  143.6560 C   0  0  0  0  0  0  0  0  0  0  0  0
  188.1810  175.7000  146.6130 C   0  0  0  0  0  2  0  0  0  0  0  0
  193.8920  176.7820  146.2660 C   0  0  0  0  0  0  0  0  0  0  0  0
  194.5270  176.2540  145.1400 C   0  0  0  0  0  3  0  0  0  0  0  0
  191.9230  175.4440  145.7840 C   0  0  0  0  0  0  0  0  0  0  0  0
  193.8660  175.3200  144.3370 C   0  0  0  0  0  3  0  0  0  0  0  0
  192.5940  176.3780  146.5890 C   0  0  0  0  0  3  0  0  0  0  0  0
  192.5680  174.9140  144.6610 C   0  0  0  0  0  3  0  0  0  0  0  0
  194.5340  177.6840  147.0470 F   0  0  0  0  0  0  0  0  0  0  0  0
  188.3040  172.9180  140.8340 C   0  0  0  0  0  2  0  0  0  0  0  0
  189.2980  173.1000  139.8380 O   0  0  0  0  0  0  0  0  0  0  0  0
  190.8960  172.0310  137.2540 S   0  0  0  0  0  0  0  0  0  0  0  0
  189.0570  173.6200  138.5580 C   0  0  0  0  0  0  0  0  0  0  0  0
  189.8770  173.3090  137.3500 C   0  0  0  0  0  0  0  0  0  0  0  0
  188.7240  175.0340  136.0790 C   0  0  0  0  0  3  0  0  0  0  0  0
  187.6300  175.0780  137.1120 C   0  0  0  0  0  2  0  0  0  0  0  0
  188.0400  174.4800  138.4340 C   0  0  0  0  0  3  0  0  0  0  0  0
  189.7390  174.1740  136.1690 C   0  0  0  0  0  3  0  0  0  0  0  0
  1 12  1  0  0  0  0
  2  8  1  0  0  0  0
  3 17  1  6  0  0  0
  3 11  1  0  0  0  0
  4 14  1  0  0  0  0
  5 10  2  0  0  0  0
  6  2  2  0  0  0  0
  6  5  1  0  0  0  0
  7 17  2  0  0  0  0
  8  3  1  0  0  0  0
  8  1  2  0  0  0  0
  9  4  1  0  0  0  0
 10  1  1  0  0  0  0
 11 15  1  0  0  0  0
 11 18  1  6  0  0  0
 12 18  1  0  0  0  0
 13  2  1  0  0  0  0
 14 15  1  0  0  0  0
 15 21  1  6  0  0  0
 16  7  1  0  0  0  0
 16  9  2  0  0  0  0
 17  4  1  0  0  0  0
 19 23  1  0  0  0  0
 19 25  1  0  0  0  0
 20 19  2  0  0  0  0
 21 23  2  0  0  0  0
 22 24  2  0  0  0  0
 22 20  1  0  0  0  0
 24 21  1  0  0  0  0
 26 16  1  0  0  0  0
 27 26  1  0  0  0  0
 28 30  2  0  0  0  0
 29 27  1  0  0  0  0
 30 29  1  0  0  0  0
 31 34  2  0  0  0  0
 31 32  1  0  0  0  0
 32 33  1  0  0  0  0
 33 29  2  0  0  0  0
 34 30  1  0  0  0  0
M  END
>  <MODEL>
4

>  <REMARK>
 VINA RESULT:      -8.8      1.110      1.621
  Name = 
  4 active torsions:
  status: ('A' for Active; 'I' for Inactive)
    1  A    between atoms: O_3  and  C_13
    2  A    between atoms: O_3  and  C_17
    3  A    between atoms: C_12  and  C_28
    4  A    between atoms: C_17  and  C_29
                            x       y       z     vdW  Elec       q    Type
                         _______ _______ _______ _____ _____    ______ ____

>  <TORSDO>
F 4

$$$$
=
 OpenBabel11052418483D

 34 39  0  0  1  0  0  0  0  0999 V2000
  192.1270  175.8370  144.4150 C   0  0  0  0  0  0  0  0  0  0  0  0
  190.9440  173.7350  144.7540 C   0  0  0  0  0  0  0  0  0  0  0  0
  189.5980  175.7760  144.1020 C   0  0  1  0  0  3  0  0  0  0  0  0
  188.3650  176.3110  141.9860 N   0  0  0  0  0  0  0  0  0  0  0  0
  193.3550  173.8200  144.9640 C   0  0  0  0  0  3  0  0  0  0  0  0
  192.1610  173.0990  145.0060 C   0  0  0  0  0  3  0  0  0  0  0  0
  189.2030  174.2270  142.0690 C   0  0  0  0  0  3  0  0  0  0  0  0
  190.9140  175.1080  144.4380 C   0  0  0  0  0  0  0  0  0  0  0  0
  188.0030  175.7000  140.8470 C   0  0  0  0  0  3  0  0  0  0  0  0
  193.3350  175.1870  144.6830 C   0  0  0  0  0  3  0  0  0  0  0  0
  189.6510  177.3030  144.3140 C   0  0  2  0  0  3  0  0  0  0  0  0
  192.1520  177.3320  144.2590 C   0  0  0  0  0  2  0  0  0  0  0  0
  189.7670  172.9970  144.8240 O   0  0  0  0  0  1  0  0  0  0  0  0
  188.0900  177.7050  142.3210 C   0  0  0  0  0  2  0  0  0  0  0  0
  188.3800  178.0010  143.8010 C   0  0  1  0  0  3  0  0  0  0  0  0
  188.5040  174.4130  140.8890 C   0  0  0  0  0  0  0  0  0  0  0  0
  189.1080  175.4510  142.7110 C   0  0  0  0  0  0  0  0  0  0  0  0
  190.8820  177.8850  143.6250 C   0  0  0  0  0  2  0  0  0  0  0  0
  186.2110  176.9700  146.7640 C   0  0  0  0  0  0  0  0  0  0  0  0
  184.9440  177.3410  146.3060 C   0  0  0  0  0  3  0  0  0  0  0  0
  187.1920  177.7540  144.6850 C   0  0  0  0  0  0  0  0  0  0  0  0
  184.7980  177.9200  145.0420 C   0  0  0  0  0  3  0  0  0  0  0  0
  187.3330  177.1770  145.9570 C   0  0  0  0  0  3  0  0  0  0  0  0
  185.9220  178.1280  144.2350 C   0  0  0  0  0  3  0  0  0  0  0  0
  186.3530  176.4120  147.9910 F   0  0  0  0  0  0  0  0  0  0  0  0
  188.3340  173.3880  139.8250 C   0  0  0  0  0  2  0  0  0  0  0  0
  189.6050  173.0080  139.3190 O   0  0  0  0  0  0  0  0  0  0  0  0
  189.6110  171.8630  136.3090 S   0  0  0  0  0  0  0  0  0  0  0  0
  189.9860  171.6880  139.0370 C   0  0  0  0  0  0  0  0  0  0  0  0
  189.8430  171.0340  137.7020 C   0  0  0  0  0  0  0  0  0  0  0  0
  190.4300  168.8750  138.6580 C   0  0  0  0  0  3  0  0  0  0  0  0
  190.9790  169.5550  139.8830 C   0  0  0  0  0  2  0  0  0  0  0  0
  190.4790  170.9680  140.0500 C   0  0  0  0  0  3  0  0  0  0  0  0
  189.9500  169.5700  137.6260 C   0  0  0  0  0  3  0  0  0  0  0  0
  1  8  2  0  0  0  0
  1 10  1  0  0  0  0
  2 13  1  0  0  0  0
  2  6  2  0  0  0  0
  3 17  1  6  0  0  0
  3 11  1  0  0  0  0
  3  8  1  0  0  0  0
  4 14  1  0  0  0  0
  4 17  1  0  0  0  0
  5  6  1  0  0  0  0
  7 17  2  0  0  0  0
  8  2  1  0  0  0  0
  9 16  2  0  0  0  0
  9  4  1  0  0  0  0
 10  5  2  0  0  0  0
 11 18  1  6  0  0  0
 12  1  1  0  0  0  0
 14 15  1  0  0  0  0
 15 11  1  0  0  0  0
 15 21  1  1  0  0  0
 16  7  1  0  0  0  0
 18 12  1  0  0  0  0
 19 25  1  0  0  0  0
 20 19  1  0  0  0  0
 21 23  1  0  0  0  0
 22 20  2  0  0  0  0
 23 19  2  0  0  0  0
 24 21  2  0  0  0  0
 24 22  1  0  0  0  0
 26 16  1  0  0  0  0
 27 26  1  0  0  0  0
 28 30  2  0  0  0  0
 29 27  1  0  0  0  0
 29 33  2  0  0  0  0
 30 29  1  0  0  0  0
 31 32  1  0  0  0  0
 32 33  1  0  0  0  0
 34 30  1  0  0  0  0
 34 31  2  0  0  0  0
M  END
>  <MODEL>
5

>  <REMARK>
 VINA RESULT:      -8.6      2.227      5.174
  Name = 
  4 active torsions:
  status: ('A' for Active; 'I' for Inactive)
    1  A    between atoms: O_3  and  C_13
    2  A    between atoms: O_3  and  C_17
    3  A    between atoms: C_12  and  C_28
    4  A    between atoms: C_17  and  C_29
                            x       y       z     vdW  Elec       q    Type
                         _______ _______ _______ _____ _____    ______ ____

>  <TORSDO>
F 4

$$$$
=
 OpenBabel11052418483D

 34 39  0  0  1  0  0  0  0  0999 V2000
  187.1660  177.2720  145.4030 C   0  0  0  0  0  0  0  0  0  0  0  0
  187.9630  177.9340  143.1990 C   0  0  0  0  0  0  0  0  0  0  0  0
  189.4040  176.3740  144.5750 C   0  0  1  0  0  3  0  0  0  0  0  0
  189.9830  173.9600  144.2330 N   0  0  0  0  0  0  0  0  0  0  0  0
  185.8080  178.7010  143.9920 C   0  0  0  0  0  3  0  0  0  0  0  0
  186.7880  178.6630  143.0010 C   0  0  0  0  0  3  0  0  0  0  0  0
  188.8270  174.8830  142.5420 C   0  0  0  0  0  3  0  0  0  0  0  0
  188.1580  177.2150  144.3950 C   0  0  0  0  0  0  0  0  0  0  0  0
  189.8410  173.0110  143.2960 C   0  0  0  0  0  3  0  0  0  0  0  0
  186.0030  178.0180  145.1940 C   0  0  0  0  0  3  0  0  0  0  0  0
  189.7190  176.1140  146.0630 C   0  0  2  0  0  3  0  0  0  0  0  0
  187.3840  176.6770  146.7660 C   0  0  0  0  0  2  0  0  0  0  0  0
  188.9340  177.9320  142.2030 O   0  0  0  0  0  1  0  0  0  0  0  0
  190.6160  173.7710  145.5350 C   0  0  0  0  0  2  0  0  0  0  0  0
  190.8720  175.1130  146.2420 C   0  0  1  0  0  3  0  0  0  0  0  0
  189.1390  173.5680  142.2440 C   0  0  0  0  0  0  0  0  0  0  0  0
  189.3550  175.0740  143.8080 C   0  0  0  0  0  0  0  0  0  0  0  0
  188.4710  175.6080  146.7810 C   0  0  0  0  0  2  0  0  0  0  0  0
  193.9870  176.1550  144.3030 C   0  0  0  0  0  0  0  0  0  0  0  0
  194.6880  176.8570  145.2870 C   0  0  0  0  0  3  0  0  0  0  0  0
  192.2060  175.7060  145.8930 C   0  0  0  0  0  0  0  0  0  0  0  0
  194.1510  176.9880  146.5700 C   0  0  0  0  0  3  0  0  0  0  0  0
  192.7490  175.5820  144.6040 C   0  0  0  0  0  3  0  0  0  0  0  0
  192.9110  176.4150  146.8710 C   0  0  0  0  0  3  0  0  0  0  0  0
  194.5060  176.0310  143.0570 F   0  0  0  0  0  0  0  0  0  0  0  0
  188.7610  172.8630  140.9910 C   0  0  0  0  0  2  0  0  0  0  0  0
  189.9320  172.5180  140.2650 O   0  0  0  0  0  0  0  0  0  0  0  0
  191.1310  169.8820  141.6750 S   0  0  0  0  0  0  0  0  0  0  0  0
  190.1050  171.3200  139.5570 C   0  0  0  0  0  0  0  0  0  0  0  0
  190.8170  170.1200  140.0860 C   0  0  0  0  0  0  0  0  0  0  0  0
  190.7460  169.0670  137.8940 C   0  0  0  0  0  3  0  0  0  0  0  0
  189.6900  170.0420  137.4480 C   0  0  0  0  0  2  0  0  0  0  0  0
  189.6240  171.2770  138.3090 C   0  0  0  0  0  3  0  0  0  0  0  0
  191.2300  169.0760  139.1360 C   0  0  0  0  0  3  0  0  0  0  0  0
  1 12  1  0  0  0  0
  2  8  1  0  0  0  0
  3 17  1  6  0  0  0
  3 11  1  0  0  0  0
  4 14  1  0  0  0  0
  5 10  2  0  0  0  0
  6  2  2  0  0  0  0
  6  5  1  0  0  0  0
  7 17  2  0  0  0  0
  8  3  1  0  0  0  0
  8  1  2  0  0  0  0
  9  4  1  0  0  0  0
 10  1  1  0  0  0  0
 11 15  1  0  0  0  0
 11 18  1  1  0  0  0
 12 18  1  0  0  0  0
 13  2  1  0  0  0  0
 14 15  1  0  0  0  0
 15 21  1  6  0  0  0
 16  7  1  0  0  0  0
 16  9  2  0  0  0  0
 17  4  1  0  0  0  0
 19 23  2  0  0  0  0
 19 20  1  0  0  0  0
 20 22  2  0  0  0  0
 21 24  2  0  0  0  0
 22 24  1  0  0  0  0
 23 21  1  0  0  0  0
 25 19  1  0  0  0  0
 26 16  1  0  0  0  0
 27 26  1  0  0  0  0
 29 30  1  0  0  0  0
 29 27  1  0  0  0  0
 30 28  2  0  0  0  0
 31 34  2  0  0  0  0
 32 31  1  0  0  0  0
 32 33  1  0  0  0  0
 33 29  2  0  0  0  0
 34 30  1  0  0  0  0
M  END
>  <MODEL>
6

>  <REMARK>
 VINA RESULT:      -8.6      1.550      1.996
  Name = 
  4 active torsions:
  status: ('A' for Active; 'I' for Inactive)
    1  A    between atoms: O_3  and  C_13
    2  A    between atoms: O_3  and  C_17
    3  A    between atoms: C_12  and  C_28
    4  A    between atoms: C_17  and  C_29
                            x       y       z     vdW  Elec       q    Type
                         _______ _______ _______ _____ _____    ______ ____

>  <TORSDO>
F 4

$$$$
=
 OpenBabel11052418483D

 34 39  0  0  1  0  0  0  0  0999 V2000
  191.2810  174.3270  145.0220 C   0  0  0  0  0  0  0  0  0  0  0  0
  191.9620  176.3730  143.8890 C   0  0  0  0  0  0  0  0  0  0  0  0
  190.4790  174.7480  142.6390 C   0  0  1  0  0  3  0  0  0  0  0  0
  188.0910  174.9490  141.9060 N   0  0  0  0  0  0  0  0  0  0  0  0
  192.6360  175.9710  146.1790 C   0  0  0  0  0  3  0  0  0  0  0  0
  192.6350  176.7800  145.0430 C   0  0  0  0  0  3  0  0  0  0  0  0
  188.9480  176.8270  142.7950 C   0  0  0  0  0  3  0  0  0  0  0  0
  191.2610  175.1500  143.8710 C   0  0  0  0  0  0  0  0  0  0  0  0
  187.1290  175.8830  141.8450 C   0  0  0  0  0  3  0  0  0  0  0  0
  191.9720  174.7440  146.1630 C   0  0  0  0  0  3  0  0  0  0  0  0
  190.2450  173.2240  142.5720 C   0  0  2  0  0  3  0  0  0  0  0  0
  190.7060  172.9380  145.0150 C   0  0  0  0  0  2  0  0  0  0  0  0
  191.9960  177.1890  142.7620 O   0  0  0  0  0  1  0  0  0  0  0  0
  187.9410  173.5550  141.4980 C   0  0  0  0  0  2  0  0  0  0  0  0
  189.2980  172.8360  141.4240 C   0  0  1  0  0  3  0  0  0  0  0  0
  187.6460  177.0470  142.3800 C   0  0  0  0  0  0  0  0  0  0  0  0
  189.1720  175.4920  142.4990 C   0  0  0  0  0  0  0  0  0  0  0  0
  189.6890  172.7220  143.9020 C   0  0  0  0  0  2  0  0  0  0  0  0
  189.9540  173.7560  137.7820 C   0  0  0  0  0  0  0  0  0  0  0  0
  191.2180  173.1910  137.5900 C   0  0  0  0  0  3  0  0  0  0  0  0
  189.9470  172.9620  140.0770 C   0  0  0  0  0  0  0  0  0  0  0  0
  191.8490  172.5150  138.6380 C   0  0  0  0  0  3  0  0  0  0  0  0
  189.3210  173.6430  139.0220 C   0  0  0  0  0  3  0  0  0  0  0  0
  191.2150  172.4040  139.8800 C   0  0  0  0  0  3  0  0  0  0  0  0
  189.3440  174.4150  136.7670 F   0  0  0  0  0  0  0  0  0  0  0  0
  186.9150  178.3350  142.5060 C   0  0  0  0  0  2  0  0  0  0  0  0
  187.0620  178.8410  143.8250 O   0  0  0  0  0  0  0  0  0  0  0  0
  188.2740  177.1710  146.2960 S   0  0  0  0  0  0  0  0  0  0  0  0
  186.2660  178.4630  144.9160 C   0  0  0  0  0  0  0  0  0  0  0  0
  186.7060  177.5400  146.0030 C   0  0  0  0  0  0  0  0  0  0  0  0
  184.4420  177.4450  146.8870 C   0  0  0  0  0  3  0  0  0  0  0  0
  184.0680  178.6650  146.0900 C   0  0  0  0  0  2  0  0  0  0  0  0
  185.0180  178.9420  144.9530 C   0  0  0  0  0  3  0  0  0  0  0  0
  185.6830  176.9570  146.8830 C   0  0  0  0  0  3  0  0  0  0  0  0
  1 10  1  0  0  0  0
  2  6  2  0  0  0  0
  3 17  1  1  0  0  0
  3  8  1  0  0  0  0
  4 17  1  0  0  0  0
  6  5  1  0  0  0  0
  8  2  1  0  0  0  0
  8  1  2  0  0  0  0
  9  4  1  0  0  0  0
  9 16  2  0  0  0  0
 10  5  2  0  0  0  0
 11  3  1  0  0  0  0
 11 18  1  1  0  0  0
 12  1  1  0  0  0  0
 13  2  1  0  0  0  0
 14  4  1  0  0  0  0
 15 21  1  6  0  0  0
 15 14  1  0  0  0  0
 15 11  1  0  0  0  0
 16 26  1  0  0  0  0
 16  7  1  0  0  0  0
 17  7  2  0  0  0  0
 18 12  1  0  0  0  0
 19 23  1  0  0  0  0
 20 19  2  0  0  0  0
 20 22  1  0  0  0  0
 22 24  2  0  0  0  0
 23 21  2  0  0  0  0
 24 21  1  0  0  0  0
 25 19  1  0  0  0  0
 26 27  1  0  0  0  0
 27 29  1  0  0  0  0
 29 33  2  0  0  0  0
 29 30  1  0  0  0  0
 30 28  2  0  0  0  0
 30 34  1  0  0  0  0
 32 31  1  0  0  0  0
 33 32  1  0  0  0  0
 34 31  2  0  0  0  0
M  END
>  <MODEL>
7

>  <REMARK>
 VINA RESULT:      -8.5      3.300      7.490
  Name = 
  4 active torsions:
  status: ('A' for Active; 'I' for Inactive)
    1  A    between atoms: O_3  and  C_13
    2  A    between atoms: O_3  and  C_17
    3  A    between atoms: C_12  and  C_28
    4  A    between atoms: C_17  and  C_29
                            x       y       z     vdW  Elec       q    Type
                         _______ _______ _______ _____ _____    ______ ____

>  <TORSDO>
F 4

$$$$
=
 OpenBabel11052418483D

 34 39  0  0  1  0  0  0  0  0999 V2000
  187.8320  176.3410  146.0780 C   0  0  0  0  0  0  0  0  0  0  0  0
  188.2540  177.6620  144.0760 C   0  0  0  0  0  0  0  0  0  0  0  0
  190.0560  176.0690  144.8630 C   0  0  1  0  0  3  0  0  0  0  0  0
  190.9230  173.9520  143.8400 N   0  0  0  0  0  0  0  0  0  0  0  0
  186.1240  177.8320  145.2150 C   0  0  0  0  0  3  0  0  0  0  0  0
  186.9730  178.2100  144.1750 C   0  0  0  0  0  3  0  0  0  0  0  0
  189.4520  175.0650  142.5570 C   0  0  0  0  0  3  0  0  0  0  0  0
  188.6920  176.7080  145.0160 C   0  0  0  0  0  0  0  0  0  0  0  0
  190.8030  173.2610  142.6970 C   0  0  0  0  0  3  0  0  0  0  0  0
  186.5580  176.9100  146.1700 C   0  0  0  0  0  3  0  0  0  0  0  0
  190.5820  175.4990  146.1960 C   0  0  2  0  0  3  0  0  0  0  0  0
  188.2950  175.4660  147.2090 C   0  0  0  0  0  2  0  0  0  0  0  0
  189.0880  178.0740  143.0410 O   0  0  0  0  0  1  0  0  0  0  0  0
  191.7300  173.5500  144.9890 C   0  0  0  0  0  2  0  0  0  0  0  0
  191.8780  174.6930  146.0060 C   0  0  1  0  0  3  0  0  0  0  0  0
  189.9070  173.9400  141.8930 C   0  0  0  0  0  0  0  0  0  0  0  0
  190.0980  175.0160  143.7810 C   0  0  0  0  0  0  0  0  0  0  0  0
  189.5150  174.6270  146.8500 C   0  0  0  0  0  2  0  0  0  0  0  0
  194.8930  176.2810  144.2930 C   0  0  0  0  0  0  0  0  0  0  0  0
  195.2500  177.2510  145.2320 C   0  0  0  0  0  3  0  0  0  0  0  0
  193.0640  175.5690  145.7230 C   0  0  0  0  0  0  0  0  0  0  0  0
  194.5160  177.3860  146.4140 C   0  0  0  0  0  3  0  0  0  0  0  0
  193.8020  175.4430  144.5360 C   0  0  0  0  0  3  0  0  0  0  0  0
  193.4230  176.5480  146.6560 C   0  0  0  0  0  3  0  0  0  0  0  0
  195.6030  176.1530  143.1450 F   0  0  0  0  0  0  0  0  0  0  0  0
  189.4830  173.5210  140.5310 C   0  0  0  0  0  2  0  0  0  0  0  0
  188.2180  174.0880  140.2280 O   0  0  0  0  0  0  0  0  0  0  0  0
  186.9120  177.0310  140.2940 S   0  0  0  0  0  0  0  0  0  0  0  0
  187.9200  174.7850  139.0490 C   0  0  0  0  0  0  0  0  0  0  0  0
  187.1530  176.0650  138.9940 C   0  0  0  0  0  0  0  0  0  0  0  0
  187.0270  175.9270  136.5680 C   0  0  0  0  0  3  0  0  0  0  0  0
  188.1240  174.8980  136.5590 C   0  0  0  0  0  2  0  0  0  0  0  0
  188.3270  174.2360  137.8990 C   0  0  0  0  0  3  0  0  0  0  0  0
  186.6150  176.5030  137.6980 C   0  0  0  0  0  3  0  0  0  0  0  0
  1 10  1  0  0  0  0
  1 12  1  0  0  0  0
  2  6  2  0  0  0  0
  2  8  1  0  0  0  0
  3 17  1  6  0  0  0
  3  8  1  0  0  0  0
  3 11  1  0  0  0  0
  4 14  1  0  0  0  0
  5 10  2  0  0  0  0
  6  5  1  0  0  0  0
  7 17  2  0  0  0  0
  8  1  2  0  0  0  0
  9  4  1  0  0  0  0
 11 18  1  6  0  0  0
 13  2  1  0  0  0  0
 14 15  1  0  0  0  0
 15 21  1  6  0  0  0
 15 11  1  0  0  0  0
 16  7  1  0  0  0  0
 16  9  2  0  0  0  0
 17  4  1  0  0  0  0
 18 12  1  0  0  0  0
 19 23  2  0  0  0  0
 19 20  1  0  0  0  0
 20 22  2  0  0  0  0
 21 24  2  0  0  0  0
 22 24  1  0  0  0  0
 23 21  1  0  0  0  0
 25 19  1  0  0  0  0
 26 16  1  0  0  0  0
 27 26  1  0  0  0  0
 29 27  1  0  0  0  0
 30 29  1  0  0  0  0
 30 28  2  0  0  0  0
 31 34  2  0  0  0  0
 32 31  1  0  0  0  0
 32 33  1  0  0  0  0
 33 29  2  0  0  0  0
 34 30  1  0  0  0  0
M  END
>  <MODEL>
8

>  <REMARK>
 VINA RESULT:      -8.4      2.067      2.784
  Name = 
  4 active torsions:
  status: ('A' for Active; 'I' for Inactive)
    1  A    between atoms: O_3  and  C_13
    2  A    between atoms: O_3  and  C_17
    3  A    between atoms: C_12  and  C_28
    4  A    between atoms: C_17  and  C_29
                            x       y       z     vdW  Elec       q    Type
                         _______ _______ _______ _____ _____    ______ ____

>  <TORSDO>
F 4

$$$$
=
 OpenBabel11052418483D

 34 39  0  0  1  0  0  0  0  0999 V2000
  192.1560  175.9190  144.4380 C   0  0  0  0  0  0  0  0  0  0  0  0
  190.9930  173.8220  144.8630 C   0  0  0  0  0  0  0  0  0  0  0  0
  189.6180  175.8450  144.2130 C   0  0  1  0  0  3  0  0  0  0  0  0
  188.3120  176.3300  142.1300 N   0  0  0  0  0  0  0  0  0  0  0  0
  193.4090  173.9170  144.9880 C   0  0  0  0  0  3  0  0  0  0  0  0
  192.2210  173.1940  145.0860 C   0  0  0  0  0  3  0  0  0  0  0  0
  189.1590  174.2500  142.2290 C   0  0  0  0  0  3  0  0  0  0  0  0
  190.9480  175.1880  144.5180 C   0  0  0  0  0  0  0  0  0  0  0  0
  187.9140  175.6940  141.0180 C   0  0  0  0  0  3  0  0  0  0  0  0
  193.3750  175.2780  144.6780 C   0  0  0  0  0  3  0  0  0  0  0  0
  189.6740  177.3760  144.3910 C   0  0  2  0  0  3  0  0  0  0  0  0
  192.1720  177.4100  144.2490 C   0  0  0  0  0  2  0  0  0  0  0  0
  189.8220  173.0820  144.9880 O   0  0  0  0  0  1  0  0  0  0  0  0
  188.0440  177.7300  142.4440 C   0  0  0  0  0  2  0  0  0  0  0  0
  188.3840  178.0590  143.9070 C   0  0  1  0  0  3  0  0  0  0  0  0
  188.4200  174.4090  141.0700 C   0  0  0  0  0  0  0  0  0  0  0  0
  189.0830  175.4880  142.8470 C   0  0  0  0  0  0  0  0  0  0  0  0
  190.8780  177.9460  143.6470 C   0  0  0  0  0  2  0  0  0  0  0  0
  184.8990  178.1310  145.4540 C   0  0  0  0  0  0  0  0  0  0  0  0
  185.0970  177.3400  146.5880 C   0  0  0  0  0  3  0  0  0  0  0  0
  187.2280  177.8280  144.8360 C   0  0  0  0  0  0  0  0  0  0  0  0
  186.3550  176.7890  146.8470 C   0  0  0  0  0  3  0  0  0  0  0  0
  185.9600  178.3740  144.5790 C   0  0  0  0  0  3  0  0  0  0  0  0
  187.4170  177.0310  145.9700 C   0  0  0  0  0  3  0  0  0  0  0  0
  183.6770  178.6620  145.2010 F   0  0  0  0  0  0  0  0  0  0  0  0
  188.2160  173.3610  140.0350 C   0  0  0  0  0  2  0  0  0  0  0  0
  189.4500  172.7130  139.7610 O   0  0  0  0  0  0  0  0  0  0  0  0
  192.5950  172.4500  140.4000 S   0  0  0  0  0  0  0  0  0  0  0  0
  190.4220  173.1940  138.8730 C   0  0  0  0  0  0  0  0  0  0  0  0
  191.8810  173.2730  139.1770 C   0  0  0  0  0  0  0  0  0  0  0  0
  192.2720  174.5510  137.1440 C   0  0  0  0  0  3  0  0  0  0  0  0
  190.9270  174.1370  136.6130 C   0  0  0  0  0  2  0  0  0  0  0  0
  189.9930  173.6410  137.6870 C   0  0  0  0  0  3  0  0  0  0  0  0
  192.7320  174.1050  138.3140 C   0  0  0  0  0  3  0  0  0  0  0  0
  1  8  2  0  0  0  0
  1 10  1  0  0  0  0
  2 13  1  0  0  0  0
  2  6  2  0  0  0  0
  3 17  1  6  0  0  0
  3 11  1  0  0  0  0
  3  8  1  0  0  0  0
  4 14  1  0  0  0  0
  4 17  1  0  0  0  0
  5  6  1  0  0  0  0
  7 17  2  0  0  0  0
  8  2  1  0  0  0  0
  9 16  2  0  0  0  0
  9  4  1  0  0  0  0
 10  5  2  0  0  0  0
 11 18  1  6  0  0  0
 12  1  1  0  0  0  0
 14 15  1  0  0  0  0
 15 11  1  0  0  0  0
 15 21  1  1  0  0  0
 16  7  1  0  0  0  0
 18 12  1  0  0  0  0
 19 20  1  0  0  0  0
 20 22  2  0  0  0  0
 21 24  2  0  0  0  0
 23 21  1  0  0  0  0
 23 19  2  0  0  0  0
 24 22  1  0  0  0  0
 25 19  1  0  0  0  0
 26 16  1  0  0  0  0
 27 26  1  0  0  0  0
 29 30  1  0  0  0  0
 29 27  1  0  0  0  0
 30 28  2  0  0  0  0
 31 34  2  0  0  0  0
 32 31  1  0  0  0  0
 32 33  1  0  0  0  0
 33 29  2  0  0  0  0
 34 30  1  0  0  0  0
M  END
>  <MODEL>
9

>  <REMARK>
 VINA RESULT:      -8.4      2.819      5.544
  Name = 
  4 active torsions:
  status: ('A' for Active; 'I' for Inactive)
    1  A    between atoms: O_3  and  C_13
    2  A    between atoms: O_3  and  C_17
    3  A    between atoms: C_12  and  C_28
    4  A    between atoms: C_17  and  C_29
                            x       y       z     vdW  Elec       q    Type
                         _______ _______ _______ _____ _____    ______ ____

>  <TORSDO>
F 4

$$$$
