=
 OpenBabel11052418273D

 27 29  0  0  1  0  0  0  0  0999 V2000
  191.6760  177.4980  143.1200 C   0  0  0  0  0  1  0  0  0  0  0  0
  191.6120  176.3110  144.0920 C   0  0  2  0  0  0  0  0  0  0  0  0
  194.7000  175.1060  146.0420 C   0  0  0  0  0  3  0  0  0  0  0  0
  195.7040  175.3670  145.1130 C   0  0  0  0  0  3  0  0  0  0  0  0
  193.0460  175.9550  144.4790 C   0  0  0  0  0  0  0  0  0  0  0  0
  192.3410  175.1110  146.7860 C   0  0  0  0  0  1  0  0  0  0  0  0
  195.3610  175.9260  143.8840 C   0  0  0  0  0  3  0  0  0  0  0  0
  194.0620  176.2050  143.6020 N   0  0  0  0  0  0  0  0  0  0  0  0
  193.3680  175.3960  145.7430 C   0  0  0  0  0  0  0  0  0  0  0  0
  189.5670  173.0000  142.1670 C   0  0  0  0  0  3  0  0  0  0  0  0
  190.9250  175.1130  143.4350 C   0  0  0  0  0  0  0  0  0  0  0  0
  191.0910  174.8760  142.0590 C   0  0  0  0  0  3  0  0  0  0  0  0
  190.4230  173.8220  141.4310 C   0  0  0  0  0  3  0  0  0  0  0  0
  189.3720  173.2360  143.5310 C   0  0  0  0  0  3  0  0  0  0  0  0
  190.0410  174.2910  144.1580 C   0  0  0  0  0  3  0  0  0  0  0  0
  190.8850  176.7030  145.3120 N   0  0  0  0  0  2  0  0  0  0  0  0
  190.0050  177.8480  145.0770 C   0  0  0  0  0  2  0  0  0  0  0  0
  186.9770  176.7420  147.0140 C   0  0  0  0  0  3  0  0  0  0  0  0
  184.7000  176.4420  146.4120 F   0  0  0  0  0  0  0  0  0  0  0  0
  186.2510  177.1530  144.7410 C   0  0  0  0  0  0  0  0  0  0  0  0
  185.2220  177.1800  143.8050 O   0  0  0  0  0  1  0  0  0  0  0  0
  187.5670  177.4990  144.3650 C   0  0  0  0  0  0  0  0  0  0  0  0
  185.9650  176.7750  146.0570 C   0  0  0  0  0  0  0  0  0  0  0  0
  188.5910  177.4580  145.3490 C   0  0  0  0  0  0  0  0  0  0  0  0
  188.2800  177.0850  146.6610 C   0  0  0  0  0  3  0  0  0  0  0  0
  188.1160  177.0500  141.9680 C   0  0  0  0  0  2  0  0  0  0  0  0
  187.7850  177.8810  142.9480 C   0  0  0  0  0  3  0  0  0  0  0  0
  2  1  1  6  0  0  0
  2  5  1  0  0  0  0
  2 16  1  0  0  0  0
  4  3  2  0  0  0  0
  5  9  2  0  0  0  0
  7  4  1  0  0  0  0
  8  7  2  0  0  0  0
  8  5  1  0  0  0  0
  9  3  1  0  0  0  0
  9  6  1  0  0  0  0
 10 14  1  0  0  0  0
 11  2  1  0  0  0  0
 11 15  1  0  0  0  0
 12 11  2  0  0  0  0
 13 12  1  0  0  0  0
 13 10  2  0  0  0  0
 14 15  2  0  0  0  0
 17 16  1  0  0  0  0
 17 24  1  0  0  0  0
 20 23  1  0  0  0  0
 21 20  1  0  0  0  0
 22 20  2  0  0  0  0
 22 24  1  0  0  0  0
 23 19  1  0  0  0  0
 23 18  2  0  0  0  0
 24 25  2  0  0  0  0
 25 18  1  0  0  0  0
 26 27  2  0  0  0  0
 27 22  1  0  0  0  0
M  END
>  <MODEL>
1

>  <REMARK>
 VINA RESULT:      -7.0      0.000      0.000
  Name = 
  6 active torsions:
  status: ('A' for Active; 'I' for Inactive)
    1  A    between atoms: N_2  and  C_6
    2  A    between atoms: N_2  and  C_15
    3  A    between atoms: C_6  and  C_17
    4  A    between atoms: C_9  and  C_15
    5  A    between atoms: C_14  and  C_19
    6  A    between atoms: C_15  and  C_18
                            x       y       z     vdW  Elec       q    Type
                         _______ _______ _______ _____ _____    ______ ____

>  <TORSDO>
F 6

$$$$
=
 OpenBabel11052418273D

 27 29  0  0  1  0  0  0  0  0999 V2000
  190.7460  176.8260  142.8630 C   0  0  0  0  0  1  0  0  0  0  0  0
  190.6330  176.1000  144.2120 C   0  0  2  0  0  0  0  0  0  0  0  0
  193.4200  176.4300  146.8400 C   0  0  0  0  0  3  0  0  0  0  0  0
  194.5470  176.3120  146.0300 C   0  0  0  0  0  3  0  0  0  0  0  0
  192.0010  176.1680  144.8870 C   0  0  0  0  0  0  0  0  0  0  0  0
  190.9750  176.5150  147.2020 C   0  0  0  0  0  1  0  0  0  0  0  0
  194.3810  176.1310  144.6600 C   0  0  0  0  0  3  0  0  0  0  0  0
  193.1320  176.0670  144.1280 N   0  0  0  0  0  0  0  0  0  0  0  0
  192.1420  176.3640  146.2850 C   0  0  0  0  0  0  0  0  0  0  0  0
  189.3010  172.0090  143.6260 C   0  0  0  0  0  3  0  0  0  0  0  0
  190.2120  174.6440  144.0050 C   0  0  0  0  0  0  0  0  0  0  0  0
  189.7500  174.2190  142.7480 C   0  0  0  0  0  3  0  0  0  0  0  0
  189.3040  172.9080  142.5570 C   0  0  0  0  0  3  0  0  0  0  0  0
  189.7360  172.4230  144.8880 C   0  0  0  0  0  3  0  0  0  0  0  0
  190.1810  173.7350  145.0780 C   0  0  0  0  0  3  0  0  0  0  0  0
  189.6560  176.7910  145.0710 N   0  0  0  0  0  2  0  0  0  0  0  0
  188.7860  177.6800  144.3010 C   0  0  0  0  0  2  0  0  0  0  0  0
  186.0260  177.0490  146.7770 C   0  0  0  0  0  3  0  0  0  0  0  0
  183.7170  177.5990  146.7910 F   0  0  0  0  0  0  0  0  0  0  0  0
  185.0430  178.2310  144.9070 C   0  0  0  0  0  0  0  0  0  0  0  0
  183.9200  178.8020  144.3160 O   0  0  0  0  0  1  0  0  0  0  0  0
  186.2890  178.2610  144.2470 C   0  0  0  0  0  0  0  0  0  0  0  0
  184.9170  177.6260  146.1620 C   0  0  0  0  0  0  0  0  0  0  0  0
  187.4120  177.6660  144.8830 C   0  0  0  0  0  0  0  0  0  0  0  0
  187.2660  177.0730  146.1420 C   0  0  0  0  0  3  0  0  0  0  0  0
  186.2360  178.2950  141.7480 C   0  0  0  0  0  2  0  0  0  0  0  0
  186.3330  178.9160  142.9160 C   0  0  0  0  0  3  0  0  0  0  0  0
  2  1  1  6  0  0  0
  2  5  1  0  0  0  0
  2 16  1  0  0  0  0
  4  3  2  0  0  0  0
  5  9  2  0  0  0  0
  7  4  1  0  0  0  0
  8  7  2  0  0  0  0
  8  5  1  0  0  0  0
  9  3  1  0  0  0  0
  9  6  1  0  0  0  0
 10 14  1  0  0  0  0
 11  2  1  0  0  0  0
 11 15  1  0  0  0  0
 12 11  2  0  0  0  0
 13 12  1  0  0  0  0
 13 10  2  0  0  0  0
 14 15  2  0  0  0  0
 17 24  1  0  0  0  0
 17 16  1  0  0  0  0
 20 23  2  0  0  0  0
 21 20  1  0  0  0  0
 22 24  2  0  0  0  0
 22 20  1  0  0  0  0
 23 18  1  0  0  0  0
 23 19  1  0  0  0  0
 24 25  1  0  0  0  0
 25 18  2  0  0  0  0
 26 27  2  0  0  0  0
 27 22  1  0  0  0  0
M  END
>  <MODEL>
2

>  <REMARK>
 VINA RESULT:      -6.9      1.331      1.542
  Name = 
  6 active torsions:
  status: ('A' for Active; 'I' for Inactive)
    1  A    between atoms: N_2  and  C_6
    2  A    between atoms: N_2  and  C_15
    3  A    between atoms: C_6  and  C_17
    4  A    between atoms: C_9  and  C_15
    5  A    between atoms: C_14  and  C_19
    6  A    between atoms: C_15  and  C_18
                            x       y       z     vdW  Elec       q    Type
                         _______ _______ _______ _____ _____    ______ ____

>  <TORSDO>
F 6

$$$$
=
 OpenBabel11052418273D

 27 29  0  0  1  0  0  0  0  0999 V2000
  190.2010  177.3780  142.7750 C   0  0  0  0  0  1  0  0  0  0  0  0
  189.8570  176.1760  143.6670 C   0  0  2  0  0  0  0  0  0  0  0  0
  191.9130  175.1080  146.7370 C   0  0  0  0  0  3  0  0  0  0  0  0
  193.0800  175.8390  146.5260 C   0  0  0  0  0  3  0  0  0  0  0  0
  190.9810  176.0260  144.6900 C   0  0  0  0  0  0  0  0  0  0  0  0
  189.6240  174.3990  146.1210 C   0  0  0  0  0  1  0  0  0  0  0  0
  193.1730  176.6580  145.4040 C   0  0  0  0  0  3  0  0  0  0  0  0
  192.1380  176.7330  144.5280 N   0  0  0  0  0  0  0  0  0  0  0  0
  190.8540  175.1920  145.8310 C   0  0  0  0  0  0  0  0  0  0  0  0
  189.4990  172.6420  141.1700 C   0  0  0  0  0  3  0  0  0  0  0  0
  189.7260  174.9030  142.8290 C   0  0  0  0  0  0  0  0  0  0  0  0
  190.8620  174.3450  142.2170 C   0  0  0  0  0  3  0  0  0  0  0  0
  190.7500  173.2180  141.3990 C   0  0  0  0  0  3  0  0  0  0  0  0
  188.3570  173.1980  141.7520 C   0  0  0  0  0  3  0  0  0  0  0  0
  188.4690  174.3270  142.5700 C   0  0  0  0  0  3  0  0  0  0  0  0
  188.6000  176.4340  144.3920 N   0  0  0  0  0  2  0  0  0  0  0  0
  188.3860  177.8640  144.6170 C   0  0  0  0  0  2  0  0  0  0  0  0
  185.2420  178.6540  142.7090 C   0  0  0  0  0  3  0  0  0  0  0  0
  182.9970  179.0260  143.3850 F   0  0  0  0  0  0  0  0  0  0  0  0
  184.6460  178.5780  145.0540 C   0  0  0  0  0  0  0  0  0  0  0  0
  183.6690  178.6830  146.0400 O   0  0  0  0  0  1  0  0  0  0  0  0
  185.9840  178.2990  145.4030 C   0  0  0  0  0  0  0  0  0  0  0  0
  184.2840  178.7560  143.7150 C   0  0  0  0  0  0  0  0  0  0  0  0
  186.9530  178.2010  144.3680 C   0  0  0  0  0  0  0  0  0  0  0  0
  186.5680  178.3750  143.0350 C   0  0  0  0  0  3  0  0  0  0  0  0
  186.2830  176.9790  147.5050 C   0  0  0  0  0  2  0  0  0  0  0  0
  186.2850  178.1310  146.8470 C   0  0  0  0  0  3  0  0  0  0  0  0
  2  1  1  6  0  0  0
  2 16  1  0  0  0  0
  2  5  1  0  0  0  0
  4  3  1  0  0  0  0
  5  9  1  0  0  0  0
  7  4  2  0  0  0  0
  8  5  2  0  0  0  0
  8  7  1  0  0  0  0
  9  6  1  0  0  0  0
  9  3  2  0  0  0  0
 10 13  2  0  0  0  0
 10 14  1  0  0  0  0
 11  2  1  0  0  0  0
 12 11  2  0  0  0  0
 13 12  1  0  0  0  0
 14 15  2  0  0  0  0
 15 11  1  0  0  0  0
 16 17  1  0  0  0  0
 18 25  2  0  0  0  0
 18 23  1  0  0  0  0
 19 23  1  0  0  0  0
 20 22  1  0  0  0  0
 20 21  1  0  0  0  0
 22 27  1  0  0  0  0
 23 20  2  0  0  0  0
 24 17  1  0  0  0  0
 24 22  2  0  0  0  0
 25 24  1  0  0  0  0
 27 26  2  0  0  0  0
M  END
>  <MODEL>
3

>  <REMARK>
 VINA RESULT:      -6.9      1.825      2.885
  Name = 
  6 active torsions:
  status: ('A' for Active; 'I' for Inactive)
    1  A    between atoms: N_2  and  C_6
    2  A    between atoms: N_2  and  C_15
    3  A    between atoms: C_6  and  C_17
    4  A    between atoms: C_9  and  C_15
    5  A    between atoms: C_14  and  C_19
    6  A    between atoms: C_15  and  C_18
                            x       y       z     vdW  Elec       q    Type
                         _______ _______ _______ _____ _____    ______ ____

>  <TORSDO>
F 6

$$$$
=
 OpenBabel11052418273D

 27 29  0  0  1  0  0  0  0  0999 V2000
  189.6130  174.2330  146.6950 C   0  0  0  0  0  1  0  0  0  0  0  0
  190.2850  175.0320  145.5680 C   0  0  2  0  0  0  0  0  0  0  0  0
  190.0490  174.1120  141.8420 C   0  0  0  0  0  3  0  0  0  0  0  0
  189.5880  172.8020  141.9330 C   0  0  0  0  0  3  0  0  0  0  0  0
  190.0600  174.2680  144.2660 C   0  0  0  0  0  0  0  0  0  0  0  0
  190.7640  176.2630  142.8330 C   0  0  0  0  0  1  0  0  0  0  0  0
  189.3620  172.2490  143.1910 C   0  0  0  0  0  3  0  0  0  0  0  0
  189.5960  172.9830  144.3100 N   0  0  0  0  0  0  0  0  0  0  0  0
  190.2870  174.8590  142.9960 C   0  0  0  0  0  0  0  0  0  0  0  0
  194.5440  175.5640  146.2220 C   0  0  0  0  0  3  0  0  0  0  0  0
  191.7820  175.1920  145.8400 C   0  0  0  0  0  0  0  0  0  0  0  0
  192.2820  176.4160  146.3170 C   0  0  0  0  0  3  0  0  0  0  0  0
  193.6530  176.5990  146.5140 C   0  0  0  0  0  3  0  0  0  0  0  0
  194.0660  174.3490  145.7250 C   0  0  0  0  0  3  0  0  0  0  0  0
  192.6940  174.1670  145.5280 C   0  0  0  0  0  3  0  0  0  0  0  0
  189.6500  176.3560  145.4460 N   0  0  0  0  0  2  0  0  0  0  0  0
  188.5110  176.4980  146.3530 C   0  0  0  0  0  2  0  0  0  0  0  0
  186.2020  177.0660  143.4390 C   0  0  0  0  0  3  0  0  0  0  0  0
  184.0640  178.0810  143.2500 F   0  0  0  0  0  0  0  0  0  0  0  0
  185.1240  178.0100  145.3900 C   0  0  0  0  0  0  0  0  0  0  0  0
  184.0300  178.6650  145.9470 O   0  0  0  0  0  1  0  0  0  0  0  0
  186.2210  177.6420  146.1970 C   0  0  0  0  0  0  0  0  0  0  0  0
  185.1210  177.7230  144.0210 C   0  0  0  0  0  0  0  0  0  0  0  0
  187.3200  176.9750  145.5900 C   0  0  0  0  0  0  0  0  0  0  0  0
  187.2930  176.6920  144.2210 C   0  0  0  0  0  3  0  0  0  0  0  0
  186.6900  179.0590  148.2010 C   0  0  0  0  0  2  0  0  0  0  0  0
  186.1470  177.9890  147.6380 C   0  0  0  0  0  3  0  0  0  0  0  0
  2 11  1  0  0  0  0
  2  1  1  1  0  0  0
  3  4  2  0  0  0  0
  3  9  1  0  0  0  0
  4  7  1  0  0  0  0
  5  8  1  0  0  0  0
  5  2  1  0  0  0  0
  6  9  1  0  0  0  0
  7  8  2  0  0  0  0
  9  5  2  0  0  0  0
 10 13  1  0  0  0  0
 11 12  1  0  0  0  0
 12 13  2  0  0  0  0
 14 10  2  0  0  0  0
 15 14  1  0  0  0  0
 15 11  2  0  0  0  0
 16  2  1  0  0  0  0
 16 17  1  0  0  0  0
 18 23  2  0  0  0  0
 18 25  1  0  0  0  0
 19 23  1  0  0  0  0
 20 21  1  0  0  0  0
 20 22  2  0  0  0  0
 22 27  1  0  0  0  0
 23 20  1  0  0  0  0
 24 22  1  0  0  0  0
 24 17  1  0  0  0  0
 25 24  2  0  0  0  0
 27 26  2  0  0  0  0
M  END
>  <MODEL>
4

>  <REMARK>
 VINA RESULT:      -6.9      1.853      4.507
  Name = 
  6 active torsions:
  status: ('A' for Active; 'I' for Inactive)
    1  A    between atoms: N_2  and  C_6
    2  A    between atoms: N_2  and  C_15
    3  A    between atoms: C_6  and  C_17
    4  A    between atoms: C_9  and  C_15
    5  A    between atoms: C_14  and  C_19
    6  A    between atoms: C_15  and  C_18
                            x       y       z     vdW  Elec       q    Type
                         _______ _______ _______ _____ _____    ______ ____

>  <TORSDO>
F 6

$$$$
=
 OpenBabel11052418273D

 27 29  0  0  1  0  0  0  0  0999 V2000
  189.1030  177.3260  143.1420 C   0  0  0  0  0  1  0  0  0  0  0  0
  189.1840  176.6270  144.5070 C   0  0  2  0  0  0  0  0  0  0  0  0
  189.8140  172.8630  144.9740 C   0  0  0  0  0  3  0  0  0  0  0  0
  189.5970  172.4070  143.6760 C   0  0  0  0  0  3  0  0  0  0  0  0
  189.3260  175.1290  144.2490 C   0  0  0  0  0  0  0  0  0  0  0  0
  189.9500  174.6480  146.6810 C   0  0  0  0  0  1  0  0  0  0  0  0
  189.2550  173.3230  142.6840 C   0  0  0  0  0  3  0  0  0  0  0  0
  189.1330  174.6410  142.9880 N   0  0  0  0  0  0  0  0  0  0  0  0
  189.6870  174.2190  145.2760 C   0  0  0  0  0  0  0  0  0  0  0  0
  185.5930  177.5440  146.7680 C   0  0  0  0  0  3  0  0  0  0  0  0
  187.9260  176.9090  145.3310 C   0  0  0  0  0  0  0  0  0  0  0  0
  186.6560  176.6860  144.7710 C   0  0  0  0  0  3  0  0  0  0  0  0
  185.4970  176.9950  145.4880 C   0  0  0  0  0  3  0  0  0  0  0  0
  186.8470  177.7930  147.3300 C   0  0  0  0  0  3  0  0  0  0  0  0
  188.0070  177.4850  146.6120 C   0  0  0  0  0  3  0  0  0  0  0  0
  190.3780  177.0890  145.2360 N   0  0  0  0  0  2  0  0  0  0  0  0
  191.4820  177.4020  144.3290 C   0  0  0  0  0  2  0  0  0  0  0  0
  194.1160  175.9990  146.6180 C   0  0  0  0  0  3  0  0  0  0  0  0
  195.9970  174.6000  146.2450 F   0  0  0  0  0  0  0  0  0  0  0  0
  194.6370  175.2270  144.3840 C   0  0  0  0  0  0  0  0  0  0  0  0
  195.4620  174.4890  143.5400 O   0  0  0  0  0  1  0  0  0  0  0  0
  193.5260  175.9230  143.8650 C   0  0  0  0  0  0  0  0  0  0  0  0
  194.9270  175.2700  145.7520 C   0  0  0  0  0  0  0  0  0  0  0  0
  192.7080  176.6670  144.7590 C   0  0  0  0  0  0  0  0  0  0  0  0
  193.0120  176.6900  146.1240 C   0  0  0  0  0  3  0  0  0  0  0  0
  192.5130  174.9420  141.8000 C   0  0  0  0  0  2  0  0  0  0  0  0
  193.2940  175.8300  142.4020 C   0  0  0  0  0  3  0  0  0  0  0  0
  2  1  1  6  0  0  0
  2 16  1  0  0  0  0
  2 11  1  0  0  0  0
  3  9  1  0  0  0  0
  4  3  2  0  0  0  0
  5  2  1  0  0  0  0
  5  9  2  0  0  0  0
  7  8  2  0  0  0  0
  7  4  1  0  0  0  0
  8  5  1  0  0  0  0
  9  6  1  0  0  0  0
 10 14  1  0  0  0  0
 11 15  1  0  0  0  0
 12 11  2  0  0  0  0
 12 13  1  0  0  0  0
 13 10  2  0  0  0  0
 15 14  2  0  0  0  0
 17 24  1  0  0  0  0
 17 16  1  0  0  0  0
 20 23  1  0  0  0  0
 21 20  1  0  0  0  0
 22 20  2  0  0  0  0
 22 24  1  0  0  0  0
 23 19  1  0  0  0  0
 23 18  2  0  0  0  0
 24 25  2  0  0  0  0
 25 18  1  0  0  0  0
 26 27  2  0  0  0  0
 27 22  1  0  0  0  0
M  END
>  <MODEL>
5

>  <REMARK>
 VINA RESULT:      -6.9      3.300      6.112
  Name = 
  6 active torsions:
  status: ('A' for Active; 'I' for Inactive)
    1  A    between atoms: N_2  and  C_6
    2  A    between atoms: N_2  and  C_15
    3  A    between atoms: C_6  and  C_17
    4  A    between atoms: C_9  and  C_15
    5  A    between atoms: C_14  and  C_19
    6  A    between atoms: C_15  and  C_18
                            x       y       z     vdW  Elec       q    Type
                         _______ _______ _______ _____ _____    ______ ____

>  <TORSDO>
F 6

$$$$
=
 OpenBabel11052418273D

 27 29  0  0  1  0  0  0  0  0999 V2000
  190.1950  177.5510  142.8450 C   0  0  0  0  0  1  0  0  0  0  0  0
  189.9780  176.2350  143.6060 C   0  0  2  0  0  0  0  0  0  0  0  0
  192.3210  174.9180  146.3560 C   0  0  0  0  0  3  0  0  0  0  0  0
  193.4330  175.7320  146.1530 C   0  0  0  0  0  3  0  0  0  0  0  0
  191.1860  176.0240  144.5150 C   0  0  0  0  0  0  0  0  0  0  0  0
  190.0250  174.1640  145.8290 C   0  0  0  0  0  1  0  0  0  0  0  0
  193.3980  176.6850  145.1370 C   0  0  0  0  0  3  0  0  0  0  0  0
  192.2930  176.8090  144.3570 N   0  0  0  0  0  0  0  0  0  0  0  0
  191.1900  175.0530  145.5500 C   0  0  0  0  0  0  0  0  0  0  0  0
  189.5570  172.8280  140.9470 C   0  0  0  0  0  3  0  0  0  0  0  0
  189.8350  175.0660  142.6300 C   0  0  0  0  0  0  0  0  0  0  0  0
  188.5720  174.4880  142.4070 C   0  0  0  0  0  3  0  0  0  0  0  0
  188.4330  173.3810  141.5650 C   0  0  0  0  0  3  0  0  0  0  0  0
  190.8210  173.3760  141.1770 C   0  0  0  0  0  3  0  0  0  0  0  0
  190.9600  174.4830  142.0200 C   0  0  0  0  0  3  0  0  0  0  0  0
  188.7740  176.3380  144.4490 N   0  0  0  0  0  2  0  0  0  0  0  0
  188.5870  177.6930  144.9680 C   0  0  0  0  0  2  0  0  0  0  0  0
  185.3630  178.0090  146.8780 C   0  0  0  0  0  3  0  0  0  0  0  0
  183.1720  178.6660  146.2450 F   0  0  0  0  0  0  0  0  0  0  0  0
  184.8880  178.6150  144.5830 C   0  0  0  0  0  0  0  0  0  0  0  0
  183.9680  179.0400  143.6290 O   0  0  0  0  0  1  0  0  0  0  0  0
  186.2290  178.3710  144.2220 C   0  0  0  0  0  0  0  0  0  0  0  0
  184.4620  178.4320  145.9040 C   0  0  0  0  0  0  0  0  0  0  0  0
  187.1380  177.9370  145.2250 C   0  0  0  0  0  0  0  0  0  0  0  0
  186.6930  177.7670  146.5410 C   0  0  0  0  0  3  0  0  0  0  0  0
  186.5540  177.6610  141.8470 C   0  0  0  0  0  2  0  0  0  0  0  0
  186.5950  178.5830  142.8000 C   0  0  0  0  0  3  0  0  0  0  0  0
  2  1  1  6  0  0  0
  2 16  1  0  0  0  0
  2  5  1  0  0  0  0
  4  3  1  0  0  0  0
  5  9  1  0  0  0  0
  7  4  2  0  0  0  0
  8  5  2  0  0  0  0
  8  7  1  0  0  0  0
  9  6  1  0  0  0  0
  9  3  2  0  0  0  0
 10 14  2  0  0  0  0
 10 13  1  0  0  0  0
 11  2  1  0  0  0  0
 12 11  1  0  0  0  0
 13 12  2  0  0  0  0
 14 15  1  0  0  0  0
 15 11  2  0  0  0  0
 16 17  1  0  0  0  0
 17 24  1  0  0  0  0
 20 23  1  0  0  0  0
 21 20  1  0  0  0  0
 22 20  2  0  0  0  0
 22 24  1  0  0  0  0
 23 19  1  0  0  0  0
 23 18  2  0  0  0  0
 24 25  2  0  0  0  0
 25 18  1  0  0  0  0
 26 27  2  0  0  0  0
 27 22  1  0  0  0  0
M  END
>  <MODEL>
6

>  <REMARK>
 VINA RESULT:      -6.8      1.541      2.072
  Name = 
  6 active torsions:
  status: ('A' for Active; 'I' for Inactive)
    1  A    between atoms: N_2  and  C_6
    2  A    between atoms: N_2  and  C_15
    3  A    between atoms: C_6  and  C_17
    4  A    between atoms: C_9  and  C_15
    5  A    between atoms: C_14  and  C_19
    6  A    between atoms: C_15  and  C_18
                            x       y       z     vdW  Elec       q    Type
                         _______ _______ _______ _____ _____    ______ ____

>  <TORSDO>
F 6

$$$$
=
 OpenBabel11052418273D

 27 29  0  0  1  0  0  0  0  0999 V2000
  187.1400  178.6940  142.4280 C   0  0  0  0  0  1  0  0  0  0  0  0
  186.0940  177.6900  142.9350 C   0  0  2  0  0  0  0  0  0  0  0  0
  183.5030  178.1860  140.1370 C   0  0  0  0  0  3  0  0  0  0  0  0
  182.3760  178.5070  140.8890 C   0  0  0  0  0  3  0  0  0  0  0  0
  184.7930  177.9620  142.1820 C   0  0  0  0  0  0  0  0  0  0  0  0
  185.8940  177.5950  139.9050 C   0  0  0  0  0  1  0  0  0  0  0  0
  182.4800  178.5580  142.2770 C   0  0  0  0  0  3  0  0  0  0  0  0
  183.6670  178.2910  142.8810 N   0  0  0  0  0  0  0  0  0  0  0  0
  184.7190  177.9150  140.7660 C   0  0  0  0  0  0  0  0  0  0  0  0
  185.3490  178.1270  147.1900 C   0  0  0  0  0  3  0  0  0  0  0  0
  185.8810  177.8490  144.4410 C   0  0  0  0  0  0  0  0  0  0  0  0
  185.5600  176.7280  145.2270 C   0  0  0  0  0  3  0  0  0  0  0  0
  185.3020  176.8650  146.5940 C   0  0  0  0  0  3  0  0  0  0  0  0
  185.6440  179.2540  146.4190 C   0  0  0  0  0  3  0  0  0  0  0  0
  185.9010  179.1170  145.0510 C   0  0  0  0  0  3  0  0  0  0  0  0
  186.5300  176.3170  142.6290 N   0  0  0  0  0  2  0  0  0  0  0  0
  187.9530  176.2590  142.2960 C   0  0  0  0  0  2  0  0  0  0  0  0
  189.3050  172.8520  143.1380 C   0  0  0  0  0  3  0  0  0  0  0  0
  190.4930  172.0070  145.0110 F   0  0  0  0  0  0  0  0  0  0  0  0
  189.8340  174.3030  145.0020 C   0  0  0  0  0  0  0  0  0  0  0  0
  190.4200  174.4710  146.2530 O   0  0  0  0  0  1  0  0  0  0  0  0
  189.1980  175.3870  144.3610 C   0  0  0  0  0  0  0  0  0  0  0  0
  189.8820  173.0460  144.3900 C   0  0  0  0  0  0  0  0  0  0  0  0
  188.6100  175.1760  143.0850 C   0  0  0  0  0  0  0  0  0  0  0  0
  188.6760  173.9120  142.4880 C   0  0  0  0  0  3  0  0  0  0  0  0
  190.0630  177.6660  144.9160 C   0  0  0  0  0  2  0  0  0  0  0  0
  189.1860  176.6850  145.0820 C   0  0  0  0  0  3  0  0  0  0  0  0
  2  1  1  6  0  0  0
  2 11  1  0  0  0  0
  3  9  2  0  0  0  0
  3  4  1  0  0  0  0
  4  7  2  0  0  0  0
  5  8  2  0  0  0  0
  5  2  1  0  0  0  0
  6  9  1  0  0  0  0
  7  8  1  0  0  0  0
  9  5  1  0  0  0  0
 11 15  2  0  0  0  0
 11 12  1  0  0  0  0
 12 13  2  0  0  0  0
 13 10  1  0  0  0  0
 14 10  2  0  0  0  0
 15 14  1  0  0  0  0
 16  2  1  0  0  0  0
 17 16  1  0  0  0  0
 17 24  1  0  0  0  0
 18 23  1  0  0  0  0
 20 21  1  0  0  0  0
 22 20  1  0  0  0  0
 22 27  1  0  0  0  0
 23 20  2  0  0  0  0
 23 19  1  0  0  0  0
 24 22  2  0  0  0  0
 25 24  1  0  0  0  0
 25 18  2  0  0  0  0
 26 27  2  0  0  0  0
M  END
>  <MODEL>
7

>  <REMARK>
 VINA RESULT:      -6.8      3.606      7.693
  Name = 
  6 active torsions:
  status: ('A' for Active; 'I' for Inactive)
    1  A    between atoms: N_2  and  C_6
    2  A    between atoms: N_2  and  C_15
    3  A    between atoms: C_6  and  C_17
    4  A    between atoms: C_9  and  C_15
    5  A    between atoms: C_14  and  C_19
    6  A    between atoms: C_15  and  C_18
                            x       y       z     vdW  Elec       q    Type
                         _______ _______ _______ _____ _____    ______ ____

>  <TORSDO>
F 6

$$$$
=
 OpenBabel11052418273D

 27 29  0  0  1  0  0  0  0  0999 V2000
  191.1800  176.9590  143.0470 C   0  0  0  0  0  1  0  0  0  0  0  0
  191.2120  176.0580  144.2910 C   0  0  2  0  0  0  0  0  0  0  0  0
  194.9450  175.1400  144.1840 C   0  0  0  0  0  3  0  0  0  0  0  0
  195.3280  175.4880  145.4760 C   0  0  0  0  0  3  0  0  0  0  0  0
  192.6760  175.8550  144.6740 C   0  0  0  0  0  0  0  0  0  0  0  0
  193.2710  174.9060  142.3770 C   0  0  0  0  0  1  0  0  0  0  0  0
  194.3750  176.0060  146.3490 C   0  0  0  0  0  3  0  0  0  0  0  0
  193.0920  176.1730  145.9360 N   0  0  0  0  0  0  0  0  0  0  0  0
  193.6240  175.3140  143.7680 C   0  0  0  0  0  0  0  0  0  0  0  0
  189.2000  172.2920  143.5030 C   0  0  0  0  0  3  0  0  0  0  0  0
  190.5470  174.7120  143.9970 C   0  0  0  0  0  0  0  0  0  0  0  0
  189.7070  174.5740  142.8780 C   0  0  0  0  0  3  0  0  0  0  0  0
  189.0430  173.3690  142.6290 C   0  0  0  0  0  3  0  0  0  0  0  0
  190.0130  172.4210  144.6330 C   0  0  0  0  0  3  0  0  0  0  0  0
  190.6760  173.6260  144.8820 C   0  0  0  0  0  3  0  0  0  0  0  0
  190.5260  176.7260  145.4100 N   0  0  0  0  0  2  0  0  0  0  0  0
  189.6770  177.8250  144.9500 C   0  0  0  0  0  2  0  0  0  0  0  0
  186.6850  176.7770  146.9740 C   0  0  0  0  0  3  0  0  0  0  0  0
  184.3570  176.7400  146.5090 F   0  0  0  0  0  0  0  0  0  0  0  0
  185.8610  177.4940  144.8130 C   0  0  0  0  0  0  0  0  0  0  0  0
  184.7830  177.7110  143.9610 O   0  0  0  0  0  1  0  0  0  0  0  0
  187.1770  177.7660  144.3820 C   0  0  0  0  0  0  0  0  0  0  0  0
  185.6230  177.0010  146.1010 C   0  0  0  0  0  0  0  0  0  0  0  0
  188.2520  177.5300  145.2820 C   0  0  0  0  0  0  0  0  0  0  0  0
  187.9900  177.0430  146.5670 C   0  0  0  0  0  3  0  0  0  0  0  0
  187.6220  177.5450  141.9320 C   0  0  0  0  0  2  0  0  0  0  0  0
  187.3420  178.2800  143.0000 C   0  0  0  0  0  3  0  0  0  0  0  0
  2  1  1  6  0  0  0
  2  5  1  0  0  0  0
  2 16  1  0  0  0  0
  3  4  1  0  0  0  0
  4  7  2  0  0  0  0
  5  8  2  0  0  0  0
  6  9  1  0  0  0  0
  8  7  1  0  0  0  0
  9  3  2  0  0  0  0
  9  5  1  0  0  0  0
 10 14  1  0  0  0  0
 11  2  1  0  0  0  0
 11 15  1  0  0  0  0
 12 11  2  0  0  0  0
 13 12  1  0  0  0  0
 13 10  2  0  0  0  0
 14 15  2  0  0  0  0
 17 24  1  0  0  0  0
 17 16  1  0  0  0  0
 20 23  1  0  0  0  0
 21 20  1  0  0  0  0
 22 20  2  0  0  0  0
 22 24  1  0  0  0  0
 23 19  1  0  0  0  0
 23 18  2  0  0  0  0
 24 25  2  0  0  0  0
 25 18  1  0  0  0  0
 26 27  2  0  0  0  0
 27 22  1  0  0  0  0
M  END
>  <MODEL>
8

>  <REMARK>
 VINA RESULT:      -6.7      1.010      1.469
  Name = 
  6 active torsions:
  status: ('A' for Active; 'I' for Inactive)
    1  A    between atoms: N_2  and  C_6
    2  A    between atoms: N_2  and  C_15
    3  A    between atoms: C_6  and  C_17
    4  A    between atoms: C_9  and  C_15
    5  A    between atoms: C_14  and  C_19
    6  A    between atoms: C_15  and  C_18
                            x       y       z     vdW  Elec       q    Type
                         _______ _______ _______ _____ _____    ______ ____

>  <TORSDO>
F 6

$$$$
=
 OpenBabel11052418273D

 27 29  0  0  1  0  0  0  0  0999 V2000
  189.3060  178.0270  143.5240 C   0  0  0  0  0  1  0  0  0  0  0  0
  188.4030  177.0550  144.2980 C   0  0  2  0  0  0  0  0  0  0  0  0
  185.2710  179.2860  144.3280 C   0  0  0  0  0  3  0  0  0  0  0  0
  184.9540  179.2580  145.6840 C   0  0  0  0  0  3  0  0  0  0  0  0
  187.1720  177.8340  144.7530 C   0  0  0  0  0  0  0  0  0  0  0  0
  186.6750  178.6660  142.3880 C   0  0  0  0  0  1  0  0  0  0  0  0
  185.7570  178.5250  146.5530 C   0  0  0  0  0  3  0  0  0  0  0  0
  186.8310  177.8440  146.0770 N   0  0  0  0  0  0  0  0  0  0  0  0
  186.3770  178.5830  143.8470 C   0  0  0  0  0  0  0  0  0  0  0  0
  190.6150  175.3790  147.6380 C   0  0  0  0  0  3  0  0  0  0  0  0
  189.1450  176.4780  145.5050 C   0  0  0  0  0  0  0  0  0  0  0  0
  190.2430  177.1660  146.0500 C   0  0  0  0  0  3  0  0  0  0  0  0
  190.9690  176.6240  147.1140 C   0  0  0  0  0  3  0  0  0  0  0  0
  189.5400  174.6710  147.0930 C   0  0  0  0  0  3  0  0  0  0  0  0
  188.8150  175.2140  146.0280 C   0  0  0  0  0  3  0  0  0  0  0  0
  187.9620  175.9660  143.4090 N   0  0  0  0  0  2  0  0  0  0  0  0
  188.9340  175.7030  142.3480 C   0  0  0  0  0  2  0  0  0  0  0  0
  189.3170  171.9620  142.3870 C   0  0  0  0  0  3  0  0  0  0  0  0
  191.1220  170.5320  142.9630 F   0  0  0  0  0  0  0  0  0  0  0  0
  191.4160  172.8950  143.1500 C   0  0  0  0  0  0  0  0  0  0  0  0
  192.7190  172.6920  143.5940 O   0  0  0  0  0  1  0  0  0  0  0  0
  190.9010  174.2030  143.0220 C   0  0  0  0  0  0  0  0  0  0  0  0
  190.6230  171.7860  142.8360 C   0  0  0  0  0  0  0  0  0  0  0  0
  189.5660  174.3680  142.5660 C   0  0  0  0  0  0  0  0  0  0  0  0
  188.7930  173.2460  142.2500 C   0  0  0  0  0  3  0  0  0  0  0  0
  192.5630  176.0050  142.5330 C   0  0  0  0  0  2  0  0  0  0  0  0
  191.8060  175.3220  143.3820 C   0  0  0  0  0  3  0  0  0  0  0  0
  2  1  1  6  0  0  0
  2  5  1  0  0  0  0
  2 11  1  0  0  0  0
  3  4  1  0  0  0  0
  4  7  2  0  0  0  0
  5  8  2  0  0  0  0
  6  9  1  0  0  0  0
  8  7  1  0  0  0  0
  9  3  2  0  0  0  0
  9  5  1  0  0  0  0
 11 15  2  0  0  0  0
 11 12  1  0  0  0  0
 12 13  2  0  0  0  0
 13 10  1  0  0  0  0
 14 10  2  0  0  0  0
 15 14  1  0  0  0  0
 16  2  1  0  0  0  0
 17 24  1  0  0  0  0
 17 16  1  0  0  0  0
 18 23  1  0  0  0  0
 20 21  1  0  0  0  0
 22 20  1  0  0  0  0
 22 27  1  0  0  0  0
 23 19  1  0  0  0  0
 23 20  2  0  0  0  0
 24 22  2  0  0  0  0
 25 18  2  0  0  0  0
 25 24  1  0  0  0  0
 26 27  2  0  0  0  0
M  END
>  <MODEL>
9

>  <REMARK>
 VINA RESULT:      -6.5      3.364      6.620
  Name = 
  6 active torsions:
  status: ('A' for Active; 'I' for Inactive)
    1  A    between atoms: N_2  and  C_6
    2  A    between atoms: N_2  and  C_15
    3  A    between atoms: C_6  and  C_17
    4  A    between atoms: C_9  and  C_15
    5  A    between atoms: C_14  and  C_19
    6  A    between atoms: C_15  and  C_18
                            x       y       z     vdW  Elec       q    Type
                         _______ _______ _______ _____ _____    ______ ____

>  <TORSDO>
F 6

$$$$
