=
 OpenBabel11052418083D

 28 32  0  0  1  0  0  0  0  0999 V2000
  188.6460  177.3460  144.3960 C   0  0  0  0  0  0  0  0  0  0  0  0
  193.3270  176.3290  142.3310 C   0  0  0  0  0  3  0  0  0  0  0  0
  191.4390  176.7210  148.3020 C   0  0  0  0  0  1  0  0  0  0  0  0
  194.7390  176.1170  144.2970 C   0  0  0  0  0  0  0  0  0  0  0  0
  192.2090  176.1730  144.5850 C   0  0  2  0  0  3  0  0  0  0  0  0
  195.7320  176.2260  142.0860 C   0  0  0  0  0  0  0  0  0  0  0  0
  193.4520  176.2560  143.7270 C   0  0  0  0  0  0  0  0  0  0  0  0
  193.6860  175.5500  146.5020 C   0  0  0  0  0  2  0  0  0  0  0  0
  195.8690  176.1240  143.4730 C   0  0  0  0  0  3  0  0  0  0  0  0
  189.9570  176.5360  146.2970 C   0  0  0  0  0  0  0  0  0  0  0  0
  191.1540  177.1870  144.1590 C   0  0  0  0  0  2  0  0  0  0  0  0
  194.9380  176.0420  145.7840 C   0  0  0  0  0  2  0  0  0  0  0  0
  187.5390  176.7240  146.4620 C   0  0  0  0  0  3  0  0  0  0  0  0
  191.2640  176.0890  146.9270 C   0  0  1  0  0  3  0  0  0  0  0  0
  188.7680  176.3800  147.0240 C   0  0  0  0  0  3  0  0  0  0  0  0
  196.8590  176.2280  141.2760 O   0  0  0  0  0  1  0  0  0  0  0  0
  194.4620  176.3220  141.5160 C   0  0  0  0  0  3  0  0  0  0  0  0
  192.4980  176.3980  146.0710 C   0  0  2  0  0  3  0  0  0  0  0  0
  187.4800  177.2100  145.1570 C   0  0  0  0  0  3  0  0  0  0  0  0
  189.8930  177.0030  144.9590 C   0  0  0  0  0  0  0  0  0  0  0  0
  188.5380  177.8710  142.9830 C   0  0  0  0  0  2  0  0  0  0  0  0
  187.2060  177.7240  142.3780 N   0  0  0  0  0  0  0  0  0  0  0  0
  184.8840  178.2880  140.8910 C   0  0  0  0  0  0  0  0  0  0  0  0
  187.3060  177.7900  140.9180 C   0  0  0  0  0  2  0  0  0  0  0  0
  186.3050  178.7780  142.8540 C   0  0  0  0  0  2  0  0  0  0  0  0
  184.8800  178.5170  142.3720 C   0  0  0  0  0  2  0  0  0  0  0  0
  183.9700  178.7130  140.2030 O   0  0  0  0  0  0  0  0  0  0  0  0
  185.9620  177.4500  140.2760 C   0  0  0  0  0  2  0  0  0  0  0  0
  1 20  2  0  0  0  0
  1 19  1  0  0  0  0
  2  7  1  0  0  0  0
  4 12  1  0  0  0  0
  5 11  1  6  0  0  0
  5 18  1  0  0  0  0
  6  9  2  0  0  0  0
  7  4  2  0  0  0  0
  7  5  1  0  0  0  0
  9  4  1  0  0  0  0
 10 14  1  0  0  0  0
 10 15  2  0  0  0  0
 11 20  1  0  0  0  0
 12  8  1  0  0  0  0
 13 15  1  0  0  0  0
 14  3  1  1  0  0  0
 16  6  1  0  0  0  0
 17  6  1  0  0  0  0
 17  2  2  0  0  0  0
 18  8  1  1  0  0  0
 18 14  1  0  0  0  0
 19 13  2  0  0  0  0
 20 10  1  0  0  0  0
 21  1  1  0  0  0  0
 22 25  1  0  0  0  0
 22 21  1  0  0  0  0
 23 26  1  0  0  0  0
 24 22  1  0  0  0  0
 26 25  1  0  0  0  0
 27 23  2  0  0  0  0
 28 23  1  0  0  0  0
 28 24  1  0  0  0  0
M  END
>  <MODEL>
1

>  <REMARK>
 VINA RESULT:      -8.9      0.000      0.000
  Name = 
  2 active torsions:
  status: ('A' for Active; 'I' for Inactive)
    1  A    between atoms: C_1  and  C_2
    2  A    between atoms: C_2  and  N_3
                            x       y       z     vdW  Elec       q    Type
                         _______ _______ _______ _____ _____    ______ ____

>  <TORSDO>
F 2

$$$$
=
 OpenBabel11052418083D

 28 32  0  0  1  0  0  0  0  0999 V2000
  193.7580  176.0390  143.8910 C   0  0  0  0  0  0  0  0  0  0  0  0
  189.0890  177.9320  142.5380 C   0  0  0  0  0  3  0  0  0  0  0  0
  191.1530  175.4890  147.9360 C   0  0  0  0  0  1  0  0  0  0  0  0
  187.7660  177.5580  144.5400 C   0  0  0  0  0  0  0  0  0  0  0  0
  190.2940  177.2740  144.6520 C   0  0  2  0  0  3  0  0  0  0  0  0
  186.6900  178.2390  142.4750 C   0  0  0  0  0  0  0  0  0  0  0  0
  189.0190  177.5460  143.8850 C   0  0  0  0  0  0  0  0  0  0  0  0
  188.9310  177.3080  146.7470 C   0  0  0  0  0  2  0  0  0  0  0  0
  186.6090  177.8840  143.8240 C   0  0  0  0  0  3  0  0  0  0  0  0
  192.5740  176.2460  146.0230 C   0  0  0  0  0  0  0  0  0  0  0  0
  191.2600  176.4020  143.8600 C   0  0  0  0  0  2  0  0  0  0  0  0
  187.6240  177.1480  145.9790 C   0  0  0  0  0  2  0  0  0  0  0  0
  194.9770  175.8840  145.9820 C   0  0  0  0  0  3  0  0  0  0  0  0
  191.3240  176.5280  146.8360 C   0  0  1  0  0  3  0  0  0  0  0  0
  193.7950  176.0880  146.6930 C   0  0  0  0  0  3  0  0  0  0  0  0
  185.5380  178.5640  141.7720 O   0  0  0  0  0  1  0  0  0  0  0  0
  187.9300  178.2680  141.8340 C   0  0  0  0  0  3  0  0  0  0  0  0
  190.0420  176.5860  145.9970 C   0  0  2  0  0  3  0  0  0  0  0  0
  194.9570  175.8530  144.5880 C   0  0  0  0  0  3  0  0  0  0  0  0
  192.5580  176.2440  144.6040 C   0  0  0  0  0  0  0  0  0  0  0  0
  193.7800  176.0050  142.3800 C   0  0  0  0  0  2  0  0  0  0  0  0
  194.9910  175.4060  141.8010 N   0  0  0  0  0  0  0  0  0  0  0  0
  196.8750  174.5190  139.9080 C   0  0  0  0  0  0  0  0  0  0  0  0
  195.7210  176.4050  141.0160 C   0  0  0  0  0  2  0  0  0  0  0  0
  194.6450  174.2680  140.9440 C   0  0  0  0  0  2  0  0  0  0  0  0
  195.9070  173.5370  140.4940 C   0  0  0  0  0  2  0  0  0  0  0  0
  197.5570  174.2060  138.9450 O   0  0  0  0  0  0  0  0  0  0  0  0
  197.0720  175.8480  140.5700 C   0  0  0  0  0  2  0  0  0  0  0  0
  1 19  2  0  0  0  0
  1 20  1  0  0  0  0
  2  7  1  0  0  0  0
  4 12  1  0  0  0  0
  5 11  1  6  0  0  0
  5 18  1  0  0  0  0
  6  9  2  0  0  0  0
  7  4  2  0  0  0  0
  7  5  1  0  0  0  0
  9  4  1  0  0  0  0
 10 15  1  0  0  0  0
 10 14  1  0  0  0  0
 11 20  1  0  0  0  0
 12  8  1  0  0  0  0
 13 15  2  0  0  0  0
 14  3  1  1  0  0  0
 16  6  1  0  0  0  0
 17  6  1  0  0  0  0
 17  2  2  0  0  0  0
 18  8  1  1  0  0  0
 18 14  1  0  0  0  0
 19 13  1  0  0  0  0
 20 10  2  0  0  0  0
 21  1  1  0  0  0  0
 22 21  1  0  0  0  0
 23 26  1  0  0  0  0
 23 28  1  0  0  0  0
 24 22  1  0  0  0  0
 25 22  1  0  0  0  0
 26 25  1  0  0  0  0
 27 23  2  0  0  0  0
 28 24  1  0  0  0  0
M  END
>  <MODEL>
2

>  <REMARK>
 VINA RESULT:      -8.8      2.077      7.630
  Name = 
  2 active torsions:
  status: ('A' for Active; 'I' for Inactive)
    1  A    between atoms: C_1  and  C_2
    2  A    between atoms: C_2  and  N_3
                            x       y       z     vdW  Elec       q    Type
                         _______ _______ _______ _____ _____    ______ ____

>  <TORSDO>
F 2

$$$$
=
 OpenBabel11052418083D

 28 32  0  0  1  0  0  0  0  0999 V2000
  190.1030  176.2220  144.8190 C   0  0  0  0  0  0  0  0  0  0  0  0
  186.1250  177.7670  141.8190 C   0  0  0  0  0  3  0  0  0  0  0  0
  186.7840  177.6150  148.0570 C   0  0  0  0  0  1  0  0  0  0  0  0
  184.4320  178.3680  143.4540 C   0  0  0  0  0  0  0  0  0  0  0  0
  186.8180  177.9460  144.2370 C   0  0  2  0  0  3  0  0  0  0  0  0
  183.8600  178.2200  141.1010 C   0  0  0  0  0  0  0  0  0  0  0  0
  185.7590  177.9810  143.1570 C   0  0  0  0  0  0  0  0  0  0  0  0
  185.1390  178.9570  145.7870 C   0  0  0  0  0  2  0  0  0  0  0  0
  183.4880  178.4640  142.4250 C   0  0  0  0  0  3  0  0  0  0  0  0
  188.6210  177.3900  146.3760 C   0  0  0  0  0  0  0  0  0  0  0  0
  187.7460  176.7470  144.0850 C   0  0  0  0  0  2  0  0  0  0  0  0
  183.9760  178.6040  144.8660 C   0  0  0  0  0  2  0  0  0  0  0  0
  190.8990  176.8440  147.0240 C   0  0  0  0  0  3  0  0  0  0  0  0
  187.3140  178.0880  146.7110 C   0  0  1  0  0  3  0  0  0  0  0  0
  189.6630  177.4230  147.3130 C   0  0  0  0  0  3  0  0  0  0  0  0
  182.9180  178.3210  140.0860 O   0  0  0  0  0  1  0  0  0  0  0  0
  185.1780  177.8780  140.7980 C   0  0  0  0  0  3  0  0  0  0  0  0
  186.2250  177.9000  145.6470 C   0  0  2  0  0  3  0  0  0  0  0  0
  191.1150  176.2420  145.7850 C   0  0  0  0  0  3  0  0  0  0  0  0
  188.8500  176.8030  145.1050 C   0  0  0  0  0  0  0  0  0  0  0  0
  190.3800  175.5640  143.4860 C   0  0  0  0  0  2  0  0  0  0  0  0
  190.3090  174.0950  143.5050 N   0  0  0  0  0  0  0  0  0  0  0  0
  190.3260  171.4210  142.6290 C   0  0  0  0  0  0  0  0  0  0  0  0
  191.5670  173.5240  143.0180 C   0  0  0  0  0  2  0  0  0  0  0  0
  189.2020  173.6220  142.6680 C   0  0  0  0  0  2  0  0  0  0  0  0
  189.0150  172.1170  142.8340 C   0  0  0  0  0  2  0  0  0  0  0  0
  190.3640  170.3420  142.0590 O   0  0  0  0  0  0  0  0  0  0  0  0
  191.5740  172.0090  143.2120 C   0  0  0  0  0  2  0  0  0  0  0  0
  1 20  2  0  0  0  0
  1 19  1  0  0  0  0
  2  7  1  0  0  0  0
  4 12  1  0  0  0  0
  5 11  1  6  0  0  0
  5 18  1  0  0  0  0
  6  9  2  0  0  0  0
  7  4  2  0  0  0  0
  7  5  1  0  0  0  0
  9  4  1  0  0  0  0
 10 14  1  0  0  0  0
 10 15  2  0  0  0  0
 11 20  1  0  0  0  0
 12  8  1  0  0  0  0
 13 15  1  0  0  0  0
 14  3  1  1  0  0  0
 16  6  1  0  0  0  0
 17  6  1  0  0  0  0
 17  2  2  0  0  0  0
 18  8  1  6  0  0  0
 18 14  1  0  0  0  0
 19 13  2  0  0  0  0
 20 10  1  0  0  0  0
 21 22  1  0  0  0  0
 21  1  1  0  0  0  0
 23 26  1  0  0  0  0
 23 28  1  0  0  0  0
 24 28  1  0  0  0  0
 24 22  1  0  0  0  0
 25 26  1  0  0  0  0
 25 22  1  0  0  0  0
 27 23  2  0  0  0  0
M  END
>  <MODEL>
3

>  <REMARK>
 VINA RESULT:      -8.7      3.027      7.632
  Name = 
  2 active torsions:
  status: ('A' for Active; 'I' for Inactive)
    1  A    between atoms: C_1  and  C_2
    2  A    between atoms: C_2  and  N_3
                            x       y       z     vdW  Elec       q    Type
                         _______ _______ _______ _____ _____    ______ ____

>  <TORSDO>
F 2

$$$$
=
 OpenBabel11052418083D

 28 32  0  0  1  0  0  0  0  0999 V2000
  192.4570  175.9270  144.2420 C   0  0  0  0  0  0  0  0  0  0  0  0
  188.0720  177.8950  142.2160 C   0  0  0  0  0  3  0  0  0  0  0  0
  189.1510  174.9170  147.6320 C   0  0  0  0  0  1  0  0  0  0  0  0
  186.4050  177.2930  143.8770 C   0  0  0  0  0  0  0  0  0  0  0  0
  188.8740  177.0310  144.4450 C   0  0  2  0  0  3  0  0  0  0  0  0
  185.7200  178.1770  141.7240 C   0  0  0  0  0  0  0  0  0  0  0  0
  187.7600  177.3670  143.4780 C   0  0  0  0  0  0  0  0  0  0  0  0
  187.1370  176.8240  146.2300 C   0  0  0  0  0  2  0  0  0  0  0  0
  185.3960  177.6800  142.9890 C   0  0  0  0  0  3  0  0  0  0  0  0
  190.8840  175.8910  146.1160 C   0  0  0  0  0  0  0  0  0  0  0  0
  190.0010  176.2600  143.7690 C   0  0  0  0  0  2  0  0  0  0  0  0
  186.0050  176.7310  145.2130 C   0  0  0  0  0  2  0  0  0  0  0  0
  193.2620  175.5650  146.5020 C   0  0  0  0  0  3  0  0  0  0  0  0
  189.4930  176.0690  146.6980 C   0  0  1  0  0  3  0  0  0  0  0  0
  191.9600  175.6780  146.9890 C   0  0  0  0  0  3  0  0  0  0  0  0
  184.7130  178.5610  140.8500 O   0  0  0  0  0  1  0  0  0  0  0  0
  187.0570  178.2890  141.3410 C   0  0  0  0  0  3  0  0  0  0  0  0
  188.3930  176.2000  145.6380 C   0  0  2  0  0  3  0  0  0  0  0  0
  193.5070  175.6830  145.1350 C   0  0  0  0  0  3  0  0  0  0  0  0
  191.1380  176.0400  144.7280 C   0  0  0  0  0  0  0  0  0  0  0  0
  192.7670  176.0540  142.7690 C   0  0  0  0  0  2  0  0  0  0  0  0
  194.1570  175.7380  142.4080 N   0  0  0  0  0  0  0  0  0  0  0  0
  196.4300  175.1190  140.8670 C   0  0  0  0  0  0  0  0  0  0  0  0
  194.6850  176.7550  141.4950 C   0  0  0  0  0  2  0  0  0  0  0  0
  194.2360  174.4200  141.7690 C   0  0  0  0  0  2  0  0  0  0  0  0
  195.6940  174.0150  141.5640 C   0  0  0  0  0  2  0  0  0  0  0  0
  197.2850  174.8560  140.0370 O   0  0  0  0  0  0  0  0  0  0  0  0
  196.1800  176.5400  141.2670 C   0  0  0  0  0  2  0  0  0  0  0  0
  1 20  2  0  0  0  0
  1 19  1  0  0  0  0
  2  7  1  0  0  0  0
  4 12  1  0  0  0  0
  5 11  1  6  0  0  0
  5 18  1  0  0  0  0
  6  9  2  0  0  0  0
  7  4  2  0  0  0  0
  7  5  1  0  0  0  0
  9  4  1  0  0  0  0
 10 14  1  0  0  0  0
 10 15  2  0  0  0  0
 11 20  1  0  0  0  0
 12  8  1  0  0  0  0
 13 15  1  0  0  0  0
 14  3  1  1  0  0  0
 16  6  1  0  0  0  0
 17  6  1  0  0  0  0
 17  2  2  0  0  0  0
 18  8  1  1  0  0  0
 18 14  1  0  0  0  0
 19 13  2  0  0  0  0
 20 10  1  0  0  0  0
 21  1  1  0  0  0  0
 22 21  1  0  0  0  0
 23 28  1  0  0  0  0
 23 26  1  0  0  0  0
 24 22  1  0  0  0  0
 25 22  1  0  0  0  0
 26 25  1  0  0  0  0
 27 23  2  0  0  0  0
 28 24  1  0  0  0  0
M  END
>  <MODEL>
4

>  <REMARK>
 VINA RESULT:      -8.6      1.825      7.624
  Name = 
  2 active torsions:
  status: ('A' for Active; 'I' for Inactive)
    1  A    between atoms: C_1  and  C_2
    2  A    between atoms: C_2  and  N_3
                            x       y       z     vdW  Elec       q    Type
                         _______ _______ _______ _____ _____    ______ ____

>  <TORSDO>
F 2

$$$$
=
 OpenBabel11052418083D

 28 32  0  0  1  0  0  0  0  0999 V2000
  186.4560  177.7570  145.9120 C   0  0  0  0  0  0  0  0  0  0  0  0
  189.5220  174.6860  143.0170 C   0  0  0  0  0  3  0  0  0  0  0  0
  184.6440  178.3110  141.4560 C   0  0  0  0  0  1  0  0  0  0  0  0
  188.5410  174.8940  140.8040 C   0  0  0  0  0  0  0  0  0  0  0  0
  187.8070  176.4960  142.6430 C   0  0  2  0  0  3  0  0  0  0  0  0
  190.2330  173.2100  141.2370 C   0  0  0  0  0  0  0  0  0  0  0  0
  188.6020  175.3050  142.1560 C   0  0  0  0  0  0  0  0  0  0  0  0
  187.1520  176.9120  140.2670 C   0  0  0  0  0  2  0  0  0  0  0  0
  189.3420  173.8360  140.3620 C   0  0  0  0  0  3  0  0  0  0  0  0
  185.9070  178.3890  143.6130 C   0  0  0  0  0  0  0  0  0  0  0  0
  187.2200  176.2600  144.0290 C   0  0  0  0  0  2  0  0  0  0  0  0
  187.5730  175.5110  139.8350 C   0  0  0  0  0  2  0  0  0  0  0  0
  185.1920  179.7800  145.4730 C   0  0  0  0  0  3  0  0  0  0  0  0
  186.0140  178.1950  142.1110 C   0  0  1  0  0  3  0  0  0  0  0  0
  185.2640  179.5340  144.1020 C   0  0  0  0  0  3  0  0  0  0  0  0
  191.0260  172.1630  140.7890 O   0  0  0  0  0  1  0  0  0  0  0  0
  190.3260  173.6390  142.5620 C   0  0  0  0  0  3  0  0  0  0  0  0
  186.6540  176.8620  141.7050 C   0  0  2  0  0  3  0  0  0  0  0  0
  185.7800  178.8920  146.3730 C   0  0  0  0  0  3  0  0  0  0  0  0
  186.5300  177.5010  144.5270 C   0  0  0  0  0  0  0  0  0  0  0  0
  187.0860  176.8240  146.9200 C   0  0  0  0  0  2  0  0  0  0  0  0
  188.4210  176.3330  146.5470 N   0  0  0  0  0  0  0  0  0  0  0  0
  191.0910  175.4690  146.7570 C   0  0  0  0  0  0  0  0  0  0  0  0
  188.6960  175.0610  147.2190 C   0  0  0  0  0  2  0  0  0  0  0  0
  189.4500  177.3110  146.9130 C   0  0  0  0  0  2  0  0  0  0  0  0
  190.8080  176.8860  146.3610 C   0  0  0  0  0  2  0  0  0  0  0  0
  192.2260  175.1310  147.0520 O   0  0  0  0  0  0  0  0  0  0  0  0
  189.9950  174.4510  146.6920 C   0  0  0  0  0  2  0  0  0  0  0  0
  1 19  1  0  0  0  0
  1 21  1  0  0  0  0
  4  7  1  0  0  0  0
  5 11  1  1  0  0  0
  6 17  2  0  0  0  0
  7  5  1  0  0  0  0
  7  2  2  0  0  0  0
  9  4  2  0  0  0  0
  9  6  1  0  0  0  0
 10 15  2  0  0  0  0
 10 20  1  0  0  0  0
 11 20  1  0  0  0  0
 12  8  1  0  0  0  0
 12  4  1  0  0  0  0
 13 19  2  0  0  0  0
 14  3  1  6  0  0  0
 14 10  1  0  0  0  0
 15 13  1  0  0  0  0
 16  6  1  0  0  0  0
 17  2  1  0  0  0  0
 18  8  1  6  0  0  0
 18 14  1  0  0  0  0
 18  5  1  0  0  0  0
 20  1  2  0  0  0  0
 22 25  1  0  0  0  0
 22 21  1  0  0  0  0
 22 24  1  0  0  0  0
 23 27  2  0  0  0  0
 26 23  1  0  0  0  0
 26 25  1  0  0  0  0
 28 23  1  0  0  0  0
 28 24  1  0  0  0  0
M  END
>  <MODEL>
5

>  <REMARK>
 VINA RESULT:      -8.6      3.634      6.637
  Name = 
  2 active torsions:
  status: ('A' for Active; 'I' for Inactive)
    1  A    between atoms: C_1  and  C_2
    2  A    between atoms: C_2  and  N_3
                            x       y       z     vdW  Elec       q    Type
                         _______ _______ _______ _____ _____    ______ ____

>  <TORSDO>
F 2

$$$$
=
 OpenBabel11052418083D

 28 32  0  0  1  0  0  0  0  0999 V2000
  189.3890  176.5960  146.0120 C   0  0  0  0  0  0  0  0  0  0  0  0
  190.1280  172.1880  143.3220 C   0  0  0  0  0  3  0  0  0  0  0  0
  194.1400  175.8070  146.5130 C   0  0  0  0  0  1  0  0  0  0  0  0
  192.5280  171.8580  143.4960 C   0  0  0  0  0  0  0  0  0  0  0  0
  191.4050  173.6030  144.9720 C   0  0  2  0  0  3  0  0  0  0  0  0
  191.2170  170.5060  141.9670 C   0  0  0  0  0  0  0  0  0  0  0  0
  191.3620  172.5630  143.8750 C   0  0  0  0  0  0  0  0  0  0  0  0
  193.7760  172.9320  145.3880 C   0  0  0  0  0  2  0  0  0  0  0  0
  192.4490  170.8490  142.5310 C   0  0  0  0  0  3  0  0  0  0  0  0
  191.6450  175.8960  146.6510 C   0  0  0  0  0  0  0  0  0  0  0  0
  190.5380  174.8120  144.6450 C   0  0  0  0  0  2  0  0  0  0  0  0
  193.8800  172.2160  144.0460 C   0  0  0  0  0  2  0  0  0  0  0  0
  190.4870  177.6170  147.9180 C   0  0  0  0  0  3  0  0  0  0  0  0
  192.8550  174.9900  146.5090 C   0  0  1  0  0  3  0  0  0  0  0  0
  191.6030  176.8050  147.7170 C   0  0  0  0  0  3  0  0  0  0  0  0
  191.1470  169.5010  141.0120 O   0  0  0  0  0  1  0  0  0  0  0  0
  190.0570  171.1710  142.3680 C   0  0  0  0  0  3  0  0  0  0  0  0
  192.8220  174.1100  145.2530 C   0  0  2  0  0  3  0  0  0  0  0  0
  189.3890  177.5170  147.0660 C   0  0  0  0  0  3  0  0  0  0  0  0
  190.5150  175.7740  145.8010 C   0  0  0  0  0  0  0  0  0  0  0  0
  188.1760  176.5140  145.1150 C   0  0  0  0  0  2  0  0  0  0  0  0
  187.0710  177.4050  145.5000 N   0  0  0  0  0  0  0  0  0  0  0  0
  184.5400  178.6350  145.5490 C   0  0  0  0  0  0  0  0  0  0  0  0
  185.9150  176.6160  145.9330 C   0  0  0  0  0  2  0  0  0  0  0  0
  186.6840  178.2610  144.3750 C   0  0  0  0  0  2  0  0  0  0  0  0
  185.6680  179.3070  144.8270 C   0  0  0  0  0  2  0  0  0  0  0  0
  183.3980  179.0410  145.4120 O   0  0  0  0  0  0  0  0  0  0  0  0
  184.8350  177.5280  146.5130 C   0  0  0  0  0  2  0  0  0  0  0  0
  1 19  1  0  0  0  0
  2  7  1  0  0  0  0
  4  7  2  0  0  0  0
  4 12  1  0  0  0  0
  5 11  1  6  0  0  0
  5 18  1  0  0  0  0
  6 17  1  0  0  0  0
  6  9  2  0  0  0  0
  7  5  1  0  0  0  0
  9  4  1  0  0  0  0
 10 15  2  0  0  0  0
 11 20  1  0  0  0  0
 12  8  1  0  0  0  0
 14  3  1  6  0  0  0
 14 10  1  0  0  0  0
 15 13  1  0  0  0  0
 16  6  1  0  0  0  0
 17  2  2  0  0  0  0
 18  8  1  1  0  0  0
 18 14  1  0  0  0  0
 19 13  2  0  0  0  0
 20  1  2  0  0  0  0
 20 10  1  0  0  0  0
 21 22  1  0  0  0  0
 21  1  1  0  0  0  0
 22 24  1  0  0  0  0
 23 28  1  0  0  0  0
 24 28  1  0  0  0  0
 25 26  1  0  0  0  0
 25 22  1  0  0  0  0
 26 23  1  0  0  0  0
 27 23  2  0  0  0  0
M  END
>  <MODEL>
6

>  <REMARK>
 VINA RESULT:      -8.4      3.544      4.359
  Name = 
  2 active torsions:
  status: ('A' for Active; 'I' for Inactive)
    1  A    between atoms: C_1  and  C_2
    2  A    between atoms: C_2  and  N_3
                            x       y       z     vdW  Elec       q    Type
                         _______ _______ _______ _____ _____    ______ ____

>  <TORSDO>
F 2

$$$$
=
 OpenBabel11052418083D

 28 32  0  0  1  0  0  0  0  0999 V2000
  190.1920  176.3570  145.3440 C   0  0  0  0  0  0  0  0  0  0  0  0
  186.4290  177.7240  142.0010 C   0  0  0  0  0  3  0  0  0  0  0  0
  186.6260  177.8300  148.2710 C   0  0  0  0  0  1  0  0  0  0  0  0
  184.6120  178.3640  143.4810 C   0  0  0  0  0  0  0  0  0  0  0  0
  186.9390  178.0090  144.4530 C   0  0  2  0  0  3  0  0  0  0  0  0
  184.2170  178.1140  141.1000 C   0  0  0  0  0  0  0  0  0  0  0  0
  185.9620  177.9850  143.2980 C   0  0  0  0  0  0  0  0  0  0  0  0
  185.1380  179.0560  145.8340 C   0  0  0  0  0  2  0  0  0  0  0  0
  183.7460  178.4060  142.3830 C   0  0  0  0  0  3  0  0  0  0  0  0
  188.5850  177.5650  146.7400 C   0  0  0  0  0  0  0  0  0  0  0  0
  187.8890  176.8180  144.4190 C   0  0  0  0  0  2  0  0  0  0  0  0
  184.0500  178.6500  144.8450 C   0  0  0  0  0  2  0  0  0  0  0  0
  190.8150  177.0790  147.5750 C   0  0  0  0  0  3  0  0  0  0  0  0
  187.2490  178.2560  146.9490 C   0  0  1  0  0  3  0  0  0  0  0  0
  189.5550  177.6500  147.7480 C   0  0  0  0  0  3  0  0  0  0  0  0
  183.3520  178.1610  140.0160 O   0  0  0  0  0  1  0  0  0  0  0  0
  185.5580  177.7790  140.9090 C   0  0  0  0  0  3  0  0  0  0  0  0
  186.2430  178.0100  145.8170 C   0  0  2  0  0  3  0  0  0  0  0  0
  191.1290  176.4300  146.3810 C   0  0  0  0  0  3  0  0  0  0  0  0
  188.9140  176.9310  145.5140 C   0  0  0  0  0  0  0  0  0  0  0  0
  190.5740  175.6510  144.0640 C   0  0  0  0  0  2  0  0  0  0  0  0
  191.9980  175.3010  143.9620 N   0  0  0  0  0  0  0  0  0  0  0  0
  194.4700  174.5050  142.8770 C   0  0  0  0  0  0  0  0  0  0  0  0
  192.6700  176.1950  143.0160 C   0  0  0  0  0  2  0  0  0  0  0  0
  192.1580  173.9130  143.5190 C   0  0  0  0  0  2  0  0  0  0  0  0
  193.6240  173.4960  143.5910 C   0  0  0  0  0  2  0  0  0  0  0  0
  195.4370  174.1440  142.2270 O   0  0  0  0  0  0  0  0  0  0  0  0
  194.1800  175.9650  143.0460 C   0  0  0  0  0  2  0  0  0  0  0  0
  1 20  2  0  0  0  0
  1 19  1  0  0  0  0
  2  7  1  0  0  0  0
  4 12  1  0  0  0  0
  5 11  1  1  0  0  0
  5 18  1  0  0  0  0
  6  9  2  0  0  0  0
  7  4  2  0  0  0  0
  7  5  1  0  0  0  0
  9  4  1  0  0  0  0
 10 14  1  0  0  0  0
 10 15  2  0  0  0  0
 11 20  1  0  0  0  0
 12  8  1  0  0  0  0
 13 15  1  0  0  0  0
 14  3  1  1  0  0  0
 16  6  1  0  0  0  0
 17  6  1  0  0  0  0
 17  2  2  0  0  0  0
 18  8  1  6  0  0  0
 18 14  1  0  0  0  0
 19 13  2  0  0  0  0
 20 10  1  0  0  0  0
 21  1  1  0  0  0  0
 22 21  1  0  0  0  0
 23 28  1  0  0  0  0
 23 26  1  0  0  0  0
 24 28  1  0  0  0  0
 24 22  1  0  0  0  0
 25 26  1  0  0  0  0
 25 22  1  0  0  0  0
 27 23  2  0  0  0  0
M  END
>  <MODEL>
7

>  <REMARK>
 VINA RESULT:      -8.3      1.946      7.883
  Name = 
  2 active torsions:
  status: ('A' for Active; 'I' for Inactive)
    1  A    between atoms: C_1  and  C_2
    2  A    between atoms: C_2  and  N_3
                            x       y       z     vdW  Elec       q    Type
                         _______ _______ _______ _____ _____    ______ ____

>  <TORSDO>
F 2

$$$$
=
 OpenBabel11052418083D

 28 32  0  0  1  0  0  0  0  0999 V2000
  187.7130  176.3150  142.7630 C   0  0  0  0  0  0  0  0  0  0  0  0
  192.5590  175.0650  144.2320 C   0  0  0  0  0  3  0  0  0  0  0  0
  187.9660  178.0760  147.2660 C   0  0  0  0  0  1  0  0  0  0  0  0
  192.7080  176.0410  146.4520 C   0  0  0  0  0  0  0  0  0  0  0  0
  190.4340  175.8850  145.3140 C   0  0  2  0  0  3  0  0  0  0  0  0
  194.6970  175.1850  145.3590 C   0  0  0  0  0  0  0  0  0  0  0  0
  191.9360  175.7050  145.3150 C   0  0  0  0  0  0  0  0  0  0  0  0
  190.5990  176.4920  147.7330 C   0  0  0  0  0  2  0  0  0  0  0  0
  194.0850  175.7960  146.4560 C   0  0  0  0  0  3  0  0  0  0  0  0
  187.7140  176.7300  145.1740 C   0  0  0  0  0  0  0  0  0  0  0  0
  189.9240  176.4040  143.9760 C   0  0  0  0  0  2  0  0  0  0  0  0
  192.1010  176.7340  147.6400 C   0  0  0  0  0  2  0  0  0  0  0  0
  185.6200  176.6430  143.9440 C   0  0  0  0  0  3  0  0  0  0  0  0
  188.4230  176.8340  146.5130 C   0  0  1  0  0  3  0  0  0  0  0  0
  186.3140  176.7910  145.1440 C   0  0  0  0  0  3  0  0  0  0  0  0
  196.0630  174.9430  145.3720 O   0  0  0  0  0  1  0  0  0  0  0  0
  193.9330  174.8140  144.2510 C   0  0  0  0  0  3  0  0  0  0  0  0
  189.9520  176.8480  146.4020 C   0  0  2  0  0  3  0  0  0  0  0  0
  186.3170  176.4130  142.7590 C   0  0  0  0  0  3  0  0  0  0  0  0
  188.4210  176.4670  143.9730 C   0  0  0  0  0  0  0  0  0  0  0  0
  188.4300  176.0580  141.4580 C   0  0  0  0  0  2  0  0  0  0  0  0
  188.5520  174.6380  141.0980 N   0  0  0  0  0  0  0  0  0  0  0  0
  189.4380  172.2780  139.8450 C   0  0  0  0  0  0  0  0  0  0  0  0
  189.9110  174.1640  141.3740 C   0  0  0  0  0  2  0  0  0  0  0  0
  188.2440  174.4360  139.6790 C   0  0  0  0  0  2  0  0  0  0  0  0
  188.1910  172.9460  139.3520 C   0  0  0  0  0  2  0  0  0  0  0  0
  189.9500  171.3810  139.1960 O   0  0  0  0  0  0  0  0  0  0  0  0
  189.9950  172.6500  141.1850 C   0  0  0  0  0  2  0  0  0  0  0  0
  1 20  1  0  0  0  0
  2 17  2  0  0  0  0
  2  7  1  0  0  0  0
  4  9  1  0  0  0  0
  4 12  1  0  0  0  0
  5 11  1  6  0  0  0
  5  7  1  0  0  0  0
  5 18  1  0  0  0  0
  6 16  1  0  0  0  0
  6  9  2  0  0  0  0
  7  4  2  0  0  0  0
 10 14  1  0  0  0  0
 12  8  1  0  0  0  0
 13 15  2  0  0  0  0
 14  3  1  6  0  0  0
 15 10  1  0  0  0  0
 17  6  1  0  0  0  0
 18 14  1  0  0  0  0
 18  8  1  1  0  0  0
 19  1  2  0  0  0  0
 19 13  1  0  0  0  0
 20 11  1  0  0  0  0
 20 10  2  0  0  0  0
 21  1  1  0  0  0  0
 22 24  1  0  0  0  0
 22 21  1  0  0  0  0
 23 28  1  0  0  0  0
 25 22  1  0  0  0  0
 26 25  1  0  0  0  0
 26 23  1  0  0  0  0
 27 23  2  0  0  0  0
 28 24  1  0  0  0  0
M  END
>  <MODEL>
8

>  <REMARK>
 VINA RESULT:      -8.3      3.062      4.172
  Name = 
  2 active torsions:
  status: ('A' for Active; 'I' for Inactive)
    1  A    between atoms: C_1  and  C_2
    2  A    between atoms: C_2  and  N_3
                            x       y       z     vdW  Elec       q    Type
                         _______ _______ _______ _____ _____    ______ ____

>  <TORSDO>
F 2

$$$$
=
 OpenBabel11052418083D

 28 32  0  0  1  0  0  0  0  0999 V2000
  189.7920  174.0360  142.9390 C   0  0  0  0  0  0  0  0  0  0  0  0
  187.1660  177.0380  146.2990 C   0  0  0  0  0  3  0  0  0  0  0  0
  187.2480  176.9490  140.0260 C   0  0  0  0  0  1  0  0  0  0  0  0
  185.9720  178.5600  144.8290 C   0  0  0  0  0  0  0  0  0  0  0  0
  187.1160  176.5140  143.8340 C   0  0  2  0  0  3  0  0  0  0  0  0
  186.0300  178.9660  147.2200 C   0  0  0  0  0  0  0  0  0  0  0  0
  186.7850  177.4150  145.0020 C   0  0  0  0  0  0  0  0  0  0  0  0
  185.5440  177.8800  142.4530 C   0  0  0  0  0  2  0  0  0  0  0  0
  185.6190  179.3370  145.9370 C   0  0  0  0  0  3  0  0  0  0  0  0
  188.1350  175.1650  141.5370 C   0  0  0  0  0  0  0  0  0  0  0  0
  188.5580  176.0240  143.8840 C   0  0  0  0  0  2  0  0  0  0  0  0
  185.5380  179.0200  143.4660 C   0  0  0  0  0  2  0  0  0  0  0  0
  189.3670  173.2510  140.6830 C   0  0  0  0  0  3  0  0  0  0  0  0
  187.0350  176.1900  141.3290 C   0  0  1  0  0  3  0  0  0  0  0  0
  188.4040  174.2450  140.5130 C   0  0  0  0  0  3  0  0  0  0  0  0
  185.6720  179.7410  148.3150 O   0  0  0  0  0  1  0  0  0  0  0  0
  186.7970  177.8140  147.4010 C   0  0  0  0  0  3  0  0  0  0  0  0
  186.9030  177.1960  142.4800 C   0  0  2  0  0  3  0  0  0  0  0  0
  190.0610  173.1520  141.8880 C   0  0  0  0  0  3  0  0  0  0  0  0
  188.8220  175.0450  142.7730 C   0  0  0  0  0  0  0  0  0  0  0  0
  190.5630  173.8890  144.2310 C   0  0  0  0  0  2  0  0  0  0  0  0
  191.4520  175.0190  144.5410 N   0  0  0  0  0  0  0  0  0  0  0  0
  193.6800  176.4760  145.4540 C   0  0  0  0  0  0  0  0  0  0  0  0
  192.7290  174.8610  143.8400 C   0  0  0  0  0  2  0  0  0  0  0  0
  191.6950  175.1020  145.9850 C   0  0  0  0  0  2  0  0  0  0  0  0
  192.4630  176.3760  146.3230 C   0  0  0  0  0  2  0  0  0  0  0  0
  194.7210  176.9220  145.9080 O   0  0  0  0  0  0  0  0  0  0  0  0
  193.5840  176.1170  144.0040 C   0  0  0  0  0  2  0  0  0  0  0  0
  1 21  1  0  0  0  0
  2 17  1  0  0  0  0
  4  7  1  0  0  0  0
  4  9  2  0  0  0  0
  5 11  1  1  0  0  0
  5  7  1  0  0  0  0
  6 17  2  0  0  0  0
  6 16  1  0  0  0  0
  7  2  2  0  0  0  0
  8 12  1  0  0  0  0
  9  6  1  0  0  0  0
 10 20  2  0  0  0  0
 12  4  1  0  0  0  0
 13 19  1  0  0  0  0
 14  3  1  6  0  0  0
 14 10  1  0  0  0  0
 14 18  1  0  0  0  0
 15 13  2  0  0  0  0
 15 10  1  0  0  0  0
 18  8  1  1  0  0  0
 18  5  1  0  0  0  0
 19  1  2  0  0  0  0
 20  1  1  0  0  0  0
 20 11  1  0  0  0  0
 21 22  1  0  0  0  0
 22 25  1  0  0  0  0
 23 27  2  0  0  0  0
 23 26  1  0  0  0  0
 24 28  1  0  0  0  0
 24 22  1  0  0  0  0
 25 26  1  0  0  0  0
 28 23  1  0  0  0  0
M  END
>  <MODEL>
9

>  <REMARK>
 VINA RESULT:      -8.2      3.088      8.148
  Name = 
  2 active torsions:
  status: ('A' for Active; 'I' for Inactive)
    1  A    between atoms: C_1  and  C_2
    2  A    between atoms: C_2  and  N_3
                            x       y       z     vdW  Elec       q    Type
                         _______ _______ _______ _____ _____    ______ ____

>  <TORSDO>
F 2

$$$$
