=
 OpenBabel11052417093D

 30 32  0  0  1  0  0  0  0  0999 V2000
  187.5300  177.0840  144.4560 C   0  0  2  0  0  0  0  0  0  0  0  0
  188.8510  177.0470  143.6530 C   0  0  1  0  0  3  0  0  0  0  0  0
  190.5500  175.0240  143.9550 C   0  0  1  0  0  3  0  0  0  0  0  0
  187.7680  176.9990  145.9930 C   0  0  2  0  0  3  0  0  0  0  0  0
  186.7040  176.0210  144.0690 O   0  0  0  0  0  1  0  0  0  0  0  0
  186.8370  178.4320  144.1230 C   0  0  2  0  0  3  0  0  0  0  0  0
  190.3730  174.6430  145.4280 C   0  0  2  0  0  3  0  0  0  0  0  0
  185.8720  178.9730  145.1850 C   0  0  0  0  0  2  0  0  0  0  0  0
  191.1940  178.0380  143.4280 C   0  0  0  0  0  2  0  0  0  0  0  0
  189.9100  178.0110  144.2270 C   0  0  0  0  0  2  0  0  0  0  0  0
  192.7290  175.0250  143.0670 O   0  0  0  0  0  0  0  0  0  0  0  0
  192.1790  177.0770  144.0540 C   0  0  0  0  0  2  0  0  0  0  0  0
  189.3210  175.6240  143.2420 C   0  0  2  0  0  3  0  0  0  0  0  0
  188.4440  175.7100  146.4410 C   0  0  0  0  0  2  0  0  0  0  0  0
  189.5640  173.5010  145.5480 O   0  0  0  0  0  1  0  0  0  0  0  0
  189.8860  175.7810  146.2210 N   0  0  0  0  0  0  0  0  0  0  0  0
  186.4950  177.1920  146.8330 C   0  0  0  0  0  2  0  0  0  0  0  0
  191.8720  175.6730  143.6430 C   0  0  0  0  0  0  0  0  0  0  0  0
  189.4970  175.5740  141.8500 O   0  0  0  0  0  1  0  0  0  0  0  0
  185.3470  177.8560  146.0730 C   0  0  0  0  0  2  0  0  0  0  0  0
  190.5410  175.7260  147.5210 C   0  0  0  0  0  2  0  0  0  0  0  0
  191.5090  176.8910  147.6650 C   0  0  2  0  0  3  0  0  0  0  0  0
  192.8920  176.4330  147.2390 C   0  0  0  0  0  1  0  0  0  0  0  0
  191.5430  177.3350  149.0890 C   0  0  0  0  0  3  0  0  0  0  0  0
  191.1660  178.4510  149.4120 O   0  0  0  0  0  0  0  0  0  0  0  0
  186.2370  178.4950  142.7150 C   0  0  0  0  0  2  0  0  0  0  0  0
  184.5410  178.0300  140.4710 O   0  0  0  0  0  0  0  0  0  0  0  0
  184.7820  178.4250  142.7630 N   0  0  0  0  0  2  0  0  0  0  0  0
  182.5090  178.2610  141.6820 C   0  0  0  0  0  1  0  0  0  0  0  0
  183.9930  178.2410  141.5850 C   0  0  0  0  0  0  0  0  0  0  0  0
  1  5  1  6  0  0  0
  1  4  1  0  0  0  0
  2 10  1  1  0  0  0
  2  1  1  0  0  0  0
  3 18  1  1  0  0  0
  3  7  1  0  0  0  0
  4 14  1  6  0  0  0
  4 17  1  0  0  0  0
  6 26  1  6  0  0  0
  6  1  1  0  0  0  0
  6  8  1  0  0  0  0
  7 15  1  6  0  0  0
  7 16  1  0  0  0  0
  8 20  1  0  0  0  0
  9 12  1  0  0  0  0
  9 10  1  0  0  0  0
 11 18  2  0  0  0  0
 13 19  1  6  0  0  0
 13  2  1  0  0  0  0
 13  3  1  0  0  0  0
 16 14  1  0  0  0  0
 16 21  1  0  0  0  0
 18 12  1  0  0  0  0
 20 17  1  0  0  0  0
 21 22  1  0  0  0  0
 22 23  1  1  0  0  0
 22 24  1  0  0  0  0
 24 25  2  0  0  0  0
 26 28  1  0  0  0  0
 27 30  2  0  0  0  0
 30 29  1  0  0  0  0
 30 28  1  0  0  0  0
M  END
>  <MODEL>
1

>  <REMARK>
 VINA RESULT:      -7.9      0.000      0.000
  Name = 
  5 active torsions:
  status: ('A' for Active; 'I' for Inactive)
    1  A    between atoms: C_7  and  C_10
    2  A    between atoms: C_7  and  C_15
    3  A    between atoms: C_8  and  C_12
    4  A    between atoms: N_9  and  C_12
    5  A    between atoms: C_10  and  N_25
                            x       y       z     vdW  Elec       q    Type
                         _______ _______ _______ _____ _____    ______ ____

>  <TORSDO>
F 5

$$$$
=
 OpenBabel11052417093D

 30 32  0  0  1  0  0  0  0  0999 V2000
  190.9150  176.0620  145.3680 C   0  0  2  0  0  0  0  0  0  0  0  0
  190.7070  175.1250  144.1540 C   0  0  1  0  0  3  0  0  0  0  0  0
  189.3610  175.9700  142.0220 C   0  0  1  0  0  3  0  0  0  0  0  0
  189.5690  176.5960  145.9410 C   0  0  2  0  0  3  0  0  0  0  0  0
  191.7120  177.1520  145.0010 O   0  0  0  0  0  1  0  0  0  0  0  0
  191.6380  175.2290  146.4600 C   0  0  2  0  0  3  0  0  0  0  0  0
  188.3190  176.9170  142.6260 C   0  0  2  0  0  3  0  0  0  0  0  0
  191.4310  175.6950  147.9070 C   0  0  0  0  0  2  0  0  0  0  0  0
  189.4280  173.1010  143.2650 C   0  0  0  0  0  2  0  0  0  0  0  0
  189.6140  174.0670  144.4140 C   0  0  0  0  0  2  0  0  0  0  0  0
  188.6800  174.5450  140.2780 O   0  0  0  0  0  0  0  0  0  0  0  0
  188.3030  173.5990  142.3870 C   0  0  0  0  0  2  0  0  0  0  0  0
  190.7010  175.8430  142.7760 C   0  0  2  0  0  3  0  0  0  0  0  0
  188.7690  177.4340  144.9540 C   0  0  0  0  0  2  0  0  0  0  0  0
  188.7100  178.2550  142.4530 O   0  0  0  0  0  1  0  0  0  0  0  0
  188.0330  176.5770  144.0270 N   0  0  0  0  0  0  0  0  0  0  0  0
  189.7220  177.4000  147.2430 C   0  0  0  0  0  2  0  0  0  0  0  0
  188.7850  174.6870  141.4840 C   0  0  0  0  0  0  0  0  0  0  0  0
  191.6700  175.2620  141.9430 O   0  0  0  0  0  1  0  0  0  0  0  0
  191.0480  177.1650  147.9640 C   0  0  0  0  0  2  0  0  0  0  0  0
  186.6100  176.7910  144.2520 C   0  0  0  0  0  2  0  0  0  0  0  0
  186.4080  177.8330  145.3420 C   0  0  2  0  0  3  0  0  0  0  0  0
  185.6190  177.2050  146.4780 C   0  0  0  0  0  1  0  0  0  0  0  0
  185.6520  178.9920  144.7870 C   0  0  0  0  0  3  0  0  0  0  0  0
  185.8570  179.3940  143.6510 O   0  0  0  0  0  0  0  0  0  0  0  0
  193.1110  174.9420  146.1530 C   0  0  0  0  0  2  0  0  0  0  0  0
  194.2360  174.0690  143.6830 O   0  0  0  0  0  0  0  0  0  0  0  0
  193.3020  173.5500  145.7630 N   0  0  0  0  0  2  0  0  0  0  0  0
  193.9210  171.7520  144.1070 C   0  0  0  0  0  1  0  0  0  0  0  0
  193.8260  173.1880  144.4830 C   0  0  0  0  0  0  0  0  0  0  0  0
  1  5  1  6  0  0  0
  1  4  1  0  0  0  0
  1  6  1  0  0  0  0
  2 10  1  1  0  0  0
  2  1  1  0  0  0  0
  3 18  1  1  0  0  0
  3  7  1  0  0  0  0
  3 13  1  0  0  0  0
  4 14  1  6  0  0  0
  4 17  1  0  0  0  0
  6 26  1  6  0  0  0
  6  8  1  0  0  0  0
  7 15  1  1  0  0  0
  7 16  1  0  0  0  0
  8 20  1  0  0  0  0
  9 10  1  0  0  0  0
 11 18  2  0  0  0  0
 12  9  1  0  0  0  0
 13 19  1  6  0  0  0
 13  2  1  0  0  0  0
 16 21  1  0  0  0  0
 16 14  1  0  0  0  0
 17 20  1  0  0  0  0
 18 12  1  0  0  0  0
 21 22  1  0  0  0  0
 22 23  1  1  0  0  0
 24 22  1  0  0  0  0
 25 24  2  0  0  0  0
 27 30  2  0  0  0  0
 28 26  1  0  0  0  0
 29 30  1  0  0  0  0
 30 28  1  0  0  0  0
M  END
>  <MODEL>
2

>  <REMARK>
 VINA RESULT:      -7.2      2.372      6.362
  Name = 
  5 active torsions:
  status: ('A' for Active; 'I' for Inactive)
    1  A    between atoms: C_7  and  C_10
    2  A    between atoms: C_7  and  C_15
    3  A    between atoms: C_8  and  C_12
    4  A    between atoms: N_9  and  C_12
    5  A    between atoms: C_10  and  N_25
                            x       y       z     vdW  Elec       q    Type
                         _______ _______ _______ _____ _____    ______ ____

>  <TORSDO>
F 5

$$$$
=
 OpenBabel11052417093D

 30 32  0  0  1  0  0  0  0  0999 V2000
  188.2990  177.0980  143.3440 C   0  0  2  0  0  0  0  0  0  0  0  0
  188.6860  176.9520  144.8350 C   0  0  1  0  0  3  0  0  0  0  0  0
  191.1790  176.3360  145.5210 C   0  0  1  0  0  3  0  0  0  0  0  0
  188.6280  175.8180  142.5180 C   0  0  2  0  0  3  0  0  0  0  0  0
  188.9760  178.1850  142.7780 O   0  0  0  0  0  1  0  0  0  0  0  0
  186.7690  177.3530  143.2980 C   0  0  2  0  0  3  0  0  0  0  0  0
  191.6400  175.4340  144.3720 C   0  0  2  0  0  3  0  0  0  0  0  0
  186.0590  176.9470  142.0010 C   0  0  0  0  0  2  0  0  0  0  0  0
  188.5140  175.4690  146.9070 C   0  0  0  0  0  2  0  0  0  0  0  0
  188.2000  175.6150  145.4350 C   0  0  0  0  0  2  0  0  0  0  0  0
  191.8070  175.7450  147.7100 O   0  0  0  0  0  0  0  0  0  0  0  0
  189.8120  174.7080  147.0550 C   0  0  0  0  0  2  0  0  0  0  0  0
  190.1290  177.4130  145.1780 C   0  0  2  0  0  3  0  0  0  0  0  0
  190.1090  175.4680  142.4890 C   0  0  0  0  0  2  0  0  0  0  0  0
  192.4530  176.1490  143.4780 O   0  0  0  0  0  1  0  0  0  0  0  0
  190.5000  174.7770  143.7160 N   0  0  0  0  0  0  0  0  0  0  0  0
  188.1150  175.8630  141.0690 C   0  0  0  0  0  2  0  0  0  0  0  0
  190.9780  175.6130  146.8260 C   0  0  0  0  0  0  0  0  0  0  0  0
  190.0810  178.3810  146.1930 O   0  0  0  0  0  1  0  0  0  0  0  0
  187.0270  176.9080  140.8290 C   0  0  0  0  0  2  0  0  0  0  0  0
  190.9140  173.4270  143.3570 C   0  0  0  0  0  2  0  0  0  0  0  0
  189.7120  172.4930  143.3780 C   0  0  2  0  0  3  0  0  0  0  0  0
  189.5380  171.9540  144.7870 C   0  0  0  0  0  1  0  0  0  0  0  0
  189.9460  171.3630  142.4330 C   0  0  0  0  0  3  0  0  0  0  0  0
  190.8570  171.3980  141.6200 O   0  0  0  0  0  0  0  0  0  0  0  0
  186.3550  178.7510  143.7680 C   0  0  0  0  0  2  0  0  0  0  0  0
  186.4270  178.5390  146.6100 O   0  0  0  0  0  0  0  0  0  0  0  0
  185.1850  178.6860  144.6350 N   0  0  0  0  0  2  0  0  0  0  0  0
  184.0710  178.3850  146.8770 C   0  0  0  0  0  1  0  0  0  0  0  0
  185.2990  178.5280  146.0510 C   0  0  0  0  0  0  0  0  0  0  0  0
  1  5  1  6  0  0  0
  1  2  1  0  0  0  0
  2 13  1  0  0  0  0
  2 10  1  6  0  0  0
  3 18  1  1  0  0  0
  4 17  1  6  0  0  0
  4  1  1  0  0  0  0
  6  1  1  0  0  0  0
  6 26  1  6  0  0  0
  7 15  1  6  0  0  0
  7  3  1  0  0  0  0
  8  6  1  0  0  0  0
  9 12  1  0  0  0  0
 10  9  1  0  0  0  0
 13  3  1  0  0  0  0
 13 19  1  1  0  0  0
 14  4  1  0  0  0  0
 14 16  1  0  0  0  0
 16  7  1  0  0  0  0
 18 12  1  0  0  0  0
 18 11  2  0  0  0  0
 20 17  1  0  0  0  0
 20  8  1  0  0  0  0
 21 22  1  0  0  0  0
 21 16  1  0  0  0  0
 22 23  1  1  0  0  0
 24 22  1  0  0  0  0
 25 24  2  0  0  0  0
 26 28  1  0  0  0  0
 28 30  1  0  0  0  0
 30 27  2  0  0  0  0
 30 29  1  0  0  0  0
M  END
>  <MODEL>
3

>  <REMARK>
 VINA RESULT:      -7.0      2.208      4.775
  Name = 
  5 active torsions:
  status: ('A' for Active; 'I' for Inactive)
    1  A    between atoms: C_7  and  C_10
    2  A    between atoms: C_7  and  C_15
    3  A    between atoms: C_8  and  C_12
    4  A    between atoms: N_9  and  C_12
    5  A    between atoms: C_10  and  N_25
                            x       y       z     vdW  Elec       q    Type
                         _______ _______ _______ _____ _____    ______ ____

>  <TORSDO>
F 5

$$$$
=
 OpenBabel11052417093D

 30 32  0  0  1  0  0  0  0  0999 V2000
  189.6200  175.4430  143.1870 C   0  0  2  0  0  0  0  0  0  0  0  0
  189.4640  175.8990  144.6570 C   0  0  1  0  0  3  0  0  0  0  0  0
  191.5910  176.6680  146.0550 C   0  0  1  0  0  3  0  0  0  0  0  0
  190.6340  174.2710  143.0330 C   0  0  2  0  0  3  0  0  0  0  0  0
  190.0480  176.5160  142.3950 O   0  0  0  0  0  1  0  0  0  0  0  0
  188.2200  174.9690  142.7110 C   0  0  2  0  0  3  0  0  0  0  0  0
  192.7100  175.7870  145.4920 C   0  0  2  0  0  3  0  0  0  0  0  0
  188.2090  173.9520  141.5640 C   0  0  0  0  0  2  0  0  0  0  0  0
  189.0620  175.1260  147.0570 C   0  0  0  0  0  2  0  0  0  0  0  0
  189.2730  174.7080  145.6190 C   0  0  0  0  0  2  0  0  0  0  0  0
  191.5420  177.0420  148.3770 O   0  0  0  0  0  0  0  0  0  0  0  0
  190.3920  175.0930  147.7750 C   0  0  0  0  0  2  0  0  0  0  0  0
  190.4400  177.0270  145.0920 C   0  0  2  0  0  3  0  0  0  0  0  0
  192.0500  174.6220  143.4690 C   0  0  0  0  0  2  0  0  0  0  0  0
  193.5010  176.5130  144.5860 O   0  0  0  0  0  1  0  0  0  0  0  0
  192.1770  174.5410  144.9220 N   0  0  0  0  0  0  0  0  0  0  0  0
  190.6980  173.6840  141.6130 C   0  0  0  0  0  2  0  0  0  0  0  0
  191.1860  176.3190  147.4630 C   0  0  0  0  0  0  0  0  0  0  0  0
  189.7060  178.1090  145.5990 O   0  0  0  0  0  1  0  0  0  0  0  0
  189.4880  174.0280  140.7460 C   0  0  0  0  0  2  0  0  0  0  0  0
  193.1200  173.4750  145.2310 C   0  0  0  0  0  2  0  0  0  0  0  0
  193.9160  173.1090  143.9860 C   0  0  2  0  0  3  0  0  0  0  0  0
  193.7180  171.6310  143.6970 C   0  0  0  0  0  1  0  0  0  0  0  0
  195.3620  173.3860  144.2230 C   0  0  0  0  0  3  0  0  0  0  0  0
  195.7310  174.0330  145.1910 O   0  0  0  0  0  0  0  0  0  0  0  0
  187.2200  176.1070  142.4820 C   0  0  0  0  0  2  0  0  0  0  0  0
  186.8070  178.3920  144.1360 O   0  0  0  0  0  0  0  0  0  0  0  0
  186.2600  176.1890  143.5760 N   0  0  0  0  0  2  0  0  0  0  0  0
  185.2070  177.3500  145.5520 C   0  0  0  0  0  1  0  0  0  0  0  0
  186.1450  177.3530  144.3980 C   0  0  0  0  0  0  0  0  0  0  0  0
  1  5  1  6  0  0  0
  1  2  1  0  0  0  0
  2 13  1  0  0  0  0
  2 10  1  1  0  0  0
  3 18  1  1  0  0  0
  4 17  1  6  0  0  0
  4  1  1  0  0  0  0
  4 14  1  0  0  0  0
  6 26  1  6  0  0  0
  6  1  1  0  0  0  0
  7 15  1  6  0  0  0
  7  3  1  0  0  0  0
  8  6  1  0  0  0  0
  9 12  1  0  0  0  0
 10  9  1  0  0  0  0
 13 19  1  1  0  0  0
 13  3  1  0  0  0  0
 14 16  1  0  0  0  0
 16 21  1  0  0  0  0
 16  7  1  0  0  0  0
 18 12  1  0  0  0  0
 18 11  2  0  0  0  0
 20  8  1  0  0  0  0
 20 17  1  0  0  0  0
 22 23  1  1  0  0  0
 22 24  1  0  0  0  0
 22 21  1  0  0  0  0
 24 25  2  0  0  0  0
 26 28  1  0  0  0  0
 27 30  2  0  0  0  0
 28 30  1  0  0  0  0
 30 29  1  0  0  0  0
M  END
>  <MODEL>
4

>  <REMARK>
 VINA RESULT:      -6.8      2.364      4.846
  Name = 
  5 active torsions:
  status: ('A' for Active; 'I' for Inactive)
    1  A    between atoms: C_7  and  C_10
    2  A    between atoms: C_7  and  C_15
    3  A    between atoms: C_8  and  C_12
    4  A    between atoms: N_9  and  C_12
    5  A    between atoms: C_10  and  N_25
                            x       y       z     vdW  Elec       q    Type
                         _______ _______ _______ _____ _____    ______ ____

>  <TORSDO>
F 5

$$$$
=
 OpenBabel11052417093D

 30 32  0  0  1  0  0  0  0  0999 V2000
  189.2320  176.5450  143.1040 C   0  0  2  0  0  0  0  0  0  0  0  0
  190.1510  177.0320  144.2490 C   0  0  1  0  0  3  0  0  0  0  0  0
  192.7940  176.9470  143.9780 C   0  0  1  0  0  3  0  0  0  0  0  0
  189.5350  175.0760  142.6860 C   0  0  2  0  0  3  0  0  0  0  0  0
  189.3820  177.3720  141.9850 O   0  0  0  0  0  1  0  0  0  0  0  0
  187.7730  176.6340  143.6280 C   0  0  2  0  0  3  0  0  0  0  0  0
  193.0110  175.7060  143.1070 C   0  0  2  0  0  3  0  0  0  0  0  0
  186.7630  175.6910  142.9640 C   0  0  0  0  0  2  0  0  0  0  0  0
  191.0910  176.4800  146.5590 C   0  0  0  0  0  2  0  0  0  0  0  0
  190.2440  176.0070  145.3990 C   0  0  0  0  0  2  0  0  0  0  0  0
  194.2870  177.3230  145.7580 O   0  0  0  0  0  0  0  0  0  0  0  0
  192.4960  175.9500  146.3850 C   0  0  0  0  0  2  0  0  0  0  0  0
  191.4680  177.7100  143.7800 C   0  0  2  0  0  3  0  0  0  0  0  0
  190.9450  174.8670  142.1500 C   0  0  0  0  0  2  0  0  0  0  0  0
  193.2540  176.0750  141.7740 O   0  0  0  0  0  1  0  0  0  0  0  0
  191.9010  174.7510  143.2480 N   0  0  0  0  0  0  0  0  0  0  0  0
  188.5410  174.5020  141.6620 C   0  0  0  0  0  2  0  0  0  0  0  0
  193.2520  176.7840  145.4030 C   0  0  0  0  0  0  0  0  0  0  0  0
  191.5590  178.9920  144.3420 O   0  0  0  0  0  1  0  0  0  0  0  0
  187.2260  175.2730  141.5770 C   0  0  0  0  0  2  0  0  0  0  0  0
  192.4660  173.4090  143.2110 C   0  0  0  0  0  2  0  0  0  0  0  0
  192.1690  172.6850  144.5160 C   0  0  2  0  0  3  0  0  0  0  0  0
  193.3440  171.7840  144.8540 C   0  0  0  0  0  1  0  0  0  0  0  0
  190.9350  171.8620  144.3570 C   0  0  0  0  0  3  0  0  0  0  0  0
  189.8620  172.2400  144.8020 O   0  0  0  0  0  0  0  0  0  0  0  0
  187.2370  178.0640  143.7430 C   0  0  0  0  0  2  0  0  0  0  0  0
  184.3880  178.1590  143.7890 O   0  0  0  0  0  0  0  0  0  0  0  0
  186.4210  178.2220  144.9410 N   0  0  0  0  0  2  0  0  0  0  0  0
  184.2210  178.5580  146.1260 C   0  0  0  0  0  1  0  0  0  0  0  0
  184.9960  178.3140  144.8800 C   0  0  0  0  0  0  0  0  0  0  0  0
  1  5  1  6  0  0  0
  1  6  1  0  0  0  0
  1  2  1  0  0  0  0
  2 10  1  1  0  0  0
  3 18  1  1  0  0  0
  4 17  1  6  0  0  0
  4  1  1  0  0  0  0
  6 26  1  6  0  0  0
  7 15  1  6  0  0  0
  7 16  1  0  0  0  0
  7  3  1  0  0  0  0
  8  6  1  0  0  0  0
 10  9  1  0  0  0  0
 12  9  1  0  0  0  0
 13  3  1  0  0  0  0
 13  2  1  0  0  0  0
 13 19  1  1  0  0  0
 14  4  1  0  0  0  0
 14 16  1  0  0  0  0
 18 11  2  0  0  0  0
 18 12  1  0  0  0  0
 20 17  1  0  0  0  0
 20  8  1  0  0  0  0
 21 16  1  0  0  0  0
 21 22  1  0  0  0  0
 22 23  1  6  0  0  0
 24 22  1  0  0  0  0
 24 25  2  0  0  0  0
 26 28  1  0  0  0  0
 27 30  2  0  0  0  0
 30 28  1  0  0  0  0
 30 29  1  0  0  0  0
M  END
>  <MODEL>
5

>  <REMARK>
 VINA RESULT:      -6.6      2.239      4.296
  Name = 
  5 active torsions:
  status: ('A' for Active; 'I' for Inactive)
    1  A    between atoms: C_7  and  C_10
    2  A    between atoms: C_7  and  C_15
    3  A    between atoms: C_8  and  C_12
    4  A    between atoms: N_9  and  C_12
    5  A    between atoms: C_10  and  N_25
                            x       y       z     vdW  Elec       q    Type
                         _______ _______ _______ _____ _____    ______ ____

>  <TORSDO>
F 5

$$$$
=
 OpenBabel11052417093D

 30 32  0  0  1  0  0  0  0  0999 V2000
  190.2530  175.0850  145.5250 C   0  0  2  0  0  0  0  0  0  0  0  0
  189.9350  174.4510  144.1500 C   0  0  1  0  0  3  0  0  0  0  0  0
  191.3240  172.3560  143.2850 C   0  0  1  0  0  3  0  0  0  0  0  0
  191.7420  175.5270  145.6430 C   0  0  2  0  0  3  0  0  0  0  0  0
  189.9710  174.1740  146.5500 O   0  0  0  0  0  1  0  0  0  0  0  0
  189.3400  176.3320  145.6680 C   0  0  2  0  0  3  0  0  0  0  0  0
  192.7190  172.6020  143.8690 C   0  0  2  0  0  3  0  0  0  0  0  0
  189.8500  177.4350  146.6040 C   0  0  0  0  0  2  0  0  0  0  0  0
  190.1430  174.7230  141.6190 C   0  0  0  0  0  2  0  0  0  0  0  0
  190.4870  175.2900  142.9790 C   0  0  0  0  0  2  0  0  0  0  0  0
  191.1770  171.5280  141.0870 O   0  0  0  0  0  0  0  0  0  0  0  0
  191.2930  173.8670  141.1420 C   0  0  0  0  0  2  0  0  0  0  0  0
  190.1290  172.9110  144.0860 C   0  0  2  0  0  3  0  0  0  0  0  0
  192.7350  174.3800  145.5200 C   0  0  0  0  0  2  0  0  0  0  0  0
  192.9250  171.8050  145.0070 O   0  0  0  0  0  1  0  0  0  0  0  0
  192.9510  174.0330  144.1180 N   0  0  0  0  0  0  0  0  0  0  0  0
  192.0600  176.3050  146.9310 C   0  0  0  0  0  2  0  0  0  0  0  0
  191.2480  172.5220  141.7900 C   0  0  0  0  0  0  0  0  0  0  0  0
  188.9370  172.3080  143.6570 O   0  0  0  0  0  1  0  0  0  0  0  0
  190.8290  176.8810  147.6270 C   0  0  0  0  0  2  0  0  0  0  0  0
  194.3420  174.3170  143.7940 C   0  0  0  0  0  2  0  0  0  0  0  0
  194.5090  175.7970  143.4770 C   0  0  2  0  0  3  0  0  0  0  0  0
  194.1680  176.0240  142.0140 C   0  0  0  0  0  1  0  0  0  0  0  0
  195.9210  176.2030  143.7320 C   0  0  0  0  0  3  0  0  0  0  0  0
  196.5550  176.8400  142.9040 O   0  0  0  0  0  0  0  0  0  0  0  0
  187.8660  176.0010  145.9170 C   0  0  0  0  0  2  0  0  0  0  0  0
  185.1830  176.9590  145.7970 O   0  0  0  0  0  0  0  0  0  0  0  0
  187.2680  176.9450  146.8540 N   0  0  0  0  0  2  0  0  0  0  0  0
  185.4000  178.4470  147.6370 C   0  0  0  0  0  1  0  0  0  0  0  0
  185.9290  177.4210  146.6990 C   0  0  0  0  0  0  0  0  0  0  0  0
  1  4  1  0  0  0  0
  1  6  1  0  0  0  0
  1  5  1  1  0  0  0
  2 10  1  6  0  0  0
  2  1  1  0  0  0  0
  3 18  1  6  0  0  0
  3  7  1  0  0  0  0
  3 13  1  0  0  0  0
  4 14  1  1  0  0  0
  4 17  1  0  0  0  0
  6 26  1  1  0  0  0
  6  8  1  0  0  0  0
  7 16  1  0  0  0  0
  7 15  1  1  0  0  0
  8 20  1  0  0  0  0
  9 10  1  0  0  0  0
 11 18  2  0  0  0  0
 12  9  1  0  0  0  0
 12 18  1  0  0  0  0
 13 19  1  6  0  0  0
 13  2  1  0  0  0  0
 16 14  1  0  0  0  0
 17 20  1  0  0  0  0
 21 16  1  0  0  0  0
 22 23  1  6  0  0  0
 22 24  1  0  0  0  0
 22 21  1  0  0  0  0
 25 24  2  0  0  0  0
 26 28  1  0  0  0  0
 27 30  2  0  0  0  0
 30 28  1  0  0  0  0
 30 29  1  0  0  0  0
M  END
>  <MODEL>
6

>  <REMARK>
 VINA RESULT:      -6.5      2.981      4.791
  Name = 
  5 active torsions:
  status: ('A' for Active; 'I' for Inactive)
    1  A    between atoms: C_7  and  C_10
    2  A    between atoms: C_7  and  C_15
    3  A    between atoms: C_8  and  C_12
    4  A    between atoms: N_9  and  C_12
    5  A    between atoms: C_10  and  N_25
                            x       y       z     vdW  Elec       q    Type
                         _______ _______ _______ _____ _____    ______ ____

>  <TORSDO>
F 5

$$$$
=
 OpenBabel11052417093D

 30 32  0  0  1  0  0  0  0  0999 V2000
  189.5270  175.6050  143.2350 C   0  0  2  0  0  0  0  0  0  0  0  0
  189.6460  174.5200  142.1390 C   0  0  1  0  0  3  0  0  0  0  0  0
  189.7930  171.9500  142.8050 C   0  0  1  0  0  3  0  0  0  0  0  0
  190.6910  175.5340  144.2680 C   0  0  2  0  0  3  0  0  0  0  0  0
  188.3110  175.4670  143.9150 O   0  0  0  0  0  1  0  0  0  0  0  0
  189.5700  176.9790  142.5140 C   0  0  2  0  0  3  0  0  0  0  0  0
  190.5500  171.9820  144.1350 C   0  0  2  0  0  3  0  0  0  0  0  0
  190.0610  178.1640  143.3560 C   0  0  0  0  0  2  0  0  0  0  0  0
  191.2040  173.4250  140.4360 C   0  0  0  0  0  2  0  0  0  0  0  0
  191.0710  174.4400  141.5500 C   0  0  0  0  0  2  0  0  0  0  0  0
  190.3260  170.2480  141.2700 O   0  0  0  0  0  0  0  0  0  0  0  0
  191.7050  172.1240  141.0180 C   0  0  0  0  0  2  0  0  0  0  0  0
  188.9280  173.1820  142.4700 C   0  0  2  0  0  3  0  0  0  0  0  0
  190.7470  174.2240  145.0410 C   0  0  0  0  0  2  0  0  0  0  0  0
  189.6620  171.8320  145.2130 O   0  0  0  0  0  1  0  0  0  0  0  0
  191.3920  173.1830  144.2450 N   0  0  0  0  0  0  0  0  0  0  0  0
  190.6970  176.6920  145.2800 C   0  0  0  0  0  2  0  0  0  0  0  0
  190.5850  171.3730  141.6620 C   0  0  0  0  0  0  0  0  0  0  0  0
  188.0220  172.8730  141.4440 O   0  0  0  0  0  1  0  0  0  0  0  0
  189.8730  177.9010  144.8420 C   0  0  0  0  0  2  0  0  0  0  0  0
  192.6240  172.7990  144.9210 C   0  0  0  0  0  2  0  0  0  0  0  0
  193.8000  173.5600  144.3280 C   0  0  2  0  0  3  0  0  0  0  0  0
  194.6950  172.5780  143.5900 C   0  0  0  0  0  1  0  0  0  0  0  0
  194.5710  174.2160  145.4230 C   0  0  0  0  0  3  0  0  0  0  0  0
  194.0650  175.0860  146.1170 O   0  0  0  0  0  0  0  0  0  0  0  0
  188.2950  177.3160  141.7360 C   0  0  0  0  0  2  0  0  0  0  0  0
  185.6960  177.0510  142.8790 O   0  0  0  0  0  0  0  0  0  0  0  0
  187.5510  178.3870  142.3870 N   0  0  0  0  0  2  0  0  0  0  0  0
  185.4850  179.3430  143.4720 C   0  0  0  0  0  1  0  0  0  0  0  0
  186.2280  178.1930  142.8920 C   0  0  0  0  0  0  0  0  0  0  0  0
  1  5  1  1  0  0  0
  1  4  1  0  0  0  0
  2 10  1  1  0  0  0
  2 13  1  0  0  0  0
  2  1  1  0  0  0  0
  3 18  1  6  0  0  0
  3  7  1  0  0  0  0
  4 14  1  1  0  0  0
  4 17  1  0  0  0  0
  6 26  1  1  0  0  0
  6  1  1  0  0  0  0
  6  8  1  0  0  0  0
  7 16  1  0  0  0  0
  7 15  1  1  0  0  0
  8 20  1  0  0  0  0
  9 12  1  0  0  0  0
  9 10  1  0  0  0  0
 11 18  2  0  0  0  0
 12 18  1  0  0  0  0
 13 19  1  6  0  0  0
 13  3  1  0  0  0  0
 16 21  1  0  0  0  0
 16 14  1  0  0  0  0
 20 17  1  0  0  0  0
 22 23  1  1  0  0  0
 22 21  1  0  0  0  0
 22 24  1  0  0  0  0
 24 25  2  0  0  0  0
 26 28  1  0  0  0  0
 27 30  2  0  0  0  0
 28 30  1  0  0  0  0
 30 29  1  0  0  0  0
M  END
>  <MODEL>
7

>  <REMARK>
 VINA RESULT:      -6.5      2.755      4.069
  Name = 
  5 active torsions:
  status: ('A' for Active; 'I' for Inactive)
    1  A    between atoms: C_7  and  C_10
    2  A    between atoms: C_7  and  C_15
    3  A    between atoms: C_8  and  C_12
    4  A    between atoms: N_9  and  C_12
    5  A    between atoms: C_10  and  N_25
                            x       y       z     vdW  Elec       q    Type
                         _______ _______ _______ _____ _____    ______ ____

>  <TORSDO>
F 5

$$$$
=
 OpenBabel11052417093D

 30 32  0  0  1  0  0  0  0  0999 V2000
  191.0940  174.6060  143.2620 C   0  0  2  0  0  0  0  0  0  0  0  0
  191.5640  175.6140  144.3370 C   0  0  1  0  0  3  0  0  0  0  0  0
  193.9860  176.7010  144.1910 C   0  0  1  0  0  3  0  0  0  0  0  0
  192.0600  173.3920  143.1250 C   0  0  2  0  0  3  0  0  0  0  0  0
  190.9930  175.2430  142.0190 O   0  0  0  0  0  1  0  0  0  0  0  0
  189.6960  174.0960  143.7030 C   0  0  2  0  0  3  0  0  0  0  0  0
  194.8270  175.5840  143.5650 C   0  0  2  0  0  3  0  0  0  0  0  0
  189.2890  172.7130  143.1780 C   0  0  0  0  0  2  0  0  0  0  0  0
  192.3770  175.8820  146.7430 C   0  0  0  0  0  2  0  0  0  0  0  0
  191.9660  174.9170  145.6540 C   0  0  0  0  0  2  0  0  0  0  0  0
  194.9420  177.9620  145.9320 O   0  0  0  0  0  0  0  0  0  0  0  0
  193.8800  176.0290  146.7240 C   0  0  0  0  0  2  0  0  0  0  0  0
  192.4930  176.7410  143.8070 C   0  0  2  0  0  3  0  0  0  0  0  0
  193.4690  173.7730  142.6920 C   0  0  0  0  0  2  0  0  0  0  0  0
  195.0360  175.8300  142.1980 O   0  0  0  0  0  1  0  0  0  0  0  0
  194.2440  174.2600  143.8300 N   0  0  0  0  0  0  0  0  0  0  0  0
  191.5480  172.2910  142.1820 C   0  0  0  0  0  2  0  0  0  0  0  0
  194.3000  176.9670  145.6390 C   0  0  0  0  0  0  0  0  0  0  0  0
  191.9430  177.9910  144.1340 O   0  0  0  0  0  1  0  0  0  0  0  0
  190.0460  172.3600  141.9080 C   0  0  0  0  0  2  0  0  0  0  0  0
  195.3430  173.3310  144.0560 C   0  0  0  0  0  2  0  0  0  0  0  0
  195.3940  172.9360  145.5250 C   0  0  2  0  0  3  0  0  0  0  0  0
  196.8160  173.1120  146.0290 C   0  0  0  0  0  1  0  0  0  0  0  0
  194.9830  171.5090  145.6700 C   0  0  0  0  0  3  0  0  0  0  0  0
  194.0030  171.0720  145.0850 O   0  0  0  0  0  0  0  0  0  0  0  0
  188.5750  175.1270  143.5390 C   0  0  0  0  0  2  0  0  0  0  0  0
  188.6360  177.8840  144.2610 O   0  0  0  0  0  0  0  0  0  0  0  0
  188.1670  175.6660  144.8310 N   0  0  0  0  0  2  0  0  0  0  0  0
  187.9210  177.5390  146.5010 C   0  0  0  0  0  1  0  0  0  0  0  0
  188.2750  177.0570  145.1390 C   0  0  0  0  0  0  0  0  0  0  0  0
  1  5  1  6  0  0  0
  1  6  1  0  0  0  0
  1  2  1  0  0  0  0
  2 10  1  1  0  0  0
  3 18  1  1  0  0  0
  4 17  1  6  0  0  0
  4  1  1  0  0  0  0
  6 26  1  6  0  0  0
  7 15  1  6  0  0  0
  7 16  1  0  0  0  0
  7  3  1  0  0  0  0
  8  6  1  0  0  0  0
 10  9  1  0  0  0  0
 12  9  1  0  0  0  0
 13 19  1  1  0  0  0
 13  3  1  0  0  0  0
 13  2  1  0  0  0  0
 14  4  1  0  0  0  0
 14 16  1  0  0  0  0
 16 21  1  0  0  0  0
 18 11  2  0  0  0  0
 18 12  1  0  0  0  0
 20 17  1  0  0  0  0
 20  8  1  0  0  0  0
 21 22  1  0  0  0  0
 22 24  1  0  0  0  0
 22 23  1  6  0  0  0
 25 24  2  0  0  0  0
 26 28  1  0  0  0  0
 27 30  2  0  0  0  0
 28 30  1  0  0  0  0
 30 29  1  0  0  0  0
M  END
>  <MODEL>
8

>  <REMARK>
 VINA RESULT:      -6.4      3.006      5.708
  Name = 
  5 active torsions:
  status: ('A' for Active; 'I' for Inactive)
    1  A    between atoms: C_7  and  C_10
    2  A    between atoms: C_7  and  C_15
    3  A    between atoms: C_8  and  C_12
    4  A    between atoms: N_9  and  C_12
    5  A    between atoms: C_10  and  N_25
                            x       y       z     vdW  Elec       q    Type
                         _______ _______ _______ _____ _____    ______ ____

>  <TORSDO>
F 5

$$$$
=
 OpenBabel11052417093D

 30 32  0  0  1  0  0  0  0  0999 V2000
  192.9180  175.1360  144.4250 C   0  0  2  0  0  0  0  0  0  0  0  0
  192.2260  173.9680  143.6830 C   0  0  1  0  0  3  0  0  0  0  0  0
  190.0770  174.4160  142.1840 C   0  0  1  0  0  3  0  0  0  0  0  0
  191.9410  175.9050  145.3620 C   0  0  2  0  0  3  0  0  0  0  0  0
  193.4590  176.0370  143.5000 O   0  0  0  0  0  1  0  0  0  0  0  0
  194.0580  174.5160  145.2770 C   0  0  2  0  0  3  0  0  0  0  0  0
  189.3790  175.5650  142.9170 C   0  0  2  0  0  3  0  0  0  0  0  0
  194.4850  175.3180  146.5130 C   0  0  0  0  0  2  0  0  0  0  0  0
  190.7280  171.9160  143.9450 C   0  0  0  0  0  2  0  0  0  0  0  0
  191.3730  173.0990  144.6310 C   0  0  0  0  0  2  0  0  0  0  0  0
  188.7390  172.6950  141.2990 O   0  0  0  0  0  0  0  0  0  0  0  0
  189.3250  172.2960  143.5320 C   0  0  0  0  0  2  0  0  0  0  0  0
  191.6130  174.3460  142.3070 C   0  0  2  0  0  3  0  0  0  0  0  0
  190.7780  176.5610  144.6320 C   0  0  0  0  0  2  0  0  0  0  0  0
  189.6310  176.7870  142.2720 O   0  0  0  0  0  1  0  0  0  0  0  0
  189.7310  175.5830  144.3450 N   0  0  0  0  0  0  0  0  0  0  0  0
  192.6240  176.9700  146.2350 C   0  0  0  0  0  2  0  0  0  0  0  0
  189.3500  173.1000  142.2730 C   0  0  0  0  0  0  0  0  0  0  0  0
  192.1400  173.5060  141.3140 O   0  0  0  0  0  1  0  0  0  0  0  0
  194.1360  176.7900  146.3630 C   0  0  0  0  0  2  0  0  0  0  0  0
  188.5400  175.9690  145.0890 C   0  0  0  0  0  2  0  0  0  0  0  0
  188.8950  176.2040  146.5500 C   0  0  2  0  0  3  0  0  0  0  0  0
  188.9410  174.8640  147.2630 C   0  0  0  0  0  1  0  0  0  0  0  0
  187.8570  177.0720  147.1790 C   0  0  0  0  0  3  0  0  0  0  0  0
  186.6660  176.8370  147.0360 O   0  0  0  0  0  0  0  0  0  0  0  0
  195.2600  174.0350  144.4590 C   0  0  0  0  0  2  0  0  0  0  0  0
  197.1910  173.1170  146.3450 O   0  0  0  0  0  0  0  0  0  0  0  0
  195.5600  172.6370  144.7410 N   0  0  0  0  0  2  0  0  0  0  0  0
  196.9000  170.8110  145.8500 C   0  0  0  0  0  1  0  0  0  0  0  0
  196.5800  172.2520  145.6640 C   0  0  0  0  0  0  0  0  0  0  0  0
  1  5  1  6  0  0  0
  1  6  1  0  0  0  0
  1  4  1  0  0  0  0
  2  1  1  0  0  0  0
  2 10  1  1  0  0  0
  3 18  1  1  0  0  0
  3 13  1  0  0  0  0
  3  7  1  0  0  0  0
  4 14  1  6  0  0  0
  4 17  1  0  0  0  0
  6 26  1  6  0  0  0
  6  8  1  0  0  0  0
  7 15  1  6  0  0  0
  7 16  1  0  0  0  0
  9 10  1  0  0  0  0
 11 18  2  0  0  0  0
 12  9  1  0  0  0  0
 13 19  1  6  0  0  0
 13  2  1  0  0  0  0
 16 14  1  0  0  0  0
 16 21  1  0  0  0  0
 17 20  1  0  0  0  0
 18 12  1  0  0  0  0
 20  8  1  0  0  0  0
 21 22  1  0  0  0  0
 22 24  1  0  0  0  0
 22 23  1  1  0  0  0
 25 24  2  0  0  0  0
 26 28  1  0  0  0  0
 28 30  1  0  0  0  0
 30 29  1  0  0  0  0
 30 27  2  0  0  0  0
M  END
>  <MODEL>
9

>  <REMARK>
 VINA RESULT:      -6.4      3.232      7.402
  Name = 
  5 active torsions:
  status: ('A' for Active; 'I' for Inactive)
    1  A    between atoms: C_7  and  C_10
    2  A    between atoms: C_7  and  C_15
    3  A    between atoms: C_8  and  C_12
    4  A    between atoms: N_9  and  C_12
    5  A    between atoms: C_10  and  N_25
                            x       y       z     vdW  Elec       q    Type
                         _______ _______ _______ _____ _____    ______ ____

>  <TORSDO>
F 5

$$$$
