=
 OpenBabel11052417463D

 31 35  0  0  1  0  0  0  0  0999 V2000
  190.9250  172.3590  141.8910 C   0  0  2  0  0  3  0  0  0  0  0  0
  191.3240  174.9360  144.7370 C   0  0  2  0  0  3  0  0  0  0  0  0
  192.7660  175.5050  144.6530 C   0  0  1  0  0  3  0  0  0  0  0  0
  194.5650  176.0040  142.9110 C   0  0  0  0  0  2  0  0  0  0  0  0
  190.8050  174.3010  143.4400 C   0  0  1  0  0  3  0  0  0  0  0  0
  189.5900  172.0260  142.1940 O   0  0  0  0  0  0  0  0  0  0  0  0
  193.0880  176.1510  143.3080 C   0  0  0  0  0  2  0  0  0  0  0  0
  188.8850  175.9910  145.0120 C   0  0  1  0  0  3  0  0  0  0  0  0
  191.6600  171.1650  141.5300 N   0  0  0  0  0  1  0  0  0  0  0  0
  192.1900  176.3940  146.9810 C   0  0  0  0  0  2  0  0  0  0  0  0
  195.5650  175.9440  144.0680 C   0  0  0  0  0  2  0  0  0  0  0  0
  188.5670  175.2930  143.6810 C   0  0  0  0  0  2  0  0  0  0  0  0
  190.3410  175.8730  145.4280 C   0  0  0  0  0  0  0  0  0  0  0  0
  191.5880  173.0340  143.0970 C   0  0  0  0  0  2  0  0  0  0  0  0
  195.3500  177.0340  145.0130 N   0  0  0  0  0  2  0  0  0  0  0  0
  189.3170  173.9830  143.5510 C   0  0  1  0  0  3  0  0  0  0  0  0
  188.8790  173.2380  142.2910 C   0  0  0  0  0  2  0  0  0  0  0  0
  190.7620  176.5180  146.5280 C   0  0  0  0  0  3  0  0  0  0  0  0
  193.0820  176.5440  145.7510 C   0  0  1  0  0  3  0  0  0  0  0  0
  194.5550  176.5140  146.1190 C   0  0  0  0  0  2  0  0  0  0  0  0
  188.4730  177.4580  144.9160 C   0  0  0  0  0  2  0  0  0  0  0  0
  184.6110  178.5370  141.6740 C   0  0  2  0  0  3  0  0  0  0  0  0
  186.8960  178.1390  142.5340 C   0  0  0  0  0  2  0  0  0  0  0  0
  184.7560  179.7720  144.1990 O   0  0  0  0  0  1  0  0  0  0  0  0
  186.4080  177.4770  146.0950 O   0  0  0  0  0  0  0  0  0  0  0  0
  183.6720  178.2910  140.5130 C   0  0  0  0  0  1  0  0  0  0  0  0
  186.9870  177.6200  144.9880 C   0  0  0  0  0  0  0  0  0  0  0  0
  185.9390  177.8490  141.3890 C   0  0  0  0  0  2  0  0  0  0  0  0
  184.8290  178.3940  143.9680 C   0  0  2  0  0  3  0  0  0  0  0  0
  186.2260  177.9610  143.8200 N   0  0  0  0  0  0  0  0  0  0  0  0
  184.0400  178.0130  142.8550 O   0  0  0  0  0  0  0  0  0  0  0  0
  1  9  1  1  0  0  0
  1  6  1  0  0  0  0
  1 14  1  0  0  0  0
  2 13  1  6  0  0  0
  3  7  1  6  0  0  0
  3  2  1  0  0  0  0
  3 19  1  0  0  0  0
  4  7  1  0  0  0  0
  4 11  1  0  0  0  0
  5 14  1  1  0  0  0
  5 16  1  0  0  0  0
  5  2  1  0  0  0  0
  6 17  1  0  0  0  0
  8 21  1  6  0  0  0
  8 13  1  0  0  0  0
 11 15  1  0  0  0  0
 12  8  1  0  0  0  0
 13 18  2  0  0  0  0
 15 20  1  0  0  0  0
 16 17  1  6  0  0  0
 16 12  1  0  0  0  0
 18 10  1  0  0  0  0
 19 20  1  1  0  0  0
 19 10  1  0  0  0  0
 21 27  1  0  0  0  0
 22 26  1  6  0  0  0
 22 31  1  0  0  0  0
 23 30  1  0  0  0  0
 27 25  2  0  0  0  0
 28 22  1  0  0  0  0
 28 23  1  0  0  0  0
 29 24  1  6  0  0  0
 30 29  1  0  0  0  0
 30 27  1  0  0  0  0
 31 29  1  0  0  0  0
M  END
>  <MODEL>
1

>  <REMARK>
 VINA RESULT:      -8.6      0.000      0.000
  Name = 
  2 active torsions:
  status: ('A' for Active; 'I' for Inactive)
    1  A    between atoms: C_9  and  C_23
    2  A    between atoms: C_15  and  C_23
                            x       y       z     vdW  Elec       q    Type
                         _______ _______ _______ _____ _____    ______ ____

>  <TORSDO>
F 2

$$$$
=
 OpenBabel11052417463D

 31 35  0  0  1  0  0  0  0  0999 V2000
  190.7240  172.0700  142.2440 C   0  0  2  0  0  3  0  0  0  0  0  0
  192.6120  174.3600  144.7120 C   0  0  2  0  0  3  0  0  0  0  0  0
  193.7430  175.0690  143.9180 C   0  0  1  0  0  3  0  0  0  0  0  0
  194.2330  175.9170  141.5600 C   0  0  0  0  0  2  0  0  0  0  0  0
  191.4630  173.8180  143.8500 C   0  0  1  0  0  3  0  0  0  0  0  0
  189.8000  171.5810  143.1890 O   0  0  0  0  0  0  0  0  0  0  0  0
  193.2350  175.8810  142.7290 C   0  0  0  0  0  2  0  0  0  0  0  0
  190.7350  175.1440  146.4440 C   0  0  1  0  0  3  0  0  0  0  0  0
  191.1500  170.9950  141.3710 N   0  0  0  0  0  1  0  0  0  0  0  0
  194.5660  175.6510  146.2690 C   0  0  0  0  0  2  0  0  0  0  0  0
  195.7120  175.8310  141.9420 C   0  0  0  0  0  2  0  0  0  0  0  0
  189.7340  174.5620  145.4340 C   0  0  0  0  0  2  0  0  0  0  0  0
  192.1740  175.1220  145.9560 C   0  0  0  0  0  0  0  0  0  0  0  0
  191.9390  172.6740  142.9560 C   0  0  0  0  0  2  0  0  0  0  0  0
  196.0480  176.7910  142.9870 N   0  0  0  0  0  2  0  0  0  0  0  0
  190.3050  173.3500  144.7260 C   0  0  1  0  0  3  0  0  0  0  0  0
  189.2460  172.7040  143.8340 C   0  0  0  0  0  2  0  0  0  0  0  0
  193.1300  175.6850  146.7120 C   0  0  0  0  0  3  0  0  0  0  0  0
  194.6030  176.0130  144.7870 C   0  0  1  0  0  3  0  0  0  0  0  0
  196.0270  176.0850  144.2630 C   0  0  0  0  0  2  0  0  0  0  0  0
  190.3130  176.5680  146.8010 C   0  0  0  0  0  2  0  0  0  0  0  0
  185.4580  177.8960  145.6800 C   0  0  2  0  0  3  0  0  0  0  0  0
  187.4040  176.9610  146.8880 C   0  0  0  0  0  2  0  0  0  0  0  0
  187.0890  176.6500  143.7530 O   0  0  0  0  0  1  0  0  0  0  0  0
  190.2300  177.6010  144.6610 O   0  0  0  0  0  0  0  0  0  0  0  0
  184.1650  178.6660  145.8370 C   0  0  0  0  0  1  0  0  0  0  0  0
  189.5840  177.2250  145.6720 C   0  0  0  0  0  0  0  0  0  0  0  0
  186.1300  177.7770  147.0410 C   0  0  0  0  0  2  0  0  0  0  0  0
  187.4370  177.7830  144.4970 C   0  0  2  0  0  3  0  0  0  0  0  0
  188.1600  177.4060  145.7200 N   0  0  0  0  0  0  0  0  0  0  0  0
  186.3050  178.5840  144.7830 O   0  0  0  0  0  0  0  0  0  0  0  0
  1  9  1  6  0  0  0
  1 14  1  0  0  0  0
  1  6  1  0  0  0  0
  2 13  1  1  0  0  0
  3  7  1  6  0  0  0
  3  2  1  0  0  0  0
  3 19  1  0  0  0  0
  4 11  1  0  0  0  0
  4  7  1  0  0  0  0
  5 14  1  1  0  0  0
  5  2  1  0  0  0  0
  5 16  1  0  0  0  0
  6 17  1  0  0  0  0
  8 21  1  6  0  0  0
 10 18  1  0  0  0  0
 11 15  1  0  0  0  0
 12  8  1  0  0  0  0
 13  8  1  0  0  0  0
 13 18  2  0  0  0  0
 15 20  1  0  0  0  0
 16 17  1  6  0  0  0
 16 12  1  0  0  0  0
 19 20  1  6  0  0  0
 19 10  1  0  0  0  0
 22 26  1  1  0  0  0
 22 28  1  0  0  0  0
 23 28  1  0  0  0  0
 25 27  2  0  0  0  0
 27 30  1  0  0  0  0
 27 21  1  0  0  0  0
 29 24  1  1  0  0  0
 29 31  1  0  0  0  0
 29 30  1  0  0  0  0
 30 23  1  0  0  0  0
 31 22  1  0  0  0  0
M  END
>  <MODEL>
2

>  <REMARK>
 VINA RESULT:      -8.5      1.984      2.732
  Name = 
  2 active torsions:
  status: ('A' for Active; 'I' for Inactive)
    1  A    between atoms: C_9  and  C_23
    2  A    between atoms: C_15  and  C_23
                            x       y       z     vdW  Elec       q    Type
                         _______ _______ _______ _____ _____    ______ ____

>  <TORSDO>
F 2

$$$$
=
 OpenBabel11052417463D

 31 35  0  0  1  0  0  0  0  0999 V2000
  185.9900  177.5330  141.1300 C   0  0  2  0  0  3  0  0  0  0  0  0
  188.0200  177.2240  144.3980 C   0  0  2  0  0  3  0  0  0  0  0  0
  187.0660  177.5670  145.5740 C   0  0  1  0  0  3  0  0  0  0  0  0
  184.5930  177.4020  146.1900 C   0  0  0  0  0  2  0  0  0  0  0  0
  187.3170  176.8000  143.1010 C   0  0  1  0  0  3  0  0  0  0  0  0
  187.0530  177.1800  140.2740 O   0  0  0  0  0  0  0  0  0  0  0  0
  185.8290  176.6750  145.6350 C   0  0  0  0  0  2  0  0  0  0  0  0
  189.7800  175.2780  143.8940 C   0  0  1  0  0  3  0  0  0  0  0  0
  185.2230  178.6110  140.5410 N   0  0  0  0  0  1  0  0  0  0  0  0
  189.2630  177.6840  146.8790 C   0  0  0  0  0  2  0  0  0  0  0  0
  184.8720  178.5140  147.2040 C   0  0  0  0  0  2  0  0  0  0  0  0
  188.9240  174.9930  142.6510 C   0  0  0  0  0  2  0  0  0  0  0  0
  189.1930  176.3420  144.8060 C   0  0  0  0  0  0  0  0  0  0  0  0
  186.5330  177.9640  142.4960 C   0  0  0  0  0  2  0  0  0  0  0  0
  185.7670  178.0570  148.2610 N   0  0  0  0  0  2  0  0  0  0  0  0
  188.3250  176.2670  142.0890 C   0  0  1  0  0  3  0  0  0  0  0  0
  187.5990  175.9820  140.7750 C   0  0  0  0  0  2  0  0  0  0  0  0
  189.8030  176.6150  145.9710 C   0  0  0  0  0  3  0  0  0  0  0  0
  187.7490  177.5050  146.9570 C   0  0  1  0  0  3  0  0  0  0  0  0
  187.1160  178.4940  147.9210 C   0  0  0  0  0  2  0  0  0  0  0  0
  189.9940  173.9750  144.6610 C   0  0  0  0  0  2  0  0  0  0  0  0
  195.1340  174.1060  145.0560 C   0  0  2  0  0  3  0  0  0  0  0  0
  192.7530  174.7110  145.3470 C   0  0  0  0  0  2  0  0  0  0  0  0
  193.8930  173.7520  142.5540 O   0  0  0  0  0  1  0  0  0  0  0  0
  190.9510  172.2350  143.3530 O   0  0  0  0  0  0  0  0  0  0  0  0
  196.4690  173.9870  145.7570 C   0  0  0  0  0  1  0  0  0  0  0  0
  191.1600  173.2050  144.1250 C   0  0  0  0  0  0  0  0  0  0  0  0
  194.0830  174.5440  146.0660 C   0  0  0  0  0  2  0  0  0  0  0  0
  193.6250  172.9990  143.7030 C   0  0  2  0  0  3  0  0  0  0  0  0
  192.5060  173.5770  144.4600 N   0  0  0  0  0  0  0  0  0  0  0  0
  194.7820  172.8520  144.5070 O   0  0  0  0  0  0  0  0  0  0  0  0
  1  9  1  6  0  0  0
  1 14  1  0  0  0  0
  2 13  1  1  0  0  0
  2  3  1  0  0  0  0
  3  7  1  1  0  0  0
  3 19  1  0  0  0  0
  4 11  1  0  0  0  0
  5 14  1  6  0  0  0
  5  2  1  0  0  0  0
  6 17  1  0  0  0  0
  6  1  1  0  0  0  0
  7  4  1  0  0  0  0
  8 21  1  1  0  0  0
  8 13  1  0  0  0  0
 11 15  1  0  0  0  0
 12  8  1  0  0  0  0
 13 18  2  0  0  0  0
 16 17  1  6  0  0  0
 16 12  1  0  0  0  0
 16  5  1  0  0  0  0
 18 10  1  0  0  0  0
 19 10  1  6  0  0  0
 19 20  1  0  0  0  0
 20 15  1  0  0  0  0
 22 26  1  1  0  0  0
 22 28  1  0  0  0  0
 23 28  1  0  0  0  0
 25 27  2  0  0  0  0
 27 30  1  0  0  0  0
 27 21  1  0  0  0  0
 29 24  1  6  0  0  0
 29 30  1  0  0  0  0
 29 31  1  0  0  0  0
 30 23  1  0  0  0  0
 31 22  1  0  0  0  0
M  END
>  <MODEL>
3

>  <REMARK>
 VINA RESULT:      -8.5      2.543      7.807
  Name = 
  2 active torsions:
  status: ('A' for Active; 'I' for Inactive)
    1  A    between atoms: C_9  and  C_23
    2  A    between atoms: C_15  and  C_23
                            x       y       z     vdW  Elec       q    Type
                         _______ _______ _______ _____ _____    ______ ____

>  <TORSDO>
F 2

$$$$
=
 OpenBabel11052417463D

 31 35  0  0  1  0  0  0  0  0999 V2000
  185.3280  177.9100  146.7170 C   0  0  2  0  0  3  0  0  0  0  0  0
  188.6840  177.5370  144.8480 C   0  0  2  0  0  3  0  0  0  0  0  0
  189.6440  176.7340  145.7670 C   0  0  1  0  0  3  0  0  0  0  0  0
  189.5600  174.9160  147.5580 C   0  0  0  0  0  2  0  0  0  0  0  0
  187.1930  177.3640  145.1650 C   0  0  1  0  0  3  0  0  0  0  0  0
  184.6830  178.6380  145.6980 O   0  0  0  0  0  0  0  0  0  0  0  0
  189.1040  175.3610  146.1590 C   0  0  0  0  0  2  0  0  0  0  0  0
  187.9890  177.4180  142.2710 C   0  0  1  0  0  3  0  0  0  0  0  0
  184.9730  178.4550  148.0110 N   0  0  0  0  0  1  0  0  0  0  0  0
  191.3950  177.5650  144.0990 C   0  0  0  0  0  2  0  0  0  0  0  0
  190.9250  175.4370  148.0130 C   0  0  0  0  0  2  0  0  0  0  0  0
  186.5570  177.2300  142.7920 C   0  0  0  0  0  2  0  0  0  0  0  0
  189.0390  177.4410  143.3690 C   0  0  0  0  0  0  0  0  0  0  0  0
  186.8480  177.9660  146.5270 C   0  0  0  0  0  2  0  0  0  0  0  0
  191.9460  175.2070  146.9970 N   0  0  0  0  0  2  0  0  0  0  0  0
  186.3310  177.9990  144.0790 C   0  0  1  0  0  3  0  0  0  0  0  0
  184.8660  177.9160  144.5020 C   0  0  0  0  0  2  0  0  0  0  0  0
  190.3370  177.5100  143.0330 C   0  0  0  0  0  3  0  0  0  0  0  0
  191.0460  176.5200  145.1550 C   0  0  1  0  0  3  0  0  0  0  0  0
  192.1060  176.4430  146.2400 C   0  0  0  0  0  2  0  0  0  0  0  0
  188.2990  176.3190  141.2570 C   0  0  0  0  0  2  0  0  0  0  0  0
  191.4910  172.4710  142.5200 C   0  0  2  0  0  3  0  0  0  0  0  0
  190.6730  174.6320  141.6380 C   0  0  0  0  0  2  0  0  0  0  0  0
  189.0520  171.9460  141.2160 O   0  0  0  0  0  1  0  0  0  0  0  0
  187.0660  174.5250  142.2150 O   0  0  0  0  0  0  0  0  0  0  0  0
  192.6080  171.7970  143.2880 C   0  0  0  0  0  1  0  0  0  0  0  0
  188.1950  174.9580  141.8720 C   0  0  0  0  0  0  0  0  0  0  0  0
  191.7710  173.9650  142.4520 C   0  0  0  0  0  2  0  0  0  0  0  0
  189.2000  172.7150  142.3770 C   0  0  2  0  0  3  0  0  0  0  0  0
  189.3610  174.1380  142.0460 N   0  0  0  0  0  0  0  0  0  0  0  0
  190.2650  172.2390  143.1810 O   0  0  0  0  0  0  0  0  0  0  0  0
  1  9  1  1  0  0  0
  2 13  1  6  0  0  0
  2  5  1  0  0  0  0
  2  3  1  0  0  0  0
  3  7  1  6  0  0  0
  4 11  1  0  0  0  0
  5 14  1  1  0  0  0
  6  1  1  0  0  0  0
  7  4  1  0  0  0  0
  8 21  1  6  0  0  0
  8 12  1  0  0  0  0
  8 13  1  0  0  0  0
 14  1  1  0  0  0  0
 15 11  1  0  0  0  0
 16 12  1  6  0  0  0
 16 17  1  0  0  0  0
 16  5  1  0  0  0  0
 17  6  1  0  0  0  0
 18 13  2  0  0  0  0
 18 10  1  0  0  0  0
 19 10  1  6  0  0  0
 19  3  1  0  0  0  0
 19 20  1  0  0  0  0
 20 15  1  0  0  0  0
 21 27  1  0  0  0  0
 22 31  1  0  0  0  0
 22 26  1  1  0  0  0
 23 30  1  0  0  0  0
 23 28  1  0  0  0  0
 27 30  1  0  0  0  0
 27 25  2  0  0  0  0
 28 22  1  0  0  0  0
 29 24  1  6  0  0  0
 29 31  1  0  0  0  0
 30 29  1  0  0  0  0
M  END
>  <MODEL>
4

>  <REMARK>
 VINA RESULT:      -8.5      2.275      6.389
  Name = 
  2 active torsions:
  status: ('A' for Active; 'I' for Inactive)
    1  A    between atoms: C_9  and  C_23
    2  A    between atoms: C_15  and  C_23
                            x       y       z     vdW  Elec       q    Type
                         _______ _______ _______ _____ _____    ______ ____

>  <TORSDO>
F 2

$$$$
=
 OpenBabel11052417463D

 31 35  0  0  1  0  0  0  0  0999 V2000
  185.1380  178.3260  146.6270 C   0  0  2  0  0  3  0  0  0  0  0  0
  187.6470  176.4910  144.3390 C   0  0  2  0  0  3  0  0  0  0  0  0
  187.2500  176.7980  142.8700 C   0  0  1  0  0  3  0  0  0  0  0  0
  186.1750  178.6580  141.4900 C   0  0  0  0  0  2  0  0  0  0  0  0
  187.1170  177.4940  145.3730 C   0  0  1  0  0  3  0  0  0  0  0  0
  185.7130  177.8930  147.8380 O   0  0  0  0  0  0  0  0  0  0  0  0
  187.2320  178.2890  142.5430 C   0  0  0  0  0  2  0  0  0  0  0  0
  189.9300  176.5060  145.7270 C   0  0  1  0  0  3  0  0  0  0  0  0
  183.6930  178.2990  146.7310 N   0  0  0  0  0  1  0  0  0  0  0  0
  188.8630  174.8730  142.3860 C   0  0  0  0  0  2  0  0  0  0  0  0
  185.8520  177.5740  140.4590 C   0  0  0  0  0  2  0  0  0  0  0  0
  189.2280  177.5260  146.6360 C   0  0  0  0  0  2  0  0  0  0  0  0
  189.1140  176.1160  144.5060 C   0  0  0  0  0  0  0  0  0  0  0  0
  185.5940  177.4260  145.4730 C   0  0  0  0  0  2  0  0  0  0  0  0
  187.0660  177.0320  139.8600 N   0  0  0  0  0  2  0  0  0  0  0  0
  187.7430  177.2430  146.7410 C   0  0  1  0  0  3  0  0  0  0  0  0
  187.0910  178.1770  147.7580 C   0  0  0  0  0  2  0  0  0  0  0  0
  189.6570  175.3000  143.5880 C   0  0  0  0  0  3  0  0  0  0  0  0
  188.1610  176.1090  141.8310 C   0  0  1  0  0  3  0  0  0  0  0  0
  187.3920  175.7940  140.5590 C   0  0  0  0  0  2  0  0  0  0  0  0
  191.2880  177.0640  145.3060 C   0  0  0  0  0  2  0  0  0  0  0  0
  195.7680  174.8840  143.9780 C   0  0  2  0  0  3  0  0  0  0  0  0
  193.5870  176.0370  143.7950 C   0  0  0  0  0  2  0  0  0  0  0  0
  194.0130  173.5910  145.7590 O   0  0  0  0  0  1  0  0  0  0  0  0
  192.3600  176.1770  147.2340 O   0  0  0  0  0  0  0  0  0  0  0  0
  197.1920  174.8530  143.4660 C   0  0  0  0  0  1  0  0  0  0  0  0
  192.4120  176.3520  145.9910 C   0  0  0  0  0  0  0  0  0  0  0  0
  195.0310  176.0400  143.3170 C   0  0  0  0  0  2  0  0  0  0  0  0
  194.4640  174.9110  145.8820 C   0  0  2  0  0  3  0  0  0  0  0  0
  193.5290  175.8470  145.2420 N   0  0  0  0  0  0  0  0  0  0  0  0
  195.7790  175.0570  145.3790 O   0  0  0  0  0  0  0  0  0  0  0  0
  1  9  1  1  0  0  0
  1  6  1  0  0  0  0
  2 13  1  6  0  0  0
  2  5  1  0  0  0  0
  3  7  1  1  0  0  0
  3  2  1  0  0  0  0
  4  7  1  0  0  0  0
  5 14  1  1  0  0  0
  5 16  1  0  0  0  0
  8 21  1  6  0  0  0
  8 12  1  0  0  0  0
 10 18  1  0  0  0  0
 11  4  1  0  0  0  0
 13  8  1  0  0  0  0
 14  1  1  0  0  0  0
 15 11  1  0  0  0  0
 15 20  1  0  0  0  0
 16 12  1  6  0  0  0
 16 17  1  0  0  0  0
 17  6  1  0  0  0  0
 18 13  2  0  0  0  0
 19 20  1  6  0  0  0
 19 10  1  0  0  0  0
 19  3  1  0  0  0  0
 21 27  1  0  0  0  0
 22 26  1  6  0  0  0
 22 31  1  0  0  0  0
 23 30  1  0  0  0  0
 27 25  2  0  0  0  0
 28 23  1  0  0  0  0
 28 22  1  0  0  0  0
 29 24  1  6  0  0  0
 30 29  1  0  0  0  0
 30 27  1  0  0  0  0
 31 29  1  0  0  0  0
M  END
>  <MODEL>
5

>  <REMARK>
 VINA RESULT:      -8.4      2.714      8.150
  Name = 
  2 active torsions:
  status: ('A' for Active; 'I' for Inactive)
    1  A    between atoms: C_9  and  C_23
    2  A    between atoms: C_15  and  C_23
                            x       y       z     vdW  Elec       q    Type
                         _______ _______ _______ _____ _____    ______ ____

>  <TORSDO>
F 2

$$$$
=
 OpenBabel11052417463D

 31 35  0  0  1  0  0  0  0  0999 V2000
  185.9230  177.5690  141.1140 C   0  0  2  0  0  3  0  0  0  0  0  0
  187.9350  177.2320  144.3900 C   0  0  2  0  0  3  0  0  0  0  0  0
  186.9910  177.6190  145.5600 C   0  0  1  0  0  3  0  0  0  0  0  0
  184.5130  177.5410  146.1720 C   0  0  0  0  0  2  0  0  0  0  0  0
  187.2220  176.8170  143.0960 C   0  0  1  0  0  3  0  0  0  0  0  0
  186.9750  177.1730  140.2640 O   0  0  0  0  0  0  0  0  0  0  0  0
  185.7250  176.7680  145.6280 C   0  0  0  0  0  2  0  0  0  0  0  0
  189.6330  175.2250  143.9120 C   0  0  1  0  0  3  0  0  0  0  0  0
  185.1920  178.6660  140.5120 N   0  0  0  0  0  1  0  0  0  0  0  0
  189.1880  177.6800  146.8680 C   0  0  0  0  0  2  0  0  0  0  0  0
  184.8250  178.6540  147.1750 C   0  0  0  0  0  2  0  0  0  0  0  0
  188.7710  174.9540  142.6700 C   0  0  0  0  0  2  0  0  0  0  0  0
  189.0790  176.3180  144.8110 C   0  0  0  0  0  0  0  0  0  0  0  0
  186.4770  177.9990  142.4770 C   0  0  0  0  0  2  0  0  0  0  0  0
  185.7040  178.1800  148.2380 N   0  0  0  0  0  2  0  0  0  0  0  0
  188.2140  176.2390  142.0920 C   0  0  1  0  0  3  0  0  0  0  0  0
  187.4810  175.9630  140.7810 C   0  0  0  0  0  2  0  0  0  0  0  0
  189.6950  176.5840  145.9730 C   0  0  0  0  0  3  0  0  0  0  0  0
  187.6690  177.5500  146.9460 C   0  0  1  0  0  3  0  0  0  0  0  0
  187.0670  178.5700  147.8970 C   0  0  0  0  0  2  0  0  0  0  0  0
  189.8030  173.9240  144.6940 C   0  0  0  0  0  2  0  0  0  0  0  0
  191.6710  169.9450  141.9990 C   0  0  2  0  0  3  0  0  0  0  0  0
  190.0680  171.5450  142.9920 C   0  0  0  0  0  2  0  0  0  0  0  0
  192.5290  170.4230  144.6370 O   0  0  0  0  0  1  0  0  0  0  0  0
  192.1610  173.7910  144.9750 O   0  0  0  0  0  0  0  0  0  0  0  0
  192.0160  169.1610  140.7510 C   0  0  0  0  0  1  0  0  0  0  0  0
  191.1380  173.2970  144.4370 C   0  0  0  0  0  0  0  0  0  0  0  0
  190.4420  170.7970  141.7220 C   0  0  0  0  0  2  0  0  0  0  0  0
  192.5140  171.3710  143.6070 C   0  0  2  0  0  3  0  0  0  0  0  0
  191.2560  172.1300  143.6100 N   0  0  0  0  0  0  0  0  0  0  0  0
  192.7620  170.7710  142.3480 O   0  0  0  0  0  0  0  0  0  0  0  0
  1  9  1  6  0  0  0
  1 14  1  0  0  0  0
  2 13  1  1  0  0  0
  2  3  1  0  0  0  0
  3  7  1  1  0  0  0
  3 19  1  0  0  0  0
  4 11  1  0  0  0  0
  5 14  1  6  0  0  0
  5  2  1  0  0  0  0
  6 17  1  0  0  0  0
  6  1  1  0  0  0  0
  7  4  1  0  0  0  0
  8 21  1  1  0  0  0
  8 13  1  0  0  0  0
 11 15  1  0  0  0  0
 12  8  1  0  0  0  0
 13 18  2  0  0  0  0
 16 17  1  6  0  0  0
 16 12  1  0  0  0  0
 16  5  1  0  0  0  0
 18 10  1  0  0  0  0
 19 10  1  6  0  0  0
 19 20  1  0  0  0  0
 20 15  1  0  0  0  0
 22 26  1  6  0  0  0
 22 31  1  0  0  0  0
 23 30  1  0  0  0  0
 27 21  1  0  0  0  0
 27 25  2  0  0  0  0
 28 22  1  0  0  0  0
 28 23  1  0  0  0  0
 29 30  1  0  0  0  0
 29 24  1  1  0  0  0
 30 27  1  0  0  0  0
 31 29  1  0  0  0  0
M  END
>  <MODEL>
6

>  <REMARK>
 VINA RESULT:      -8.1      3.084      7.626
  Name = 
  2 active torsions:
  status: ('A' for Active; 'I' for Inactive)
    1  A    between atoms: C_9  and  C_23
    2  A    between atoms: C_15  and  C_23
                            x       y       z     vdW  Elec       q    Type
                         _______ _______ _______ _____ _____    ______ ____

>  <TORSDO>
F 2

$$$$
=
 OpenBabel11052417463D

 31 35  0  0  1  0  0  0  0  0999 V2000
  185.7950  178.0180  145.8480 C   0  0  2  0  0  3  0  0  0  0  0  0
  189.0160  176.6930  144.1840 C   0  0  2  0  0  3  0  0  0  0  0  0
  189.9490  176.1800  145.3140 C   0  0  1  0  0  3  0  0  0  0  0  0
  189.8010  175.1310  147.6380 C   0  0  0  0  0  2  0  0  0  0  0  0
  187.5320  176.7850  144.5650 C   0  0  1  0  0  3  0  0  0  0  0  0
  185.1640  178.3960  144.6460 O   0  0  0  0  0  0  0  0  0  0  0  0
  189.3160  175.0930  146.1790 C   0  0  0  0  0  2  0  0  0  0  0  0
  188.1900  175.7350  141.8300 C   0  0  1  0  0  3  0  0  0  0  0  0
  185.5490  179.0180  146.8680 N   0  0  0  0  0  1  0  0  0  0  0  0
  191.6810  176.1980  143.4320 C   0  0  0  0  0  2  0  0  0  0  0  0
  191.2240  175.6490  147.8550 C   0  0  0  0  0  2  0  0  0  0  0  0
  186.7730  175.8800  142.4070 C   0  0  0  0  0  2  0  0  0  0  0  0
  189.2890  176.0470  142.8320 C   0  0  0  0  0  0  0  0  0  0  0  0
  187.3040  177.8600  145.6270 C   0  0  0  0  0  2  0  0  0  0  0  0
  192.1730  174.9790  146.9730 N   0  0  0  0  0  2  0  0  0  0  0  0
  186.6750  177.0730  143.3370 C   0  0  1  0  0  3  0  0  0  0  0  0
  185.2290  177.2830  143.7850 C   0  0  0  0  0  2  0  0  0  0  0  0
  190.5710  175.8690  142.4730 C   0  0  0  0  0  3  0  0  0  0  0  0
  191.2970  175.6330  144.7970 C   0  0  1  0  0  3  0  0  0  0  0  0
  192.3980  175.8450  145.8210 C   0  0  0  0  0  2  0  0  0  0  0  0
  188.3590  174.3240  141.2720 C   0  0  0  0  0  2  0  0  0  0  0  0
  190.2830  171.3640  137.5140 C   0  0  2  0  0  3  0  0  0  0  0  0
  189.7510  172.2160  139.7740 C   0  0  0  0  0  2  0  0  0  0  0  0
  190.5300  174.1660  137.4050 O   0  0  0  0  0  1  0  0  0  0  0  0
  187.8160  175.2530  139.1510 O   0  0  0  0  0  0  0  0  0  0  0  0
  190.4130  170.1160  136.6670 C   0  0  0  0  0  1  0  0  0  0  0  0
  188.3870  174.3230  139.7750 C   0  0  0  0  0  0  0  0  0  0  0  0
  189.8330  170.9660  138.9120 C   0  0  0  0  0  2  0  0  0  0  0  0
  189.3360  173.4660  137.6160 C   0  0  2  0  0  3  0  0  0  0  0  0
  189.0770  173.2920  139.0520 N   0  0  0  0  0  0  0  0  0  0  0  0
  189.3320  172.2280  136.9280 O   0  0  0  0  0  0  0  0  0  0  0  0
  1  9  1  1  0  0  0
  2 13  1  6  0  0  0
  2  5  1  0  0  0  0
  2  3  1  0  0  0  0
  3  7  1  6  0  0  0
  4 11  1  0  0  0  0
  5 14  1  1  0  0  0
  6  1  1  0  0  0  0
  7  4  1  0  0  0  0
  8 21  1  1  0  0  0
  8 12  1  0  0  0  0
  8 13  1  0  0  0  0
 14  1  1  0  0  0  0
 15 11  1  0  0  0  0
 16 12  1  6  0  0  0
 16 17  1  0  0  0  0
 16  5  1  0  0  0  0
 17  6  1  0  0  0  0
 18 13  2  0  0  0  0
 18 10  1  0  0  0  0
 19 10  1  6  0  0  0
 19  3  1  0  0  0  0
 19 20  1  0  0  0  0
 20 15  1  0  0  0  0
 22 26  1  6  0  0  0
 22 28  1  0  0  0  0
 25 27  2  0  0  0  0
 27 21  1  0  0  0  0
 28 23  1  0  0  0  0
 29 24  1  1  0  0  0
 29 30  1  0  0  0  0
 30 23  1  0  0  0  0
 30 27  1  0  0  0  0
 31 22  1  0  0  0  0
 31 29  1  0  0  0  0
M  END
>  <MODEL>
7

>  <REMARK>
 VINA RESULT:      -8.0      2.929      6.709
  Name = 
  2 active torsions:
  status: ('A' for Active; 'I' for Inactive)
    1  A    between atoms: C_9  and  C_23
    2  A    between atoms: C_15  and  C_23
                            x       y       z     vdW  Elec       q    Type
                         _______ _______ _______ _____ _____    ______ ____

>  <TORSDO>
F 2

$$$$
=
 OpenBabel11052417463D

 31 35  0  0  1  0  0  0  0  0999 V2000
  187.2290  177.3690  140.8400 C   0  0  2  0  0  3  0  0  0  0  0  0
  188.8630  174.9650  143.3790 C   0  0  2  0  0  3  0  0  0  0  0  0
  189.6340  173.8860  142.5710 C   0  0  1  0  0  3  0  0  0  0  0  0
  190.8860  173.6310  140.3610 C   0  0  0  0  0  2  0  0  0  0  0  0
  188.5790  176.2630  142.6120 C   0  0  1  0  0  3  0  0  0  0  0  0
  186.6310  178.2030  141.8060 O   0  0  0  0  0  0  0  0  0  0  0  0
  190.6930  174.4660  141.6370 C   0  0  0  0  0  2  0  0  0  0  0  0
  189.4240  176.5150  145.4820 C   0  0  1  0  0  3  0  0  0  0  0  0
  186.3170  177.1660  139.7330 N   0  0  0  0  0  1  0  0  0  0  0  0
  189.6910  172.7090  144.8420 C   0  0  0  0  0  2  0  0  0  0  0  0
  190.6270  172.1290  140.4990 C   0  0  0  0  0  2  0  0  0  0  0  0
  189.1180  177.6910  144.5420 C   0  0  0  0  0  2  0  0  0  0  0  0
  189.3980  175.1620  144.7920 C   0  0  0  0  0  0  0  0  0  0  0  0
  187.6000  176.0190  141.4640 C   0  0  0  0  0  2  0  0  0  0  0  0
  191.3410  171.5700  141.6410 N   0  0  0  0  0  2  0  0  0  0  0  0
  188.0300  177.3350  143.5480 C   0  0  1  0  0  3  0  0  0  0  0  0
  187.6430  178.5590  142.7190 C   0  0  0  0  0  2  0  0  0  0  0  0
  189.7370  174.0650  145.4900 C   0  0  0  0  0  3  0  0  0  0  0  0
  190.3300  172.8330  143.4610 C   0  0  1  0  0  3  0  0  0  0  0  0
  190.4050  171.4900  142.7560 C   0  0  0  0  0  2  0  0  0  0  0  0
  190.7770  176.7500  146.1500 C   0  0  0  0  0  2  0  0  0  0  0  0
  195.0590  174.0690  145.1170 C   0  0  2  0  0  3  0  0  0  0  0  0
  192.9810  174.8120  146.2360 C   0  0  0  0  0  2  0  0  0  0  0  0
  195.0840  176.8840  145.0940 O   0  0  0  0  0  1  0  0  0  0  0  0
  191.8810  177.6840  144.2630 O   0  0  0  0  0  0  0  0  0  0  0  0
  195.8630  172.8610  144.6890 C   0  0  0  0  0  1  0  0  0  0  0  0
  191.8870  176.7910  145.1470 C   0  0  0  0  0  0  0  0  0  0  0  0
  193.7640  173.5970  145.7630 C   0  0  0  0  0  2  0  0  0  0  0  0
  194.1740  176.0780  144.4010 C   0  0  2  0  0  3  0  0  0  0  0  0
  192.9650  175.8440  145.2020 N   0  0  0  0  0  0  0  0  0  0  0  0
  194.7710  174.8630  143.9840 O   0  0  0  0  0  0  0  0  0  0  0  0
  1  9  1  6  0  0  0
  1 14  1  0  0  0  0
  1  6  1  0  0  0  0
  2 13  1  1  0  0  0
  3  7  1  1  0  0  0
  3  2  1  0  0  0  0
  3 19  1  0  0  0  0
  4 11  1  0  0  0  0
  4  7  1  0  0  0  0
  5 14  1  6  0  0  0
  5  2  1  0  0  0  0
  5 16  1  0  0  0  0
  6 17  1  0  0  0  0
  8 21  1  6  0  0  0
 10 18  1  0  0  0  0
 11 15  1  0  0  0  0
 12  8  1  0  0  0  0
 13  8  1  0  0  0  0
 13 18  2  0  0  0  0
 15 20  1  0  0  0  0
 16 17  1  6  0  0  0
 16 12  1  0  0  0  0
 19 20  1  6  0  0  0
 19 10  1  0  0  0  0
 22 26  1  6  0  0  0
 22 28  1  0  0  0  0
 25 27  2  0  0  0  0
 27 30  1  0  0  0  0
 27 21  1  0  0  0  0
 28 23  1  0  0  0  0
 29 24  1  1  0  0  0
 29 30  1  0  0  0  0
 30 23  1  0  0  0  0
 31 29  1  0  0  0  0
 31 22  1  0  0  0  0
M  END
>  <MODEL>
8

>  <REMARK>
 VINA RESULT:      -7.9      2.730      6.901
  Name = 
  2 active torsions:
  status: ('A' for Active; 'I' for Inactive)
    1  A    between atoms: C_9  and  C_23
    2  A    between atoms: C_15  and  C_23
                            x       y       z     vdW  Elec       q    Type
                         _______ _______ _______ _____ _____    ______ ____

>  <TORSDO>
F 2

$$$$
=
 OpenBabel11052417463D

 31 35  0  0  1  0  0  0  0  0999 V2000
  190.9910  172.2840  141.2400 C   0  0  2  0  0  3  0  0  0  0  0  0
  191.8850  174.5670  144.2200 C   0  0  2  0  0  3  0  0  0  0  0  0
  193.2690  175.2060  143.9210 C   0  0  1  0  0  3  0  0  0  0  0  0
  194.6760  175.9610  141.9280 C   0  0  0  0  0  2  0  0  0  0  0  0
  191.1340  174.0480  142.9870 C   0  0  1  0  0  3  0  0  0  0  0  0
  189.7500  171.8620  141.7570 O   0  0  0  0  0  0  0  0  0  0  0  0
  193.3030  176.0010  142.6180 C   0  0  0  0  0  2  0  0  0  0  0  0
  189.5240  175.4800  145.0780 C   0  0  1  0  0  3  0  0  0  0  0  0
  191.6680  171.1670  140.6140 N   0  0  0  0  0  1  0  0  0  0  0  0
  193.1440  175.8230  146.4000 C   0  0  0  0  0  2  0  0  0  0  0  0
  195.8850  175.8260  142.8560 C   0  0  0  0  0  2  0  0  0  0  0  0
  188.9660  174.9090  143.7650 C   0  0  0  0  0  2  0  0  0  0  0  0
  191.0370  175.3840  145.1880 C   0  0  0  0  0  0  0  0  0  0  0  0
  191.8630  172.8590  142.3610 C   0  0  0  0  0  2  0  0  0  0  0  0
  195.8360  176.8030  143.9390 N   0  0  0  0  0  2  0  0  0  0  0  0
  189.7060  173.6540  143.3490 C   0  0  1  0  0  3  0  0  0  0  0  0
  189.0450  173.0250  142.1230 C   0  0  0  0  0  2  0  0  0  0  0  0
  191.6520  175.9290  146.2490 C   0  0  0  0  0  3  0  0  0  0  0  0
  193.7710  176.1390  145.0440 C   0  0  1  0  0  3  0  0  0  0  0  0
  195.2880  176.1370  145.1140 C   0  0  0  0  0  2  0  0  0  0  0  0
  189.0680  176.9290  145.2260 C   0  0  0  0  0  2  0  0  0  0  0  0
  184.6340  177.9620  142.8060 C   0  0  2  0  0  3  0  0  0  0  0  0
  186.2260  177.1730  144.5260 C   0  0  0  0  0  2  0  0  0  0  0  0
  186.7660  176.7360  141.4370 O   0  0  0  0  0  1  0  0  0  0  0  0
  189.5120  177.8810  143.0930 O   0  0  0  0  0  0  0  0  0  0  0  0
  183.3140  178.6690  142.5800 C   0  0  0  0  0  1  0  0  0  0  0  0
  188.6380  177.5080  143.9140 C   0  0  0  0  0  0  0  0  0  0  0  0
  184.9250  177.9270  144.2990 C   0  0  0  0  0  2  0  0  0  0  0  0
  186.8580  177.9110  142.1920 C   0  0  2  0  0  3  0  0  0  0  0  0
  187.2460  177.6160  143.5780 N   0  0  0  0  0  0  0  0  0  0  0  0
  185.6590  178.6610  142.1310 O   0  0  0  0  0  0  0  0  0  0  0  0
  1  9  1  1  0  0  0
  1  6  1  0  0  0  0
  1 14  1  0  0  0  0
  2 13  1  6  0  0  0
  3  7  1  6  0  0  0
  3  2  1  0  0  0  0
  3 19  1  0  0  0  0
  4  7  1  0  0  0  0
  4 11  1  0  0  0  0
  5 14  1  1  0  0  0
  5 16  1  0  0  0  0
  5  2  1  0  0  0  0
  6 17  1  0  0  0  0
  8 13  1  0  0  0  0
  8 21  1  6  0  0  0
 11 15  1  0  0  0  0
 12  8  1  0  0  0  0
 13 18  2  0  0  0  0
 15 20  1  0  0  0  0
 16 17  1  6  0  0  0
 16 12  1  0  0  0  0
 18 10  1  0  0  0  0
 19 20  1  1  0  0  0
 19 10  1  0  0  0  0
 22 26  1  1  0  0  0
 22 28  1  0  0  0  0
 25 27  2  0  0  0  0
 27 21  1  0  0  0  0
 28 23  1  0  0  0  0
 29 24  1  6  0  0  0
 29 30  1  0  0  0  0
 30 27  1  0  0  0  0
 30 23  1  0  0  0  0
 31 29  1  0  0  0  0
 31 22  1  0  0  0  0
M  END
>  <MODEL>
9

>  <REMARK>
 VINA RESULT:      -7.7      1.355      1.742
  Name = 
  2 active torsions:
  status: ('A' for Active; 'I' for Inactive)
    1  A    between atoms: C_9  and  C_23
    2  A    between atoms: C_15  and  C_23
                            x       y       z     vdW  Elec       q    Type
                         _______ _______ _______ _____ _____    ______ ____

>  <TORSDO>
F 2

$$$$
