=
 OpenBabel11052417303D

 25 28  0  0  0  0  0  0  0  0999 V2000
  186.3940  177.7360  143.8600 C   0  0  0  0  0  0  0  0  0  0  0  0
  185.6760  177.7870  142.6670 C   0  0  0  0  0  0  0  0  0  0  0  0
  188.4080  177.2680  142.7070 C   0  0  0  0  0  3  0  0  0  0  0  0
  185.9780  177.9090  145.1590 C   0  0  0  0  0  0  0  0  0  0  0  0
  185.7960  178.1410  147.9110 C   0  0  0  0  0  3  0  0  0  0  0  0
  187.7370  177.3100  141.5210 N   0  0  0  0  0  0  0  0  0  0  0  0
  187.1030  177.7500  145.9430 C   0  0  0  0  0  0  0  0  0  0  0  0
  187.0460  177.8600  147.3300 C   0  0  0  0  0  3  0  0  0  0  0  0
  185.6770  177.6120  140.2400 N   0  0  0  0  0  0  0  0  0  0  0  0
  186.3470  177.3910  138.9710 C   0  0  0  0  0  1  0  0  0  0  0  0
  184.2670  178.0520  142.6260 N   0  0  0  0  0  0  0  0  0  0  0  0
  184.6460  178.3020  147.1060 C   0  0  0  0  0  3  0  0  0  0  0  0
  187.7190  177.4820  143.8540 N   0  0  0  0  0  0  0  0  0  0  0  0
  188.1890  177.4830  145.1210 C   0  0  0  0  0  3  0  0  0  0  0  0
  184.2970  177.8760  140.2580 N   0  0  0  0  0  2  0  0  0  0  0  0
  184.7280  178.1860  145.7080 C   0  0  0  0  0  3  0  0  0  0  0  0
  183.6120  178.0970  141.5000 C   0  0  0  0  0  0  0  0  0  0  0  0
  186.3920  177.5640  141.4800 C   0  0  0  0  0  0  0  0  0  0  0  0
  182.1700  178.3690  141.4800 C   0  0  0  0  0  3  0  0  0  0  0  0
  181.4220  178.1560  140.4030 C   0  0  0  0  0  3  0  0  0  0  0  0
  179.9590  178.4490  140.4140 C   0  0  0  0  0  2  0  0  0  0  0  0
  179.4130  178.5150  141.8350 C   0  0  0  0  0  2  0  0  0  0  0  0
  178.4380  177.4160  142.0900 C   0  0  0  0  0  0  0  0  0  0  0  0
  177.9380  176.6720  141.0300 O   0  0  0  0  0  0  0  0  0  0  0  0
  178.0540  177.1730  143.2640 O   0  0  0  0  0  1  0  0  0  0  0  0
  1  4  2  0  0  0  0
  2  1  1  0  0  0  0
  3 13  1  0  0  0  0
  4 16  1  0  0  0  0
  4  7  1  0  0  0  0
  6  3  2  0  0  0  0
  7  8  1  0  0  0  0
  8  5  2  0  0  0  0
  9 15  1  0  0  0  0
  9 18  1  0  0  0  0
 10  9  1  0  0  0  0
 11  2  1  0  0  0  0
 12  5  1  0  0  0  0
 13  1  1  0  0  0  0
 13 14  1  0  0  0  0
 14  7  2  0  0  0  0
 15 17  1  0  0  0  0
 16 12  2  0  0  0  0
 17 11  2  0  0  0  0
 18  6  1  0  0  0  0
 18  2  2  0  0  0  0
 19 17  1  0  0  0  0
 20 21  1  0  0  0  0
 20 19  2  0  0  0  0
 21 22  1  0  0  0  0
 22 23  1  0  0  0  0
 23 25  1  0  0  0  0
 24 23  2  0  0  0  0
M  END
>  <MODEL>
1

>  <REMARK>
 VINA RESULT:      -7.7      0.000      0.000
  Name = 
  4 active torsions:
  status: ('A' for Active; 'I' for Inactive)
    1  A    between atoms: C_2  and  C_25
    2  A    between atoms: C_6  and  C_23
    3  A    between atoms: C_15  and  C_21
    4  A    between atoms: C_21  and  C_25
                            x       y       z     vdW  Elec       q    Type
                         _______ _______ _______ _____ _____    ______ ____

>  <TORSDO>
F 4

$$$$
=
 OpenBabel11052417303D

 25 28  0  0  0  0  0  0  0  0999 V2000
  186.2650  177.7840  143.6710 C   0  0  0  0  0  0  0  0  0  0  0  0
  185.6470  177.7940  142.4220 C   0  0  0  0  0  0  0  0  0  0  0  0
  188.3520  177.2180  142.7080 C   0  0  0  0  0  3  0  0  0  0  0  0
  185.7500  178.0270  144.9220 C   0  0  0  0  0  0  0  0  0  0  0  0
  185.3510  178.3920  147.6370 C   0  0  0  0  0  3  0  0  0  0  0  0
  187.7800  177.2190  141.4710 N   0  0  0  0  0  0  0  0  0  0  0  0
  186.8020  177.8800  145.8020 C   0  0  0  0  0  0  0  0  0  0  0  0
  186.6370  178.0570  147.1730 C   0  0  0  0  0  3  0  0  0  0  0  0
  185.8390  177.5060  140.0140 N   0  0  0  0  0  0  0  0  0  0  0  0
  186.6040  177.2110  138.8150 C   0  0  0  0  0  1  0  0  0  0  0  0
  184.2530  178.0890  142.2530 N   0  0  0  0  0  0  0  0  0  0  0  0
  184.2750  178.5400  146.7340 C   0  0  0  0  0  3  0  0  0  0  0  0
  187.5780  177.5010  143.7840 N   0  0  0  0  0  0  0  0  0  0  0  0
  187.9440  177.5510  145.0840 C   0  0  0  0  0  3  0  0  0  0  0  0
  184.4690  177.8010  139.9060 N   0  0  0  0  0  2  0  0  0  0  0  0
  184.4660  178.3570  145.3540 C   0  0  0  0  0  3  0  0  0  0  0  0
  183.6920  178.0940  141.0770 C   0  0  0  0  0  0  0  0  0  0  0  0
  186.4500  177.5010  141.3090 C   0  0  0  0  0  0  0  0  0  0  0  0
  182.2640  178.3980  140.9270 C   0  0  0  0  0  3  0  0  0  0  0  0
  181.4830  178.6660  141.9680 C   0  0  0  0  0  3  0  0  0  0  0  0
  180.0320  178.9650  141.7820 C   0  0  0  0  0  2  0  0  0  0  0  0
  179.6170  178.8300  140.3230 C   0  0  0  0  0  2  0  0  0  0  0  0
  179.1570  180.1370  139.7700 C   0  0  0  0  0  0  0  0  0  0  0  0
  179.8460  181.3020  140.0800 O   0  0  0  0  0  1  0  0  0  0  0  0
  178.1360  180.1880  139.0360 O   0  0  0  0  0  0  0  0  0  0  0  0
  1 13  1  0  0  0  0
  1  4  2  0  0  0  0
  2  1  1  0  0  0  0
  3 13  1  0  0  0  0
  4 16  1  0  0  0  0
  4  7  1  0  0  0  0
  6  3  2  0  0  0  0
  7  8  1  0  0  0  0
  8  5  2  0  0  0  0
  9 18  1  0  0  0  0
 10  9  1  0  0  0  0
 11  2  1  0  0  0  0
 12  5  1  0  0  0  0
 13 14  1  0  0  0  0
 14  7  2  0  0  0  0
 15  9  1  0  0  0  0
 15 17  1  0  0  0  0
 16 12  2  0  0  0  0
 17 11  2  0  0  0  0
 18  6  1  0  0  0  0
 18  2  2  0  0  0  0
 19 17  1  0  0  0  0
 19 20  2  0  0  0  0
 21 20  1  0  0  0  0
 22 21  1  0  0  0  0
 23 24  1  0  0  0  0
 23 22  1  0  0  0  0
 25 23  2  0  0  0  0
M  END
>  <MODEL>
2

>  <REMARK>
 VINA RESULT:      -7.5      1.455      1.746
  Name = 
  4 active torsions:
  status: ('A' for Active; 'I' for Inactive)
    1  A    between atoms: C_2  and  C_25
    2  A    between atoms: C_6  and  C_23
    3  A    between atoms: C_15  and  C_21
    4  A    between atoms: C_21  and  C_25
                            x       y       z     vdW  Elec       q    Type
                         _______ _______ _______ _____ _____    ______ ____

>  <TORSDO>
F 4

$$$$
=
 OpenBabel11052417303D

 25 28  0  0  0  0  0  0  0  0999 V2000
  190.3300  175.1880  144.1000 C   0  0  0  0  0  0  0  0  0  0  0  0
  189.3480  175.5180  143.1680 C   0  0  0  0  0  0  0  0  0  0  0  0
  191.2700  173.5780  142.6410 C   0  0  0  0  0  3  0  0  0  0  0  0
  190.5640  175.6830  145.3610 C   0  0  0  0  0  0  0  0  0  0  0  0
  191.5460  176.2320  147.8900 C   0  0  0  0  0  3  0  0  0  0  0  0
  190.3230  173.8750  141.7060 N   0  0  0  0  0  0  0  0  0  0  0  0
  191.6640  175.0010  145.8390 C   0  0  0  0  0  0  0  0  0  0  0  0
  192.1840  175.2530  147.1060 C   0  0  0  0  0  3  0  0  0  0  0  0
  188.3700  175.1470  140.9710 N   0  0  0  0  0  0  0  0  0  0  0  0
  188.3250  174.4750  139.6840 C   0  0  0  0  0  1  0  0  0  0  0  0
  188.3480  176.5140  143.4210 N   0  0  0  0  0  0  0  0  0  0  0  0
  190.4190  176.9280  147.3990 C   0  0  0  0  0  3  0  0  0  0  0  0
  191.2520  174.2440  143.8210 N   0  0  0  0  0  0  0  0  0  0  0  0
  192.0900  174.1030  144.8710 C   0  0  0  0  0  3  0  0  0  0  0  0
  187.4130  176.1320  141.2720 N   0  0  0  0  0  2  0  0  0  0  0  0
  189.9120  176.6560  146.1160 C   0  0  0  0  0  3  0  0  0  0  0  0
  187.4360  176.8090  142.5370 C   0  0  0  0  0  0  0  0  0  0  0  0
  189.3690  174.8270  141.9460 C   0  0  0  0  0  0  0  0  0  0  0  0
  186.4220  177.8320  142.8160 C   0  0  0  0  0  3  0  0  0  0  0  0
  186.4570  178.5850  143.9100 C   0  0  0  0  0  3  0  0  0  0  0  0
  185.4070  179.6140  144.1690 C   0  0  0  0  0  2  0  0  0  0  0  0
  184.2790  179.0560  145.0280 C   0  0  0  0  0  2  0  0  0  0  0  0
  184.8100  178.4150  146.2650 C   0  0  0  0  0  0  0  0  0  0  0  0
  184.7070  177.0410  146.4330 O   0  0  0  0  0  0  0  0  0  0  0  0
  185.3370  179.1200  147.1650 O   0  0  0  0  0  1  0  0  0  0  0  0
  1  4  2  0  0  0  0
  2 11  1  0  0  0  0
  2  1  1  0  0  0  0
  3 13  1  0  0  0  0
  4  7  1  0  0  0  0
  4 16  1  0  0  0  0
  6 18  1  0  0  0  0
  6  3  2  0  0  0  0
  7  8  1  0  0  0  0
  8  5  2  0  0  0  0
  9 15  1  0  0  0  0
  9 18  1  0  0  0  0
 10  9  1  0  0  0  0
 12  5  1  0  0  0  0
 13  1  1  0  0  0  0
 13 14  1  0  0  0  0
 14  7  2  0  0  0  0
 15 17  1  0  0  0  0
 16 12  2  0  0  0  0
 17 19  1  0  0  0  0
 17 11  2  0  0  0  0
 18  2  2  0  0  0  0
 19 20  2  0  0  0  0
 20 21  1  0  0  0  0
 21 22  1  0  0  0  0
 22 23  1  0  0  0  0
 23 24  2  0  0  0  0
 23 25  1  0  0  0  0
M  END
>  <MODEL>
3

>  <REMARK>
 VINA RESULT:      -7.1      3.931      5.505
  Name = 
  4 active torsions:
  status: ('A' for Active; 'I' for Inactive)
    1  A    between atoms: C_2  and  C_25
    2  A    between atoms: C_6  and  C_23
    3  A    between atoms: C_15  and  C_21
    4  A    between atoms: C_21  and  C_25
                            x       y       z     vdW  Elec       q    Type
                         _______ _______ _______ _____ _____    ______ ____

>  <TORSDO>
F 4

$$$$
=
 OpenBabel11052417303D

 25 28  0  0  0  0  0  0  0  0999 V2000
  185.7860  177.5420  143.8680 C   0  0  0  0  0  0  0  0  0  0  0  0
  186.5440  176.9720  142.8470 C   0  0  0  0  0  0  0  0  0  0  0  0
  184.3470  178.5900  142.3070 C   0  0  0  0  0  3  0  0  0  0  0  0
  185.9210  177.4550  145.2330 C   0  0  0  0  0  0  0  0  0  0  0  0
  185.6490  177.6860  147.9780 C   0  0  0  0  0  3  0  0  0  0  0  0
  185.0660  178.0480  141.2830 N   0  0  0  0  0  0  0  0  0  0  0  0
  184.9010  178.2160  145.7660 C   0  0  0  0  0  0  0  0  0  0  0  0
  184.7350  178.3520  147.1420 C   0  0  0  0  0  3  0  0  0  0  0  0
  186.9120  176.6750  140.4610 N   0  0  0  0  0  0  0  0  0  0  0  0
  186.5690  176.9160  139.0700 C   0  0  0  0  0  1  0  0  0  0  0  0
  187.6800  176.1350  143.1050 N   0  0  0  0  0  0  0  0  0  0  0  0
  186.6940  176.9080  147.4300 C   0  0  0  0  0  3  0  0  0  0  0  0
  184.7250  178.3230  143.5810 N   0  0  0  0  0  0  0  0  0  0  0  0
  184.1550  178.7560  144.7270 C   0  0  0  0  0  3  0  0  0  0  0  0
  188.0170  175.8620  140.7700 N   0  0  0  0  0  2  0  0  0  0  0  0
  186.8410  176.7850  146.0380 C   0  0  0  0  0  3  0  0  0  0  0  0
  188.3770  175.6100  142.1360 C   0  0  0  0  0  0  0  0  0  0  0  0
  186.1500  177.2490  141.5280 C   0  0  0  0  0  0  0  0  0  0  0  0
  189.5360  174.7570  142.4220 C   0  0  0  0  0  3  0  0  0  0  0  0
  189.8310  174.3500  143.6520 C   0  0  0  0  0  3  0  0  0  0  0  0
  191.0210  173.4870  143.9110 C   0  0  0  0  0  2  0  0  0  0  0  0
  191.8210  173.9850  145.1090 C   0  0  0  0  0  2  0  0  0  0  0  0
  192.3160  175.3740  144.8870 C   0  0  0  0  0  0  0  0  0  0  0  0
  193.1310  175.6550  143.7990 O   0  0  0  0  0  0  0  0  0  0  0  0
  192.0100  176.2890  145.6950 O   0  0  0  0  0  1  0  0  0  0  0  0
  1  4  2  0  0  0  0
  2 11  1  0  0  0  0
  2  1  1  0  0  0  0
  3 13  1  0  0  0  0
  4  7  1  0  0  0  0
  4 16  1  0  0  0  0
  6 18  1  0  0  0  0
  6  3  2  0  0  0  0
  7  8  1  0  0  0  0
  8  5  2  0  0  0  0
  9 15  1  0  0  0  0
  9 18  1  0  0  0  0
 10  9  1  0  0  0  0
 12  5  1  0  0  0  0
 13  1  1  0  0  0  0
 13 14  1  0  0  0  0
 14  7  2  0  0  0  0
 15 17  1  0  0  0  0
 16 12  2  0  0  0  0
 17 19  1  0  0  0  0
 17 11  2  0  0  0  0
 18  2  2  0  0  0  0
 19 20  2  0  0  0  0
 20 21  1  0  0  0  0
 21 22  1  0  0  0  0
 23 22  1  0  0  0  0
 23 25  1  0  0  0  0
 24 23  2  0  0  0  0
M  END
>  <MODEL>
4

>  <REMARK>
 VINA RESULT:      -7.0      4.667      7.210
  Name = 
  4 active torsions:
  status: ('A' for Active; 'I' for Inactive)
    1  A    between atoms: C_2  and  C_25
    2  A    between atoms: C_6  and  C_23
    3  A    between atoms: C_15  and  C_21
    4  A    between atoms: C_21  and  C_25
                            x       y       z     vdW  Elec       q    Type
                         _______ _______ _______ _____ _____    ______ ____

>  <TORSDO>
F 4

$$$$
=
 OpenBabel11052417303D

 25 28  0  0  0  0  0  0  0  0999 V2000
  186.5640  177.0450  144.1580 C   0  0  0  0  0  0  0  0  0  0  0  0
  187.6370  176.2760  143.7120 C   0  0  0  0  0  0  0  0  0  0  0  0
  185.6550  177.1660  141.9760 C   0  0  0  0  0  3  0  0  0  0  0  0
  186.2570  177.5000  145.4190 C   0  0  0  0  0  0  0  0  0  0  0  0
  185.1050  178.6880  147.6380 C   0  0  0  0  0  3  0  0  0  0  0  0
  186.6910  176.4150  141.5040 N   0  0  0  0  0  0  0  0  0  0  0  0
  185.0840  178.2130  145.2900 C   0  0  0  0  0  0  0  0  0  0  0  0
  184.4770  178.8230  146.3860 C   0  0  0  0  0  3  0  0  0  0  0  0
  188.7690  175.1790  141.8580 N   0  0  0  0  0  0  0  0  0  0  0  0
  188.8800  174.8190  140.4550 C   0  0  0  0  0  1  0  0  0  0  0  0
  188.6700  175.8090  144.5910 N   0  0  0  0  0  0  0  0  0  0  0  0
  186.3070  177.9570  147.7660 C   0  0  0  0  0  3  0  0  0  0  0  0
  185.6150  177.4640  143.2970 N   0  0  0  0  0  0  0  0  0  0  0  0
  184.6860  178.1880  143.9610 C   0  0  0  0  0  3  0  0  0  0  0  0
  189.7540  174.7470  142.7640 N   0  0  0  0  0  2  0  0  0  0  0  0
  186.9010  177.3500  146.6460 C   0  0  0  0  0  3  0  0  0  0  0  0
  189.6670  175.0900  144.1550 C   0  0  0  0  0  0  0  0  0  0  0  0
  187.6770  175.9680  142.3430 C   0  0  0  0  0  0  0  0  0  0  0  0
  190.7120  174.6230  145.0710 C   0  0  0  0  0  3  0  0  0  0  0  0
  191.2740  175.4200  145.9730 C   0  0  0  0  0  3  0  0  0  0  0  0
  192.3400  174.9160  146.8880 C   0  0  0  0  0  2  0  0  0  0  0  0
  193.7070  174.9340  146.2150 C   0  0  0  0  0  2  0  0  0  0  0  0
  194.1590  176.3310  145.9500 C   0  0  0  0  0  0  0  0  0  0  0  0
  194.5540  176.7010  144.6720 O   0  0  0  0  0  0  0  0  0  0  0  0
  194.1980  177.1700  146.8870 O   0  0  0  0  0  1  0  0  0  0  0  0
  1  4  2  0  0  0  0
  2  1  1  0  0  0  0
  2 11  1  0  0  0  0
  3 13  1  0  0  0  0
  4 16  1  0  0  0  0
  5 12  1  0  0  0  0
  6  3  2  0  0  0  0
  6 18  1  0  0  0  0
  7  4  1  0  0  0  0
  7  8  1  0  0  0  0
  8  5  2  0  0  0  0
  9 18  1  0  0  0  0
  9 15  1  0  0  0  0
 10  9  1  0  0  0  0
 13 14  1  0  0  0  0
 13  1  1  0  0  0  0
 14  7  2  0  0  0  0
 15 17  1  0  0  0  0
 16 12  2  0  0  0  0
 17 11  2  0  0  0  0
 17 19  1  0  0  0  0
 18  2  2  0  0  0  0
 19 20  2  0  0  0  0
 20 21  1  0  0  0  0
 22 21  1  0  0  0  0
 23 22  1  0  0  0  0
 23 25  1  0  0  0  0
 24 23  2  0  0  0  0
M  END
>  <MODEL>
5

>  <REMARK>
 VINA RESULT:      -7.0      5.500      8.323
  Name = 
  4 active torsions:
  status: ('A' for Active; 'I' for Inactive)
    1  A    between atoms: C_2  and  C_25
    2  A    between atoms: C_6  and  C_23
    3  A    between atoms: C_15  and  C_21
    4  A    between atoms: C_21  and  C_25
                            x       y       z     vdW  Elec       q    Type
                         _______ _______ _______ _____ _____    ______ ____

>  <TORSDO>
F 4

$$$$
=
 OpenBabel11052417303D

 25 28  0  0  0  0  0  0  0  0999 V2000
  185.8230  178.0270  143.6320 C   0  0  0  0  0  0  0  0  0  0  0  0
  186.6430  177.8840  144.7500 C   0  0  0  0  0  0  0  0  0  0  0  0
  184.0290  178.8110  144.9640 C   0  0  0  0  0  3  0  0  0  0  0  0
  186.0740  177.7750  142.3040 C   0  0  0  0  0  0  0  0  0  0  0  0
  185.9390  177.4760  139.5560 C   0  0  0  0  0  3  0  0  0  0  0  0
  184.8040  178.6840  146.0790 N   0  0  0  0  0  0  0  0  0  0  0  0
  184.9120  178.0900  141.6310 C   0  0  0  0  0  0  0  0  0  0  0  0
  184.8110  177.9520  140.2490 C   0  0  0  0  0  3  0  0  0  0  0  0
  186.9140  178.0920  147.1590 N   0  0  0  0  0  0  0  0  0  0  0  0
  186.4170  178.4280  148.4810 C   0  0  0  0  0  1  0  0  0  0  0  0
  187.9930  177.4080  144.6610 N   0  0  0  0  0  0  0  0  0  0  0  0
  187.1270  177.1540  140.2490 C   0  0  0  0  0  3  0  0  0  0  0  0
  184.5590  178.4790  143.7610 N   0  0  0  0  0  0  0  0  0  0  0  0
  183.9670  178.5300  142.5470 C   0  0  0  0  0  3  0  0  0  0  0  0
  188.2300  177.6200  147.0140 N   0  0  0  0  0  2  0  0  0  0  0  0
  187.2060  177.3010  141.6440 C   0  0  0  0  0  3  0  0  0  0  0  0
  188.7450  177.2810  145.7180 C   0  0  0  0  0  0  0  0  0  0  0  0
  186.0920  178.2300  145.9950 C   0  0  0  0  0  0  0  0  0  0  0  0
  190.1230  176.7910  145.6040 C   0  0  0  0  0  3  0  0  0  0  0  0
  190.8250  176.3940  146.6600 C   0  0  0  0  0  3  0  0  0  0  0  0
  192.2280  175.9060  146.5110 C   0  0  0  0  0  2  0  0  0  0  0  0
  192.8830  176.4640  145.2540 C   0  0  0  0  0  2  0  0  0  0  0  0
  194.2790  176.9110  145.5260 C   0  0  0  0  0  0  0  0  0  0  0  0
  194.5900  177.5170  146.7360 O   0  0  0  0  0  1  0  0  0  0  0  0
  195.1730  176.7540  144.6540 O   0  0  0  0  0  0  0  0  0  0  0  0
  1 13  1  0  0  0  0
  1  2  1  0  0  0  0
  2 18  2  0  0  0  0
  3  6  2  0  0  0  0
  4  1  2  0  0  0  0
  5  8  2  0  0  0  0
  5 12  1  0  0  0  0
  7  4  1  0  0  0  0
  7 14  2  0  0  0  0
  8  7  1  0  0  0  0
  9 10  1  0  0  0  0
 11  2  1  0  0  0  0
 11 17  2  0  0  0  0
 12 16  2  0  0  0  0
 13  3  1  0  0  0  0
 14 13  1  0  0  0  0
 15  9  1  0  0  0  0
 16  4  1  0  0  0  0
 17 15  1  0  0  0  0
 18  6  1  0  0  0  0
 18  9  1  0  0  0  0
 19 17  1  0  0  0  0
 19 20  2  0  0  0  0
 21 20  1  0  0  0  0
 22 23  1  0  0  0  0
 22 21  1  0  0  0  0
 23 24  1  0  0  0  0
 25 23  2  0  0  0  0
M  END
>  <MODEL>
6

>  <REMARK>
 VINA RESULT:      -6.9      5.444      9.155
  Name = 
  4 active torsions:
  status: ('A' for Active; 'I' for Inactive)
    1  A    between atoms: C_2  and  C_25
    2  A    between atoms: C_6  and  C_23
    3  A    between atoms: C_15  and  C_21
    4  A    between atoms: C_21  and  C_25
                            x       y       z     vdW  Elec       q    Type
                         _______ _______ _______ _____ _____    ______ ____

>  <TORSDO>
F 4

$$$$
=
 OpenBabel11052417303D

 25 28  0  0  0  0  0  0  0  0999 V2000
  187.3870  177.5530  144.3510 C   0  0  0  0  0  0  0  0  0  0  0  0
  188.7270  177.3300  144.6600 C   0  0  0  0  0  0  0  0  0  0  0  0
  186.7810  177.4950  146.6390 C   0  0  0  0  0  3  0  0  0  0  0  0
  186.7680  177.7260  143.1360 C   0  0  0  0  0  0  0  0  0  0  0  0
  184.9670  178.1310  141.0730 C   0  0  0  0  0  3  0  0  0  0  0  0
  188.0840  177.2760  146.9770 N   0  0  0  0  0  0  0  0  0  0  0  0
  185.4290  177.9090  143.4130 C   0  0  0  0  0  0  0  0  0  0  0  0
  184.4970  178.1160  142.3990 C   0  0  0  0  0  3  0  0  0  0  0  0
  190.4270  176.9620  146.3610 N   0  0  0  0  0  0  0  0  0  0  0  0
  190.8460  176.8080  147.7430 C   0  0  0  0  0  1  0  0  0  0  0  0
  189.7450  177.2410  143.6530 N   0  0  0  0  0  0  0  0  0  0  0  0
  186.3390  177.9410  140.7920 C   0  0  0  0  0  3  0  0  0  0  0  0
  186.4610  177.6290  145.3290 N   0  0  0  0  0  0  0  0  0  0  0  0
  185.2430  177.8480  144.7870 C   0  0  0  0  0  3  0  0  0  0  0  0
  191.3840  176.8830  145.3340 N   0  0  0  0  0  2  0  0  0  0  0  0
  187.2620  177.7340  141.8330 C   0  0  0  0  0  3  0  0  0  0  0  0
  190.9950  177.0320  143.9610 C   0  0  0  0  0  0  0  0  0  0  0  0
  189.0560  177.1920  146.0170 C   0  0  0  0  0  0  0  0  0  0  0  0
  192.0200  176.9440  142.9160 C   0  0  0  0  0  3  0  0  0  0  0  0
  193.1060  176.1890  143.0480 C   0  0  0  0  0  3  0  0  0  0  0  0
  194.1340  176.1250  141.9680 C   0  0  0  0  0  2  0  0  0  0  0  0
  195.3360  175.2890  142.3910 C   0  0  0  0  0  2  0  0  0  0  0  0
  196.0410  175.9070  143.5510 C   0  0  0  0  0  0  0  0  0  0  0  0
  196.0620  175.2560  144.7760 O   0  0  0  0  0  1  0  0  0  0  0  0
  196.6030  177.0260  143.4240 O   0  0  0  0  0  0  0  0  0  0  0  0
  1  2  1  0  0  0  0
  1 13  1  0  0  0  0
  2 18  2  0  0  0  0
  3  6  2  0  0  0  0
  4  7  1  0  0  0  0
  4  1  2  0  0  0  0
  5  8  2  0  0  0  0
  7 14  2  0  0  0  0
  8  7  1  0  0  0  0
  9 10  1  0  0  0  0
 11 17  2  0  0  0  0
 11  2  1  0  0  0  0
 12  5  1  0  0  0  0
 12 16  2  0  0  0  0
 13  3  1  0  0  0  0
 14 13  1  0  0  0  0
 15  9  1  0  0  0  0
 16  4  1  0  0  0  0
 17 15  1  0  0  0  0
 18  9  1  0  0  0  0
 18  6  1  0  0  0  0
 19 20  2  0  0  0  0
 19 17  1  0  0  0  0
 21 22  1  0  0  0  0
 21 20  1  0  0  0  0
 22 23  1  0  0  0  0
 23 24  1  0  0  0  0
 25 23  2  0  0  0  0
M  END
>  <MODEL>
7

>  <REMARK>
 VINA RESULT:      -6.7      6.132      9.619
  Name = 
  4 active torsions:
  status: ('A' for Active; 'I' for Inactive)
    1  A    between atoms: C_2  and  C_25
    2  A    between atoms: C_6  and  C_23
    3  A    between atoms: C_15  and  C_21
    4  A    between atoms: C_21  and  C_25
                            x       y       z     vdW  Elec       q    Type
                         _______ _______ _______ _____ _____    ______ ____

>  <TORSDO>
F 4

$$$$
=
 OpenBabel11052417303D

 25 28  0  0  0  0  0  0  0  0999 V2000
  185.7770  177.5440  143.8030 C   0  0  0  0  0  0  0  0  0  0  0  0
  186.5510  176.9440  142.8120 C   0  0  0  0  0  0  0  0  0  0  0  0
  184.4040  178.5970  142.1880 C   0  0  0  0  0  3  0  0  0  0  0  0
  185.8730  177.4750  145.1730 C   0  0  0  0  0  0  0  0  0  0  0  0
  185.5300  177.7510  147.9060 C   0  0  0  0  0  3  0  0  0  0  0  0
  185.1390  178.0260  141.1920 N   0  0  0  0  0  0  0  0  0  0  0  0
  184.8540  178.2630  145.6660 C   0  0  0  0  0  0  0  0  0  0  0  0
  184.6540  178.4240  147.0340 C   0  0  0  0  0  3  0  0  0  0  0  0
  186.9790  176.6040  140.4410 N   0  0  0  0  0  0  0  0  0  0  0  0
  186.6790  176.8310  139.0380 C   0  0  0  0  0  1  0  0  0  0  0  0
  187.6620  176.0880  143.1130 N   0  0  0  0  0  0  0  0  0  0  0  0
  186.5740  176.9450  147.3980 C   0  0  0  0  0  3  0  0  0  0  0  0
  184.7410  178.3420  143.4760 N   0  0  0  0  0  0  0  0  0  0  0  0
  184.1480  178.8030  144.6000 C   0  0  0  0  0  3  0  0  0  0  0  0
  188.0580  175.7740  140.7930 N   0  0  0  0  0  2  0  0  0  0  0  0
  186.7570  176.7980  146.0120 C   0  0  0  0  0  3  0  0  0  0  0  0
  188.3750  175.5350  142.1720 C   0  0  0  0  0  0  0  0  0  0  0  0
  186.2000  177.2090  141.4790 C   0  0  0  0  0  0  0  0  0  0  0  0
  189.5080  174.6640  142.5020 C   0  0  0  0  0  3  0  0  0  0  0  0
  189.8050  174.3290  143.7530 C   0  0  0  0  0  3  0  0  0  0  0  0
  190.9680  173.4450  144.0570 C   0  0  0  0  0  2  0  0  0  0  0  0
  190.7170  172.0140  143.5960 C   0  0  0  0  0  2  0  0  0  0  0  0
  191.9330  171.1690  143.7730 C   0  0  0  0  0  0  0  0  0  0  0  0
  192.9450  171.5800  144.6300 O   0  0  0  0  0  1  0  0  0  0  0  0
  192.0510  170.0910  143.1340 O   0  0  0  0  0  0  0  0  0  0  0  0
  1  4  2  0  0  0  0
  2 11  1  0  0  0  0
  2  1  1  0  0  0  0
  3 13  1  0  0  0  0
  4  7  1  0  0  0  0
  4 16  1  0  0  0  0
  6 18  1  0  0  0  0
  6  3  2  0  0  0  0
  7  8  1  0  0  0  0
  8  5  2  0  0  0  0
  9 15  1  0  0  0  0
  9 18  1  0  0  0  0
 10  9  1  0  0  0  0
 12  5  1  0  0  0  0
 13  1  1  0  0  0  0
 13 14  1  0  0  0  0
 14  7  2  0  0  0  0
 15 17  1  0  0  0  0
 16 12  2  0  0  0  0
 17 19  1  0  0  0  0
 17 11  2  0  0  0  0
 18  2  2  0  0  0  0
 19 20  2  0  0  0  0
 20 21  1  0  0  0  0
 22 23  1  0  0  0  0
 22 21  1  0  0  0  0
 23 24  1  0  0  0  0
 25 23  2  0  0  0  0
M  END
>  <MODEL>
8

>  <REMARK>
 VINA RESULT:      -6.7      5.099      7.425
  Name = 
  4 active torsions:
  status: ('A' for Active; 'I' for Inactive)
    1  A    between atoms: C_2  and  C_25
    2  A    between atoms: C_6  and  C_23
    3  A    between atoms: C_15  and  C_21
    4  A    between atoms: C_21  and  C_25
                            x       y       z     vdW  Elec       q    Type
                         _______ _______ _______ _____ _____    ______ ____

>  <TORSDO>
F 4

$$$$
=
 OpenBabel11052417303D

 25 28  0  0  0  0  0  0  0  0999 V2000
  188.0300  175.9030  144.3180 C   0  0  0  0  0  0  0  0  0  0  0  0
  186.8650  176.6680  144.3220 C   0  0  0  0  0  0  0  0  0  0  0  0
  188.2950  176.1730  146.6550 C   0  0  0  0  0  3  0  0  0  0  0  0
  188.6820  175.2780  143.2820 C   0  0  0  0  0  0  0  0  0  0  0  0
  190.4240  173.8320  141.6890 C   0  0  0  0  0  3  0  0  0  0  0  0
  187.1600  176.9270  146.6950 N   0  0  0  0  0  0  0  0  0  0  0  0
  189.7820  174.6620  143.8420 C   0  0  0  0  0  0  0  0  0  0  0  0
  190.6780  173.9270  143.0690 C   0  0  0  0  0  3  0  0  0  0  0  0
  185.2480  177.9710  145.5890 N   0  0  0  0  0  0  0  0  0  0  0  0
  184.7460  178.5380  146.8290 C   0  0  0  0  0  1  0  0  0  0  0  0
  186.1140  176.9360  143.1300 N   0  0  0  0  0  0  0  0  0  0  0  0
  189.2960  174.4640  141.1180 C   0  0  0  0  0  3  0  0  0  0  0  0
  188.7060  175.6770  145.4630 N   0  0  0  0  0  0  0  0  0  0  0  0
  189.7920  174.9150  145.2070 C   0  0  0  0  0  3  0  0  0  0  0  0
  184.5500  178.2020  144.3900 N   0  0  0  0  0  2  0  0  0  0  0  0
  188.4060  175.2010  141.9180 C   0  0  0  0  0  3  0  0  0  0  0  0
  185.0260  177.6540  143.1520 C   0  0  0  0  0  0  0  0  0  0  0  0
  186.4420  177.1820  145.5580 C   0  0  0  0  0  0  0  0  0  0  0  0
  184.2730  177.9160  141.9210 C   0  0  0  0  0  3  0  0  0  0  0  0
  182.9750  178.1990  141.9290 C   0  0  0  0  0  3  0  0  0  0  0  0
  182.2360  178.4550  140.6580 C   0  0  0  0  0  2  0  0  0  0  0  0
  180.9060  179.1510  140.9160 C   0  0  0  0  0  2  0  0  0  0  0  0
  179.7690  178.1900  140.8360 C   0  0  0  0  0  0  0  0  0  0  0  0
  179.3690  177.4920  141.9670 O   0  0  0  0  0  1  0  0  0  0  0  0
  179.1820  177.9970  139.7390 O   0  0  0  0  0  0  0  0  0  0  0  0
  1  2  1  0  0  0  0
  1 13  1  0  0  0  0
  2 18  2  0  0  0  0
  3  6  2  0  0  0  0
  4  7  1  0  0  0  0
  4  1  2  0  0  0  0
  5  8  2  0  0  0  0
  7 14  2  0  0  0  0
  8  7  1  0  0  0  0
  9 10  1  0  0  0  0
 11 17  2  0  0  0  0
 11  2  1  0  0  0  0
 12  5  1  0  0  0  0
 12 16  2  0  0  0  0
 13  3  1  0  0  0  0
 14 13  1  0  0  0  0
 15  9  1  0  0  0  0
 16  4  1  0  0  0  0
 17 15  1  0  0  0  0
 18  9  1  0  0  0  0
 18  6  1  0  0  0  0
 19 20  2  0  0  0  0
 19 17  1  0  0  0  0
 21 22  1  0  0  0  0
 21 20  1  0  0  0  0
 23 22  1  0  0  0  0
 23 24  1  0  0  0  0
 25 23  2  0  0  0  0
M  END
>  <MODEL>
9

>  <REMARK>
 VINA RESULT:      -6.6      2.255      4.577
  Name = 
  4 active torsions:
  status: ('A' for Active; 'I' for Inactive)
    1  A    between atoms: C_2  and  C_25
    2  A    between atoms: C_6  and  C_23
    3  A    between atoms: C_15  and  C_21
    4  A    between atoms: C_21  and  C_25
                            x       y       z     vdW  Elec       q    Type
                         _______ _______ _______ _____ _____    ______ ____

>  <TORSDO>
F 4

$$$$
