=
 OpenBabel11052421303D

 32 37  0  0  1  0  0  0  0  0999 V2000
  192.9260  175.8050  145.5570 N   0  0  0  0  0  0  0  0  0  0  0  0
  188.1720  176.9960  143.9300 C   0  0  0  0  0  0  0  0  0  0  0  0
  185.9780  178.0180  148.2040 C   0  0  0  0  0  3  0  0  0  0  0  0
  184.8220  178.6270  147.4610 C   0  0  0  0  0  2  0  0  0  0  0  0
  186.5370  177.3580  141.9590 C   0  0  0  0  0  0  0  0  0  0  0  0
  187.2600  177.2450  140.7730 C   0  0  0  0  0  3  0  0  0  0  0  0
  190.7390  176.6720  143.9340 C   0  0  1  0  0  3  0  0  0  0  0  0
  189.4760  176.9120  146.0690 C   0  0  0  0  0  3  0  0  0  0  0  0
  184.5320  177.8870  140.7900 C   0  0  0  0  0  0  0  0  0  0  0  0
  191.8860  176.5750  146.2510 C   0  0  0  0  0  2  0  0  0  0  0  0
  187.0200  177.5010  147.5470 C   0  0  0  0  0  3  0  0  0  0  0  0
  188.2010  177.1120  145.3460 C   0  0  0  0  0  0  0  0  0  0  0  0
  187.0170  177.4210  146.0690 C   0  0  0  0  0  0  0  0  0  0  0  0
  185.7990  177.5630  143.9960 C   0  0  0  0  0  0  0  0  0  0  0  0
  185.2110  177.7760  139.5700 C   0  0  0  0  0  3  0  0  0  0  0  0
  192.7230  175.2310  144.2550 C   0  0  0  0  0  3  0  0  0  0  0  0
  190.6290  176.6780  145.4400 C   0  0  0  0  0  0  0  0  0  0  0  0
  186.5780  177.4540  139.5680 C   0  0  0  0  0  3  0  0  0  0  0  0
  191.6910  175.5950  143.4940 C   0  0  0  0  0  3  0  0  0  0  0  0
  184.5300  177.8770  146.1580 C   0  0  0  0  0  2  0  0  0  0  0  0
  185.7990  177.6430  145.3850 C   0  0  0  0  0  0  0  0  0  0  0  0
  184.7550  177.8040  143.1730 N   0  0  0  0  0  0  0  0  0  0  0  0
  189.4070  176.5580  143.2330 C   0  0  0  0  0  0  0  0  0  0  0  0
  189.3580  176.0870  142.0640 O   0  0  0  0  0  0  0  0  0  0  0  0
  183.0860  178.2470  140.8110 C   0  0  0  0  0  1  0  0  0  0  0  0
  186.9460  177.2650  143.2830 C   0  0  0  0  0  0  0  0  0  0  0  0
  185.2260  177.6780  141.9400 N   0  0  0  0  0  0  0  0  0  0  0  0
  194.1530  175.5070  146.2840 C   0  0  0  0  0  2  0  0  0  0  0  0
  196.2410  174.4840  145.2690 C   0  0  0  0  0  0  0  0  0  0  0  0
  195.2990  175.5530  145.3870 N   0  0  0  0  0  2  0  0  0  0  0  0
  197.3750  174.6360  144.4220 N   0  0  0  0  0  1  0  0  0  0  0  0
  196.0680  173.4010  145.8900 O   0  0  0  0  0  0  0  0  0  0  0  0
  1 10  1  0  0  0  0
  1 28  1  0  0  0  0
  2 12  2  0  0  0  0
  4  3  1  0  0  0  0
  5 26  2  0  0  0  0
  6  5  1  0  0  0  0
  7 19  1  1  0  0  0
  7 17  1  0  0  0  0
  9 25  1  0  0  0  0
  9 27  1  0  0  0  0
 11  3  2  0  0  0  0
 12 13  1  0  0  0  0
 12  8  1  0  0  0  0
 13 11  1  0  0  0  0
 14 21  1  0  0  0  0
 15  9  2  0  0  0  0
 16  1  1  0  0  0  0
 17  8  2  0  0  0  0
 17 10  1  0  0  0  0
 18 15  1  0  0  0  0
 18  6  2  0  0  0  0
 19 16  2  0  0  0  0
 20  4  1  0  0  0  0
 21 13  2  0  0  0  0
 21 20  1  0  0  0  0
 22 14  2  0  0  0  0
 23  2  1  0  0  0  0
 23  7  1  0  0  0  0
 24 23  2  0  0  0  0
 26  2  1  0  0  0  0
 26 14  1  0  0  0  0
 27  5  1  0  0  0  0
 27 22  1  0  0  0  0
 29 30  1  0  0  0  0
 29 32  2  0  0  0  0
 30 28  1  0  0  0  0
 31 29  1  0  0  0  0
M  END
>  <MODEL>
1

>  <REMARK>
 VINA RESULT:      -9.5      0.000      0.000
  Name = 
  2 active torsions:
  status: ('A' for Active; 'I' for Inactive)
    1  A    between atoms: N_2  and  C_24
    2  A    between atoms: N_10  and  C_24
                            x       y       z     vdW  Elec       q    Type
                         _______ _______ _______ _____ _____    ______ ____

>  <TORSDO>
F 2

$$$$
=
 OpenBabel11052421303D

 32 37  0  0  1  0  0  0  0  0999 V2000
  190.2620  172.7550  139.7210 N   0  0  0  0  0  0  0  0  0  0  0  0
  188.7600  175.5930  143.7660 C   0  0  0  0  0  0  0  0  0  0  0  0
  192.7510  175.2990  146.6130 C   0  0  0  0  0  3  0  0  0  0  0  0
  192.2170  176.4120  147.4710 C   0  0  0  0  0  2  0  0  0  0  0  0
  186.9650  177.0940  144.8670 C   0  0  0  0  0  0  0  0  0  0  0  0
  185.9470  177.2990  143.9380 C   0  0  0  0  0  3  0  0  0  0  0  0
  188.9310  174.6940  141.3440 C   0  0  1  0  0  3  0  0  0  0  0  0
  190.7870  174.3490  142.9730 C   0  0  0  0  0  3  0  0  0  0  0  0
  185.9130  178.5090  146.4670 C   0  0  0  0  0  0  0  0  0  0  0  0
  191.0920  173.4040  140.7430 C   0  0  0  0  0  2  0  0  0  0  0  0
  192.0660  174.8590  145.5550 C   0  0  0  0  0  3  0  0  0  0  0  0
  190.0760  175.1190  144.0170 C   0  0  0  0  0  0  0  0  0  0  0  0
  190.7130  175.3830  145.2590 C   0  0  0  0  0  0  0  0  0  0  0  0
  188.7810  176.6320  145.9740 C   0  0  0  0  0  0  0  0  0  0  0  0
  184.8590  178.7390  145.5730 C   0  0  0  0  0  3  0  0  0  0  0  0
  188.8260  172.8200  139.7350 C   0  0  0  0  0  3  0  0  0  0  0  0
  190.2630  174.1200  141.7670 C   0  0  0  0  0  0  0  0  0  0  0  0
  184.8810  178.1300  144.3080 C   0  0  0  0  0  3  0  0  0  0  0  0
  188.1820  173.6920  140.5110 C   0  0  0  0  0  3  0  0  0  0  0  0
  190.6920  176.3420  147.6010 C   0  0  0  0  0  2  0  0  0  0  0  0
  190.0540  176.1440  146.2530 C   0  0  0  0  0  0  0  0  0  0  0  0
  188.0280  177.4240  146.7670 N   0  0  0  0  0  0  0  0  0  0  0  0
  188.0960  175.1920  142.5000 C   0  0  0  0  0  0  0  0  0  0  0  0
  186.8430  175.2570  142.3780 O   0  0  0  0  0  0  0  0  0  0  0  0
  185.9160  179.1630  147.8060 C   0  0  0  0  0  1  0  0  0  0  0  0
  188.1530  176.3820  144.7660 C   0  0  0  0  0  0  0  0  0  0  0  0
  186.9310  177.6960  146.0740 N   0  0  0  0  0  0  0  0  0  0  0  0
  190.9270  171.9080  138.7400 C   0  0  0  0  0  2  0  0  0  0  0  0
  190.2700  169.4570  138.7090 C   0  0  0  0  0  0  0  0  0  0  0  0
  191.0350  170.5430  139.2380 N   0  0  0  0  0  2  0  0  0  0  0  0
  190.3810  168.1670  139.2980 N   0  0  0  0  0  1  0  0  0  0  0  0
  189.5140  169.6250  137.7140 O   0  0  0  0  0  0  0  0  0  0  0  0
  1 16  1  0  0  0  0
  1 10  1  0  0  0  0
  2 12  2  0  0  0  0
  2 26  1  0  0  0  0
  3  4  1  0  0  0  0
  4 20  1  0  0  0  0
  5 27  1  0  0  0  0
  6 18  2  0  0  0  0
  6  5  1  0  0  0  0
  7 19  1  1  0  0  0
  7 17  1  0  0  0  0
  7 23  1  0  0  0  0
  8 12  1  0  0  0  0
  9 25  1  0  0  0  0
 10 17  1  0  0  0  0
 11  3  2  0  0  0  0
 12 13  1  0  0  0  0
 13 11  1  0  0  0  0
 13 21  2  0  0  0  0
 14 21  1  0  0  0  0
 14 22  2  0  0  0  0
 15  9  2  0  0  0  0
 16 19  2  0  0  0  0
 17  8  2  0  0  0  0
 18 15  1  0  0  0  0
 21 20  1  0  0  0  0
 23  2  1  0  0  0  0
 24 23  2  0  0  0  0
 26  5  2  0  0  0  0
 26 14  1  0  0  0  0
 27  9  1  0  0  0  0
 27 22  1  0  0  0  0
 28 30  1  0  0  0  0
 28  1  1  0  0  0  0
 29 30  1  0  0  0  0
 29 31  1  0  0  0  0
 32 29  2  0  0  0  0
M  END
>  <MODEL>
2

>  <REMARK>
 VINA RESULT:      -8.7      4.054      6.150
  Name = 
  2 active torsions:
  status: ('A' for Active; 'I' for Inactive)
    1  A    between atoms: N_2  and  C_24
    2  A    between atoms: N_10  and  C_24
                            x       y       z     vdW  Elec       q    Type
                         _______ _______ _______ _____ _____    ______ ____

>  <TORSDO>
F 2

$$$$
=
 OpenBabel11052421303D

 32 37  0  0  1  0  0  0  0  0999 V2000
  184.6570  178.2380  143.5240 N   0  0  0  0  0  0  0  0  0  0  0  0
  189.1450  175.7080  143.8730 C   0  0  0  0  0  0  0  0  0  0  0  0
  188.7740  172.6660  140.0350 C   0  0  0  0  0  3  0  0  0  0  0  0
  190.2360  172.3400  140.1550 C   0  0  0  0  0  2  0  0  0  0  0  0
  191.4230  175.4030  145.0580 C   0  0  0  0  0  0  0  0  0  0  0  0
  191.5540  176.4160  146.0070 C   0  0  0  0  0  3  0  0  0  0  0  0
  187.3770  177.5830  144.1070 C   0  0  1  0  0  3  0  0  0  0  0  0
  187.1390  175.8090  142.3730 C   0  0  0  0  0  3  0  0  0  0  0  0
  193.5930  174.5490  145.5400 C   0  0  0  0  0  0  0  0  0  0  0  0
  185.3640  177.4790  142.4850 C   0  0  0  0  0  2  0  0  0  0  0  0
  188.1900  173.5260  140.8740 C   0  0  0  0  0  3  0  0  0  0  0  0
  188.4290  175.1950  142.7580 C   0  0  0  0  0  0  0  0  0  0  0  0
  188.9440  174.1020  142.0110 C   0  0  0  0  0  0  0  0  0  0  0  0
  190.8950  174.0680  143.4230 C   0  0  0  0  0  0  0  0  0  0  0  0
  193.7690  175.5420  146.5130 C   0  0  0  0  0  3  0  0  0  0  0  0
  185.1560  178.3600  144.8670 C   0  0  0  0  0  3  0  0  0  0  0  0
  186.6350  176.8720  143.0000 C   0  0  0  0  0  0  0  0  0  0  0  0
  192.7440  176.4740  146.7420 C   0  0  0  0  0  3  0  0  0  0  0  0
  186.4100  178.0270  145.1690 C   0  0  0  0  0  3  0  0  0  0  0  0
  190.6890  172.3110  141.6190 C   0  0  0  0  0  2  0  0  0  0  0  0
  190.1910  173.5270  142.3510 C   0  0  0  0  0  0  0  0  0  0  0  0
  192.1200  173.6970  143.8530 N   0  0  0  0  0  0  0  0  0  0  0  0
  188.5100  176.7730  144.6890 C   0  0  0  0  0  0  0  0  0  0  0  0
  188.9010  177.0070  145.8650 O   0  0  0  0  0  0  0  0  0  0  0  0
  194.6780  173.5650  145.2700 C   0  0  0  0  0  1  0  0  0  0  0  0
  190.4030  175.1330  144.1550 C   0  0  0  0  0  0  0  0  0  0  0  0
  192.4240  174.5230  144.8450 N   0  0  0  0  0  0  0  0  0  0  0  0
  183.3380  178.7680  143.2020 C   0  0  0  0  0  2  0  0  0  0  0  0
  181.5740  178.4780  141.4010 C   0  0  0  0  0  0  0  0  0  0  0  0
  182.9030  178.2910  141.8970 N   0  0  0  0  0  2  0  0  0  0  0  0
  181.2080  177.9180  140.1450 N   0  0  0  0  0  1  0  0  0  0  0  0
  180.7310  179.1480  142.0540 O   0  0  0  0  0  0  0  0  0  0  0  0
  1 16  1  0  0  0  0
  2 26  1  0  0  0  0
  2 23  1  0  0  0  0
  3  4  1  0  0  0  0
  3 11  2  0  0  0  0
  4 20  1  0  0  0  0
  5  6  1  0  0  0  0
  6 18  2  0  0  0  0
  7 23  1  0  0  0  0
  7 19  1  1  0  0  0
  8 12  1  0  0  0  0
  8 17  2  0  0  0  0
  9 15  2  0  0  0  0
 10 17  1  0  0  0  0
 10  1  1  0  0  0  0
 11 13  1  0  0  0  0
 12  2  2  0  0  0  0
 13 21  2  0  0  0  0
 13 12  1  0  0  0  0
 14 22  2  0  0  0  0
 14 26  1  0  0  0  0
 15 18  1  0  0  0  0
 16 19  2  0  0  0  0
 17  7  1  0  0  0  0
 20 21  1  0  0  0  0
 21 14  1  0  0  0  0
 22 27  1  0  0  0  0
 23 24  2  0  0  0  0
 25  9  1  0  0  0  0
 26  5  2  0  0  0  0
 27  5  1  0  0  0  0
 27  9  1  0  0  0  0
 28  1  1  0  0  0  0
 29 30  1  0  0  0  0
 29 32  2  0  0  0  0
 30 28  1  0  0  0  0
 31 29  1  0  0  0  0
M  END
>  <MODEL>
3

>  <REMARK>
 VINA RESULT:      -8.5      2.869      9.184
  Name = 
  2 active torsions:
  status: ('A' for Active; 'I' for Inactive)
    1  A    between atoms: N_2  and  C_24
    2  A    between atoms: N_10  and  C_24
                            x       y       z     vdW  Elec       q    Type
                         _______ _______ _______ _____ _____    ______ ____

>  <TORSDO>
F 2

$$$$
=
 OpenBabel11052421303D

 32 37  0  0  1  0  0  0  0  0999 V2000
  195.4380  174.2110  145.4700 N   0  0  0  0  0  0  0  0  0  0  0  0
  190.5840  175.5630  144.3390 C   0  0  0  0  0  0  0  0  0  0  0  0
  190.0730  173.4930  139.9140 C   0  0  0  0  0  3  0  0  0  0  0  0
  188.5880  173.7170  139.9840 C   0  0  0  0  0  2  0  0  0  0  0  0
  188.3840  176.7130  145.0640 C   0  0  0  0  0  0  0  0  0  0  0  0
  188.5230  177.1080  146.3940 C   0  0  0  0  0  3  0  0  0  0  0  0
  192.6940  174.9710  145.7160 C   0  0  1  0  0  3  0  0  0  0  0  0
  192.4540  174.2160  143.3530 C   0  0  0  0  0  3  0  0  0  0  0  0
  186.1330  177.4820  144.9780 C   0  0  0  0  0  0  0  0  0  0  0  0
  194.5220  173.6060  144.4950 C   0  0  0  0  0  2  0  0  0  0  0  0
  190.8720  173.8720  140.9150 C   0  0  0  0  0  3  0  0  0  0  0  0
  191.1020  174.8080  143.2520 C   0  0  0  0  0  0  0  0  0  0  0  0
  190.3310  174.6170  142.0740 C   0  0  0  0  0  0  0  0  0  0  0  0
  188.5210  175.8570  143.0690 C   0  0  0  0  0  0  0  0  0  0  0  0
  186.2250  177.9060  146.3100 C   0  0  0  0  0  3  0  0  0  0  0  0
  195.0740  175.3490  146.2710 C   0  0  0  0  0  3  0  0  0  0  0  0
  193.2000  174.3120  144.4540 C   0  0  0  0  0  0  0  0  0  0  0  0
  187.4250  177.7160  147.0140 C   0  0  0  0  0  3  0  0  0  0  0  0
  193.8040  175.7430  146.3720 C   0  0  0  0  0  3  0  0  0  0  0  0
  188.2490  175.0300  140.6970 C   0  0  0  0  0  2  0  0  0  0  0  0
  189.0260  175.1530  141.9790 C   0  0  0  0  0  0  0  0  0  0  0  0
  187.2830  176.3830  143.1870 N   0  0  0  0  0  0  0  0  0  0  0  0
  191.4720  175.8300  145.4980 C   0  0  0  0  0  0  0  0  0  0  0  0
  191.2230  176.7710  146.3000 O   0  0  0  0  0  0  0  0  0  0  0  0
  184.8600  177.6580  144.2230 C   0  0  0  0  0  1  0  0  0  0  0  0
  189.2630  176.0460  144.2210 C   0  0  0  0  0  0  0  0  0  0  0  0
  187.2190  176.8950  144.4080 N   0  0  0  0  0  0  0  0  0  0  0  0
  196.8070  173.7140  145.5190 C   0  0  0  0  0  2  0  0  0  0  0  0
  197.2270  171.2130  145.4450 C   0  0  0  0  0  0  0  0  0  0  0  0
  196.8480  172.4000  146.1460 N   0  0  0  0  0  2  0  0  0  0  0  0
  197.1720  169.9560  146.1110 N   0  0  0  0  0  1  0  0  0  0  0  0
  197.6260  171.2690  144.2510 O   0  0  0  0  0  0  0  0  0  0  0  0
  1 28  1  0  0  0  0
  1 16  1  0  0  0  0
  2 23  1  0  0  0  0
  3  4  1  0  0  0  0
  3 11  2  0  0  0  0
  4 20  1  0  0  0  0
  5  6  1  0  0  0  0
  6 18  2  0  0  0  0
  7 19  1  6  0  0  0
  8 17  2  0  0  0  0
  9 15  2  0  0  0  0
 10  1  1  0  0  0  0
 11 13  1  0  0  0  0
 12  8  1  0  0  0  0
 12  2  2  0  0  0  0
 13 12  1  0  0  0  0
 14 22  2  0  0  0  0
 14 26  1  0  0  0  0
 15 18  1  0  0  0  0
 16 19  2  0  0  0  0
 17 10  1  0  0  0  0
 17  7  1  0  0  0  0
 20 21  1  0  0  0  0
 21 13  2  0  0  0  0
 21 14  1  0  0  0  0
 22 27  1  0  0  0  0
 23  7  1  0  0  0  0
 23 24  2  0  0  0  0
 25  9  1  0  0  0  0
 26  2  1  0  0  0  0
 26  5  2  0  0  0  0
 27  9  1  0  0  0  0
 27  5  1  0  0  0  0
 28 30  1  0  0  0  0
 29 31  1  0  0  0  0
 29 30  1  0  0  0  0
 32 29  2  0  0  0  0
M  END
>  <MODEL>
4

>  <REMARK>
 VINA RESULT:      -8.2      2.340      5.106
  Name = 
  2 active torsions:
  status: ('A' for Active; 'I' for Inactive)
    1  A    between atoms: N_2  and  C_24
    2  A    between atoms: N_10  and  C_24
                            x       y       z     vdW  Elec       q    Type
                         _______ _______ _______ _____ _____    ______ ____

>  <TORSDO>
F 2

$$$$
=
 OpenBabel11052421303D

 32 37  0  0  1  0  0  0  0  0999 V2000
  184.7420  177.9360  142.8860 N   0  0  0  0  0  0  0  0  0  0  0  0
  189.3860  175.8130  143.6590 C   0  0  0  0  0  0  0  0  0  0  0  0
  190.4380  177.5360  148.1370 C   0  0  0  0  0  3  0  0  0  0  0  0
  191.5710  176.5550  148.2440 C   0  0  0  0  0  2  0  0  0  0  0  0
  191.2720  174.2570  142.8170 C   0  0  0  0  0  0  0  0  0  0  0  0
  190.8350  173.6480  141.6420 C   0  0  0  0  0  3  0  0  0  0  0  0
  186.9870  176.1720  142.7560 C   0  0  1  0  0  3  0  0  0  0  0  0
  187.7270  177.2390  144.8830 C   0  0  0  0  0  3  0  0  0  0  0  0
  193.3200  173.0440  142.7890 C   0  0  0  0  0  0  0  0  0  0  0  0
  185.4470  177.7120  144.1530 C   0  0  0  0  0  2  0  0  0  0  0  0
  189.6720  177.5830  147.0430 C   0  0  0  0  0  3  0  0  0  0  0  0
  189.0540  176.5890  144.8020 C   0  0  0  0  0  0  0  0  0  0  0  0
  189.9840  176.7410  145.8650 C   0  0  0  0  0  0  0  0  0  0  0  0
  191.5350  175.3130  144.7010 C   0  0  0  0  0  0  0  0  0  0  0  0
  192.9330  172.4120  141.6010 C   0  0  0  0  0  3  0  0  0  0  0  0
  185.3100  177.5830  141.6120 C   0  0  0  0  0  3  0  0  0  0  0  0
  186.7930  177.0850  143.9440 C   0  0  0  0  0  0  0  0  0  0  0  0
  191.6870  172.7190  141.0310 C   0  0  0  0  0  3  0  0  0  0  0  0
  186.3780  176.7910  141.5290 C   0  0  0  0  0  3  0  0  0  0  0  0
  192.2610  176.3380  146.8930 C   0  0  0  0  0  2  0  0  0  0  0  0
  191.2430  176.1000  145.8120 C   0  0  0  0  0  0  0  0  0  0  0  0
  192.6500  174.5780  144.5040 N   0  0  0  0  0  0  0  0  0  0  0  0
  188.4270  175.7800  142.5260 C   0  0  0  0  0  0  0  0  0  0  0  0
  188.8000  175.4350  141.3720 O   0  0  0  0  0  0  0  0  0  0  0  0
  194.6310  172.7160  143.4190 C   0  0  0  0  0  1  0  0  0  0  0  0
  190.6350  175.1560  143.6620 C   0  0  0  0  0  0  0  0  0  0  0  0
  192.4680  173.9410  143.3550 N   0  0  0  0  0  0  0  0  0  0  0  0
  183.4810  178.6640  142.9260 C   0  0  0  0  0  2  0  0  0  0  0  0
  181.2900  178.7060  141.6460 C   0  0  0  0  0  0  0  0  0  0  0  0
  182.6670  178.3360  141.7640 N   0  0  0  0  0  2  0  0  0  0  0  0
  180.5440  178.2850  140.5100 N   0  0  0  0  0  1  0  0  0  0  0  0
  180.7350  179.4160  142.5270 O   0  0  0  0  0  0  0  0  0  0  0  0
  1 28  1  0  0  0  0
  1 10  1  0  0  0  0
  2 26  1  0  0  0  0
  2 12  2  0  0  0  0
  3  4  1  0  0  0  0
  5 27  1  0  0  0  0
  5 26  2  0  0  0  0
  6  5  1  0  0  0  0
  7 19  1  6  0  0  0
  7 17  1  0  0  0  0
  9 27  1  0  0  0  0
  9 25  1  0  0  0  0
 11  3  2  0  0  0  0
 12  8  1  0  0  0  0
 12 13  1  0  0  0  0
 13 11  1  0  0  0  0
 14 21  1  0  0  0  0
 15  9  2  0  0  0  0
 16  1  1  0  0  0  0
 17 10  1  0  0  0  0
 17  8  2  0  0  0  0
 18 15  1  0  0  0  0
 18  6  2  0  0  0  0
 19 16  2  0  0  0  0
 20  4  1  0  0  0  0
 21 13  2  0  0  0  0
 21 20  1  0  0  0  0
 22 14  2  0  0  0  0
 23  7  1  0  0  0  0
 23  2  1  0  0  0  0
 24 23  2  0  0  0  0
 26 14  1  0  0  0  0
 27 22  1  0  0  0  0
 29 30  1  0  0  0  0
 29 32  2  0  0  0  0
 30 28  1  0  0  0  0
 31 29  1  0  0  0  0
M  END
>  <MODEL>
5

>  <REMARK>
 VINA RESULT:      -7.9      2.614      8.470
  Name = 
  2 active torsions:
  status: ('A' for Active; 'I' for Inactive)
    1  A    between atoms: N_2  and  C_24
    2  A    between atoms: N_10  and  C_24
                            x       y       z     vdW  Elec       q    Type
                         _______ _______ _______ _____ _____    ______ ____

>  <TORSDO>
F 2

$$$$
=
 OpenBabel11052421303D

 32 37  0  0  1  0  0  0  0  0999 V2000
  186.6930  177.8540  146.0430 N   0  0  0  0  0  0  0  0  0  0  0  0
  190.9030  175.4150  144.3130 C   0  0  0  0  0  0  0  0  0  0  0  0
  189.2710  173.7370  139.9940 C   0  0  0  0  0  3  0  0  0  0  0  0
  190.6820  173.4130  139.5910 C   0  0  0  0  0  2  0  0  0  0  0  0
  193.3890  174.7870  144.6510 C   0  0  0  0  0  0  0  0  0  0  0  0
  193.8490  175.4500  145.7880 C   0  0  0  0  0  3  0  0  0  0  0  0
  189.4120  177.0910  145.6020 C   0  0  1  0  0  3  0  0  0  0  0  0
  188.5780  175.9530  143.5480 C   0  0  0  0  0  3  0  0  0  0  0  0
  195.5370  173.8600  144.2130 C   0  0  0  0  0  0  0  0  0  0  0  0
  187.0300  177.4730  144.6660 C   0  0  0  0  0  2  0  0  0  0  0  0
  189.0050  174.2780  141.1860 C   0  0  0  0  0  3  0  0  0  0  0  0
  189.8740  175.2700  143.3440 C   0  0  0  0  0  0  0  0  0  0  0  0
  190.0820  174.4770  142.1830 C   0  0  0  0  0  0  0  0  0  0  0  0
  192.3360  174.0290  142.9040 C   0  0  0  0  0  0  0  0  0  0  0  0
  196.0470  174.4960  145.3530 C   0  0  0  0  0  3  0  0  0  0  0  0
  187.5470  177.5520  147.1590 C   0  0  0  0  0  3  0  0  0  0  0  0
  188.3450  176.7550  144.5870 C   0  0  0  0  0  0  0  0  0  0  0  0
  195.1960  175.2910  146.1380 C   0  0  0  0  0  3  0  0  0  0  0  0
  188.8080  177.1610  146.9770 C   0  0  0  0  0  3  0  0  0  0  0  0
  191.5140  172.9300  140.7830 C   0  0  0  0  0  2  0  0  0  0  0  0
  191.3280  173.8440  141.9640 C   0  0  0  0  0  0  0  0  0  0  0  0
  193.6010  173.5610  142.8350 N   0  0  0  0  0  0  0  0  0  0  0  0
  190.5970  176.1570  145.5610 C   0  0  0  0  0  0  0  0  0  0  0  0
  191.3100  176.0130  146.5910 O   0  0  0  0  0  0  0  0  0  0  0  0
  196.4310  173.0280  143.3580 C   0  0  0  0  0  1  0  0  0  0  0  0
  192.1440  174.8010  144.0370 C   0  0  0  0  0  0  0  0  0  0  0  0
  194.2250  174.0360  143.9040 N   0  0  0  0  0  0  0  0  0  0  0  0
  185.3800  178.4360  146.2870 C   0  0  0  0  0  2  0  0  0  0  0  0
  184.2260  179.0410  144.1090 C   0  0  0  0  0  0  0  0  0  0  0  0
  184.4770  178.1330  145.1850 N   0  0  0  0  0  2  0  0  0  0  0  0
  183.2750  178.6980  143.1080 N   0  0  0  0  0  1  0  0  0  0  0  0
  184.8530  180.1310  144.0260 O   0  0  0  0  0  0  0  0  0  0  0  0
  1 28  1  0  0  0  0
  1 16  1  0  0  0  0
  2 23  1  0  0  0  0
  3 11  2  0  0  0  0
  4  3  1  0  0  0  0
  4 20  1  0  0  0  0
  5  6  1  0  0  0  0
  6 18  2  0  0  0  0
  7 19  1  1  0  0  0
  8 17  2  0  0  0  0
  9 15  2  0  0  0  0
 10  1  1  0  0  0  0
 11 13  1  0  0  0  0
 12  8  1  0  0  0  0
 12  2  2  0  0  0  0
 13 12  1  0  0  0  0
 14 26  1  0  0  0  0
 15 18  1  0  0  0  0
 17 10  1  0  0  0  0
 17  7  1  0  0  0  0
 19 16  2  0  0  0  0
 20 21  1  0  0  0  0
 21 13  2  0  0  0  0
 21 14  1  0  0  0  0
 22 14  2  0  0  0  0
 22 27  1  0  0  0  0
 23  7  1  0  0  0  0
 23 24  2  0  0  0  0
 25  9  1  0  0  0  0
 26  2  1  0  0  0  0
 26  5  2  0  0  0  0
 27  9  1  0  0  0  0
 27  5  1  0  0  0  0
 29 30  1  0  0  0  0
 30 28  1  0  0  0  0
 31 29  1  0  0  0  0
 32 29  2  0  0  0  0
M  END
>  <MODEL>
6

>  <REMARK>
 VINA RESULT:      -7.9      2.528      8.839
  Name = 
  2 active torsions:
  status: ('A' for Active; 'I' for Inactive)
    1  A    between atoms: N_2  and  C_24
    2  A    between atoms: N_10  and  C_24
                            x       y       z     vdW  Elec       q    Type
                         _______ _______ _______ _____ _____    ______ ____

>  <TORSDO>
F 2

$$$$
=
 OpenBabel11052421303D

 32 37  0  0  1  0  0  0  0  0999 V2000
  182.9700  178.3880  141.0420 N   0  0  0  0  0  0  0  0  0  0  0  0
  187.2930  177.5300  143.7350 C   0  0  0  0  0  0  0  0  0  0  0  0
  185.9470  179.1790  148.1620 C   0  0  0  0  0  3  0  0  0  0  0  0
  187.1590  178.5290  148.7680 C   0  0  0  0  0  2  0  0  0  0  0  0
  189.7000  176.5880  143.8080 C   0  0  0  0  0  0  0  0  0  0  0  0
  189.9540  175.9630  142.5890 C   0  0  0  0  0  3  0  0  0  0  0  0
  185.4600  177.2960  141.9220 C   0  0  1  0  0  3  0  0  0  0  0  0
  184.9650  178.3830  144.1100 C   0  0  0  0  0  3  0  0  0  0  0  0
  191.8290  175.9680  144.6730 C   0  0  0  0  0  0  0  0  0  0  0  0
  183.1370  178.2790  142.4970 C   0  0  0  0  0  2  0  0  0  0  0  0
  185.7050  179.0910  146.8510 C   0  0  0  0  0  3  0  0  0  0  0  0
  186.3330  178.1150  144.6050 C   0  0  0  0  0  0  0  0  0  0  0  0
  186.6780  178.4400  145.9440 C   0  0  0  0  0  0  0  0  0  0  0  0
  188.8880  177.5530  145.5820 C   0  0  0  0  0  0  0  0  0  0  0  0
  192.1380  175.3340  143.4630 C   0  0  0  0  0  3  0  0  0  0  0  0
  184.0740  178.2820  140.1270 C   0  0  0  0  0  3  0  0  0  0  0  0
  184.5670  178.0470  142.8820 C   0  0  0  0  0  0  0  0  0  0  0  0
  191.1950  175.3340  142.4220 C   0  0  0  0  0  3  0  0  0  0  0  0
  185.2550  177.8090  140.5240 C   0  0  0  0  0  3  0  0  0  0  0  0
  188.3650  178.5910  147.8250 C   0  0  0  0  0  2  0  0  0  0  0  0
  187.9740  178.1610  146.4370 C   0  0  0  0  0  0  0  0  0  0  0  0
  190.1410  177.1550  145.8890 N   0  0  0  0  0  0  0  0  0  0  0  0
  186.9180  177.3170  142.3140 C   0  0  0  0  0  0  0  0  0  0  0  0
  187.8020  177.1580  141.4290 O   0  0  0  0  0  0  0  0  0  0  0  0
  192.8110  175.9600  145.7940 C   0  0  0  0  0  1  0  0  0  0  0  0
  188.5610  177.2300  144.2760 C   0  0  0  0  0  0  0  0  0  0  0  0
  190.6150  176.5680  144.7990 N   0  0  0  0  0  0  0  0  0  0  0  0
  181.6540  178.7510  140.5330 C   0  0  0  0  0  2  0  0  0  0  0  0
  179.4770  178.5100  141.8150 C   0  0  0  0  0  0  0  0  0  0  0  0
  180.7640  179.1070  141.6300 N   0  0  0  0  0  2  0  0  0  0  0  0
  178.6380  178.9640  142.8710 N   0  0  0  0  0  1  0  0  0  0  0  0
  179.0870  177.5750  141.0660 O   0  0  0  0  0  0  0  0  0  0  0  0
  1 10  1  0  0  0  0
  2 26  1  0  0  0  0
  2 12  2  0  0  0  0
  3  4  1  0  0  0  0
  5 26  2  0  0  0  0
  5 27  1  0  0  0  0
  6  5  1  0  0  0  0
  7 19  1  6  0  0  0
  7 23  1  0  0  0  0
  7 17  1  0  0  0  0
  8 12  1  0  0  0  0
  9 27  1  0  0  0  0
  9 25  1  0  0  0  0
 10 17  1  0  0  0  0
 11  3  2  0  0  0  0
 12 13  1  0  0  0  0
 13 21  2  0  0  0  0
 13 11  1  0  0  0  0
 14 22  2  0  0  0  0
 14 21  1  0  0  0  0
 15  9  2  0  0  0  0
 16 19  2  0  0  0  0
 16  1  1  0  0  0  0
 17  8  2  0  0  0  0
 18  6  2  0  0  0  0
 18 15  1  0  0  0  0
 20  4  1  0  0  0  0
 21 20  1  0  0  0  0
 23  2  1  0  0  0  0
 24 23  2  0  0  0  0
 26 14  1  0  0  0  0
 27 22  1  0  0  0  0
 28  1  1  0  0  0  0
 28 30  1  0  0  0  0
 29 31  1  0  0  0  0
 30 29  1  0  0  0  0
 32 29  2  0  0  0  0
M  END
>  <MODEL>
7

>  <REMARK>
 VINA RESULT:      -7.8      2.774      8.662
  Name = 
  2 active torsions:
  status: ('A' for Active; 'I' for Inactive)
    1  A    between atoms: N_2  and  C_24
    2  A    between atoms: N_10  and  C_24
                            x       y       z     vdW  Elec       q    Type
                         _______ _______ _______ _____ _____    ______ ____

>  <TORSDO>
F 2

$$$$
=
 OpenBabel11052421303D

 32 37  0  0  1  0  0  0  0  0999 V2000
  187.0160  177.7990  142.9400 N   0  0  0  0  0  0  0  0  0  0  0  0
  190.7660  174.2680  143.3100 C   0  0  0  0  0  0  0  0  0  0  0  0
  194.0600  176.7210  146.0040 C   0  0  0  0  0  3  0  0  0  0  0  0
  194.8140  175.4420  146.2410 C   0  0  0  0  0  2  0  0  0  0  0  0
  191.6040  171.8740  142.8070 C   0  0  0  0  0  0  0  0  0  0  0  0
  190.5580  171.1680  142.2160 C   0  0  0  0  0  3  0  0  0  0  0  0
  188.4110  175.3070  143.0360 C   0  0  1  0  0  3  0  0  0  0  0  0
  190.2520  176.5790  144.1350 C   0  0  0  0  0  3  0  0  0  0  0  0
  193.0250  169.9640  142.7860 C   0  0  0  0  0  0  0  0  0  0  0  0
  188.1050  177.7190  143.9210 C   0  0  0  0  0  2  0  0  0  0  0  0
  192.9450  176.7340  145.2690 C   0  0  0  0  0  3  0  0  0  0  0  0
  191.1820  175.4360  144.0060 C   0  0  0  0  0  0  0  0  0  0  0  0
  192.4790  175.5090  144.5800 C   0  0  0  0  0  0  0  0  0  0  0  0
  192.9260  173.2620  143.8360 C   0  0  0  0  0  0  0  0  0  0  0  0
  192.0090  169.2130  142.1810 C   0  0  0  0  0  3  0  0  0  0  0  0
  186.8640  176.8460  141.8740 C   0  0  0  0  0  3  0  0  0  0  0  0
  189.0030  176.5450  143.6680 C   0  0  0  0  0  0  0  0  0  0  0  0
  190.7760  169.8210  141.8980 C   0  0  0  0  0  3  0  0  0  0  0  0
  187.5310  175.6930  141.8800 C   0  0  0  0  0  3  0  0  0  0  0  0
  194.7700  174.5260  145.0130 C   0  0  0  0  0  2  0  0  0  0  0  0
  193.3650  174.4110  144.4880 C   0  0  0  0  0  0  0  0  0  0  0  0
  193.6010  172.1000  143.7060 N   0  0  0  0  0  0  0  0  0  0  0  0
  189.4460  174.2850  142.6310 C   0  0  0  0  0  0  0  0  0  0  0  0
  189.1790  173.4600  141.7150 O   0  0  0  0  0  0  0  0  0  0  0  0
  194.3330  169.3290  143.1120 C   0  0  0  0  0  1  0  0  0  0  0  0
  191.6640  173.1800  143.2760 C   0  0  0  0  0  0  0  0  0  0  0  0
  192.7790  171.2690  143.0800 N   0  0  0  0  0  0  0  0  0  0  0  0
  186.1470  178.9680  142.9810 C   0  0  0  0  0  2  0  0  0  0  0  0
  184.9010  179.0180  145.1920 C   0  0  0  0  0  0  0  0  0  0  0  0
  184.9720  178.6990  143.7990 N   0  0  0  0  0  2  0  0  0  0  0  0
  183.7440  178.6570  145.9370 N   0  0  0  0  0  1  0  0  0  0  0  0
  185.8430  179.6310  145.7610 O   0  0  0  0  0  0  0  0  0  0  0  0
  1 28  1  0  0  0  0
  1 10  1  0  0  0  0
  2 12  2  0  0  0  0
  3  4  1  0  0  0  0
  5 27  1  0  0  0  0
  5 26  2  0  0  0  0
  6  5  1  0  0  0  0
  7 19  1  6  0  0  0
  7 17  1  0  0  0  0
  9 27  1  0  0  0  0
  9 25  1  0  0  0  0
 11  3  2  0  0  0  0
 12  8  1  0  0  0  0
 12 13  1  0  0  0  0
 13 11  1  0  0  0  0
 14 21  1  0  0  0  0
 15  9  2  0  0  0  0
 16 19  2  0  0  0  0
 16  1  1  0  0  0  0
 17 10  1  0  0  0  0
 17  8  2  0  0  0  0
 18 15  1  0  0  0  0
 18  6  2  0  0  0  0
 20  4  1  0  0  0  0
 21 13  2  0  0  0  0
 21 20  1  0  0  0  0
 22 14  2  0  0  0  0
 23  7  1  0  0  0  0
 23  2  1  0  0  0  0
 24 23  2  0  0  0  0
 26  2  1  0  0  0  0
 26 14  1  0  0  0  0
 27 22  1  0  0  0  0
 28 30  1  0  0  0  0
 29 32  2  0  0  0  0
 29 31  1  0  0  0  0
 30 29  1  0  0  0  0
M  END
>  <MODEL>
8

>  <REMARK>
 VINA RESULT:      -7.7      3.182      8.515
  Name = 
  2 active torsions:
  status: ('A' for Active; 'I' for Inactive)
    1  A    between atoms: N_2  and  C_24
    2  A    between atoms: N_10  and  C_24
                            x       y       z     vdW  Elec       q    Type
                         _______ _______ _______ _____ _____    ______ ____

>  <TORSDO>
F 2

$$$$
=
 OpenBabel11052421303D

 32 37  0  0  1  0  0  0  0  0999 V2000
  186.3490  178.3330  143.6090 N   0  0  0  0  0  0  0  0  0  0  0  0
  189.6620  174.6320  142.1980 C   0  0  0  0  0  0  0  0  0  0  0  0
  192.8630  174.8130  145.9200 C   0  0  0  0  0  3  0  0  0  0  0  0
  193.4540  173.5060  145.4700 C   0  0  0  0  0  2  0  0  0  0  0  0
  190.3090  172.7630  140.5330 C   0  0  0  0  0  0  0  0  0  0  0  0
  189.2700  172.6280  139.6130 C   0  0  0  0  0  3  0  0  0  0  0  0
  187.4690  175.9880  142.4210 C   0  0  1  0  0  3  0  0  0  0  0  0
  189.2930  176.2180  144.1040 C   0  0  0  0  0  3  0  0  0  0  0  0
  191.5250  170.9630  139.5580 C   0  0  0  0  0  0  0  0  0  0  0  0
  187.3080  177.5970  144.4410 C   0  0  0  0  0  2  0  0  0  0  0  0
  191.8440  175.3690  145.2590 C   0  0  0  0  0  3  0  0  0  0  0  0
  190.1120  175.1900  143.4250 C   0  0  0  0  0  0  0  0  0  0  0  0
  191.3380  174.7660  144.0040 C   0  0  0  0  0  0  0  0  0  0  0  0
  191.6390  173.2010  142.1980 C   0  0  0  0  0  0  0  0  0  0  0  0
  190.5130  170.7940  138.6040 C   0  0  0  0  0  3  0  0  0  0  0  0
  186.2220  178.1110  142.1940 C   0  0  0  0  0  3  0  0  0  0  0  0
  188.1070  176.6130  143.6400 C   0  0  0  0  0  0  0  0  0  0  0  0
  189.3860  171.6310  138.6360 C   0  0  0  0  0  3  0  0  0  0  0  0
  186.7660  177.0420  141.6120 C   0  0  0  0  0  3  0  0  0  0  0  0
  193.4570  173.3830  143.9430 C   0  0  0  0  0  2  0  0  0  0  0  0
  192.1150  173.7630  143.3790 C   0  0  0  0  0  0  0  0  0  0  0  0
  192.2050  172.1950  141.4970 N   0  0  0  0  0  0  0  0  0  0  0  0
  188.4350  175.1910  141.5780 C   0  0  0  0  0  0  0  0  0  0  0  0
  188.1910  175.0150  140.3530 O   0  0  0  0  0  0  0  0  0  0  0  0
  192.7190  170.0710  139.5500 C   0  0  0  0  0  1  0  0  0  0  0  0
  190.4450  173.6060  141.6280 C   0  0  0  0  0  0  0  0  0  0  0  0
  191.3790  171.9420  140.4910 N   0  0  0  0  0  0  0  0  0  0  0  0
  185.6010  179.4200  144.2290 C   0  0  0  0  0  2  0  0  0  0  0  0
  184.9730  178.6750  146.5730 C   0  0  0  0  0  0  0  0  0  0  0  0
  185.8020  179.4150  145.6720 N   0  0  0  0  0  2  0  0  0  0  0  0
  185.1900  178.7810  147.9750 N   0  0  0  0  0  1  0  0  0  0  0  0
  184.0660  177.9160  146.1380 O   0  0  0  0  0  0  0  0  0  0  0  0
  1 28  1  0  0  0  0
  1 10  1  0  0  0  0
  2 12  2  0  0  0  0
  4  3  1  0  0  0  0
  5 26  2  0  0  0  0
  6  5  1  0  0  0  0
  7 19  1  6  0  0  0
  7 17  1  0  0  0  0
  9 27  1  0  0  0  0
 11  3  2  0  0  0  0
 12 13  1  0  0  0  0
 12  8  1  0  0  0  0
 13 11  1  0  0  0  0
 14 21  1  0  0  0  0
 15 18  1  0  0  0  0
 15  9  2  0  0  0  0
 16  1  1  0  0  0  0
 17  8  2  0  0  0  0
 17 10  1  0  0  0  0
 18  6  2  0  0  0  0
 19 16  2  0  0  0  0
 20  4  1  0  0  0  0
 21 20  1  0  0  0  0
 21 13  2  0  0  0  0
 22 14  2  0  0  0  0
 23  2  1  0  0  0  0
 23  7  1  0  0  0  0
 24 23  2  0  0  0  0
 25  9  1  0  0  0  0
 26  2  1  0  0  0  0
 26 14  1  0  0  0  0
 27  5  1  0  0  0  0
 27 22  1  0  0  0  0
 28 30  1  0  0  0  0
 29 31  1  0  0  0  0
 30 29  1  0  0  0  0
 32 29  2  0  0  0  0
M  END
>  <MODEL>
9

>  <REMARK>
 VINA RESULT:      -7.5      3.705      7.899
  Name = 
  2 active torsions:
  status: ('A' for Active; 'I' for Inactive)
    1  A    between atoms: N_2  and  C_24
    2  A    between atoms: N_10  and  C_24
                            x       y       z     vdW  Elec       q    Type
                         _______ _______ _______ _____ _____    ______ ____

>  <TORSDO>
F 2

$$$$
