=
 OpenBabel11052417343D

 25 28  0  0  1  0  0  0  0  0999 V2000
  187.5180  176.7150  145.2150 C   0  0  0  0  0  0  0  0  0  0  0  0
  188.2520  176.0050  144.2690 C   0  0  0  0  0  0  0  0  0  0  0  0
  189.1130  176.2590  146.9100 N   0  0  0  0  0  0  0  0  0  0  0  0
  186.3370  177.4130  145.1650 C   0  0  0  0  0  0  0  0  0  0  0  0
  188.5230  174.8270  142.0640 C   0  0  2  0  0  3  0  0  0  0  0  0
  184.0890  178.9270  145.7180 C   0  0  0  0  0  3  0  0  0  0  0  0
  189.8480  175.5730  146.0250 N   0  0  0  0  0  0  0  0  0  0  0  0
  186.1340  177.9030  146.4410 C   0  0  0  0  0  0  0  0  0  0  0  0
  185.0110  178.6690  146.7480 C   0  0  0  0  0  3  0  0  0  0  0  0
  187.8280  175.9530  142.8270 C   0  0  0  0  0  2  0  0  0  0  0  0
  184.3030  178.4230  144.4160 C   0  0  0  0  0  3  0  0  0  0  0  0
  187.9530  176.8280  146.5110 C   0  0  0  0  0  0  0  0  0  0  0  0
  187.1240  177.5540  147.2940 N   0  0  0  0  0  2  0  0  0  0  0  0
  190.3220  174.5940  143.7970 C   0  0  1  0  0  3  0  0  0  0  0  0
  185.4410  177.6530  144.1250 C   0  0  0  0  0  3  0  0  0  0  0  0
  190.0270  174.8690  142.3210 C   0  0  0  0  0  2  0  0  0  0  0  0
  189.4710  175.4330  144.7140 C   0  0  0  0  0  0  0  0  0  0  0  0
  188.4450  173.8300  138.3220 C   0  0  0  0  0  0  0  0  0  0  0  0
  188.9180  172.7150  137.5770 N   0  0  0  0  0  1  0  0  0  0  0  0
  187.8500  174.7660  137.7270 O   0  0  0  0  0  0  0  0  0  0  0  0
  188.2330  174.9290  140.6050 C   0  0  0  0  0  0  0  0  0  0  0  0
  188.6550  173.8710  139.7380 N   0  0  0  0  0  2  0  0  0  0  0  0
  187.6230  175.9350  140.1500 O   0  0  0  0  0  0  0  0  0  0  0  0
  190.1240  173.2400  144.0770 O   0  0  0  0  0  0  0  0  0  0  0  0
  191.4020  172.7320  144.3180 C   0  0  0  0  0  1  0  0  0  0  0  0
  1 12  1  0  0  0  0
  2 17  1  0  0  0  0
  2  1  2  0  0  0  0
  4  1  1  0  0  0  0
  4  8  1  0  0  0  0
  5 21  1  6  0  0  0
  5 16  1  0  0  0  0
  5 10  1  0  0  0  0
  6  9  1  0  0  0  0
  7  3  1  0  0  0  0
  8  9  2  0  0  0  0
  8 13  1  0  0  0  0
 10  2  1  0  0  0  0
 11  6  2  0  0  0  0
 12  3  2  0  0  0  0
 12 13  1  0  0  0  0
 14 24  1  1  0  0  0
 14 17  1  0  0  0  0
 15 11  1  0  0  0  0
 15  4  2  0  0  0  0
 16 14  1  0  0  0  0
 17  7  2  0  0  0  0
 18 22  1  0  0  0  0
 19 18  1  0  0  0  0
 20 18  2  0  0  0  0
 22 21  1  0  0  0  0
 23 21  2  0  0  0  0
 24 25  1  0  0  0  0
M  END
>  <MODEL>
1

>  <REMARK>
 VINA RESULT:      -7.6      0.000      0.000
  Name = 
  2 active torsions:
  status: ('A' for Active; 'I' for Inactive)
    1  A    between atoms: C_6  and  C_15
    2  A    between atoms: O_13  and  C_20
                            x       y       z     vdW  Elec       q    Type
                         _______ _______ _______ _____ _____    ______ ____

>  <TORSDO>
F 2

$$$$
=
 OpenBabel11052417343D

 25 28  0  0  1  0  0  0  0  0999 V2000
  186.6430  177.6560  144.1900 C   0  0  0  0  0  0  0  0  0  0  0  0
  187.9170  177.3690  144.6710 C   0  0  0  0  0  0  0  0  0  0  0  0
  185.7560  177.7770  146.3860 N   0  0  0  0  0  0  0  0  0  0  0  0
  186.1220  177.8170  142.9300 C   0  0  0  0  0  0  0  0  0  0  0  0
  190.2790  176.5500  144.4090 C   0  0  2  0  0  3  0  0  0  0  0  0
  184.4990  178.2480  140.7310 C   0  0  0  0  0  3  0  0  0  0  0  0
  186.9700  177.5090  146.8840 N   0  0  0  0  0  0  0  0  0  0  0  0
  184.7810  178.0970  143.1080 C   0  0  0  0  0  0  0  0  0  0  0  0
  183.9400  178.3190  142.0200 C   0  0  0  0  0  3  0  0  0  0  0  0
  189.0940  177.2440  143.7420 C   0  0  0  0  0  2  0  0  0  0  0  0
  185.8710  177.9600  140.5560 C   0  0  0  0  0  3  0  0  0  0  0  0
  185.5890  177.8510  145.0470 C   0  0  0  0  0  0  0  0  0  0  0  0
  184.4260  178.1250  144.4140 N   0  0  0  0  0  2  0  0  0  0  0  0
  189.3810  176.9540  146.7160 C   0  0  1  0  0  3  0  0  0  0  0  0
  186.7040  177.7400  141.6660 C   0  0  0  0  0  3  0  0  0  0  0  0
  190.5620  177.1810  145.7690 C   0  0  0  0  0  2  0  0  0  0  0  0
  188.0630  177.3140  146.0800 C   0  0  0  0  0  0  0  0  0  0  0  0
  193.6820  175.5300  142.8630 C   0  0  0  0  0  0  0  0  0  0  0  0
  194.5870  174.4530  143.0670 N   0  0  0  0  0  1  0  0  0  0  0  0
  193.9510  176.4130  142.0060 O   0  0  0  0  0  0  0  0  0  0  0  0
  191.4850  176.6200  143.5330 C   0  0  0  0  0  0  0  0  0  0  0  0
  192.4790  175.5950  143.6370 N   0  0  0  0  0  2  0  0  0  0  0  0
  191.6180  177.5720  142.7160 O   0  0  0  0  0  0  0  0  0  0  0  0
  189.3560  175.6220  147.1330 O   0  0  0  0  0  0  0  0  0  0  0  0
  190.6200  175.3920  147.6810 C   0  0  0  0  0  1  0  0  0  0  0  0
  1  2  2  0  0  0  0
  1 12  1  0  0  0  0
  2 17  1  0  0  0  0
  3  7  1  0  0  0  0
  4  8  1  0  0  0  0
  4  1  1  0  0  0  0
  5 21  1  6  0  0  0
  5 16  1  0  0  0  0
  6  9  1  0  0  0  0
  8 13  1  0  0  0  0
  9  8  2  0  0  0  0
 10  5  1  0  0  0  0
 10  2  1  0  0  0  0
 11  6  2  0  0  0  0
 11 15  1  0  0  0  0
 12  3  2  0  0  0  0
 13 12  1  0  0  0  0
 14 24  1  6  0  0  0
 15  4  2  0  0  0  0
 16 14  1  0  0  0  0
 17 14  1  0  0  0  0
 17  7  2  0  0  0  0
 18 19  1  0  0  0  0
 18 22  1  0  0  0  0
 20 18  2  0  0  0  0
 21 22  1  0  0  0  0
 23 21  2  0  0  0  0
 24 25  1  0  0  0  0
M  END
>  <MODEL>
2

>  <REMARK>
 VINA RESULT:      -7.5      3.438      4.442
  Name = 
  2 active torsions:
  status: ('A' for Active; 'I' for Inactive)
    1  A    between atoms: C_6  and  C_15
    2  A    between atoms: O_13  and  C_20
                            x       y       z     vdW  Elec       q    Type
                         _______ _______ _______ _____ _____    ______ ____

>  <TORSDO>
F 2

$$$$
=
 OpenBabel11052417343D

 25 28  0  0  1  0  0  0  0  0999 V2000
  189.3950  176.9320  145.4810 C   0  0  0  0  0  0  0  0  0  0  0  0
  188.3440  177.0160  144.5730 C   0  0  0  0  0  0  0  0  0  0  0  0
  188.0280  177.7140  147.2540 N   0  0  0  0  0  0  0  0  0  0  0  0
  190.7050  176.5350  145.3770 C   0  0  0  0  0  0  0  0  0  0  0  0
  187.3920  177.0850  142.2470 C   0  0  2  0  0  3  0  0  0  0  0  0
  193.3570  175.8870  145.8240 C   0  0  0  0  0  3  0  0  0  0  0  0
  186.9930  177.8020  146.4090 N   0  0  0  0  0  0  0  0  0  0  0  0
  191.2440  176.6750  146.6410 C   0  0  0  0  0  0  0  0  0  0  0  0
  192.5760  176.3560  146.8960 C   0  0  0  0  0  3  0  0  0  0  0  0
  188.4990  176.5490  143.1510 C   0  0  0  0  0  2  0  0  0  0  0  0
  192.8000  175.7470  144.5340 C   0  0  0  0  0  3  0  0  0  0  0  0
  189.2250  177.2830  146.7960 C   0  0  0  0  0  0  0  0  0  0  0  0
  190.3440  177.1360  147.5400 N   0  0  0  0  0  2  0  0  0  0  0  0
  185.9040  177.6440  144.1870 C   0  0  1  0  0  3  0  0  0  0  0  0
  191.4540  176.0740  144.2960 C   0  0  0  0  0  3  0  0  0  0  0  0
  186.0280  176.8460  142.8870 C   0  0  0  0  0  2  0  0  0  0  0  0
  187.0980  177.4570  145.0860 C   0  0  0  0  0  0  0  0  0  0  0  0
  188.3320  174.4920  139.5270 C   0  0  0  0  0  0  0  0  0  0  0  0
  189.0740  173.2800  139.5190 N   0  0  0  0  0  1  0  0  0  0  0  0
  187.8170  174.9110  138.4560 O   0  0  0  0  0  0  0  0  0  0  0  0
  187.4630  176.4470  140.9010 C   0  0  0  0  0  0  0  0  0  0  0  0
  188.1820  175.2180  140.7520 N   0  0  0  0  0  2  0  0  0  0  0  0
  186.8930  176.9880  139.9130 O   0  0  0  0  0  0  0  0  0  0  0  0
  185.7370  179.0000  143.8990 O   0  0  0  0  0  0  0  0  0  0  0  0
  184.4230  179.2890  144.2710 C   0  0  0  0  0  1  0  0  0  0  0  0
  1 12  1  0  0  0  0
  2 17  1  0  0  0  0
  2  1  2  0  0  0  0
  4  1  1  0  0  0  0
  4  8  1  0  0  0  0
  5 21  1  6  0  0  0
  5 16  1  0  0  0  0
  5 10  1  0  0  0  0
  6  9  1  0  0  0  0
  7  3  1  0  0  0  0
  8  9  2  0  0  0  0
  8 13  1  0  0  0  0
 10  2  1  0  0  0  0
 11  6  2  0  0  0  0
 12  3  2  0  0  0  0
 12 13  1  0  0  0  0
 14 24  1  6  0  0  0
 14 17  1  0  0  0  0
 15 11  1  0  0  0  0
 15  4  2  0  0  0  0
 16 14  1  0  0  0  0
 17  7  2  0  0  0  0
 18 22  1  0  0  0  0
 19 18  1  0  0  0  0
 20 18  2  0  0  0  0
 22 21  1  0  0  0  0
 23 21  2  0  0  0  0
 24 25  1  0  0  0  0
M  END
>  <MODEL>
3

>  <REMARK>
 VINA RESULT:      -7.4      2.078      4.826
  Name = 
  2 active torsions:
  status: ('A' for Active; 'I' for Inactive)
    1  A    between atoms: C_6  and  C_15
    2  A    between atoms: O_13  and  C_20
                            x       y       z     vdW  Elec       q    Type
                         _______ _______ _______ _____ _____    ______ ____

>  <TORSDO>
F 2

$$$$
=
 OpenBabel11052417343D

 25 28  0  0  1  0  0  0  0  0999 V2000
  189.7030  175.5560  145.0450 C   0  0  0  0  0  0  0  0  0  0  0  0
  188.4540  176.1700  145.0100 C   0  0  0  0  0  0  0  0  0  0  0  0
  189.4740  175.0440  147.3490 N   0  0  0  0  0  0  0  0  0  0  0  0
  190.6720  175.3310  144.0990 C   0  0  0  0  0  0  0  0  0  0  0  0
  186.7150  177.6550  143.9660 C   0  0  2  0  0  3  0  0  0  0  0  0
  192.9460  174.5880  142.7100 C   0  0  0  0  0  3  0  0  0  0  0  0
  188.2660  175.6210  147.3510 N   0  0  0  0  0  0  0  0  0  0  0  0
  191.6900  174.6620  144.7520 C   0  0  0  0  0  0  0  0  0  0  0  0
  192.8460  174.2760  144.0780 C   0  0  0  0  0  3  0  0  0  0  0  0
  187.8730  176.6900  143.7240 C   0  0  0  0  0  2  0  0  0  0  0  0
  191.9020  175.2720  142.0490 C   0  0  0  0  0  3  0  0  0  0  0  0
  190.1930  175.0100  146.2040 C   0  0  0  0  0  0  0  0  0  0  0  0
  191.4150  174.4500  146.0600 N   0  0  0  0  0  2  0  0  0  0  0  0
  186.3810  176.8610  146.3230 C   0  0  1  0  0  3  0  0  0  0  0  0
  190.7430  175.6540  142.7450 C   0  0  0  0  0  3  0  0  0  0  0  0
  185.7220  177.0470  144.9540 C   0  0  0  0  0  2  0  0  0  0  0  0
  187.7190  176.1760  146.2220 C   0  0  0  0  0  0  0  0  0  0  0  0
  183.8280  178.2310  141.4480 C   0  0  0  0  0  0  0  0  0  0  0  0
  182.4120  178.1310  141.5150 N   0  0  0  0  0  1  0  0  0  0  0  0
  184.3750  178.5800  140.3690 O   0  0  0  0  0  0  0  0  0  0  0  0
  186.0390  177.9930  142.6800 C   0  0  0  0  0  0  0  0  0  0  0  0
  184.6110  177.9330  142.6100 N   0  0  0  0  0  2  0  0  0  0  0  0
  186.7240  178.3280  141.6750 O   0  0  0  0  0  0  0  0  0  0  0  0
  186.5310  178.1000  146.9500 O   0  0  0  0  0  0  0  0  0  0  0  0
  185.2390  178.4710  147.3290 C   0  0  0  0  0  1  0  0  0  0  0  0
  1 12  1  0  0  0  0
  2  1  2  0  0  0  0
  2 17  1  0  0  0  0
  3  7  1  0  0  0  0
  4  8  1  0  0  0  0
  4  1  1  0  0  0  0
  5 21  1  6  0  0  0
  5 16  1  0  0  0  0
  6  9  1  0  0  0  0
  8 13  1  0  0  0  0
  9  8  2  0  0  0  0
 10  5  1  0  0  0  0
 10  2  1  0  0  0  0
 11  6  2  0  0  0  0
 11 15  1  0  0  0  0
 12  3  2  0  0  0  0
 13 12  1  0  0  0  0
 14 24  1  6  0  0  0
 15  4  2  0  0  0  0
 16 14  1  0  0  0  0
 17 14  1  0  0  0  0
 17  7  2  0  0  0  0
 18 19  1  0  0  0  0
 18 22  1  0  0  0  0
 20 18  2  0  0  0  0
 22 21  1  0  0  0  0
 23 21  2  0  0  0  0
 24 25  1  0  0  0  0
M  END
>  <MODEL>
4

>  <REMARK>
 VINA RESULT:      -7.3      3.282      5.881
  Name = 
  2 active torsions:
  status: ('A' for Active; 'I' for Inactive)
    1  A    between atoms: C_6  and  C_15
    2  A    between atoms: O_13  and  C_20
                            x       y       z     vdW  Elec       q    Type
                         _______ _______ _______ _____ _____    ______ ____

>  <TORSDO>
F 2

$$$$
=
 OpenBabel11052417343D

 25 28  0  0  1  0  0  0  0  0999 V2000
  187.3820  177.5830  144.2040 C   0  0  0  0  0  0  0  0  0  0  0  0
  188.6380  177.2030  144.6670 C   0  0  0  0  0  0  0  0  0  0  0  0
  186.6010  177.9780  146.4080 N   0  0  0  0  0  0  0  0  0  0  0  0
  186.8300  177.6940  142.9510 C   0  0  0  0  0  0  0  0  0  0  0  0
  190.8900  176.1180  144.4020 C   0  0  2  0  0  3  0  0  0  0  0  0
  185.1730  178.1130  140.7750 C   0  0  0  0  0  3  0  0  0  0  0  0
  187.8000  177.6250  146.8890 N   0  0  0  0  0  0  0  0  0  0  0  0
  185.5330  178.1290  143.1470 C   0  0  0  0  0  0  0  0  0  0  0  0
  184.6760  178.3490  142.0700 C   0  0  0  0  0  3  0  0  0  0  0  0
  189.7570  176.8770  143.7160 C   0  0  0  0  0  2  0  0  0  0  0  0
  186.4990  177.6670  140.5830 C   0  0  0  0  0  3  0  0  0  0  0  0
  186.3890  177.9590  145.0730 C   0  0  0  0  0  0  0  0  0  0  0  0
  185.2360  178.3020  144.4560 N   0  0  0  0  0  2  0  0  0  0  0  0
  190.1320  176.8050  146.6930 C   0  0  1  0  0  3  0  0  0  0  0  0
  187.3490  177.4520  141.6810 C   0  0  0  0  0  3  0  0  0  0  0  0
  191.2910  176.8260  145.6940 C   0  0  0  0  0  2  0  0  0  0  0  0
  188.8340  177.2490  146.0700 C   0  0  0  0  0  0  0  0  0  0  0  0
  192.9720  174.9550  141.3500 C   0  0  0  0  0  0  0  0  0  0  0  0
  192.7180  174.1180  140.2300 N   0  0  0  0  0  1  0  0  0  0  0  0
  194.1040  175.4950  141.4770 O   0  0  0  0  0  0  0  0  0  0  0  0
  192.0600  175.9880  143.4870 C   0  0  0  0  0  0  0  0  0  0  0  0
  191.9390  175.1720  142.3170 N   0  0  0  0  0  2  0  0  0  0  0  0
  193.1370  176.5920  143.7460 O   0  0  0  0  0  0  0  0  0  0  0  0
  189.9860  175.5210  147.2240 O   0  0  0  0  0  0  0  0  0  0  0  0
  191.1260  175.3240  148.0060 C   0  0  0  0  0  1  0  0  0  0  0  0
  1  2  2  0  0  0  0
  1 12  1  0  0  0  0
  2 17  1  0  0  0  0
  3  7  1  0  0  0  0
  4  8  1  0  0  0  0
  4  1  1  0  0  0  0
  5 21  1  6  0  0  0
  5 16  1  0  0  0  0
  6  9  1  0  0  0  0
  8 13  1  0  0  0  0
  9  8  2  0  0  0  0
 10  5  1  0  0  0  0
 10  2  1  0  0  0  0
 11  6  2  0  0  0  0
 11 15  1  0  0  0  0
 12  3  2  0  0  0  0
 13 12  1  0  0  0  0
 14 24  1  6  0  0  0
 15  4  2  0  0  0  0
 16 14  1  0  0  0  0
 17 14  1  0  0  0  0
 17  7  2  0  0  0  0
 18 20  2  0  0  0  0
 18 22  1  0  0  0  0
 19 18  1  0  0  0  0
 21 23  2  0  0  0  0
 22 21  1  0  0  0  0
 24 25  1  0  0  0  0
M  END
>  <MODEL>
5

>  <REMARK>
 VINA RESULT:      -7.1      3.206      4.094
  Name = 
  2 active torsions:
  status: ('A' for Active; 'I' for Inactive)
    1  A    between atoms: C_6  and  C_15
    2  A    between atoms: O_13  and  C_20
                            x       y       z     vdW  Elec       q    Type
                         _______ _______ _______ _____ _____    ______ ____

>  <TORSDO>
F 2

$$$$
=
 OpenBabel11052417343D

 25 28  0  0  1  0  0  0  0  0999 V2000
  190.4620  175.7480  144.6430 C   0  0  0  0  0  0  0  0  0  0  0  0
  189.4230  175.7420  143.7170 C   0  0  0  0  0  0  0  0  0  0  0  0
  191.8250  174.4070  143.2400 N   0  0  0  0  0  0  0  0  0  0  0  0
  190.6220  176.3220  145.8800 C   0  0  0  0  0  0  0  0  0  0  0  0
  187.0300  176.0930  143.0300 C   0  0  2  0  0  3  0  0  0  0  0  0
  191.5510  177.1840  148.3400 C   0  0  0  0  0  3  0  0  0  0  0  0
  190.8490  174.3870  142.3230 N   0  0  0  0  0  0  0  0  0  0  0  0
  191.8880  175.9640  146.3020 C   0  0  0  0  0  0  0  0  0  0  0  0
  192.3830  176.3830  147.5350 C   0  0  0  0  0  3  0  0  0  0  0  0
  188.1690  176.5420  143.9420 C   0  0  0  0  0  2  0  0  0  0  0  0
  190.2580  177.5450  147.9020 C   0  0  0  0  0  3  0  0  0  0  0  0
  191.6360  175.0830  144.3960 C   0  0  0  0  0  0  0  0  0  0  0  0
  192.5380  175.1950  145.3970 N   0  0  0  0  0  2  0  0  0  0  0  0
  188.5880  174.9140  141.4560 C   0  0  1  0  0  3  0  0  0  0  0  0
  189.7770  177.1140  146.6550 C   0  0  0  0  0  3  0  0  0  0  0  0
  187.5170  176.0000  141.5870 C   0  0  0  0  0  2  0  0  0  0  0  0
  189.6580  175.0390  142.5090 C   0  0  0  0  0  0  0  0  0  0  0  0
  184.4460  178.4610  144.6790 C   0  0  0  0  0  0  0  0  0  0  0  0
  184.2070  178.9060  146.0080 N   0  0  0  0  0  1  0  0  0  0  0  0
  183.7060  178.8690  143.7460 O   0  0  0  0  0  0  0  0  0  0  0  0
  185.8740  177.0290  143.1390 C   0  0  0  0  0  0  0  0  0  0  0  0
  185.5240  177.5540  144.4230 N   0  0  0  0  0  2  0  0  0  0  0  0
  185.2210  177.3500  142.1080 O   0  0  0  0  0  0  0  0  0  0  0  0
  187.9950  173.6520  141.5320 O   0  0  0  0  0  0  0  0  0  0  0  0
  188.1940  173.0840  140.2720 C   0  0  0  0  0  1  0  0  0  0  0  0
  1  4  1  0  0  0  0
  2 10  1  0  0  0  0
  2  1  2  0  0  0  0
  3 12  2  0  0  0  0
  4  8  2  0  0  0  0
  4 15  1  0  0  0  0
  5 21  1  6  0  0  0
  5 10  1  0  0  0  0
  7 17  2  0  0  0  0
  7  3  1  0  0  0  0
  8  9  1  0  0  0  0
  9  6  2  0  0  0  0
 11  6  1  0  0  0  0
 12  1  1  0  0  0  0
 12 13  1  0  0  0  0
 13  8  1  0  0  0  0
 14 24  1  1  0  0  0
 14 16  1  0  0  0  0
 14 17  1  0  0  0  0
 15 11  2  0  0  0  0
 16  5  1  0  0  0  0
 17  2  1  0  0  0  0
 18 19  1  0  0  0  0
 20 18  2  0  0  0  0
 21 22  1  0  0  0  0
 22 18  1  0  0  0  0
 23 21  2  0  0  0  0
 25 24  1  0  0  0  0
M  END
>  <MODEL>
6

>  <REMARK>
 VINA RESULT:      -6.9      2.692      5.612
  Name = 
  2 active torsions:
  status: ('A' for Active; 'I' for Inactive)
    1  A    between atoms: C_6  and  C_15
    2  A    between atoms: O_13  and  C_20
                            x       y       z     vdW  Elec       q    Type
                         _______ _______ _______ _____ _____    ______ ____

>  <TORSDO>
F 2

$$$$
=
 OpenBabel11052417343D

 25 28  0  0  1  0  0  0  0  0999 V2000
  190.9400  176.3540  145.4220 C   0  0  0  0  0  0  0  0  0  0  0  0
  189.7260  176.4140  144.7440 C   0  0  0  0  0  0  0  0  0  0  0  0
  189.9350  177.0700  147.4470 N   0  0  0  0  0  0  0  0  0  0  0  0
  192.2140  176.0020  145.0490 C   0  0  0  0  0  0  0  0  0  0  0  0
  188.3240  176.4790  142.6580 C   0  0  2  0  0  3  0  0  0  0  0  0
  194.9200  175.4370  144.9430 C   0  0  0  0  0  3  0  0  0  0  0  0
  188.7480  177.1320  146.8290 N   0  0  0  0  0  0  0  0  0  0  0  0
  192.9920  176.1450  146.1820 C   0  0  0  0  0  0  0  0  0  0  0  0
  194.3570  175.8670  146.1590 C   0  0  0  0  0  3  0  0  0  0  0  0
  189.6050  175.9680  143.3130 C   0  0  0  0  0  2  0  0  0  0  0  0
  194.1190  175.2950  143.7890 C   0  0  0  0  0  3  0  0  0  0  0  0
  191.0280  176.6830  146.7500 C   0  0  0  0  0  0  0  0  0  0  0  0
  192.2780  176.5660  147.2520 N   0  0  0  0  0  2  0  0  0  0  0  0
  187.2400  176.9640  144.8680 C   0  0  1  0  0  3  0  0  0  0  0  0
  192.7440  175.5790  143.8320 C   0  0  0  0  0  3  0  0  0  0  0  0
  187.1240  176.1870  143.5550 C   0  0  0  0  0  2  0  0  0  0  0  0
  188.5960  176.8070  145.5050 C   0  0  0  0  0  0  0  0  0  0  0  0
  188.6800  173.8890  139.8000 C   0  0  0  0  0  0  0  0  0  0  0  0
  189.3540  172.6460  139.6590 N   0  0  0  0  0  1  0  0  0  0  0  0
  188.0150  174.3480  138.8330 O   0  0  0  0  0  0  0  0  0  0  0  0
  188.1410  175.8590  141.3140 C   0  0  0  0  0  0  0  0  0  0  0  0
  188.7680  174.6020  141.0380 N   0  0  0  0  0  2  0  0  0  0  0  0
  187.4420  176.4400  140.4390 O   0  0  0  0  0  0  0  0  0  0  0  0
  186.9780  178.3180  144.6440 O   0  0  0  0  0  0  0  0  0  0  0  0
  185.8070  178.5810  145.3580 C   0  0  0  0  0  1  0  0  0  0  0  0
  1 12  1  0  0  0  0
  2  1  2  0  0  0  0
  2 17  1  0  0  0  0
  4  1  1  0  0  0  0
  4  8  1  0  0  0  0
  5 21  1  6  0  0  0
  5 10  1  0  0  0  0
  5 16  1  0  0  0  0
  6  9  1  0  0  0  0
  7  3  1  0  0  0  0
  8 13  1  0  0  0  0
  9  8  2  0  0  0  0
 10  2  1  0  0  0  0
 11 15  1  0  0  0  0
 11  6  2  0  0  0  0
 12 13  1  0  0  0  0
 12  3  2  0  0  0  0
 14 24  1  6  0  0  0
 14 17  1  0  0  0  0
 15  4  2  0  0  0  0
 16 14  1  0  0  0  0
 17  7  2  0  0  0  0
 18 22  1  0  0  0  0
 19 18  1  0  0  0  0
 20 18  2  0  0  0  0
 22 21  1  0  0  0  0
 23 21  2  0  0  0  0
 24 25  1  0  0  0  0
M  END
>  <MODEL>
7

>  <REMARK>
 VINA RESULT:      -6.7      2.462      5.241
  Name = 
  2 active torsions:
  status: ('A' for Active; 'I' for Inactive)
    1  A    between atoms: C_6  and  C_15
    2  A    between atoms: O_13  and  C_20
                            x       y       z     vdW  Elec       q    Type
                         _______ _______ _______ _____ _____    ______ ____

>  <TORSDO>
F 2

$$$$
=
 OpenBabel11052417343D

 25 28  0  0  1  0  0  0  0  0999 V2000
  187.0650  176.7950  141.9690 C   0  0  0  0  0  0  0  0  0  0  0  0
  187.1500  177.0510  143.3340 C   0  0  0  0  0  0  0  0  0  0  0  0
  185.5080  178.5570  141.6570 N   0  0  0  0  0  0  0  0  0  0  0  0
  187.6660  175.8820  141.1390 C   0  0  0  0  0  0  0  0  0  0  0  0
  187.7670  176.4420  145.6940 C   0  0  2  0  0  3  0  0  0  0  0  0
  188.5070  174.3500  138.9940 C   0  0  0  0  0  3  0  0  0  0  0  0
  185.5700  178.8350  142.9650 N   0  0  0  0  0  0  0  0  0  0  0  0
  187.1710  176.1370  139.8740 C   0  0  0  0  0  0  0  0  0  0  0  0
  187.5760  175.3820  138.7750 C   0  0  0  0  0  3  0  0  0  0  0  0
  188.1090  176.2950  144.2130 C   0  0  0  0  0  2  0  0  0  0  0  0
  189.0090  174.0940  140.2890 C   0  0  0  0  0  3  0  0  0  0  0  0
  186.2490  177.5420  141.1570 C   0  0  0  0  0  0  0  0  0  0  0  0
  186.2900  177.1640  139.8600 N   0  0  0  0  0  2  0  0  0  0  0  0
  186.3390  178.4650  145.2930 C   0  0  1  0  0  3  0  0  0  0  0  0
  188.5880  174.8660  141.3850 C   0  0  0  0  0  3  0  0  0  0  0  0
  187.5540  177.9120  146.0410 C   0  0  0  0  0  2  0  0  0  0  0  0
  186.3730  178.1300  143.8250 C   0  0  0  0  0  0  0  0  0  0  0  0
  191.3170  175.8570  147.1300 C   0  0  0  0  0  0  0  0  0  0  0  0
  192.5980  176.4190  146.8820 N   0  0  0  0  0  1  0  0  0  0  0  0
  191.1940  174.9530  147.9990 O   0  0  0  0  0  0  0  0  0  0  0  0
  188.8440  175.8500  146.5390 C   0  0  0  0  0  0  0  0  0  0  0  0
  190.1850  176.3270  146.3890 N   0  0  0  0  0  2  0  0  0  0  0  0
  188.5680  174.9430  147.3720 O   0  0  0  0  0  0  0  0  0  0  0  0
  185.1650  177.9690  145.8640 O   0  0  0  0  0  0  0  0  0  0  0  0
  185.0040  178.6950  147.0460 C   0  0  0  0  0  1  0  0  0  0  0  0
  1  2  2  0  0  0  0
  2 17  1  0  0  0  0
  2 10  1  0  0  0  0
  3  7  1  0  0  0  0
  4 15  1  0  0  0  0
  4  1  1  0  0  0  0
  5 16  1  0  0  0  0
  5 21  1  1  0  0  0
  6 11  1  0  0  0  0
  7 17  2  0  0  0  0
  8  4  2  0  0  0  0
  9  6  2  0  0  0  0
  9  8  1  0  0  0  0
 10  5  1  0  0  0  0
 11 15  2  0  0  0  0
 12  3  2  0  0  0  0
 12  1  1  0  0  0  0
 13  8  1  0  0  0  0
 13 12  1  0  0  0  0
 14 24  1  1  0  0  0
 14 16  1  0  0  0  0
 17 14  1  0  0  0  0
 18 20  2  0  0  0  0
 19 18  1  0  0  0  0
 21 23  2  0  0  0  0
 22 21  1  0  0  0  0
 22 18  1  0  0  0  0
 24 25  1  0  0  0  0
M  END
>  <MODEL>
8

>  <REMARK>
 VINA RESULT:      -6.7      3.181      6.928
  Name = 
  2 active torsions:
  status: ('A' for Active; 'I' for Inactive)
    1  A    between atoms: C_6  and  C_15
    2  A    between atoms: O_13  and  C_20
                            x       y       z     vdW  Elec       q    Type
                         _______ _______ _______ _____ _____    ______ ____

>  <TORSDO>
F 2

$$$$
=
 OpenBabel11052417343D

 25 28  0  0  1  0  0  0  0  0999 V2000
  186.0920  177.7880  144.4210 C   0  0  0  0  0  0  0  0  0  0  0  0
  186.8120  177.2030  143.3830 C   0  0  0  0  0  0  0  0  0  0  0  0
  184.1960  178.1040  143.0330 N   0  0  0  0  0  0  0  0  0  0  0  0
  186.3800  178.0560  145.7360 C   0  0  0  0  0  0  0  0  0  0  0  0
  188.9370  176.4160  142.2950 C   0  0  2  0  0  3  0  0  0  0  0  0
  186.3310  178.8440  148.3880 C   0  0  0  0  0  3  0  0  0  0  0  0
  184.8560  177.5410  142.0130 N   0  0  0  0  0  0  0  0  0  0  0  0
  185.2450  178.6470  146.2580 C   0  0  0  0  0  0  0  0  0  0  0  0
  185.1910  179.0540  147.5900 C   0  0  0  0  0  3  0  0  0  0  0  0
  188.1870  176.6360  143.6060 C   0  0  0  0  0  2  0  0  0  0  0  0
  187.4870  178.2400  147.8480 C   0  0  0  0  0  3  0  0  0  0  0  0
  184.8070  178.2290  144.2320 C   0  0  0  0  0  0  0  0  0  0  0  0
  184.2540  178.7650  145.3440 N   0  0  0  0  0  2  0  0  0  0  0  0
  186.8340  176.5090  140.9310 C   0  0  1  0  0  3  0  0  0  0  0  0
  187.5230  177.8360  146.5030 C   0  0  0  0  0  3  0  0  0  0  0  0
  188.0540  175.6630  141.3040 C   0  0  0  0  0  2  0  0  0  0  0  0
  186.1390  177.0720  142.1420 C   0  0  0  0  0  0  0  0  0  0  0  0
  192.4740  175.6760  143.6910 C   0  0  0  0  0  0  0  0  0  0  0  0
  193.3820  176.3790  144.5290 N   0  0  0  0  0  1  0  0  0  0  0  0
  192.7930  174.5430  143.2430 O   0  0  0  0  0  0  0  0  0  0  0  0
  190.2080  175.6740  142.5390 C   0  0  0  0  0  0  0  0  0  0  0  0
  191.2110  176.2690  143.3670 N   0  0  0  0  0  2  0  0  0  0  0  0
  190.3870  174.5380  142.0190 O   0  0  0  0  0  0  0  0  0  0  0  0
  187.2200  177.5490  140.0810 O   0  0  0  0  0  0  0  0  0  0  0  0
  186.6910  177.2100  138.8340 C   0  0  0  0  0  1  0  0  0  0  0  0
  1  4  1  0  0  0  0
  2 10  1  0  0  0  0
  2  1  2  0  0  0  0
  3 12  2  0  0  0  0
  4  8  2  0  0  0  0
  4 15  1  0  0  0  0
  5 21  1  1  0  0  0
  5 10  1  0  0  0  0
  7 17  2  0  0  0  0
  7  3  1  0  0  0  0
  8  9  1  0  0  0  0
  9  6  2  0  0  0  0
 11  6  1  0  0  0  0
 12  1  1  0  0  0  0
 12 13  1  0  0  0  0
 13  8  1  0  0  0  0
 14 24  1  6  0  0  0
 14 16  1  0  0  0  0
 14 17  1  0  0  0  0
 15 11  2  0  0  0  0
 16  5  1  0  0  0  0
 17  2  1  0  0  0  0
 18 19  1  0  0  0  0
 20 18  2  0  0  0  0
 21 22  1  0  0  0  0
 22 18  1  0  0  0  0
 23 21  2  0  0  0  0
 25 24  1  0  0  0  0
M  END
>  <MODEL>
9

>  <REMARK>
 VINA RESULT:      -6.7      2.702      4.793
  Name = 
  2 active torsions:
  status: ('A' for Active; 'I' for Inactive)
    1  A    between atoms: C_6  and  C_15
    2  A    between atoms: O_13  and  C_20
                            x       y       z     vdW  Elec       q    Type
                         _______ _______ _______ _____ _____    ______ ____

>  <TORSDO>
F 2

$$$$
