=
 OpenBabel11052421423D

 32 36  0  0  0  0  0  0  0  0999 V2000
  195.0600  175.0500  145.3340 C   0  0  0  0  0  0  0  0  0  0  0  0
  190.1770  176.1420  144.8250 C   0  0  0  0  0  0  0  0  0  0  0  0
  188.4180  177.2540  146.1980 C   0  0  0  0  0  0  0  0  0  0  0  0
  187.0830  177.6670  146.3180 C   0  0  0  0  0  0  0  0  0  0  0  0
  192.4110  175.9270  145.6400 C   0  0  0  0  0  0  0  0  0  0  0  0
  191.8580  175.0260  143.4740 C   0  0  0  0  0  3  0  0  0  0  0  0
  184.4330  178.4780  146.5350 C   0  0  0  0  0  3  0  0  0  0  0  0
  194.1190  174.8160  144.3180 C   0  0  0  0  0  3  0  0  0  0  0  0
  190.5330  175.4690  143.6300 C   0  0  0  0  0  0  0  0  0  0  0  0
  189.5730  175.2430  142.6220 C   0  0  0  0  0  0  0  0  0  0  0  0
  187.8930  176.3590  143.9920 C   0  0  0  0  0  0  0  0  0  0  0  0
  185.3130  178.7160  147.5440 N   0  0  0  0  0  0  0  0  0  0  0  0
  194.6660  175.7240  146.4980 C   0  0  0  0  0  3  0  0  0  0  0  0
  192.8010  175.2510  144.4700 C   0  0  0  0  0  0  0  0  0  0  0  0
  186.6140  178.3290  147.4610 C   0  0  0  0  0  3  0  0  0  0  0  0
  193.3460  176.1620  146.6510 C   0  0  0  0  0  3  0  0  0  0  0  0
  188.2490  175.7140  142.7970 C   0  0  0  0  0  0  0  0  0  0  0  0
  186.6080  176.7790  144.1500 N   0  0  0  0  0  2  0  0  0  0  0  0
  191.1290  176.3460  145.7830 N   0  0  0  0  0  0  0  0  0  0  0  0
  189.2210  177.4850  147.1450 O   0  0  0  0  0  0  0  0  0  0  0  0
  184.8530  177.8230  145.3760 C   0  0  0  0  0  3  0  0  0  0  0  0
  188.8470  176.5860  145.0180 C   0  0  0  0  0  0  0  0  0  0  0  0
  186.1840  177.4160  145.2680 C   0  0  0  0  0  0  0  0  0  0  0  0
  190.2370  173.8630  140.5140 N   0  0  0  0  0  0  0  0  0  0  0  0
  189.9410  174.4720  141.4520 C   0  0  0  0  0  0  0  0  0  0  0  0
  187.0730  176.3870  140.6900 C   0  0  0  0  0  1  0  0  0  0  0  0
  187.2410  175.5540  141.8290 O   0  0  0  0  0  0  0  0  0  0  0  0
  196.3870  174.6290  145.2160 O   0  0  0  0  0  0  0  0  0  0  0  0
  196.9930  173.7360  146.1420 C   0  0  0  0  0  2  0  0  0  0  0  0
  197.1290  172.3920  145.5200 C   0  0  0  0  0  0  0  0  0  0  0  0
  197.6760  172.2730  144.3940 O   0  0  0  0  0  0  0  0  0  0  0  0
  196.6920  171.2650  146.2020 O   0  0  0  0  0  1  0  0  0  0  0  0
  1 13  1  0  0  0  0
  2 22  1  0  0  0  0
  2 19  2  0  0  0  0
  3  4  1  0  0  0  0
  3 20  2  0  0  0  0
  4 15  1  0  0  0  0
  5 19  1  0  0  0  0
  5 16  1  0  0  0  0
  6  9  2  0  0  0  0
  6 14  1  0  0  0  0
  7 12  1  0  0  0  0
  8 14  1  0  0  0  0
  8  1  2  0  0  0  0
  9  2  1  0  0  0  0
 10 17  2  0  0  0  0
 10  9  1  0  0  0  0
 11 18  1  0  0  0  0
 11 22  2  0  0  0  0
 13 16  2  0  0  0  0
 14  5  2  0  0  0  0
 15 12  2  0  0  0  0
 17 11  1  0  0  0  0
 18 23  1  0  0  0  0
 21  7  2  0  0  0  0
 22  3  1  0  0  0  0
 23 21  1  0  0  0  0
 23  4  2  0  0  0  0
 24 25  3  0  0  0  0
 25 10  1  0  0  0  0
 26 27  1  0  0  0  0
 27 17  1  0  0  0  0
 28  1  1  0  0  0  0
 28 29  1  0  0  0  0
 30 29  1  0  0  0  0
 30 32  1  0  0  0  0
 31 30  2  0  0  0  0
M  END
>  <MODEL>
1

>  <REMARK>
 VINA RESULT:      -7.8      0.000      0.000
  Name = 
  5 active torsions:
  status: ('A' for Active; 'I' for Inactive)
    1  A    between atoms: C_1  and  C_10
    2  A    between atoms: C_2  and  O_24
    3  A    between atoms: C_10  and  O_24
    4  A    between atoms: C_13  and  C_15
    5  A    between atoms: O_25  and  C_26
                            x       y       z     vdW  Elec       q    Type
                         _______ _______ _______ _____ _____    ______ ____

>  <TORSDO>
F 5

$$$$
=
 OpenBabel11052421423D

 32 36  0  0  0  0  0  0  0  0999 V2000
  185.1800  178.2900  141.0740 C   0  0  0  0  0  0  0  0  0  0  0  0
  189.1280  177.1980  143.9920 C   0  0  0  0  0  0  0  0  0  0  0  0
  191.4540  176.3660  143.6550 C   0  0  0  0  0  0  0  0  0  0  0  0
  192.6810  175.9910  144.2220 C   0  0  0  0  0  0  0  0  0  0  0  0
  187.6710  177.5440  142.1330 C   0  0  0  0  0  0  0  0  0  0  0  0
  186.8590  177.9800  144.3610 C   0  0  0  0  0  3  0  0  0  0  0  0
  195.1040  175.2530  145.3680 C   0  0  0  0  0  3  0  0  0  0  0  0
  185.3940  178.3230  142.4620 C   0  0  0  0  0  3  0  0  0  0  0  0
  188.1080  177.6080  144.8870 C   0  0  0  0  0  0  0  0  0  0  0  0
  188.3430  177.6340  146.2770 C   0  0  0  0  0  0  0  0  0  0  0  0
  190.6170  176.8410  145.8940 C   0  0  0  0  0  0  0  0  0  0  0  0
  194.9320  175.1990  144.0210 N   0  0  0  0  0  0  0  0  0  0  0  0
  186.2180  177.8820  140.2260 C   0  0  0  0  0  3  0  0  0  0  0  0
  186.6330  177.9520  142.9890 C   0  0  0  0  0  0  0  0  0  0  0  0
  193.7560  175.5540  143.4360 C   0  0  0  0  0  3  0  0  0  0  0  0
  187.4600  177.5100  140.7520 C   0  0  0  0  0  3  0  0  0  0  0  0
  189.6150  177.2700  146.7800 C   0  0  0  0  0  0  0  0  0  0  0  0
  191.8230  176.4700  146.4020 N   0  0  0  0  0  2  0  0  0  0  0  0
  188.8710  177.1820  142.6520 N   0  0  0  0  0  0  0  0  0  0  0  0
  191.3140  176.3100  142.4010 O   0  0  0  0  0  0  0  0  0  0  0  0
  194.0610  175.6820  146.1930 C   0  0  0  0  0  3  0  0  0  0  0  0
  190.3920  176.8030  144.4930 C   0  0  0  0  0  0  0  0  0  0  0  0
  192.8450  176.0520  145.6160 C   0  0  0  0  0  0  0  0  0  0  0  0
  186.3880  178.2300  147.8930 N   0  0  0  0  0  0  0  0  0  0  0  0
  187.2550  177.9690  147.1730 C   0  0  0  0  0  0  0  0  0  0  0  0
  190.4900  178.4160  148.8280 C   0  0  0  0  0  1  0  0  0  0  0  0
  189.9380  177.2960  148.1490 O   0  0  0  0  0  0  0  0  0  0  0  0
  183.9540  178.6540  140.5120 O   0  0  0  0  0  0  0  0  0  0  0  0
  182.8880  177.7310  140.3330 C   0  0  0  0  0  2  0  0  0  0  0  0
  181.6400  178.2940  140.9130 C   0  0  0  0  0  0  0  0  0  0  0  0
  181.6550  178.8070  142.0610 O   0  0  0  0  0  1  0  0  0  0  0  0
  180.4680  178.2910  140.1690 O   0  0  0  0  0  0  0  0  0  0  0  0
  1  8  1  0  0  0  0
  2 22  1  0  0  0  0
  2  9  1  0  0  0  0
  3  4  1  0  0  0  0
  3 22  1  0  0  0  0
  4 23  1  0  0  0  0
  5 19  1  0  0  0  0
  5 14  1  0  0  0  0
  6  9  2  0  0  0  0
  7 21  1  0  0  0  0
  8 14  2  0  0  0  0
  9 10  1  0  0  0  0
 10 17  2  0  0  0  0
 10 25  1  0  0  0  0
 11 18  1  0  0  0  0
 11 17  1  0  0  0  0
 12  7  2  0  0  0  0
 13 16  1  0  0  0  0
 13  1  2  0  0  0  0
 14  6  1  0  0  0  0
 15 12  1  0  0  0  0
 15  4  2  0  0  0  0
 16  5  2  0  0  0  0
 17 27  1  0  0  0  0
 19  2  2  0  0  0  0
 20  3  2  0  0  0  0
 22 11  2  0  0  0  0
 23 21  2  0  0  0  0
 23 18  1  0  0  0  0
 25 24  3  0  0  0  0
 27 26  1  0  0  0  0
 28  1  1  0  0  0  0
 29 28  1  0  0  0  0
 29 30  1  0  0  0  0
 30 31  1  0  0  0  0
 32 30  2  0  0  0  0
M  END
>  <MODEL>
2

>  <REMARK>
 VINA RESULT:      -7.4      2.969      9.426
  Name = 
  5 active torsions:
  status: ('A' for Active; 'I' for Inactive)
    1  A    between atoms: C_1  and  C_10
    2  A    between atoms: C_2  and  O_24
    3  A    between atoms: C_10  and  O_24
    4  A    between atoms: C_13  and  C_15
    5  A    between atoms: O_25  and  C_26
                            x       y       z     vdW  Elec       q    Type
                         _______ _______ _______ _____ _____    ______ ____

>  <TORSDO>
F 5

$$$$
=
 OpenBabel11052421423D

 32 36  0  0  0  0  0  0  0  0999 V2000
  184.4850  178.2760  143.0670 C   0  0  0  0  0  0  0  0  0  0  0  0
  189.0830  176.2800  143.4750 C   0  0  0  0  0  0  0  0  0  0  0  0
  191.0210  176.4990  145.0290 C   0  0  0  0  0  0  0  0  0  0  0  0
  192.3250  176.1130  145.3710 C   0  0  0  0  0  0  0  0  0  0  0  0
  187.0840  177.5370  143.8280 C   0  0  0  0  0  0  0  0  0  0  0  0
  187.2270  176.0640  141.9240 C   0  0  0  0  0  3  0  0  0  0  0  0
  194.9100  175.3320  146.0310 C   0  0  0  0  0  3  0  0  0  0  0  0
  185.2070  177.3490  142.2980 C   0  0  0  0  0  3  0  0  0  0  0  0
  188.5280  175.6950  142.3100 C   0  0  0  0  0  0  0  0  0  0  0  0
  189.2690  174.7660  141.5520 C   0  0  0  0  0  0  0  0  0  0  0  0
  191.1290  174.9980  143.1120 C   0  0  0  0  0  0  0  0  0  0  0  0
  194.2470  176.2390  146.7950 N   0  0  0  0  0  0  0  0  0  0  0  0
  185.0730  178.8270  144.2140 C   0  0  0  0  0  3  0  0  0  0  0  0
  186.5010  176.9810  142.6760 C   0  0  0  0  0  0  0  0  0  0  0  0
  192.9820  176.6370  146.4930 C   0  0  0  0  0  3  0  0  0  0  0  0
  186.3670  178.4590  144.5950 C   0  0  0  0  0  3  0  0  0  0  0  0
  190.5710  174.3980  141.9720 C   0  0  0  0  0  0  0  0  0  0  0  0
  192.3910  174.6490  143.4810 N   0  0  0  0  0  2  0  0  0  0  0  0
  188.3410  177.1760  144.1890 N   0  0  0  0  0  0  0  0  0  0  0  0
  190.4200  177.3420  145.7520 O   0  0  0  0  0  0  0  0  0  0  0  0
  194.2980  174.7820  144.9030 C   0  0  0  0  0  3  0  0  0  0  0  0
  190.3970  175.9390  143.8810 C   0  0  0  0  0  0  0  0  0  0  0  0
  193.0000  175.1740  144.5720 C   0  0  0  0  0  0  0  0  0  0  0  0
  188.2690  173.8380  139.3320 N   0  0  0  0  0  0  0  0  0  0  0  0
  188.7120  174.2530  140.3170 C   0  0  0  0  0  0  0  0  0  0  0  0
  191.2540  172.0500  141.4310 C   0  0  0  0  0  1  0  0  0  0  0  0
  191.3640  173.4600  141.2870 O   0  0  0  0  0  0  0  0  0  0  0  0
  183.1900  178.6670  142.7190 O   0  0  0  0  0  0  0  0  0  0  0  0
  182.5820  178.2940  141.4890 C   0  0  0  0  0  2  0  0  0  0  0  0
  181.1460  178.6810  141.5060 C   0  0  0  0  0  0  0  0  0  0  0  0
  180.6930  179.3760  142.4510 O   0  0  0  0  0  1  0  0  0  0  0  0
  180.3160  178.3100  140.4580 O   0  0  0  0  0  0  0  0  0  0  0  0
  1 13  1  0  0  0  0
  2 22  1  0  0  0  0
  2 19  2  0  0  0  0
  3  4  1  0  0  0  0
  3 20  2  0  0  0  0
  4 15  1  0  0  0  0
  5 19  1  0  0  0  0
  5 16  1  0  0  0  0
  6  9  2  0  0  0  0
  6 14  1  0  0  0  0
  7 12  1  0  0  0  0
  8 14  1  0  0  0  0
  8  1  2  0  0  0  0
  9  2  1  0  0  0  0
 10 17  2  0  0  0  0
 10  9  1  0  0  0  0
 11 18  1  0  0  0  0
 11 22  2  0  0  0  0
 13 16  2  0  0  0  0
 14  5  2  0  0  0  0
 15 12  2  0  0  0  0
 17 11  1  0  0  0  0
 18 23  1  0  0  0  0
 21  7  2  0  0  0  0
 22  3  1  0  0  0  0
 23 21  1  0  0  0  0
 23  4  2  0  0  0  0
 24 25  3  0  0  0  0
 25 10  1  0  0  0  0
 27 26  1  0  0  0  0
 27 17  1  0  0  0  0
 28  1  1  0  0  0  0
 29 30  1  0  0  0  0
 29 28  1  0  0  0  0
 30 31  1  0  0  0  0
 32 30  2  0  0  0  0
M  END
>  <MODEL>
3

>  <REMARK>
 VINA RESULT:      -7.4      2.996      8.900
  Name = 
  5 active torsions:
  status: ('A' for Active; 'I' for Inactive)
    1  A    between atoms: C_1  and  C_10
    2  A    between atoms: C_2  and  O_24
    3  A    between atoms: C_10  and  O_24
    4  A    between atoms: C_13  and  C_15
    5  A    between atoms: O_25  and  C_26
                            x       y       z     vdW  Elec       q    Type
                         _______ _______ _______ _____ _____    ______ ____

>  <TORSDO>
F 5

$$$$
=
 OpenBabel11052421423D

 32 36  0  0  0  0  0  0  0  0999 V2000
  190.1220  173.2030  139.0760 C   0  0  0  0  0  0  0  0  0  0  0  0
  188.6420  175.2920  143.4040 C   0  0  0  0  0  0  0  0  0  0  0  0
  186.7000  176.6440  144.1920 C   0  0  0  0  0  0  0  0  0  0  0  0
  186.0650  177.3180  145.2450 C   0  0  0  0  0  0  0  0  0  0  0  0
  188.7790  174.5530  141.1390 C   0  0  0  0  0  0  0  0  0  0  0  0
  190.5630  174.0040  142.6650 C   0  0  0  0  0  3  0  0  0  0  0  0
  184.8230  178.6460  147.3480 C   0  0  0  0  0  3  0  0  0  0  0  0
  190.6850  173.2630  140.3610 C   0  0  0  0  0  3  0  0  0  0  0  0
  189.8860  174.6790  143.6950 C   0  0  0  0  0  0  0  0  0  0  0  0
  190.4340  174.7510  144.9930 C   0  0  0  0  0  0  0  0  0  0  0  0
  188.5040  176.0520  145.7200 C   0  0  0  0  0  0  0  0  0  0  0  0
  184.2510  178.6170  146.1150 N   0  0  0  0  0  0  0  0  0  0  0  0
  188.8870  173.8200  138.8340 C   0  0  0  0  0  3  0  0  0  0  0  0
  190.0170  173.9350  141.3880 C   0  0  0  0  0  0  0  0  0  0  0  0
  184.8390  177.9740  145.0700 C   0  0  0  0  0  3  0  0  0  0  0  0
  188.2170  174.4920  139.8610 C   0  0  0  0  0  3  0  0  0  0  0  0
  189.7240  175.4230  146.0170 C   0  0  0  0  0  0  0  0  0  0  0  0
  187.8520  176.7140  146.7140 N   0  0  0  0  0  2  0  0  0  0  0  0
  188.1360  175.2050  142.1390 N   0  0  0  0  0  0  0  0  0  0  0  0
  186.1530  176.6270  143.0540 O   0  0  0  0  0  0  0  0  0  0  0  0
  186.0440  178.0070  147.5710 C   0  0  0  0  0  3  0  0  0  0  0  0
  187.9440  175.9930  144.4180 C   0  0  0  0  0  0  0  0  0  0  0  0
  186.6670  177.3410  146.5150 C   0  0  0  0  0  0  0  0  0  0  0  0
  192.8020  173.7560  145.4320 N   0  0  0  0  0  0  0  0  0  0  0  0
  191.7490  174.1950  145.2390 C   0  0  0  0  0  0  0  0  0  0  0  0
  191.1470  176.4620  147.7980 C   0  0  0  0  0  1  0  0  0  0  0  0
  190.1880  175.5170  147.3410 O   0  0  0  0  0  0  0  0  0  0  0  0
  190.7610  172.5390  138.0260 O   0  0  0  0  0  0  0  0  0  0  0  0
  191.4890  171.3320  138.2120 C   0  0  0  0  0  2  0  0  0  0  0  0
  190.5400  170.2030  138.3990 C   0  0  0  0  0  0  0  0  0  0  0  0
  190.5340  169.5580  139.4790 O   0  0  0  0  0  1  0  0  0  0  0  0
  189.6320  169.8870  137.3980 O   0  0  0  0  0  0  0  0  0  0  0  0
  1  8  1  0  0  0  0
  2  9  1  0  0  0  0
  2 22  1  0  0  0  0
  3 22  1  0  0  0  0
  3  4  1  0  0  0  0
  4 23  1  0  0  0  0
  5 14  1  0  0  0  0
  5 19  1  0  0  0  0
  6  9  2  0  0  0  0
  7 21  1  0  0  0  0
  8 14  2  0  0  0  0
  9 10  1  0  0  0  0
 10 25  1  0  0  0  0
 10 17  2  0  0  0  0
 11 17  1  0  0  0  0
 11 18  1  0  0  0  0
 12  7  2  0  0  0  0
 13  1  2  0  0  0  0
 13 16  1  0  0  0  0
 14  6  1  0  0  0  0
 15  4  2  0  0  0  0
 15 12  1  0  0  0  0
 16  5  2  0  0  0  0
 17 27  1  0  0  0  0
 19  2  2  0  0  0  0
 20  3  2  0  0  0  0
 22 11  2  0  0  0  0
 23 18  1  0  0  0  0
 23 21  2  0  0  0  0
 25 24  3  0  0  0  0
 27 26  1  0  0  0  0
 28 29  1  0  0  0  0
 28  1  1  0  0  0  0
 29 30  1  0  0  0  0
 30 31  1  0  0  0  0
 32 30  2  0  0  0  0
M  END
>  <MODEL>
4

>  <REMARK>
 VINA RESULT:      -7.2      3.273      5.855
  Name = 
  5 active torsions:
  status: ('A' for Active; 'I' for Inactive)
    1  A    between atoms: C_1  and  C_10
    2  A    between atoms: C_2  and  O_24
    3  A    between atoms: C_10  and  O_24
    4  A    between atoms: C_13  and  C_15
    5  A    between atoms: O_25  and  C_26
                            x       y       z     vdW  Elec       q    Type
                         _______ _______ _______ _____ _____    ______ ____

>  <TORSDO>
F 5

$$$$
=
 OpenBabel11052421423D

 32 36  0  0  0  0  0  0  0  0999 V2000
  185.8500  177.3100  145.8850 C   0  0  0  0  0  0  0  0  0  0  0  0
  190.2820  175.5550  144.2820 C   0  0  0  0  0  0  0  0  0  0  0  0
  192.5980  175.3860  145.1900 C   0  0  0  0  0  0  0  0  0  0  0  0
  193.9290  174.9870  144.9970 C   0  0  0  0  0  0  0  0  0  0  0  0
  188.5270  176.5200  145.5810 C   0  0  0  0  0  0  0  0  0  0  0  0
  188.0450  175.7310  143.3540 C   0  0  0  0  0  3  0  0  0  0  0  0
  196.5610  174.1880  144.5920 C   0  0  0  0  0  3  0  0  0  0  0  0
  186.2770  176.7150  144.6870 C   0  0  0  0  0  3  0  0  0  0  0  0
  189.3860  175.3340  143.2070 C   0  0  0  0  0  0  0  0  0  0  0  0
  189.8340  174.7350  142.0120 C   0  0  0  0  0  0  0  0  0  0  0  0
  192.0780  174.5710  142.9530 C   0  0  0  0  0  0  0  0  0  0  0  0
  196.1880  174.7700  145.7630 N   0  0  0  0  0  0  0  0  0  0  0  0
  186.7700  177.5050  146.9240 C   0  0  0  0  0  3  0  0  0  0  0  0
  187.6090  176.3220  144.5350 C   0  0  0  0  0  0  0  0  0  0  0  0
  194.9070  175.1690  145.9840 C   0  0  0  0  0  3  0  0  0  0  0  0
  188.1040  177.1110  146.7740 C   0  0  0  0  0  3  0  0  0  0  0  0
  191.1860  174.3290  141.8960 C   0  0  0  0  0  0  0  0  0  0  0  0
  193.3790  174.1980  142.8080 N   0  0  0  0  0  2  0  0  0  0  0  0
  189.8190  176.1370  145.4270 N   0  0  0  0  0  0  0  0  0  0  0  0
  192.2710  175.9230  146.2850 O   0  0  0  0  0  0  0  0  0  0  0  0
  195.6230  173.9860  143.5780 C   0  0  0  0  0  3  0  0  0  0  0  0
  191.6420  175.1800  144.1580 C   0  0  0  0  0  0  0  0  0  0  0  0
  194.3020  174.3880  143.7820 C   0  0  0  0  0  0  0  0  0  0  0  0
  188.1930  174.5040  140.0020 N   0  0  0  0  0  0  0  0  0  0  0  0
  188.9190  174.6060  140.8970 C   0  0  0  0  0  0  0  0  0  0  0  0
  191.5850  172.3140  140.4640 C   0  0  0  0  0  1  0  0  0  0  0  0
  191.7050  173.7010  140.7490 O   0  0  0  0  0  0  0  0  0  0  0  0
  184.5260  177.7150  146.0720 O   0  0  0  0  0  0  0  0  0  0  0  0
  184.0760  179.0280  145.7630 C   0  0  0  0  0  2  0  0  0  0  0  0
  184.3780  179.3370  144.3400 C   0  0  0  0  0  0  0  0  0  0  0  0
  185.2790  180.1660  144.0540 O   0  0  0  0  0  1  0  0  0  0  0  0
  183.6940  178.6780  143.3280 O   0  0  0  0  0  0  0  0  0  0  0  0
  1 28  1  0  0  0  0
  1 13  1  0  0  0  0
  2 19  2  0  0  0  0
  3 20  2  0  0  0  0
  4  3  1  0  0  0  0
  4 15  1  0  0  0  0
  5 16  1  0  0  0  0
  6 14  1  0  0  0  0
  7 12  1  0  0  0  0
  8  1  2  0  0  0  0
  9  6  2  0  0  0  0
  9  2  1  0  0  0  0
 10  9  1  0  0  0  0
 11 22  2  0  0  0  0
 12 15  2  0  0  0  0
 14  8  1  0  0  0  0
 14  5  2  0  0  0  0
 16 13  2  0  0  0  0
 17 10  2  0  0  0  0
 17 11  1  0  0  0  0
 18 11  1  0  0  0  0
 18 23  1  0  0  0  0
 19  5  1  0  0  0  0
 21 23  1  0  0  0  0
 21  7  2  0  0  0  0
 22  2  1  0  0  0  0
 22  3  1  0  0  0  0
 23  4  2  0  0  0  0
 24 25  3  0  0  0  0
 25 10  1  0  0  0  0
 26 27  1  0  0  0  0
 27 17  1  0  0  0  0
 29 28  1  0  0  0  0
 30 29  1  0  0  0  0
 31 30  1  0  0  0  0
 32 30  2  0  0  0  0
M  END
>  <MODEL>
5

>  <REMARK>
 VINA RESULT:      -7.2      2.640      8.242
  Name = 
  5 active torsions:
  status: ('A' for Active; 'I' for Inactive)
    1  A    between atoms: C_1  and  C_10
    2  A    between atoms: C_2  and  O_24
    3  A    between atoms: C_10  and  O_24
    4  A    between atoms: C_13  and  C_15
    5  A    between atoms: O_25  and  C_26
                            x       y       z     vdW  Elec       q    Type
                         _______ _______ _______ _____ _____    ______ ____

>  <TORSDO>
F 5

$$$$
=
 OpenBabel11052421423D

 32 36  0  0  0  0  0  0  0  0999 V2000
  190.3200  173.2580  139.1610 C   0  0  0  0  0  0  0  0  0  0  0  0
  188.7730  175.2950  143.4910 C   0  0  0  0  0  0  0  0  0  0  0  0
  186.8000  176.6030  144.2740 C   0  0  0  0  0  0  0  0  0  0  0  0
  186.1450  177.2590  145.3270 C   0  0  0  0  0  0  0  0  0  0  0  0
  188.9380  174.5700  141.2220 C   0  0  0  0  0  0  0  0  0  0  0  0
  190.7230  174.0490  142.7560 C   0  0  0  0  0  3  0  0  0  0  0  0
  184.8650  178.5510  147.4290 C   0  0  0  0  0  3  0  0  0  0  0  0
  190.8740  173.3230  140.4500 C   0  0  0  0  0  3  0  0  0  0  0  0
  190.0270  174.7040  143.7860 C   0  0  0  0  0  0  0  0  0  0  0  0
  190.5660  174.7810  145.0870 C   0  0  0  0  0  0  0  0  0  0  0  0
  188.6060  176.0390  145.8100 C   0  0  0  0  0  0  0  0  0  0  0  0
  184.3010  178.5170  146.1920 N   0  0  0  0  0  0  0  0  0  0  0  0
  189.0750  173.8520  138.9150 C   0  0  0  0  0  3  0  0  0  0  0  0
  190.1870  173.9760  141.4760 C   0  0  0  0  0  0  0  0  0  0  0  0
  184.9080  177.8910  145.1480 C   0  0  0  0  0  3  0  0  0  0  0  0
  188.3850  174.5060  139.9410 C   0  0  0  0  0  3  0  0  0  0  0  0
  189.8370  175.4330  146.1110 C   0  0  0  0  0  0  0  0  0  0  0  0
  187.9360  176.6830  146.8040 N   0  0  0  0  0  2  0  0  0  0  0  0
  188.2770  175.2050  142.2230 N   0  0  0  0  0  0  0  0  0  0  0  0
  186.2600  176.5810  143.1330 O   0  0  0  0  0  0  0  0  0  0  0  0
  186.0970  177.9350  147.6560 C   0  0  0  0  0  3  0  0  0  0  0  0
  188.0550  175.9760  144.5040 C   0  0  0  0  0  0  0  0  0  0  0  0
  186.7390  177.2870  146.6000 C   0  0  0  0  0  0  0  0  0  0  0  0
  192.9460  173.8240  145.5460 N   0  0  0  0  0  0  0  0  0  0  0  0
  191.8900  174.2490  145.3380 C   0  0  0  0  0  0  0  0  0  0  0  0
  191.2130  176.5020  147.9100 C   0  0  0  0  0  1  0  0  0  0  0  0
  190.2910  175.5290  147.4390 O   0  0  0  0  0  0  0  0  0  0  0  0
  190.9790  172.6130  138.1110 O   0  0  0  0  0  0  0  0  0  0  0  0
  192.2950  172.9620  137.7030 C   0  0  0  0  0  2  0  0  0  0  0  0
  192.2990  174.3470  137.1630 C   0  0  0  0  0  0  0  0  0  0  0  0
  193.1550  175.1770  137.5630 O   0  0  0  0  0  1  0  0  0  0  0  0
  191.3840  174.7120  136.1850 O   0  0  0  0  0  0  0  0  0  0  0  0
  1  8  1  0  0  0  0
  2  9  1  0  0  0  0
  2 22  1  0  0  0  0
  3 22  1  0  0  0  0
  3  4  1  0  0  0  0
  4 23  1  0  0  0  0
  5 14  1  0  0  0  0
  5 19  1  0  0  0  0
  6  9  2  0  0  0  0
  7 21  1  0  0  0  0
  8 14  2  0  0  0  0
  9 10  1  0  0  0  0
 10 25  1  0  0  0  0
 10 17  2  0  0  0  0
 11 17  1  0  0  0  0
 11 18  1  0  0  0  0
 12  7  2  0  0  0  0
 13  1  2  0  0  0  0
 13 16  1  0  0  0  0
 14  6  1  0  0  0  0
 15  4  2  0  0  0  0
 15 12  1  0  0  0  0
 16  5  2  0  0  0  0
 17 27  1  0  0  0  0
 19  2  2  0  0  0  0
 20  3  2  0  0  0  0
 22 11  2  0  0  0  0
 23 18  1  0  0  0  0
 23 21  2  0  0  0  0
 25 24  3  0  0  0  0
 27 26  1  0  0  0  0
 28  1  1  0  0  0  0
 29 28  1  0  0  0  0
 30 31  1  0  0  0  0
 30 29  1  0  0  0  0
 32 30  2  0  0  0  0
M  END
>  <MODEL>
6

>  <REMARK>
 VINA RESULT:      -7.1      3.231      5.809
  Name = 
  5 active torsions:
  status: ('A' for Active; 'I' for Inactive)
    1  A    between atoms: C_1  and  C_10
    2  A    between atoms: C_2  and  O_24
    3  A    between atoms: C_10  and  O_24
    4  A    between atoms: C_13  and  C_15
    5  A    between atoms: O_25  and  C_26
                            x       y       z     vdW  Elec       q    Type
                         _______ _______ _______ _____ _____    ______ ____

>  <TORSDO>
F 5

$$$$
=
 OpenBabel11052421423D

 32 36  0  0  0  0  0  0  0  0999 V2000
  186.4290  177.0730  145.3600 C   0  0  0  0  0  0  0  0  0  0  0  0
  190.7640  175.6630  143.2360 C   0  0  0  0  0  0  0  0  0  0  0  0
  193.1910  176.0780  143.6270 C   0  0  0  0  0  0  0  0  0  0  0  0
  194.5180  175.8490  143.2350 C   0  0  0  0  0  0  0  0  0  0  0  0
  189.1110  176.6450  144.6510 C   0  0  0  0  0  0  0  0  0  0  0  0
  188.4070  175.2610  142.8070 C   0  0  0  0  0  3  0  0  0  0  0  0
  197.1410  175.3810  142.4410 C   0  0  0  0  0  3  0  0  0  0  0  0
  186.7450  176.2680  144.2540 C   0  0  0  0  0  3  0  0  0  0  0  0
  189.7520  175.0470  142.4570 C   0  0  0  0  0  0  0  0  0  0  0  0
  190.0900  174.2430  141.3490 C   0  0  0  0  0  0  0  0  0  0  0  0
  192.4530  174.6610  141.7860 C   0  0  0  0  0  0  0  0  0  0  0  0
  196.8740  176.1740  143.5130 N   0  0  0  0  0  0  0  0  0  0  0  0
  187.4620  177.6580  146.1050 C   0  0  0  0  0  3  0  0  0  0  0  0
  188.0790  176.0550  143.9000 C   0  0  0  0  0  0  0  0  0  0  0  0
  195.6000  176.4180  143.9210 C   0  0  0  0  0  3  0  0  0  0  0  0
  188.7980  177.4460  145.7530 C   0  0  0  0  0  3  0  0  0  0  0  0
  191.4530  174.0300  141.0280 C   0  0  0  0  0  0  0  0  0  0  0  0
  193.7550  174.4630  141.4420 N   0  0  0  0  0  2  0  0  0  0  0  0
  190.4050  176.4360  144.3020 N   0  0  0  0  0  0  0  0  0  0  0  0
  192.9630  176.8160  144.6250 O   0  0  0  0  0  0  0  0  0  0  0  0
  196.0960  174.7930  141.7260 C   0  0  0  0  0  3  0  0  0  0  0  0
  192.1270  175.4780  142.8980 C   0  0  0  0  0  0  0  0  0  0  0  0
  194.7800  175.0280  142.1250 C   0  0  0  0  0  0  0  0  0  0  0  0
  188.1940  173.2630  139.8550 N   0  0  0  0  0  0  0  0  0  0  0  0
  189.0350  173.7020  140.5170 C   0  0  0  0  0  0  0  0  0  0  0  0
  191.9950  171.8050  140.0130 C   0  0  0  0  0  1  0  0  0  0  0  0
  191.8740  173.2200  139.9580 O   0  0  0  0  0  0  0  0  0  0  0  0
  185.1060  177.3070  145.7420 O   0  0  0  0  0  0  0  0  0  0  0  0
  184.5450  178.6120  145.8020 C   0  0  0  0  0  2  0  0  0  0  0  0
  184.5440  179.2160  144.4430 C   0  0  0  0  0  0  0  0  0  0  0  0
  185.3260  180.1650  144.1760 O   0  0  0  0  0  1  0  0  0  0  0  0
  183.7110  178.7050  143.4580 O   0  0  0  0  0  0  0  0  0  0  0  0
  1 28  1  0  0  0  0
  1 13  1  0  0  0  0
  2 19  2  0  0  0  0
  3 20  2  0  0  0  0
  4  3  1  0  0  0  0
  4 15  1  0  0  0  0
  5 16  1  0  0  0  0
  6 14  1  0  0  0  0
  7 12  1  0  0  0  0
  8  1  2  0  0  0  0
  9  6  2  0  0  0  0
  9  2  1  0  0  0  0
 10  9  1  0  0  0  0
 11 22  2  0  0  0  0
 12 15  2  0  0  0  0
 14  8  1  0  0  0  0
 14  5  2  0  0  0  0
 16 13  2  0  0  0  0
 17 10  2  0  0  0  0
 17 11  1  0  0  0  0
 18 11  1  0  0  0  0
 18 23  1  0  0  0  0
 19  5  1  0  0  0  0
 21 23  1  0  0  0  0
 21  7  2  0  0  0  0
 22  2  1  0  0  0  0
 22  3  1  0  0  0  0
 23  4  2  0  0  0  0
 24 25  3  0  0  0  0
 25 10  1  0  0  0  0
 27 26  1  0  0  0  0
 27 17  1  0  0  0  0
 28 29  1  0  0  0  0
 30 29  1  0  0  0  0
 31 30  1  0  0  0  0
 32 30  2  0  0  0  0
M  END
>  <MODEL>
7

>  <REMARK>
 VINA RESULT:      -7.0      3.015      8.379
  Name = 
  5 active torsions:
  status: ('A' for Active; 'I' for Inactive)
    1  A    between atoms: C_1  and  C_10
    2  A    between atoms: C_2  and  O_24
    3  A    between atoms: C_10  and  O_24
    4  A    between atoms: C_13  and  C_15
    5  A    between atoms: O_25  and  C_26
                            x       y       z     vdW  Elec       q    Type
                         _______ _______ _______ _____ _____    ______ ____

>  <TORSDO>
F 5

$$$$
=
 OpenBabel11052421423D

 32 36  0  0  0  0  0  0  0  0999 V2000
  186.4350  178.3960  143.3200 C   0  0  0  0  0  0  0  0  0  0  0  0
  188.5670  174.4700  141.0120 C   0  0  0  0  0  0  0  0  0  0  0  0
  188.8110  173.6630  138.6650 C   0  0  0  0  0  0  0  0  0  0  0  0
  189.3020  172.6880  137.7840 C   0  0  0  0  0  0  0  0  0  0  0  0
  187.4070  176.5000  141.4930 C   0  0  0  0  0  0  0  0  0  0  0  0
  188.3230  175.2100  143.3110 C   0  0  0  0  0  3  0  0  0  0  0  0
  190.2870  170.7460  136.0560 C   0  0  0  0  0  3  0  0  0  0  0  0
  187.1400  177.2720  143.7800 C   0  0  0  0  0  3  0  0  0  0  0  0
  188.8100  174.2640  142.3930 C   0  0  0  0  0  0  0  0  0  0  0  0
  189.5200  173.1280  142.8340 C   0  0  0  0  0  0  0  0  0  0  0  0
  189.7510  172.3920  140.5210 C   0  0  0  0  0  0  0  0  0  0  0  0
  189.6010  171.8160  135.5740 N   0  0  0  0  0  0  0  0  0  0  0  0
  186.2220  178.5620  141.9460 C   0  0  0  0  0  3  0  0  0  0  0  0
  187.6240  176.3280  142.8710 C   0  0  0  0  0  0  0  0  0  0  0  0
  189.1090  172.7790  136.3990 C   0  0  0  0  0  3  0  0  0  0  0  0
  186.7060  177.6180  141.0340 C   0  0  0  0  0  3  0  0  0  0  0  0
  190.0140  172.1990  141.8870 C   0  0  0  0  0  0  0  0  0  0  0  0
  190.2130  171.4720  139.6310 N   0  0  0  0  0  2  0  0  0  0  0  0
  187.8770  175.5780  140.6150 N   0  0  0  0  0  0  0  0  0  0  0  0
  188.1770  174.6500  138.1990 O   0  0  0  0  0  0  0  0  0  0  0  0
  190.5040  170.6110  137.4290 C   0  0  0  0  0  3  0  0  0  0  0  0
  189.0320  173.5260  140.0630 C   0  0  0  0  0  0  0  0  0  0  0  0
  190.0100  171.5870  138.2960 C   0  0  0  0  0  0  0  0  0  0  0  0
  189.7920  172.7050  145.3900 N   0  0  0  0  0  0  0  0  0  0  0  0
  189.6740  172.8960  144.2560 C   0  0  0  0  0  0  0  0  0  0  0  0
  192.1500  171.0490  142.5080 C   0  0  0  0  0  1  0  0  0  0  0  0
  190.7540  171.0570  142.2420 O   0  0  0  0  0  0  0  0  0  0  0  0
  185.9380  179.3600  144.2010 O   0  0  0  0  0  0  0  0  0  0  0  0
  184.6350  179.2830  144.7660 C   0  0  0  0  0  2  0  0  0  0  0  0
  184.7280  178.7840  146.1630 C   0  0  0  0  0  0  0  0  0  0  0  0
  184.0760  177.7660  146.5120 O   0  0  0  0  0  0  0  0  0  0  0  0
  185.5660  179.4150  147.0710 O   0  0  0  0  0  1  0  0  0  0  0  0
  1  8  1  0  0  0  0
  1 28  1  0  0  0  0
  2  9  1  0  0  0  0
  3 22  1  0  0  0  0
  4 23  1  0  0  0  0
  4  3  1  0  0  0  0
  5 14  1  0  0  0  0
  7 21  1  0  0  0  0
  9 10  1  0  0  0  0
  9  6  2  0  0  0  0
 10 25  1  0  0  0  0
 11 17  1  0  0  0  0
 12  7  2  0  0  0  0
 12 15  1  0  0  0  0
 13  1  2  0  0  0  0
 14  6  1  0  0  0  0
 14  8  2  0  0  0  0
 15  4  2  0  0  0  0
 16  5  2  0  0  0  0
 16 13  1  0  0  0  0
 17 27  1  0  0  0  0
 17 10  2  0  0  0  0
 18 11  1  0  0  0  0
 19  2  2  0  0  0  0
 19  5  1  0  0  0  0
 20  3  2  0  0  0  0
 21 23  2  0  0  0  0
 22 11  2  0  0  0  0
 22  2  1  0  0  0  0
 23 18  1  0  0  0  0
 25 24  3  0  0  0  0
 27 26  1  0  0  0  0
 28 29  1  0  0  0  0
 29 30  1  0  0  0  0
 30 31  2  0  0  0  0
 30 32  1  0  0  0  0
M  END
>  <MODEL>
8

>  <REMARK>
 VINA RESULT:      -6.9      4.259      9.266
  Name = 
  5 active torsions:
  status: ('A' for Active; 'I' for Inactive)
    1  A    between atoms: C_1  and  C_10
    2  A    between atoms: C_2  and  O_24
    3  A    between atoms: C_10  and  O_24
    4  A    between atoms: C_13  and  C_15
    5  A    between atoms: O_25  and  C_26
                            x       y       z     vdW  Elec       q    Type
                         _______ _______ _______ _____ _____    ______ ____

>  <TORSDO>
F 5

$$$$
=
 OpenBabel11052421423D

 32 36  0  0  0  0  0  0  0  0999 V2000
  186.6180  178.1470  143.9570 C   0  0  0  0  0  0  0  0  0  0  0  0
  189.9310  174.3650  143.8650 C   0  0  0  0  0  0  0  0  0  0  0  0
  190.1400  172.1690  142.7020 C   0  0  0  0  0  0  0  0  0  0  0  0
  190.8790  170.9950  142.4940 C   0  0  0  0  0  0  0  0  0  0  0  0
  188.0520  175.7840  143.4700 C   0  0  0  0  0  0  0  0  0  0  0  0
  189.7450  176.4830  145.0370 C   0  0  0  0  0  3  0  0  0  0  0  0
  192.3620  168.6780  142.0940 C   0  0  0  0  0  3  0  0  0  0  0  0
  187.8300  177.9090  144.6250 C   0  0  0  0  0  3  0  0  0  0  0  0
  190.4610  175.2990  144.7890 C   0  0  0  0  0  0  0  0  0  0  0  0
  191.6800  175.0410  145.4490 C   0  0  0  0  0  0  0  0  0  0  0  0
  191.8500  172.9120  144.2710 C   0  0  0  0  0  0  0  0  0  0  0  0
  191.1880  168.8690  141.4360 N   0  0  0  0  0  0  0  0  0  0  0  0
  186.1330  177.1980  143.0480 C   0  0  0  0  0  3  0  0  0  0  0  0
  188.5440  176.7330  144.3840 C   0  0  0  0  0  0  0  0  0  0  0  0
  190.4450  169.9940  141.6150 C   0  0  0  0  0  3  0  0  0  0  0  0
  186.8460  176.0200  142.8040 C   0  0  0  0  0  3  0  0  0  0  0  0
  192.3900  173.8480  145.1680 C   0  0  0  0  0  0  0  0  0  0  0  0
  192.5370  171.7610  144.0370 N   0  0  0  0  0  2  0  0  0  0  0  0
  188.7490  174.6430  143.2410 N   0  0  0  0  0  0  0  0  0  0  0  0
  189.0520  172.3290  142.0810 O   0  0  0  0  0  0  0  0  0  0  0  0
  192.8360  169.6470  142.9810 C   0  0  0  0  0  3  0  0  0  0  0  0
  190.6220  173.1560  143.6050 C   0  0  0  0  0  0  0  0  0  0  0  0
  192.0910  170.8100  143.1810 C   0  0  0  0  0  0  0  0  0  0  0  0
  192.5290  176.7060  147.2640 N   0  0  0  0  0  0  0  0  0  0  0  0
  192.1520  175.9700  146.4560 C   0  0  0  0  0  0  0  0  0  0  0  0
  194.8850  174.0130  145.3190 C   0  0  0  0  0  1  0  0  0  0  0  0
  193.6240  173.5290  145.7630 O   0  0  0  0  0  0  0  0  0  0  0  0
  185.8780  179.3120  144.1740 O   0  0  0  0  0  0  0  0  0  0  0  0
  184.5970  179.3030  144.7920 C   0  0  0  0  0  2  0  0  0  0  0  0
  184.7170  178.7800  146.1780 C   0  0  0  0  0  0  0  0  0  0  0  0
  184.0870  177.7450  146.5170 O   0  0  0  0  0  0  0  0  0  0  0  0
  185.5560  179.4090  147.0860 O   0  0  0  0  0  1  0  0  0  0  0  0
  1 28  1  0  0  0  0
  1  8  1  0  0  0  0
  2  9  1  0  0  0  0
  3 22  1  0  0  0  0
  4  3  1  0  0  0  0
  4 23  1  0  0  0  0
  5 14  1  0  0  0  0
  7 21  1  0  0  0  0
  9  6  2  0  0  0  0
  9 10  1  0  0  0  0
 10 25  1  0  0  0  0
 11 17  1  0  0  0  0
 12 15  1  0  0  0  0
 12  7  2  0  0  0  0
 13  1  2  0  0  0  0
 14  8  2  0  0  0  0
 14  6  1  0  0  0  0
 15  4  2  0  0  0  0
 16 13  1  0  0  0  0
 16  5  2  0  0  0  0
 17 10  2  0  0  0  0
 17 27  1  0  0  0  0
 18 11  1  0  0  0  0
 19  5  1  0  0  0  0
 19  2  2  0  0  0  0
 20  3  2  0  0  0  0
 21 23  2  0  0  0  0
 22  2  1  0  0  0  0
 22 11  2  0  0  0  0
 23 18  1  0  0  0  0
 25 24  3  0  0  0  0
 26 27  1  0  0  0  0
 28 29  1  0  0  0  0
 29 30  1  0  0  0  0
 30 31  2  0  0  0  0
 30 32  1  0  0  0  0
M  END
>  <MODEL>
9

>  <REMARK>
 VINA RESULT:      -6.9      3.139      8.856
  Name = 
  5 active torsions:
  status: ('A' for Active; 'I' for Inactive)
    1  A    between atoms: C_1  and  C_10
    2  A    between atoms: C_2  and  O_24
    3  A    between atoms: C_10  and  O_24
    4  A    between atoms: C_13  and  C_15
    5  A    between atoms: O_25  and  C_26
                            x       y       z     vdW  Elec       q    Type
                         _______ _______ _______ _____ _____    ______ ____

>  <TORSDO>
F 5

$$$$
