=
 OpenBabel11052419243D

 55 61  0  0  1  0  0  0  0  0999 V2000
  192.9740  176.3560  142.7310 O   0  0  0  0  0  0  0  0  0  0  0  0
  194.5340  171.8820  143.0400 C   0  0  0  0  0  2  0  0  0  0  0  0
  192.2820  170.5340  144.2280 O   0  0  0  0  0  1  0  0  0  0  0  0
  189.6660  173.9170  145.7580 C   0  0  0  0  0  2  0  0  0  0  0  0
  189.1700  174.1650  147.1750 C   0  0  0  0  0  2  0  0  0  0  0  0
  191.3030  175.8530  146.0400 C   0  0  1  0  0  3  0  0  0  0  0  0
  190.7150  176.1090  147.4260 C   0  0  0  0  0  2  0  0  0  0  0  0
  191.6070  172.7640  143.6820 C   0  0  0  0  0  2  0  0  0  0  0  0
  189.2640  175.6480  147.5070 C   0  0  0  0  0  2  0  0  0  0  0  0
  195.3040  176.7500  143.1970 C   0  0  0  0  0  3  0  0  0  0  0  0
  191.1200  174.3850  145.6000 C   0  0  2  0  0  3  0  0  0  0  0  0
  196.0520  174.9440  141.2280 C   0  0  0  0  0  0  0  0  0  0  0  0
  191.9180  175.6380  142.1050 C   0  0  0  0  0  2  0  0  0  0  0  0
  194.6990  175.2000  141.4470 C   0  0  0  0  0  3  0  0  0  0  0  0
  190.1080  176.2710  143.8160 C   0  0  2  0  0  3  0  0  0  0  0  0
  196.0020  172.2770  142.9750 C   0  0  0  0  0  2  0  0  0  0  0  0
  190.8160  176.8990  145.0240 C   0  0  0  0  0  2  0  0  0  0  0  0
  193.9800  172.2260  144.4130 C   0  0  0  0  0  2  0  0  0  0  0  0
  192.4990  171.8750  144.5450 C   0  0  2  0  0  3  0  0  0  0  0  0
  196.6480  176.4690  142.9500 C   0  0  0  0  0  3  0  0  0  0  0  0
  196.6510  171.9110  141.6400 C   0  0  2  0  0  3  0  0  0  0  0  0
  194.3190  176.1030  142.4500 C   0  0  0  0  0  0  0  0  0  0  0  0
  191.6230  174.2150  144.1560 C   0  0  2  0  0  3  0  0  0  0  0  0
  190.9160  175.1390  143.1430 C   0  0  2  0  0  3  0  0  0  0  0  0
  195.9370  172.5650  140.4580 C   0  0  0  0  0  2  0  0  0  0  0  0
  196.4760  173.9660  140.1810 C   0  0  0  0  0  2  0  0  0  0  0  0
  196.9920  175.5760  141.9820 N   0  0  0  0  0  0  0  0  0  0  0  0
  188.9960  176.6590  141.6700 O   0  0  0  0  0  0  0  0  0  0  0  0
  186.7100  177.4070  141.9850 C   0  0  2  0  0  3  0  0  0  0  0  0
  188.5000  178.2690  143.5150 C   0  0  0  0  0  2  0  0  0  0  0  0
  187.4000  178.6600  142.5380 C   0  0  0  0  0  2  0  0  0  0  0  0
  187.6750  176.2170  141.8940 C   0  0  0  0  0  2  0  0  0  0  0  0
  189.4870  177.2860  142.8460 C   0  0  1  0  0  3  0  0  0  0  0  0
  186.0860  177.6950  140.6570 C   0  0  0  0  0  0  0  0  0  0  0  0
  184.4020  178.2980  140.5870 S   0  0  0  0  0  1  0  0  0  0  0  0
  186.7130  177.5220  139.6220 O   0  0  0  0  0  0  0  0  0  0  0  0
  196.7190  170.3960  141.4720 C   0  0  0  0  0  2  0  0  0  0  0  0
  192.3610  170.0280  137.6460 C   0  0  0  0  0  2  0  0  0  0  0  0
  193.8650  170.8350  139.4240 C   0  0  2  0  0  3  0  0  0  0  0  0
  197.9410  169.6510  139.0490 O   0  0  0  0  0  0  0  0  0  0  0  0
  193.8210  170.2730  137.9900 C   0  0  1  0  0  3  0  0  0  0  0  0
  194.6130  168.9790  137.8060 C   0  0  0  0  0  2  0  0  0  0  0  0
  196.6810  169.6010  139.0780 C   0  0  0  0  0  0  0  0  0  0  0  0
  195.9810  169.9690  140.2880 N   0  0  0  0  0  0  0  0  0  0  0  0
  191.6030  170.1370  138.9510 C   0  0  1  0  0  3  0  0  0  0  0  0
  196.0140  169.2190  137.9060 O   0  0  0  0  0  0  0  0  0  0  0  0
  194.5340  169.8910  140.4180 C   0  0  0  0  0  2  0  0  0  0  0  0
  192.4260  171.0640  139.8450 C   0  0  2  0  0  3  0  0  0  0  0  0
  192.0810  172.5200  139.7010 C   0  0  0  0  0  0  0  0  0  0  0  0
  191.1130  173.0210  140.3350 O   0  0  0  0  0  1  0  0  0  0  0  0
  192.8310  173.3170  138.8470 O   0  0  0  0  0  0  0  0  0  0  0  0
  190.2440  170.6160  138.7230 N   0  0  0  0  0  2  0  0  0  0  0  0
  190.2290  171.2890  137.4350 C   0  0  1  0  0  3  0  0  0  0  0  0
  189.6920  170.3460  136.3790 C   0  0  0  0  0  1  0  0  0  0  0  0
  189.3790  172.4640  137.5080 N   0  0  0  0  0  1  0  0  0  0  0  0
  2 18  1  0  0  0  0
  4  5  1  0  0  0  0
  5  9  1  0  0  0  0
  6 17  1  6  0  0  0
  6  7  1  0  0  0  0
  7  9  1  0  0  0  0
  8 19  1  0  0  0  0
 11  4  1  6  0  0  0
 11  6  1  0  0  0  0
 12 14  2  0  0  0  0
 12 27  1  0  0  0  0
 13  1  1  0  0  0  0
 14 22  1  0  0  0  0
 15 17  1  1  0  0  0
 16  2  1  0  0  0  0
 18 19  1  0  0  0  0
 19  3  1  6  0  0  0
 20 10  1  0  0  0  0
 21 37  1  6  0  0  0
 21 16  1  0  0  0  0
 22  1  1  0  0  0  0
 22 10  2  0  0  0  0
 23  8  1  6  0  0  0
 23 11  1  0  0  0  0
 24 13  1  6  0  0  0
 24 15  1  0  0  0  0
 24 23  1  0  0  0  0
 25 21  1  0  0  0  0
 26 25  1  0  0  0  0
 26 12  1  0  0  0  0
 27 20  2  0  0  0  0
 28 32  1  0  0  0  0
 28 33  1  0  0  0  0
 29 34  1  6  0  0  0
 29 31  1  0  0  0  0
 31 30  1  0  0  0  0
 32 29  1  0  0  0  0
 33 30  1  1  0  0  0
 33 15  1  0  0  0  0
 35 34  1  0  0  0  0
 36 34  2  0  0  0  0
 38 45  1  0  0  0  0
 39 48  1  0  0  0  0
 39 47  1  1  0  0  0
 40 43  2  0  0  0  0
 41 38  1  1  0  0  0
 41 39  1  0  0  0  0
 42 46  1  0  0  0  0
 42 41  1  0  0  0  0
 43 44  1  0  0  0  0
 44 47  1  0  0  0  0
 44 37  1  0  0  0  0
 45 52  1  6  0  0  0
 45 48  1  0  0  0  0
 46 43  1  0  0  0  0
 48 49  1  6  0  0  0
 49 50  1  0  0  0  0
 51 49  2  0  0  0  0
 53 54  1  6  0  0  0
 53 55  1  0  0  0  0
 53 52  1  0  0  0  0
M  END
>  <MODEL>
1

>  <REMARK>
 VINA RESULT:      -6.8      0.000      0.000
  Name = 
  7 active torsions:
  status: ('A' for Active; 'I' for Inactive)
    1  A    between atoms: C_1  and  C_53
    2  A    between atoms: C_8  and  N_22
    3  A    between atoms: C_8  and  C_43
    4  A    between atoms: C_10  and  C_32
    5  A    between atoms: C_11  and  N_29
    6  A    between atoms: N_29  and  C_38
    7  A    between atoms: C_33  and  C_52
                            x       y       z     vdW  Elec       q    Type
                         _______ _______ _______ _____ _____    ______ ____

>  <TORSDO>
F 7

$$$$
=
 OpenBabel11052419243D

 55 61  0  0  1  0  0  0  0  0999 V2000
  190.0310  173.8090  139.9290 O   0  0  0  0  0  0  0  0  0  0  0  0
  191.1670  172.9630  144.4610 C   0  0  0  0  0  2  0  0  0  0  0  0
  193.2320  170.9700  144.2080 O   0  0  0  0  0  1  0  0  0  0  0  0
  192.8840  169.5760  139.9000 C   0  0  0  0  0  2  0  0  0  0  0  0
  192.6540  168.1660  139.3750 C   0  0  0  0  0  2  0  0  0  0  0  0
  190.4770  170.1510  139.2810 C   0  0  1  0  0  3  0  0  0  0  0  0
  190.3240  168.7490  138.6970 C   0  0  0  0  0  2  0  0  0  0  0  0
  192.7190  171.7880  142.0180 C   0  0  0  0  0  2  0  0  0  0  0  0
  191.6620  168.1960  138.2200 C   0  0  0  0  0  2  0  0  0  0  0  0
  187.8700  174.0590  140.9620 C   0  0  0  0  0  3  0  0  0  0  0  0
  191.5650  170.2030  140.3740 C   0  0  2  0  0  3  0  0  0  0  0  0
  188.9410  175.7200  142.9110 C   0  0  0  0  0  0  0  0  0  0  0  0
  191.4440  173.9690  139.9080 C   0  0  0  0  0  2  0  0  0  0  0  0
  189.7680  175.2170  141.9060 C   0  0  0  0  0  3  0  0  0  0  0  0
  191.9150  172.0250  138.2950 C   0  0  2  0  0  3  0  0  0  0  0  0
  189.8460  173.4890  145.0020 C   0  0  0  0  0  2  0  0  0  0  0  0
  190.6230  171.2060  138.1720 C   0  0  0  0  0  2  0  0  0  0  0  0
  190.9440  171.5990  143.8260 C   0  0  0  0  0  2  0  0  0  0  0  0
  192.2290  171.0150  143.2410 C   0  0  2  0  0  3  0  0  0  0  0  0
  187.0740  174.5800  141.9820 C   0  0  0  0  0  3  0  0  0  0  0  0
  189.9950  174.8360  145.7100 C   0  0  2  0  0  3  0  0  0  0  0  0
  189.2300  174.3680  140.9280 C   0  0  0  0  0  0  0  0  0  0  0  0
  191.7560  171.6570  140.8410 C   0  0  2  0  0  3  0  0  0  0  0  0
  192.1370  172.6250  139.7020 C   0  0  2  0  0  3  0  0  0  0  0  0
  190.5840  175.9050  144.7890 C   0  0  0  0  0  2  0  0  0  0  0  0
  189.5000  176.6060  143.9750 C   0  0  0  0  0  2  0  0  0  0  0  0
  187.6210  175.3890  142.9300 N   0  0  0  0  0  0  0  0  0  0  0  0
  193.1890  173.9300  137.4370 O   0  0  0  0  0  0  0  0  0  0  0  0
  194.6140  173.2740  135.5860 C   0  0  2  0  0  3  0  0  0  0  0  0
  192.3090  172.3020  135.7590 C   0  0  0  0  0  2  0  0  0  0  0  0
  193.2710  173.0810  134.8720 C   0  0  0  0  0  2  0  0  0  0  0  0
  194.4430  173.3720  137.1070 C   0  0  0  0  0  2  0  0  0  0  0  0
  192.1650  172.9950  137.1330 C   0  0  1  0  0  3  0  0  0  0  0  0
  195.3260  174.4740  135.0480 C   0  0  0  0  0  0  0  0  0  0  0  0
  197.0280  174.3220  134.5140 S   0  0  0  0  0  1  0  0  0  0  0  0
  194.7580  175.5540  134.9690 O   0  0  0  0  0  0  0  0  0  0  0  0
  190.8240  174.6870  146.9810 C   0  0  0  0  0  2  0  0  0  0  0  0
  195.7300  176.9580  144.8470 C   0  0  0  0  0  2  0  0  0  0  0  0
  193.5270  175.8660  145.0210 C   0  0  2  0  0  3  0  0  0  0  0  0
  191.0800  177.1850  148.2510 O   0  0  0  0  0  0  0  0  0  0  0  0
  194.3420  177.1010  145.4500 C   0  0  1  0  0  3  0  0  0  0  0  0
  194.4590  177.2700  146.9650 C   0  0  0  0  0  2  0  0  0  0  0  0
  192.0830  176.7850  147.5980 C   0  0  0  0  0  0  0  0  0  0  0  0
  192.0270  175.5100  146.9180 N   0  0  0  0  0  0  0  0  0  0  0  0
  195.8230  175.5310  144.3520 C   0  0  1  0  0  3  0  0  0  0  0  0
  193.2030  177.6250  147.5380 O   0  0  0  0  0  0  0  0  0  0  0  0
  193.1570  174.9560  146.1880 C   0  0  0  0  0  2  0  0  0  0  0  0
  194.3910  175.0950  144.0410 C   0  0  2  0  0  3  0  0  0  0  0  0
  193.9510  175.3910  142.6350 C   0  0  0  0  0  0  0  0  0  0  0  0
  194.2790  174.6340  141.6820 O   0  0  0  0  0  0  0  0  0  0  0  0
  193.1860  176.5220  142.3840 O   0  0  0  0  0  1  0  0  0  0  0  0
  196.7140  175.4370  143.2020 N   0  0  0  0  0  2  0  0  0  0  0  0
  197.6400  174.3460  143.4550 C   0  0  1  0  0  3  0  0  0  0  0  0
  197.7080  174.0780  144.9430 C   0  0  0  0  0  1  0  0  0  0  0  0
  197.1830  173.1500  142.7720 N   0  0  0  0  0  1  0  0  0  0  0  0
  1 22  1  0  0  0  0
  2 16  1  0  0  0  0
  5  4  1  0  0  0  0
  6 17  1  6  0  0  0
  6 11  1  0  0  0  0
  7  6  1  0  0  0  0
  8 19  1  0  0  0  0
  9  7  1  0  0  0  0
  9  5  1  0  0  0  0
 10 20  1  0  0  0  0
 11  4  1  6  0  0  0
 11 23  1  0  0  0  0
 12 27  1  0  0  0  0
 12 26  1  0  0  0  0
 13  1  1  0  0  0  0
 14 12  2  0  0  0  0
 15 17  1  1  0  0  0
 15 24  1  0  0  0  0
 16 21  1  0  0  0  0
 18  2  1  0  0  0  0
 19 18  1  0  0  0  0
 19  3  1  1  0  0  0
 20 27  2  0  0  0  0
 21 37  1  1  0  0  0
 22 10  2  0  0  0  0
 22 14  1  0  0  0  0
 23  8  1  1  0  0  0
 24 13  1  6  0  0  0
 24 23  1  0  0  0  0
 25 21  1  0  0  0  0
 26 25  1  0  0  0  0
 29 34  1  6  0  0  0
 29 32  1  0  0  0  0
 31 29  1  0  0  0  0
 31 30  1  0  0  0  0
 32 28  1  0  0  0  0
 33 30  1  6  0  0  0
 33 28  1  0  0  0  0
 33 15  1  0  0  0  0
 35 34  1  0  0  0  0
 36 34  2  0  0  0  0
 39 41  1  0  0  0  0
 39 47  1  1  0  0  0
 41 38  1  6  0  0  0
 41 42  1  0  0  0  0
 42 46  1  0  0  0  0
 43 40  2  0  0  0  0
 44 37  1  0  0  0  0
 44 43  1  0  0  0  0
 45 52  1  6  0  0  0
 45 38  1  0  0  0  0
 46 43  1  0  0  0  0
 47 44  1  0  0  0  0
 48 49  1  6  0  0  0
 48 45  1  0  0  0  0
 48 39  1  0  0  0  0
 50 49  2  0  0  0  0
 51 49  1  0  0  0  0
 52 53  1  0  0  0  0
 53 54  1  1  0  0  0
 55 53  1  0  0  0  0
M  END
>  <MODEL>
2

>  <REMARK>
 VINA RESULT:      -6.8      3.402      8.669
  Name = 
  7 active torsions:
  status: ('A' for Active; 'I' for Inactive)
    1  A    between atoms: C_1  and  C_53
    2  A    between atoms: C_8  and  N_22
    3  A    between atoms: C_8  and  C_43
    4  A    between atoms: C_10  and  C_32
    5  A    between atoms: C_11  and  N_29
    6  A    between atoms: N_29  and  C_38
    7  A    between atoms: C_33  and  C_52
                            x       y       z     vdW  Elec       q    Type
                         _______ _______ _______ _____ _____    ______ ____

>  <TORSDO>
F 7

$$$$
=
 OpenBabel11052419243D

 55 61  0  0  1  0  0  0  0  0999 V2000
  193.2010  171.5660  140.3410 O   0  0  0  0  0  0  0  0  0  0  0  0
  194.3920  174.7420  143.6630 C   0  0  0  0  0  2  0  0  0  0  0  0
  195.6730  176.7990  142.1060 O   0  0  0  0  0  1  0  0  0  0  0  0
  196.4220  174.8210  138.0870 C   0  0  0  0  0  2  0  0  0  0  0  0
  197.7420  174.6410  137.3500 C   0  0  0  0  0  2  0  0  0  0  0  0
  196.4460  172.3310  138.6450 C   0  0  1  0  0  3  0  0  0  0  0  0
  197.7280  172.1920  137.8270 C   0  0  0  0  0  2  0  0  0  0  0  0
  194.6990  175.2220  140.5920 C   0  0  0  0  0  2  0  0  0  0  0  0
  197.8080  173.2500  136.7340 C   0  0  0  0  0  2  0  0  0  0  0  0
  193.7200  170.0900  142.1720 C   0  0  0  0  0  3  0  0  0  0  0  0
  196.2660  173.7640  139.1900 C   0  0  2  0  0  3  0  0  0  0  0  0
  192.1520  171.5970  143.8950 C   0  0  0  0  0  0  0  0  0  0  0  0
  192.6550  172.7640  139.8040 C   0  0  0  0  0  2  0  0  0  0  0  0
  192.2450  171.9630  142.5520 C   0  0  0  0  0  3  0  0  0  0  0  0
  194.1190  172.8090  137.6930 C   0  0  2  0  0  3  0  0  0  0  0  0
  194.3420  173.7310  144.8000 C   0  0  0  0  0  2  0  0  0  0  0  0
  195.2330  171.7720  137.8840 C   0  0  0  0  0  2  0  0  0  0  0  0
  195.6490  174.5100  142.8390 C   0  0  0  0  0  2  0  0  0  0  0  0
  195.7570  175.4800  141.6630 C   0  0  2  0  0  3  0  0  0  0  0  0
  193.6040  169.7540  143.5210 C   0  0  0  0  0  3  0  0  0  0  0  0
  193.1330  173.9330  145.7140 C   0  0  2  0  0  3  0  0  0  0  0  0
  193.0460  171.2100  141.6830 C   0  0  0  0  0  0  0  0  0  0  0  0
  194.9070  173.8760  139.9020 C   0  0  2  0  0  3  0  0  0  0  0  0
  193.7060  173.5230  139.0000 C   0  0  2  0  0  3  0  0  0  0  0  0
  191.8140  173.8430  144.9460 C   0  0  0  0  0  2  0  0  0  0  0  0
  191.3220  172.4020  144.8410 C   0  0  0  0  0  2  0  0  0  0  0  0
  192.8330  170.5110  144.3490 N   0  0  0  0  0  0  0  0  0  0  0  0
  191.7300  172.9630  137.1830 O   0  0  0  0  0  0  0  0  0  0  0  0
  191.3570  173.9450  134.9970 C   0  0  2  0  0  3  0  0  0  0  0  0
  193.2540  172.3350  135.3070 C   0  0  0  0  0  2  0  0  0  0  0  0
  191.9900  172.6350  134.5130 C   0  0  0  0  0  2  0  0  0  0  0  0
  191.6140  174.1860  136.4900 C   0  0  0  0  0  2  0  0  0  0  0  0
  192.9490  172.3310  136.8220 C   0  0  1  0  0  3  0  0  0  0  0  0
  189.8920  173.9620  134.6950 C   0  0  0  0  0  0  0  0  0  0  0  0
  189.0360  175.5300  134.5800 S   0  0  0  0  0  1  0  0  0  0  0  0
  189.2770  172.9200  134.5270 O   0  0  0  0  0  0  0  0  0  0  0  0
  193.2430  175.2560  146.4660 C   0  0  0  0  0  2  0  0  0  0  0  0
  188.1640  177.4010  144.6280 C   0  0  0  0  0  2  0  0  0  0  0  0
  190.2280  176.0640  144.7950 C   0  0  2  0  0  3  0  0  0  0  0  0
  191.6100  175.3190  148.7570 O   0  0  0  0  0  0  0  0  0  0  0  0
  188.9900  176.5470  145.5760 C   0  0  1  0  0  3  0  0  0  0  0  0
  189.3250  177.3540  146.8300 C   0  0  0  0  0  2  0  0  0  0  0  0
  191.1680  175.9200  147.7390 C   0  0  0  0  0  0  0  0  0  0  0  0
  191.9510  175.9310  146.5240 N   0  0  0  0  0  0  0  0  0  0  0  0
  189.0520  177.6740  143.4330 C   0  0  1  0  0  3  0  0  0  0  0  0
  189.9070  176.5250  147.8310 O   0  0  0  0  0  0  0  0  0  0  0  0
  191.5360  176.6430  145.3250 C   0  0  0  0  0  2  0  0  0  0  0  0
  190.0330  176.5030  143.3570 C   0  0  2  0  0  3  0  0  0  0  0  0
  189.5430  175.3450  142.5340 C   0  0  0  0  0  0  0  0  0  0  0  0
  188.8660  174.4190  143.0600 O   0  0  0  0  0  1  0  0  0  0  0  0
  189.8530  175.2890  141.1830 O   0  0  0  0  0  0  0  0  0  0  0  0
  188.2570  177.8360  142.2220 N   0  0  0  0  0  2  0  0  0  0  0  0
  186.8570  177.7510  142.6040 C   0  0  1  0  0  3  0  0  0  0  0  0
  186.2810  179.1460  142.7230 C   0  0  0  0  0  1  0  0  0  0  0  0
  186.1200  177.0100  141.5970 N   0  0  0  0  0  1  0  0  0  0  0  0
  1 22  1  0  0  0  0
  2 16  1  0  0  0  0
  5  4  1  0  0  0  0
  6  7  1  6  0  0  0
  6 11  1  0  0  0  0
  8 19  1  0  0  0  0
  9  5  1  0  0  0  0
  9  7  1  0  0  0  0
 10 20  1  0  0  0  0
 11  4  1  6  0  0  0
 11 23  1  0  0  0  0
 12 27  1  0  0  0  0
 12 26  1  0  0  0  0
 13  1  1  0  0  0  0
 14 12  2  0  0  0  0
 15 17  1  1  0  0  0
 15 24  1  0  0  0  0
 16 21  1  0  0  0  0
 17  6  1  0  0  0  0
 18  2  1  0  0  0  0
 19  3  1  1  0  0  0
 19 18  1  0  0  0  0
 20 27  2  0  0  0  0
 21 37  1  6  0  0  0
 22 10  2  0  0  0  0
 22 14  1  0  0  0  0
 23  8  1  6  0  0  0
 24 13  1  1  0  0  0
 24 23  1  0  0  0  0
 25 21  1  0  0  0  0
 26 25  1  0  0  0  0
 29 34  1  1  0  0  0
 29 32  1  0  0  0  0
 31 29  1  0  0  0  0
 31 30  1  0  0  0  0
 32 28  1  0  0  0  0
 33 30  1  6  0  0  0
 33 28  1  0  0  0  0
 33 15  1  0  0  0  0
 35 34  1  0  0  0  0
 36 34  2  0  0  0  0
 37 44  1  0  0  0  0
 39 47  1  1  0  0  0
 39 41  1  0  0  0  0
 41 38  1  6  0  0  0
 41 42  1  0  0  0  0
 42 46  1  0  0  0  0
 43 46  1  0  0  0  0
 43 40  2  0  0  0  0
 44 43  1  0  0  0  0
 45 52  1  6  0  0  0
 45 38  1  0  0  0  0
 47 44  1  0  0  0  0
 48 49  1  6  0  0  0
 48 45  1  0  0  0  0
 48 39  1  0  0  0  0
 49 50  1  0  0  0  0
 51 49  2  0  0  0  0
 52 53  1  0  0  0  0
 53 54  1  6  0  0  0
 55 53  1  0  0  0  0
M  END
>  <MODEL>
3

>  <REMARK>
 VINA RESULT:      -6.5      3.187      8.473
  Name = 
  7 active torsions:
  status: ('A' for Active; 'I' for Inactive)
    1  A    between atoms: C_1  and  C_53
    2  A    between atoms: C_8  and  N_22
    3  A    between atoms: C_8  and  C_43
    4  A    between atoms: C_10  and  C_32
    5  A    between atoms: C_11  and  N_29
    6  A    between atoms: N_29  and  C_38
    7  A    between atoms: C_33  and  C_52
                            x       y       z     vdW  Elec       q    Type
                         _______ _______ _______ _____ _____    ______ ____

>  <TORSDO>
F 7

$$$$
=
 OpenBabel11052419243D

 55 61  0  0  1  0  0  0  0  0999 V2000
  193.9700  171.9480  144.0810 O   0  0  0  0  0  0  0  0  0  0  0  0
  190.1510  174.7560  143.8010 C   0  0  0  0  0  2  0  0  0  0  0  0
  188.2540  173.0680  142.4410 O   0  0  0  0  0  1  0  0  0  0  0  0
  190.7900  169.6780  140.7960 C   0  0  0  0  0  2  0  0  0  0  0  0
  190.9360  169.2170  139.3530 C   0  0  0  0  0  2  0  0  0  0  0  0
  193.1260  170.6960  140.6590 C   0  0  1  0  0  3  0  0  0  0  0  0
  193.2500  170.1420  139.2410 C   0  0  0  0  0  2  0  0  0  0  0  0
  190.1730  171.7430  142.9790 C   0  0  0  0  0  2  0  0  0  0  0  0
  192.3940  168.8950  139.0540 C   0  0  0  0  0  2  0  0  0  0  0  0
  195.0360  174.0870  143.7800 C   0  0  0  0  0  3  0  0  0  0  0  0
  191.6530  170.9210  141.0600 C   0  0  2  0  0  3  0  0  0  0  0  0
  193.4530  175.2090  145.7640 C   0  0  0  0  0  0  0  0  0  0  0  0
  192.9550  171.1110  144.6220 C   0  0  0  0  0  2  0  0  0  0  0  0
  193.3150  173.8550  145.4580 C   0  0  0  0  0  3  0  0  0  0  0  0
  193.1000  169.3000  142.8040 C   0  0  2  0  0  3  0  0  0  0  0  0
  190.9500  176.0390  143.9720 C   0  0  0  0  0  2  0  0  0  0  0  0
  193.9490  169.8660  141.6580 C   0  0  0  0  0  2  0  0  0  0  0  0
  190.3700  174.2080  142.4000 C   0  0  0  0  0  2  0  0  0  0  0  0
  189.6110  172.9040  142.1620 C   0  0  2  0  0  3  0  0  0  0  0  0
  195.1460  175.4370  144.1130 C   0  0  0  0  0  3  0  0  0  0  0  0
  190.7390  176.6860  145.3410 C   0  0  2  0  0  3  0  0  0  0  0  0
  194.1060  173.2890  144.4480 C   0  0  0  0  0  0  0  0  0  0  0  0
  191.5830  171.3650  142.5310 C   0  0  2  0  0  3  0  0  0  0  0  0
  192.2260  170.3610  143.5100 C   0  0  2  0  0  3  0  0  0  0  0  0
  191.1170  175.7440  146.4840 C   0  0  0  0  0  2  0  0  0  0  0  0
  192.6020  175.8350  146.8200 C   0  0  0  0  0  2  0  0  0  0  0  0
  194.3560  175.9670  145.0860 N   0  0  0  0  0  0  0  0  0  0  0  0
  195.2620  168.4360  143.5590 O   0  0  0  0  0  0  0  0  0  0  0  0
  195.7310  169.1100  145.8420 C   0  0  2  0  0  3  0  0  0  0  0  0
  193.3960  168.4400  145.2200 C   0  0  0  0  0  2  0  0  0  0  0  0
  194.5650  168.1660  146.1570 C   0  0  0  0  0  2  0  0  0  0  0  0
  195.7810  169.4800  144.3540 C   0  0  0  0  0  2  0  0  0  0  0  0
  193.8570  168.3550  143.7470 C   0  0  1  0  0  3  0  0  0  0  0  0
  197.0270  168.5100  146.2880 C   0  0  0  0  0  0  0  0  0  0  0  0
  197.2850  168.1670  148.0260 S   0  0  0  0  0  1  0  0  0  0  0  0
  197.9070  168.2540  145.4810 O   0  0  0  0  0  0  0  0  0  0  0  0
  189.3040  177.1810  145.4870 C   0  0  0  0  0  2  0  0  0  0  0  0
  185.3120  178.6700  141.5330 C   0  0  0  0  0  2  0  0  0  0  0  0
  186.4840  178.3210  143.6730 C   0  0  2  0  0  3  0  0  0  0  0  0
  190.7350  178.5540  143.4910 O   0  0  0  0  0  0  0  0  0  0  0  0
  186.6320  178.8970  142.2510 C   0  0  1  0  0  3  0  0  0  0  0  0
  187.7680  178.2690  141.4440 C   0  0  0  0  0  2  0  0  0  0  0  0
  189.5430  178.2500  143.2130 C   0  0  0  0  0  0  0  0  0  0  0  0
  188.7430  177.5430  144.1890 N   0  0  0  0  0  0  0  0  0  0  0  0
  184.5300  177.7050  142.3970 C   0  0  1  0  0  3  0  0  0  0  0  0
  189.0380  178.6480  141.9690 O   0  0  0  0  0  0  0  0  0  0  0  0
  187.3780  177.1120  143.9270 C   0  0  0  0  0  2  0  0  0  0  0  0
  185.0330  177.9100  143.8260 C   0  0  2  0  0  3  0  0  0  0  0  0
  184.2850  178.9640  144.5940 C   0  0  0  0  0  0  0  0  0  0  0  0
  184.3100  180.1700  144.2280 O   0  0  0  0  0  0  0  0  0  0  0  0
  183.5710  178.6030  145.7280 O   0  0  0  0  0  1  0  0  0  0  0  0
  183.0960  177.9270  142.2560 N   0  0  0  0  0  2  0  0  0  0  0  0
  182.8750  178.5310  140.9520 C   0  0  1  0  0  3  0  0  0  0  0  0
  182.9210  177.4590  139.8850 C   0  0  0  0  0  1  0  0  0  0  0  0
  181.5760  179.1780  140.9270 N   0  0  0  0  0  1  0  0  0  0  0  0
  1 22  1  0  0  0  0
  1 13  1  0  0  0  0
  2 16  1  0  0  0  0
  5  4  1  0  0  0  0
  6  7  1  6  0  0  0
  6 11  1  0  0  0  0
  6 17  1  0  0  0  0
  9  7  1  0  0  0  0
  9  5  1  0  0  0  0
 10 20  2  0  0  0  0
 10 22  1  0  0  0  0
 11  4  1  1  0  0  0
 11 23  1  0  0  0  0
 12 26  1  0  0  0  0
 14 12  1  0  0  0  0
 15 17  1  1  0  0  0
 15 24  1  0  0  0  0
 15 33  1  0  0  0  0
 16 21  1  0  0  0  0
 18  2  1  0  0  0  0
 19 18  1  0  0  0  0
 19  3  1  1  0  0  0
 19  8  1  0  0  0  0
 20 27  1  0  0  0  0
 21 37  1  1  0  0  0
 21 25  1  0  0  0  0
 22 14  2  0  0  0  0
 23  8  1  1  0  0  0
 23 24  1  0  0  0  0
 24 13  1  1  0  0  0
 25 26  1  0  0  0  0
 27 12  2  0  0  0  0
 28 33  1  0  0  0  0
 28 32  1  0  0  0  0
 29 31  1  0  0  0  0
 29 34  1  6  0  0  0
 30 31  1  0  0  0  0
 32 29  1  0  0  0  0
 33 30  1  1  0  0  0
 34 35  1  0  0  0  0
 36 34  2  0  0  0  0
 38 41  1  0  0  0  0
 38 45  1  0  0  0  0
 39 48  1  0  0  0  0
 39 47  1  6  0  0  0
 41 42  1  6  0  0  0
 41 39  1  0  0  0  0
 42 46  1  0  0  0  0
 43 40  2  0  0  0  0
 43 44  1  0  0  0  0
 44 37  1  0  0  0  0
 45 52  1  1  0  0  0
 45 48  1  0  0  0  0
 46 43  1  0  0  0  0
 47 44  1  0  0  0  0
 48 49  1  6  0  0  0
 49 51  1  0  0  0  0
 50 49  2  0  0  0  0
 53 54  1  6  0  0  0
 53 52  1  0  0  0  0
 55 53  1  0  0  0  0
M  END
>  <MODEL>
4

>  <REMARK>
 VINA RESULT:      -6.2      4.280      9.686
  Name = 
  7 active torsions:
  status: ('A' for Active; 'I' for Inactive)
    1  A    between atoms: C_1  and  C_53
    2  A    between atoms: C_8  and  N_22
    3  A    between atoms: C_8  and  C_43
    4  A    between atoms: C_10  and  C_32
    5  A    between atoms: C_11  and  N_29
    6  A    between atoms: N_29  and  C_38
    7  A    between atoms: C_33  and  C_52
                            x       y       z     vdW  Elec       q    Type
                         _______ _______ _______ _____ _____    ______ ____

>  <TORSDO>
F 7

$$$$
=
 OpenBabel11052419243D

 55 61  0  0  1  0  0  0  0  0999 V2000
  193.9270  172.1610  138.7280 O   0  0  0  0  0  0  0  0  0  0  0  0
  191.0130  172.1190  142.4760 C   0  0  0  0  0  2  0  0  0  0  0  0
  192.8380  171.6770  144.6600 O   0  0  0  0  0  1  0  0  0  0  0  0
  196.6720  170.3400  142.6270 C   0  0  0  0  0  2  0  0  0  0  0  0
  197.4600  169.0550  142.8380 C   0  0  0  0  0  2  0  0  0  0  0  0
  195.8690  169.4260  140.3840 C   0  0  1  0  0  3  0  0  0  0  0  0
  196.7380  168.1910  140.6110 C   0  0  0  0  0  2  0  0  0  0  0  0
  194.1280  172.0520  142.6810 C   0  0  0  0  0  2  0  0  0  0  0  0
  197.9360  168.5100  141.4990 C   0  0  0  0  0  2  0  0  0  0  0  0
  191.9880  171.1220  137.7470 C   0  0  0  0  0  3  0  0  0  0  0  0
  195.4620  170.0930  141.7150 C   0  0  2  0  0  3  0  0  0  0  0  0
  190.3420  173.0950  138.7940 C   0  0  0  0  0  0  0  0  0  0  0  0
  194.5500  173.1050  139.5900 C   0  0  0  0  0  2  0  0  0  0  0  0
  191.7180  173.1600  139.0140 C   0  0  0  0  0  3  0  0  0  0  0  0
  196.7330  171.7870  139.9040 C   0  0  2  0  0  3  0  0  0  0  0  0
  189.7790  171.7890  141.6480 C   0  0  0  0  0  2  0  0  0  0  0  0
  196.5010  170.3740  139.3520 C   0  0  0  0  0  2  0  0  0  0  0  0
  191.8780  170.8760  142.6070 C   0  0  0  0  0  2  0  0  0  0  0  0
  193.1500  171.1370  143.4130 C   0  0  2  0  0  3  0  0  0  0  0  0
  190.6080  171.0900  137.5470 C   0  0  0  0  0  3  0  0  0  0  0  0
  188.8250  172.9760  141.5160 C   0  0  2  0  0  3  0  0  0  0  0  0
  192.5490  172.1580  138.4960 C   0  0  0  0  0  0  0  0  0  0  0  0
  194.6900  171.3920  141.4230 C   0  0  2  0  0  3  0  0  0  0  0  0
  195.4840  172.4040  140.5720 C   0  0  2  0  0  3  0  0  0  0  0  0
  189.5040  174.1900  140.8830 C   0  0  0  0  0  2  0  0  0  0  0  0
  189.4370  174.1410  139.3590 C   0  0  0  0  0  2  0  0  0  0  0  0
  189.8190  172.0660  138.0740 N   0  0  0  0  0  0  0  0  0  0  0  0
  197.6430  172.1510  137.6610 O   0  0  0  0  0  0  0  0  0  0  0  0
  196.4570  173.9250  136.5070 C   0  0  2  0  0  3  0  0  0  0  0  0
  196.9550  174.1760  138.9520 C   0  0  0  0  0  2  0  0  0  0  0  0
  197.1220  174.8020  137.5740 C   0  0  0  0  0  2  0  0  0  0  0  0
  196.5040  172.4370  136.8810 C   0  0  0  0  0  2  0  0  0  0  0  0
  197.4860  172.7250  138.9510 C   0  0  1  0  0  3  0  0  0  0  0  0
  197.0820  174.1610  135.1690 C   0  0  0  0  0  0  0  0  0  0  0  0
  197.1540  175.8250  134.5130 S   0  0  0  0  0  1  0  0  0  0  0  0
  197.5420  173.2320  134.5220 O   0  0  0  0  0  0  0  0  0  0  0  0
  188.2160  173.3300  142.8700 C   0  0  0  0  0  2  0  0  0  0  0  0
  191.6020  177.8610  144.2060 C   0  0  0  0  0  2  0  0  0  0  0  0
  190.7940  175.7210  143.2880 C   0  0  2  0  0  3  0  0  0  0  0  0
  186.6490  175.5990  142.3060 O   0  0  0  0  0  0  0  0  0  0  0  0
  190.4740  177.2230  143.4110 C   0  0  1  0  0  3  0  0  0  0  0  0
  189.1380  177.5180  144.0940 C   0  0  0  0  0  2  0  0  0  0  0  0
  187.7210  175.8040  142.9390 C   0  0  0  0  0  0  0  0  0  0  0  0
  188.5790  174.6870  143.2660 N   0  0  0  0  0  0  0  0  0  0  0  0
  192.3880  176.7150  144.8030 C   0  0  1  0  0  3  0  0  0  0  0  0
  188.0450  177.1260  143.2680 O   0  0  0  0  0  0  0  0  0  0  0  0
  189.8050  174.8330  144.0350 C   0  0  0  0  0  2  0  0  0  0  0  0
  192.1810  175.5240  143.8690 C   0  0  2  0  0  3  0  0  0  0  0  0
  193.1890  175.4330  142.7570 C   0  0  0  0  0  0  0  0  0  0  0  0
  192.8250  175.4760  141.5500 O   0  0  0  0  0  0  0  0  0  0  0  0
  194.5330  175.2860  143.0660 O   0  0  0  0  0  1  0  0  0  0  0  0
  193.7910  177.0790  144.9670 N   0  0  0  0  0  2  0  0  0  0  0  0
  194.1690  176.7540  146.3330 C   0  0  1  0  0  3  0  0  0  0  0  0
  192.9230  176.6270  147.1840 C   0  0  0  0  0  1  0  0  0  0  0  0
  194.8950  175.4970  146.3540 N   0  0  0  0  0  1  0  0  0  0  0  0
  1 13  1  0  0  0  0
  2 18  1  0  0  0  0
  4  5  1  0  0  0  0
  6 17  1  6  0  0  0
  6  7  1  0  0  0  0
  6 11  1  0  0  0  0
  7  9  1  0  0  0  0
  8 19  1  0  0  0  0
  9  5  1  0  0  0  0
 10 22  1  0  0  0  0
 11  4  1  1  0  0  0
 12 14  1  0  0  0  0
 12 26  1  0  0  0  0
 15 17  1  6  0  0  0
 15 24  1  0  0  0  0
 16  2  1  0  0  0  0
 18 19  1  0  0  0  0
 19  3  1  1  0  0  0
 20 10  2  0  0  0  0
 20 27  1  0  0  0  0
 21 16  1  0  0  0  0
 21 37  1  1  0  0  0
 22  1  1  0  0  0  0
 22 14  2  0  0  0  0
 23 11  1  0  0  0  0
 23  8  1  1  0  0  0
 24 13  1  6  0  0  0
 24 23  1  0  0  0  0
 25 21  1  0  0  0  0
 26 25  1  0  0  0  0
 27 12  2  0  0  0  0
 28 33  1  0  0  0  0
 29 34  1  6  0  0  0
 29 32  1  0  0  0  0
 29 31  1  0  0  0  0
 31 30  1  0  0  0  0
 32 28  1  0  0  0  0
 33 30  1  6  0  0  0
 33 15  1  0  0  0  0
 35 34  1  0  0  0  0
 36 34  2  0  0  0  0
 37 44  1  0  0  0  0
 38 45  1  0  0  0  0
 39 41  1  0  0  0  0
 39 48  1  0  0  0  0
 39 47  1  1  0  0  0
 40 43  2  0  0  0  0
 41 42  1  1  0  0  0
 41 38  1  0  0  0  0
 43 44  1  0  0  0  0
 43 46  1  0  0  0  0
 44 47  1  0  0  0  0
 45 52  1  6  0  0  0
 46 42  1  0  0  0  0
 48 49  1  6  0  0  0
 48 45  1  0  0  0  0
 49 51  1  0  0  0  0
 50 49  2  0  0  0  0
 52 53  1  0  0  0  0
 53 55  1  0  0  0  0
 53 54  1  1  0  0  0
M  END
>  <MODEL>
5

>  <REMARK>
 VINA RESULT:      -6.0      3.122      9.044
  Name = 
  7 active torsions:
  status: ('A' for Active; 'I' for Inactive)
    1  A    between atoms: C_1  and  C_53
    2  A    between atoms: C_8  and  N_22
    3  A    between atoms: C_8  and  C_43
    4  A    between atoms: C_10  and  C_32
    5  A    between atoms: C_11  and  N_29
    6  A    between atoms: N_29  and  C_38
    7  A    between atoms: C_33  and  C_52
                            x       y       z     vdW  Elec       q    Type
                         _______ _______ _______ _____ _____    ______ ____

>  <TORSDO>
F 7

$$$$
=
 OpenBabel11052419243D

 55 61  0  0  1  0  0  0  0  0999 V2000
  193.0360  176.2670  142.7080 O   0  0  0  0  0  0  0  0  0  0  0  0
  194.7980  171.8910  143.2460 C   0  0  0  0  0  2  0  0  0  0  0  0
  192.5490  170.4610  144.3400 O   0  0  0  0  0  1  0  0  0  0  0  0
  189.6780  173.7430  145.6070 C   0  0  0  0  0  2  0  0  0  0  0  0
  189.0840  174.0040  146.9840 C   0  0  0  0  0  2  0  0  0  0  0  0
  191.1950  175.7700  145.9260 C   0  0  1  0  0  3  0  0  0  0  0  0
  190.5110  176.0330  147.2650 C   0  0  0  0  0  2  0  0  0  0  0  0
  191.7970  172.6360  143.6860 C   0  0  0  0  0  2  0  0  0  0  0  0
  189.0830  175.4990  147.2750 C   0  0  0  0  0  2  0  0  0  0  0  0
  195.3100  176.7950  143.2990 C   0  0  0  0  0  3  0  0  0  0  0  0
  191.1130  174.2830  145.5210 C   0  0  2  0  0  3  0  0  0  0  0  0
  196.2670  174.9760  141.4340 C   0  0  0  0  0  0  0  0  0  0  0  0
  192.0570  175.4770  142.0430 C   0  0  0  0  0  2  0  0  0  0  0  0
  194.8920  175.1670  141.5650 C   0  0  0  0  0  3  0  0  0  0  0  0
  190.1170  176.0620  143.6230 C   0  0  2  0  0  3  0  0  0  0  0  0
  196.2460  172.3600  143.2570 C   0  0  0  0  0  2  0  0  0  0  0  0
  190.7180  176.7600  144.8500 C   0  0  0  0  0  2  0  0  0  0  0  0
  194.1450  172.2440  144.5730 C   0  0  0  0  0  2  0  0  0  0  0  0
  192.6780  171.8190  144.6280 C   0  0  2  0  0  3  0  0  0  0  0  0
  196.6790  176.5780  143.1400 C   0  0  0  0  0  3  0  0  0  0  0  0
  196.9920  171.9910  141.9750 C   0  0  2  0  0  3  0  0  0  0  0  0
  194.4070  176.0770  142.5150 C   0  0  0  0  0  0  0  0  0  0  0  0
  191.7110  174.0990  144.1160 C   0  0  2  0  0  3  0  0  0  0  0  0
  191.0210  174.9560  143.0340 C   0  0  2  0  0  3  0  0  0  0  0  0
  196.3200  172.5750  140.7320 C   0  0  0  0  0  2  0  0  0  0  0  0
  196.8020  173.9930  140.4450 C   0  0  0  0  0  2  0  0  0  0  0  0
  197.1260  175.6770  142.2230 N   0  0  0  0  0  0  0  0  0  0  0  0
  188.7900  176.3130  141.5810 O   0  0  0  0  0  0  0  0  0  0  0  0
  186.6770  177.4150  142.0340 C   0  0  2  0  0  3  0  0  0  0  0  0
  188.7460  178.2100  143.2060 C   0  0  0  0  0  2  0  0  0  0  0  0
  187.5840  178.6190  142.3110 C   0  0  0  0  0  2  0  0  0  0  0  0
  187.4650  176.0980  142.0150 C   0  0  0  0  0  2  0  0  0  0  0  0
  189.5060  177.0160  142.5870 C   0  0  1  0  0  3  0  0  0  0  0  0
  185.9250  177.6080  140.7550 C   0  0  0  0  0  0  0  0  0  0  0  0
  184.2770  178.3050  140.8000 S   0  0  0  0  0  1  0  0  0  0  0  0
  186.4230  177.2950  139.6850 O   0  0  0  0  0  0  0  0  0  0  0  0
  197.1470  170.4780  141.8580 C   0  0  0  0  0  2  0  0  0  0  0  0
  194.1420  168.7190  137.2050 C   0  0  0  0  0  2  0  0  0  0  0  0
  195.9870  169.3930  138.6940 C   0  0  2  0  0  3  0  0  0  0  0  0
  195.4570  168.4410  142.8130 O   0  0  0  0  0  0  0  0  0  0  0  0
  194.7620  168.4670  138.5700 C   0  0  1  0  0  3  0  0  0  0  0  0
  193.7090  168.6830  139.6570 C   0  0  0  0  0  2  0  0  0  0  0  0
  195.2270  168.8550  141.6440 C   0  0  0  0  0  0  0  0  0  0  0  0
  196.0540  169.9010  141.0840 N   0  0  0  0  0  0  0  0  0  0  0  0
  194.7910  169.9810  136.6810 C   0  0  1  0  0  3  0  0  0  0  0  0
  194.1880  168.2470  140.9260 O   0  0  0  0  0  0  0  0  0  0  0  0
  195.8220  170.4670  139.7640 C   0  0  0  0  0  2  0  0  0  0  0  0
  196.1670  170.0580  137.3420 C   0  0  2  0  0  3  0  0  0  0  0  0
  197.2560  169.3620  136.5760 C   0  0  0  0  0  0  0  0  0  0  0  0
  197.5630  168.1660  136.8300 O   0  0  0  0  0  1  0  0  0  0  0  0
  197.9410  170.0530  135.5860 O   0  0  0  0  0  0  0  0  0  0  0  0
  194.8550  169.9640  135.2240 N   0  0  0  0  0  2  0  0  0  0  0  0
  194.2320  171.1880  134.7470 C   0  0  1  0  0  3  0  0  0  0  0  0
  192.7530  171.1600  135.0700 C   0  0  0  0  0  1  0  0  0  0  0  0
  194.8440  172.3330  135.3950 N   0  0  0  0  0  1  0  0  0  0  0  0
  2 16  1  0  0  0  0
  2 18  1  0  0  0  0
  4  5  1  0  0  0  0
  5  9  1  0  0  0  0
  6 17  1  6  0  0  0
  6  7  1  0  0  0  0
  7  9  1  0  0  0  0
  8 19  1  0  0  0  0
 11  4  1  6  0  0  0
 11  6  1  0  0  0  0
 12 14  2  0  0  0  0
 12 27  1  0  0  0  0
 13  1  1  0  0  0  0
 14 22  1  0  0  0  0
 15 17  1  1  0  0  0
 18 19  1  0  0  0  0
 19  3  1  6  0  0  0
 20 10  1  0  0  0  0
 21 37  1  6  0  0  0
 21 16  1  0  0  0  0
 22  1  1  0  0  0  0
 22 10  2  0  0  0  0
 23  8  1  6  0  0  0
 23 11  1  0  0  0  0
 24 13  1  1  0  0  0
 24 15  1  0  0  0  0
 24 23  1  0  0  0  0
 25 21  1  0  0  0  0
 26 25  1  0  0  0  0
 26 12  1  0  0  0  0
 27 20  2  0  0  0  0
 28 32  1  0  0  0  0
 28 33  1  0  0  0  0
 29 34  1  6  0  0  0
 29 31  1  0  0  0  0
 31 30  1  0  0  0  0
 32 29  1  0  0  0  0
 33 30  1  1  0  0  0
 33 15  1  0  0  0  0
 34 35  1  0  0  0  0
 36 34  2  0  0  0  0
 39 47  1  1  0  0  0
 41 38  1  6  0  0  0
 41 39  1  0  0  0  0
 41 42  1  0  0  0  0
 42 46  1  0  0  0  0
 43 40  2  0  0  0  0
 44 43  1  0  0  0  0
 44 37  1  0  0  0  0
 45 52  1  6  0  0  0
 45 38  1  0  0  0  0
 45 48  1  0  0  0  0
 46 43  1  0  0  0  0
 47 44  1  0  0  0  0
 48 49  1  6  0  0  0
 48 39  1  0  0  0  0
 49 50  1  0  0  0  0
 51 49  2  0  0  0  0
 53 54  1  1  0  0  0
 53 52  1  0  0  0  0
 53 55  1  0  0  0  0
M  END
>  <MODEL>
6

>  <REMARK>
 VINA RESULT:      -6.0      1.876      2.639
  Name = 
  7 active torsions:
  status: ('A' for Active; 'I' for Inactive)
    1  A    between atoms: C_1  and  C_53
    2  A    between atoms: C_8  and  N_22
    3  A    between atoms: C_8  and  C_43
    4  A    between atoms: C_10  and  C_32
    5  A    between atoms: C_11  and  N_29
    6  A    between atoms: N_29  and  C_38
    7  A    between atoms: C_33  and  C_52
                            x       y       z     vdW  Elec       q    Type
                         _______ _______ _______ _____ _____    ______ ____

>  <TORSDO>
F 7

$$$$
=
 OpenBabel11052419243D

 55 61  0  0  1  0  0  0  0  0999 V2000
  193.7740  171.7550  140.0110 O   0  0  0  0  0  0  0  0  0  0  0  0
  194.1840  175.4350  142.9820 C   0  0  0  0  0  2  0  0  0  0  0  0
  194.8450  177.5920  141.1900 O   0  0  0  0  0  1  0  0  0  0  0  0
  195.9790  175.4930  137.3260 C   0  0  0  0  0  2  0  0  0  0  0  0
  197.2810  175.5870  136.5420 C   0  0  0  0  0  2  0  0  0  0  0  0
  196.6640  173.1590  138.0960 C   0  0  1  0  0  3  0  0  0  0  0  0
  197.9160  173.2740  137.2300 C   0  0  0  0  0  2  0  0  0  0  0  0
  194.2760  175.6790  139.8700 C   0  0  0  0  0  2  0  0  0  0  0  0
  197.6910  174.2070  136.0460 C   0  0  0  0  0  2  0  0  0  0  0  0
  194.7060  170.6450  141.9350 C   0  0  0  0  0  3  0  0  0  0  0  0
  196.1320  174.5430  138.5230 C   0  0  2  0  0  3  0  0  0  0  0  0
  192.8440  171.8590  143.5960 C   0  0  0  0  0  0  0  0  0  0  0  0
  192.9210  172.7150  139.4000 C   0  0  0  0  0  2  0  0  0  0  0  0
  192.8040  172.1050  142.2240 C   0  0  0  0  0  3  0  0  0  0  0  0
  194.2690  172.9300  137.2230 C   0  0  2  0  0  3  0  0  0  0  0  0
  194.4270  174.5600  144.2030 C   0  0  0  0  0  2  0  0  0  0  0  0
  195.6190  172.2360  137.4470 C   0  0  0  0  0  2  0  0  0  0  0  0
  195.4360  175.4550  142.1190 C   0  0  0  0  0  2  0  0  0  0  0  0
  195.2580  176.3010  140.8600 C   0  0  2  0  0  3  0  0  0  0  0  0
  194.7150  170.4230  143.3120 C   0  0  0  0  0  3  0  0  0  0  0  0
  193.2310  174.5330  145.1550 C   0  0  2  0  0  3  0  0  0  0  0  0
  193.7510  171.5020  141.3850 C   0  0  0  0  0  0  0  0  0  0  0  0
  194.8090  174.3710  139.2890 C   0  0  2  0  0  3  0  0  0  0  0  0
  193.7180  173.6370  138.4820 C   0  0  2  0  0  3  0  0  0  0  0  0
  191.9620  174.0340  144.4650 C   0  0  0  0  0  2  0  0  0  0  0  0
  191.8590  172.5120  144.5090 C   0  0  0  0  0  2  0  0  0  0  0  0
  193.7960  171.0320  144.1080 N   0  0  0  0  0  0  0  0  0  0  0  0
  193.4880  170.6950  136.6000 O   0  0  0  0  0  0  0  0  0  0  0  0
  191.3260  170.2100  137.5880 C   0  0  2  0  0  3  0  0  0  0  0  0
  191.7760  172.5110  136.6980 C   0  0  0  0  0  2  0  0  0  0  0  0
  190.8540  171.3020  136.6200 C   0  0  0  0  0  2  0  0  0  0  0  0
  192.8500  170.2260  137.7680 C   0  0  0  0  0  2  0  0  0  0  0  0
  193.2410  172.0860  136.4560 C   0  0  1  0  0  3  0  0  0  0  0  0
  190.8540  168.8660  137.1330 C   0  0  0  0  0  0  0  0  0  0  0  0
  191.5110  168.1660  135.6220 S   0  0  0  0  0  1  0  0  0  0  0  0
  190.0270  168.2430  137.7820 O   0  0  0  0  0  0  0  0  0  0  0  0
  193.0130  175.9050  145.7840 C   0  0  0  0  0  2  0  0  0  0  0  0
  187.2780  176.6110  145.1550 C   0  0  0  0  0  2  0  0  0  0  0  0
  189.6340  176.0230  144.7310 C   0  0  2  0  0  3  0  0  0  0  0  0
  191.8940  174.9260  148.1730 O   0  0  0  0  0  0  0  0  0  0  0  0
  188.4800  175.8900  145.7440 C   0  0  1  0  0  3  0  0  0  0  0  0
  188.7970  176.4670  147.1230 C   0  0  0  0  0  2  0  0  0  0  0  0
  191.1130  175.5550  147.4080 C   0  0  0  0  0  0  0  0  0  0  0  0
  191.6150  176.0890  146.1610 N   0  0  0  0  0  0  0  0  0  0  0  0
  187.8070  177.4140  143.9870 C   0  0  1  0  0  3  0  0  0  0  0  0
  189.7730  175.6770  147.7960 O   0  0  0  0  0  0  0  0  0  0  0  0
  190.7930  176.8690  145.2490 C   0  0  0  0  0  2  0  0  0  0  0  0
  189.0520  176.6780  143.4930 C   0  0  2  0  0  3  0  0  0  0  0  0
  188.7740  175.6330  142.4500 C   0  0  0  0  0  0  0  0  0  0  0  0
  188.8670  174.4050  142.7240 O   0  0  0  0  0  1  0  0  0  0  0  0
  188.4240  176.0270  141.1660 O   0  0  0  0  0  0  0  0  0  0  0  0
  186.7850  177.5680  142.9580 N   0  0  0  0  0  2  0  0  0  0  0  0
  185.5890  178.0810  143.6040 C   0  0  1  0  0  3  0  0  0  0  0  0
  185.8360  179.5000  144.0700 C   0  0  0  0  0  1  0  0  0  0  0  0
  184.4830  178.0690  142.6650 N   0  0  0  0  0  1  0  0  0  0  0  0
  1 22  1  0  0  0  0
  2 16  1  0  0  0  0
  5  4  1  0  0  0  0
  6  7  1  6  0  0  0
  6 11  1  0  0  0  0
  8 19  1  0  0  0  0
  9  5  1  0  0  0  0
  9  7  1  0  0  0  0
 10 20  1  0  0  0  0
 11  4  1  6  0  0  0
 11 23  1  0  0  0  0
 12 27  1  0  0  0  0
 12 26  1  0  0  0  0
 13  1  1  0  0  0  0
 14 12  2  0  0  0  0
 15 17  1  1  0  0  0
 15 24  1  0  0  0  0
 16 21  1  0  0  0  0
 17  6  1  0  0  0  0
 18  2  1  0  0  0  0
 19  3  1  1  0  0  0
 19 18  1  0  0  0  0
 20 27  2  0  0  0  0
 21 37  1  6  0  0  0
 22 10  2  0  0  0  0
 22 14  1  0  0  0  0
 23  8  1  6  0  0  0
 24 23  1  0  0  0  0
 24 13  1  1  0  0  0
 25 26  1  0  0  0  0
 25 21  1  0  0  0  0
 28 32  1  0  0  0  0
 29 34  1  6  0  0  0
 29 32  1  0  0  0  0
 31 30  1  0  0  0  0
 31 29  1  0  0  0  0
 33 28  1  0  0  0  0
 33 30  1  1  0  0  0
 33 15  1  0  0  0  0
 34 36  2  0  0  0  0
 35 34  1  0  0  0  0
 37 44  1  0  0  0  0
 39 47  1  1  0  0  0
 39 41  1  0  0  0  0
 41 38  1  6  0  0  0
 41 42  1  0  0  0  0
 42 46  1  0  0  0  0
 43 46  1  0  0  0  0
 43 40  2  0  0  0  0
 44 43  1  0  0  0  0
 45 52  1  6  0  0  0
 45 38  1  0  0  0  0
 47 44  1  0  0  0  0
 48 49  1  6  0  0  0
 48 45  1  0  0  0  0
 48 39  1  0  0  0  0
 49 50  1  0  0  0  0
 51 49  2  0  0  0  0
 52 53  1  0  0  0  0
 53 54  1  6  0  0  0
 55 53  1  0  0  0  0
M  END
>  <MODEL>
7

>  <REMARK>
 VINA RESULT:      -5.9      3.533      8.887
  Name = 
  7 active torsions:
  status: ('A' for Active; 'I' for Inactive)
    1  A    between atoms: C_1  and  C_53
    2  A    between atoms: C_8  and  N_22
    3  A    between atoms: C_8  and  C_43
    4  A    between atoms: C_10  and  C_32
    5  A    between atoms: C_11  and  N_29
    6  A    between atoms: N_29  and  C_38
    7  A    between atoms: C_33  and  C_52
                            x       y       z     vdW  Elec       q    Type
                         _______ _______ _______ _____ _____    ______ ____

>  <TORSDO>
F 7

$$$$
=
 OpenBabel11052419243D

 55 61  0  0  1  0  0  0  0  0999 V2000
  194.3630  172.8750  140.4480 O   0  0  0  0  0  0  0  0  0  0  0  0
  192.8630  173.7370  144.8690 C   0  0  0  0  0  2  0  0  0  0  0  0
  195.0650  172.7720  146.4570 O   0  0  0  0  0  1  0  0  0  0  0  0
  197.5320  170.3250  143.5320 C   0  0  0  0  0  2  0  0  0  0  0  0
  197.9410  168.8620  143.6290 C   0  0  0  0  0  2  0  0  0  0  0  0
  195.8490  169.6870  141.7240 C   0  0  1  0  0  3  0  0  0  0  0  0
  196.3520  168.2480  141.8060 C   0  0  0  0  0  2  0  0  0  0  0  0
  195.7330  172.7290  144.1590 C   0  0  0  0  0  2  0  0  0  0  0  0
  197.8040  168.1920  142.2690 C   0  0  0  0  0  2  0  0  0  0  0  0
  192.0040  172.4680  140.1820 C   0  0  0  0  0  3  0  0  0  0  0  0
  196.0820  170.4530  143.0430 C   0  0  2  0  0  3  0  0  0  0  0  0
  191.4010  174.8530  141.4670 C   0  0  0  0  0  0  0  0  0  0  0  0
  195.4660  173.5890  140.9930 C   0  0  0  0  0  2  0  0  0  0  0  0
  192.7350  174.4980  141.2670 C   0  0  0  0  0  3  0  0  0  0  0  0
  197.1630  171.6720  140.7830 C   0  0  2  0  0  3  0  0  0  0  0  0
  191.3950  173.7930  144.4740 C   0  0  0  0  0  2  0  0  0  0  0  0
  196.3770  170.3940  140.4640 C   0  0  0  0  0  2  0  0  0  0  0  0
  193.3320  172.2900  144.8620 C   0  0  0  0  0  2  0  0  0  0  0  0
  194.8080  172.1580  145.2320 C   0  0  2  0  0  3  0  0  0  0  0  0
  190.6820  172.8560  140.3990 C   0  0  0  0  0  3  0  0  0  0  0  0
  190.8300  175.2130  144.5120 C   0  0  2  0  0  3  0  0  0  0  0  0
  193.0410  173.2880  140.6290 C   0  0  0  0  0  0  0  0  0  0  0  0
  195.6650  171.9230  142.8640 C   0  0  2  0  0  3  0  0  0  0  0  0
  196.4140  172.6430  141.7230 C   0  0  2  0  0  3  0  0  0  0  0  0
  191.5990  176.1600  143.5910 C   0  0  0  0  0  2  0  0  0  0  0  0
  191.0540  176.1260  142.1660 C   0  0  0  0  0  2  0  0  0  0  0  0
  190.4090  174.0270  141.0350 N   0  0  0  0  0  0  0  0  0  0  0  0
  197.5600  171.6130  138.3680 O   0  0  0  0  0  0  0  0  0  0  0  0
  196.4700  173.4690  137.2510 C   0  0  2  0  0  3  0  0  0  0  0  0
  197.5750  173.8560  139.4680 C   0  0  0  0  0  2  0  0  0  0  0  0
  197.5180  174.2920  138.0110 C   0  0  0  0  0  2  0  0  0  0  0  0
  196.3370  172.0500  137.8180 C   0  0  0  0  0  2  0  0  0  0  0  0
  197.8220  172.3330  139.5640 C   0  0  1  0  0  3  0  0  0  0  0  0
  196.7880  173.4360  135.7900 C   0  0  0  0  0  0  0  0  0  0  0  0
  195.5100  172.9840  134.6210 S   0  0  0  0  0  1  0  0  0  0  0  0
  197.9080  173.7130  135.3880 O   0  0  0  0  0  0  0  0  0  0  0  0
  190.7960  175.7420  145.9420 C   0  0  0  0  0  2  0  0  0  0  0  0
  185.4050  177.8410  145.3930 C   0  0  0  0  0  2  0  0  0  0  0  0
  187.6130  176.8720  144.8820 C   0  0  2  0  0  3  0  0  0  0  0  0
  189.3090  174.4590  147.9580 O   0  0  0  0  0  0  0  0  0  0  0  0
  186.3780  176.7450  145.7960 C   0  0  1  0  0  3  0  0  0  0  0  0
  186.6960  176.8660  147.2860 C   0  0  0  0  0  2  0  0  0  0  0  0
  188.7410  175.4200  147.3700 C   0  0  0  0  0  0  0  0  0  0  0  0
  189.4420  176.1290  146.3230 N   0  0  0  0  0  0  0  0  0  0  0  0
  186.1820  178.7770  144.4940 C   0  0  1  0  0  3  0  0  0  0  0  0
  187.4280  175.7340  147.7460 O   0  0  0  0  0  0  0  0  0  0  0  0
  188.8760  177.2780  145.6330 C   0  0  0  0  0  2  0  0  0  0  0  0
  187.2820  177.9330  143.8500 C   0  0  2  0  0  3  0  0  0  0  0  0
  186.8770  177.2780  142.5600 C   0  0  0  0  0  0  0  0  0  0  0  0
  187.1760  177.7960  141.4500 O   0  0  0  0  0  0  0  0  0  0  0  0
  186.1520  176.0950  142.5950 O   0  0  0  0  0  1  0  0  0  0  0  0
  185.3010  179.4110  143.5200 N   0  0  0  0  0  2  0  0  0  0  0  0
  184.0750  178.6320  143.4680 C   0  0  1  0  0  3  0  0  0  0  0  0
  182.9560  179.4080  144.1300 C   0  0  0  0  0  1  0  0  0  0  0  0
  183.7230  178.3660  142.0860 N   0  0  0  0  0  1  0  0  0  0  0  0
  1 22  1  0  0  0  0
  1 13  1  0  0  0  0
  4  5  1  0  0  0  0
  6 17  1  6  0  0  0
  6  7  1  0  0  0  0
  6 11  1  0  0  0  0
  7  9  1  0  0  0  0
  8 19  1  0  0  0  0
  9  5  1  0  0  0  0
 10 20  2  0  0  0  0
 10 22  1  0  0  0  0
 11  4  1  6  0  0  0
 12 26  1  0  0  0  0
 14 12  1  0  0  0  0
 15 17  1  6  0  0  0
 15 24  1  0  0  0  0
 16 21  1  0  0  0  0
 16  2  1  0  0  0  0
 18  2  1  0  0  0  0
 18 19  1  0  0  0  0
 19  3  1  1  0  0  0
 20 27  1  0  0  0  0
 21 37  1  1  0  0  0
 22 14  2  0  0  0  0
 23 11  1  0  0  0  0
 23  8  1  1  0  0  0
 24 13  1  6  0  0  0
 24 23  1  0  0  0  0
 25 21  1  0  0  0  0
 26 25  1  0  0  0  0
 27 12  2  0  0  0  0
 28 33  1  0  0  0  0
 29 34  1  6  0  0  0
 29 32  1  0  0  0  0
 29 31  1  0  0  0  0
 31 30  1  0  0  0  0
 32 28  1  0  0  0  0
 33 30  1  6  0  0  0
 33 15  1  0  0  0  0
 35 34  1  0  0  0  0
 36 34  2  0  0  0  0
 37 44  1  0  0  0  0
 39 47  1  1  0  0  0
 39 41  1  0  0  0  0
 41 38  1  6  0  0  0
 41 42  1  0  0  0  0
 42 46  1  0  0  0  0
 43 46  1  0  0  0  0
 43 40  2  0  0  0  0
 44 43  1  0  0  0  0
 45 52  1  6  0  0  0
 45 38  1  0  0  0  0
 47 44  1  0  0  0  0
 48 49  1  6  0  0  0
 48 45  1  0  0  0  0
 48 39  1  0  0  0  0
 49 51  1  0  0  0  0
 50 49  2  0  0  0  0
 53 52  1  0  0  0  0
 53 54  1  6  0  0  0
 55 53  1  0  0  0  0
M  END
>  <MODEL>
8

>  <REMARK>
 VINA RESULT:      -5.9      3.817      9.455
  Name = 
  7 active torsions:
  status: ('A' for Active; 'I' for Inactive)
    1  A    between atoms: C_1  and  C_53
    2  A    between atoms: C_8  and  N_22
    3  A    between atoms: C_8  and  C_43
    4  A    between atoms: C_10  and  C_32
    5  A    between atoms: C_11  and  N_29
    6  A    between atoms: N_29  and  C_38
    7  A    between atoms: C_33  and  C_52
                            x       y       z     vdW  Elec       q    Type
                         _______ _______ _______ _____ _____    ______ ____

>  <TORSDO>
F 7

$$$$
=
 OpenBabel11052419243D

 55 61  0  0  1  0  0  0  0  0999 V2000
  191.4600  171.9410  142.2850 O   0  0  0  0  0  0  0  0  0  0  0  0
  190.8840  171.4750  137.5960 C   0  0  0  0  0  2  0  0  0  0  0  0
  189.8150  174.0460  136.8560 O   0  0  0  0  0  1  0  0  0  0  0  0
  188.5960  175.9030  140.8170 C   0  0  0  0  0  2  0  0  0  0  0  0
  187.2280  176.4160  141.2420 C   0  0  0  0  0  2  0  0  0  0  0  0
  188.2640  173.8850  142.3430 C   0  0  1  0  0  3  0  0  0  0  0  0
  186.9350  174.4840  142.7940 C   0  0  0  0  0  2  0  0  0  0  0  0
  190.4860  174.1550  139.1500 C   0  0  0  0  0  2  0  0  0  0  0  0
  186.9420  176.0040  142.6800 C   0  0  0  0  0  2  0  0  0  0  0  0
  190.8410  169.6170  142.1620 C   0  0  0  0  0  3  0  0  0  0  0  0
  188.6650  174.3740  140.9340 C   0  0  2  0  0  3  0  0  0  0  0  0
  192.6870  169.1830  140.1360 C   0  0  0  0  0  0  0  0  0  0  0  0
  192.1350  173.0930  141.7950 C   0  0  0  0  0  2  0  0  0  0  0  0
  192.5750  170.4530  140.7040 C   0  0  0  0  0  3  0  0  0  0  0  0
  190.5820  174.8120  142.9080 C   0  0  2  0  0  3  0  0  0  0  0  0
  190.8570  169.9540  137.6420 C   0  0  0  0  0  2  0  0  0  0  0  0
  189.3490  174.0550  143.4190 C   0  0  0  0  0  2  0  0  0  0  0  0
  189.5670  172.0200  138.1250 C   0  0  0  0  0  2  0  0  0  0  0  0
  189.5300  173.5470  138.1260 C   0  0  2  0  0  3  0  0  0  0  0  0
  190.9810  168.3610  141.5710 C   0  0  0  0  0  3  0  0  0  0  0  0
  192.1280  169.3250  137.0710 C   0  0  2  0  0  3  0  0  0  0  0  0
  191.6350  170.6760  141.7190 C   0  0  0  0  0  0  0  0  0  0  0  0
  190.0620  173.8340  140.5820 C   0  0  2  0  0  3  0  0  0  0  0  0
  191.1550  174.2450  141.5900 C   0  0  2  0  0  3  0  0  0  0  0  0
  193.3800  169.7940  137.8110 C   0  0  0  0  0  2  0  0  0  0  0  0
  193.6660  168.9320  139.0370 C   0  0  0  0  0  2  0  0  0  0  0  0
  191.8900  168.1720  140.5760 N   0  0  0  0  0  0  0  0  0  0  0  0
  191.5540  176.4700  144.4240 O   0  0  0  0  0  0  0  0  0  0  0  0
  191.1190  175.9060  146.7430 C   0  0  2  0  0  3  0  0  0  0  0  0
  191.6840  174.0750  145.1240 C   0  0  0  0  0  2  0  0  0  0  0  0
  192.0700  174.7420  146.4380 C   0  0  0  0  0  2  0  0  0  0  0  0
  190.6040  176.5730  145.4610 C   0  0  0  0  0  2  0  0  0  0  0  0
  191.6290  175.1210  143.9870 C   0  0  1  0  0  3  0  0  0  0  0  0
  191.7820  176.9040  147.6380 C   0  0  0  0  0  0  0  0  0  0  0  0
  190.7780  177.9380  148.7000 S   0  0  0  0  0  1  0  0  0  0  0  0
  192.9990  177.0200  147.6500 O   0  0  0  0  0  0  0  0  0  0  0  0
  192.2370  169.5970  135.5740 C   0  0  0  0  0  2  0  0  0  0  0  0
  196.1870  173.8600  135.5610 C   0  0  0  0  0  2  0  0  0  0  0  0
  194.3020  172.4050  136.1970 C   0  0  2  0  0  3  0  0  0  0  0  0
  194.6910  168.3120  135.0790 O   0  0  0  0  0  0  0  0  0  0  0  0
  195.7850  172.4100  135.7800 C   0  0  1  0  0  3  0  0  0  0  0  0
  196.0760  171.6040  134.5150 C   0  0  0  0  0  2  0  0  0  0  0  0
  194.6990  169.5720  135.0200 C   0  0  0  0  0  0  0  0  0  0  0  0
  193.4750  170.3030  135.2630 N   0  0  0  0  0  0  0  0  0  0  0  0
  194.8970  174.6500  135.5360 C   0  0  1  0  0  3  0  0  0  0  0  0
  195.9180  170.2070  134.7510 O   0  0  0  0  0  0  0  0  0  0  0  0
  193.3900  171.7520  135.1640 C   0  0  0  0  0  2  0  0  0  0  0  0
  193.8960  173.8560  136.3760 C   0  0  2  0  0  3  0  0  0  0  0  0
  193.9040  174.2080  137.8370 C   0  0  0  0  0  0  0  0  0  0  0  0
  193.8530  175.4120  138.2110 O   0  0  0  0  0  0  0  0  0  0  0  0
  193.9840  173.1960  138.7820 O   0  0  0  0  0  1  0  0  0  0  0  0
  195.1090  176.0060  136.0280 N   0  0  0  0  0  2  0  0  0  0  0  0
  194.6630  176.9210  134.9890 C   0  0  1  0  0  3  0  0  0  0  0  0
  193.2910  177.4530  135.3420 C   0  0  0  0  0  1  0  0  0  0  0  0
  195.5950  178.0280  134.8810 N   0  0  0  0  0  1  0  0  0  0  0  0
  2 16  1  0  0  0  0
  2 18  1  0  0  0  0
  4  5  1  0  0  0  0
  5  9  1  0  0  0  0
  6  7  1  1  0  0  0
  6 17  1  0  0  0  0
  9  7  1  0  0  0  0
 11  4  1  1  0  0  0
 11  6  1  0  0  0  0
 12 27  2  0  0  0  0
 12 14  1  0  0  0  0
 13  1  1  0  0  0  0
 14 22  2  0  0  0  0
 15 17  1  1  0  0  0
 15 33  1  0  0  0  0
 18 19  1  0  0  0  0
 19  3  1  6  0  0  0
 19  8  1  0  0  0  0
 20 10  2  0  0  0  0
 21 37  1  6  0  0  0
 21 16  1  0  0  0  0
 21 25  1  0  0  0  0
 22 10  1  0  0  0  0
 22  1  1  0  0  0  0
 23  8  1  6  0  0  0
 23 11  1  0  0  0  0
 23 24  1  0  0  0  0
 24 13  1  1  0  0  0
 24 15  1  0  0  0  0
 25 26  1  0  0  0  0
 26 12  1  0  0  0  0
 27 20  1  0  0  0  0
 28 32  1  0  0  0  0
 29 34  1  1  0  0  0
 30 31  1  0  0  0  0
 31 29  1  0  0  0  0
 32 29  1  0  0  0  0
 33 28  1  0  0  0  0
 33 30  1  1  0  0  0
 34 36  2  0  0  0  0
 34 35  1  0  0  0  0
 38 41  1  0  0  0  0
 39 47  1  6  0  0  0
 39 48  1  0  0  0  0
 41 42  1  6  0  0  0
 41 39  1  0  0  0  0
 42 46  1  0  0  0  0
 43 40  2  0  0  0  0
 43 44  1  0  0  0  0
 44 37  1  0  0  0  0
 45 38  1  0  0  0  0
 45 52  1  1  0  0  0
 45 48  1  0  0  0  0
 46 43  1  0  0  0  0
 47 44  1  0  0  0  0
 48 49  1  1  0  0  0
 49 50  2  0  0  0  0
 49 51  1  0  0  0  0
 53 54  1  1  0  0  0
 53 52  1  0  0  0  0
 55 53  1  0  0  0  0
M  END
>  <MODEL>
9

>  <REMARK>
 VINA RESULT:      -5.4      3.370      6.202
  Name = 
  7 active torsions:
  status: ('A' for Active; 'I' for Inactive)
    1  A    between atoms: C_1  and  C_53
    2  A    between atoms: C_8  and  N_22
    3  A    between atoms: C_8  and  C_43
    4  A    between atoms: C_10  and  C_32
    5  A    between atoms: C_11  and  N_29
    6  A    between atoms: N_29  and  C_38
    7  A    between atoms: C_33  and  C_52
                            x       y       z     vdW  Elec       q    Type
                         _______ _______ _______ _____ _____    ______ ____

>  <TORSDO>
F 7

$$$$
