=
 OpenBabel11052418353D

 34 39  0  0  1  0  0  0  0  0999 V2000
  188.1810  174.0340  141.5730 C   0  0  0  0  0  0  0  0  0  0  0  0
  190.5770  173.7820  141.5640 C   0  0  0  0  0  0  0  0  0  0  0  0
  189.5260  175.4120  143.2590 C   0  0  1  0  0  3  0  0  0  0  0  0
  190.3960  176.1680  145.3800 N   0  0  2  0  0  0  0  0  0  0  0  0
  189.2200  172.4700  140.1380 C   0  0  0  0  0  3  0  0  0  0  0  0
  190.4410  172.8420  140.5940 N   0  0  0  0  0  0  0  0  0  0  0  0
  191.3040  174.1610  144.5900 N   0  0  0  0  0  2  0  0  0  0  0  0
  189.4290  174.3440  142.1690 C   0  0  0  0  0  0  0  0  0  0  0  0
  191.1760  175.6350  146.4740 C   0  0  0  0  0  2  0  0  0  0  0  0
  188.1060  173.0800  140.6100 N   0  0  0  0  0  0  0  0  0  0  0  0
  188.1460  175.9570  143.6700 C   0  0  1  0  0  3  0  0  0  0  0  0
  186.9220  174.7680  141.9430 C   0  0  0  0  0  2  0  0  0  0  0  0
  191.9530  174.2740  141.8630 C   0  0  0  0  0  1  0  0  0  0  0  0
  189.1310  176.7210  145.8560 C   0  0  0  0  0  2  0  0  0  0  0  0
  188.2650  177.1430  144.6500 C   0  0  2  0  0  3  0  0  0  0  0  0
  191.9150  174.4410  145.8850 C   0  0  2  0  0  3  0  0  0  0  0  0
  190.1040  174.9740  144.6080 C   0  0  2  0  0  3  0  0  0  0  0  0
  187.2320  176.1600  142.4790 C   0  0  0  0  0  2  0  0  0  0  0  0
  185.1090  179.2200  144.9510 C   0  0  0  0  0  0  0  0  0  0  0  0
  184.4180  178.5480  145.9640 C   0  0  0  0  0  3  0  0  0  0  0  0
  186.9250  177.6220  145.1210 C   0  0  0  0  0  0  0  0  0  0  0  0
  184.9780  177.4140  146.5580 C   0  0  0  0  0  3  0  0  0  0  0  0
  186.3600  178.7580  144.5320 C   0  0  0  0  0  3  0  0  0  0  0  0
  186.2270  176.9490  146.1380 C   0  0  0  0  0  3  0  0  0  0  0  0
  184.5670  180.3210  144.3770 F   0  0  0  0  0  0  0  0  0  0  0  0
  194.4890  175.0510  145.5330 C   0  0  0  0  0  0  0  0  0  0  0  0
  193.3260  174.7770  145.6930 C   0  0  0  0  0  0  0  0  0  0  0  0
  197.1630  173.5280  146.4440 C   0  0  0  0  0  1  0  0  0  0  0  0
  195.9040  175.3840  145.3360 C   0  0  1  0  0  3  0  0  0  0  0  0
  196.7170  174.0970  145.1120 C   0  0  1  0  0  3  0  0  0  0  0  0
  197.5330  174.8650  142.8430 C   0  0  0  0  0  2  0  0  0  0  0  0
  196.2510  175.7090  142.8500 C   0  0  0  0  0  2  0  0  0  0  0  0
  196.0440  176.4040  144.1940 C   0  0  0  0  0  2  0  0  0  0  0  0
  197.9380  174.3480  144.2300 C   0  0  0  0  0  2  0  0  0  0  0  0
  1 12  1  0  0  0  0
  1  8  1  0  0  0  0
  2 13  1  0  0  0  0
  2  8  2  0  0  0  0
  3  8  1  6  0  0  0
  3 11  1  0  0  0  0
  3 17  1  0  0  0  0
  4 14  1  1  0  0  0
  4  9  1  0  0  0  0
  5  6  2  0  0  0  0
  5 10  1  0  0  0  0
  6  2  1  0  0  0  0
  7 16  1  0  0  0  0
 10  1  2  0  0  0  0
 11 18  1  6  0  0  0
 11 15  1  0  0  0  0
 12 18  1  0  0  0  0
 15 21  1  1  0  0  0
 15 14  1  0  0  0  0
 16 27  1  6  0  0  0
 16  9  1  0  0  0  0
 17  7  1  6  0  0  0
 17  4  1  0  0  0  0
 19 20  1  0  0  0  0
 20 22  2  0  0  0  0
 21 24  2  0  0  0  0
 23 19  2  0  0  0  0
 23 21  1  0  0  0  0
 24 22  1  0  0  0  0
 25 19  1  0  0  0  0
 26 27  3  0  0  0  0
 29 26  1  6  0  0  0
 30 29  1  0  0  0  0
 30 28  1  1  0  0  0
 31 32  1  0  0  0  0
 31 34  1  0  0  0  0
 32 33  1  0  0  0  0
 33 29  1  0  0  0  0
 34 30  1  0  0  0  0
M  END
>  <MODEL>
1

>  <REMARK>
 VINA RESULT:      -8.8      0.000      0.000
  Name = 
  3 active torsions:
  status: ('A' for Active; 'I' for Inactive)
    1  A    between atoms: C_3  and  C_13
    2  A    between atoms: C_12  and  C_28
    3  A    between atoms: C_17  and  C_29
                            x       y       z     vdW  Elec       q    Type
                         _______ _______ _______ _____ _____    ______ ____

>  <TORSDO>
F 3

$$$$
=
 OpenBabel11052418353D

 34 39  0  0  1  0  0  0  0  0999 V2000
  191.7630  173.0320  140.9060 C   0  0  0  0  0  0  0  0  0  0  0  0
  189.6090  173.9970  141.3870 C   0  0  0  0  0  0  0  0  0  0  0  0
  191.2660  173.6780  143.3320 C   0  0  1  0  0  3  0  0  0  0  0  0
  191.3970  174.8700  145.4280 N   0  0  2  0  0  0  0  0  0  0  0  0
  190.2290  173.4750  139.1640 C   0  0  0  0  0  3  0  0  0  0  0  0
  189.3240  173.9380  140.0610 N   0  0  0  0  0  0  0  0  0  0  0  0
  190.2710  175.9940  143.7110 N   0  0  0  0  0  2  0  0  0  0  0  0
  190.8960  173.6380  141.8490 C   0  0  0  0  0  0  0  0  0  0  0  0
  191.1840  176.2140  145.9150 C   0  0  0  0  0  2  0  0  0  0  0  0
  191.4260  173.0060  139.5920 N   0  0  0  0  0  0  0  0  0  0  0  0
  192.6780  173.1230  143.6000 C   0  0  1  0  0  3  0  0  0  0  0  0
  193.0440  172.3640  141.3230 C   0  0  0  0  0  2  0  0  0  0  0  0
  188.4940  174.3280  142.3200 C   0  0  0  0  0  1  0  0  0  0  0  0
  192.7330  174.3920  145.7720 C   0  0  0  0  0  2  0  0  0  0  0  0
  192.9780  173.0190  145.1090 C   0  0  2  0  0  3  0  0  0  0  0  0
  190.2830  176.8700  144.8780 C   0  0  2  0  0  3  0  0  0  0  0  0
  191.3440  175.0600  143.9890 C   0  0  2  0  0  3  0  0  0  0  0  0
  192.9750  171.8920  142.7700 C   0  0  0  0  0  2  0  0  0  0  0  0
  196.7350  173.0960  145.6060 C   0  0  0  0  0  0  0  0  0  0  0  0
  197.0170  171.7530  145.8740 C   0  0  0  0  0  3  0  0  0  0  0  0
  194.3810  172.5620  145.3740 C   0  0  0  0  0  0  0  0  0  0  0  0
  195.9830  170.8120  145.8910 C   0  0  0  0  0  3  0  0  0  0  0  0
  195.4190  173.4990  145.3560 C   0  0  0  0  0  3  0  0  0  0  0  0
  194.6680  171.2130  145.6430 C   0  0  0  0  0  3  0  0  0  0  0  0
  197.7360  174.0080  145.5880 F   0  0  0  0  0  0  0  0  0  0  0  0
  187.8040  177.0860  145.8450 C   0  0  0  0  0  0  0  0  0  0  0  0
  188.9230  176.9910  145.4080 C   0  0  0  0  0  0  0  0  0  0  0  0
  186.6270  178.8520  148.2520 C   0  0  0  0  0  1  0  0  0  0  0  0
  186.4430  177.2020  146.3800 C   0  0  1  0  0  3  0  0  0  0  0  0
  186.1760  178.6530  146.8180 C   0  0  1  0  0  3  0  0  0  0  0  0
  184.2110  178.8930  145.2430 C   0  0  0  0  0  2  0  0  0  0  0  0
  184.9300  177.7990  144.4420 C   0  0  0  0  0  2  0  0  0  0  0  0
  185.4320  176.6780  145.3490 C   0  0  0  0  0  2  0  0  0  0  0  0
  184.6990  179.0160  146.6930 C   0  0  0  0  0  2  0  0  0  0  0  0
  1 12  1  0  0  0  0
  1  8  1  0  0  0  0
  2  8  2  0  0  0  0
  2 13  1  0  0  0  0
  3  8  1  6  0  0  0
  3 11  1  0  0  0  0
  3 17  1  0  0  0  0
  4 14  1  6  0  0  0
  4  9  1  0  0  0  0
  5 10  1  0  0  0  0
  5  6  2  0  0  0  0
  6  2  1  0  0  0  0
  7 16  1  0  0  0  0
 10  1  2  0  0  0  0
 11 18  1  1  0  0  0
 11 15  1  0  0  0  0
 12 18  1  0  0  0  0
 15 21  1  6  0  0  0
 15 14  1  0  0  0  0
 16 27  1  1  0  0  0
 16  9  1  0  0  0  0
 17  7  1  1  0  0  0
 17  4  1  0  0  0  0
 19 20  1  0  0  0  0
 20 22  2  0  0  0  0
 21 24  2  0  0  0  0
 23 21  1  0  0  0  0
 23 19  2  0  0  0  0
 24 22  1  0  0  0  0
 25 19  1  0  0  0  0
 27 26  3  0  0  0  0
 29 26  1  6  0  0  0
 29 30  1  0  0  0  0
 30 28  1  1  0  0  0
 31 34  1  0  0  0  0
 32 31  1  0  0  0  0
 32 33  1  0  0  0  0
 33 29  1  0  0  0  0
 34 30  1  0  0  0  0
M  END
>  <MODEL>
2

>  <REMARK>
 VINA RESULT:      -8.7      3.029      8.412
  Name = 
  3 active torsions:
  status: ('A' for Active; 'I' for Inactive)
    1  A    between atoms: C_3  and  C_13
    2  A    between atoms: C_12  and  C_28
    3  A    between atoms: C_17  and  C_29
                            x       y       z     vdW  Elec       q    Type
                         _______ _______ _______ _____ _____    ______ ____

>  <TORSDO>
F 3

$$$$
=
 OpenBabel11052418353D

 34 39  0  0  1  0  0  0  0  0999 V2000
  191.2680  176.3150  146.2870 C   0  0  0  0  0  0  0  0  0  0  0  0
  192.0810  174.3900  145.0890 C   0  0  0  0  0  0  0  0  0  0  0  0
  189.6730  175.1840  144.6350 C   0  0  1  0  0  3  0  0  0  0  0  0
  188.3110  174.8580  142.6690 N   0  0  2  0  0  0  0  0  0  0  0  0
  193.5020  175.5920  146.5480 C   0  0  0  0  0  3  0  0  0  0  0  0
  193.2830  174.5620  145.6960 N   0  0  0  0  0  0  0  0  0  0  0  0
  190.6170  174.6480  142.3290 N   0  0  0  0  0  2  0  0  0  0  0  0
  191.0480  175.3340  145.2870 C   0  0  0  0  0  0  0  0  0  0  0  0
  188.4900  174.7900  141.2360 C   0  0  0  0  0  2  0  0  0  0  0  0
  192.4940  176.4430  146.8550 N   0  0  0  0  0  0  0  0  0  0  0  0
  188.6810  176.2660  145.1000 C   0  0  1  0  0  3  0  0  0  0  0  0
  190.1610  177.2040  146.7820 C   0  0  0  0  0  2  0  0  0  0  0  0
  191.8640  173.1250  144.3280 C   0  0  0  0  0  1  0  0  0  0  0  0
  187.3130  175.8620  143.0280 C   0  0  0  0  0  2  0  0  0  0  0  0
  187.2580  176.0110  144.5640 C   0  0  2  0  0  3  0  0  0  0  0  0
  189.9620  174.4560  141.0390 C   0  0  2  0  0  3  0  0  0  0  0  0
  189.6090  175.3340  143.1120 C   0  0  2  0  0  3  0  0  0  0  0  0
  188.7980  176.5510  146.5830 C   0  0  0  0  0  2  0  0  0  0  0  0
  185.5220  179.3790  144.6240 C   0  0  0  0  0  0  0  0  0  0  0  0
  184.5470  179.1830  145.6080 C   0  0  0  0  0  3  0  0  0  0  0  0
  186.3080  177.1070  144.9410 C   0  0  0  0  0  0  0  0  0  0  0  0
  184.4520  177.9500  146.2600 C   0  0  0  0  0  3  0  0  0  0  0  0
  186.4000  178.3440  144.2930 C   0  0  0  0  0  3  0  0  0  0  0  0
  185.3280  176.9140  145.9290 C   0  0  0  0  0  3  0  0  0  0  0  0
  185.6150  180.5740  143.9930 F   0  0  0  0  0  0  0  0  0  0  0  0
  190.2210  171.9070  140.2890 C   0  0  0  0  0  0  0  0  0  0  0  0
  190.1030  173.0590  140.6270 C   0  0  0  0  0  0  0  0  0  0  0  0
  189.8310  170.4880  137.4380 C   0  0  0  0  0  1  0  0  0  0  0  0
  190.3650  170.5060  139.8820 C   0  0  1  0  0  3  0  0  0  0  0  0
  190.9490  170.4320  138.4600 C   0  0  1  0  0  3  0  0  0  0  0  0
  192.9540  169.0910  139.2240 C   0  0  0  0  0  2  0  0  0  0  0  0
  192.6830  169.7640  140.5760 C   0  0  0  0  0  2  0  0  0  0  0  0
  191.1960  169.7430  140.9250 C   0  0  0  0  0  2  0  0  0  0  0  0
  191.7680  169.1610  138.2520 C   0  0  0  0  0  2  0  0  0  0  0  0
  1 12  1  0  0  0  0
  1 10  1  0  0  0  0
  2  8  1  0  0  0  0
  2  6  2  0  0  0  0
  3 11  1  0  0  0  0
  3  8  1  1  0  0  0
  4  9  1  6  0  0  0
  4 14  1  0  0  0  0
  4 17  1  0  0  0  0
  5 10  2  0  0  0  0
  6  5  1  0  0  0  0
  8  1  2  0  0  0  0
 11 18  1  1  0  0  0
 13  2  1  0  0  0  0
 14 15  1  0  0  0  0
 15 21  1  6  0  0  0
 15 11  1  0  0  0  0
 16 27  1  1  0  0  0
 16  9  1  0  0  0  0
 16  7  1  0  0  0  0
 17  7  1  6  0  0  0
 17  3  1  0  0  0  0
 18 12  1  0  0  0  0
 19 20  1  0  0  0  0
 20 22  2  0  0  0  0
 21 24  2  0  0  0  0
 23 19  2  0  0  0  0
 23 21  1  0  0  0  0
 24 22  1  0  0  0  0
 25 19  1  0  0  0  0
 26 27  3  0  0  0  0
 29 26  1  1  0  0  0
 29 33  1  0  0  0  0
 30 28  1  6  0  0  0
 30 29  1  0  0  0  0
 31 32  1  0  0  0  0
 32 33  1  0  0  0  0
 34 30  1  0  0  0  0
 34 31  1  0  0  0  0
M  END
>  <MODEL>
3

>  <REMARK>
 VINA RESULT:      -8.6      2.309      5.764
  Name = 
  3 active torsions:
  status: ('A' for Active; 'I' for Inactive)
    1  A    between atoms: C_3  and  C_13
    2  A    between atoms: C_12  and  C_28
    3  A    between atoms: C_17  and  C_29
                            x       y       z     vdW  Elec       q    Type
                         _______ _______ _______ _____ _____    ______ ____

>  <TORSDO>
F 3

$$$$
=
 OpenBabel11052418353D

 34 39  0  0  1  0  0  0  0  0999 V2000
  185.8380  177.6470  142.8810 C   0  0  0  0  0  0  0  0  0  0  0  0
  186.0650  177.4430  140.4910 C   0  0  0  0  0  0  0  0  0  0  0  0
  187.9850  176.5870  141.9780 C   0  0  1  0  0  3  0  0  0  0  0  0
  189.6460  174.9030  141.4940 N   0  0  2  0  0  0  0  0  0  0  0  0
  184.0740  178.2920  141.4470 C   0  0  0  0  0  3  0  0  0  0  0  0
  184.8180  177.9650  140.3620 N   0  0  0  0  0  0  0  0  0  0  0  0
  187.7030  174.7870  140.1950 N   0  0  0  0  0  2  0  0  0  0  0  0
  186.5840  177.1660  141.7760 C   0  0  0  0  0  0  0  0  0  0  0  0
  189.7310  173.6520  140.7750 C   0  0  0  0  0  2  0  0  0  0  0  0
  184.5930  178.1540  142.6910 N   0  0  0  0  0  0  0  0  0  0  0  0
  188.3720  176.4910  143.4660 C   0  0  1  0  0  3  0  0  0  0  0  0
  186.4020  177.6580  144.2750 C   0  0  0  0  0  2  0  0  0  0  0  0
  186.8860  177.3000  139.2550 C   0  0  0  0  0  1  0  0  0  0  0  0
  190.0870  174.7460  142.8780 C   0  0  0  0  0  2  0  0  0  0  0  0
  189.8410  176.0590  143.6510 C   0  0  2  0  0  3  0  0  0  0  0  0
  188.5680  173.6830  139.7940 C   0  0  2  0  0  3  0  0  0  0  0  0
  188.2160  175.1490  141.5020 C   0  0  2  0  0  3  0  0  0  0  0  0
  187.9250  177.7060  144.2520 C   0  0  0  0  0  2  0  0  0  0  0  0
  189.6850  174.9190  147.2630 C   0  0  0  0  0  0  0  0  0  0  0  0
  190.8310  175.5130  147.8010 C   0  0  0  0  0  3  0  0  0  0  0  0
  190.1980  175.8810  145.0960 C   0  0  0  0  0  0  0  0  0  0  0  0
  191.6610  176.2910  146.9900 C   0  0  0  0  0  3  0  0  0  0  0  0
  189.3690  175.1040  145.9130 C   0  0  0  0  0  3  0  0  0  0  0  0
  191.3480  176.4750  145.6410 C   0  0  0  0  0  3  0  0  0  0  0  0
  188.8800  174.1660  148.0490 F   0  0  0  0  0  0  0  0  0  0  0  0
  189.4820  174.1310  137.3260 C   0  0  0  0  0  0  0  0  0  0  0  0
  189.0680  173.9270  138.4400 C   0  0  0  0  0  0  0  0  0  0  0  0
  188.1780  175.6780  134.8360 C   0  0  0  0  0  1  0  0  0  0  0  0
  189.9890  174.3790  135.9720 C   0  0  1  0  0  3  0  0  0  0  0  0
  189.5410  175.7710  135.4940 C   0  0  1  0  0  3  0  0  0  0  0  0
  191.9230  176.5540  135.1570 C   0  0  0  0  0  2  0  0  0  0  0  0
  192.2480  175.4930  136.2170 C   0  0  0  0  0  2  0  0  0  0  0  0
  191.5130  174.1830  135.9430 C   0  0  0  0  0  2  0  0  0  0  0  0
  190.5410  176.3790  134.5130 C   0  0  0  0  0  2  0  0  0  0  0  0
  1 12  1  0  0  0  0
  2  8  1  0  0  0  0
  3  8  1  1  0  0  0
  3 11  1  0  0  0  0
  4  9  1  6  0  0  0
  4 17  1  0  0  0  0
  4 14  1  0  0  0  0
  5 10  2  0  0  0  0
  6  2  2  0  0  0  0
  6  5  1  0  0  0  0
  8  1  2  0  0  0  0
 10  1  1  0  0  0  0
 11 15  1  0  0  0  0
 11 18  1  6  0  0  0
 13  2  1  0  0  0  0
 14 15  1  0  0  0  0
 15 21  1  1  0  0  0
 16 27  1  6  0  0  0
 16  7  1  0  0  0  0
 16  9  1  0  0  0  0
 17  7  1  6  0  0  0
 17  3  1  0  0  0  0
 18 12  1  0  0  0  0
 19 20  1  0  0  0  0
 19 25  1  0  0  0  0
 21 24  2  0  0  0  0
 21 23  1  0  0  0  0
 22 20  2  0  0  0  0
 23 19  2  0  0  0  0
 24 22  1  0  0  0  0
 26 27  3  0  0  0  0
 29 26  1  1  0  0  0
 30 28  1  6  0  0  0
 30 29  1  0  0  0  0
 31 32  1  0  0  0  0
 33 29  1  0  0  0  0
 33 32  1  0  0  0  0
 34 31  1  0  0  0  0
 34 30  1  0  0  0  0
M  END
>  <MODEL>
4

>  <REMARK>
 VINA RESULT:      -8.5      3.763      7.286
  Name = 
  3 active torsions:
  status: ('A' for Active; 'I' for Inactive)
    1  A    between atoms: C_3  and  C_13
    2  A    between atoms: C_12  and  C_28
    3  A    between atoms: C_17  and  C_29
                            x       y       z     vdW  Elec       q    Type
                         _______ _______ _______ _____ _____    ______ ____

>  <TORSDO>
F 3

$$$$
=
 OpenBabel11052418353D

 34 39  0  0  1  0  0  0  0  0999 V2000
  191.4500  176.2310  146.1610 C   0  0  0  0  0  0  0  0  0  0  0  0
  192.2120  174.2170  145.0800 C   0  0  0  0  0  0  0  0  0  0  0  0
  189.8480  175.0790  144.5310 C   0  0  1  0  0  3  0  0  0  0  0  0
  188.5170  174.7060  142.5510 N   0  0  2  0  0  0  0  0  0  0  0  0
  193.6480  175.4360  146.5110 C   0  0  0  0  0  3  0  0  0  0  0  0
  193.4070  174.3730  145.7060 N   0  0  0  0  0  0  0  0  0  0  0  0
  190.8200  174.3900  142.2770 N   0  0  0  0  0  2  0  0  0  0  0  0
  191.2140  175.2100  145.2070 C   0  0  0  0  0  0  0  0  0  0  0  0
  188.7250  174.5590  141.1290 C   0  0  0  0  0  2  0  0  0  0  0  0
  192.6680  176.3400  146.7510 N   0  0  0  0  0  0  0  0  0  0  0  0
  188.8910  176.2210  144.9170 C   0  0  1  0  0  3  0  0  0  0  0  0
  190.3690  177.1850  146.5850 C   0  0  0  0  0  2  0  0  0  0  0  0
  191.9620  172.9250  144.3790 C   0  0  0  0  0  1  0  0  0  0  0  0
  187.5520  175.7650  142.8360 C   0  0  0  0  0  2  0  0  0  0  0  0
  187.4700  175.9940  144.3610 C   0  0  2  0  0  3  0  0  0  0  0  0
  190.1860  174.1590  140.9830 C   0  0  2  0  0  3  0  0  0  0  0  0
  189.8230  175.1540  143.0010 C   0  0  2  0  0  3  0  0  0  0  0  0
  188.9860  176.5760  146.3860 C   0  0  0  0  0  2  0  0  0  0  0  0
  184.7080  178.0550  145.9380 C   0  0  0  0  0  0  0  0  0  0  0  0
  184.8320  179.2700  145.2580 C   0  0  0  0  0  3  0  0  0  0  0  0
  186.5570  177.1440  144.6600 C   0  0  0  0  0  0  0  0  0  0  0  0
  185.8160  179.4250  144.2780 C   0  0  0  0  0  3  0  0  0  0  0  0
  185.5680  176.9940  145.6380 C   0  0  0  0  0  3  0  0  0  0  0  0
  186.6780  178.3670  143.9790 C   0  0  0  0  0  3  0  0  0  0  0  0
  183.7530  177.9040  146.8860 F   0  0  0  0  0  0  0  0  0  0  0  0
  190.3530  171.5670  140.3660 C   0  0  0  0  0  0  0  0  0  0  0  0
  190.2800  172.7380  140.6450 C   0  0  0  0  0  0  0  0  0  0  0  0
  189.6930  170.0090  137.6390 C   0  0  0  0  0  1  0  0  0  0  0  0
  190.4410  170.1440  140.0230 C   0  0  1  0  0  3  0  0  0  0  0  0
  190.8960  169.9850  138.5620 C   0  0  1  0  0  3  0  0  0  0  0  0
  192.9420  168.6490  139.2180 C   0  0  0  0  0  2  0  0  0  0  0  0
  192.8010  169.3970  140.5500 C   0  0  0  0  0  2  0  0  0  0  0  0
  191.3510  169.4210  141.0290 C   0  0  0  0  0  2  0  0  0  0  0  0
  191.6750  168.6900  138.3510 C   0  0  0  0  0  2  0  0  0  0  0  0
  1 12  1  0  0  0  0
  1 10  1  0  0  0  0
  2  8  1  0  0  0  0
  2  6  2  0  0  0  0
  3 11  1  0  0  0  0
  3  8  1  1  0  0  0
  4  9  1  6  0  0  0
  4 14  1  0  0  0  0
  4 17  1  0  0  0  0
  5 10  2  0  0  0  0
  6  5  1  0  0  0  0
  8  1  2  0  0  0  0
 11 18  1  1  0  0  0
 13  2  1  0  0  0  0
 14 15  1  0  0  0  0
 15 21  1  6  0  0  0
 15 11  1  0  0  0  0
 16 27  1  1  0  0  0
 16  9  1  0  0  0  0
 16  7  1  0  0  0  0
 17  7  1  6  0  0  0
 17  3  1  0  0  0  0
 18 12  1  0  0  0  0
 19 25  1  0  0  0  0
 20 19  2  0  0  0  0
 21 23  2  0  0  0  0
 22 20  1  0  0  0  0
 23 19  1  0  0  0  0
 24 22  2  0  0  0  0
 24 21  1  0  0  0  0
 26 27  3  0  0  0  0
 29 26  1  1  0  0  0
 29 33  1  0  0  0  0
 30 28  1  6  0  0  0
 30 29  1  0  0  0  0
 31 32  1  0  0  0  0
 32 33  1  0  0  0  0
 34 30  1  0  0  0  0
 34 31  1  0  0  0  0
M  END
>  <MODEL>
5

>  <REMARK>
 VINA RESULT:      -8.3      2.304      5.903
  Name = 
  3 active torsions:
  status: ('A' for Active; 'I' for Inactive)
    1  A    between atoms: C_3  and  C_13
    2  A    between atoms: C_12  and  C_28
    3  A    between atoms: C_17  and  C_29
                            x       y       z     vdW  Elec       q    Type
                         _______ _______ _______ _____ _____    ______ ____

>  <TORSDO>
F 3

$$$$
=
 OpenBabel11052418353D

 34 39  0  0  1  0  0  0  0  0999 V2000
  187.0360  177.5110  144.3500 C   0  0  0  0  0  0  0  0  0  0  0  0
  186.3310  177.2710  142.0590 C   0  0  0  0  0  0  0  0  0  0  0  0
  188.7420  176.6030  142.6710 C   0  0  1  0  0  3  0  0  0  0  0  0
  190.2150  175.0450  141.5620 N   0  0  2  0  0  0  0  0  0  0  0  0
  184.8070  177.9820  143.7220 C   0  0  0  0  0  3  0  0  0  0  0  0
  185.0940  177.6900  142.4310 N   0  0  0  0  0  0  0  0  0  0  0  0
  187.9350  174.7460  141.1220 N   0  0  0  0  0  2  0  0  0  0  0  0
  187.3300  177.0650  143.0370 C   0  0  0  0  0  0  0  0  0  0  0  0
  190.1150  173.7880  140.8550 C   0  0  0  0  0  2  0  0  0  0  0  0
  185.7790  177.9140  144.6640 N   0  0  0  0  0  0  0  0  0  0  0  0
  189.6830  176.5720  143.8900 C   0  0  1  0  0  3  0  0  0  0  0  0
  188.0950  177.5980  145.4130 C   0  0  0  0  0  2  0  0  0  0  0  0
  186.6160  177.1650  140.5980 C   0  0  0  0  0  1  0  0  0  0  0  0
  191.1700  174.9540  142.6640 C   0  0  0  0  0  2  0  0  0  0  0  0
  191.1380  176.2610  143.4840 C   0  0  2  0  0  3  0  0  0  0  0  0
  188.6630  173.7040  140.4040 C   0  0  2  0  0  3  0  0  0  0  0  0
  188.8850  175.1770  142.1300 C   0  0  2  0  0  3  0  0  0  0  0  0
  189.4800  177.7650  144.8000 C   0  0  0  0  0  2  0  0  0  0  0  0
  193.9570  176.9580  145.9210 C   0  0  0  0  0  0  0  0  0  0  0  0
  193.7530  175.9670  146.8870 C   0  0  0  0  0  3  0  0  0  0  0  0
  192.0420  176.1440  144.6740 C   0  0  0  0  0  0  0  0  0  0  0  0
  192.6960  175.0640  146.7480 C   0  0  0  0  0  3  0  0  0  0  0  0
  193.1030  177.0450  144.8170 C   0  0  0  0  0  3  0  0  0  0  0  0
  191.8410  175.1510  145.6470 C   0  0  0  0  0  3  0  0  0  0  0  0
  194.9820  177.8330  146.0540 F   0  0  0  0  0  0  0  0  0  0  0  0
  188.5020  174.1670  137.7800 C   0  0  0  0  0  0  0  0  0  0  0  0
  188.5760  173.9560  138.9650 C   0  0  0  0  0  0  0  0  0  0  0  0
  186.5190  176.0410  136.0910 C   0  0  0  0  0  1  0  0  0  0  0  0
  188.4130  174.4250  136.3390 C   0  0  1  0  0  3  0  0  0  0  0  0
  188.0280  175.8950  136.0950 C   0  0  1  0  0  3  0  0  0  0  0  0
  190.1280  176.3490  134.7590 C   0  0  0  0  0  2  0  0  0  0  0  0
  190.7040  175.1870  135.5790 C   0  0  0  0  0  2  0  0  0  0  0  0
  189.7270  174.0150  135.6550 C   0  0  0  0  0  2  0  0  0  0  0  0
  188.5950  176.4150  134.7770 C   0  0  0  0  0  2  0  0  0  0  0  0
  1 10  1  0  0  0  0
  1 12  1  0  0  0  0
  2  6  2  0  0  0  0
  2  8  1  0  0  0  0
  3  8  1  1  0  0  0
  3 11  1  0  0  0  0
  4  9  1  1  0  0  0
  4 17  1  0  0  0  0
  4 14  1  0  0  0  0
  5 10  2  0  0  0  0
  6  5  1  0  0  0  0
  8  1  2  0  0  0  0
 11 18  1  6  0  0  0
 13  2  1  0  0  0  0
 14 15  1  0  0  0  0
 15 11  1  0  0  0  0
 15 21  1  1  0  0  0
 16 27  1  6  0  0  0
 16  9  1  0  0  0  0
 16  7  1  0  0  0  0
 17  7  1  6  0  0  0
 17  3  1  0  0  0  0
 18 12  1  0  0  0  0
 19 25  1  0  0  0  0
 19 20  1  0  0  0  0
 21 23  1  0  0  0  0
 21 24  2  0  0  0  0
 22 20  2  0  0  0  0
 23 19  2  0  0  0  0
 24 22  1  0  0  0  0
 26 27  3  0  0  0  0
 29 26  1  1  0  0  0
 30 28  1  6  0  0  0
 30 29  1  0  0  0  0
 31 34  1  0  0  0  0
 31 32  1  0  0  0  0
 32 33  1  0  0  0  0
 33 29  1  0  0  0  0
 34 30  1  0  0  0  0
M  END
>  <MODEL>
6

>  <REMARK>
 VINA RESULT:      -8.2      3.723      7.910
  Name = 
  3 active torsions:
  status: ('A' for Active; 'I' for Inactive)
    1  A    between atoms: C_3  and  C_13
    2  A    between atoms: C_12  and  C_28
    3  A    between atoms: C_17  and  C_29
                            x       y       z     vdW  Elec       q    Type
                         _______ _______ _______ _____ _____    ______ ____

>  <TORSDO>
F 3

$$$$
=
 OpenBabel11052418353D

 34 39  0  0  1  0  0  0  0  0999 V2000
  194.7600  174.6580  142.4290 C   0  0  0  0  0  0  0  0  0  0  0  0
  193.5280  176.2110  143.7980 C   0  0  0  0  0  0  0  0  0  0  0  0
  192.2630  174.9460  141.9460 C   0  0  1  0  0  3  0  0  0  0  0  0
  189.9120  174.4170  141.8000 N   0  0  2  0  0  0  0  0  0  0  0  0
  195.8120  175.7690  144.2300 C   0  0  0  0  0  3  0  0  0  0  0  0
  194.6630  176.4310  144.5110 N   0  0  0  0  0  0  0  0  0  0  0  0
  190.6990  174.8710  143.9570 N   0  0  0  0  0  2  0  0  0  0  0  0
  193.5110  175.2270  142.7840 C   0  0  0  0  0  0  0  0  0  0  0  0
  188.8340  174.0580  142.6930 C   0  0  0  0  0  2  0  0  0  0  0  0
  195.8600  174.9100  143.1840 N   0  0  0  0  0  0  0  0  0  0  0  0
  192.5270  173.9220  140.8260 C   0  0  1  0  0  3  0  0  0  0  0  0
  194.9240  173.8070  141.2000 C   0  0  0  0  0  2  0  0  0  0  0  0
  192.3720  177.1210  144.0410 C   0  0  0  0  0  1  0  0  0  0  0  0
  190.0610  173.4330  140.7310 C   0  0  0  0  0  2  0  0  0  0  0  0
  191.3110  173.7680  139.8900 C   0  0  2  0  0  3  0  0  0  0  0  0
  189.2820  174.5410  144.0660 C   0  0  2  0  0  3  0  0  0  0  0  0
  191.0700  174.3150  142.6700 C   0  0  2  0  0  3  0  0  0  0  0  0
  193.8670  174.1410  140.1540 C   0  0  0  0  0  2  0  0  0  0  0  0
  191.8410  170.3700  138.2960 C   0  0  0  0  0  0  0  0  0  0  0  0
  191.9320  170.7000  136.9400 C   0  0  0  0  0  3  0  0  0  0  0  0
  191.5300  172.7110  138.8500 C   0  0  0  0  0  0  0  0  0  0  0  0
  191.8230  172.0340  136.5370 C   0  0  0  0  0  3  0  0  0  0  0  0
  191.6420  171.3740  139.2480 C   0  0  0  0  0  3  0  0  0  0  0  0
  191.6220  173.0380  137.4870 C   0  0  0  0  0  3  0  0  0  0  0  0
  191.9480  169.0780  138.6870 F   0  0  0  0  0  0  0  0  0  0  0  0
  187.9120  176.7280  144.7460 C   0  0  0  0  0  0  0  0  0  0  0  0
  188.5320  175.7410  144.4380 C   0  0  0  0  0  0  0  0  0  0  0  0
  186.2450  178.8200  142.9740 C   0  0  0  0  0  1  0  0  0  0  0  0
  187.1580  177.9280  145.1250 C   0  0  1  0  0  3  0  0  0  0  0  0
  185.9060  178.0600  144.2410 C   0  0  1  0  0  3  0  0  0  0  0  0
  184.3470  178.0000  146.2320 C   0  0  0  0  0  2  0  0  0  0  0  0
  185.4950  177.2310  146.9000 C   0  0  0  0  0  2  0  0  0  0  0  0
  186.8450  177.8920  146.6300 C   0  0  0  0  0  2  0  0  0  0  0  0
  184.7710  178.7690  144.9730 C   0  0  0  0  0  2  0  0  0  0  0  0
  1  8  2  0  0  0  0
  1 10  1  0  0  0  0
  2 13  1  0  0  0  0
  2  6  2  0  0  0  0
  3 17  1  0  0  0  0
  3  8  1  1  0  0  0
  4 14  1  6  0  0  0
  4 17  1  0  0  0  0
  4  9  1  0  0  0  0
  5  6  1  0  0  0  0
  7 16  1  0  0  0  0
  8  2  1  0  0  0  0
  9 16  1  0  0  0  0
 10  5  2  0  0  0  0
 11 18  1  6  0  0  0
 11  3  1  0  0  0  0
 12  1  1  0  0  0  0
 15 21  1  6  0  0  0
 15 14  1  0  0  0  0
 15 11  1  0  0  0  0
 16 27  1  6  0  0  0
 17  7  1  1  0  0  0
 18 12  1  0  0  0  0
 19 25  1  0  0  0  0
 19 23  1  0  0  0  0
 20 19  2  0  0  0  0
 21 23  2  0  0  0  0
 22 20  1  0  0  0  0
 22 24  2  0  0  0  0
 24 21  1  0  0  0  0
 27 26  3  0  0  0  0
 29 26  1  6  0  0  0
 29 33  1  0  0  0  0
 30 28  1  6  0  0  0
 30 34  1  0  0  0  0
 30 29  1  0  0  0  0
 31 32  1  0  0  0  0
 33 32  1  0  0  0  0
 34 31  1  0  0  0  0
M  END
>  <MODEL>
7

>  <REMARK>
 VINA RESULT:      -7.6      3.413      8.933
  Name = 
  3 active torsions:
  status: ('A' for Active; 'I' for Inactive)
    1  A    between atoms: C_3  and  C_13
    2  A    between atoms: C_12  and  C_28
    3  A    between atoms: C_17  and  C_29
                            x       y       z     vdW  Elec       q    Type
                         _______ _______ _______ _____ _____    ______ ____

>  <TORSDO>
F 3

$$$$
=
 OpenBabel11052418353D

 34 39  0  0  1  0  0  0  0  0999 V2000
  188.5310  174.5830  140.1940 C   0  0  0  0  0  0  0  0  0  0  0  0
  190.7270  173.5970  140.1040 C   0  0  0  0  0  0  0  0  0  0  0  0
  189.9990  174.7650  142.2820 C   0  0  1  0  0  3  0  0  0  0  0  0
  190.7810  174.3980  144.5360 N   0  0  2  0  0  0  0  0  0  0  0  0
  189.2330  173.3860  138.2810 C   0  0  0  0  0  3  0  0  0  0  0  0
  190.4420  173.1590  138.8510 N   0  0  0  0  0  0  0  0  0  0  0  0
  191.1470  172.6230  143.0540 N   0  0  0  0  0  2  0  0  0  0  0  0
  189.7300  174.2440  140.8690 C   0  0  0  0  0  0  0  0  0  0  0  0
  191.2240  173.2910  145.3530 C   0  0  0  0  0  2  0  0  0  0  0  0
  188.2990  174.1120  138.9420 N   0  0  0  0  0  0  0  0  0  0  0  0
  188.8010  175.5400  142.8600 C   0  0  1  0  0  3  0  0  0  0  0  0
  187.5080  175.5000  140.8050 C   0  0  0  0  0  2  0  0  0  0  0  0
  192.1370  173.4820  140.5740 C   0  0  0  0  0  1  0  0  0  0  0  0
  189.6860  175.1200  145.1780 C   0  0  0  0  0  2  0  0  0  0  0  0
  189.1410  176.1960  144.2140 C   0  0  2  0  0  3  0  0  0  0  0  0
  191.6460  172.2140  144.3630 C   0  0  2  0  0  3  0  0  0  0  0  0
  190.2480  173.7160  143.3700 C   0  0  2  0  0  3  0  0  0  0  0  0
  188.1460  176.4330  141.8280 C   0  0  0  0  0  2  0  0  0  0  0  0
  186.3620  178.7080  144.7900 C   0  0  0  0  0  0  0  0  0  0  0  0
  185.7320  178.1850  145.9240 C   0  0  0  0  0  3  0  0  0  0  0  0
  187.9540  176.8790  144.8230 C   0  0  0  0  0  0  0  0  0  0  0  0
  186.2110  177.0110  146.5090 C   0  0  0  0  0  3  0  0  0  0  0  0
  187.4710  178.0570  144.2420 C   0  0  0  0  0  3  0  0  0  0  0  0
  187.3180  176.3570  145.9620 C   0  0  0  0  0  3  0  0  0  0  0  0
  185.8990  179.8480  144.2230 F   0  0  0  0  0  0  0  0  0  0  0  0
  194.3090  172.0540  144.2870 C   0  0  0  0  0  0  0  0  0  0  0  0
  193.1060  172.1260  144.3190 C   0  0  0  0  0  0  0  0  0  0  0  0
  196.3870  172.4430  141.8720 C   0  0  0  0  0  1  0  0  0  0  0  0
  195.7730  171.9650  144.2500 C   0  0  1  0  0  3  0  0  0  0  0  0
  196.3360  173.0140  143.2750 C   0  0  1  0  0  3  0  0  0  0  0  0
  197.7180  174.1240  145.0810 C   0  0  0  0  0  2  0  0  0  0  0  0
  196.6580  173.5390  146.0230 C   0  0  0  0  0  2  0  0  0  0  0  0
  196.3380  172.0870  145.6740 C   0  0  0  0  0  2  0  0  0  0  0  0
  197.7300  173.4770  143.6890 C   0  0  0  0  0  2  0  0  0  0  0  0
  1 12  1  0  0  0  0
  1  8  1  0  0  0  0
  2 13  1  0  0  0  0
  2  8  2  0  0  0  0
  3  8  1  6  0  0  0
  3 11  1  0  0  0  0
  3 17  1  0  0  0  0
  4 14  1  1  0  0  0
  4  9  1  0  0  0  0
  5  6  2  0  0  0  0
  5 10  1  0  0  0  0
  6  2  1  0  0  0  0
  7 16  1  0  0  0  0
 10  1  2  0  0  0  0
 11 18  1  6  0  0  0
 11 15  1  0  0  0  0
 12 18  1  0  0  0  0
 15 21  1  1  0  0  0
 15 14  1  0  0  0  0
 16 27  1  6  0  0  0
 16  9  1  0  0  0  0
 17  7  1  6  0  0  0
 17  4  1  0  0  0  0
 19 20  1  0  0  0  0
 20 22  2  0  0  0  0
 21 24  2  0  0  0  0
 23 19  2  0  0  0  0
 23 21  1  0  0  0  0
 24 22  1  0  0  0  0
 25 19  1  0  0  0  0
 26 27  3  0  0  0  0
 29 26  1  1  0  0  0
 29 33  1  0  0  0  0
 30 28  1  6  0  0  0
 30 34  1  0  0  0  0
 30 29  1  0  0  0  0
 31 32  1  0  0  0  0
 33 32  1  0  0  0  0
 34 31  1  0  0  0  0
M  END
>  <MODEL>
8

>  <REMARK>
 VINA RESULT:      -7.4      1.663      2.251
  Name = 
  3 active torsions:
  status: ('A' for Active; 'I' for Inactive)
    1  A    between atoms: C_3  and  C_13
    2  A    between atoms: C_12  and  C_28
    3  A    between atoms: C_17  and  C_29
                            x       y       z     vdW  Elec       q    Type
                         _______ _______ _______ _____ _____    ______ ____

>  <TORSDO>
F 3

$$$$
=
 OpenBabel11052418353D

 34 39  0  0  1  0  0  0  0  0999 V2000
  188.0490  175.1350  140.1240 C   0  0  0  0  0  0  0  0  0  0  0  0
  190.0490  173.7910  140.0960 C   0  0  0  0  0  0  0  0  0  0  0  0
  189.4010  174.9710  142.2920 C   0  0  1  0  0  3  0  0  0  0  0  0
  189.9730  174.3780  144.5610 N   0  0  2  0  0  0  0  0  0  0  0  0
  188.6520  173.9180  138.1900 C   0  0  0  0  0  3  0  0  0  0  0  0
  189.7690  173.4630  138.8080 N   0  0  0  0  0  0  0  0  0  0  0  0
  190.1220  172.6330  143.0080 N   0  0  0  0  0  2  0  0  0  0  0  0
  189.1310  174.5660  140.8420 C   0  0  0  0  0  0  0  0  0  0  0  0
  190.1730  173.1780  145.3400 C   0  0  0  0  0  2  0  0  0  0  0  0
  187.8170  174.7640  138.8390 N   0  0  0  0  0  0  0  0  0  0  0  0
  188.3190  175.9150  142.8480 C   0  0  1  0  0  3  0  0  0  0  0  0
  187.1620  176.1870  140.7300 C   0  0  0  0  0  2  0  0  0  0  0  0
  191.3890  173.4150  140.6310 C   0  0  0  0  0  1  0  0  0  0  0  0
  188.9790  175.2500  145.1830 C   0  0  0  0  0  2  0  0  0  0  0  0
  188.6830  176.4440  144.2500 C   0  0  2  0  0  3  0  0  0  0  0  0
  190.4650  172.0880  144.3170 C   0  0  2  0  0  3  0  0  0  0  0  0
  189.4030  173.8490  143.3350 C   0  0  2  0  0  3  0  0  0  0  0  0
  187.8860  176.9510  141.8320 C   0  0  0  0  0  2  0  0  0  0  0  0
  186.2010  177.8800  146.7290 C   0  0  0  0  0  0  0  0  0  0  0  0
  185.5690  178.8650  145.9650 C   0  0  0  0  0  3  0  0  0  0  0  0
  187.5940  177.2940  144.8330 C   0  0  0  0  0  0  0  0  0  0  0  0
  185.9460  179.0670  144.6340 C   0  0  0  0  0  3  0  0  0  0  0  0
  187.2110  177.0950  146.1630 C   0  0  0  0  0  3  0  0  0  0  0  0
  186.9560  178.2850  144.0680 C   0  0  0  0  0  3  0  0  0  0  0  0
  185.8350  177.6840  148.0180 F   0  0  0  0  0  0  0  0  0  0  0  0
  193.0630  171.4770  144.3700 C   0  0  0  0  0  0  0  0  0  0  0  0
  191.8890  171.7520  144.3450 C   0  0  0  0  0  0  0  0  0  0  0  0
  195.6240  173.2280  145.1900 C   0  0  0  0  0  1  0  0  0  0  0  0
  194.4900  171.1410  144.4040 C   0  0  1  0  0  3  0  0  0  0  0  0
  195.1640  171.8420  145.5960 C   0  0  1  0  0  3  0  0  0  0  0  0
  195.9250  169.6510  146.6080 C   0  0  0  0  0  2  0  0  0  0  0  0
  194.7320  169.0700  145.8370 C   0  0  0  0  0  2  0  0  0  0  0  0
  194.6650  169.6140  144.4120 C   0  0  0  0  0  2  0  0  0  0  0  0
  196.3530  171.0430  146.1210 C   0  0  0  0  0  2  0  0  0  0  0  0
  1 12  1  0  0  0  0
  1  8  1  0  0  0  0
  2 13  1  0  0  0  0
  2  8  2  0  0  0  0
  3  8  1  6  0  0  0
  3 11  1  0  0  0  0
  3 17  1  0  0  0  0
  4 14  1  1  0  0  0
  4  9  1  0  0  0  0
  5  6  2  0  0  0  0
  5 10  1  0  0  0  0
  6  2  1  0  0  0  0
  7 16  1  0  0  0  0
 10  1  2  0  0  0  0
 11 18  1  6  0  0  0
 11 15  1  0  0  0  0
 12 18  1  0  0  0  0
 15 21  1  1  0  0  0
 15 14  1  0  0  0  0
 16 27  1  6  0  0  0
 16  9  1  0  0  0  0
 17  7  1  6  0  0  0
 17  4  1  0  0  0  0
 19 25  1  0  0  0  0
 20 19  2  0  0  0  0
 21 23  2  0  0  0  0
 22 20  1  0  0  0  0
 23 19  1  0  0  0  0
 24 22  2  0  0  0  0
 24 21  1  0  0  0  0
 27 26  3  0  0  0  0
 29 26  1  1  0  0  0
 29 33  1  0  0  0  0
 29 30  1  0  0  0  0
 30 28  1  6  0  0  0
 30 34  1  0  0  0  0
 32 31  1  0  0  0  0
 33 32  1  0  0  0  0
 34 31  1  0  0  0  0
M  END
>  <MODEL>
9

>  <REMARK>
 VINA RESULT:      -7.4      2.440      3.187
  Name = 
  3 active torsions:
  status: ('A' for Active; 'I' for Inactive)
    1  A    between atoms: C_3  and  C_13
    2  A    between atoms: C_12  and  C_28
    3  A    between atoms: C_17  and  C_29
                            x       y       z     vdW  Elec       q    Type
                         _______ _______ _______ _____ _____    ______ ____

>  <TORSDO>
F 3

$$$$
