=
 OpenBabel11052417303D

 25 28  0  0  1  0  0  0  0  0999 V2000
  187.3160  177.7720  144.1890 C   0  0  0  0  0  0  0  0  0  0  0  0
  188.6450  177.4410  144.5160 C   0  0  0  0  0  0  0  0  0  0  0  0
  186.7100  177.8440  146.5270 C   0  0  0  0  0  3  0  0  0  0  0  0
  186.8100  177.9850  142.8750 N   0  0  0  0  0  0  0  0  0  0  0  0
  185.2090  178.2560  140.5840 C   0  0  0  0  0  2  0  0  0  0  0  0
  188.0220  177.5070  146.8780 C   0  0  0  0  0  3  0  0  0  0  0  0
  185.4780  178.5970  142.8990 C   0  0  1  0  0  3  0  0  0  0  0  0
  184.6210  177.9790  141.8930 N   0  0  0  0  0  2  0  0  0  0  0  0
  190.3240  176.9790  146.2340 C   0  0  0  0  0  0  0  0  0  0  0  0
  190.8240  176.7920  147.9100 Cl  0  0  0  0  0  0  0  0  0  0  0  0
  189.6260  177.2710  143.5320 C   0  0  0  0  0  3  0  0  0  0  0  0
  186.6160  177.6520  140.4330 C   0  0  0  0  0  2  0  0  0  0  0  0
  186.3800  177.9700  145.1790 C   0  0  0  0  0  0  0  0  0  0  0  0
  184.7570  178.3800  144.5740 S   0  0  0  0  0  0  0  0  0  0  0  0
  191.2820  176.8060  145.2330 C   0  0  0  0  0  3  0  0  0  0  0  0
  187.2100  177.1400  141.7480 C   0  0  0  0  0  2  0  0  0  0  0  0
  190.9370  176.9480  143.8860 C   0  0  0  0  0  0  0  0  0  0  0  0
  188.9990  177.3030  145.8860 C   0  0  0  0  0  0  0  0  0  0  0  0
  191.9740  176.7840  142.8310 C   0  0  0  0  0  2  0  0  0  0  0  0
  192.9330  175.6680  143.2140 C   0  0  0  0  0  2  0  0  0  0  0  0
  195.2580  176.3200  143.9620 C   0  0  0  0  0  0  0  0  0  0  0  0
  194.8750  176.2100  145.4000 C   0  0  0  0  0  1  0  0  0  0  0  0
  196.4400  176.6490  143.6730 O   0  0  0  0  0  0  0  0  0  0  0  0
  194.3050  176.0610  142.9180 N   0  0  0  0  0  0  0  0  0  0  0  0
  194.6620  176.2910  141.5270 C   0  0  0  0  0  1  0  0  0  0  0  0
  1  2  2  0  0  0  0
  1 13  1  0  0  0  0
  2 18  1  0  0  0  0
  3  6  1  0  0  0  0
  4  7  1  0  0  0  0
  4  1  1  0  0  0  0
  5  8  1  0  0  0  0
  7  8  1  6  0  0  0
  7 14  1  0  0  0  0
  9 10  1  0  0  0  0
 11 17  2  0  0  0  0
 11  2  1  0  0  0  0
 12  5  1  0  0  0  0
 12 16  1  0  0  0  0
 13  3  2  0  0  0  0
 14 13  1  0  0  0  0
 15  9  2  0  0  0  0
 16  4  1  0  0  0  0
 17 15  1  0  0  0  0
 18  9  1  0  0  0  0
 18  6  2  0  0  0  0
 19 20  1  0  0  0  0
 19 17  1  0  0  0  0
 21 22  1  0  0  0  0
 23 21  2  0  0  0  0
 24 20  1  0  0  0  0
 24 21  1  0  0  0  0
 25 24  1  0  0  0  0
M  END
>  <MODEL>
1

>  <REMARK>
 VINA RESULT:      -7.6      0.000      0.000
  Name = 
  3 active torsions:
  status: ('A' for Active; 'I' for Inactive)
    1  A    between atoms: C_6  and  C_15
    2  A    between atoms: C_6  and  C_23
    3  A    between atoms: C_15  and  N_21
                            x       y       z     vdW  Elec       q    Type
                         _______ _______ _______ _____ _____    ______ ____

>  <TORSDO>
F 3

$$$$
=
 OpenBabel11052417303D

 25 28  0  0  1  0  0  0  0  0999 V2000
  187.0560  177.0700  143.0110 C   0  0  0  0  0  0  0  0  0  0  0  0
  187.1450  177.0570  144.4160 C   0  0  0  0  0  0  0  0  0  0  0  0
  185.6750  179.0520  143.0720 C   0  0  0  0  0  3  0  0  0  0  0  0
  187.7000  176.1580  142.1270 N   0  0  0  0  0  0  0  0  0  0  0  0
  188.4700  174.5580  139.9520 C   0  0  0  0  0  2  0  0  0  0  0  0
  185.7410  179.0570  144.4690 C   0  0  0  0  0  3  0  0  0  0  0  0
  187.6440  176.6200  140.7360 C   0  0  1  0  0  3  0  0  0  0  0  0
  187.3590  175.5020  139.8450 N   0  0  0  0  0  2  0  0  0  0  0  0
  186.5530  178.0760  146.5600 C   0  0  0  0  0  0  0  0  0  0  0  0
  185.7400  179.2970  147.5300 Cl  0  0  0  0  0  0  0  0  0  0  0  0
  187.8980  176.0940  145.0970 C   0  0  0  0  0  3  0  0  0  0  0  0
  188.6260  173.9940  141.3730 C   0  0  0  0  0  2  0  0  0  0  0  0
  186.3380  178.0510  142.3650 C   0  0  0  0  0  0  0  0  0  0  0  0
  186.3390  177.9050  140.5900 S   0  0  0  0  0  0  0  0  0  0  0  0
  187.3040  177.0980  147.2170 C   0  0  0  0  0  3  0  0  0  0  0  0
  187.7860  174.7280  142.4220 C   0  0  0  0  0  2  0  0  0  0  0  0
  187.9730  176.1080  146.4920 C   0  0  0  0  0  0  0  0  0  0  0  0
  186.4710  178.0680  145.1540 C   0  0  0  0  0  0  0  0  0  0  0  0
  188.7880  175.0870  147.2040 C   0  0  0  0  0  2  0  0  0  0  0  0
  189.8590  174.5360  146.2760 C   0  0  0  0  0  2  0  0  0  0  0  0
  191.7720  175.7870  145.1950 C   0  0  0  0  0  0  0  0  0  0  0  0
  191.2990  175.4210  143.8290 C   0  0  0  0  0  1  0  0  0  0  0  0
  192.8090  176.4930  145.3080 O   0  0  0  0  0  0  0  0  0  0  0  0
  191.0680  175.3450  146.3680 N   0  0  0  0  0  0  0  0  0  0  0  0
  191.6110  175.6080  147.6910 C   0  0  0  0  0  1  0  0  0  0  0  0
  1  2  1  0  0  0  0
  2 11  2  0  0  0  0
  2 18  1  0  0  0  0
  3  6  2  0  0  0  0
  4 16  1  0  0  0  0
  4  1  1  0  0  0  0
  5 12  1  0  0  0  0
  6 18  1  0  0  0  0
  7  8  1  6  0  0  0
  7  4  1  0  0  0  0
  8  5  1  0  0  0  0
  9 15  1  0  0  0  0
  9 10  1  0  0  0  0
 11 17  1  0  0  0  0
 12 16  1  0  0  0  0
 13  1  2  0  0  0  0
 13  3  1  0  0  0  0
 14  7  1  0  0  0  0
 14 13  1  0  0  0  0
 17 19  1  0  0  0  0
 17 15  2  0  0  0  0
 18  9  2  0  0  0  0
 20 24  1  0  0  0  0
 20 19  1  0  0  0  0
 21 23  2  0  0  0  0
 21 24  1  0  0  0  0
 22 21  1  0  0  0  0
 24 25  1  0  0  0  0
M  END
>  <MODEL>
2

>  <REMARK>
 VINA RESULT:      -7.6      2.718      4.055
  Name = 
  3 active torsions:
  status: ('A' for Active; 'I' for Inactive)
    1  A    between atoms: C_6  and  C_15
    2  A    between atoms: C_6  and  C_23
    3  A    between atoms: C_15  and  N_21
                            x       y       z     vdW  Elec       q    Type
                         _______ _______ _______ _____ _____    ______ ____

>  <TORSDO>
F 3

$$$$
=
 OpenBabel11052417303D

 25 28  0  0  1  0  0  0  0  0999 V2000
  187.0980  177.7470  144.2330 C   0  0  0  0  0  0  0  0  0  0  0  0
  188.3790  177.2230  144.4970 C   0  0  0  0  0  0  0  0  0  0  0  0
  186.6920  178.0610  146.5950 C   0  0  0  0  0  3  0  0  0  0  0  0
  186.5340  177.9600  142.9430 N   0  0  0  0  0  0  0  0  0  0  0  0
  184.8270  178.3490  140.7480 C   0  0  0  0  0  2  0  0  0  0  0  0
  187.9560  177.5350  146.8840 C   0  0  0  0  0  3  0  0  0  0  0  0
  185.3220  178.7830  143.0100 C   0  0  1  0  0  3  0  0  0  0  0  0
  184.3040  178.2540  142.1100 N   0  0  0  0  0  2  0  0  0  0  0  0
  190.0880  176.5980  146.1310 C   0  0  0  0  0  0  0  0  0  0  0  0
  190.6780  176.4340  147.7790 Cl  0  0  0  0  0  0  0  0  0  0  0  0
  189.2410  176.8340  143.4650 C   0  0  0  0  0  3  0  0  0  0  0  0
  186.1030  177.5140  140.5510 C   0  0  0  0  0  2  0  0  0  0  0  0
  186.2840  178.1570  145.2660 C   0  0  0  0  0  0  0  0  0  0  0  0
  184.7060  178.7910  144.7410 S   0  0  0  0  0  0  0  0  0  0  0  0
  190.9270  176.2080  145.0830 C   0  0  0  0  0  3  0  0  0  0  0  0
  186.7060  176.9930  141.8580 C   0  0  0  0  0  2  0  0  0  0  0  0
  190.5080  176.3220  143.7560 C   0  0  0  0  0  0  0  0  0  0  0  0
  188.8090  177.1130  145.8470 C   0  0  0  0  0  0  0  0  0  0  0  0
  191.4210  175.9250  142.6500 C   0  0  0  0  0  2  0  0  0  0  0  0
  191.6820  174.4280  142.7030 C   0  0  0  0  0  2  0  0  0  0  0  0
  189.7600  172.8410  143.1220 C   0  0  0  0  0  0  0  0  0  0  0  0
  190.1660  172.6540  144.5450 C   0  0  0  0  0  1  0  0  0  0  0  0
  188.7440  172.2290  142.6960 O   0  0  0  0  0  0  0  0  0  0  0  0
  190.5090  173.6970  142.2430 N   0  0  0  0  0  0  0  0  0  0  0  0
  190.1710  173.7720  140.8310 C   0  0  0  0  0  1  0  0  0  0  0  0
  1  2  2  0  0  0  0
  1 13  1  0  0  0  0
  2 18  1  0  0  0  0
  3  6  1  0  0  0  0
  4  7  1  0  0  0  0
  4  1  1  0  0  0  0
  5  8  1  0  0  0  0
  7  8  1  6  0  0  0
  7 14  1  0  0  0  0
  9 10  1  0  0  0  0
 11 17  2  0  0  0  0
 11  2  1  0  0  0  0
 12  5  1  0  0  0  0
 12 16  1  0  0  0  0
 13  3  2  0  0  0  0
 14 13  1  0  0  0  0
 15  9  2  0  0  0  0
 16  4  1  0  0  0  0
 17 15  1  0  0  0  0
 18  9  1  0  0  0  0
 18  6  2  0  0  0  0
 19 20  1  0  0  0  0
 19 17  1  0  0  0  0
 21 22  1  0  0  0  0
 23 21  2  0  0  0  0
 24 20  1  0  0  0  0
 24 21  1  0  0  0  0
 25 24  1  0  0  0  0
M  END
>  <MODEL>
3

>  <REMARK>
 VINA RESULT:      -7.4      2.538      2.924
  Name = 
  3 active torsions:
  status: ('A' for Active; 'I' for Inactive)
    1  A    between atoms: C_6  and  C_15
    2  A    between atoms: C_6  and  C_23
    3  A    between atoms: C_15  and  N_21
                            x       y       z     vdW  Elec       q    Type
                         _______ _______ _______ _____ _____    ______ ____

>  <TORSDO>
F 3

$$$$
=
 OpenBabel11052417303D

 25 28  0  0  1  0  0  0  0  0999 V2000
  187.3790  177.7330  144.1910 C   0  0  0  0  0  0  0  0  0  0  0  0
  188.7060  177.4100  144.5350 C   0  0  0  0  0  0  0  0  0  0  0  0
  186.7390  177.7840  146.5200 C   0  0  0  0  0  3  0  0  0  0  0  0
  186.8900  177.9500  142.8710 N   0  0  0  0  0  0  0  0  0  0  0  0
  185.3210  178.2230  140.5590 C   0  0  0  0  0  2  0  0  0  0  0  0
  188.0480  177.4560  146.8890 C   0  0  0  0  0  3  0  0  0  0  0  0
  185.5530  178.5520  142.8800 C   0  0  1  0  0  3  0  0  0  0  0  0
  184.7160  177.9340  141.8580 N   0  0  0  0  0  2  0  0  0  0  0  0
  190.3630  176.9500  146.2750 C   0  0  0  0  0  0  0  0  0  0  0  0
  190.8400  176.7560  147.9560 Cl  0  0  0  0  0  0  0  0  0  0  0  0
  189.7020  177.2540  143.5640 C   0  0  0  0  0  3  0  0  0  0  0  0
  186.7340  177.6320  140.4250 C   0  0  0  0  0  2  0  0  0  0  0  0
  186.4270  177.9170  145.1690 C   0  0  0  0  0  0  0  0  0  0  0  0
  184.8090  178.3180  144.5430 S   0  0  0  0  0  0  0  0  0  0  0  0
  191.3370  176.7910  145.2860 C   0  0  0  0  0  3  0  0  0  0  0  0
  187.3130  177.1160  141.7450 C   0  0  0  0  0  2  0  0  0  0  0  0
  191.0100  176.9390  143.9350 C   0  0  0  0  0  0  0  0  0  0  0  0
  189.0400  177.2650  145.9090 C   0  0  0  0  0  0  0  0  0  0  0  0
  192.0640  176.7900  142.8940 C   0  0  0  0  0  2  0  0  0  0  0  0
  192.9800  175.6290  143.2450 C   0  0  0  0  0  2  0  0  0  0  0  0
  195.2150  176.1150  142.1670 C   0  0  0  0  0  0  0  0  0  0  0  0
  194.7210  175.6610  140.8350 C   0  0  0  0  0  1  0  0  0  0  0  0
  196.4020  176.5240  142.2670 O   0  0  0  0  0  0  0  0  0  0  0  0
  194.3620  176.0860  143.3240 N   0  0  0  0  0  0  0  0  0  0  0  0
  194.8950  176.4160  144.6360 C   0  0  0  0  0  1  0  0  0  0  0  0
  1  2  2  0  0  0  0
  1 13  1  0  0  0  0
  2 18  1  0  0  0  0
  3  6  1  0  0  0  0
  4  7  1  0  0  0  0
  4  1  1  0  0  0  0
  5  8  1  0  0  0  0
  7  8  1  6  0  0  0
  7 14  1  0  0  0  0
  9 10  1  0  0  0  0
 11 17  2  0  0  0  0
 11  2  1  0  0  0  0
 12  5  1  0  0  0  0
 12 16  1  0  0  0  0
 13  3  2  0  0  0  0
 14 13  1  0  0  0  0
 15  9  2  0  0  0  0
 16  4  1  0  0  0  0
 17 15  1  0  0  0  0
 18  9  1  0  0  0  0
 18  6  2  0  0  0  0
 19 20  1  0  0  0  0
 19 17  1  0  0  0  0
 20 24  1  0  0  0  0
 21 23  2  0  0  0  0
 21 24  1  0  0  0  0
 22 21  1  0  0  0  0
 24 25  1  0  0  0  0
M  END
>  <MODEL>
4

>  <REMARK>
 VINA RESULT:      -7.3      0.426      1.208
  Name = 
  3 active torsions:
  status: ('A' for Active; 'I' for Inactive)
    1  A    between atoms: C_6  and  C_15
    2  A    between atoms: C_6  and  C_23
    3  A    between atoms: C_15  and  N_21
                            x       y       z     vdW  Elec       q    Type
                         _______ _______ _______ _____ _____    ______ ____

>  <TORSDO>
F 3

$$$$
=
 OpenBabel11052417303D

 25 28  0  0  1  0  0  0  0  0999 V2000
  186.8030  176.9380  143.4300 C   0  0  0  0  0  0  0  0  0  0  0  0
  187.9710  176.1950  143.6880 C   0  0  0  0  0  0  0  0  0  0  0  0
  187.0660  176.6080  141.0510 C   0  0  0  0  0  3  0  0  0  0  0  0
  185.9430  177.5070  144.4120 N   0  0  0  0  0  0  0  0  0  0  0  0
  184.0650  179.0410  145.8270 C   0  0  0  0  0  2  0  0  0  0  0  0
  188.2350  175.8740  141.2800 C   0  0  0  0  0  3  0  0  0  0  0  0
  184.6750  177.9540  143.8280 C   0  0  1  0  0  3  0  0  0  0  0  0
  184.2850  179.2400  144.3960 N   0  0  0  0  0  2  0  0  0  0  0  0
  189.8650  174.9080  142.8290 C   0  0  0  0  0  0  0  0  0  0  0  0
  190.8110  174.2210  141.5150 Cl  0  0  0  0  0  0  0  0  0  0  0  0
  188.4160  175.9520  144.9930 C   0  0  0  0  0  3  0  0  0  0  0  0
  185.3360  178.5760  146.5560 C   0  0  0  0  0  2  0  0  0  0  0  0
  186.3690  177.1310  142.1380 C   0  0  0  0  0  0  0  0  0  0  0  0
  184.8770  178.0930  142.0080 S   0  0  0  0  0  0  0  0  0  0  0  0
  190.2930  174.6870  144.1410 C   0  0  0  0  0  3  0  0  0  0  0  0
  186.4680  178.1560  145.6140 C   0  0  0  0  0  2  0  0  0  0  0  0
  189.5750  175.2080  145.2200 C   0  0  0  0  0  0  0  0  0  0  0  0
  188.6990  175.6590  142.5910 C   0  0  0  0  0  0  0  0  0  0  0  0
  190.0300  174.9440  146.6130 C   0  0  0  0  0  2  0  0  0  0  0  0
  191.5250  174.6730  146.6290 C   0  0  0  0  0  2  0  0  0  0  0  0
  193.5950  176.1230  146.5540 C   0  0  0  0  0  0  0  0  0  0  0  0
  194.3100  175.1360  145.6940 C   0  0  0  0  0  1  0  0  0  0  0  0
  194.1920  177.1800  146.8880 O   0  0  0  0  0  0  0  0  0  0  0  0
  192.2510  175.8800  147.0040 N   0  0  0  0  0  0  0  0  0  0  0  0
  191.6160  176.7920  147.9400 C   0  0  0  0  0  1  0  0  0  0  0  0
  1  2  1  0  0  0  0
  1  4  1  0  0  0  0
  2 11  1  0  0  0  0
  3  6  2  0  0  0  0
  3 13  1  0  0  0  0
  4 16  1  0  0  0  0
  5 12  1  0  0  0  0
  6 18  1  0  0  0  0
  7 14  1  6  0  0  0
  7  8  1  0  0  0  0
  7  4  1  0  0  0  0
  8  5  1  0  0  0  0
  9 15  2  0  0  0  0
 10  9  1  0  0  0  0
 11 17  2  0  0  0  0
 13  1  2  0  0  0  0
 14 13  1  0  0  0  0
 15 17  1  0  0  0  0
 16 12  1  0  0  0  0
 17 19  1  0  0  0  0
 18  9  1  0  0  0  0
 18  2  2  0  0  0  0
 19 20  1  0  0  0  0
 20 24  1  0  0  0  0
 21 23  2  0  0  0  0
 21 24  1  0  0  0  0
 22 21  1  0  0  0  0
 24 25  1  0  0  0  0
M  END
>  <MODEL>
5

>  <REMARK>
 VINA RESULT:      -7.1      2.724      4.080
  Name = 
  3 active torsions:
  status: ('A' for Active; 'I' for Inactive)
    1  A    between atoms: C_6  and  C_15
    2  A    between atoms: C_6  and  C_23
    3  A    between atoms: C_15  and  N_21
                            x       y       z     vdW  Elec       q    Type
                         _______ _______ _______ _____ _____    ______ ____

>  <TORSDO>
F 3

$$$$
=
 OpenBabel11052417303D

 25 28  0  0  1  0  0  0  0  0999 V2000
  185.8200  177.5240  143.8130 C   0  0  0  0  0  0  0  0  0  0  0  0
  186.6000  176.9010  142.8200 C   0  0  0  0  0  0  0  0  0  0  0  0
  184.4510  178.5910  142.1310 C   0  0  0  0  0  3  0  0  0  0  0  0
  185.9700  177.3540  145.2190 N   0  0  0  0  0  0  0  0  0  0  0  0
  185.9410  177.6290  148.0130 C   0  0  0  0  0  2  0  0  0  0  0  0
  185.2170  177.9910  141.1250 C   0  0  0  0  0  3  0  0  0  0  0  0
  184.8260  177.9010  145.9560 C   0  0  1  0  0  3  0  0  0  0  0  0
  185.2850  178.6060  147.1470 N   0  0  0  0  0  2  0  0  0  0  0  0
  187.0570  176.5270  140.4460 C   0  0  0  0  0  0  0  0  0  0  0  0
  186.7290  176.7910  138.7380 Cl  0  0  0  0  0  0  0  0  0  0  0  0
  187.6490  176.0330  143.1440 C   0  0  0  0  0  3  0  0  0  0  0  0
  187.1710  176.9880  147.3470 C   0  0  0  0  0  2  0  0  0  0  0  0
  184.7700  178.3440  143.4650 C   0  0  0  0  0  0  0  0  0  0  0  0
  183.9000  179.0410  144.8530 S   0  0  0  0  0  0  0  0  0  0  0  0
  188.1050  175.6720  140.7960 C   0  0  0  0  0  3  0  0  0  0  0  0
  187.2880  177.2900  145.8510 C   0  0  0  0  0  2  0  0  0  0  0  0
  188.4040  175.4260  142.1390 C   0  0  0  0  0  0  0  0  0  0  0  0
  186.2930  177.1460  141.4530 C   0  0  0  0  0  0  0  0  0  0  0  0
  189.5070  174.4940  142.4960 C   0  0  0  0  0  2  0  0  0  0  0  0
  190.7680  175.2800  142.8190 C   0  0  0  0  0  2  0  0  0  0  0  0
  190.8680  176.6500  144.9410 C   0  0  0  0  0  0  0  0  0  0  0  0
  190.6310  177.9160  144.1880 C   0  0  0  0  0  1  0  0  0  0  0  0
  191.0110  176.7060  146.1920 O   0  0  0  0  0  0  0  0  0  0  0  0
  190.9390  175.3850  144.2630 N   0  0  0  0  0  0  0  0  0  0  0  0
  191.2910  174.1790  144.9950 C   0  0  0  0  0  1  0  0  0  0  0  0
  1  4  1  0  0  0  0
  2 11  1  0  0  0  0
  2  1  2  0  0  0  0
  3 13  2  0  0  0  0
  4 16  1  0  0  0  0
  4  7  1  0  0  0  0
  6 18  2  0  0  0  0
  6  3  1  0  0  0  0
  7 14  1  6  0  0  0
  7  8  1  0  0  0  0
  8  5  1  0  0  0  0
  9 15  2  0  0  0  0
  9 18  1  0  0  0  0
 10  9  1  0  0  0  0
 12  5  1  0  0  0  0
 13  1  1  0  0  0  0
 13 14  1  0  0  0  0
 15 17  1  0  0  0  0
 16 12  1  0  0  0  0
 17 19  1  0  0  0  0
 17 11  2  0  0  0  0
 18  2  1  0  0  0  0
 19 20  1  0  0  0  0
 20 24  1  0  0  0  0
 21 23  2  0  0  0  0
 22 21  1  0  0  0  0
 24 21  1  0  0  0  0
 24 25  1  0  0  0  0
M  END
>  <MODEL>
6

>  <REMARK>
 VINA RESULT:      -7.1      3.205      4.927
  Name = 
  3 active torsions:
  status: ('A' for Active; 'I' for Inactive)
    1  A    between atoms: C_6  and  C_15
    2  A    between atoms: C_6  and  C_23
    3  A    between atoms: C_15  and  N_21
                            x       y       z     vdW  Elec       q    Type
                         _______ _______ _______ _____ _____    ______ ____

>  <TORSDO>
F 3

$$$$
=
 OpenBabel11052417303D

 25 28  0  0  1  0  0  0  0  0999 V2000
  187.2200  177.8120  144.2330 C   0  0  0  0  0  0  0  0  0  0  0  0
  188.5500  177.4620  144.5340 C   0  0  0  0  0  0  0  0  0  0  0  0
  186.6680  177.9170  146.5830 C   0  0  0  0  0  3  0  0  0  0  0  0
  186.6880  178.0200  142.9290 N   0  0  0  0  0  0  0  0  0  0  0  0
  185.0400  178.2940  140.6710 C   0  0  0  0  0  2  0  0  0  0  0  0
  187.9810  177.5620  146.9090 C   0  0  0  0  0  3  0  0  0  0  0  0
  185.3660  178.6540  142.9770 C   0  0  1  0  0  3  0  0  0  0  0  0
  184.4770  178.0410  141.9970 N   0  0  0  0  0  2  0  0  0  0  0  0
  190.2590  176.9900  146.2190 C   0  0  0  0  0  0  0  0  0  0  0  0
  190.7940  176.8110  147.8850 Cl  0  0  0  0  0  0  0  0  0  0  0  0
  189.5050  177.2670  143.5300 C   0  0  0  0  0  3  0  0  0  0  0  0
  186.4320  177.6660  140.4960 C   0  0  0  0  0  2  0  0  0  0  0  0
  186.3100  178.0350  145.2420 C   0  0  0  0  0  0  0  0  0  0  0  0
  184.6800  178.4660  144.6700 S   0  0  0  0  0  0  0  0  0  0  0  0
  191.1920  176.7910  145.1980 C   0  0  0  0  0  3  0  0  0  0  0  0
  187.0480  177.1580  141.8030 C   0  0  0  0  0  2  0  0  0  0  0  0
  190.8190  176.9260  143.8580 C   0  0  0  0  0  0  0  0  0  0  0  0
  188.9320  177.3320  145.8970 C   0  0  0  0  0  0  0  0  0  0  0  0
  191.8290  176.7330  142.7820 C   0  0  0  0  0  2  0  0  0  0  0  0
  193.1600  176.3140  143.3860 C   0  0  0  0  0  2  0  0  0  0  0  0
  193.7010  173.8580  143.6400 C   0  0  0  0  0  0  0  0  0  0  0  0
  193.4040  173.8980  145.1020 C   0  0  0  0  0  1  0  0  0  0  0  0
  194.0630  172.7670  143.1250 O   0  0  0  0  0  0  0  0  0  0  0  0
  193.5850  175.0370  142.8270 N   0  0  0  0  0  0  0  0  0  0  0  0
  193.9950  175.0080  141.4320 C   0  0  0  0  0  1  0  0  0  0  0  0
  1  2  2  0  0  0  0
  1 13  1  0  0  0  0
  2 18  1  0  0  0  0
  3  6  1  0  0  0  0
  4  7  1  0  0  0  0
  4  1  1  0  0  0  0
  5  8  1  0  0  0  0
  7  8  1  6  0  0  0
  7 14  1  0  0  0  0
  9 10  1  0  0  0  0
 11 17  2  0  0  0  0
 11  2  1  0  0  0  0
 12  5  1  0  0  0  0
 12 16  1  0  0  0  0
 13  3  2  0  0  0  0
 14 13  1  0  0  0  0
 15  9  2  0  0  0  0
 16  4  1  0  0  0  0
 17 15  1  0  0  0  0
 18  9  1  0  0  0  0
 18  6  2  0  0  0  0
 19 20  1  0  0  0  0
 19 17  1  0  0  0  0
 21 22  1  0  0  0  0
 23 21  2  0  0  0  0
 24 20  1  0  0  0  0
 24 21  1  0  0  0  0
 25 24  1  0  0  0  0
M  END
>  <MODEL>
7

>  <REMARK>
 VINA RESULT:      -7.1      1.221      1.292
  Name = 
  3 active torsions:
  status: ('A' for Active; 'I' for Inactive)
    1  A    between atoms: C_6  and  C_15
    2  A    between atoms: C_6  and  C_23
    3  A    between atoms: C_15  and  N_21
                            x       y       z     vdW  Elec       q    Type
                         _______ _______ _______ _____ _____    ______ ____

>  <TORSDO>
F 3

$$$$
=
 OpenBabel11052417303D

 25 28  0  0  1  0  0  0  0  0999 V2000
  190.6030  174.5860  144.8450 C   0  0  0  0  0  0  0  0  0  0  0  0
  190.1340  175.5690  145.7380 C   0  0  0  0  0  0  0  0  0  0  0  0
  192.7480  174.5370  145.9560 C   0  0  0  0  0  3  0  0  0  0  0  0
  189.8470  173.9800  143.8010 N   0  0  0  0  0  0  0  0  0  0  0  0
  188.9830  172.6550  141.4810 C   0  0  0  0  0  2  0  0  0  0  0  0
  192.3090  175.5180  146.8510 C   0  0  0  0  0  3  0  0  0  0  0  0
  190.5270  172.8010  143.2540 C   0  0  1  0  0  3  0  0  0  0  0  0
  190.4040  172.7770  141.8010 N   0  0  0  0  0  2  0  0  0  0  0  0
  190.5540  177.0200  147.6610 C   0  0  0  0  0  0  0  0  0  0  0  0
  191.5860  177.6490  148.9390 Cl  0  0  0  0  0  0  0  0  0  0  0  0
  188.8280  176.0670  145.6650 C   0  0  0  0  0  3  0  0  0  0  0  0
  188.1610  173.8470  141.9990 C   0  0  0  0  0  2  0  0  0  0  0  0
  191.8810  174.0870  144.9630 C   0  0  0  0  0  0  0  0  0  0  0  0
  192.2960  172.8540  143.7460 S   0  0  0  0  0  0  0  0  0  0  0  0
  189.2490  177.5080  147.5620 C   0  0  0  0  0  3  0  0  0  0  0  0
  188.9310  174.7540  142.9630 C   0  0  0  0  0  2  0  0  0  0  0  0
  188.3880  177.0370  146.5670 C   0  0  0  0  0  0  0  0  0  0  0  0
  191.0070  176.0430  146.7540 C   0  0  0  0  0  0  0  0  0  0  0  0
  186.9930  177.5490  146.4880 C   0  0  0  0  0  2  0  0  0  0  0  0
  186.2320  176.8190  145.3920 C   0  0  0  0  0  2  0  0  0  0  0  0
  185.0330  177.8600  143.4250 C   0  0  0  0  0  0  0  0  0  0  0  0
  185.9390  177.1790  142.4550 C   0  0  0  0  0  1  0  0  0  0  0  0
  184.1190  178.6040  142.9800 O   0  0  0  0  0  0  0  0  0  0  0  0
  185.1930  177.6810  144.8420 N   0  0  0  0  0  0  0  0  0  0  0  0
  184.3810  178.4460  145.7730 C   0  0  0  0  0  1  0  0  0  0  0  0
  1 13  2  0  0  0  0
  1  2  1  0  0  0  0
  2 18  1  0  0  0  0
  3  6  2  0  0  0  0
  4  1  1  0  0  0  0
  5  8  1  0  0  0  0
  5 12  1  0  0  0  0
  7  8  1  6  0  0  0
  7 14  1  0  0  0  0
  7  4  1  0  0  0  0
  9 10  1  0  0  0  0
 11  2  2  0  0  0  0
 11 17  1  0  0  0  0
 12 16  1  0  0  0  0
 13  3  1  0  0  0  0
 14 13  1  0  0  0  0
 15  9  1  0  0  0  0
 16  4  1  0  0  0  0
 17 15  2  0  0  0  0
 18  6  1  0  0  0  0
 18  9  2  0  0  0  0
 19 17  1  0  0  0  0
 20 19  1  0  0  0  0
 21 24  1  0  0  0  0
 22 21  1  0  0  0  0
 23 21  2  0  0  0  0
 24 20  1  0  0  0  0
 24 25  1  0  0  0  0
M  END
>  <MODEL>
8

>  <REMARK>
 VINA RESULT:      -7.1      4.030      6.798
  Name = 
  3 active torsions:
  status: ('A' for Active; 'I' for Inactive)
    1  A    between atoms: C_6  and  C_15
    2  A    between atoms: C_6  and  C_23
    3  A    between atoms: C_15  and  N_21
                            x       y       z     vdW  Elec       q    Type
                         _______ _______ _______ _____ _____    ______ ____

>  <TORSDO>
F 3

$$$$
=
 OpenBabel11052417303D

 25 28  0  0  1  0  0  0  0  0999 V2000
  186.7620  176.8750  143.9180 C   0  0  0  0  0  0  0  0  0  0  0  0
  187.8520  176.0150  143.6840 C   0  0  0  0  0  0  0  0  0  0  0  0
  186.3520  177.0750  141.5450 C   0  0  0  0  0  3  0  0  0  0  0  0
  186.2670  177.2640  145.1960 N   0  0  0  0  0  0  0  0  0  0  0  0
  185.0360  178.5650  147.3580 C   0  0  0  0  0  2  0  0  0  0  0  0
  187.4360  176.2290  141.2850 C   0  0  0  0  0  3  0  0  0  0  0  0
  184.9590  177.9190  145.0940 C   0  0  1  0  0  3  0  0  0  0  0  0
  184.8990  179.0670  145.9920 N   0  0  0  0  0  2  0  0  0  0  0  0
  189.2760  174.8280  142.0880 C   0  0  0  0  0  0  0  0  0  0  0  0
  189.7500  174.3920  140.4510 Cl  0  0  0  0  0  0  0  0  0  0  0  0
  188.5860  175.4530  144.7350 C   0  0  0  0  0  3  0  0  0  0  0  0
  186.3830  177.8600  147.5920 C   0  0  0  0  0  2  0  0  0  0  0  0
  186.0350  177.3840  142.8660 C   0  0  0  0  0  0  0  0  0  0  0  0
  184.6960  178.4520  143.3560 S   0  0  0  0  0  0  0  0  0  0  0  0
  189.9980  174.2870  143.1540 C   0  0  0  0  0  3  0  0  0  0  0  0
  187.1660  177.5870  146.3040 C   0  0  0  0  0  2  0  0  0  0  0  0
  189.6590  174.5980  144.4730 C   0  0  0  0  0  0  0  0  0  0  0  0
  188.1940  175.6920  142.3420 C   0  0  0  0  0  0  0  0  0  0  0  0
  190.4220  173.9960  145.6000 C   0  0  0  0  0  2  0  0  0  0  0  0
  191.4550  174.9860  146.1160 C   0  0  0  0  0  2  0  0  0  0  0  0
  193.1500  175.9730  144.5220 C   0  0  0  0  0  0  0  0  0  0  0  0
  192.3850  177.2510  144.4310 C   0  0  0  0  0  1  0  0  0  0  0  0
  194.2190  175.8590  143.8660 O   0  0  0  0  0  0  0  0  0  0  0  0
  192.6810  174.8850  145.3360 N   0  0  0  0  0  0  0  0  0  0  0  0
  193.3730  173.6060  145.3170 C   0  0  0  0  0  1  0  0  0  0  0  0
  1  4  1  0  0  0  0
  2  1  1  0  0  0  0
  2 11  1  0  0  0  0
  3 13  1  0  0  0  0
  4 16  1  0  0  0  0
  5 12  1  0  0  0  0
  6  3  2  0  0  0  0
  6 18  1  0  0  0  0
  7 14  1  6  0  0  0
  7  4  1  0  0  0  0
  7  8  1  0  0  0  0
  8  5  1  0  0  0  0
  9 18  1  0  0  0  0
  9 15  2  0  0  0  0
 10  9  1  0  0  0  0
 13 14  1  0  0  0  0
 13  1  2  0  0  0  0
 15 17  1  0  0  0  0
 16 12  1  0  0  0  0
 17 11  2  0  0  0  0
 17 19  1  0  0  0  0
 18  2  2  0  0  0  0
 19 20  1  0  0  0  0
 21 24  1  0  0  0  0
 22 21  1  0  0  0  0
 23 21  2  0  0  0  0
 24 20  1  0  0  0  0
 25 24  1  0  0  0  0
M  END
>  <MODEL>
9

>  <REMARK>
 VINA RESULT:      -6.8      2.633      4.130
  Name = 
  3 active torsions:
  status: ('A' for Active; 'I' for Inactive)
    1  A    between atoms: C_6  and  C_15
    2  A    between atoms: C_6  and  C_23
    3  A    between atoms: C_15  and  N_21
                            x       y       z     vdW  Elec       q    Type
                         _______ _______ _______ _____ _____    ______ ____

>  <TORSDO>
F 3

$$$$
