=
 OpenBabel11052417543D

 31 35  0  0  1  0  0  0  0  0999 V2000
  190.6760  171.6230  140.8920 C   0  0  2  0  0  3  0  0  0  0  0  0
  191.1770  174.8660  142.4920 C   0  0  1  0  0  3  0  0  0  0  0  0
  191.9980  174.8900  143.7770 C   0  0  0  0  0  0  0  0  0  0  0  0
  193.3240  173.2300  145.0540 C   0  0  0  0  0  3  0  0  0  0  0  0
  190.5310  173.5670  142.2690 N   0  0  2  0  0  0  0  0  0  0  0  0
  189.0570  172.3720  139.1630 C   0  0  0  0  0  1  0  0  0  0  0  0
  191.9570  173.7080  144.7010 C   0  0  0  0  0  2  0  0  0  0  0  0
  188.6770  175.7870  142.2450 C   0  0  2  0  0  3  0  0  0  0  0  0
  190.4460  170.3430  141.6720 C   0  0  0  0  0  1  0  0  0  0  0  0
  192.3430  177.5180  143.1200 S   0  0  0  0  0  0  0  0  0  0  0  0
  194.1910  173.9760  145.7360 C   0  0  0  0  0  3  0  0  0  0  0  0
  188.3330  174.3780  141.7270 C   0  0  0  0  0  2  0  0  0  0  0  0
  190.1520  176.0030  142.5470 C   0  0  0  0  0  0  0  0  0  0  0  0
  191.4810  172.5990  141.7400 C   0  0  0  0  0  2  0  0  0  0  0  0
  193.9520  175.3730  146.1400 C   0  0  0  0  0  3  0  0  0  0  0  0
  189.5770  173.7020  141.1860 C   0  0  2  0  0  3  0  0  0  0  0  0
  189.3460  172.3120  140.6510 C   0  0  2  0  0  3  0  0  0  0  0  0
  190.5790  177.2300  142.8820 C   0  0  0  0  0  3  0  0  0  0  0  0
  192.5370  176.0650  144.1720 C   0  0  0  0  0  0  0  0  0  0  0  0
  193.2280  176.2730  145.4650 C   0  0  0  0  0  3  0  0  0  0  0  0
  187.3030  178.2300  142.7610 O   0  0  0  0  0  0  0  0  0  0  0  0
  187.1840  177.3130  143.6190 C   0  0  0  0  0  0  0  0  0  0  0  0
  187.8820  176.0780  143.4300 N   0  0  0  0  0  2  0  0  0  0  0  0
  185.0350  178.1480  147.3580 C   0  0  2  0  0  3  0  0  0  0  0  0
  187.0090  177.1960  146.1510 C   0  0  0  0  0  2  0  0  0  0  0  0
  184.5380  178.6770  143.5430 C   0  0  0  0  0  1  0  0  0  0  0  0
  185.7430  179.4350  147.7490 C   0  0  0  0  0  1  0  0  0  0  0  0
  186.0020  176.9760  147.2760 C   0  0  0  0  0  2  0  0  0  0  0  0
  185.1530  178.1730  144.8070 C   0  0  0  0  0  0  0  0  0  0  0  0
  186.3630  177.5550  144.8350 C   0  0  0  0  0  0  0  0  0  0  0  0
  184.2890  178.3110  146.0360 C   0  0  0  0  0  2  0  0  0  0  0  0
  1  9  1  1  0  0  0
  1 14  1  0  0  0  0
  2 13  1  1  0  0  0
  2  3  1  0  0  0  0
  3 19  2  0  0  0  0
  3  7  1  0  0  0  0
  4 11  2  0  0  0  0
  5 14  1  6  0  0  0
  5  2  1  0  0  0  0
  7  4  1  0  0  0  0
  8 13  1  0  0  0  0
  8 23  1  1  0  0  0
 10 19  1  0  0  0  0
 11 15  1  0  0  0  0
 12  8  1  0  0  0  0
 13 18  2  0  0  0  0
 16 12  1  1  0  0  0
 16  5  1  0  0  0  0
 17  6  1  6  0  0  0
 17  1  1  0  0  0  0
 17 16  1  0  0  0  0
 18 10  1  0  0  0  0
 19 20  1  0  0  0  0
 20 15  2  0  0  0  0
 21 22  2  0  0  0  0
 22 30  1  0  0  0  0
 23 22  1  0  0  0  0
 24 27  1  6  0  0  0
 25 28  1  0  0  0  0
 26 29  1  0  0  0  0
 28 24  1  0  0  0  0
 29 30  2  0  0  0  0
 29 31  1  0  0  0  0
 30 25  1  0  0  0  0
 31 24  1  0  0  0  0
M  END
>  <MODEL>
1

>  <REMARK>
 VINA RESULT:      -8.5      0.000      0.000
  Name = 
  2 active torsions:
  status: ('A' for Active; 'I' for Inactive)
    1  A    between atoms: C_9  and  C_22
    2  A    between atoms: C_15  and  N_23
                            x       y       z     vdW  Elec       q    Type
                         _______ _______ _______ _____ _____    ______ ____

>  <TORSDO>
F 2

$$$$
=
 OpenBabel11052417543D

 31 35  0  0  1  0  0  0  0  0999 V2000
  194.8510  175.8560  143.8710 C   0  0  2  0  0  3  0  0  0  0  0  0
  191.6880  174.0350  143.9830 C   0  0  1  0  0  3  0  0  0  0  0  0
  191.1490  173.4950  142.6630 C   0  0  0  0  0  0  0  0  0  0  0  0
  191.9920  173.3580  140.3360 C   0  0  0  0  0  3  0  0  0  0  0  0
  192.5560  175.2030  143.7930 N   0  0  2  0  0  0  0  0  0  0  0  0
  194.8490  176.6350  146.2300 C   0  0  0  0  0  1  0  0  0  0  0  0
  191.4230  174.2430  141.3920 C   0  0  0  0  0  2  0  0  0  0  0  0
  190.3720  175.6860  145.6250 C   0  0  2  0  0  3  0  0  0  0  0  0
  195.2250  176.7950  142.7410 C   0  0  0  0  0  1  0  0  0  0  0  0
  189.7620  171.8040  144.2990 S   0  0  0  0  0  0  0  0  0  0  0  0
  191.3130  172.3380  139.8140 C   0  0  0  0  0  3  0  0  0  0  0  0
  191.5970  176.6100  145.4900 C   0  0  0  0  0  2  0  0  0  0  0  0
  190.5040  174.3560  144.9000 C   0  0  0  0  0  0  0  0  0  0  0  0
  193.8850  174.7970  143.3560 C   0  0  0  0  0  2  0  0  0  0  0  0
  189.9790  171.9040  140.2680 C   0  0  0  0  0  3  0  0  0  0  0  0
  192.8150  175.8050  145.0850 C   0  0  2  0  0  3  0  0  0  0  0  0
  194.0740  176.6200  144.9260 C   0  0  2  0  0  3  0  0  0  0  0  0
  189.5500  173.4260  145.0570 C   0  0  0  0  0  3  0  0  0  0  0  0
  190.2300  172.5030  142.7030 C   0  0  0  0  0  0  0  0  0  0  0  0
  189.5100  171.9850  141.5180 C   0  0  0  0  0  3  0  0  0  0  0  0
  187.8670  175.7690  146.9810 O   0  0  0  0  0  0  0  0  0  0  0  0
  187.9580  176.4210  145.9050 C   0  0  0  0  0  0  0  0  0  0  0  0
  189.1810  176.3860  145.1630 N   0  0  0  0  0  2  0  0  0  0  0  0
  184.6100  178.9140  144.5370 C   0  0  2  0  0  3  0  0  0  0  0  0
  186.2530  178.2610  146.3080 C   0  0  0  0  0  2  0  0  0  0  0  0
  186.8240  176.0260  143.1800 C   0  0  0  0  0  1  0  0  0  0  0  0
  185.3990  180.1330  144.0860 C   0  0  0  0  0  1  0  0  0  0  0  0
  184.8020  178.6360  146.0200 C   0  0  0  0  0  2  0  0  0  0  0  0
  186.2500  176.9920  144.1640 C   0  0  0  0  0  0  0  0  0  0  0  0
  186.7750  177.1700  145.4040 C   0  0  0  0  0  0  0  0  0  0  0  0
  184.9860  177.6830  143.7160 C   0  0  0  0  0  2  0  0  0  0  0  0
  1  9  1  6  0  0  0
  1 17  1  0  0  0  0
  2  3  1  6  0  0  0
  2 13  1  0  0  0  0
  3 19  2  0  0  0  0
  4  7  1  0  0  0  0
  5 14  1  1  0  0  0
  5  2  1  0  0  0  0
  5 16  1  0  0  0  0
  7  3  1  0  0  0  0
  8 23  1  6  0  0  0
 10 18  1  0  0  0  0
 11 15  1  0  0  0  0
 11  4  2  0  0  0  0
 12  8  1  0  0  0  0
 13 18  2  0  0  0  0
 13  8  1  0  0  0  0
 14  1  1  0  0  0  0
 15 20  2  0  0  0  0
 16 12  1  6  0  0  0
 17 16  1  0  0  0  0
 17  6  1  1  0  0  0
 19 10  1  0  0  0  0
 20 19  1  0  0  0  0
 22 21  2  0  0  0  0
 23 22  1  0  0  0  0
 24 27  1  6  0  0  0
 24 28  1  0  0  0  0
 26 29  1  0  0  0  0
 28 25  1  0  0  0  0
 29 30  2  0  0  0  0
 30 22  1  0  0  0  0
 30 25  1  0  0  0  0
 31 29  1  0  0  0  0
 31 24  1  0  0  0  0
M  END
>  <MODEL>
2

>  <REMARK>
 VINA RESULT:      -8.1      2.181      4.898
  Name = 
  2 active torsions:
  status: ('A' for Active; 'I' for Inactive)
    1  A    between atoms: C_9  and  C_22
    2  A    between atoms: C_15  and  N_23
                            x       y       z     vdW  Elec       q    Type
                         _______ _______ _______ _____ _____    ______ ____

>  <TORSDO>
F 2

$$$$
=
 OpenBabel11052417543D

 31 35  0  0  1  0  0  0  0  0999 V2000
  195.4090  174.9860  143.6470 C   0  0  2  0  0  3  0  0  0  0  0  0
  192.2310  173.2660  143.1210 C   0  0  1  0  0  3  0  0  0  0  0  0
  191.6890  173.2250  141.6970 C   0  0  0  0  0  0  0  0  0  0  0  0
  192.5340  173.9020  139.4660 C   0  0  0  0  0  3  0  0  0  0  0  0
  193.1090  174.4200  143.3490 N   0  0  2  0  0  0  0  0  0  0  0  0
  195.4100  174.8930  146.1290 C   0  0  0  0  0  1  0  0  0  0  0  0
  191.9710  174.3680  140.7660 C   0  0  0  0  0  2  0  0  0  0  0  0
  190.9270  174.2500  145.2390 C   0  0  2  0  0  3  0  0  0  0  0  0
  195.7910  176.2580  142.9150 C   0  0  0  0  0  1  0  0  0  0  0  0
  190.2870  171.0800  142.6420 S   0  0  0  0  0  0  0  0  0  0  0  0
  191.8470  173.1330  138.6230 C   0  0  0  0  0  3  0  0  0  0  0  0
  192.1590  175.1530  145.4320 C   0  0  0  0  0  2  0  0  0  0  0  0
  191.0490  173.2560  144.0940 C   0  0  0  0  0  0  0  0  0  0  0  0
  194.4340  174.1820  142.7950 C   0  0  0  0  0  2  0  0  0  0  0  0
  190.5100  172.5790  138.8980 C   0  0  0  0  0  3  0  0  0  0  0  0
  193.3710  174.5320  144.7700 C   0  0  2  0  0  3  0  0  0  0  0  0
  194.6370  175.3410  144.9030 C   0  0  2  0  0  3  0  0  0  0  0  0
  190.0870  172.3380  143.9180 C   0  0  0  0  0  3  0  0  0  0  0  0
  190.7620  172.2890  141.3890 C   0  0  0  0  0  0  0  0  0  0  0  0
  190.0400  172.2230  140.0990 C   0  0  0  0  0  3  0  0  0  0  0  0
  189.4090  175.4680  147.3200 O   0  0  0  0  0  0  0  0  0  0  0  0
  189.0390  175.6930  146.1350 C   0  0  0  0  0  0  0  0  0  0  0  0
  189.7410  175.0770  145.0510 N   0  0  0  0  0  2  0  0  0  0  0  0
  185.4980  178.2640  145.7510 C   0  0  2  0  0  3  0  0  0  0  0  0
  186.6820  176.3410  146.8290 C   0  0  0  0  0  2  0  0  0  0  0  0
  189.0050  177.8880  144.1240 C   0  0  0  0  0  1  0  0  0  0  0  0
  185.7950  179.2360  146.8810 C   0  0  0  0  0  1  0  0  0  0  0  0
  185.3570  176.8360  146.2590 C   0  0  0  0  0  2  0  0  0  0  0  0
  187.8240  177.5500  144.9730 C   0  0  0  0  0  0  0  0  0  0  0  0
  187.8480  176.5490  145.8930 C   0  0  0  0  0  0  0  0  0  0  0  0
  186.5720  178.3350  144.6690 C   0  0  0  0  0  2  0  0  0  0  0  0
  1  9  1  6  0  0  0
  1 17  1  0  0  0  0
  2  3  1  6  0  0  0
  2  5  1  0  0  0  0
  2 13  1  0  0  0  0
  4  7  1  0  0  0  0
  5 14  1  6  0  0  0
  5 16  1  0  0  0  0
  7  3  1  0  0  0  0
  8 23  1  6  0  0  0
  8 12  1  0  0  0  0
 10 18  1  0  0  0  0
 11 15  1  0  0  0  0
 11  4  2  0  0  0  0
 13  8  1  0  0  0  0
 14  1  1  0  0  0  0
 15 20  2  0  0  0  0
 16 17  1  0  0  0  0
 16 12  1  1  0  0  0
 17  6  1  1  0  0  0
 18 13  2  0  0  0  0
 19  3  2  0  0  0  0
 19 10  1  0  0  0  0
 20 19  1  0  0  0  0
 22 21  2  0  0  0  0
 23 22  1  0  0  0  0
 24 28  1  0  0  0  0
 24 27  1  1  0  0  0
 26 29  1  0  0  0  0
 28 25  1  0  0  0  0
 29 30  2  0  0  0  0
 30 22  1  0  0  0  0
 30 25  1  0  0  0  0
 31 29  1  0  0  0  0
 31 24  1  0  0  0  0
M  END
>  <MODEL>
3

>  <REMARK>
 VINA RESULT:      -8.0      2.438      5.081
  Name = 
  2 active torsions:
  status: ('A' for Active; 'I' for Inactive)
    1  A    between atoms: C_9  and  C_22
    2  A    between atoms: C_15  and  N_23
                            x       y       z     vdW  Elec       q    Type
                         _______ _______ _______ _____ _____    ______ ____

>  <TORSDO>
F 2

$$$$
=
 OpenBabel11052417543D

 31 35  0  0  1  0  0  0  0  0999 V2000
  195.0770  175.0840  143.7820 C   0  0  2  0  0  3  0  0  0  0  0  0
  191.6870  173.7930  143.3620 C   0  0  1  0  0  3  0  0  0  0  0  0
  191.2350  173.4740  141.9410 C   0  0  0  0  0  0  0  0  0  0  0  0
  192.3200  173.4230  139.7130 C   0  0  0  0  0  3  0  0  0  0  0  0
  192.7360  174.8190  143.3940 N   0  0  2  0  0  0  0  0  0  0  0  0
  194.9090  175.6270  146.2000 C   0  0  0  0  0  1  0  0  0  0  0  0
  191.7670  174.2850  140.7970 C   0  0  0  0  0  2  0  0  0  0  0  0
  190.4460  175.4710  145.0340 C   0  0  2  0  0  3  0  0  0  0  0  0
  195.7180  176.0540  142.8080 C   0  0  0  0  0  1  0  0  0  0  0  0
  189.4270  171.8800  143.2260 S   0  0  0  0  0  0  0  0  0  0  0  0
  191.5640  172.5790  139.0130 C   0  0  0  0  0  3  0  0  0  0  0  0
  191.8010  176.1950  145.1300 C   0  0  0  0  0  2  0  0  0  0  0  0
  190.4630  174.2120  144.1810 C   0  0  0  0  0  0  0  0  0  0  0  0
  194.0320  174.2480  143.0540 C   0  0  0  0  0  2  0  0  0  0  0  0
  190.1360  172.3240  139.2750 C   0  0  0  0  0  3  0  0  0  0  0  0
  192.9260  175.2470  144.7650 C   0  0  2  0  0  3  0  0  0  0  0  0
  194.3020  175.8610  144.8300 C   0  0  2  0  0  3  0  0  0  0  0  0
  189.3690  173.4370  144.1340 C   0  0  0  0  0  3  0  0  0  0  0  0
  190.1800  172.6430  141.7740 C   0  0  0  0  0  0  0  0  0  0  0  0
  189.5380  172.3610  140.4710 C   0  0  0  0  0  3  0  0  0  0  0  0
  187.9050  175.9580  146.2290 O   0  0  0  0  0  0  0  0  0  0  0  0
  188.1880  176.6230  145.1950 C   0  0  0  0  0  0  0  0  0  0  0  0
  189.4360  176.3930  144.5320 N   0  0  0  0  0  2  0  0  0  0  0  0
  185.1680  179.2540  143.3920 C   0  0  2  0  0  3  0  0  0  0  0  0
  187.0630  177.6370  143.1550 C   0  0  0  0  0  2  0  0  0  0  0  0
  186.3630  178.2060  146.9360 C   0  0  0  0  0  1  0  0  0  0  0  0
  184.0910  178.2170  143.1200 C   0  0  0  0  0  1  0  0  0  0  0  0
  186.4550  178.9390  142.6430 C   0  0  0  0  0  2  0  0  0  0  0  0
  186.3660  178.3230  145.4470 C   0  0  0  0  0  0  0  0  0  0  0  0
  187.1990  177.5940  144.6580 C   0  0  0  0  0  0  0  0  0  0  0  0
  185.4450  179.3800  144.8880 C   0  0  0  0  0  2  0  0  0  0  0  0
  1  9  1  6  0  0  0
  1 17  1  0  0  0  0
  2  3  1  6  0  0  0
  2  5  1  0  0  0  0
  2 13  1  0  0  0  0
  4  7  1  0  0  0  0
  5 14  1  1  0  0  0
  5 16  1  0  0  0  0
  7  3  1  0  0  0  0
  8 23  1  6  0  0  0
  8 12  1  0  0  0  0
 10 18  1  0  0  0  0
 11 15  1  0  0  0  0
 11  4  2  0  0  0  0
 13  8  1  0  0  0  0
 14  1  1  0  0  0  0
 15 20  2  0  0  0  0
 16 17  1  0  0  0  0
 16 12  1  6  0  0  0
 17  6  1  1  0  0  0
 18 13  2  0  0  0  0
 19  3  2  0  0  0  0
 19 10  1  0  0  0  0
 20 19  1  0  0  0  0
 22 21  2  0  0  0  0
 23 22  1  0  0  0  0
 24 27  1  1  0  0  0
 24 31  1  0  0  0  0
 25 30  1  0  0  0  0
 28 25  1  0  0  0  0
 28 24  1  0  0  0  0
 29 26  1  0  0  0  0
 30 22  1  0  0  0  0
 30 29  2  0  0  0  0
 31 29  1  0  0  0  0
M  END
>  <MODEL>
4

>  <REMARK>
 VINA RESULT:      -8.0      2.161      5.004
  Name = 
  2 active torsions:
  status: ('A' for Active; 'I' for Inactive)
    1  A    between atoms: C_9  and  C_22
    2  A    between atoms: C_15  and  N_23
                            x       y       z     vdW  Elec       q    Type
                         _______ _______ _______ _____ _____    ______ ____

>  <TORSDO>
F 2

$$$$
=
 OpenBabel11052417543D

 31 35  0  0  1  0  0  0  0  0999 V2000
  191.2830  170.7240  140.8330 C   0  0  2  0  0  3  0  0  0  0  0  0
  192.2820  173.8840  142.3650 C   0  0  1  0  0  3  0  0  0  0  0  0
  193.0570  173.8080  143.6760 C   0  0  0  0  0  0  0  0  0  0  0  0
  194.0430  171.9880  145.0400 C   0  0  0  0  0  3  0  0  0  0  0  0
  191.4310  172.7070  142.1540 N   0  0  2  0  0  0  0  0  0  0  0  0
  189.8670  171.6820  139.0310 C   0  0  0  0  0  1  0  0  0  0  0  0
  192.7880  172.6800  144.6290 C   0  0  0  0  0  2  0  0  0  0  0  0
  189.9840  175.2070  142.0090 C   0  0  2  0  0  3  0  0  0  0  0  0
  190.8160  169.5260  141.6380 C   0  0  0  0  0  1  0  0  0  0  0  0
  193.8640  176.3180  142.9640 S   0  0  0  0  0  0  0  0  0  0  0  0
  195.0030  172.5980  145.7320 C   0  0  0  0  0  3  0  0  0  0  0  0
  189.4200  173.8610  141.5160 C   0  0  0  0  0  2  0  0  0  0  0  0
  191.4640  175.1790  142.3560 C   0  0  0  0  0  0  0  0  0  0  0  0
  192.2170  171.5750  141.6830 C   0  0  0  0  0  2  0  0  0  0  0  0
  194.9940  174.0270  146.0920 C   0  0  0  0  0  3  0  0  0  0  0  0
  190.5460  172.9680  141.0360 C   0  0  2  0  0  3  0  0  0  0  0  0
  190.0980  171.6200  140.5290 C   0  0  2  0  0  3  0  0  0  0  0  0
  192.0840  176.3260  142.6730 C   0  0  0  0  0  3  0  0  0  0  0  0
  193.7770  174.8870  144.0600 C   0  0  0  0  0  0  0  0  0  0  0  0
  194.4540  175.0150  145.3690 C   0  0  0  0  0  3  0  0  0  0  0  0
  188.8710  177.8100  142.3270 O   0  0  0  0  0  0  0  0  0  0  0  0
  188.6500  176.9770  143.2470 C   0  0  0  0  0  0  0  0  0  0  0  0
  189.2150  175.6650  143.1580 N   0  0  0  0  0  2  0  0  0  0  0  0
  186.0210  178.0630  146.5940 C   0  0  2  0  0  3  0  0  0  0  0  0
  186.4820  177.9580  144.1370 C   0  0  0  0  0  2  0  0  0  0  0  0
  189.5280  176.4850  146.0500 C   0  0  0  0  0  1  0  0  0  0  0  0
  185.1350  176.8270  146.6030 C   0  0  0  0  0  1  0  0  0  0  0  0
  185.9290  178.8130  145.2740 C   0  0  0  0  0  2  0  0  0  0  0  0
  188.2470  177.1740  145.7120 C   0  0  0  0  0  0  0  0  0  0  0  0
  187.8500  177.3910  144.4300 C   0  0  0  0  0  0  0  0  0  0  0  0
  187.4720  177.7000  146.8950 C   0  0  0  0  0  2  0  0  0  0  0  0
  1  9  1  1  0  0  0
  1 14  1  0  0  0  0
  2 13  1  1  0  0  0
  2  3  1  0  0  0  0
  3 19  2  0  0  0  0
  3  7  1  0  0  0  0
  4 11  2  0  0  0  0
  5 14  1  6  0  0  0
  5  2  1  0  0  0  0
  7  4  1  0  0  0  0
  8 13  1  0  0  0  0
  8 23  1  1  0  0  0
 10 19  1  0  0  0  0
 11 15  1  0  0  0  0
 12  8  1  0  0  0  0
 13 18  2  0  0  0  0
 16 12  1  1  0  0  0
 16  5  1  0  0  0  0
 17  6  1  6  0  0  0
 17  1  1  0  0  0  0
 17 16  1  0  0  0  0
 18 10  1  0  0  0  0
 19 20  1  0  0  0  0
 20 15  2  0  0  0  0
 21 22  2  0  0  0  0
 22 30  1  0  0  0  0
 23 22  1  0  0  0  0
 24 27  1  6  0  0  0
 24 31  1  0  0  0  0
 25 30  1  0  0  0  0
 25 28  1  0  0  0  0
 28 24  1  0  0  0  0
 29 26  1  0  0  0  0
 29 31  1  0  0  0  0
 30 29  2  0  0  0  0
M  END
>  <MODEL>
5

>  <REMARK>
 VINA RESULT:      -7.7      1.312      2.065
  Name = 
  2 active torsions:
  status: ('A' for Active; 'I' for Inactive)
    1  A    between atoms: C_9  and  C_22
    2  A    between atoms: C_15  and  N_23
                            x       y       z     vdW  Elec       q    Type
                         _______ _______ _______ _____ _____    ______ ____

>  <TORSDO>
F 2

$$$$
=
 OpenBabel11052417543D

 31 35  0  0  1  0  0  0  0  0999 V2000
  191.8570  176.6340  147.6330 C   0  0  2  0  0  3  0  0  0  0  0  0
  189.7990  177.2310  144.6760 C   0  0  1  0  0  3  0  0  0  0  0  0
  188.2920  177.0570  144.8300 C   0  0  0  0  0  0  0  0  0  0  0  0
  186.7490  176.6250  146.7220 C   0  0  0  0  0  3  0  0  0  0  0  0
  190.5530  176.4260  145.6440 N   0  0  2  0  0  0  0  0  0  0  0  0
  194.0680  176.7910  146.5130 C   0  0  0  0  0  1  0  0  0  0  0  0
  187.7610  176.0400  145.7970 C   0  0  0  0  0  2  0  0  0  0  0  0
  191.3250  175.9400  142.8990 C   0  0  2  0  0  3  0  0  0  0  0  0
  191.5660  175.5310  148.6330 C   0  0  0  0  0  1  0  0  0  0  0  0
  188.2120  178.6660  142.6240 S   0  0  0  0  0  0  0  0  0  0  0  0
  185.5840  177.1100  146.2960 C   0  0  0  0  0  3  0  0  0  0  0  0
  192.1530  175.4840  144.1150 C   0  0  0  0  0  2  0  0  0  0  0  0
  190.1850  176.8890  143.2340 C   0  0  0  0  0  0  0  0  0  0  0  0
  190.5610  177.0600  146.9540 C   0  0  0  0  0  2  0  0  0  0  0  0
  185.1920  177.2140  144.8790 C   0  0  0  0  0  3  0  0  0  0  0  0
  191.9540  176.4430  145.2720 C   0  0  2  0  0  3  0  0  0  0  0  0
  192.7260  176.0860  146.5160 C   0  0  2  0  0  3  0  0  0  0  0  0
  189.4820  177.4460  142.2370 C   0  0  0  0  0  3  0  0  0  0  0  0
  187.4820  177.6380  143.9160 C   0  0  0  0  0  0  0  0  0  0  0  0
  186.0170  177.4350  143.8500 C   0  0  0  0  0  3  0  0  0  0  0  0
  192.6550  174.5410  140.8030 O   0  0  0  0  0  0  0  0  0  0  0  0
  191.5370  174.0890  141.1740 C   0  0  0  0  0  0  0  0  0  0  0  0
  190.8070  174.7730  142.1980 N   0  0  0  0  0  2  0  0  0  0  0  0
  189.9920  170.6620  138.9020 C   0  0  2  0  0  3  0  0  0  0  0  0
  190.2430  173.1330  139.2080 C   0  0  0  0  0  2  0  0  0  0  0  0
  192.0440  171.3160  142.1340 C   0  0  0  0  0  1  0  0  0  0  0  0
  191.0960  170.5570  137.8630 C   0  0  0  0  0  1  0  0  0  0  0  0
  189.2830  172.0060  138.8370 C   0  0  0  0  0  2  0  0  0  0  0  0
  191.2010  171.6180  140.9390 C   0  0  0  0  0  0  0  0  0  0  0  0
  190.9780  172.8860  140.5040 C   0  0  0  0  0  0  0  0  0  0  0  0
  190.5360  170.4190  140.3070 C   0  0  0  0  0  2  0  0  0  0  0  0
  1  9  1  1  0  0  0
  2 13  1  6  0  0  0
  2  3  1  0  0  0  0
  2  5  1  0  0  0  0
  3  7  1  0  0  0  0
  5 14  1  1  0  0  0
  7  4  1  0  0  0  0
  8 23  1  1  0  0  0
  8 13  1  0  0  0  0
  8 12  1  0  0  0  0
 10 19  1  0  0  0  0
 11  4  2  0  0  0  0
 14  1  1  0  0  0  0
 15 11  1  0  0  0  0
 16 12  1  6  0  0  0
 16  5  1  0  0  0  0
 16 17  1  0  0  0  0
 17  6  1  6  0  0  0
 17  1  1  0  0  0  0
 18 10  1  0  0  0  0
 18 13  2  0  0  0  0
 19  3  2  0  0  0  0
 20 19  1  0  0  0  0
 20 15  2  0  0  0  0
 21 22  2  0  0  0  0
 22 23  1  0  0  0  0
 24 27  1  6  0  0  0
 24 31  1  0  0  0  0
 25 30  1  0  0  0  0
 28 24  1  0  0  0  0
 28 25  1  0  0  0  0
 29 26  1  0  0  0  0
 30 29  2  0  0  0  0
 30 22  1  0  0  0  0
 31 29  1  0  0  0  0
M  END
>  <MODEL>
6

>  <REMARK>
 VINA RESULT:      -7.6      2.219      7.734
  Name = 
  2 active torsions:
  status: ('A' for Active; 'I' for Inactive)
    1  A    between atoms: C_9  and  C_22
    2  A    between atoms: C_15  and  N_23
                            x       y       z     vdW  Elec       q    Type
                         _______ _______ _______ _____ _____    ______ ____

>  <TORSDO>
F 2

$$$$
=
 OpenBabel11052417543D

 31 35  0  0  1  0  0  0  0  0999 V2000
  195.4910  175.1850  142.9580 C   0  0  2  0  0  3  0  0  0  0  0  0
  192.3550  173.3620  142.5390 C   0  0  1  0  0  3  0  0  0  0  0  0
  191.9500  172.9920  141.1170 C   0  0  0  0  0  0  0  0  0  0  0  0
  193.0110  173.1480  138.8820 C   0  0  0  0  0  3  0  0  0  0  0  0
  193.2220  174.5460  142.5800 N   0  0  2  0  0  0  0  0  0  0  0  0
  195.2550  175.6630  145.3850 C   0  0  0  0  0  1  0  0  0  0  0  0
  192.3340  173.8940  139.9810 C   0  0  0  0  0  2  0  0  0  0  0  0
  190.8690  174.7940  144.2410 C   0  0  2  0  0  3  0  0  0  0  0  0
  195.9580  176.2590  141.9950 C   0  0  0  0  0  1  0  0  0  0  0  0
  190.4360  171.1080  142.3900 S   0  0  0  0  0  0  0  0  0  0  0  0
  192.3980  172.2000  138.1750 C   0  0  0  0  0  3  0  0  0  0  0  0
  192.0880  175.7280  144.3400 C   0  0  0  0  0  2  0  0  0  0  0  0
  191.0850  173.5650  143.3710 C   0  0  0  0  0  0  0  0  0  0  0  0
  194.5910  174.1990  142.2250 C   0  0  0  0  0  2  0  0  0  0  0  0
  191.0330  171.7120  138.4410 C   0  0  0  0  0  3  0  0  0  0  0  0
  193.3500  174.9820  143.9560 C   0  0  2  0  0  3  0  0  0  0  0  0
  194.6080  175.8110  144.0210 C   0  0  2  0  0  3  0  0  0  0  0  0
  190.1330  172.6220  143.3190 C   0  0  0  0  0  3  0  0  0  0  0  0
  191.0440  172.0020  140.9450 C   0  0  0  0  0  0  0  0  0  0  0  0
  190.4470  171.6360  139.6410 C   0  0  0  0  0  3  0  0  0  0  0  0
  189.0900  176.3250  145.8580 O   0  0  0  0  0  0  0  0  0  0  0  0
  188.8780  176.3260  144.6140 C   0  0  0  0  0  0  0  0  0  0  0  0
  189.7180  175.5450  143.7580 N   0  0  0  0  0  2  0  0  0  0  0  0
  185.4170  178.7020  143.3230 C   0  0  2  0  0  3  0  0  0  0  0  0
  186.4520  177.0320  144.8730 C   0  0  0  0  0  2  0  0  0  0  0  0
  189.1060  178.1240  142.2520 C   0  0  0  0  0  1  0  0  0  0  0  0
  185.5650  179.8680  144.2870 C   0  0  0  0  0  1  0  0  0  0  0  0
  185.2110  177.3860  144.0580 C   0  0  0  0  0  2  0  0  0  0  0  0
  187.8240  177.9160  142.9900 C   0  0  0  0  0  0  0  0  0  0  0  0
  187.7290  177.0970  144.0710 C   0  0  0  0  0  0  0  0  0  0  0  0
  186.6220  178.6040  142.3910 C   0  0  0  0  0  2  0  0  0  0  0  0
  1  9  1  6  0  0  0
  1 17  1  0  0  0  0
  2  3  1  6  0  0  0
  2  5  1  0  0  0  0
  2 13  1  0  0  0  0
  4  7  1  0  0  0  0
  5 14  1  1  0  0  0
  5 16  1  0  0  0  0
  7  3  1  0  0  0  0
  8 23  1  6  0  0  0
  8 12  1  0  0  0  0
 10 18  1  0  0  0  0
 11 15  1  0  0  0  0
 11  4  2  0  0  0  0
 13  8  1  0  0  0  0
 14  1  1  0  0  0  0
 15 20  2  0  0  0  0
 16 17  1  0  0  0  0
 16 12  1  6  0  0  0
 17  6  1  1  0  0  0
 18 13  2  0  0  0  0
 19  3  2  0  0  0  0
 19 10  1  0  0  0  0
 20 19  1  0  0  0  0
 22 21  2  0  0  0  0
 23 22  1  0  0  0  0
 24 28  1  0  0  0  0
 24 27  1  1  0  0  0
 26 29  1  0  0  0  0
 28 25  1  0  0  0  0
 29 30  2  0  0  0  0
 30 22  1  0  0  0  0
 30 25  1  0  0  0  0
 31 29  1  0  0  0  0
 31 24  1  0  0  0  0
M  END
>  <MODEL>
7

>  <REMARK>
 VINA RESULT:      -7.5      2.429      5.174
  Name = 
  2 active torsions:
  status: ('A' for Active; 'I' for Inactive)
    1  A    between atoms: C_9  and  C_22
    2  A    between atoms: C_15  and  N_23
                            x       y       z     vdW  Elec       q    Type
                         _______ _______ _______ _____ _____    ______ ____

>  <TORSDO>
F 2

$$$$
=
 OpenBabel11052417543D

 31 35  0  0  1  0  0  0  0  0999 V2000
  195.0770  170.0700  144.7100 C   0  0  2  0  0  3  0  0  0  0  0  0
  194.2720  172.9890  142.6690 C   0  0  1  0  0  3  0  0  0  0  0  0
  195.1770  174.2070  142.8100 C   0  0  0  0  0  0  0  0  0  0  0  0
  197.2960  174.7050  143.9980 C   0  0  0  0  0  3  0  0  0  0  0  0
  194.2690  172.1560  143.8780 N   0  0  2  0  0  0  0  0  0  0  0  0
  193.0520  168.7380  144.1670 C   0  0  0  0  0  1  0  0  0  0  0  0
  195.8250  174.4970  144.1320 C   0  0  0  0  0  2  0  0  0  0  0  0
  191.6250  172.9830  143.0510 C   0  0  2  0  0  3  0  0  0  0  0  0
  195.5830  170.1720  146.1360 C   0  0  0  0  0  1  0  0  0  0  0  0
  194.1720  174.8290  140.3480 S   0  0  0  0  0  0  0  0  0  0  0  0
  197.8160  175.7160  143.3040 C   0  0  0  0  0  3  0  0  0  0  0  0
  191.8910  171.8640  144.0730 C   0  0  0  0  0  2  0  0  0  0  0  0
  192.8620  173.4660  142.3100 C   0  0  0  0  0  0  0  0  0  0  0  0
  195.4640  171.3260  143.9410 C   0  0  0  0  0  2  0  0  0  0  0  0
  197.0280  176.6830  142.5190 C   0  0  0  0  0  3  0  0  0  0  0  0
  193.2060  171.1770  143.7660 C   0  0  2  0  0  3  0  0  0  0  0  0
  193.5600  170.0590  144.7130 C   0  0  2  0  0  3  0  0  0  0  0  0
  192.7240  174.3480  141.3090 C   0  0  0  0  0  3  0  0  0  0  0  0
  195.1700  175.1300  141.8200 C   0  0  0  0  0  0  0  0  0  0  0  0
  195.8780  176.4280  141.8850 C   0  0  0  0  0  3  0  0  0  0  0  0
  188.8180  173.4700  143.1280 O   0  0  0  0  0  0  0  0  0  0  0  0
  189.5570  174.2800  143.7510 C   0  0  0  0  0  0  0  0  0  0  0  0
  190.9770  174.1060  143.7150 N   0  0  0  0  0  2  0  0  0  0  0  0
  187.4610  177.6310  145.6670 C   0  0  2  0  0  3  0  0  0  0  0  0
  188.1710  176.4050  143.6050 C   0  0  0  0  0  2  0  0  0  0  0  0
  189.5680  174.5410  146.7170 C   0  0  0  0  0  1  0  0  0  0  0  0
  186.0550  177.0510  145.6740 C   0  0  0  0  0  1  0  0  0  0  0  0
  188.0040  177.7750  144.2540 C   0  0  0  0  0  2  0  0  0  0  0  0
  188.9450  175.5570  145.8170 C   0  0  0  0  0  0  0  0  0  0  0  0
  188.9400  175.4290  144.4640 C   0  0  0  0  0  0  0  0  0  0  0  0
  188.4080  176.7840  146.5130 C   0  0  0  0  0  2  0  0  0  0  0  0
  1 17  1  0  0  0  0
  1  9  1  1  0  0  0
  2 13  1  1  0  0  0
  2  3  1  0  0  0  0
  2  5  1  0  0  0  0
  3  7  1  0  0  0  0
  4  7  1  0  0  0  0
  5 14  1  6  0  0  0
  8 23  1  1  0  0  0
  8 12  1  0  0  0  0
 10 18  1  0  0  0  0
 10 19  1  0  0  0  0
 11  4  2  0  0  0  0
 13  8  1  0  0  0  0
 14  1  1  0  0  0  0
 15 11  1  0  0  0  0
 16  5  1  0  0  0  0
 16 12  1  1  0  0  0
 16 17  1  0  0  0  0
 17  6  1  6  0  0  0
 18 13  2  0  0  0  0
 19 20  1  0  0  0  0
 19  3  2  0  0  0  0
 20 15  2  0  0  0  0
 21 22  2  0  0  0  0
 22 30  1  0  0  0  0
 23 22  1  0  0  0  0
 24 27  1  6  0  0  0
 24 31  1  0  0  0  0
 25 28  1  0  0  0  0
 25 30  1  0  0  0  0
 28 24  1  0  0  0  0
 29 31  1  0  0  0  0
 29 26  1  0  0  0  0
 30 29  2  0  0  0  0
M  END
>  <MODEL>
8

>  <REMARK>
 VINA RESULT:      -7.5      3.063      4.656
  Name = 
  2 active torsions:
  status: ('A' for Active; 'I' for Inactive)
    1  A    between atoms: C_9  and  C_22
    2  A    between atoms: C_15  and  N_23
                            x       y       z     vdW  Elec       q    Type
                         _______ _______ _______ _____ _____    ______ ____

>  <TORSDO>
F 2

$$$$
=
 OpenBabel11052417543D

 31 35  0  0  1  0  0  0  0  0999 V2000
  185.5260  178.8870  147.1110 C   0  0  2  0  0  3  0  0  0  0  0  0
  187.4300  178.3030  144.0500 C   0  0  1  0  0  3  0  0  0  0  0  0
  186.6380  177.9740  142.7890 C   0  0  0  0  0  0  0  0  0  0  0  0
  184.2350  177.9060  142.1830 C   0  0  0  0  0  3  0  0  0  0  0  0
  186.7100  177.9280  145.2730 N   0  0  2  0  0  0  0  0  0  0  0  0
  187.4600  179.0140  148.6640 C   0  0  0  0  0  1  0  0  0  0  0  0
  185.3460  177.2210  142.9050 C   0  0  0  0  0  2  0  0  0  0  0  0
  189.3550  176.7730  145.1020 C   0  0  2  0  0  3  0  0  0  0  0  0
  184.2850  178.0960  147.4750 C   0  0  0  0  0  1  0  0  0  0  0  0
  188.9040  178.8410  141.5350 S   0  0  0  0  0  0  0  0  0  0  0  0
  184.2380  178.0790  140.8620 C   0  0  0  0  0  3  0  0  0  0  0  0
  188.5200  176.8120  146.3950 C   0  0  0  0  0  2  0  0  0  0  0  0
  188.7930  177.6110  143.9640 C   0  0  0  0  0  0  0  0  0  0  0  0
  185.6870  178.9130  145.5960 C   0  0  0  0  0  2  0  0  0  0  0  0
  185.3560  177.7090  139.9750 C   0  0  0  0  0  3  0  0  0  0  0  0
  187.6180  178.0300  146.3970 C   0  0  2  0  0  3  0  0  0  0  0  0
  186.7550  178.1620  147.6260 C   0  0  2  0  0  3  0  0  0  0  0  0
  189.5080  177.7490  142.8370 C   0  0  0  0  0  3  0  0  0  0  0  0
  187.2400  178.1450  141.5900 C   0  0  0  0  0  0  0  0  0  0  0  0
  186.6540  177.7300  140.2960 C   0  0  0  0  0  3  0  0  0  0  0  0
  191.7610  175.6170  144.1020 O   0  0  0  0  0  0  0  0  0  0  0  0
  190.7590  174.8560  144.2050 C   0  0  0  0  0  0  0  0  0  0  0  0
  189.5150  175.3920  144.6670 N   0  0  0  0  0  2  0  0  0  0  0  0
  191.0880  170.7520  142.6750 C   0  0  2  0  0  3  0  0  0  0  0  0
  189.9490  172.9800  142.6960 C   0  0  0  0  0  2  0  0  0  0  0  0
  192.8750  173.0420  145.2530 C   0  0  0  0  0  1  0  0  0  0  0  0
  191.8890  171.0390  141.4150 C   0  0  0  0  0  1  0  0  0  0  0  0
  189.7460  171.4680  142.6650 C   0  0  0  0  0  2  0  0  0  0  0  0
  191.8400  172.5980  144.2730 C   0  0  0  0  0  0  0  0  0  0  0  0
  190.8800  173.4330  143.7950 C   0  0  0  0  0  0  0  0  0  0  0  0
  191.8780  171.1300  143.9250 C   0  0  0  0  0  2  0  0  0  0  0  0
  1  9  1  6  0  0  0
  1 17  1  0  0  0  0
  2  3  1  6  0  0  0
  2  5  1  0  0  0  0
  3  7  1  0  0  0  0
  4  7  1  0  0  0  0
  5 14  1  1  0  0  0
  5 16  1  0  0  0  0
  8 23  1  6  0  0  0
  8 12  1  0  0  0  0
 10 19  1  0  0  0  0
 10 18  1  0  0  0  0
 11  4  2  0  0  0  0
 13  2  1  0  0  0  0
 13  8  1  0  0  0  0
 14  1  1  0  0  0  0
 15 20  2  0  0  0  0
 15 11  1  0  0  0  0
 16 12  1  1  0  0  0
 16 17  1  0  0  0  0
 17  6  1  1  0  0  0
 18 13  2  0  0  0  0
 19  3  2  0  0  0  0
 20 19  1  0  0  0  0
 21 22  2  0  0  0  0
 22 23  1  0  0  0  0
 24 27  1  6  0  0  0
 24 31  1  0  0  0  0
 25 30  1  0  0  0  0
 28 24  1  0  0  0  0
 28 25  1  0  0  0  0
 29 26  1  0  0  0  0
 30 22  1  0  0  0  0
 30 29  2  0  0  0  0
 31 29  1  0  0  0  0
M  END
>  <MODEL>
9

>  <REMARK>
 VINA RESULT:      -7.3      2.195      8.183
  Name = 
  2 active torsions:
  status: ('A' for Active; 'I' for Inactive)
    1  A    between atoms: C_9  and  C_22
    2  A    between atoms: C_15  and  N_23
                            x       y       z     vdW  Elec       q    Type
                         _______ _______ _______ _____ _____    ______ ____

>  <TORSDO>
F 2

$$$$
