=
 OpenBabel11052418383D

 34 38  0  0  1  0  0  0  0  0999 V2000
  188.9730  176.5010  142.6890 N   0  0  0  0  0  0  0  0  0  0  0  0
  188.9410  177.7650  144.7380 C   0  0  0  0  0  2  0  0  0  0  0  0
  190.2800  177.1420  142.8180 C   0  0  0  0  0  2  0  0  0  0  0  0
  190.3100  177.9260  144.1250 C   0  0  2  0  0  3  0  0  0  0  0  0
  188.0980  177.2720  143.5820 C   0  0  2  0  0  3  0  0  0  0  0  0
  185.2050  178.1300  145.0450 C   0  0  0  0  0  0  0  0  0  0  0  0
  186.6600  176.9030  146.5700 C   0  0  0  0  0  0  0  0  0  0  0  0
  186.8040  176.5430  143.9980 C   0  0  1  0  0  3  0  0  0  0  0  0
  185.5740  179.0010  147.3690 C   0  0  0  0  0  2  0  0  0  0  0  0
  186.2540  177.7420  147.6520 N   0  0  0  0  0  2  0  0  0  0  0  0
  186.1750  177.2050  145.2090 C   0  0  0  0  0  0  0  0  0  0  0  0
  184.5710  178.8120  146.2300 C   0  0  0  0  0  2  0  0  0  0  0  0
  185.8930  176.5410  142.8900 O   0  0  0  0  0  0  0  0  0  0  0  0
  184.6120  178.3490  143.7160 C   0  0  0  0  0  3  0  0  0  0  0  0
  187.3970  175.9060  146.7880 O   0  0  0  0  0  0  0  0  0  0  0  0
  184.9490  177.5580  142.7000 C   0  0  0  0  0  3  0  0  0  0  0  0
  191.3950  177.4050  145.0600 C   0  0  0  0  0  2  0  0  0  0  0  0
  192.5650  177.0480  144.3310 O   0  0  0  0  0  0  0  0  0  0  0  0
  194.7170  177.4590  146.0610 O   0  0  0  0  0  1  0  0  0  0  0  0
  193.3860  175.9750  144.6900 C   0  0  0  0  0  0  0  0  0  0  0  0
  194.4630  176.1900  145.5570 C   0  0  0  0  0  0  0  0  0  0  0  0
  195.0260  173.8510  145.4110 C   0  0  0  0  0  3  0  0  0  0  0  0
  193.9750  173.6570  144.5700 N   0  0  0  0  0  0  0  0  0  0  0  0
  193.1580  174.6800  144.2030 C   0  0  0  0  0  3  0  0  0  0  0  0
  195.2890  175.1240  145.9210 C   0  0  0  0  0  3  0  0  0  0  0  0
  189.1330  175.1270  143.1730 C   0  0  0  0  0  2  0  0  0  0  0  0
  189.4730  172.4300  139.8590 C   0  0  0  0  0  0  0  0  0  0  0  0
  188.5410  174.4390  140.8410 C   0  0  0  0  0  3  0  0  0  0  0  0
  190.1810  172.1820  141.0400 C   0  0  0  0  0  3  0  0  0  0  0  0
  188.6570  173.5610  139.7590 C   0  0  0  0  0  3  0  0  0  0  0  0
  190.0670  173.0590  142.1220 C   0  0  0  0  0  3  0  0  0  0  0  0
  189.2410  174.1850  142.0260 C   0  0  0  0  0  0  0  0  0  0  0  0
  189.6250  171.3120  138.4730 S   0  0  0  0  0  0  0  0  0  0  0  0
  189.3800  172.8810  137.0550 S   0  0  0  0  0  1  0  0  0  0  0  0
  1  3  1  0  0  0  0
  1 26  1  0  0  0  0
  1  5  1  0  0  0  0
  3  4  1  0  0  0  0
  4  2  1  0  0  0  0
  4 17  1  1  0  0  0
  5  8  1  0  0  0  0
  5  2  1  1  0  0  0
  6 11  2  0  0  0  0
  6 12  1  0  0  0  0
  7 15  2  0  0  0  0
  7 10  1  0  0  0  0
  8 13  1  6  0  0  0
  8 11  1  0  0  0  0
  9 10  1  0  0  0  0
 11  7  1  0  0  0  0
 12  9  1  0  0  0  0
 14  6  1  0  0  0  0
 16 13  1  0  0  0  0
 16 14  2  0  0  0  0
 18 20  1  0  0  0  0
 18 17  1  0  0  0  0
 20 21  1  0  0  0  0
 21 25  2  0  0  0  0
 21 19  1  0  0  0  0
 22 25  1  0  0  0  0
 23 22  2  0  0  0  0
 24 23  1  0  0  0  0
 24 20  2  0  0  0  0
 27 29  1  0  0  0  0
 28 32  2  0  0  0  0
 29 31  2  0  0  0  0
 30 27  2  0  0  0  0
 30 28  1  0  0  0  0
 32 31  1  0  0  0  0
 32 26  1  0  0  0  0
 33 27  1  0  0  0  0
 34 33  1  0  0  0  0
M  END
>  <MODEL>
1

>  <REMARK>
 VINA RESULT:      -7.9      0.000      0.000
  Name = 
  7 active torsions:
  status: ('A' for Active; 'I' for Inactive)
    1  A    between atoms: O_3  and  C_13
    2  A    between atoms: O_3  and  C_17
    3  A    between atoms: C_4  and  C_31
    4  A    between atoms: N_5  and  C_26
    5  A    between atoms: S_7  and  C_8
    6  A    between atoms: C_17  and  C_29
    7  A    between atoms: C_26  and  C_28
                            x       y       z     vdW  Elec       q    Type
                         _______ _______ _______ _____ _____    ______ ____

>  <TORSDO>
F 7

$$$$
=
 OpenBabel11052418383D

 34 38  0  0  1  0  0  0  0  0999 V2000
  190.2060  175.2840  146.2140 N   0  0  0  0  0  0  0  0  0  0  0  0
  192.2530  174.4530  145.2560 C   0  0  0  0  0  2  0  0  0  0  0  0
  191.2440  175.4180  147.2350 C   0  0  0  0  0  2  0  0  0  0  0  0
  192.5660  174.9330  146.6520 C   0  0  2  0  0  3  0  0  0  0  0  0
  190.7480  174.2970  145.2700 C   0  0  2  0  0  3  0  0  0  0  0  0
  191.3970  172.9380  142.2740 C   0  0  0  0  0  0  0  0  0  0  0  0
  191.9080  175.3230  142.3150 C   0  0  0  0  0  0  0  0  0  0  0  0
  190.0890  174.3140  143.8760 C   0  0  1  0  0  3  0  0  0  0  0  0
  193.5870  173.7490  141.3530 C   0  0  0  0  0  2  0  0  0  0  0  0
  193.0630  175.1020  141.5050 N   0  0  0  0  0  2  0  0  0  0  0  0
  191.1290  174.1600  142.7840 C   0  0  0  0  0  0  0  0  0  0  0  0
  192.4350  172.7550  141.1970 C   0  0  0  0  0  2  0  0  0  0  0  0
  189.1190  173.2600  143.8060 O   0  0  0  0  0  0  0  0  0  0  0  0
  190.5450  171.7900  142.6240 C   0  0  0  0  0  3  0  0  0  0  0  0
  191.5510  176.4970  142.5960 O   0  0  0  0  0  0  0  0  0  0  0  0
  189.4450  171.9770  143.3490 C   0  0  0  0  0  3  0  0  0  0  0  0
  193.6060  176.0470  146.6290 C   0  0  0  0  0  2  0  0  0  0  0  0
  194.9210  175.5100  146.5290 O   0  0  0  0  0  0  0  0  0  0  0  0
  196.9660  173.6360  146.2160 O   0  0  0  0  0  1  0  0  0  0  0  0
  195.6190  175.4360  145.3200 C   0  0  0  0  0  0  0  0  0  0  0  0
  196.6440  174.4940  145.1720 C   0  0  0  0  0  0  0  0  0  0  0  0
  197.0170  175.2770  142.9230 C   0  0  0  0  0  3  0  0  0  0  0  0
  196.0190  176.1870  143.0810 N   0  0  0  0  0  0  0  0  0  0  0  0
  195.3200  176.2830  144.2440 C   0  0  0  0  0  3  0  0  0  0  0  0
  197.3480  174.4130  143.9680 C   0  0  0  0  0  3  0  0  0  0  0  0
  190.0760  176.5970  145.5780 C   0  0  0  0  0  2  0  0  0  0  0  0
  186.0140  177.9570  145.7410 C   0  0  0  0  0  0  0  0  0  0  0  0
  187.8860  176.8130  146.7690 C   0  0  0  0  0  3  0  0  0  0  0  0
  186.7940  178.2120  144.6070 C   0  0  0  0  0  3  0  0  0  0  0  0
  186.5630  177.2610  146.8230 C   0  0  0  0  0  3  0  0  0  0  0  0
  188.1170  177.7640  144.5520 C   0  0  0  0  0  3  0  0  0  0  0  0
  188.6620  177.0590  145.6310 C   0  0  0  0  0  0  0  0  0  0  0  0
  184.3250  178.5350  145.8140 S   0  0  0  0  0  0  0  0  0  0  0  0
  184.1790  178.6740  143.6940 S   0  0  0  0  0  1  0  0  0  0  0  0
  1  3  1  0  0  0  0
  2  4  1  0  0  0  0
  4 17  1  6  0  0  0
  4  3  1  0  0  0  0
  5  2  1  6  0  0  0
  5  1  1  0  0  0  0
  6 14  1  0  0  0  0
  6 11  2  0  0  0  0
  7 15  2  0  0  0  0
  7 11  1  0  0  0  0
  8 11  1  6  0  0  0
  8  5  1  0  0  0  0
  9 10  1  0  0  0  0
 10  7  1  0  0  0  0
 12  9  1  0  0  0  0
 12  6  1  0  0  0  0
 13  8  1  0  0  0  0
 14 16  2  0  0  0  0
 16 13  1  0  0  0  0
 18 17  1  0  0  0  0
 20 18  1  0  0  0  0
 21 20  1  0  0  0  0
 21 19  1  0  0  0  0
 22 23  2  0  0  0  0
 22 25  1  0  0  0  0
 23 24  1  0  0  0  0
 24 20  2  0  0  0  0
 25 21  2  0  0  0  0
 26 32  1  0  0  0  0
 26  1  1  0  0  0  0
 27 33  1  0  0  0  0
 27 30  1  0  0  0  0
 28 30  2  0  0  0  0
 29 27  2  0  0  0  0
 31 29  1  0  0  0  0
 31 32  2  0  0  0  0
 32 28  1  0  0  0  0
 34 33  1  0  0  0  0
M  END
>  <MODEL>
2

>  <REMARK>
 VINA RESULT:      -7.5      3.508      6.535
  Name = 
  7 active torsions:
  status: ('A' for Active; 'I' for Inactive)
    1  A    between atoms: O_3  and  C_13
    2  A    between atoms: O_3  and  C_17
    3  A    between atoms: C_4  and  C_31
    4  A    between atoms: N_5  and  C_26
    5  A    between atoms: S_7  and  C_8
    6  A    between atoms: C_17  and  C_29
    7  A    between atoms: C_26  and  C_28
                            x       y       z     vdW  Elec       q    Type
                         _______ _______ _______ _____ _____    ______ ____

>  <TORSDO>
F 7

$$$$
=
 OpenBabel11052418383D

 34 38  0  0  1  0  0  0  0  0999 V2000
  191.0470  175.4750  145.8160 N   0  0  0  0  0  0  0  0  0  0  0  0
  189.3030  174.9060  144.2580 C   0  0  0  0  0  2  0  0  0  0  0  0
  191.2930  174.1020  145.3810 C   0  0  0  0  0  2  0  0  0  0  0  0
  190.2250  173.7160  144.3630 C   0  0  2  0  0  3  0  0  0  0  0  0
  189.6350  175.7150  145.4930 C   0  0  2  0  0  3  0  0  0  0  0  0
  186.9460  177.4480  144.4870 C   0  0  0  0  0  0  0  0  0  0  0  0
  188.7760  177.6070  142.8820 C   0  0  0  0  0  0  0  0  0  0  0  0
  189.2390  177.2030  145.4090 C   0  0  1  0  0  3  0  0  0  0  0  0
  186.4840  177.0900  142.0460 C   0  0  0  0  0  2  0  0  0  0  0  0
  187.8480  177.5440  141.7990 N   0  0  0  0  0  2  0  0  0  0  0  0
  188.2780  177.4440  144.2620 C   0  0  0  0  0  0  0  0  0  0  0  0
  185.9670  177.6720  143.3630 C   0  0  0  0  0  2  0  0  0  0  0  0
  188.6520  177.6000  146.6560 O   0  0  0  0  0  0  0  0  0  0  0  0
  186.4300  177.4240  145.8650 C   0  0  0  0  0  3  0  0  0  0  0  0
  189.9940  177.8260  142.6550 O   0  0  0  0  0  0  0  0  0  0  0  0
  187.2730  177.5160  146.8900 C   0  0  0  0  0  3  0  0  0  0  0  0
  190.8420  173.3780  143.0110 C   0  0  0  0  0  2  0  0  0  0  0  0
  190.2600  174.1660  141.9780 O   0  0  0  0  0  0  0  0  0  0  0  0
  187.6420  173.2670  141.6130 O   0  0  0  0  0  1  0  0  0  0  0  0
  189.8710  173.6330  140.7450 C   0  0  0  0  0  0  0  0  0  0  0  0
  188.5560  173.1840  140.5710 C   0  0  0  0  0  0  0  0  0  0  0  0
  189.0840  172.5720  138.3010 C   0  0  0  0  0  3  0  0  0  0  0  0
  190.3570  173.0120  138.4830 N   0  0  0  0  0  0  0  0  0  0  0  0
  190.7660  173.5360  139.6700 C   0  0  0  0  0  3  0  0  0  0  0  0
  188.1590  172.6500  139.3430 C   0  0  0  0  0  3  0  0  0  0  0  0
  191.9200  176.3310  145.0080 C   0  0  0  0  0  2  0  0  0  0  0  0
  195.8980  174.7390  144.8760 C   0  0  0  0  0  0  0  0  0  0  0  0
  193.8720  175.4190  143.7350 C   0  0  0  0  0  3  0  0  0  0  0  0
  195.3260  175.0960  146.1030 C   0  0  0  0  0  3  0  0  0  0  0  0
  195.1720  174.9050  143.6920 C   0  0  0  0  0  3  0  0  0  0  0  0
  194.0270  175.6110  146.1450 C   0  0  0  0  0  3  0  0  0  0  0  0
  193.2970  175.7670  144.9620 C   0  0  0  0  0  0  0  0  0  0  0  0
  197.5610  174.0870  144.8210 S   0  0  0  0  0  0  0  0  0  0  0  0
  196.9610  172.2200  145.6500 S   0  0  0  0  0  1  0  0  0  0  0  0
  2  4  1  0  0  0  0
  3  1  1  0  0  0  0
  4 17  1  6  0  0  0
  4  3  1  0  0  0  0
  5  2  1  6  0  0  0
  5  1  1  0  0  0  0
  6 14  1  0  0  0  0
  7 11  1  0  0  0  0
  8 11  1  6  0  0  0
  8  5  1  0  0  0  0
  8 13  1  0  0  0  0
  9 12  1  0  0  0  0
 10  9  1  0  0  0  0
 10  7  1  0  0  0  0
 11  6  2  0  0  0  0
 12  6  1  0  0  0  0
 13 16  1  0  0  0  0
 14 16  2  0  0  0  0
 15  7  2  0  0  0  0
 18 17  1  0  0  0  0
 20 18  1  0  0  0  0
 21 20  1  0  0  0  0
 21 19  1  0  0  0  0
 22 23  2  0  0  0  0
 22 25  1  0  0  0  0
 23 24  1  0  0  0  0
 24 20  2  0  0  0  0
 25 21  2  0  0  0  0
 26  1  1  0  0  0  0
 27 29  1  0  0  0  0
 28 32  2  0  0  0  0
 29 31  2  0  0  0  0
 30 28  1  0  0  0  0
 30 27  2  0  0  0  0
 32 26  1  0  0  0  0
 32 31  1  0  0  0  0
 33 27  1  0  0  0  0
 33 34  1  0  0  0  0
M  END
>  <MODEL>
3

>  <REMARK>
 VINA RESULT:      -7.3      3.392      6.213
  Name = 
  7 active torsions:
  status: ('A' for Active; 'I' for Inactive)
    1  A    between atoms: O_3  and  C_13
    2  A    between atoms: O_3  and  C_17
    3  A    between atoms: C_4  and  C_31
    4  A    between atoms: N_5  and  C_26
    5  A    between atoms: S_7  and  C_8
    6  A    between atoms: C_17  and  C_29
    7  A    between atoms: C_26  and  C_28
                            x       y       z     vdW  Elec       q    Type
                         _______ _______ _______ _____ _____    ______ ____

>  <TORSDO>
F 7

$$$$
=
 OpenBabel11052418383D

 34 38  0  0  1  0  0  0  0  0999 V2000
  190.7460  175.9790  146.4680 N   0  0  0  0  0  0  0  0  0  0  0  0
  188.9930  174.9510  145.1760 C   0  0  0  0  0  2  0  0  0  0  0  0
  191.1590  174.6020  146.2040 C   0  0  0  0  0  2  0  0  0  0  0  0
  190.0860  173.9270  145.3560 C   0  0  2  0  0  3  0  0  0  0  0  0
  189.2930  175.9730  146.2510 C   0  0  2  0  0  3  0  0  0  0  0  0
  186.4670  177.1550  144.8870 C   0  0  0  0  0  0  0  0  0  0  0  0
  188.3870  177.4900  143.4200 C   0  0  0  0  0  0  0  0  0  0  0  0
  188.6760  177.3640  146.0020 C   0  0  1  0  0  3  0  0  0  0  0  0
  186.2910  176.5380  142.4600 C   0  0  0  0  0  2  0  0  0  0  0  0
  187.5830  177.1900  142.2790 N   0  0  0  0  0  2  0  0  0  0  0  0
  187.7970  177.3540  144.7670 C   0  0  0  0  0  0  0  0  0  0  0  0
  185.5710  177.1270  143.6750 C   0  0  0  0  0  2  0  0  0  0  0  0
  187.9230  177.7550  147.1580 O   0  0  0  0  0  0  0  0  0  0  0  0
  185.8380  177.1530  146.2170 C   0  0  0  0  0  3  0  0  0  0  0  0
  189.5710  177.8890  143.2690 O   0  0  0  0  0  0  0  0  0  0  0  0
  186.5590  177.4620  147.2920 C   0  0  0  0  0  3  0  0  0  0  0  0
  190.6430  173.4770  144.0100 C   0  0  0  0  0  2  0  0  0  0  0  0
  190.1910  174.3300  142.9640 O   0  0  0  0  0  0  0  0  0  0  0  0
  192.0750  174.2150  140.9070 O   0  0  0  0  0  1  0  0  0  0  0  0
  189.8190  173.8530  141.7030 C   0  0  0  0  0  0  0  0  0  0  0  0
  190.7700  173.8000  140.6770 C   0  0  0  0  0  0  0  0  0  0  0  0
  189.0940  172.9070  139.1930 C   0  0  0  0  0  3  0  0  0  0  0  0
  188.1810  172.9640  140.1990 N   0  0  0  0  0  0  0  0  0  0  0  0
  188.5120  173.4220  141.4360 C   0  0  0  0  0  3  0  0  0  0  0  0
  190.4070  173.3250  139.4150 C   0  0  0  0  0  3  0  0  0  0  0  0
  191.4190  176.8140  145.4690 C   0  0  0  0  0  2  0  0  0  0  0  0
  195.3730  175.3250  144.7460 C   0  0  0  0  0  0  0  0  0  0  0  0
  193.6690  176.0870  146.2890 C   0  0  0  0  0  3  0  0  0  0  0  0
  194.4970  175.5360  143.6750 C   0  0  0  0  0  3  0  0  0  0  0  0
  194.9560  175.5960  146.0530 C   0  0  0  0  0  3  0  0  0  0  0  0
  193.2090  176.0260  143.9110 C   0  0  0  0  0  3  0  0  0  0  0  0
  192.7970  176.3080  145.2180 C   0  0  0  0  0  0  0  0  0  0  0  0
  197.0170  174.6920  144.4440 S   0  0  0  0  0  0  0  0  0  0  0  0
  196.8700  173.2800  146.0310 S   0  0  0  0  0  1  0  0  0  0  0  0
  2  4  1  0  0  0  0
  3  1  1  0  0  0  0
  4 17  1  6  0  0  0
  4  3  1  0  0  0  0
  5  2  1  6  0  0  0
  5  1  1  0  0  0  0
  6 14  1  0  0  0  0
  7 11  1  0  0  0  0
  8 11  1  6  0  0  0
  8  5  1  0  0  0  0
  8 13  1  0  0  0  0
  9 12  1  0  0  0  0
 10  9  1  0  0  0  0
 10  7  1  0  0  0  0
 11  6  2  0  0  0  0
 12  6  1  0  0  0  0
 13 16  1  0  0  0  0
 14 16  2  0  0  0  0
 15  7  2  0  0  0  0
 18 17  1  0  0  0  0
 20 18  1  0  0  0  0
 21 19  1  0  0  0  0
 21 20  2  0  0  0  0
 22 25  2  0  0  0  0
 22 23  1  0  0  0  0
 23 24  2  0  0  0  0
 24 20  1  0  0  0  0
 25 21  1  0  0  0  0
 26  1  1  0  0  0  0
 27 30  1  0  0  0  0
 29 31  1  0  0  0  0
 29 27  2  0  0  0  0
 30 28  2  0  0  0  0
 31 32  2  0  0  0  0
 32 26  1  0  0  0  0
 32 28  1  0  0  0  0
 33 27  1  0  0  0  0
 33 34  1  0  0  0  0
M  END
>  <MODEL>
4

>  <REMARK>
 VINA RESULT:      -7.2      3.318      5.865
  Name = 
  7 active torsions:
  status: ('A' for Active; 'I' for Inactive)
    1  A    between atoms: O_3  and  C_13
    2  A    between atoms: O_3  and  C_17
    3  A    between atoms: C_4  and  C_31
    4  A    between atoms: N_5  and  C_26
    5  A    between atoms: S_7  and  C_8
    6  A    between atoms: C_17  and  C_29
    7  A    between atoms: C_26  and  C_28
                            x       y       z     vdW  Elec       q    Type
                         _______ _______ _______ _____ _____    ______ ____

>  <TORSDO>
F 7

$$$$
=
 OpenBabel11052418383D

 34 38  0  0  1  0  0  0  0  0999 V2000
  189.8600  175.6260  144.2010 N   0  0  0  0  0  0  0  0  0  0  0  0
  187.7520  175.5070  143.0440 C   0  0  0  0  0  2  0  0  0  0  0  0
  189.8630  174.3840  143.4310 C   0  0  0  0  0  2  0  0  0  0  0  0
  188.5540  174.2890  142.6550 C   0  0  2  0  0  3  0  0  0  0  0  0
  188.4410  175.9910  144.3010 C   0  0  2  0  0  3  0  0  0  0  0  0
  185.7420  177.9270  144.7690 C   0  0  0  0  0  0  0  0  0  0  0  0
  186.8120  178.3710  142.6230 C   0  0  0  0  0  0  0  0  0  0  0  0
  188.1810  177.4720  144.6430 C   0  0  1  0  0  3  0  0  0  0  0  0
  184.3380  178.0620  142.6930 C   0  0  0  0  0  2  0  0  0  0  0  0
  185.5350  178.5360  142.0060 N   0  0  0  0  0  2  0  0  0  0  0  0
  186.8760  177.9480  144.0350 C   0  0  0  0  0  0  0  0  0  0  0  0
  184.4290  178.3820  144.1860 C   0  0  0  0  0  2  0  0  0  0  0  0
  188.1630  177.6250  146.0690 O   0  0  0  0  0  0  0  0  0  0  0  0
  185.8020  177.6410  146.2110 C   0  0  0  0  0  3  0  0  0  0  0  0
  187.8620  178.6130  141.9710 O   0  0  0  0  0  0  0  0  0  0  0  0
  186.9820  177.5170  146.8150 C   0  0  0  0  0  3  0  0  0  0  0  0
  188.8010  174.2510  141.1510 C   0  0  0  0  0  2  0  0  0  0  0  0
  188.6880  172.9220  140.6530 O   0  0  0  0  0  0  0  0  0  0  0  0
  190.0810  171.0450  142.1810 O   0  0  0  0  0  1  0  0  0  0  0  0
  189.7650  172.2280  140.0930 C   0  0  0  0  0  0  0  0  0  0  0  0
  190.4580  171.2890  140.8670 C   0  0  0  0  0  0  0  0  0  0  0  0
  191.9070  170.8400  138.9940 C   0  0  0  0  0  3  0  0  0  0  0  0
  191.2240  171.7540  138.2540 N   0  0  0  0  0  0  0  0  0  0  0  0
  190.1720  172.4450  138.7690 C   0  0  0  0  0  3  0  0  0  0  0  0
  191.5350  170.5910  140.3160 C   0  0  0  0  0  3  0  0  0  0  0  0
  190.5960  176.6110  143.4040 C   0  0  0  0  0  2  0  0  0  0  0  0
  194.8210  175.9540  143.7140 C   0  0  0  0  0  0  0  0  0  0  0  0
  192.8090  176.0690  142.3690 C   0  0  0  0  0  3  0  0  0  0  0  0
  194.0740  176.2660  144.8560 C   0  0  0  0  0  3  0  0  0  0  0  0
  194.1880  175.8610  142.4700 C   0  0  0  0  0  3  0  0  0  0  0  0
  192.6960  176.4750  144.7550 C   0  0  0  0  0  3  0  0  0  0  0  0
  192.0620  176.3710  143.5130 C   0  0  0  0  0  0  0  0  0  0  0  0
  196.5840  175.6920  143.8420 S   0  0  0  0  0  0  0  0  0  0  0  0
  196.3550  174.2390  145.3820 S   0  0  0  0  0  1  0  0  0  0  0  0
  1  5  1  0  0  0  0
  3  1  1  0  0  0  0
  4 17  1  6  0  0  0
  4  2  1  0  0  0  0
  4  3  1  0  0  0  0
  5  2  1  6  0  0  0
  5  8  1  0  0  0  0
  6 14  1  0  0  0  0
  7 11  1  0  0  0  0
  8 11  1  1  0  0  0
  8 13  1  0  0  0  0
  9 12  1  0  0  0  0
 10  7  1  0  0  0  0
 10  9  1  0  0  0  0
 11  6  2  0  0  0  0
 12  6  1  0  0  0  0
 13 16  1  0  0  0  0
 14 16  2  0  0  0  0
 15  7  2  0  0  0  0
 18 17  1  0  0  0  0
 20 18  1  0  0  0  0
 20 21  1  0  0  0  0
 21 19  1  0  0  0  0
 22 25  1  0  0  0  0
 23 24  1  0  0  0  0
 23 22  2  0  0  0  0
 24 20  2  0  0  0  0
 25 21  2  0  0  0  0
 26 32  1  0  0  0  0
 26  1  1  0  0  0  0
 27 33  1  0  0  0  0
 27 29  1  0  0  0  0
 28 30  1  0  0  0  0
 28 32  2  0  0  0  0
 30 27  2  0  0  0  0
 31 29  2  0  0  0  0
 32 31  1  0  0  0  0
 33 34  1  0  0  0  0
M  END
>  <MODEL>
5

>  <REMARK>
 VINA RESULT:      -7.1      3.444      5.739
  Name = 
  7 active torsions:
  status: ('A' for Active; 'I' for Inactive)
    1  A    between atoms: O_3  and  C_13
    2  A    between atoms: O_3  and  C_17
    3  A    between atoms: C_4  and  C_31
    4  A    between atoms: N_5  and  C_26
    5  A    between atoms: S_7  and  C_8
    6  A    between atoms: C_17  and  C_29
    7  A    between atoms: C_26  and  C_28
                            x       y       z     vdW  Elec       q    Type
                         _______ _______ _______ _____ _____    ______ ____

>  <TORSDO>
F 7

$$$$
=
 OpenBabel11052418383D

 34 38  0  0  1  0  0  0  0  0999 V2000
  188.2790  177.5260  142.3950 N   0  0  0  0  0  0  0  0  0  0  0  0
  189.3040  177.2610  144.5570 C   0  0  0  0  0  2  0  0  0  0  0  0
  189.6600  177.9900  142.2750 C   0  0  0  0  0  2  0  0  0  0  0  0
  190.3540  177.8050  143.6200 C   0  0  2  0  0  3  0  0  0  0  0  0
  188.0060  177.5590  143.8380 C   0  0  2  0  0  3  0  0  0  0  0  0
  185.1130  178.0760  145.4520 C   0  0  0  0  0  0  0  0  0  0  0  0
  186.7520  176.9590  146.8710 C   0  0  0  0  0  0  0  0  0  0  0  0
  186.8130  176.6910  144.2850 C   0  0  1  0  0  3  0  0  0  0  0  0
  185.5010  178.9120  147.7860 C   0  0  0  0  0  2  0  0  0  0  0  0
  186.3160  177.7210  147.9970 N   0  0  0  0  0  2  0  0  0  0  0  0
  186.1780  177.2500  145.5430 C   0  0  0  0  0  0  0  0  0  0  0  0
  184.4700  178.6560  146.6860 C   0  0  0  0  0  2  0  0  0  0  0  0
  185.8560  176.6280  143.2180 O   0  0  0  0  0  0  0  0  0  0  0  0
  184.4400  178.2720  144.1580 C   0  0  0  0  0  3  0  0  0  0  0  0
  187.5950  176.0370  147.0240 O   0  0  0  0  0  0  0  0  0  0  0  0
  184.8070  177.5490  143.1030 C   0  0  0  0  0  3  0  0  0  0  0  0
  191.5370  176.8510  143.5080 C   0  0  0  0  0  2  0  0  0  0  0  0
  191.8570  176.2890  144.7770 O   0  0  0  0  0  0  0  0  0  0  0  0
  193.8000  177.0870  146.6170 O   0  0  0  0  0  1  0  0  0  0  0  0
  192.9840  175.4910  144.9910 C   0  0  0  0  0  0  0  0  0  0  0  0
  193.9540  175.8980  145.9150 C   0  0  0  0  0  0  0  0  0  0  0  0
  195.2290  173.9120  145.4270 C   0  0  0  0  0  3  0  0  0  0  0  0
  194.2790  173.5280  144.5340 N   0  0  0  0  0  0  0  0  0  0  0  0
  193.1720  174.2830  144.3030 C   0  0  0  0  0  3  0  0  0  0  0  0
  195.0830  175.1070  146.1350 C   0  0  0  0  0  3  0  0  0  0  0  0
  188.2570  176.1510  141.8900 C   0  0  0  0  0  2  0  0  0  0  0  0
  186.7140  176.0690  137.8920 C   0  0  0  0  0  0  0  0  0  0  0  0
  186.8990  177.1600  140.0470 C   0  0  0  0  0  3  0  0  0  0  0  0
  187.5340  175.0310  138.3480 C   0  0  0  0  0  3  0  0  0  0  0  0
  186.4010  177.1360  138.7410 C   0  0  0  0  0  3  0  0  0  0  0  0
  188.0340  175.0560  139.6540 C   0  0  0  0  0  3  0  0  0  0  0  0
  187.7110  176.1170  140.5060 C   0  0  0  0  0  0  0  0  0  0  0  0
  186.0810  176.0410  136.2210 S   0  0  0  0  0  0  0  0  0  0  0  0
  188.0360  176.0380  135.3780 S   0  0  0  0  0  1  0  0  0  0  0  0
  1  5  1  0  0  0  0
  3  1  1  0  0  0  0
  3  4  1  0  0  0  0
  4 17  1  6  0  0  0
  4  2  1  0  0  0  0
  5  8  1  0  0  0  0
  5  2  1  1  0  0  0
  6 11  2  0  0  0  0
  6 12  1  0  0  0  0
  7 15  2  0  0  0  0
  7 10  1  0  0  0  0
  8 13  1  6  0  0  0
  8 11  1  0  0  0  0
  9 10  1  0  0  0  0
 11  7  1  0  0  0  0
 12  9  1  0  0  0  0
 14  6  1  0  0  0  0
 16 13  1  0  0  0  0
 16 14  2  0  0  0  0
 17 18  1  0  0  0  0
 18 20  1  0  0  0  0
 20 21  1  0  0  0  0
 21 25  2  0  0  0  0
 21 19  1  0  0  0  0
 22 25  1  0  0  0  0
 23 22  2  0  0  0  0
 24 23  1  0  0  0  0
 24 20  2  0  0  0  0
 26  1  1  0  0  0  0
 27 29  2  0  0  0  0
 27 30  1  0  0  0  0
 28 32  1  0  0  0  0
 29 31  1  0  0  0  0
 30 28  2  0  0  0  0
 31 32  2  0  0  0  0
 32 26  1  0  0  0  0
 33 27  1  0  0  0  0
 34 33  1  0  0  0  0
M  END
>  <MODEL>
6

>  <REMARK>
 VINA RESULT:      -6.9      1.804      2.233
  Name = 
  7 active torsions:
  status: ('A' for Active; 'I' for Inactive)
    1  A    between atoms: O_3  and  C_13
    2  A    between atoms: O_3  and  C_17
    3  A    between atoms: C_4  and  C_31
    4  A    between atoms: N_5  and  C_26
    5  A    between atoms: S_7  and  C_8
    6  A    between atoms: C_17  and  C_29
    7  A    between atoms: C_26  and  C_28
                            x       y       z     vdW  Elec       q    Type
                         _______ _______ _______ _____ _____    ______ ____

>  <TORSDO>
F 7

$$$$
=
 OpenBabel11052418383D

 34 38  0  0  1  0  0  0  0  0999 V2000
  188.3730  176.3470  143.9000 N   0  0  0  0  0  0  0  0  0  0  0  0
  187.0160  175.9010  141.9620 C   0  0  0  0  0  2  0  0  0  0  0  0
  188.6780  174.9840  143.4670 C   0  0  0  0  0  2  0  0  0  0  0  0
  187.8610  174.6770  142.2170 C   0  0  2  0  0  3  0  0  0  0  0  0
  187.0770  176.6470  143.2780 C   0  0  2  0  0  3  0  0  0  0  0  0
  184.2980  178.5210  143.3730 C   0  0  0  0  0  0  0  0  0  0  0  0
  185.1820  178.3290  141.1080 C   0  0  0  0  0  0  0  0  0  0  0  0
  186.7460  178.1490  143.1780 C   0  0  1  0  0  3  0  0  0  0  0  0
  182.7440  177.9560  141.4840 C   0  0  0  0  0  2  0  0  0  0  0  0
  183.8560  178.2450  140.5840 N   0  0  0  0  0  2  0  0  0  0  0  0
  185.3730  178.3620  142.5710 C   0  0  0  0  0  0  0  0  0  0  0  0
  182.9200  178.7220  142.7970 C   0  0  0  0  0  2  0  0  0  0  0  0
  186.8190  178.7320  144.4870 O   0  0  0  0  0  0  0  0  0  0  0  0
  184.4780  178.6930  144.8230 C   0  0  0  0  0  3  0  0  0  0  0  0
  186.1640  178.4020  140.3250 O   0  0  0  0  0  0  0  0  0  0  0  0
  185.7040  178.8090  145.3300 C   0  0  0  0  0  3  0  0  0  0  0  0
  188.7610  174.3740  141.0250 C   0  0  0  0  0  2  0  0  0  0  0  0
  188.2000  173.3450  140.2160 O   0  0  0  0  0  0  0  0  0  0  0  0
  187.8310  174.5160  137.7080 O   0  0  0  0  0  1  0  0  0  0  0  0
  188.8530  172.8190  139.0970 C   0  0  0  0  0  0  0  0  0  0  0  0
  188.6620  173.4110  137.8430 C   0  0  0  0  0  0  0  0  0  0  0  0
  190.1440  171.7830  136.8660 C   0  0  0  0  0  3  0  0  0  0  0  0
  190.3220  171.2170  138.0890 N   0  0  0  0  0  0  0  0  0  0  0  0
  189.7010  171.7060  139.1960 C   0  0  0  0  0  3  0  0  0  0  0  0
  189.3090  172.8920  136.7210 C   0  0  0  0  0  3  0  0  0  0  0  0
  189.4270  177.2040  143.3510 C   0  0  0  0  0  2  0  0  0  0  0  0
  193.1820  176.2690  145.1940 C   0  0  0  0  0  0  0  0  0  0  0  0
  190.8300  176.8170  145.3870 C   0  0  0  0  0  3  0  0  0  0  0  0
  193.0830  176.3330  143.8000 C   0  0  0  0  0  3  0  0  0  0  0  0
  192.0540  176.5060  145.9860 C   0  0  0  0  0  3  0  0  0  0  0  0
  191.8590  176.6420  143.2000 C   0  0  0  0  0  3  0  0  0  0  0  0
  190.7340  176.8910  143.9930 C   0  0  0  0  0  0  0  0  0  0  0  0
  194.7460  175.8660  145.9610 S   0  0  0  0  0  0  0  0  0  0  0  0
  195.7890  175.9550  144.1080 S   0  0  0  0  0  1  0  0  0  0  0  0
  2  4  1  0  0  0  0
  3  1  1  0  0  0  0
  4 17  1  6  0  0  0
  4  3  1  0  0  0  0
  5  2  1  6  0  0  0
  5  1  1  0  0  0  0
  6 14  1  0  0  0  0
  7 11  1  0  0  0  0
  8 11  1  1  0  0  0
  8  5  1  0  0  0  0
  8 13  1  0  0  0  0
  9 12  1  0  0  0  0
 10  7  1  0  0  0  0
 10  9  1  0  0  0  0
 11  6  2  0  0  0  0
 12  6  1  0  0  0  0
 13 16  1  0  0  0  0
 14 16  2  0  0  0  0
 15  7  2  0  0  0  0
 18 17  1  0  0  0  0
 19 21  1  0  0  0  0
 20 24  1  0  0  0  0
 20 18  1  0  0  0  0
 21 20  2  0  0  0  0
 22 23  1  0  0  0  0
 23 24  2  0  0  0  0
 25 22  2  0  0  0  0
 25 21  1  0  0  0  0
 26  1  1  0  0  0  0
 26 32  1  0  0  0  0
 27 33  1  0  0  0  0
 27 30  1  0  0  0  0
 28 30  2  0  0  0  0
 29 27  2  0  0  0  0
 31 29  1  0  0  0  0
 31 32  2  0  0  0  0
 32 28  1  0  0  0  0
 34 33  1  0  0  0  0
M  END
>  <MODEL>
7

>  <REMARK>
 VINA RESULT:      -6.8      3.575      6.421
  Name = 
  7 active torsions:
  status: ('A' for Active; 'I' for Inactive)
    1  A    between atoms: O_3  and  C_13
    2  A    between atoms: O_3  and  C_17
    3  A    between atoms: C_4  and  C_31
    4  A    between atoms: N_5  and  C_26
    5  A    between atoms: S_7  and  C_8
    6  A    between atoms: C_17  and  C_29
    7  A    between atoms: C_26  and  C_28
                            x       y       z     vdW  Elec       q    Type
                         _______ _______ _______ _____ _____    ______ ____

>  <TORSDO>
F 7

$$$$
=
 OpenBabel11052418383D

 34 38  0  0  1  0  0  0  0  0999 V2000
  188.2350  176.4370  143.9800 N   0  0  0  0  0  0  0  0  0  0  0  0
  186.9840  175.9070  141.9930 C   0  0  0  0  0  2  0  0  0  0  0  0
  188.5710  175.0620  143.6150 C   0  0  0  0  0  2  0  0  0  0  0  0
  187.8220  174.7010  142.3370 C   0  0  2  0  0  3  0  0  0  0  0  0
  186.9720  176.7020  143.2800 C   0  0  2  0  0  3  0  0  0  0  0  0
  184.1880  178.5730  143.2890 C   0  0  0  0  0  0  0  0  0  0  0  0
  185.0660  178.2690  141.0340 C   0  0  0  0  0  0  0  0  0  0  0  0
  186.6370  178.1970  143.1050 C   0  0  1  0  0  3  0  0  0  0  0  0
  182.6300  177.9100  141.4360 C   0  0  0  0  0  2  0  0  0  0  0  0
  183.7390  178.1550  140.5190 N   0  0  0  0  0  2  0  0  0  0  0  0
  185.2620  178.3760  142.4930 C   0  0  0  0  0  0  0  0  0  0  0  0
  182.8080  178.7410  142.7080 C   0  0  0  0  0  2  0  0  0  0  0  0
  186.7120  178.8450  144.3830 O   0  0  0  0  0  0  0  0  0  0  0  0
  184.3730  178.8180  144.7280 C   0  0  0  0  0  3  0  0  0  0  0  0
  186.0460  178.3050  140.2450 O   0  0  0  0  0  0  0  0  0  0  0  0
  185.5990  178.9620  145.2250 C   0  0  0  0  0  3  0  0  0  0  0  0
  188.7860  174.3600  141.2060 C   0  0  0  0  0  2  0  0  0  0  0  0
  189.9350  173.6840  141.7060 O   0  0  0  0  0  0  0  0  0  0  0  0
  190.4450  171.7430  143.6480 O   0  0  0  0  0  1  0  0  0  0  0  0
  190.2780  172.3850  141.3210 C   0  0  0  0  0  0  0  0  0  0  0  0
  190.5330  171.4180  142.3010 C   0  0  0  0  0  0  0  0  0  0  0  0
  190.9630  169.7990  140.5680 C   0  0  0  0  0  3  0  0  0  0  0  0
  190.7120  170.7470  139.6270 N   0  0  0  0  0  0  0  0  0  0  0  0
  190.3750  172.0190  139.9700 C   0  0  0  0  0  3  0  0  0  0  0  0
  190.8780  170.1180  141.9240 C   0  0  0  0  0  3  0  0  0  0  0  0
  189.3110  177.2810  143.4540 C   0  0  0  0  0  2  0  0  0  0  0  0
  193.0240  176.2650  145.3400 C   0  0  0  0  0  0  0  0  0  0  0  0
  190.6720  176.8240  145.5030 C   0  0  0  0  0  3  0  0  0  0  0  0
  192.9510  176.3720  143.9460 C   0  0  0  0  0  3  0  0  0  0  0  0
  191.8820  176.4870  146.1170 C   0  0  0  0  0  3  0  0  0  0  0  0
  191.7410  176.7080  143.3320 C   0  0  0  0  0  3  0  0  0  0  0  0
  190.6030  176.9400  144.1110 C   0  0  0  0  0  0  0  0  0  0  0  0
  194.5690  175.8290  146.1240 S   0  0  0  0  0  0  0  0  0  0  0  0
  195.5650  175.6000  144.2560 S   0  0  0  0  0  1  0  0  0  0  0  0
  2  4  1  0  0  0  0
  3  1  1  0  0  0  0
  4 17  1  6  0  0  0
  4  3  1  0  0  0  0
  5  2  1  6  0  0  0
  5  1  1  0  0  0  0
  6 14  1  0  0  0  0
  7 11  1  0  0  0  0
  8 11  1  1  0  0  0
  8  5  1  0  0  0  0
  8 13  1  0  0  0  0
  9 12  1  0  0  0  0
 10  7  1  0  0  0  0
 10  9  1  0  0  0  0
 11  6  2  0  0  0  0
 12  6  1  0  0  0  0
 13 16  1  0  0  0  0
 14 16  2  0  0  0  0
 15  7  2  0  0  0  0
 17 18  1  0  0  0  0
 20 18  1  0  0  0  0
 20 21  1  0  0  0  0
 21 19  1  0  0  0  0
 22 25  1  0  0  0  0
 23 24  1  0  0  0  0
 23 22  2  0  0  0  0
 24 20  2  0  0  0  0
 25 21  2  0  0  0  0
 26  1  1  0  0  0  0
 26 32  1  0  0  0  0
 27 30  1  0  0  0  0
 27 33  1  0  0  0  0
 28 30  2  0  0  0  0
 29 27  2  0  0  0  0
 31 29  1  0  0  0  0
 31 32  2  0  0  0  0
 32 28  1  0  0  0  0
 34 33  1  0  0  0  0
M  END
>  <MODEL>
8

>  <REMARK>
 VINA RESULT:      -6.8      3.461      5.671
  Name = 
  7 active torsions:
  status: ('A' for Active; 'I' for Inactive)
    1  A    between atoms: O_3  and  C_13
    2  A    between atoms: O_3  and  C_17
    3  A    between atoms: C_4  and  C_31
    4  A    between atoms: N_5  and  C_26
    5  A    between atoms: S_7  and  C_8
    6  A    between atoms: C_17  and  C_29
    7  A    between atoms: C_26  and  C_28
                            x       y       z     vdW  Elec       q    Type
                         _______ _______ _______ _____ _____    ______ ____

>  <TORSDO>
F 7

$$$$
=
 OpenBabel11052418383D

 34 38  0  0  1  0  0  0  0  0999 V2000
  190.5140  175.5890  143.8700 N   0  0  0  0  0  0  0  0  0  0  0  0
  191.8620  173.8370  142.9150 C   0  0  0  0  0  2  0  0  0  0  0  0
  190.1560  175.4940  142.4560 C   0  0  0  0  0  2  0  0  0  0  0  0
  190.9670  174.3690  141.8230 C   0  0  2  0  0  3  0  0  0  0  0  0
  191.8240  174.9310  143.9600 C   0  0  2  0  0  3  0  0  0  0  0  0
  194.6540  174.7710  145.7520 C   0  0  0  0  0  0  0  0  0  0  0  0
  193.9410  172.5670  144.9900 C   0  0  0  0  0  0  0  0  0  0  0  0
  192.2170  174.4740  145.3790 C   0  0  1  0  0  3  0  0  0  0  0  0
  196.3270  173.2290  144.6910 C   0  0  0  0  0  2  0  0  0  0  0  0
  195.2990  172.1960  144.7520 N   0  0  0  0  0  2  0  0  0  0  0  0
  193.6390  173.9510  145.4060 C   0  0  0  0  0  0  0  0  0  0  0  0
  196.0790  174.2800  145.7750 C   0  0  0  0  0  2  0  0  0  0  0  0
  192.0650  175.5780  146.2840 O   0  0  0  0  0  0  0  0  0  0  0  0
  194.3700  176.1070  146.2990 C   0  0  0  0  0  3  0  0  0  0  0  0
  193.0250  171.7120  144.8720 O   0  0  0  0  0  0  0  0  0  0  0  0
  193.1140  176.4630  146.5610 C   0  0  0  0  0  3  0  0  0  0  0  0
  190.0620  173.2730  141.2730 C   0  0  0  0  0  2  0  0  0  0  0  0
  190.4840  172.8710  139.9740 O   0  0  0  0  0  0  0  0  0  0  0  0
  192.1220  173.1630  137.7320 O   0  0  0  0  0  1  0  0  0  0  0  0
  189.9680  173.4310  138.8020 C   0  0  0  0  0  0  0  0  0  0  0  0
  190.7960  173.5750  137.6820 C   0  0  0  0  0  0  0  0  0  0  0  0
  188.9550  174.5420  136.4650 C   0  0  0  0  0  3  0  0  0  0  0  0
  188.1620  174.3960  137.5590 N   0  0  0  0  0  0  0  0  0  0  0  0
  188.6340  173.8550  138.7140 C   0  0  0  0  0  3  0  0  0  0  0  0
  190.2890  174.1340  136.5070 C   0  0  0  0  0  3  0  0  0  0  0  0
  189.4990  174.8330  144.6070 C   0  0  0  0  0  2  0  0  0  0  0  0
  186.7080  177.5330  146.4230 C   0  0  0  0  0  0  0  0  0  0  0  0
  188.5760  176.0020  146.6180 C   0  0  0  0  0  3  0  0  0  0  0  0
  186.6620  177.3000  145.0440 C   0  0  0  0  0  3  0  0  0  0  0  0
  187.6690  176.8870  147.2080 C   0  0  0  0  0  3  0  0  0  0  0  0
  187.5700  176.4160  144.4530 C   0  0  0  0  0  3  0  0  0  0  0  0
  188.5230  175.7610  145.2410 C   0  0  0  0  0  0  0  0  0  0  0  0
  185.5530  178.6690  147.1770 S   0  0  0  0  0  0  0  0  0  0  0  0
  184.4410  178.8860  145.3740 S   0  0  0  0  0  1  0  0  0  0  0  0
  1  5  1  0  0  0  0
  1 26  1  0  0  0  0
  3  1  1  0  0  0  0
  4 17  1  1  0  0  0
  4  3  1  0  0  0  0
  4  2  1  0  0  0  0
  5  2  1  6  0  0  0
  5  8  1  0  0  0  0
  6 12  1  0  0  0  0
  6 14  1  0  0  0  0
  7 11  1  0  0  0  0
  8 11  1  6  0  0  0
  8 13  1  0  0  0  0
  9 10  1  0  0  0  0
  9 12  1  0  0  0  0
 10  7  1  0  0  0  0
 11  6  2  0  0  0  0
 13 16  1  0  0  0  0
 14 16  2  0  0  0  0
 15  7  2  0  0  0  0
 18 17  1  0  0  0  0
 20 18  1  0  0  0  0
 21 19  1  0  0  0  0
 21 20  2  0  0  0  0
 22 25  2  0  0  0  0
 22 23  1  0  0  0  0
 23 24  2  0  0  0  0
 24 20  1  0  0  0  0
 25 21  1  0  0  0  0
 26 32  1  0  0  0  0
 27 33  1  0  0  0  0
 27 30  1  0  0  0  0
 28 30  2  0  0  0  0
 29 27  2  0  0  0  0
 31 29  1  0  0  0  0
 31 32  2  0  0  0  0
 32 28  1  0  0  0  0
 34 33  1  0  0  0  0
M  END
>  <MODEL>
9

>  <REMARK>
 VINA RESULT:      -6.6      3.941      8.212
  Name = 
  7 active torsions:
  status: ('A' for Active; 'I' for Inactive)
    1  A    between atoms: O_3  and  C_13
    2  A    between atoms: O_3  and  C_17
    3  A    between atoms: C_4  and  C_31
    4  A    between atoms: N_5  and  C_26
    5  A    between atoms: S_7  and  C_8
    6  A    between atoms: C_17  and  C_29
    7  A    between atoms: C_26  and  C_28
                            x       y       z     vdW  Elec       q    Type
                         _______ _______ _______ _____ _____    ______ ____

>  <TORSDO>
F 7

$$$$
