=
 OpenBabel11052419403D

 55 60  0  0  1  0  0  0  0  0999 V2000
  193.8290  171.7970  139.2750 C   0  0  0  0  0  2  0  0  0  0  0  0
  190.6840  172.4380  143.4180 C   0  0  0  0  0  2  0  0  0  0  0  0
  192.9990  171.7910  145.0230 F   0  0  0  0  0  0  0  0  0  0  0  0
  195.3460  174.8870  143.9930 C   0  0  0  0  0  3  0  0  0  0  0  0
  195.7780  176.1410  144.2030 C   0  0  0  0  0  3  0  0  0  0  0  0
  196.5110  174.8810  141.7560 C   0  0  2  0  0  3  0  0  0  0  0  0
  197.5000  175.8630  142.3680 C   0  0  0  0  0  2  0  0  0  0  0  0
  194.4400  172.0740  143.2360 N   0  0  0  0  0  2  0  0  0  0  0  0
  196.7470  176.8390  143.2770 C   0  0  0  0  0  2  0  0  0  0  0  0
  192.6600  172.0820  137.0860 C   0  0  0  0  0  3  0  0  0  0  0  0
  195.8870  174.0320  142.8740 C   0  0  2  0  0  3  0  0  0  0  0  0
  190.3830  173.0860  138.3750 C   0  0  0  0  0  0  0  0  0  0  0  0
  194.4700  172.9550  139.8720 N   0  0  0  0  0  2  0  0  0  0  0  0
  191.5140  172.7280  139.1200 C   0  0  0  0  0  3  0  0  0  0  0  0
  196.7760  172.6620  140.7190 C   0  0  1  0  0  3  0  0  0  0  0  0
  189.5700  172.1340  142.4290 C   0  0  0  0  0  2  0  0  0  0  0  0
  197.1680  174.0810  140.7090 N   0  0  0  0  0  2  0  0  0  0  0  0
  192.0240  171.9950  142.8600 C   0  0  0  0  0  2  0  0  0  0  0  0
  193.1440  172.4240  143.8000 C   0  0  1  0  0  3  0  0  0  0  0  0
  191.5380  172.4550  136.3380 C   0  0  0  0  0  3  0  0  0  0  0  0
  189.3160  173.3230  141.5130 C   0  0  1  0  0  3  0  0  0  0  0  0
  192.6480  172.2200  138.4770 C   0  0  0  0  0  0  0  0  0  0  0  0
  194.8110  173.1120  142.2840 C   0  0  1  0  0  3  0  0  0  0  0  0
  195.2710  172.4540  140.9770 C   0  0  1  0  0  3  0  0  0  0  0  0
  188.7130  172.8000  140.2140 C   0  0  0  0  0  2  0  0  0  0  0  0
  189.1700  173.6560  139.0390 C   0  0  0  0  0  2  0  0  0  0  0  0
  190.4020  172.9570  136.9830 C   0  0  0  0  0  3  0  0  0  0  0  0
  197.5170  172.7070  138.2370 C   0  0  0  0  0  3  0  0  0  0  0  0
  197.3270  170.5750  136.9850 C   0  0  1  0  0  3  0  0  0  0  0  0
  197.3440  170.6220  139.4900 C   0  0  0  0  0  3  0  0  0  0  0  0
  197.8380  169.8920  138.2690 C   0  0  0  0  0  2  0  0  0  0  0  0
  197.6000  172.0640  137.0680 C   0  0  0  0  0  3  0  0  0  0  0  0
  197.2480  171.9560  139.4850 C   0  0  0  0  0  0  0  0  0  0  0  0
  197.9410  169.9880  135.7840 N   0  0  0  0  0  0  0  0  0  0  0  0
  197.4170  168.6410  135.6050 C   0  0  0  0  0  1  0  0  0  0  0  0
  197.4810  170.7270  134.6180 C   0  0  0  0  0  1  0  0  0  0  0  0
  187.0440  173.8680  142.0880 O   0  0  0  0  0  1  0  0  0  0  0  0
  188.3590  174.3270  142.1740 C   0  0  2  0  0  3  0  0  0  0  0  0
  188.4440  175.5790  141.5480 O   0  0  0  0  0  0  0  0  0  0  0  0
  187.1400  177.2140  142.9890 C   0  0  2  0  0  0  0  0  0  0  0  0
  187.7050  177.9510  140.7710 F   0  0  0  0  0  0  0  0  0  0  0  0
  188.1360  177.9540  142.0900 C   0  0  2  0  0  3  0  0  0  0  0  0
  188.4450  176.5410  142.5740 C   0  0  2  0  0  0  0  0  0  0  0  0
  189.5170  176.5150  143.4700 O   0  0  0  0  0  1  0  0  0  0  0  0
  186.0050  176.7320  142.3330 O   0  0  0  0  0  1  0  0  0  0  0  0
  186.9560  177.6400  144.4660 C   0  0  1  0  0  3  0  0  0  0  0  0
  185.8650  178.6970  144.6890 C   0  0  2  0  0  3  0  0  0  0  0  0
  185.8670  179.7270  143.5730 C   0  0  0  0  0  1  0  0  0  0  0  0
  186.0630  179.3500  145.8940 F   0  0  0  0  0  0  0  0  0  0  0  0
  185.7650  176.4930  146.2320 O   0  0  0  0  0  1  0  0  0  0  0  0
  186.9710  176.5260  145.5280 C   0  0  2  0  0  3  0  0  0  0  0  0
  188.9950  175.4240  146.6040 N   0  0  0  0  0  2  0  0  0  0  0  0
  190.0950  175.3970  147.5510 C   0  0  0  0  0  1  0  0  0  0  0  0
  188.1500  176.5670  146.4570 C   0  0  0  0  0  0  0  0  0  0  0  0
  188.3840  177.6180  147.1130 O   0  0  0  0  0  0  0  0  0  0  0  0
  1 13  1  0  0  0  0
  4  5  2  0  0  0  0
  6  7  1  1  0  0  0
  6 11  1  0  0  0  0
  7  9  1  0  0  0  0
  8 19  1  0  0  0  0
  9  5  1  0  0  0  0
 10 22  1  0  0  0  0
 11  4  1  1  0  0  0
 12 26  1  0  0  0  0
 12 14  1  0  0  0  0
 15 33  1  6  0  0  0
 15 24  1  0  0  0  0
 16  2  1  0  0  0  0
 17 15  1  0  0  0  0
 17  6  1  0  0  0  0
 18  2  1  0  0  0  0
 18 19  1  0  0  0  0
 19  3  1  1  0  0  0
 20 27  1  0  0  0  0
 20 10  2  0  0  0  0
 21 38  1  1  0  0  0
 21 16  1  0  0  0  0
 22 14  2  0  0  0  0
 22  1  1  0  0  0  0
 23 11  1  0  0  0  0
 23  8  1  1  0  0  0
 24 13  1  6  0  0  0
 24 23  1  0  0  0  0
 25 21  1  0  0  0  0
 26 25  1  0  0  0  0
 27 12  2  0  0  0  0
 28 33  1  0  0  0  0
 29 34  1  6  0  0  0
 29 32  1  0  0  0  0
 29 31  1  0  0  0  0
 31 30  1  0  0  0  0
 32 28  2  0  0  0  0
 33 30  2  0  0  0  0
 35 34  1  0  0  0  0
 36 34  1  0  0  0  0
 38 37  1  6  0  0  0
 39 38  1  0  0  0  0
 39 43  1  0  0  0  0
 40 45  1  6  0  0  0
 40 46  1  0  0  0  0
 42 41  1  6  0  0  0
 42 43  1  0  0  0  0
 42 40  1  0  0  0  0
 43 40  1  0  0  0  0
 43 44  1  1  0  0  0
 46 47  1  6  0  0  0
 46 51  1  0  0  0  0
 47 48  1  6  0  0  0
 47 49  1  0  0  0  0
 51 50  1  1  0  0  0
 51 54  1  0  0  0  0
 52 53  1  0  0  0  0
 54 52  1  0  0  0  0
 54 55  2  0  0  0  0
M  END
>  <MODEL>
1

>  <REMARK>
 VINA RESULT:      -7.8      0.000      0.000
  Name = 
  9 active torsions:
  status: ('A' for Active; 'I' for Inactive)
    1  A    between atoms: C_1  and  C_53
    2  A    between atoms: C_6  and  C_53
    3  A    between atoms: C_8  and  O_22
    4  A    between atoms: C_8  and  C_43
    5  A    between atoms: N_10  and  C_32
    6  A    between atoms: C_20  and  O_22
    7  A    between atoms: C_29  and  C_38
    8  A    between atoms: C_33  and  C_52
    9  A    between atoms: C_38  and  C_53
                            x       y       z     vdW  Elec       q    Type
                         _______ _______ _______ _____ _____    ______ ____

>  <TORSDO>
F 9

$$$$
=
 OpenBabel11052419403D

 55 60  0  0  1  0  0  0  0  0999 V2000
  190.3170  175.1290  143.8810 C   0  0  0  0  0  2  0  0  0  0  0  0
  192.8760  170.6090  143.1850 C   0  0  0  0  0  2  0  0  0  0  0  0
  190.3260  169.5230  142.3660 F   0  0  0  0  0  0  0  0  0  0  0  0
  189.6990  171.8070  139.1190 C   0  0  0  0  0  3  0  0  0  0  0  0
  189.8280  172.0140  137.7980 C   0  0  0  0  0  3  0  0  0  0  0  0
  188.9390  174.1960  139.3990 C   0  0  2  0  0  3  0  0  0  0  0  0
  188.4040  174.0980  137.9780 C   0  0  0  0  0  2  0  0  0  0  0  0
  189.3890  171.6260  142.1480 N   0  0  0  0  0  2  0  0  0  0  0  0
  189.3820  173.2890  137.1220 C   0  0  0  0  0  2  0  0  0  0  0  0
  191.7610  176.9630  144.7710 C   0  0  0  0  0  3  0  0  0  0  0  0
  188.9880  172.7890  140.0160 C   0  0  2  0  0  3  0  0  0  0  0  0
  194.0650  175.4250  144.3420 C   0  0  0  0  0  0  0  0  0  0  0  0
  190.1680  175.0020  142.4420 N   0  0  0  0  0  2  0  0  0  0  0  0
  192.8050  174.9210  143.9900 C   0  0  0  0  0  3  0  0  0  0  0  0
  187.8750  174.7090  141.5610 C   0  0  1  0  0  3  0  0  0  0  0  0
  193.8650  171.1900  144.1830 C   0  0  0  0  0  2  0  0  0  0  0  0
  188.1410  175.1530  140.1820 N   0  0  0  0  0  2  0  0  0  0  0  0
  191.5600  171.3610  143.2440 C   0  0  0  0  0  2  0  0  0  0  0  0
  190.6250  170.8570  142.1510 C   0  0  1  0  0  3  0  0  0  0  0  0
  193.0180  177.4750  145.1060 C   0  0  0  0  0  3  0  0  0  0  0  0
  194.7220  172.2690  143.5360 C   0  0  1  0  0  3  0  0  0  0  0  0
  191.6550  175.6860  144.2120 C   0  0  0  0  0  0  0  0  0  0  0  0
  189.6260  172.8590  141.4090 C   0  0  1  0  0  3  0  0  0  0  0  0
  189.0960  174.0440  142.2250 C   0  0  1  0  0  3  0  0  0  0  0  0
  195.1980  173.2160  144.6310 C   0  0  0  0  0  2  0  0  0  0  0  0
  195.3090  174.6350  144.0900 C   0  0  0  0  0  2  0  0  0  0  0  0
  194.1680  176.7070  144.8910 C   0  0  0  0  0  3  0  0  0  0  0  0
  187.3520  177.2210  141.9200 C   0  0  0  0  0  3  0  0  0  0  0  0
  187.0030  177.9570  144.2610 C   0  0  1  0  0  3  0  0  0  0  0  0
  186.8270  175.5440  143.6100 C   0  0  0  0  0  3  0  0  0  0  0  0
  186.2280  176.6370  144.4540 C   0  0  0  0  0  2  0  0  0  0  0  0
  187.1670  178.2280  142.7790 C   0  0  0  0  0  3  0  0  0  0  0  0
  187.3060  175.8180  142.3910 C   0  0  0  0  0  0  0  0  0  0  0  0
  186.3290  179.0770  144.9350 N   0  0  0  0  0  0  0  0  0  0  0  0
  185.3590  179.6570  144.0160 C   0  0  0  0  0  1  0  0  0  0  0  0
  185.5340  178.5480  146.0340 C   0  0  0  0  0  1  0  0  0  0  0  0
  196.9770  171.4470  143.7080 O   0  0  0  0  0  1  0  0  0  0  0  0
  195.9260  171.6490  142.8110 C   0  0  2  0  0  3  0  0  0  0  0  0
  196.3670  172.4870  141.7770 O   0  0  0  0  0  0  0  0  0  0  0  0
  195.7940  172.9220  139.3410 C   0  0  2  0  0  0  0  0  0  0  0  0
  194.6390  174.2580  140.9720 F   0  0  0  0  0  0  0  0  0  0  0  0
  194.5570  173.0890  140.2290 C   0  0  2  0  0  3  0  0  0  0  0  0
  195.6570  172.1070  140.6230 C   0  0  2  0  0  0  0  0  0  0  0  0
  195.2280  170.7790  140.5490 O   0  0  0  0  0  1  0  0  0  0  0  0
  196.7150  173.9700  139.4160 O   0  0  0  0  0  1  0  0  0  0  0  0
  195.6840  172.1950  137.9780 C   0  0  1  0  0  3  0  0  0  0  0  0
  195.2920  173.1050  136.8050 C   0  0  2  0  0  3  0  0  0  0  0  0
  194.0740  173.9440  137.1490 C   0  0  0  0  0  1  0  0  0  0  0  0
  195.0060  172.3480  135.6810 F   0  0  0  0  0  0  0  0  0  0  0  0
  197.7320  171.7300  136.7770 O   0  0  0  0  0  1  0  0  0  0  0  0
  196.7810  171.1720  137.6350 C   0  0  2  0  0  3  0  0  0  0  0  0
  194.9200  169.4600  137.3600 N   0  0  0  0  0  2  0  0  0  0  0  0
  194.4130  168.1660  136.9390 C   0  0  0  0  0  1  0  0  0  0  0  0
  196.2690  169.8610  137.1110 C   0  0  0  0  0  0  0  0  0  0  0  0
  197.0430  169.1130  136.4530 O   0  0  0  0  0  0  0  0  0  0  0  0
  1 22  1  0  0  0  0
  2 18  1  0  0  0  0
  2 16  1  0  0  0  0
  5  4  2  0  0  0  0
  6  7  1  6  0  0  0
  6 11  1  0  0  0  0
  6 17  1  0  0  0  0
  8 19  1  0  0  0  0
  9  5  1  0  0  0  0
  9  7  1  0  0  0  0
 10 20  1  0  0  0  0
 11  4  1  6  0  0  0
 11 23  1  0  0  0  0
 12 27  1  0  0  0  0
 13  1  1  0  0  0  0
 14 22  1  0  0  0  0
 14 12  2  0  0  0  0
 15 24  1  0  0  0  0
 15 33  1  1  0  0  0
 17 15  1  0  0  0  0
 19  3  1  1  0  0  0
 19 18  1  0  0  0  0
 21 38  1  1  0  0  0
 21 16  1  0  0  0  0
 21 25  1  0  0  0  0
 22 10  2  0  0  0  0
 23  8  1  1  0  0  0
 23 24  1  0  0  0  0
 24 13  1  6  0  0  0
 26 12  1  0  0  0  0
 26 25  1  0  0  0  0
 27 20  2  0  0  0  0
 28 33  1  0  0  0  0
 28 32  2  0  0  0  0
 29 31  1  0  0  0  0
 29 34  1  6  0  0  0
 30 31  1  0  0  0  0
 32 29  1  0  0  0  0
 33 30  2  0  0  0  0
 34 36  1  0  0  0  0
 35 34  1  0  0  0  0
 38 37  1  1  0  0  0
 39 38  1  0  0  0  0
 40 45  1  1  0  0  0
 40 42  1  0  0  0  0
 40 43  1  0  0  0  0
 42 43  1  0  0  0  0
 42 41  1  1  0  0  0
 43 44  1  6  0  0  0
 43 39  1  0  0  0  0
 46 47  1  6  0  0  0
 46 40  1  0  0  0  0
 47 48  1  1  0  0  0
 49 47  1  0  0  0  0
 51 50  1  6  0  0  0
 51 46  1  0  0  0  0
 53 52  1  0  0  0  0
 54 52  1  0  0  0  0
 54 51  1  0  0  0  0
 55 54  2  0  0  0  0
M  END
>  <MODEL>
2

>  <REMARK>
 VINA RESULT:      -7.2      4.372     10.586
  Name = 
  9 active torsions:
  status: ('A' for Active; 'I' for Inactive)
    1  A    between atoms: C_1  and  C_53
    2  A    between atoms: C_6  and  C_53
    3  A    between atoms: C_8  and  O_22
    4  A    between atoms: C_8  and  C_43
    5  A    between atoms: N_10  and  C_32
    6  A    between atoms: C_20  and  O_22
    7  A    between atoms: C_29  and  C_38
    8  A    between atoms: C_33  and  C_52
    9  A    between atoms: C_38  and  C_53
                            x       y       z     vdW  Elec       q    Type
                         _______ _______ _______ _____ _____    ______ ____

>  <TORSDO>
F 9

$$$$
=
 OpenBabel11052419403D

 55 60  0  0  1  0  0  0  0  0999 V2000
  189.6380  175.2290  141.1340 C   0  0  0  0  0  2  0  0  0  0  0  0
  194.8050  174.4790  140.6860 C   0  0  0  0  0  2  0  0  0  0  0  0
  195.0890  176.9190  142.2090 F   0  0  0  0  0  0  0  0  0  0  0  0
  193.3400  175.7190  145.6230 C   0  0  0  0  0  3  0  0  0  0  0  0
  193.4260  175.1630  146.8430 C   0  0  0  0  0  3  0  0  0  0  0  0
  190.8250  175.5660  145.7530 C   0  0  2  0  0  3  0  0  0  0  0  0
  190.9850  175.6860  147.2620 C   0  0  0  0  0  2  0  0  0  0  0  0
  192.8660  176.8950  142.8480 N   0  0  0  0  0  2  0  0  0  0  0  0
  192.2160  174.8910  147.7050 C   0  0  0  0  0  2  0  0  0  0  0  0
  188.2750  173.5040  139.9460 C   0  0  0  0  0  3  0  0  0  0  0  0
  192.0330  176.2240  145.0650 C   0  0  2  0  0  3  0  0  0  0  0  0
  190.5540  171.9290  139.5150 C   0  0  0  0  0  0  0  0  0  0  0  0
  189.9590  175.0120  142.5330 N   0  0  0  0  0  2  0  0  0  0  0  0
  190.6540  173.1360  140.2190 C   0  0  0  0  0  3  0  0  0  0  0  0
  189.6080  176.9080  144.0840 C   0  0  1  0  0  3  0  0  0  0  0  0
  194.4270  173.6600  139.4610 C   0  0  0  0  0  2  0  0  0  0  0  0
  189.5320  176.1270  145.3290 N   0  0  0  0  0  2  0  0  0  0  0  0
  193.6530  175.3760  141.1000 C   0  0  0  0  0  2  0  0  0  0  0  0
  193.9950  176.0920  142.4010 C   0  0  1  0  0  3  0  0  0  0  0  0
  188.1690  172.2910  139.2580 C   0  0  0  0  0  3  0  0  0  0  0  0
  193.8350  172.3170  139.8670 C   0  0  1  0  0  3  0  0  0  0  0  0
  189.5190  173.9260  140.4280 C   0  0  0  0  0  0  0  0  0  0  0  0
  191.9380  176.0160  143.5490 C   0  0  1  0  0  3  0  0  0  0  0  0
  190.5190  176.2620  143.0220 C   0  0  1  0  0  3  0  0  0  0  0  0
  192.9290  171.8400  138.7380 C   0  0  0  0  0  2  0  0  0  0  0  0
  191.7500  171.0570  139.3040 C   0  0  0  0  0  2  0  0  0  0  0  0
  189.3070  171.5050  139.0440 C   0  0  0  0  0  3  0  0  0  0  0  0
  187.0820  176.3670  143.8880 C   0  0  0  0  0  3  0  0  0  0  0  0
  185.8950  177.3100  141.9270 C   0  0  1  0  0  3  0  0  0  0  0  0
  188.0920  178.2370  142.6940 C   0  0  0  0  0  3  0  0  0  0  0  0
  186.7270  178.5860  142.1640 C   0  0  0  0  0  2  0  0  0  0  0  0
  185.9620  176.4340  143.1610 C   0  0  0  0  0  3  0  0  0  0  0  0
  188.2440  177.2220  143.5510 C   0  0  0  0  0  0  0  0  0  0  0  0
  184.5020  177.6350  141.5810 N   0  0  0  0  0  0  0  0  0  0  0  0
  183.9440  178.4700  142.6360 C   0  0  0  0  0  1  0  0  0  0  0  0
  184.5030  178.4810  140.3960 C   0  0  0  0  0  1  0  0  0  0  0  0
  195.3830  170.7370  138.9200 O   0  0  0  0  0  1  0  0  0  0  0  0
  194.9450  171.2870  140.1260 C   0  0  2  0  0  3  0  0  0  0  0  0
  194.4790  170.2540  140.9530 O   0  0  0  0  0  0  0  0  0  0  0  0
  195.3880  170.6190  143.2960 C   0  0  2  0  0  0  0  0  0  0  0  0
  194.3560  168.4910  142.8630 F   0  0  0  0  0  0  0  0  0  0  0  0
  194.1110  169.7730  143.3330 C   0  0  2  0  0  3  0  0  0  0  0  0
  194.3110  170.8120  142.2330 C   0  0  2  0  0  0  0  0  0  0  0  0
  193.4170  171.8800  142.3500 O   0  0  0  0  0  1  0  0  0  0  0  0
  196.5260  169.9410  142.8520 O   0  0  0  0  0  1  0  0  0  0  0  0
  195.6140  171.7370  144.3430 C   0  0  1  0  0  3  0  0  0  0  0  0
  194.8890  171.5110  145.6780 C   0  0  2  0  0  3  0  0  0  0  0  0
  195.0530  170.0780  146.1510 C   0  0  0  0  0  1  0  0  0  0  0  0
  193.5380  171.7820  145.5460 F   0  0  0  0  0  0  0  0  0  0  0  0
  197.2690  172.7380  145.7960 O   0  0  0  0  0  1  0  0  0  0  0  0
  197.0460  172.2800  144.4950 C   0  0  2  0  0  3  0  0  0  0  0  0
  197.6450  174.6700  143.8620 N   0  0  0  0  0  2  0  0  0  0  0  0
  197.9410  175.7090  142.8930 C   0  0  0  0  0  1  0  0  0  0  0  0
  197.4330  173.3110  143.4740 C   0  0  0  0  0  0  0  0  0  0  0  0
  197.5630  172.9680  142.2680 O   0  0  0  0  0  0  0  0  0  0  0  0
  1 13  1  0  0  0  0
  2 18  1  0  0  0  0
  4  5  2  0  0  0  0
  5  9  1  0  0  0  0
  6  7  1  1  0  0  0
  7  9  1  0  0  0  0
 10 22  1  0  0  0  0
 11  4  1  1  0  0  0
 11  6  1  0  0  0  0
 12 14  1  0  0  0  0
 14 22  2  0  0  0  0
 15 33  1  6  0  0  0
 15 17  1  0  0  0  0
 16 21  1  0  0  0  0
 16  2  1  0  0  0  0
 17  6  1  0  0  0  0
 18 19  1  0  0  0  0
 19  3  1  6  0  0  0
 19  8  1  0  0  0  0
 20 10  2  0  0  0  0
 21 38  1  6  0  0  0
 22  1  1  0  0  0  0
 23  8  1  6  0  0  0
 23 11  1  0  0  0  0
 24 13  1  1  0  0  0
 24 23  1  0  0  0  0
 24 15  1  0  0  0  0
 25 26  1  0  0  0  0
 25 21  1  0  0  0  0
 26 12  1  0  0  0  0
 27 20  1  0  0  0  0
 27 12  2  0  0  0  0
 29 34  1  1  0  0  0
 29 31  1  0  0  0  0
 29 32  1  0  0  0  0
 30 33  2  0  0  0  0
 31 30  1  0  0  0  0
 32 28  2  0  0  0  0
 33 28  1  0  0  0  0
 34 35  1  0  0  0  0
 36 34  1  0  0  0  0
 38 37  1  6  0  0  0
 38 39  1  0  0  0  0
 39 43  1  0  0  0  0
 40 45  1  6  0  0  0
 40 42  1  0  0  0  0
 40 46  1  0  0  0  0
 42 41  1  6  0  0  0
 43 44  1  1  0  0  0
 43 40  1  0  0  0  0
 43 42  1  0  0  0  0
 46 51  1  1  0  0  0
 46 47  1  0  0  0  0
 47 48  1  6  0  0  0
 49 47  1  0  0  0  0
 51 50  1  1  0  0  0
 53 52  1  0  0  0  0
 54 52  1  0  0  0  0
 54 51  1  0  0  0  0
 55 54  2  0  0  0  0
M  END
>  <MODEL>
3

>  <REMARK>
 VINA RESULT:      -6.8      4.150      9.274
  Name = 
  9 active torsions:
  status: ('A' for Active; 'I' for Inactive)
    1  A    between atoms: C_1  and  C_53
    2  A    between atoms: C_6  and  C_53
    3  A    between atoms: C_8  and  O_22
    4  A    between atoms: C_8  and  C_43
    5  A    between atoms: N_10  and  C_32
    6  A    between atoms: C_20  and  O_22
    7  A    between atoms: C_29  and  C_38
    8  A    between atoms: C_33  and  C_52
    9  A    between atoms: C_38  and  C_53
                            x       y       z     vdW  Elec       q    Type
                         _______ _______ _______ _____ _____    ______ ____

>  <TORSDO>
F 9

$$$$
=
 OpenBabel11052419403D

 55 60  0  0  1  0  0  0  0  0999 V2000
  190.2250  174.6610  140.7250 C   0  0  0  0  0  2  0  0  0  0  0  0
  195.4420  174.3550  140.3220 C   0  0  0  0  0  2  0  0  0  0  0  0
  195.4880  176.9800  141.5320 F   0  0  0  0  0  0  0  0  0  0  0  0
  193.8550  176.0480  145.0840 C   0  0  0  0  0  3  0  0  0  0  0  0
  193.9910  175.6570  146.3620 C   0  0  0  0  0  3  0  0  0  0  0  0
  191.3660  175.6740  145.2560 C   0  0  2  0  0  3  0  0  0  0  0  0
  191.5110  175.9930  146.7370 C   0  0  0  0  0  2  0  0  0  0  0  0
  193.2770  176.8230  142.1910 N   0  0  0  0  0  2  0  0  0  0  0  0
  192.8110  175.3790  147.2630 C   0  0  0  0  0  2  0  0  0  0  0  0
  189.0360  172.6820  139.7700 C   0  0  0  0  0  3  0  0  0  0  0  0
  192.5070  176.3540  144.4810 C   0  0  2  0  0  3  0  0  0  0  0  0
  191.4550  171.2890  139.5140 C   0  0  0  0  0  0  0  0  0  0  0  0
  190.5630  174.6490  142.1370 N   0  0  0  0  0  2  0  0  0  0  0  0
  191.4390  172.5770  140.0640 C   0  0  0  0  0  3  0  0  0  0  0  0
  190.0300  176.6790  143.4470 C   0  0  1  0  0  3  0  0  0  0  0  0
  195.1460  173.3600  139.2100 C   0  0  0  0  0  2  0  0  0  0  0  0
  190.0260  176.0530  144.7790 N   0  0  0  0  0  2  0  0  0  0  0  0
  194.2090  175.1830  140.6340 C   0  0  0  0  0  2  0  0  0  0  0  0
  194.4780  176.0820  141.8340 C   0  0  1  0  0  3  0  0  0  0  0  0
  189.0480  171.3890  139.2370 C   0  0  0  0  0  3  0  0  0  0  0  0
  194.6840  172.0270  139.7830 C   0  0  1  0  0  3  0  0  0  0  0  0
  190.2320  173.2760  140.1850 C   0  0  0  0  0  0  0  0  0  0  0  0
  192.4360  175.9530  143.0020 C   0  0  1  0  0  3  0  0  0  0  0  0
  191.0000  175.9970  142.4630 C   0  0  1  0  0  3  0  0  0  0  0  0
  193.8290  171.3310  138.7310 C   0  0  0  0  0  2  0  0  0  0  0  0
  192.7300  170.5150  139.3990 C   0  0  0  0  0  2  0  0  0  0  0  0
  190.2560  170.6940  139.1100 C   0  0  0  0  0  3  0  0  0  0  0  0
  188.3790  177.5700  141.6600 C   0  0  0  0  0  3  0  0  0  0  0  0
  185.9930  177.6940  142.3180 C   0  0  1  0  0  3  0  0  0  0  0  0
  187.6210  176.2590  143.5700 C   0  0  0  0  0  3  0  0  0  0  0  0
  186.2210  176.3410  143.0210 C   0  0  0  0  0  2  0  0  0  0  0  0
  187.1360  177.9580  141.3590 C   0  0  0  0  0  3  0  0  0  0  0  0
  188.6430  176.7940  142.8930 C   0  0  0  0  0  0  0  0  0  0  0  0
  184.6970  177.7250  141.6220 N   0  0  0  0  0  0  0  0  0  0  0  0
  183.7020  178.3000  142.5160 C   0  0  0  0  0  1  0  0  0  0  0  0
  184.7880  178.6610  140.5120 C   0  0  0  0  0  1  0  0  0  0  0  0
  196.7770  171.0690  139.0840 O   0  0  0  0  0  1  0  0  0  0  0  0
  195.8870  171.1460  140.1560 C   0  0  2  0  0  3  0  0  0  0  0  0
  195.4670  169.8510  140.4910 O   0  0  0  0  0  0  0  0  0  0  0  0
  196.4170  170.2440  142.8130 C   0  0  2  0  0  0  0  0  0  0  0  0
  196.9980  168.1660  141.7520 F   0  0  0  0  0  0  0  0  0  0  0  0
  196.0820  168.7630  142.6050 C   0  0  2  0  0  3  0  0  0  0  0  0
  195.2760  169.8400  141.8840 C   0  0  2  0  0  0  0  0  0  0  0  0
  193.9590  169.9090  142.3470 O   0  0  0  0  0  1  0  0  0  0  0  0
  197.5710  170.6800  142.1580 O   0  0  0  0  0  1  0  0  0  0  0  0
  196.0790  170.9400  144.1540 C   0  0  1  0  0  3  0  0  0  0  0  0
  197.2260  170.9410  145.1750 C   0  0  2  0  0  3  0  0  0  0  0  0
  197.7080  169.5280  145.4540 C   0  0  0  0  0  1  0  0  0  0  0  0
  196.8120  171.5110  146.3660 F   0  0  0  0  0  0  0  0  0  0  0  0
  196.0970  173.3290  144.5330 O   0  0  0  0  0  1  0  0  0  0  0  0
  195.3070  172.2690  144.0830 C   0  0  2  0  0  3  0  0  0  0  0  0
  192.7660  172.3560  144.0010 N   0  0  0  0  0  2  0  0  0  0  0  0
  191.4590  172.4230  144.6310 C   0  0  0  0  0  1  0  0  0  0  0  0
  193.9690  172.2510  144.7650 C   0  0  0  0  0  0  0  0  0  0  0  0
  193.9170  172.1480  146.0210 O   0  0  0  0  0  0  0  0  0  0  0  0
  1 13  1  0  0  0  0
  2 18  1  0  0  0  0
  4  5  2  0  0  0  0
  5  9  1  0  0  0  0
  6  7  1  1  0  0  0
  7  9  1  0  0  0  0
 10 22  1  0  0  0  0
 11  4  1  1  0  0  0
 11  6  1  0  0  0  0
 12 14  1  0  0  0  0
 14 22  2  0  0  0  0
 15 33  1  6  0  0  0
 15 17  1  0  0  0  0
 16 21  1  0  0  0  0
 16  2  1  0  0  0  0
 17  6  1  0  0  0  0
 18 19  1  0  0  0  0
 19  3  1  6  0  0  0
 19  8  1  0  0  0  0
 20 10  2  0  0  0  0
 21 38  1  6  0  0  0
 22  1  1  0  0  0  0
 23  8  1  6  0  0  0
 23 11  1  0  0  0  0
 24 13  1  1  0  0  0
 24 23  1  0  0  0  0
 24 15  1  0  0  0  0
 25 26  1  0  0  0  0
 25 21  1  0  0  0  0
 26 12  1  0  0  0  0
 27 20  1  0  0  0  0
 27 12  2  0  0  0  0
 28 33  1  0  0  0  0
 29 34  1  6  0  0  0
 29 31  1  0  0  0  0
 31 30  1  0  0  0  0
 32 28  2  0  0  0  0
 32 29  1  0  0  0  0
 33 30  2  0  0  0  0
 34 35  1  0  0  0  0
 36 34  1  0  0  0  0
 38 37  1  6  0  0  0
 38 39  1  0  0  0  0
 39 43  1  0  0  0  0
 40 45  1  6  0  0  0
 40 46  1  0  0  0  0
 42 41  1  6  0  0  0
 42 40  1  0  0  0  0
 43 44  1  1  0  0  0
 43 42  1  0  0  0  0
 43 40  1  0  0  0  0
 46 51  1  6  0  0  0
 46 47  1  0  0  0  0
 47 48  1  1  0  0  0
 47 49  1  0  0  0  0
 51 50  1  1  0  0  0
 51 54  1  0  0  0  0
 52 53  1  0  0  0  0
 52 54  1  0  0  0  0
 54 55  2  0  0  0  0
M  END
>  <MODEL>
4

>  <REMARK>
 VINA RESULT:      -6.6      4.266      9.251
  Name = 
  9 active torsions:
  status: ('A' for Active; 'I' for Inactive)
    1  A    between atoms: C_1  and  C_53
    2  A    between atoms: C_6  and  C_53
    3  A    between atoms: C_8  and  O_22
    4  A    between atoms: C_8  and  C_43
    5  A    between atoms: N_10  and  C_32
    6  A    between atoms: C_20  and  O_22
    7  A    between atoms: C_29  and  C_38
    8  A    between atoms: C_33  and  C_52
    9  A    between atoms: C_38  and  C_53
                            x       y       z     vdW  Elec       q    Type
                         _______ _______ _______ _____ _____    ______ ____

>  <TORSDO>
F 9

$$$$
=
 OpenBabel11052419403D

 55 60  0  0  1  0  0  0  0  0999 V2000
  193.8230  171.3450  139.2550 C   0  0  0  0  0  2  0  0  0  0  0  0
  190.7340  171.4940  143.4860 C   0  0  0  0  0  2  0  0  0  0  0  0
  192.9290  170.2380  144.8860 F   0  0  0  0  0  0  0  0  0  0  0  0
  195.6610  173.1600  144.4920 C   0  0  0  0  0  3  0  0  0  0  0  0
  196.2460  174.2780  144.9540 C   0  0  0  0  0  3  0  0  0  0  0  0
  196.8440  173.4770  142.2870 C   0  0  2  0  0  3  0  0  0  0  0  0
  197.9410  174.1760  143.0770 C   0  0  0  0  0  2  0  0  0  0  0  0
  194.4160  170.7060  143.1760 N   0  0  0  0  0  2  0  0  0  0  0  0
  197.3060  175.0260  144.1810 C   0  0  0  0  0  2  0  0  0  0  0  0
  192.7260  172.2280  137.1910 C   0  0  0  0  0  3  0  0  0  0  0  0
  196.1030  172.4970  143.2120 C   0  0  2  0  0  3  0  0  0  0  0  0
  190.5790  173.2180  138.6960 C   0  0  0  0  0  0  0  0  0  0  0  0
  194.5990  172.2620  140.0710 N   0  0  0  0  0  2  0  0  0  0  0  0
  191.6470  172.5730  139.3320 C   0  0  0  0  0  3  0  0  0  0  0  0
  196.8390  171.5090  140.8040 C   0  0  1  0  0  3  0  0  0  0  0  0
  189.6030  171.5470  142.4720 C   0  0  0  0  0  2  0  0  0  0  0  0
  197.4060  172.8380  141.0860 N   0  0  0  0  0  2  0  0  0  0  0  0
  192.0140  171.0140  142.8280 C   0  0  0  0  0  2  0  0  0  0  0  0
  193.1680  171.0900  143.8200 C   0  0  1  0  0  3  0  0  0  0  0  0
  191.6700  172.8870  136.5550 C   0  0  0  0  0  3  0  0  0  0  0  0
  189.5130  172.9250  141.8290 C   0  0  1  0  0  3  0  0  0  0  0  0
  192.7150  172.0710  138.5810 C   0  0  0  0  0  0  0  0  0  0  0  0
  194.9270  171.8650  142.4570 C   0  0  1  0  0  3  0  0  0  0  0  0
  195.3160  171.4430  141.0350 C   0  0  1  0  0  3  0  0  0  0  0  0
  188.8640  172.7660  140.4590 C   0  0  0  0  0  2  0  0  0  0  0  0
  189.4400  173.7840  139.4830 C   0  0  0  0  0  2  0  0  0  0  0  0
  190.5990  173.3820  137.3070 C   0  0  0  0  0  3  0  0  0  0  0  0
  197.7440  171.9640  138.4200 C   0  0  0  0  0  3  0  0  0  0  0  0
  197.1860  170.2850  136.6830 C   0  0  1  0  0  3  0  0  0  0  0  0
  197.0370  169.7400  139.1240 C   0  0  0  0  0  3  0  0  0  0  0  0
  197.4460  169.2230  137.7700 C   0  0  0  0  0  2  0  0  0  0  0  0
  197.7680  171.6110  137.1310 C   0  0  0  0  0  3  0  0  0  0  0  0
  197.2320  171.0240  139.4430 C   0  0  0  0  0  0  0  0  0  0  0  0
  197.7420  169.8720  135.3860 N   0  0  0  0  0  0  0  0  0  0  0  0
  196.7380  169.0910  134.6770 C   0  0  0  0  0  1  0  0  0  0  0  0
  197.9410  171.0590  134.5660 C   0  0  0  0  0  1  0  0  0  0  0  0
  187.4860  174.2030  142.0570 O   0  0  0  0  0  1  0  0  0  0  0  0
  188.6820  173.8800  142.7000 C   0  0  2  0  0  3  0  0  0  0  0  0
  189.3930  175.0620  142.9550 O   0  0  0  0  0  0  0  0  0  0  0  0
  190.7130  176.0910  144.8650 C   0  0  2  0  0  0  0  0  0  0  0  0
  191.9860  174.9670  143.1620 F   0  0  0  0  0  0  0  0  0  0  0  0
  191.3670  174.7880  144.3910 C   0  0  2  0  0  3  0  0  0  0  0  0
  189.8560  174.9730  144.2800 C   0  0  2  0  0  0  0  0  0  0  0  0
  189.1580  174.1230  145.1420 O   0  0  0  0  0  1  0  0  0  0  0  0
  190.9010  177.1830  144.0140 O   0  0  0  0  0  1  0  0  0  0  0  0
  190.6040  176.4040  146.3770 C   0  0  1  0  0  3  0  0  0  0  0  0
  191.9150  176.2270  147.1580 C   0  0  2  0  0  3  0  0  0  0  0  0
  193.1160  176.5510  146.2860 C   0  0  0  0  0  1  0  0  0  0  0  0
  192.0350  174.9250  147.6120 F   0  0  0  0  0  0  0  0  0  0  0  0
  190.1180  178.0490  148.0840 O   0  0  0  0  0  1  0  0  0  0  0  0
  189.8020  177.6530  146.7820 C   0  0  2  0  0  3  0  0  0  0  0  0
  187.7660  177.4130  145.2760 N   0  0  0  0  0  2  0  0  0  0  0  0
  186.3330  177.3730  145.0450 C   0  0  0  0  0  1  0  0  0  0  0  0
  188.3180  177.5300  146.5890 C   0  0  0  0  0  0  0  0  0  0  0  0
  187.5600  177.5380  147.5970 O   0  0  0  0  0  0  0  0  0  0  0  0
  1 13  1  0  0  0  0
  4  5  2  0  0  0  0
  6  7  1  1  0  0  0
  6 11  1  0  0  0  0
  7  9  1  0  0  0  0
  8 19  1  0  0  0  0
  9  5  1  0  0  0  0
 10 22  1  0  0  0  0
 11  4  1  1  0  0  0
 12 14  1  0  0  0  0
 12 26  1  0  0  0  0
 15 33  1  6  0  0  0
 15 24  1  0  0  0  0
 15 17  1  0  0  0  0
 16  2  1  0  0  0  0
 17  6  1  0  0  0  0
 18  2  1  0  0  0  0
 18 19  1  0  0  0  0
 19  3  1  1  0  0  0
 20 10  2  0  0  0  0
 20 27  1  0  0  0  0
 21 16  1  0  0  0  0
 21 38  1  1  0  0  0
 22  1  1  0  0  0  0
 22 14  2  0  0  0  0
 23  8  1  1  0  0  0
 23 11  1  0  0  0  0
 24 13  1  6  0  0  0
 24 23  1  0  0  0  0
 25 21  1  0  0  0  0
 26 25  1  0  0  0  0
 27 12  2  0  0  0  0
 28 33  1  0  0  0  0
 29 34  1  6  0  0  0
 29 32  1  0  0  0  0
 29 31  1  0  0  0  0
 30 33  2  0  0  0  0
 31 30  1  0  0  0  0
 32 28  2  0  0  0  0
 35 34  1  0  0  0  0
 36 34  1  0  0  0  0
 38 37  1  6  0  0  0
 38 39  1  0  0  0  0
 39 43  1  0  0  0  0
 40 45  1  6  0  0  0
 40 46  1  0  0  0  0
 42 41  1  6  0  0  0
 42 40  1  0  0  0  0
 43 42  1  0  0  0  0
 43 40  1  0  0  0  0
 43 44  1  1  0  0  0
 46 51  1  6  0  0  0
 46 47  1  0  0  0  0
 47 48  1  6  0  0  0
 47 49  1  0  0  0  0
 51 50  1  1  0  0  0
 52 54  1  0  0  0  0
 53 52  1  0  0  0  0
 54 51  1  0  0  0  0
 54 55  2  0  0  0  0
M  END
>  <MODEL>
5

>  <REMARK>
 VINA RESULT:      -6.6      1.905      2.798
  Name = 
  9 active torsions:
  status: ('A' for Active; 'I' for Inactive)
    1  A    between atoms: C_1  and  C_53
    2  A    between atoms: C_6  and  C_53
    3  A    between atoms: C_8  and  O_22
    4  A    between atoms: C_8  and  C_43
    5  A    between atoms: N_10  and  C_32
    6  A    between atoms: C_20  and  O_22
    7  A    between atoms: C_29  and  C_38
    8  A    between atoms: C_33  and  C_52
    9  A    between atoms: C_38  and  C_53
                            x       y       z     vdW  Elec       q    Type
                         _______ _______ _______ _____ _____    ______ ____

>  <TORSDO>
F 9

$$$$
=
 OpenBabel11052419403D

 55 60  0  0  1  0  0  0  0  0999 V2000
  190.6060  174.4370  143.7300 C   0  0  0  0  0  2  0  0  0  0  0  0
  193.1850  169.8750  143.7610 C   0  0  0  0  0  2  0  0  0  0  0  0
  190.8830  168.7930  142.3890 F   0  0  0  0  0  0  0  0  0  0  0  0
  191.0750  170.9970  139.0340 C   0  0  0  0  0  3  0  0  0  0  0  0
  191.5150  171.1690  137.7760 C   0  0  0  0  0  3  0  0  0  0  0  0
  190.3090  173.4000  139.0710 C   0  0  2  0  0  3  0  0  0  0  0  0
  190.1210  173.2710  137.5670 C   0  0  0  0  0  2  0  0  0  0  0  0
  190.0570  170.8990  141.9080 N   0  0  0  0  0  2  0  0  0  0  0  0
  191.2610  172.4300  136.9850 C   0  0  0  0  0  2  0  0  0  0  0  0
  191.8290  176.2800  144.8920 C   0  0  0  0  0  3  0  0  0  0  0  0
  190.1880  172.0100  139.7150 C   0  0  2  0  0  3  0  0  0  0  0  0
  194.1440  174.7080  145.0540 C   0  0  0  0  0  0  0  0  0  0  0  0
  190.7990  174.2740  142.3000 N   0  0  0  0  0  2  0  0  0  0  0  0
  192.9950  174.2080  144.4270 C   0  0  0  0  0  3  0  0  0  0  0  0
  188.7740  173.9810  140.9090 C   0  0  1  0  0  3  0  0  0  0  0  0
  193.9200  170.4720  144.9510 C   0  0  0  0  0  2  0  0  0  0  0  0
  189.3630  174.3850  139.6220 N   0  0  0  0  0  2  0  0  0  0  0  0
  191.9040  170.6410  143.4910 C   0  0  0  0  0  2  0  0  0  0  0  0
  191.2460  170.1190  142.2200 C   0  0  1  0  0  3  0  0  0  0  0  0
  192.9800  176.7880  145.5030 C   0  0  0  0  0  3  0  0  0  0  0  0
  194.9230  171.5260  144.4990 C   0  0  1  0  0  3  0  0  0  0  0  0
  191.8370  174.9890  144.3530 C   0  0  0  0  0  0  0  0  0  0  0  0
  190.4820  172.1100  141.2170 C   0  0  1  0  0  3  0  0  0  0  0  0
  189.7930  173.3210  141.8580 C   0  0  1  0  0  3  0  0  0  0  0  0
  195.1430  172.4960  145.6540 C   0  0  0  0  0  2  0  0  0  0  0  0
  195.4010  173.8990  145.1220 C   0  0  0  0  0  2  0  0  0  0  0  0
  194.1350  176.0030  145.5820 C   0  0  0  0  0  3  0  0  0  0  0  0
  187.2660  174.9090  142.8000 C   0  0  0  0  0  3  0  0  0  0  0  0
  186.0300  177.0000  142.3070 C   0  0  1  0  0  3  0  0  0  0  0  0
  188.0230  176.3110  140.9550 C   0  0  0  0  0  3  0  0  0  0  0  0
  187.3150  177.4730  141.5980 C   0  0  0  0  0  2  0  0  0  0  0  0
  186.3540  175.8070  143.1830 C   0  0  0  0  0  3  0  0  0  0  0  0
  188.0420  175.1160  141.5560 C   0  0  0  0  0  0  0  0  0  0  0  0
  185.4200  178.0860  143.0900 N   0  0  0  0  0  0  0  0  0  0  0  0
  184.0640  178.3030  142.6060 C   0  0  0  0  0  1  0  0  0  0  0  0
  185.2590  177.6330  144.4640 C   0  0  0  0  0  1  0  0  0  0  0  0
  197.2900  171.8060  144.1720 O   0  0  0  0  0  1  0  0  0  0  0  0
  196.2540  170.8740  144.0940 C   0  0  2  0  0  3  0  0  0  0  0  0
  196.1850  170.3810  142.7830 O   0  0  0  0  0  0  0  0  0  0  0  0
  195.6340  171.9540  140.8670 C   0  0  2  0  0  0  0  0  0  0  0  0
  196.3070  169.7250  140.2670 F   0  0  0  0  0  0  0  0  0  0  0  0
  196.7800  171.0110  140.4840 C   0  0  2  0  0  3  0  0  0  0  0  0
  196.5860  171.4320  141.9380 C   0  0  2  0  0  0  0  0  0  0  0  0
  197.6230  172.2520  142.3910 O   0  0  0  0  0  1  0  0  0  0  0  0
  194.3680  171.3630  140.8770 O   0  0  0  0  0  1  0  0  0  0  0  0
  195.6940  173.4520  140.4780 C   0  0  1  0  0  3  0  0  0  0  0  0
  195.7450  173.7140  138.9660 C   0  0  2  0  0  3  0  0  0  0  0  0
  194.8960  172.7060  138.2100 C   0  0  0  0  0  1  0  0  0  0  0  0
  197.0470  173.6300  138.5040 F   0  0  0  0  0  0  0  0  0  0  0  0
  193.6180  174.6940  140.5120 O   0  0  0  0  0  1  0  0  0  0  0  0
  194.7720  174.4160  141.2470 C   0  0  2  0  0  3  0  0  0  0  0  0
  196.5680  175.6100  142.5960 N   0  0  0  0  0  2  0  0  0  0  0  0
  197.1910  176.8050  143.1370 C   0  0  0  0  0  1  0  0  0  0  0  0
  195.4420  175.6740  141.7190 C   0  0  0  0  0  0  0  0  0  0  0  0
  194.9970  176.7920  141.3380 O   0  0  0  0  0  0  0  0  0  0  0  0
  1 22  1  0  0  0  0
  2 16  1  0  0  0  0
  5  4  2  0  0  0  0
  6  7  1  6  0  0  0
  6 17  1  0  0  0  0
  6 11  1  0  0  0  0
  8 19  1  0  0  0  0
  9  7  1  0  0  0  0
  9  5  1  0  0  0  0
 10 20  1  0  0  0  0
 11  4  1  6  0  0  0
 11 23  1  0  0  0  0
 12 26  1  0  0  0  0
 12 27  1  0  0  0  0
 13  1  1  0  0  0  0
 14 12  2  0  0  0  0
 15 33  1  1  0  0  0
 15 24  1  0  0  0  0
 17 15  1  0  0  0  0
 18  2  1  0  0  0  0
 19  3  1  1  0  0  0
 19 18  1  0  0  0  0
 20 27  2  0  0  0  0
 21 38  1  1  0  0  0
 21 16  1  0  0  0  0
 21 25  1  0  0  0  0
 22 14  1  0  0  0  0
 22 10  2  0  0  0  0
 23 24  1  0  0  0  0
 23  8  1  1  0  0  0
 24 13  1  6  0  0  0
 26 25  1  0  0  0  0
 28 32  2  0  0  0  0
 29 34  1  1  0  0  0
 29 32  1  0  0  0  0
 30 33  2  0  0  0  0
 30 31  1  0  0  0  0
 31 29  1  0  0  0  0
 33 28  1  0  0  0  0
 34 36  1  0  0  0  0
 35 34  1  0  0  0  0
 38 37  1  6  0  0  0
 39 38  1  0  0  0  0
 40 45  1  6  0  0  0
 40 43  1  0  0  0  0
 42 41  1  1  0  0  0
 42 40  1  0  0  0  0
 42 43  1  0  0  0  0
 43 44  1  1  0  0  0
 43 39  1  0  0  0  0
 46 47  1  6  0  0  0
 46 40  1  0  0  0  0
 46 51  1  0  0  0  0
 47 48  1  6  0  0  0
 49 47  1  0  0  0  0
 51 50  1  6  0  0  0
 51 54  1  0  0  0  0
 52 53  1  0  0  0  0
 54 52  1  0  0  0  0
 55 54  2  0  0  0  0
M  END
>  <MODEL>
6

>  <REMARK>
 VINA RESULT:      -6.3      4.124      9.718
  Name = 
  9 active torsions:
  status: ('A' for Active; 'I' for Inactive)
    1  A    between atoms: C_1  and  C_53
    2  A    between atoms: C_6  and  C_53
    3  A    between atoms: C_8  and  O_22
    4  A    between atoms: C_8  and  C_43
    5  A    between atoms: N_10  and  C_32
    6  A    between atoms: C_20  and  O_22
    7  A    between atoms: C_29  and  C_38
    8  A    between atoms: C_33  and  C_52
    9  A    between atoms: C_38  and  C_53
                            x       y       z     vdW  Elec       q    Type
                         _______ _______ _______ _____ _____    ______ ____

>  <TORSDO>
F 9

$$$$
=
 OpenBabel11052419403D

 55 60  0  0  1  0  0  0  0  0999 V2000
  193.2190  171.8850  139.2440 C   0  0  0  0  0  2  0  0  0  0  0  0
  190.4800  173.2430  143.5010 C   0  0  0  0  0  2  0  0  0  0  0  0
  192.8010  172.4190  145.0120 F   0  0  0  0  0  0  0  0  0  0  0  0
  195.4430  175.0930  143.5880 C   0  0  0  0  0  3  0  0  0  0  0  0
  196.0440  176.2920  143.6660 C   0  0  0  0  0  3  0  0  0  0  0  0
  196.4380  174.7670  141.2930 C   0  0  2  0  0  3  0  0  0  0  0  0
  197.5830  175.6530  141.7610 C   0  0  0  0  0  2  0  0  0  0  0  0
  194.1370  172.3750  143.1240 N   0  0  0  0  0  2  0  0  0  0  0  0
  197.0250  176.7850  142.6290 C   0  0  0  0  0  2  0  0  0  0  0  0
  191.9450  172.1570  137.1130 C   0  0  0  0  0  3  0  0  0  0  0  0
  195.7910  174.0930  142.5140 C   0  0  2  0  0  3  0  0  0  0  0  0
  189.9090  173.5460  138.4480 C   0  0  0  0  0  0  0  0  0  0  0  0
  194.0420  172.9900  139.7020 N   0  0  0  0  0  2  0  0  0  0  0  0
  191.0360  173.0990  139.1510 C   0  0  0  0  0  3  0  0  0  0  0  0
  196.3470  172.4610  140.4310 C   0  0  1  0  0  3  0  0  0  0  0  0
  189.2690  173.0150  142.6090 C   0  0  0  0  0  2  0  0  0  0  0  0
  196.9120  173.8110  140.2790 N   0  0  0  0  0  2  0  0  0  0  0  0
  191.7100  172.5880  142.9020 C   0  0  0  0  0  2  0  0  0  0  0  0
  192.9390  172.9340  143.7340 C   0  0  1  0  0  3  0  0  0  0  0  0
  190.8290  172.6170  136.4050 C   0  0  0  0  0  3  0  0  0  0  0  0
  189.1040  174.1560  141.6140 C   0  0  1  0  0  3  0  0  0  0  0  0
  192.0480  172.3990  138.4860 C   0  0  0  0  0  0  0  0  0  0  0  0
  194.5690  173.2810  142.0680 C   0  0  1  0  0  3  0  0  0  0  0  0
  194.8490  172.4720  140.7950 C   0  0  1  0  0  3  0  0  0  0  0  0
  188.3500  173.6210  140.4020 C   0  0  0  0  0  2  0  0  0  0  0  0
  188.8280  174.3180  139.1340 C   0  0  0  0  0  2  0  0  0  0  0  0
  189.8140  173.3110  137.0730 C   0  0  0  0  0  3  0  0  0  0  0  0
  196.9010  172.2210  137.9120 C   0  0  0  0  0  3  0  0  0  0  0  0
  196.3640  170.0400  136.8620 C   0  0  1  0  0  3  0  0  0  0  0  0
  196.5730  170.2770  139.3470 C   0  0  0  0  0  3  0  0  0  0  0  0
  196.8830  169.3990  138.1640 C   0  0  0  0  0  2  0  0  0  0  0  0
  196.8200  171.4850  136.8000 C   0  0  0  0  0  3  0  0  0  0  0  0
  196.6370  171.6080  139.2340 C   0  0  0  0  0  0  0  0  0  0  0  0
  196.8130  169.2900  135.6780 N   0  0  0  0  0  0  0  0  0  0  0  0
  197.7220  170.1310  134.9120 C   0  0  0  0  0  1  0  0  0  0  0  0
  197.6260  168.1670  136.1220 C   0  0  0  0  0  1  0  0  0  0  0  0
  188.5620  176.4980  141.5290 O   0  0  0  0  0  1  0  0  0  0  0  0
  188.3300  175.3230  142.2450 C   0  0  2  0  0  3  0  0  0  0  0  0
  188.7270  175.5180  143.5760 O   0  0  0  0  0  0  0  0  0  0  0  0
  187.4390  177.2660  144.8920 C   0  0  2  0  0  0  0  0  0  0  0  0
  189.1650  176.0850  146.0790 F   0  0  0  0  0  0  0  0  0  0  0  0
  187.8080  176.0770  145.7850 C   0  0  2  0  0  3  0  0  0  0  0  0
  187.5680  175.8700  144.2920 C   0  0  2  0  0  0  0  0  0  0  0  0
  186.4150  175.1220  144.0440 O   0  0  0  0  0  1  0  0  0  0  0  0
  188.4990  178.1260  144.5950 O   0  0  0  0  0  1  0  0  0  0  0  0
  186.0350  177.9100  144.9930 C   0  0  1  0  0  3  0  0  0  0  0  0
  185.6240  178.3190  146.4150 C   0  0  2  0  0  3  0  0  0  0  0  0
  184.1140  178.3100  146.5700 C   0  0  0  0  0  1  0  0  0  0  0  0
  186.0910  179.5900  146.7060 F   0  0  0  0  0  0  0  0  0  0  0  0
  184.7290  179.8620  144.4100 O   0  0  0  0  0  1  0  0  0  0  0  0
  185.6530  178.9390  143.9140 C   0  0  2  0  0  3  0  0  0  0  0  0
  185.9690  178.4970  141.4290 N   0  0  0  0  0  2  0  0  0  0  0  0
  185.5170  178.0020  140.1410 C   0  0  0  0  0  1  0  0  0  0  0  0
  185.1910  178.3400  142.6170 C   0  0  0  0  0  0  0  0  0  0  0  0
  184.1040  177.7010  142.5830 O   0  0  0  0  0  0  0  0  0  0  0  0
  1 13  1  0  0  0  0
  4  5  2  0  0  0  0
  6  7  1  1  0  0  0
  6 11  1  0  0  0  0
  7  9  1  0  0  0  0
  8 19  1  0  0  0  0
  9  5  1  0  0  0  0
 10 22  1  0  0  0  0
 11  4  1  1  0  0  0
 12 26  1  0  0  0  0
 12 14  1  0  0  0  0
 15 33  1  6  0  0  0
 15 24  1  0  0  0  0
 16  2  1  0  0  0  0
 17 15  1  0  0  0  0
 17  6  1  0  0  0  0
 18  2  1  0  0  0  0
 18 19  1  0  0  0  0
 19  3  1  1  0  0  0
 20 27  1  0  0  0  0
 20 10  2  0  0  0  0
 21 38  1  1  0  0  0
 21 16  1  0  0  0  0
 22 14  2  0  0  0  0
 22  1  1  0  0  0  0
 23 11  1  0  0  0  0
 23  8  1  1  0  0  0
 24 13  1  6  0  0  0
 24 23  1  0  0  0  0
 25 21  1  0  0  0  0
 26 25  1  0  0  0  0
 27 12  2  0  0  0  0
 28 33  1  0  0  0  0
 29 34  1  6  0  0  0
 29 31  1  0  0  0  0
 31 30  1  0  0  0  0
 32 29  1  0  0  0  0
 32 28  2  0  0  0  0
 33 30  2  0  0  0  0
 34 36  1  0  0  0  0
 35 34  1  0  0  0  0
 38 37  1  6  0  0  0
 38 39  1  0  0  0  0
 39 43  1  0  0  0  0
 40 45  1  6  0  0  0
 40 46  1  0  0  0  0
 40 42  1  0  0  0  0
 42 41  1  6  0  0  0
 43 44  1  6  0  0  0
 43 40  1  0  0  0  0
 43 42  1  0  0  0  0
 46 51  1  6  0  0  0
 46 47  1  0  0  0  0
 47 48  1  6  0  0  0
 47 49  1  0  0  0  0
 51 50  1  1  0  0  0
 52 54  1  0  0  0  0
 53 52  1  0  0  0  0
 54 51  1  0  0  0  0
 55 54  2  0  0  0  0
M  END
>  <MODEL>
7

>  <REMARK>
 VINA RESULT:      -6.2      1.661      2.585
  Name = 
  9 active torsions:
  status: ('A' for Active; 'I' for Inactive)
    1  A    between atoms: C_1  and  C_53
    2  A    between atoms: C_6  and  C_53
    3  A    between atoms: C_8  and  O_22
    4  A    between atoms: C_8  and  C_43
    5  A    between atoms: N_10  and  C_32
    6  A    between atoms: C_20  and  O_22
    7  A    between atoms: C_29  and  C_38
    8  A    between atoms: C_33  and  C_52
    9  A    between atoms: C_38  and  C_53
                            x       y       z     vdW  Elec       q    Type
                         _______ _______ _______ _____ _____    ______ ____

>  <TORSDO>
F 9

$$$$
=
 OpenBabel11052419403D

 55 60  0  0  1  0  0  0  0  0999 V2000
  190.7240  175.0950  144.2740 C   0  0  0  0  0  2  0  0  0  0  0  0
  192.8860  170.6260  142.5960 C   0  0  0  0  0  2  0  0  0  0  0  0
  190.1810  169.7330  142.1100 F   0  0  0  0  0  0  0  0  0  0  0  0
  189.1320  172.4350  139.3250 C   0  0  0  0  0  3  0  0  0  0  0  0
  189.0470  172.8070  138.0370 C   0  0  0  0  0  3  0  0  0  0  0  0
  188.5590  174.7910  140.0220 C   0  0  2  0  0  3  0  0  0  0  0  0
  187.7850  174.8940  138.7160 C   0  0  0  0  0  2  0  0  0  0  0  0
  189.3320  171.8750  142.3170 N   0  0  0  0  0  2  0  0  0  0  0  0
  188.5600  174.1720  137.6100 C   0  0  0  0  0  2  0  0  0  0  0  0
  192.3930  176.7540  145.1130 C   0  0  0  0  0  3  0  0  0  0  0  0
  188.6370  173.3150  140.4450 C   0  0  2  0  0  3  0  0  0  0  0  0
  194.5060  175.2140  144.1040 C   0  0  0  0  0  0  0  0  0  0  0  0
  190.3270  175.1600  142.8790 N   0  0  0  0  0  2  0  0  0  0  0  0
  193.1810  174.7990  143.9200 C   0  0  0  0  0  3  0  0  0  0  0  0
  187.9050  175.0540  142.3830 C   0  0  1  0  0  3  0  0  0  0  0  0
  194.0600  171.0420  143.4690 C   0  0  0  0  0  2  0  0  0  0  0  0
  187.9560  175.6630  141.0440 N   0  0  0  0  0  2  0  0  0  0  0  0
  191.6410  171.4040  142.9750 C   0  0  0  0  0  2  0  0  0  0  0  0
  190.5090  171.0750  142.0100 C   0  0  1  0  0  3  0  0  0  0  0  0
  193.7140  177.1800  145.2840 C   0  0  0  0  0  3  0  0  0  0  0  0
  194.8500  172.1700  142.8180 C   0  0  1  0  0  3  0  0  0  0  0  0
  192.1260  175.5630  144.4300 C   0  0  0  0  0  0  0  0  0  0  0  0
  189.5050  173.1850  141.7030 C   0  0  1  0  0  3  0  0  0  0  0  0
  189.1850  174.2710  142.7380 C   0  0  1  0  0  3  0  0  0  0  0  0
  195.5540  172.9520  143.9200 C   0  0  0  0  0  2  0  0  0  0  0  0
  195.6460  174.4250  143.5440 C   0  0  0  0  0  2  0  0  0  0  0  0
  194.7680  176.4110  144.7790 C   0  0  0  0  0  3  0  0  0  0  0  0
  187.6240  175.7250  144.8690 C   0  0  0  0  0  3  0  0  0  0  0  0
  186.1080  177.6300  145.3380 C   0  0  1  0  0  3  0  0  0  0  0  0
  187.0650  177.2530  143.0530 C   0  0  0  0  0  3  0  0  0  0  0  0
  186.7170  178.2920  144.0860 C   0  0  0  0  0  2  0  0  0  0  0  0
  186.9930  176.4790  145.7740 C   0  0  0  0  0  3  0  0  0  0  0  0
  187.5450  176.0630  143.4290 C   0  0  0  0  0  0  0  0  0  0  0  0
  185.9290  178.6040  146.4260 N   0  0  0  0  0  0  0  0  0  0  0  0
  184.5390  178.5660  146.8600 C   0  0  0  0  0  1  0  0  0  0  0  0
  186.6940  178.1570  147.5810 C   0  0  0  0  0  1  0  0  0  0  0  0
  197.1600  171.6660  142.3740 O   0  0  0  0  0  1  0  0  0  0  0  0
  195.8790  171.6110  141.8230 C   0  0  2  0  0  3  0  0  0  0  0  0
  195.8660  172.3480  140.6300 O   0  0  0  0  0  0  0  0  0  0  0  0
  195.8610  171.2810  138.3260 C   0  0  2  0  0  0  0  0  0  0  0  0
  194.6320  170.1320  140.0440 F   0  0  0  0  0  0  0  0  0  0  0  0
  195.8700  170.2100  139.4210 C   0  0  2  0  0  3  0  0  0  0  0  0
  196.5280  171.5640  139.6680 C   0  0  2  0  0  0  0  0  0  0  0  0
  197.9170  171.4610  139.7780 O   0  0  0  0  0  1  0  0  0  0  0  0
  194.6320  171.9200  138.1420 O   0  0  0  0  0  1  0  0  0  0  0  0
  196.7500  171.1180  137.0690 C   0  0  1  0  0  3  0  0  0  0  0  0
  196.6040  169.7630  136.3600 C   0  0  2  0  0  3  0  0  0  0  0  0
  197.9410  169.0490  136.2700 C   0  0  0  0  0  1  0  0  0  0  0  0
  196.1090  169.9390  135.0790 F   0  0  0  0  0  0  0  0  0  0  0  0
  197.9410  172.1960  135.2600 O   0  0  0  0  0  1  0  0  0  0  0  0
  196.8380  172.3180  136.1080 C   0  0  2  0  0  3  0  0  0  0  0  0
  197.8690  174.0590  137.6500 N   0  0  0  0  0  2  0  0  0  0  0  0
  197.8340  175.3120  138.3810 C   0  0  0  0  0  1  0  0  0  0  0  0
  196.8060  173.6590  136.7820 C   0  0  0  0  0  0  0  0  0  0  0  0
  195.8270  174.4290  136.5820 O   0  0  0  0  0  0  0  0  0  0  0  0
  1 22  1  0  0  0  0
  2 18  1  0  0  0  0
  2 16  1  0  0  0  0
  5  4  2  0  0  0  0
  6  7  1  6  0  0  0
  6 11  1  0  0  0  0
  6 17  1  0  0  0  0
  9  5  1  0  0  0  0
  9  7  1  0  0  0  0
 10 20  1  0  0  0  0
 11  4  1  6  0  0  0
 11 23  1  0  0  0  0
 12 27  1  0  0  0  0
 13  1  1  0  0  0  0
 14 12  2  0  0  0  0
 14 22  1  0  0  0  0
 15 24  1  0  0  0  0
 15 33  1  1  0  0  0
 17 15  1  0  0  0  0
 19  3  1  1  0  0  0
 19  8  1  0  0  0  0
 19 18  1  0  0  0  0
 21 38  1  6  0  0  0
 21 16  1  0  0  0  0
 21 25  1  0  0  0  0
 22 10  2  0  0  0  0
 23  8  1  1  0  0  0
 23 24  1  0  0  0  0
 24 13  1  6  0  0  0
 26 25  1  0  0  0  0
 26 12  1  0  0  0  0
 27 20  2  0  0  0  0
 28 32  2  0  0  0  0
 29 32  1  0  0  0  0
 29 34  1  1  0  0  0
 30 33  2  0  0  0  0
 30 31  1  0  0  0  0
 31 29  1  0  0  0  0
 33 28  1  0  0  0  0
 34 35  1  0  0  0  0
 34 36  1  0  0  0  0
 38 37  1  1  0  0  0
 39 38  1  0  0  0  0
 40 45  1  6  0  0  0
 40 42  1  0  0  0  0
 40 43  1  0  0  0  0
 42 43  1  0  0  0  0
 42 41  1  1  0  0  0
 43 44  1  1  0  0  0
 43 39  1  0  0  0  0
 46 51  1  6  0  0  0
 46 40  1  0  0  0  0
 47 48  1  6  0  0  0
 47 46  1  0  0  0  0
 49 47  1  0  0  0  0
 51 50  1  1  0  0  0
 51 54  1  0  0  0  0
 52 53  1  0  0  0  0
 54 52  1  0  0  0  0
 55 54  2  0  0  0  0
M  END
>  <MODEL>
8

>  <REMARK>
 VINA RESULT:      -6.1      4.331     11.143
  Name = 
  9 active torsions:
  status: ('A' for Active; 'I' for Inactive)
    1  A    between atoms: C_1  and  C_53
    2  A    between atoms: C_6  and  C_53
    3  A    between atoms: C_8  and  O_22
    4  A    between atoms: C_8  and  C_43
    5  A    between atoms: N_10  and  C_32
    6  A    between atoms: C_20  and  O_22
    7  A    between atoms: C_29  and  C_38
    8  A    between atoms: C_33  and  C_52
    9  A    between atoms: C_38  and  C_53
                            x       y       z     vdW  Elec       q    Type
                         _______ _______ _______ _____ _____    ______ ____

>  <TORSDO>
F 9

$$$$
=
 OpenBabel11052419403D

 55 61  0  0  1  0  0  0  0  0999 V2000
  190.3380  175.1290  143.9250 C   0  0  0  0  0  2  0  0  0  0  0  0
  192.8880  170.5910  143.3140 C   0  0  0  0  0  2  0  0  0  0  0  0
  190.3440  169.5040  142.4800 F   0  0  0  0  0  0  0  0  0  0  0  0
  189.7620  171.7500  139.1980 C   0  0  0  0  0  3  0  0  0  0  0  0
  189.9080  171.9400  137.8760 C   0  0  0  0  0  3  0  0  0  0  0  0
  189.0090  174.1450  139.4390 C   0  0  2  0  0  3  0  0  0  0  0  0
  188.4890  174.0310  138.0130 C   0  0  0  0  0  2  0  0  0  0  0  0
  189.4170  171.6080  142.2250 N   0  0  0  0  0  2  0  0  0  0  0  0
  189.4740  173.2080  137.1790 C   0  0  0  0  0  2  0  0  0  0  0  0
  191.7790  176.9690  144.8080 C   0  0  0  0  0  3  0  0  0  0  0  0
  189.0450  172.7450  140.0740 C   0  0  2  0  0  3  0  0  0  0  0  0
  194.0810  175.4180  144.4250 C   0  0  0  0  0  0  0  0  0  0  0  0
  190.2060  174.9850  142.4860 N   0  0  0  0  0  2  0  0  0  0  0  0
  192.8240  174.9140  144.0650 C   0  0  0  0  0  3  0  0  0  0  0  0
  187.9220  174.6890  141.5820 C   0  0  1  0  0  3  0  0  0  0  0  0
  193.8680  171.1810  144.3170 C   0  0  0  0  0  2  0  0  0  0  0  0
  188.2050  175.1140  140.2010 N   0  0  0  0  0  2  0  0  0  0  0  0
  191.5740  171.3490  143.3490 C   0  0  0  0  0  2  0  0  0  0  0  0
  190.6510  170.8350  142.2520 C   0  0  1  0  0  3  0  0  0  0  0  0
  193.0340  177.4800  145.1520 C   0  0  0  0  0  3  0  0  0  0  0  0
  194.7360  172.2490  143.6660 C   0  0  1  0  0  3  0  0  0  0  0  0
  191.6740  175.6850  144.2640 C   0  0  0  0  0  0  0  0  0  0  0  0
  189.6680  172.8300  141.4730 C   0  0  1  0  0  3  0  0  0  0  0  0
  189.1330  174.0280  142.2690 C   0  0  1  0  0  3  0  0  0  0  0  0
  195.2040  173.2080  144.7550 C   0  0  0  0  0  2  0  0  0  0  0  0
  195.3260  174.6200  144.1980 C   0  0  0  0  0  2  0  0  0  0  0  0
  194.1830  176.7060  144.9600 C   0  0  0  0  0  3  0  0  0  0  0  0
  187.6370  177.2210  142.0490 C   0  0  0  0  0  3  0  0  0  0  0  0
  186.9690  177.8550  144.3500 C   0  0  1  0  0  3  0  0  0  0  0  0
  186.6340  175.5270  143.4880 C   0  0  0  0  0  3  0  0  0  0  0  0
  186.0260  176.6360  144.3050 C   0  0  0  0  0  2  0  0  0  0  0  0
  187.4210  178.1900  142.9430 C   0  0  0  0  0  3  0  0  0  0  0  0
  187.3470  175.8100  142.3920 C   0  0  0  0  0  0  0  0  0  0  0  0
  186.3210  179.0110  144.9900 N   0  0  0  0  0  0  0  0  0  0  0  0
  185.3840  179.6020  144.0440 C   0  0  0  0  0  1  0  0  0  0  0  0
  185.4920  178.5300  146.0860 C   0  0  0  0  0  1  0  0  0  0  0  0
  197.1030  172.3430  143.2460 O   0  0  0  0  0  0  0  0  0  0  0  0
  195.9470  171.6150  142.9630 C   0  0  2  0  0  3  0  0  0  0  0  0
  195.7550  171.5890  141.5740 O   0  0  0  0  0  0  0  0  0  0  0  0
  196.7740  172.6660  139.5130 C   0  0  2  0  0  0  0  0  0  0  0  0
  197.3530  170.3690  139.9210 F   0  0  0  0  0  0  0  0  0  0  0  0
  197.7550  171.6770  140.1510 C   0  0  2  0  0  3  0  0  0  0  0  0
  196.7430  172.4210  141.0180 C   0  0  2  0  0  0  0  0  0  0  0  0
  197.3590  173.3380  141.8740 O   0  0  0  0  0  0  0  0  0  0  0  0
  195.7230  172.0760  138.8070 O   0  0  0  0  0  1  0  0  0  0  0  0
  197.2760  174.0340  138.9880 C   0  0  1  0  0  3  0  0  0  0  0  0
  197.9280  173.9790  137.5980 C   0  0  2  0  0  3  0  0  0  0  0  0
  197.9410  175.3520  136.9480 C   0  0  0  0  0  1  0  0  0  0  0  0
  197.2370  173.1070  136.7750 F   0  0  0  0  0  0  0  0  0  0  0  0
  196.7050  175.9430  140.3600 O   0  0  0  0  0  1  0  0  0  0  0  0
  196.3570  175.2500  139.1980 C   0  0  2  0  0  3  0  0  0  0  0  0
  194.1650  174.7260  140.3780 N   0  0  0  0  0  2  0  0  0  0  0  0
  192.7650  174.3410  140.3820 C   0  0  0  0  0  1  0  0  0  0  0  0
  194.8890  174.9340  139.1630 C   0  0  0  0  0  0  0  0  0  0  0  0
  194.3010  174.8470  138.0510 O   0  0  0  0  0  0  0  0  0  0  0  0
  1 22  1  0  0  0  0
  2 18  1  0  0  0  0
  2 16  1  0  0  0  0
  5  4  2  0  0  0  0
  6  7  1  6  0  0  0
  6 11  1  0  0  0  0
  6 17  1  0  0  0  0
  8 19  1  0  0  0  0
  9  5  1  0  0  0  0
  9  7  1  0  0  0  0
 10 20  1  0  0  0  0
 11  4  1  6  0  0  0
 11 23  1  0  0  0  0
 12 27  1  0  0  0  0
 13  1  1  0  0  0  0
 14 22  1  0  0  0  0
 14 12  2  0  0  0  0
 15 24  1  0  0  0  0
 15 33  1  1  0  0  0
 17 15  1  0  0  0  0
 19  3  1  1  0  0  0
 19 18  1  0  0  0  0
 21 16  1  1  0  0  0
 21 25  1  0  0  0  0
 22 10  2  0  0  0  0
 23  8  1  1  0  0  0
 23 24  1  0  0  0  0
 24 13  1  6  0  0  0
 26 12  1  0  0  0  0
 26 25  1  0  0  0  0
 27 20  2  0  0  0  0
 28 33  1  0  0  0  0
 28 32  2  0  0  0  0
 29 34  1  6  0  0  0
 30 31  1  0  0  0  0
 31 29  1  0  0  0  0
 32 29  1  0  0  0  0
 33 30  2  0  0  0  0
 34 36  1  0  0  0  0
 35 34  1  0  0  0  0
 38 39  1  6  0  0  0
 38 37  1  0  0  0  0
 38 21  1  0  0  0  0
 40 45  1  6  0  0  0
 40 42  1  0  0  0  0
 40 43  1  0  0  0  0
 42 41  1  6  0  0  0
 42 43  1  0  0  0  0
 43 39  1  1  0  0  0
 43 44  1  0  0  0  0
 44 37  1  0  0  0  0
 46 47  1  6  0  0  0
 46 51  1  0  0  0  0
 46 40  1  0  0  0  0
 47 48  1  6  0  0  0
 49 47  1  0  0  0  0
 51 50  1  1  0  0  0
 52 53  1  0  0  0  0
 54 51  1  0  0  0  0
 54 52  1  0  0  0  0
 55 54  2  0  0  0  0
M  END
>  <MODEL>
9

>  <REMARK>
 VINA RESULT:      -5.9      4.344     10.315
  Name = 
  9 active torsions:
  status: ('A' for Active; 'I' for Inactive)
    1  A    between atoms: C_1  and  C_53
    2  A    between atoms: C_6  and  C_53
    3  A    between atoms: C_8  and  O_22
    4  A    between atoms: C_8  and  C_43
    5  A    between atoms: N_10  and  C_32
    6  A    between atoms: C_20  and  O_22
    7  A    between atoms: C_29  and  C_38
    8  A    between atoms: C_33  and  C_52
    9  A    between atoms: C_38  and  C_53
                            x       y       z     vdW  Elec       q    Type
                         _______ _______ _______ _____ _____    ______ ____

>  <TORSDO>
F 9

$$$$
