=
 OpenBabel11052420303D

 34 37  0  0  1  0  0  0  0  0999 V2000
  194.4120  174.1870  144.3780 C   0  0  1  0  0  3  0  0  0  0  0  0
  197.1270  172.9730  144.1000 C   0  0  0  0  0  2  0  0  0  0  0  0
  195.6020  176.2950  143.3990 C   0  0  0  0  0  2  0  0  0  0  0  0
  197.0790  176.6090  143.1630 C   0  0  0  0  0  2  0  0  0  0  0  0
  196.8880  174.4670  144.2290 C   0  0  2  0  0  3  0  0  0  0  0  0
  195.5720  174.7980  143.5890 C   0  0  1  0  0  3  0  0  0  0  0  0
  197.8670  175.3380  143.4850 C   0  0  0  0  0  2  0  0  0  0  0  0
  196.0130  172.2260  144.8540 C   0  0  1  0  0  3  0  0  0  0  0  0
  193.6120  172.0290  145.1160 O   0  0  0  0  0  1  0  0  0  0  0  0
  194.6100  172.6570  144.3660 C   0  0  1  0  0  3  0  0  0  0  0  0
  196.1890  170.7250  144.6790 C   0  0  0  0  0  2  0  0  0  0  0  0
  196.6830  170.0750  145.9680 C   0  0  2  0  0  3  0  0  0  0  0  0
  197.9410  169.5030  145.7550 O   0  0  0  0  0  1  0  0  0  0  0  0
  195.6970  169.0170  146.4640 C   0  0  2  0  0  0  0  0  0  0  0  0
  194.5710  169.6370  147.0120 O   0  0  0  0  0  1  0  0  0  0  0  0
  196.3490  168.1660  147.5390 C   0  0  0  0  0  1  0  0  0  0  0  0
  195.3040  168.1990  145.4190 F   0  0  0  0  0  0  0  0  0  0  0  0
  194.3200  174.7210  145.8140 C   0  0  0  0  0  2  0  0  0  0  0  0
  193.0290  175.4280  146.0510 C   0  0  0  0  0  0  0  0  0  0  0  0
  193.0450  176.6630  146.6890 O   0  0  0  0  0  1  0  0  0  0  0  0
  191.8880  174.8580  145.6470 C   0  0  0  0  0  3  0  0  0  0  0  0
  188.4730  175.4930  147.0910 C   0  0  0  0  0  3  0  0  0  0  0  0
  189.9740  176.3150  144.8730 C   0  0  0  0  0  3  0  0  0  0  0  0
  186.0760  177.7860  145.4390 C   0  0  0  0  0  0  0  0  0  0  0  0
  186.6280  176.8840  146.3590 C   0  0  0  0  0  3  0  0  0  0  0  0
  187.9230  176.3920  146.1750 C   0  0  0  0  0  0  0  0  0  0  0  0
  188.1300  177.7050  144.1400 C   0  0  0  0  0  3  0  0  0  0  0  0
  188.6800  176.8070  145.0570 C   0  0  0  0  0  0  0  0  0  0  0  0
  186.8350  178.1930  144.3310 C   0  0  0  0  0  3  0  0  0  0  0  0
  190.5280  175.4120  145.7940 C   0  0  0  0  0  0  0  0  0  0  0  0
  189.7690  175.0060  146.8990 C   0  0  0  0  0  3  0  0  0  0  0  0
  184.7130  178.3070  145.6290 C   0  0  0  0  0  0  0  0  0  0  0  0
  183.9810  178.7710  144.5430 O   0  0  0  0  0  0  0  0  0  0  0  0
  184.1950  178.3350  146.7780 O   0  0  0  0  0  1  0  0  0  0  0  0
  1 18  1  1  0  0  0
  2  5  1  0  0  0  0
  2  8  1  0  0  0  0
  4  3  1  0  0  0  0
  4  7  1  0  0  0  0
  5  7  1  6  0  0  0
  6  3  1  1  0  0  0
  6  5  1  0  0  0  0
  6  1  1  0  0  0  0
  8 11  1  6  0  0  0
 10  1  1  0  0  0  0
 10  8  1  0  0  0  0
 10  9  1  1  0  0  0
 11 12  1  0  0  0  0
 12 13  1  6  0  0  0
 12 14  1  0  0  0  0
 14 15  1  0  0  0  0
 14 16  1  1  0  0  0
 17 14  1  0  0  0  0
 18 19  1  0  0  0  0
 19 20  1  0  0  0  0
 21 30  1  0  0  0  0
 21 19  2  0  0  0  0
 23 28  2  0  0  0  0
 23 30  1  0  0  0  0
 24 32  1  0  0  0  0
 24 25  2  0  0  0  0
 26 25  1  0  0  0  0
 26 22  2  0  0  0  0
 27 29  2  0  0  0  0
 27 28  1  0  0  0  0
 28 26  1  0  0  0  0
 29 24  1  0  0  0  0
 30 31  2  0  0  0  0
 31 22  1  0  0  0  0
 32 34  1  0  0  0  0
 33 32  2  0  0  0  0
M  END
>  <MODEL>
1

>  <REMARK>
 VINA RESULT:      -7.9      0.000      0.000
  Name = 
  7 active torsions:
  status: ('A' for Active; 'I' for Inactive)
    1  A    between atoms: C_1  and  C_9
    2  A    between atoms: C_2  and  C_23
    3  A    between atoms: C_2  and  C_32
    4  A    between atoms: C_3  and  C_23
    5  A    between atoms: C_7  and  C_11
    6  A    between atoms: C_8  and  C_9
    7  A    between atoms: C_18  and  C_30
                            x       y       z     vdW  Elec       q    Type
                         _______ _______ _______ _____ _____    ______ ____

>  <TORSDO>
F 7

$$$$
=
 OpenBabel11052420303D

 34 37  0  0  1  0  0  0  0  0999 V2000
  190.4140  176.8920  144.2850 C   0  0  1  0  0  3  0  0  0  0  0  0
  192.2730  175.6870  146.2890 C   0  0  0  0  0  2  0  0  0  0  0  0
  188.5940  176.1850  146.0190 C   0  0  0  0  0  2  0  0  0  0  0  0
  188.6680  175.3020  147.2640 C   0  0  0  0  0  2  0  0  0  0  0  0
  190.8060  175.3090  146.1750 C   0  0  2  0  0  3  0  0  0  0  0  0
  190.0360  176.5140  145.7190 C   0  0  1  0  0  3  0  0  0  0  0  0
  190.1390  174.9410  147.4750 C   0  0  0  0  0  2  0  0  0  0  0  0
  192.7870  176.0990  144.8980 C   0  0  1  0  0  3  0  0  0  0  0  0
  192.3530  177.5290  142.9900 O   0  0  0  0  0  1  0  0  0  0  0  0
  191.9210  177.2240  144.2830 C   0  0  1  0  0  3  0  0  0  0  0  0
  194.2360  176.5520  144.9970 C   0  0  0  0  0  2  0  0  0  0  0  0
  195.1630  175.5990  144.2480 C   0  0  2  0  0  3  0  0  0  0  0  0
  194.4400  174.9100  143.2710 O   0  0  0  0  0  1  0  0  0  0  0  0
  195.8320  174.6130  145.2080 C   0  0  2  0  0  0  0  0  0  0  0  0
  197.1930  174.5120  144.9110 O   0  0  0  0  0  1  0  0  0  0  0  0
  195.2020  173.2400  145.0590 C   0  0  0  0  0  1  0  0  0  0  0  0
  195.6810  175.0390  146.5160 F   0  0  0  0  0  0  0  0  0  0  0  0
  190.0920  175.7850  143.2700 C   0  0  0  0  0  2  0  0  0  0  0  0
  188.7040  175.9190  142.7400 C   0  0  0  0  0  0  0  0  0  0  0  0
  187.9480  174.7700  142.5360 O   0  0  0  0  0  1  0  0  0  0  0  0
  188.2210  177.1370  142.4730 C   0  0  0  0  0  3  0  0  0  0  0  0
  185.4370  177.7060  140.0090 C   0  0  0  0  0  3  0  0  0  0  0  0
  185.8050  177.8050  142.7840 C   0  0  0  0  0  3  0  0  0  0  0  0
  182.0450  178.6950  141.1260 C   0  0  0  0  0  0  0  0  0  0  0  0
  183.1170  178.3480  140.2920 C   0  0  0  0  0  3  0  0  0  0  0  0
  184.3690  178.0510  140.8390 C   0  0  0  0  0  0  0  0  0  0  0  0
  183.4860  178.4470  143.0690 C   0  0  0  0  0  3  0  0  0  0  0  0
  184.5540  178.1010  142.2380 C   0  0  0  0  0  0  0  0  0  0  0  0
  182.2380  178.7420  142.5150 C   0  0  0  0  0  3  0  0  0  0  0  0
  186.8790  177.4560  141.9510 C   0  0  0  0  0  0  0  0  0  0  0  0
  186.6860  177.4100  140.5630 C   0  0  0  0  0  3  0  0  0  0  0  0
  180.7260  179.0080  140.5540 C   0  0  0  0  0  0  0  0  0  0  0  0
  180.2730  180.3210  140.5120 O   0  0  0  0  0  1  0  0  0  0  0  0
  179.9950  178.0900  140.0950 O   0  0  0  0  0  0  0  0  0  0  0  0
  1 18  1  6  0  0  0
  1  6  1  0  0  0  0
  3  4  1  0  0  0  0
  4  7  1  0  0  0  0
  5  2  1  1  0  0  0
  5  7  1  0  0  0  0
  6  3  1  6  0  0  0
  6  5  1  0  0  0  0
  8 11  1  1  0  0  0
  8  2  1  0  0  0  0
 10  9  1  6  0  0  0
 10  1  1  0  0  0  0
 10  8  1  0  0  0  0
 12 13  1  6  0  0  0
 12 11  1  0  0  0  0
 12 14  1  0  0  0  0
 14 16  1  6  0  0  0
 14 17  1  0  0  0  0
 15 14  1  0  0  0  0
 19 18  1  0  0  0  0
 20 19  1  0  0  0  0
 21 19  2  0  0  0  0
 22 31  2  0  0  0  0
 22 26  1  0  0  0  0
 24 29  1  0  0  0  0
 25 26  1  0  0  0  0
 25 24  2  0  0  0  0
 26 28  2  0  0  0  0
 28 23  1  0  0  0  0
 28 27  1  0  0  0  0
 29 27  2  0  0  0  0
 30 21  1  0  0  0  0
 30 23  2  0  0  0  0
 31 30  1  0  0  0  0
 32 24  1  0  0  0  0
 33 32  1  0  0  0  0
 34 32  2  0  0  0  0
M  END
>  <MODEL>
2

>  <REMARK>
 VINA RESULT:      -7.8      3.541      6.346
  Name = 
  7 active torsions:
  status: ('A' for Active; 'I' for Inactive)
    1  A    between atoms: C_1  and  C_9
    2  A    between atoms: C_2  and  C_23
    3  A    between atoms: C_2  and  C_32
    4  A    between atoms: C_3  and  C_23
    5  A    between atoms: C_7  and  C_11
    6  A    between atoms: C_8  and  C_9
    7  A    between atoms: C_18  and  C_30
                            x       y       z     vdW  Elec       q    Type
                         _______ _______ _______ _____ _____    ______ ____

>  <TORSDO>
F 7

$$$$
=
 OpenBabel11052420303D

 34 37  0  0  1  0  0  0  0  0999 V2000
  189.7380  177.5300  144.4720 C   0  0  1  0  0  3  0  0  0  0  0  0
  191.6720  175.8770  146.0380 C   0  0  0  0  0  2  0  0  0  0  0  0
  188.0330  176.6310  146.2330 C   0  0  0  0  0  2  0  0  0  0  0  0
  188.1500  175.5350  147.2920 C   0  0  0  0  0  2  0  0  0  0  0  0
  190.1770  175.6120  146.0100 C   0  0  2  0  0  3  0  0  0  0  0  0
  189.4630  176.9220  145.8500 C   0  0  1  0  0  3  0  0  0  0  0  0
  189.6020  175.0560  147.2870 C   0  0  0  0  0  2  0  0  0  0  0  0
  192.0900  176.5020  144.6950 C   0  0  1  0  0  3  0  0  0  0  0  0
  191.5970  178.2750  143.1180 O   0  0  0  0  0  1  0  0  0  0  0  0
  191.2600  177.7670  144.3760 C   0  0  1  0  0  3  0  0  0  0  0  0
  193.5730  176.8430  144.7250 C   0  0  0  0  0  2  0  0  0  0  0  0
  194.4090  175.7150  144.1280 C   0  0  2  0  0  3  0  0  0  0  0  0
  193.5830  174.8450  143.4110 O   0  0  0  0  0  1  0  0  0  0  0  0
  195.1640  174.9540  145.2180 C   0  0  2  0  0  0  0  0  0  0  0  0
  196.5070  174.8170  144.8590 O   0  0  0  0  0  1  0  0  0  0  0  0
  194.5670  173.5690  145.3890 C   0  0  0  0  0  1  0  0  0  0  0  0
  195.0820  175.6320  146.4220 F   0  0  0  0  0  0  0  0  0  0  0  0
  189.2440  176.6440  143.3200 C   0  0  0  0  0  2  0  0  0  0  0  0
  187.7650  176.7390  143.1550 C   0  0  0  0  0  0  0  0  0  0  0  0
  187.0250  175.5690  143.0320 O   0  0  0  0  0  1  0  0  0  0  0  0
  187.1860  177.9450  143.1280 C   0  0  0  0  0  3  0  0  0  0  0  0
  183.7010  179.0660  143.9910 C   0  0  0  0  0  3  0  0  0  0  0  0
  185.0410  177.9570  141.7940 C   0  0  0  0  0  3  0  0  0  0  0  0
  180.9320  178.8110  141.5420 C   0  0  0  0  0  0  0  0  0  0  0  0
  181.6350  179.0810  142.7240 C   0  0  0  0  0  3  0  0  0  0  0  0
  183.0010  178.7980  142.8130 C   0  0  0  0  0  0  0  0  0  0  0  0
  182.9760  177.9710  140.5270 C   0  0  0  0  0  3  0  0  0  0  0  0
  183.6760  178.2390  141.7060 C   0  0  0  0  0  0  0  0  0  0  0  0
  181.6110  178.2560  140.4470 C   0  0  0  0  0  3  0  0  0  0  0  0
  185.7460  178.2260  142.9780 C   0  0  0  0  0  0  0  0  0  0  0  0
  185.0670  178.7800  144.0710 C   0  0  0  0  0  3  0  0  0  0  0  0
  179.4940  179.1080  141.4440 C   0  0  0  0  0  0  0  0  0  0  0  0
  178.5650  178.2950  142.0830 O   0  0  0  0  0  1  0  0  0  0  0  0
  179.0900  180.1020  140.7840 O   0  0  0  0  0  0  0  0  0  0  0  0
  1 18  1  6  0  0  0
  1  6  1  0  0  0  0
  3  4  1  0  0  0  0
  5  2  1  1  0  0  0
  5  7  1  0  0  0  0
  6  5  1  0  0  0  0
  6  3  1  6  0  0  0
  7  4  1  0  0  0  0
  8 11  1  1  0  0  0
  8  2  1  0  0  0  0
 10  9  1  6  0  0  0
 10  1  1  0  0  0  0
 10  8  1  0  0  0  0
 12 13  1  1  0  0  0
 12 11  1  0  0  0  0
 12 14  1  0  0  0  0
 14 16  1  1  0  0  0
 14 17  1  0  0  0  0
 15 14  1  0  0  0  0
 19 18  1  0  0  0  0
 20 19  1  0  0  0  0
 21 19  2  0  0  0  0
 22 31  1  0  0  0  0
 23 30  1  0  0  0  0
 24 25  2  0  0  0  0
 25 26  1  0  0  0  0
 26 22  2  0  0  0  0
 27 28  1  0  0  0  0
 28 23  2  0  0  0  0
 28 26  1  0  0  0  0
 29 27  2  0  0  0  0
 29 24  1  0  0  0  0
 30 21  1  0  0  0  0
 30 31  2  0  0  0  0
 32 24  1  0  0  0  0
 32 33  1  0  0  0  0
 34 32  2  0  0  0  0
M  END
>  <MODEL>
3

>  <REMARK>
 VINA RESULT:      -7.7      3.574      6.773
  Name = 
  7 active torsions:
  status: ('A' for Active; 'I' for Inactive)
    1  A    between atoms: C_1  and  C_9
    2  A    between atoms: C_2  and  C_23
    3  A    between atoms: C_2  and  C_32
    4  A    between atoms: C_3  and  C_23
    5  A    between atoms: C_7  and  C_11
    6  A    between atoms: C_8  and  C_9
    7  A    between atoms: C_18  and  C_30
                            x       y       z     vdW  Elec       q    Type
                         _______ _______ _______ _____ _____    ______ ____

>  <TORSDO>
F 7

$$$$
=
 OpenBabel11052420303D

 34 37  0  0  1  0  0  0  0  0999 V2000
  195.2990  175.6720  143.5920 C   0  0  1  0  0  3  0  0  0  0  0  0
  197.4910  173.9440  142.5280 C   0  0  0  0  0  2  0  0  0  0  0  0
  195.9460  174.5510  145.8590 C   0  0  0  0  0  2  0  0  0  0  0  0
  196.8530  173.3630  146.1820 C   0  0  0  0  0  2  0  0  0  0  0  0
  196.7230  173.6330  143.8010 C   0  0  2  0  0  3  0  0  0  0  0  0
  196.3250  174.9270  144.4480 C   0  0  1  0  0  3  0  0  0  0  0  0
  197.5200  172.9370  144.8740 C   0  0  0  0  0  2  0  0  0  0  0  0
  196.5640  174.7090  141.5660 C   0  0  1  0  0  3  0  0  0  0  0  0
  195.0690  176.6060  141.3740 O   0  0  0  0  0  1  0  0  0  0  0  0
  195.9680  175.9700  142.2340 C   0  0  1  0  0  3  0  0  0  0  0  0
  197.3320  175.0970  140.3100 C   0  0  0  0  0  2  0  0  0  0  0  0
  197.0330  174.1360  139.1640 C   0  0  2  0  0  3  0  0  0  0  0  0
  197.9390  173.0710  139.1930 O   0  0  0  0  0  1  0  0  0  0  0  0
  197.0990  174.8510  137.8130 C   0  0  2  0  0  0  0  0  0  0  0  0
  195.8230  175.2780  137.4400 O   0  0  0  0  0  1  0  0  0  0  0  0
  197.6200  173.9010  136.7500 C   0  0  0  0  0  1  0  0  0  0  0  0
  197.9410  175.9460  137.8920 F   0  0  0  0  0  0  0  0  0  0  0  0
  193.9940  174.8850  143.4030 C   0  0  0  0  0  2  0  0  0  0  0  0
  192.8450  175.5660  144.0660 C   0  0  0  0  0  0  0  0  0  0  0  0
  193.0500  176.8030  144.6650 O   0  0  0  0  0  1  0  0  0  0  0  0
  191.6470  174.9710  144.0690 C   0  0  0  0  0  3  0  0  0  0  0  0
  188.8320  175.4280  146.5210 C   0  0  0  0  0  3  0  0  0  0  0  0
  189.6250  176.4850  144.0510 C   0  0  0  0  0  3  0  0  0  0  0  0
  186.1070  177.8610  145.8980 C   0  0  0  0  0  0  0  0  0  0  0  0
  186.8860  176.8730  146.5170 C   0  0  0  0  0  3  0  0  0  0  0  0
  188.0560  176.4120  145.9060 C   0  0  0  0  0  0  0  0  0  0  0  0
  187.6790  177.9300  144.0450 C   0  0  0  0  0  3  0  0  0  0  0  0
  188.4550  176.9460  144.6610 C   0  0  0  0  0  0  0  0  0  0  0  0
  186.5110  178.3850  144.6610 C   0  0  0  0  0  3  0  0  0  0  0  0
  190.4060  175.4960  144.6690 C   0  0  0  0  0  0  0  0  0  0  0  0
  190.0010  174.9730  145.9040 C   0  0  0  0  0  3  0  0  0  0  0  0
  184.8750  178.3490  146.5380 C   0  0  0  0  0  0  0  0  0  0  0  0
  183.7770  178.7060  145.7640 O   0  0  0  0  0  0  0  0  0  0  0  0
  184.8010  178.4450  147.7920 O   0  0  0  0  0  1  0  0  0  0  0  0
  1 18  1  6  0  0  0
  1  6  1  0  0  0  0
  3  4  1  0  0  0  0
  5  2  1  6  0  0  0
  5  6  1  0  0  0  0
  5  7  1  0  0  0  0
  6  3  1  1  0  0  0
  7  4  1  0  0  0  0
  8 11  1  6  0  0  0
  8 10  1  0  0  0  0
  8  2  1  0  0  0  0
 10  9  1  6  0  0  0
 10  1  1  0  0  0  0
 12 13  1  6  0  0  0
 12 11  1  0  0  0  0
 14 16  1  6  0  0  0
 14 17  1  0  0  0  0
 14 12  1  0  0  0  0
 15 14  1  0  0  0  0
 18 19  1  0  0  0  0
 19 21  2  0  0  0  0
 19 20  1  0  0  0  0
 21 30  1  0  0  0  0
 23 28  1  0  0  0  0
 23 30  2  0  0  0  0
 24 25  1  0  0  0  0
 24 32  1  0  0  0  0
 26 25  2  0  0  0  0
 26 22  1  0  0  0  0
 27 29  1  0  0  0  0
 27 28  2  0  0  0  0
 28 26  1  0  0  0  0
 29 24  2  0  0  0  0
 30 31  1  0  0  0  0
 31 22  2  0  0  0  0
 32 34  1  0  0  0  0
 33 32  2  0  0  0  0
M  END
>  <MODEL>
4

>  <REMARK>
 VINA RESULT:      -7.5      3.573      4.886
  Name = 
  7 active torsions:
  status: ('A' for Active; 'I' for Inactive)
    1  A    between atoms: C_1  and  C_9
    2  A    between atoms: C_2  and  C_23
    3  A    between atoms: C_2  and  C_32
    4  A    between atoms: C_3  and  C_23
    5  A    between atoms: C_7  and  C_11
    6  A    between atoms: C_8  and  C_9
    7  A    between atoms: C_18  and  C_30
                            x       y       z     vdW  Elec       q    Type
                         _______ _______ _______ _____ _____    ______ ____

>  <TORSDO>
F 7

$$$$
=
 OpenBabel11052420303D

 34 37  0  0  1  0  0  0  0  0999 V2000
  187.0890  177.9440  143.9390 C   0  0  1  0  0  3  0  0  0  0  0  0
  186.9200  177.7730  146.9170 C   0  0  0  0  0  2  0  0  0  0  0  0
  184.6720  178.9030  144.1730 C   0  0  0  0  0  2  0  0  0  0  0  0
  183.7150  178.9630  145.3630 C   0  0  0  0  0  2  0  0  0  0  0  0
  185.7020  177.7830  146.0080 C   0  0  2  0  0  3  0  0  0  0  0  0
  186.0150  178.6130  144.7980 C   0  0  1  0  0  3  0  0  0  0  0  0
  184.4800  178.4500  146.5840 C   0  0  0  0  0  2  0  0  0  0  0  0
  188.0940  177.1220  146.1640 C   0  0  1  0  0  3  0  0  0  0  0  0
  189.3720  177.1670  144.1060 O   0  0  0  0  0  1  0  0  0  0  0  0
  188.3570  177.8210  144.8100 C   0  0  1  0  0  3  0  0  0  0  0  0
  189.3470  177.1660  147.0270 C   0  0  0  0  0  2  0  0  0  0  0  0
  190.0510  175.8130  147.0430 C   0  0  2  0  0  3  0  0  0  0  0  0
  189.2220  174.8570  147.6370 O   0  0  0  0  0  1  0  0  0  0  0  0
  191.3840  175.8950  147.7880 C   0  0  2  0  0  0  0  0  0  0  0  0
  191.5170  177.1500  148.3870 O   0  0  0  0  0  1  0  0  0  0  0  0
  192.5330  175.7000  146.8150 C   0  0  0  0  0  1  0  0  0  0  0  0
  191.4500  174.9160  148.7640 F   0  0  0  0  0  0  0  0  0  0  0  0
  186.6550  176.5730  143.4000 C   0  0  0  0  0  2  0  0  0  0  0  0
  187.4740  176.1660  142.2220 C   0  0  0  0  0  0  0  0  0  0  0  0
  187.7650  177.1110  141.2450 O   0  0  0  0  0  1  0  0  0  0  0  0
  187.9060  174.9030  142.1320 C   0  0  0  0  0  3  0  0  0  0  0  0
  190.8690  173.4120  140.3580 C   0  0  0  0  0  3  0  0  0  0  0  0
  188.2360  174.1480  139.7440 C   0  0  0  0  0  3  0  0  0  0  0  0
  190.7120  172.5060  136.7690 C   0  0  0  0  0  0  0  0  0  0  0  0
  191.2010  172.6860  138.0700 C   0  0  0  0  0  3  0  0  0  0  0  0
  190.3820  173.2310  139.0620 C   0  0  0  0  0  0  0  0  0  0  0  0
  188.5670  173.4230  137.4560 C   0  0  0  0  0  3  0  0  0  0  0  0
  189.0550  173.6020  138.7520 C   0  0  0  0  0  0  0  0  0  0  0  0
  189.3920  172.8770  136.4700 C   0  0  0  0  0  3  0  0  0  0  0  0
  188.7250  174.3290  141.0480 C   0  0  0  0  0  0  0  0  0  0  0  0
  190.0430  173.9590  141.3450 C   0  0  0  0  0  3  0  0  0  0  0  0
  191.5710  171.9310  135.7210 C   0  0  0  0  0  0  0  0  0  0  0  0
  192.9530  171.9370  135.8660 O   0  0  0  0  0  1  0  0  0  0  0  0
  191.0630  171.4250  134.6850 O   0  0  0  0  0  0  0  0  0  0  0  0
  1 18  1  1  0  0  0
  1  6  1  0  0  0  0
  1 10  1  0  0  0  0
  3  4  1  0  0  0  0
  4  7  1  0  0  0  0
  5  7  1  1  0  0  0
  5  2  1  0  0  0  0
  6  3  1  6  0  0  0
  6  5  1  0  0  0  0
  8  2  1  0  0  0  0
  8 11  1  1  0  0  0
 10  9  1  6  0  0  0
 10  8  1  0  0  0  0
 11 12  1  0  0  0  0
 12 13  1  1  0  0  0
 12 14  1  0  0  0  0
 14 16  1  6  0  0  0
 14 15  1  0  0  0  0
 14 17  1  0  0  0  0
 19 18  1  0  0  0  0
 20 19  1  0  0  0  0
 21 19  2  0  0  0  0
 22 31  1  0  0  0  0
 23 30  1  0  0  0  0
 24 25  2  0  0  0  0
 25 26  1  0  0  0  0
 26 22  2  0  0  0  0
 27 28  1  0  0  0  0
 28 26  1  0  0  0  0
 28 23  2  0  0  0  0
 29 24  1  0  0  0  0
 29 27  2  0  0  0  0
 30 31  2  0  0  0  0
 30 21  1  0  0  0  0
 32 33  1  0  0  0  0
 32 24  1  0  0  0  0
 34 32  2  0  0  0  0
M  END
>  <MODEL>
5

>  <REMARK>
 VINA RESULT:      -7.4      5.227      9.714
  Name = 
  7 active torsions:
  status: ('A' for Active; 'I' for Inactive)
    1  A    between atoms: C_1  and  C_9
    2  A    between atoms: C_2  and  C_23
    3  A    between atoms: C_2  and  C_32
    4  A    between atoms: C_3  and  C_23
    5  A    between atoms: C_7  and  C_11
    6  A    between atoms: C_8  and  C_9
    7  A    between atoms: C_18  and  C_30
                            x       y       z     vdW  Elec       q    Type
                         _______ _______ _______ _____ _____    ______ ____

>  <TORSDO>
F 7

$$$$
=
 OpenBabel11052420303D

 34 37  0  0  1  0  0  0  0  0999 V2000
  195.3900  175.6710  143.3960 C   0  0  1  0  0  3  0  0  0  0  0  0
  197.5640  173.7690  142.6340 C   0  0  0  0  0  2  0  0  0  0  0  0
  195.8620  174.7540  145.7940 C   0  0  0  0  0  2  0  0  0  0  0  0
  196.6980  173.5720  146.2820 C   0  0  0  0  0  2  0  0  0  0  0  0
  196.7140  173.6120  143.8830 C   0  0  2  0  0  3  0  0  0  0  0  0
  196.3340  174.9760  144.3790 C   0  0  1  0  0  3  0  0  0  0  0  0
  197.4200  172.9960  145.0630 C   0  0  0  0  0  2  0  0  0  0  0  0
  196.7260  174.4690  141.5500 C   0  0  1  0  0  3  0  0  0  0  0  0
  195.3240  176.3920  141.0890 O   0  0  0  0  0  1  0  0  0  0  0  0
  196.1470  175.8100  142.0580 C   0  0  1  0  0  3  0  0  0  0  0  0
  197.5780  174.7040  140.3110 C   0  0  0  0  0  2  0  0  0  0  0  0
  197.0200  173.9500  139.1080 C   0  0  2  0  0  3  0  0  0  0  0  0
  197.7160  172.7490  138.9410 O   0  0  0  0  0  1  0  0  0  0  0  0
  197.1100  174.7970  137.8370 C   0  0  2  0  0  0  0  0  0  0  0  0
  195.8320  175.0100  137.3180 O   0  0  0  0  0  1  0  0  0  0  0  0
  197.9410  174.0740  136.7930 C   0  0  0  0  0  1  0  0  0  0  0  0
  197.6990  176.0180  138.1150 F   0  0  0  0  0  0  0  0  0  0  0  0
  194.0660  174.9170  143.2050 C   0  0  0  0  0  2  0  0  0  0  0  0
  192.9100  175.7040  143.7230 C   0  0  0  0  0  0  0  0  0  0  0  0
  193.1490  176.7490  144.6070 O   0  0  0  0  0  1  0  0  0  0  0  0
  191.6730  175.3850  143.3260 C   0  0  0  0  0  3  0  0  0  0  0  0
  188.6870  177.6680  143.1860 C   0  0  0  0  0  3  0  0  0  0  0  0
  189.7730  175.7760  144.9440 C   0  0  0  0  0  3  0  0  0  0  0  0
  186.2140  177.7800  145.9430 C   0  0  0  0  0  0  0  0  0  0  0  0
  186.8600  178.0560  144.7290 C   0  0  0  0  0  3  0  0  0  0  0  0
  188.0430  177.3930  144.3930 C   0  0  0  0  0  0  0  0  0  0  0  0
  187.9470  176.1640  146.4890 C   0  0  0  0  0  3  0  0  0  0  0  0
  188.5900  176.4390  145.2800 C   0  0  0  0  0  0  0  0  0  0  0  0
  186.7640  176.8310  146.8170 C   0  0  0  0  0  3  0  0  0  0  0  0
  190.4210  176.0520  143.7290 C   0  0  0  0  0  0  0  0  0  0  0  0
  189.8700  177.0000  142.8570 C   0  0  0  0  0  3  0  0  0  0  0  0
  184.9670  178.4760  146.3000 C   0  0  0  0  0  0  0  0  0  0  0  0
  184.5870  178.5940  147.6320 O   0  0  0  0  0  1  0  0  0  0  0  0
  184.2340  178.9730  145.4040 O   0  0  0  0  0  0  0  0  0  0  0  0
  1 18  1  6  0  0  0
  1  6  1  0  0  0  0
  3  4  1  0  0  0  0
  5  2  1  6  0  0  0
  5  6  1  0  0  0  0
  5  7  1  0  0  0  0
  6  3  1  1  0  0  0
  7  4  1  0  0  0  0
  8 11  1  6  0  0  0
  8 10  1  0  0  0  0
  8  2  1  0  0  0  0
 10  9  1  6  0  0  0
 10  1  1  0  0  0  0
 12 13  1  6  0  0  0
 12 11  1  0  0  0  0
 14 16  1  6  0  0  0
 14 17  1  0  0  0  0
 14 12  1  0  0  0  0
 15 14  1  0  0  0  0
 18 19  1  0  0  0  0
 19 20  1  0  0  0  0
 21 19  2  0  0  0  0
 21 30  1  0  0  0  0
 22 26  1  0  0  0  0
 23 28  1  0  0  0  0
 24 32  1  0  0  0  0
 24 29  1  0  0  0  0
 25 24  2  0  0  0  0
 26 25  1  0  0  0  0
 26 28  2  0  0  0  0
 27 29  2  0  0  0  0
 28 27  1  0  0  0  0
 30 23  2  0  0  0  0
 31 22  2  0  0  0  0
 31 30  1  0  0  0  0
 32 33  1  0  0  0  0
 34 32  2  0  0  0  0
M  END
>  <MODEL>
6

>  <REMARK>
 VINA RESULT:      -7.2      3.621      5.104
  Name = 
  7 active torsions:
  status: ('A' for Active; 'I' for Inactive)
    1  A    between atoms: C_1  and  C_9
    2  A    between atoms: C_2  and  C_23
    3  A    between atoms: C_2  and  C_32
    4  A    between atoms: C_3  and  C_23
    5  A    between atoms: C_7  and  C_11
    6  A    between atoms: C_8  and  C_9
    7  A    between atoms: C_18  and  C_30
                            x       y       z     vdW  Elec       q    Type
                         _______ _______ _______ _____ _____    ______ ____

>  <TORSDO>
F 7

$$$$
=
 OpenBabel11052420303D

 34 37  0  0  1  0  0  0  0  0999 V2000
  191.4260  176.7570  144.1490 C   0  0  1  0  0  3  0  0  0  0  0  0
  193.6070  175.6980  145.8940 C   0  0  0  0  0  2  0  0  0  0  0  0
  189.9940  176.4890  146.3150 C   0  0  0  0  0  2  0  0  0  0  0  0
  190.2880  175.7980  147.6470 C   0  0  0  0  0  2  0  0  0  0  0  0
  192.1320  175.4450  146.1520 C   0  0  2  0  0  3  0  0  0  0  0  0
  191.3510  176.6340  145.6720 C   0  0  1  0  0  3  0  0  0  0  0  0
  191.7460  175.3380  147.6040 C   0  0  0  0  0  2  0  0  0  0  0  0
  193.8260  175.8490  144.3780 C   0  0  1  0  0  3  0  0  0  0  0  0
  193.0670  177.0120  142.3920 O   0  0  0  0  0  1  0  0  0  0  0  0
  192.9130  176.9440  143.7790 C   0  0  1  0  0  3  0  0  0  0  0  0
  195.2850  176.1760  144.0980 C   0  0  0  0  0  2  0  0  0  0  0  0
  195.9240  175.1180  143.2030 C   0  0  2  0  0  3  0  0  0  0  0  0
  197.0070  174.5320  143.8650 O   0  0  0  0  0  1  0  0  0  0  0  0
  196.3790  175.7230  141.8740 C   0  0  2  0  0  0  0  0  0  0  0  0
  195.6270  175.1860  140.8260 O   0  0  0  0  0  1  0  0  0  0  0  0
  197.8420  175.3990  141.6330 C   0  0  0  0  0  1  0  0  0  0  0  0
  196.2190  177.0970  141.8930 F   0  0  0  0  0  0  0  0  0  0  0  0
  190.8250  175.5460  143.4210 C   0  0  0  0  0  2  0  0  0  0  0  0
  189.3560  175.7050  143.2190 C   0  0  0  0  0  0  0  0  0  0  0  0
  188.5720  174.5680  143.0560 O   0  0  0  0  0  1  0  0  0  0  0  0
  188.8280  176.9340  143.1990 C   0  0  0  0  0  3  0  0  0  0  0  0
  185.2600  177.7620  144.0530 C   0  0  0  0  0  3  0  0  0  0  0  0
  186.8220  177.4400  141.7500 C   0  0  0  0  0  3  0  0  0  0  0  0
  182.7450  178.4090  141.4100 C   0  0  0  0  0  0  0  0  0  0  0  0
  183.3260  178.2470  142.6760 C   0  0  0  0  0  3  0  0  0  0  0  0
  184.6810  177.9240  142.7930 C   0  0  0  0  0  0  0  0  0  0  0  0
  184.8890  177.9240  140.3710 C   0  0  0  0  0  3  0  0  0  0  0  0
  185.4680  177.7630  141.6320 C   0  0  0  0  0  0  0  0  0  0  0  0
  183.5340  178.2460  140.2620 C   0  0  0  0  0  3  0  0  0  0  0  0
  187.4060  177.2770  143.0160 C   0  0  0  0  0  0  0  0  0  0  0  0
  186.6160  177.4390  144.1620 C   0  0  0  0  0  3  0  0  0  0  0  0
  181.3190  178.7490  141.2820 C   0  0  0  0  0  0  0  0  0  0  0  0
  180.3470  177.9050  141.8060 O   0  0  0  0  0  1  0  0  0  0  0  0
  180.9640  179.8080  140.6990 O   0  0  0  0  0  0  0  0  0  0  0  0
  1 18  1  6  0  0  0
  1  6  1  0  0  0  0
  3  4  1  0  0  0  0
  5  2  1  1  0  0  0
  5  7  1  0  0  0  0
  6  5  1  0  0  0  0
  6  3  1  6  0  0  0
  7  4  1  0  0  0  0
  8 11  1  1  0  0  0
  8  2  1  0  0  0  0
 10  9  1  6  0  0  0
 10  1  1  0  0  0  0
 10  8  1  0  0  0  0
 12 13  1  1  0  0  0
 12 11  1  0  0  0  0
 14 16  1  6  0  0  0
 14 17  1  0  0  0  0
 14 12  1  0  0  0  0
 15 14  1  0  0  0  0
 19 18  1  0  0  0  0
 20 19  1  0  0  0  0
 21 19  2  0  0  0  0
 22 31  1  0  0  0  0
 23 30  1  0  0  0  0
 24 25  2  0  0  0  0
 25 26  1  0  0  0  0
 26 22  2  0  0  0  0
 27 28  1  0  0  0  0
 28 23  2  0  0  0  0
 28 26  1  0  0  0  0
 29 27  2  0  0  0  0
 29 24  1  0  0  0  0
 30 21  1  0  0  0  0
 30 31  2  0  0  0  0
 32 24  1  0  0  0  0
 32 33  1  0  0  0  0
 34 32  2  0  0  0  0
M  END
>  <MODEL>
7

>  <REMARK>
 VINA RESULT:      -7.1      3.847      5.892
  Name = 
  7 active torsions:
  status: ('A' for Active; 'I' for Inactive)
    1  A    between atoms: C_1  and  C_9
    2  A    between atoms: C_2  and  C_23
    3  A    between atoms: C_2  and  C_32
    4  A    between atoms: C_3  and  C_23
    5  A    between atoms: C_7  and  C_11
    6  A    between atoms: C_8  and  C_9
    7  A    between atoms: C_18  and  C_30
                            x       y       z     vdW  Elec       q    Type
                         _______ _______ _______ _____ _____    ______ ____

>  <TORSDO>
F 7

$$$$
=
 OpenBabel11052420303D

 34 37  0  0  1  0  0  0  0  0999 V2000
  194.4980  174.4690  144.5880 C   0  0  1  0  0  3  0  0  0  0  0  0
  197.3070  173.4520  144.5520 C   0  0  0  0  0  2  0  0  0  0  0  0
  195.4420  176.2070  142.8840 C   0  0  0  0  0  2  0  0  0  0  0  0
  196.8720  176.5390  142.4580 C   0  0  0  0  0  2  0  0  0  0  0  0
  196.9290  174.8780  144.1900 C   0  0  2  0  0  3  0  0  0  0  0  0
  195.5640  174.8670  143.5650 C   0  0  1  0  0  3  0  0  0  0  0  0
  197.7910  175.5200  143.1340 C   0  0  0  0  0  2  0  0  0  0  0  0
  196.2990  172.9200  145.5850 C   0  0  1  0  0  3  0  0  0  0  0  0
  193.9390  172.6330  146.0580 O   0  0  0  0  0  1  0  0  0  0  0  0
  194.8440  173.0460  145.0760 C   0  0  1  0  0  3  0  0  0  0  0  0
  196.6130  171.4670  145.9110 C   0  0  0  0  0  2  0  0  0  0  0  0
  195.6320  170.5230  145.2230 C   0  0  2  0  0  3  0  0  0  0  0  0
  195.0820  169.6470  146.1630 O   0  0  0  0  0  1  0  0  0  0  0  0
  196.3150  169.7390  144.1020 C   0  0  2  0  0  0  0  0  0  0  0  0
  195.3980  169.4700  143.0830 O   0  0  0  0  0  1  0  0  0  0  0  0
  196.8390  168.4200  144.6400 C   0  0  0  0  0  1  0  0  0  0  0  0
  197.3720  170.4660  143.5830 F   0  0  0  0  0  0  0  0  0  0  0  0
  194.4060  175.4490  145.7660 C   0  0  0  0  0  2  0  0  0  0  0  0
  193.0310  176.0100  145.9020 C   0  0  0  0  0  0  0  0  0  0  0  0
  192.6150  176.4770  147.1440 O   0  0  0  0  0  1  0  0  0  0  0  0
  192.2330  176.0500  144.8300 C   0  0  0  0  0  3  0  0  0  0  0  0
  189.1920  177.8680  143.5660 C   0  0  0  0  0  3  0  0  0  0  0  0
  189.9140  176.3280  145.7920 C   0  0  0  0  0  3  0  0  0  0  0  0
  186.0260  177.9010  145.4920 C   0  0  0  0  0  0  0  0  0  0  0  0
  186.9640  178.1450  144.4780 C   0  0  0  0  0  3  0  0  0  0  0  0
  188.2570  177.6250  144.5740 C   0  0  0  0  0  0  0  0  0  0  0  0
  187.6870  176.6040  146.7060 C   0  0  0  0  0  3  0  0  0  0  0  0
  188.6210  176.8480  145.6960 C   0  0  0  0  0  0  0  0  0  0  0  0
  186.3960  177.1280  146.6030 C   0  0  0  0  0  3  0  0  0  0  0  0
  190.8540  176.5720  144.7790 C   0  0  0  0  0  0  0  0  0  0  0  0
  190.4840  177.3440  143.6700 C   0  0  0  0  0  3  0  0  0  0  0  0
  184.6630  178.4470  145.3940 C   0  0  0  0  0  0  0  0  0  0  0  0
  183.8980  178.6300  146.5400 O   0  0  0  0  0  1  0  0  0  0  0  0
  184.1770  178.7560  144.2730 O   0  0  0  0  0  0  0  0  0  0  0  0
  1 10  1  0  0  0  0
  1 18  1  1  0  0  0
  2  8  1  0  0  0  0
  4  3  1  0  0  0  0
  4  7  1  0  0  0  0
  5  7  1  6  0  0  0
  5  2  1  0  0  0  0
  6  3  1  1  0  0  0
  6  5  1  0  0  0  0
  6  1  1  0  0  0  0
  8 11  1  6  0  0  0
 10  8  1  0  0  0  0
 10  9  1  1  0  0  0
 12 11  1  0  0  0  0
 12 13  1  1  0  0  0
 14 16  1  1  0  0  0
 14 12  1  0  0  0  0
 15 14  1  0  0  0  0
 17 14  1  0  0  0  0
 18 19  1  0  0  0  0
 19 20  1  0  0  0  0
 21 19  2  0  0  0  0
 22 31  2  0  0  0  0
 22 26  1  0  0  0  0
 24 29  1  0  0  0  0
 25 26  1  0  0  0  0
 25 24  2  0  0  0  0
 26 28  2  0  0  0  0
 28 23  1  0  0  0  0
 28 27  1  0  0  0  0
 29 27  2  0  0  0  0
 30 21  1  0  0  0  0
 30 23  2  0  0  0  0
 31 30  1  0  0  0  0
 32 24  1  0  0  0  0
 32 33  1  0  0  0  0
 34 32  2  0  0  0  0
M  END
>  <MODEL>
8

>  <REMARK>
 VINA RESULT:      -7.0      1.265      2.017
  Name = 
  7 active torsions:
  status: ('A' for Active; 'I' for Inactive)
    1  A    between atoms: C_1  and  C_9
    2  A    between atoms: C_2  and  C_23
    3  A    between atoms: C_2  and  C_32
    4  A    between atoms: C_3  and  C_23
    5  A    between atoms: C_7  and  C_11
    6  A    between atoms: C_8  and  C_9
    7  A    between atoms: C_18  and  C_30
                            x       y       z     vdW  Elec       q    Type
                         _______ _______ _______ _____ _____    ______ ____

>  <TORSDO>
F 7

$$$$
=
 OpenBabel11052420303D

 34 37  0  0  1  0  0  0  0  0999 V2000
  188.1280  176.9670  144.5540 C   0  0  1  0  0  3  0  0  0  0  0  0
  185.7600  178.7260  144.0850 C   0  0  0  0  0  2  0  0  0  0  0  0
  187.0540  176.6880  146.9170 C   0  0  0  0  0  2  0  0  0  0  0  0
  185.9080  177.4280  147.6050 C   0  0  0  0  0  2  0  0  0  0  0  0
  186.3220  178.4310  145.4640 C   0  0  2  0  0  3  0  0  0  0  0  0
  186.8970  177.0440  145.4590 C   0  0  1  0  0  3  0  0  0  0  0  0
  185.3040  178.3820  146.5730 C   0  0  0  0  0  2  0  0  0  0  0  0
  186.9080  178.6750  143.0610 C   0  0  1  0  0  3  0  0  0  0  0  0
  188.7530  177.3310  142.2470 O   0  0  0  0  0  1  0  0  0  0  0  0
  187.6670  177.3290  143.1260 C   0  0  1  0  0  3  0  0  0  0  0  0
  186.3580  178.8960  141.6590 C   0  0  0  0  0  2  0  0  0  0  0  0
  185.6080  177.6640  141.1610 C   0  0  2  0  0  3  0  0  0  0  0  0
  186.3570  177.0260  140.1680 O   0  0  0  0  0  1  0  0  0  0  0  0
  184.2260  178.0400  140.6240 C   0  0  2  0  0  0  0  0  0  0  0  0
  184.2430  179.3530  140.1470 O   0  0  0  0  0  1  0  0  0  0  0  0
  183.1960  177.9440  141.7350 C   0  0  0  0  0  1  0  0  0  0  0  0
  183.8620  177.1870  139.5970 F   0  0  0  0  0  0  0  0  0  0  0  0
  189.2680  177.8860  145.0150 C   0  0  0  0  0  2  0  0  0  0  0  0
  190.5960  177.2220  144.8760 C   0  0  0  0  0  0  0  0  0  0  0  0
  191.5330  177.7650  144.0050 O   0  0  0  0  0  1  0  0  0  0  0  0
  190.8520  176.1190  145.5890 C   0  0  0  0  0  3  0  0  0  0  0  0
  194.4720  175.2490  146.1230 C   0  0  0  0  0  3  0  0  0  0  0  0
  192.1780  174.0330  145.0700 C   0  0  0  0  0  3  0  0  0  0  0  0
  195.8310  171.9520  145.1160 C   0  0  0  0  0  0  0  0  0  0  0  0
  195.7580  173.2550  145.6280 C   0  0  0  0  0  3  0  0  0  0  0  0
  194.5460  173.9510  145.6140 C   0  0  0  0  0  0  0  0  0  0  0  0
  193.4630  172.0390  144.5730 C   0  0  0  0  0  3  0  0  0  0  0  0
  193.3900  173.3370  145.0830 C   0  0  0  0  0  0  0  0  0  0  0  0
  194.6780  171.3510  144.5910 C   0  0  0  0  0  3  0  0  0  0  0  0
  192.1030  175.3380  145.5820 C   0  0  0  0  0  0  0  0  0  0  0  0
  193.2560  175.9380  146.1060 C   0  0  0  0  0  3  0  0  0  0  0  0
  197.1060  171.2160  145.1290 C   0  0  0  0  0  0  0  0  0  0  0  0
  197.4150  170.3680  146.1850 O   0  0  0  0  0  1  0  0  0  0  0  0
  197.9280  171.3450  144.1820 O   0  0  0  0  0  0  0  0  0  0  0  0
  1 18  1  1  0  0  0
  1  6  1  0  0  0  0
  3  4  1  0  0  0  0
  5  2  1  6  0  0  0
  5  7  1  0  0  0  0
  6  5  1  0  0  0  0
  6  3  1  1  0  0  0
  7  4  1  0  0  0  0
  8 11  1  6  0  0  0
  8 10  1  0  0  0  0
  8  2  1  0  0  0  0
 10  9  1  6  0  0  0
 10  1  1  0  0  0  0
 12 13  1  6  0  0  0
 12 11  1  0  0  0  0
 14 12  1  0  0  0  0
 14 16  1  1  0  0  0
 15 14  1  0  0  0  0
 17 14  1  0  0  0  0
 19 18  1  0  0  0  0
 19 21  2  0  0  0  0
 20 19  1  0  0  0  0
 23 28  2  0  0  0  0
 23 30  1  0  0  0  0
 24 32  1  0  0  0  0
 24 25  2  0  0  0  0
 26 25  1  0  0  0  0
 26 22  2  0  0  0  0
 27 29  2  0  0  0  0
 27 28  1  0  0  0  0
 28 26  1  0  0  0  0
 29 24  1  0  0  0  0
 30 21  1  0  0  0  0
 30 31  2  0  0  0  0
 31 22  1  0  0  0  0
 32 33  1  0  0  0  0
 34 32  2  0  0  0  0
M  END
>  <MODEL>
9

>  <REMARK>
 VINA RESULT:      -7.0      3.639     10.894
  Name = 
  7 active torsions:
  status: ('A' for Active; 'I' for Inactive)
    1  A    between atoms: C_1  and  C_9
    2  A    between atoms: C_2  and  C_23
    3  A    between atoms: C_2  and  C_32
    4  A    between atoms: C_3  and  C_23
    5  A    between atoms: C_7  and  C_11
    6  A    between atoms: C_8  and  C_9
    7  A    between atoms: C_18  and  C_30
                            x       y       z     vdW  Elec       q    Type
                         _______ _______ _______ _____ _____    ______ ____

>  <TORSDO>
F 7

$$$$
