=
 OpenBabel11052417463D

 31 36  0  0  1  0  0  0  0  0999 V2000
  184.8400  177.9730  140.9830 C   0  0  0  0  0  0  0  0  0  0  0  0
  187.2560  177.8670  143.8540 C   0  0  0  0  0  0  0  0  0  0  0  0
  186.4310  178.0450  145.0950 C   0  0  0  0  0  0  0  0  0  0  0  0
  184.2290  178.8430  146.1940 C   0  0  0  0  0  3  0  0  0  0  0  0
  186.7140  177.8540  142.5400 C   0  0  0  0  0  0  0  0  0  0  0  0
  185.7080  177.7900  139.9070 C   0  0  0  0  0  3  0  0  0  0  0  0
  185.0830  178.6330  145.0520 C   0  0  0  0  0  3  0  0  0  0  0  0
  189.4640  177.4780  142.8740 C   0  0  0  0  0  0  0  0  0  0  0  0
  183.4460  178.1300  140.7540 N   0  0  0  0  0  1  0  0  0  0  0  0
  188.3920  177.0450  146.4340 C   0  0  0  0  0  2  0  0  0  0  0  0
  184.8650  178.4180  147.3200 C   0  0  0  0  0  0  0  0  0  0  0  0
  188.9100  177.4810  141.6360 N   0  0  0  0  0  0  0  0  0  0  0  0
  188.6520  177.6520  144.0090 C   0  0  0  0  0  0  0  0  0  0  0  0
  185.3400  178.0030  142.2870 C   0  0  0  0  0  3  0  0  0  0  0  0
  185.4150  178.0170  148.5460 C   0  0  0  0  0  2  0  0  0  0  0  0
  187.5820  177.6590  141.4380 C   0  0  0  0  0  0  0  0  0  0  0  0
  187.0760  177.6310  140.1340 C   0  0  0  0  0  3  0  0  0  0  0  0
  189.2870  177.6900  145.3810 C   0  0  0  0  0  2  0  0  0  0  0  0
  187.0320  177.6450  146.3440 C   0  0  0  0  0  0  0  0  0  0  0  0
  186.2010  177.8470  147.3960 C   0  0  0  0  0  0  0  0  0  0  0  0
  190.9350  177.2530  142.9990 C   0  0  0  0  0  2  0  0  0  0  0  0
  190.5340  174.8360  143.4220 C   0  0  0  0  0  2  0  0  0  0  0  0
  191.2860  175.8340  142.5610 C   0  0  2  0  0  3  0  0  0  0  0  0
  192.0280  174.9980  143.6110 C   0  0  1  0  0  3  0  0  0  0  0  0
  192.3030  175.7100  144.9320 C   0  0  0  0  0  2  0  0  0  0  0  0
  194.2990  176.7500  146.4040 S   0  0  0  0  0  0  0  0  0  0  0  0
  193.7700  175.8610  145.1330 C   0  0  0  0  0  0  0  0  0  0  0  0
  194.6640  175.3140  144.1500 N   0  0  0  0  0  2  0  0  0  0  0  0
  196.0860  175.4690  144.0840 C   0  0  0  0  0  0  0  0  0  0  0  0
  196.9630  174.5410  144.7150 N   0  0  0  0  0  1  0  0  0  0  0  0
  196.7130  176.6090  143.0980 S   0  0  0  0  0  0  0  0  0  0  0  0
  1 14  1  0  0  0  0
  2 13  2  0  0  0  0
  2  3  1  0  0  0  0
  3 19  1  0  0  0  0
  4 11  2  0  0  0  0
  5  2  1  0  0  0  0
  6 17  1  0  0  0  0
  6  1  2  0  0  0  0
  7  3  2  0  0  0  0
  7  4  1  0  0  0  0
  8 21  1  0  0  0  0
  8 13  1  0  0  0  0
  9  1  1  0  0  0  0
 11 20  1  0  0  0  0
 11 15  1  0  0  0  0
 12  8  2  0  0  0  0
 13 18  1  0  0  0  0
 14  5  2  0  0  0  0
 16 12  1  0  0  0  0
 16  5  1  0  0  0  0
 17 16  2  0  0  0  0
 18 10  1  0  0  0  0
 19 10  1  0  0  0  0
 19 20  2  0  0  0  0
 20 15  1  0  0  0  0
 22 24  1  0  0  0  0
 23 21  1  1  0  0  0
 23 22  1  0  0  0  0
 23 24  1  0  0  0  0
 24 25  1  1  0  0  0
 25 27  1  0  0  0  0
 27 26  2  0  0  0  0
 28 27  1  0  0  0  0
 29 28  1  0  0  0  0
 29 30  1  0  0  0  0
 31 29  2  0  0  0  0
M  END
>  <MODEL>
1

>  <REMARK>
 VINA RESULT:      -8.0      0.000      0.000
  Name = 
  6 active torsions:
  status: ('A' for Active; 'I' for Inactive)
    1  A    between atoms: C_1  and  N_24
    2  A    between atoms: C_3  and  C_19
    3  A    between atoms: C_3  and  C_22
    4  A    between atoms: C_9  and  C_23
    5  A    between atoms: C_15  and  C_23
    6  A    between atoms: C_19  and  N_24
                            x       y       z     vdW  Elec       q    Type
                         _______ _______ _______ _____ _____    ______ ____

>  <TORSDO>
F 6

$$$$
=
 OpenBabel11052417463D

 31 36  0  0  1  0  0  0  0  0999 V2000
  184.5470  178.0150  141.0560 C   0  0  0  0  0  0  0  0  0  0  0  0
  187.0990  177.7980  143.8000 C   0  0  0  0  0  0  0  0  0  0  0  0
  186.3450  178.0010  145.0830 C   0  0  0  0  0  0  0  0  0  0  0  0
  184.2350  178.8790  146.2940 C   0  0  0  0  0  3  0  0  0  0  0  0
  186.4910  177.8130  142.5160 C   0  0  0  0  0  0  0  0  0  0  0  0
  185.3520  177.8030  139.9370 C   0  0  0  0  0  3  0  0  0  0  0  0
  185.0210  178.6420  145.1100 C   0  0  0  0  0  3  0  0  0  0  0  0
  189.2370  177.3270  142.7090 C   0  0  0  0  0  0  0  0  0  0  0  0
  183.1500  178.2280  140.8980 N   0  0  0  0  0  1  0  0  0  0  0  0
  188.3300  176.9170  146.3170 C   0  0  0  0  0  2  0  0  0  0  0  0
  184.9090  178.4240  147.3850 C   0  0  0  0  0  0  0  0  0  0  0  0
  188.6230  177.3590  141.5000 N   0  0  0  0  0  0  0  0  0  0  0  0
  188.4910  177.5270  143.8840 C   0  0  0  0  0  0  0  0  0  0  0  0
  185.1130  178.0170  142.3330 C   0  0  0  0  0  3  0  0  0  0  0  0
  185.5040  177.9940  148.5800 C   0  0  0  0  0  2  0  0  0  0  0  0
  187.2940  177.5900  141.3710 C   0  0  0  0  0  0  0  0  0  0  0  0
  186.7220  177.5890  140.0940 C   0  0  0  0  0  3  0  0  0  0  0  0
  189.1950  177.5320  145.2230 C   0  0  0  0  0  2  0  0  0  0  0  0
  186.9920  177.5700  146.2980 C   0  0  0  0  0  0  0  0  0  0  0  0
  186.2240  177.7990  147.3920 C   0  0  0  0  0  0  0  0  0  0  0  0
  190.7030  177.0430  142.7590 C   0  0  0  0  0  2  0  0  0  0  0  0
  191.8250  175.1100  143.8480 C   0  0  0  0  0  2  0  0  0  0  0  0
  190.9470  175.5390  142.6870 C   0  0  2  0  0  3  0  0  0  0  0  0
  192.4060  175.1300  142.4490 C   0  0  1  0  0  3  0  0  0  0  0  0
  193.3910  176.2880  142.3200 C   0  0  0  0  0  2  0  0  0  0  0  0
  195.4720  174.6550  141.8330 S   0  0  0  0  0  0  0  0  0  0  0  0
  194.7560  175.8400  142.7110 C   0  0  0  0  0  0  0  0  0  0  0  0
  195.3510  176.3860  143.8990 N   0  0  0  0  0  2  0  0  0  0  0  0
  195.1350  175.9670  145.2520 C   0  0  0  0  0  0  0  0  0  0  0  0
  194.5600  176.8430  146.2160 N   0  0  0  0  0  1  0  0  0  0  0  0
  195.3610  174.3980  145.6400 S   0  0  0  0  0  0  0  0  0  0  0  0
  1 14  1  0  0  0  0
  2 13  2  0  0  0  0
  2  3  1  0  0  0  0
  3  7  2  0  0  0  0
  3 19  1  0  0  0  0
  4 11  2  0  0  0  0
  5  2  1  0  0  0  0
  6 17  1  0  0  0  0
  6  1  2  0  0  0  0
  7  4  1  0  0  0  0
  8 21  1  0  0  0  0
  8 13  1  0  0  0  0
  9  1  1  0  0  0  0
 11 20  1  0  0  0  0
 11 15  1  0  0  0  0
 12  8  2  0  0  0  0
 13 18  1  0  0  0  0
 14  5  2  0  0  0  0
 16 12  1  0  0  0  0
 16  5  1  0  0  0  0
 17 16  2  0  0  0  0
 18 10  1  0  0  0  0
 19 10  1  0  0  0  0
 19 20  2  0  0  0  0
 20 15  1  0  0  0  0
 23 21  1  1  0  0  0
 23 22  1  0  0  0  0
 24 25  1  1  0  0  0
 24 23  1  0  0  0  0
 24 22  1  0  0  0  0
 25 27  1  0  0  0  0
 26 27  2  0  0  0  0
 27 28  1  0  0  0  0
 28 29  1  0  0  0  0
 29 31  2  0  0  0  0
 29 30  1  0  0  0  0
M  END
>  <MODEL>
2

>  <REMARK>
 VINA RESULT:      -7.7      1.078      1.581
  Name = 
  6 active torsions:
  status: ('A' for Active; 'I' for Inactive)
    1  A    between atoms: C_1  and  N_24
    2  A    between atoms: C_3  and  C_19
    3  A    between atoms: C_3  and  C_22
    4  A    between atoms: C_9  and  C_23
    5  A    between atoms: C_15  and  C_23
    6  A    between atoms: C_19  and  N_24
                            x       y       z     vdW  Elec       q    Type
                         _______ _______ _______ _____ _____    ______ ____

>  <TORSDO>
F 6

$$$$
=
 OpenBabel11052417463D

 31 36  0  0  1  0  0  0  0  0999 V2000
  191.0730  176.4210  147.0610 C   0  0  0  0  0  0  0  0  0  0  0  0
  188.1360  176.3620  144.7240 C   0  0  0  0  0  0  0  0  0  0  0  0
  186.9990  176.9940  145.4740 C   0  0  0  0  0  0  0  0  0  0  0  0
  185.9520  177.6840  147.7360 C   0  0  0  0  0  3  0  0  0  0  0  0
  189.4380  176.1860  145.2650 C   0  0  0  0  0  0  0  0  0  0  0  0
  192.0510  175.8290  146.2620 C   0  0  0  0  0  3  0  0  0  0  0  0
  187.0010  177.0990  146.9410 C   0  0  0  0  0  3  0  0  0  0  0  0
  188.9420  175.3690  142.6380 C   0  0  0  0  0  0  0  0  0  0  0  0
  191.3920  176.8440  148.3800 N   0  0  0  0  0  1  0  0  0  0  0  0
  185.8370  177.3790  143.2060 C   0  0  0  0  0  2  0  0  0  0  0  0
  184.9530  178.1200  146.9190 C   0  0  0  0  0  0  0  0  0  0  0  0
  190.1690  175.2090  143.1940 N   0  0  0  0  0  0  0  0  0  0  0  0
  187.9050  175.9620  143.3800 C   0  0  0  0  0  0  0  0  0  0  0  0
  189.7790  176.5990  146.5640 C   0  0  0  0  0  3  0  0  0  0  0  0
  183.8630  178.6060  146.1840 C   0  0  0  0  0  2  0  0  0  0  0  0
  190.4440  175.5960  144.4630 C   0  0  0  0  0  0  0  0  0  0  0  0
  191.7380  175.4190  144.9650 C   0  0  0  0  0  3  0  0  0  0  0  0
  186.5300  176.0960  142.7650 C   0  0  0  0  0  2  0  0  0  0  0  0
  185.8810  177.4650  144.6920 C   0  0  0  0  0  0  0  0  0  0  0  0
  184.9160  178.0170  145.4680 C   0  0  0  0  0  0  0  0  0  0  0  0
  188.7350  174.9330  141.2250 C   0  0  0  0  0  2  0  0  0  0  0  0
  189.6060  172.6700  140.6750 C   0  0  0  0  0  2  0  0  0  0  0  0
  188.4030  173.4450  141.1800 C   0  0  2  0  0  3  0  0  0  0  0  0
  188.3960  172.8250  139.7770 C   0  0  1  0  0  3  0  0  0  0  0  0
  188.7220  173.7890  138.6410 C   0  0  0  0  0  2  0  0  0  0  0  0
  191.1260  173.8450  137.4350 S   0  0  0  0  0  0  0  0  0  0  0  0
  189.6640  173.1460  137.6830 C   0  0  0  0  0  0  0  0  0  0  0  0
  189.2200  172.0030  136.9360 N   0  0  0  0  0  2  0  0  0  0  0  0
  189.9000  170.7530  136.7700 C   0  0  0  0  0  0  0  0  0  0  0  0
  190.6290  170.4580  135.5830 N   0  0  0  0  0  1  0  0  0  0  0  0
  190.0110  169.7380  138.0430 S   0  0  0  0  0  0  0  0  0  0  0  0
  1  9  1  0  0  0  0
  2  5  1  0  0  0  0
  2  3  1  0  0  0  0
  3  7  1  0  0  0  0
  5 14  2  0  0  0  0
  6  1  2  0  0  0  0
  7  4  2  0  0  0  0
  8 12  2  0  0  0  0
  8 13  1  0  0  0  0
 10 19  1  0  0  0  0
 11  4  1  0  0  0  0
 12 16  1  0  0  0  0
 13  2  2  0  0  0  0
 14  1  1  0  0  0  0
 15 11  1  0  0  0  0
 16 17  2  0  0  0  0
 16  5  1  0  0  0  0
 17  6  1  0  0  0  0
 18 10  1  0  0  0  0
 18 13  1  0  0  0  0
 19 20  1  0  0  0  0
 19  3  2  0  0  0  0
 20 15  1  0  0  0  0
 20 11  2  0  0  0  0
 21  8  1  0  0  0  0
 22 23  1  0  0  0  0
 23 21  1  6  0  0  0
 24 25  1  6  0  0  0
 24 22  1  0  0  0  0
 24 23  1  0  0  0  0
 26 27  2  0  0  0  0
 27 25  1  0  0  0  0
 28 27  1  0  0  0  0
 29 28  1  0  0  0  0
 29 31  2  0  0  0  0
 30 29  1  0  0  0  0
M  END
>  <MODEL>
3

>  <REMARK>
 VINA RESULT:      -7.6      4.293      6.427
  Name = 
  6 active torsions:
  status: ('A' for Active; 'I' for Inactive)
    1  A    between atoms: C_1  and  N_24
    2  A    between atoms: C_3  and  C_19
    3  A    between atoms: C_3  and  C_22
    4  A    between atoms: C_9  and  C_23
    5  A    between atoms: C_15  and  C_23
    6  A    between atoms: C_19  and  N_24
                            x       y       z     vdW  Elec       q    Type
                         _______ _______ _______ _____ _____    ______ ____

>  <TORSDO>
F 6

$$$$
=
 OpenBabel11052417463D

 31 36  0  0  1  0  0  0  0  0999 V2000
  191.0530  176.7750  147.4760 C   0  0  0  0  0  0  0  0  0  0  0  0
  188.2630  176.4600  144.9850 C   0  0  0  0  0  0  0  0  0  0  0  0
  187.0660  177.1090  145.6210 C   0  0  0  0  0  0  0  0  0  0  0  0
  185.8690  177.9250  147.7630 C   0  0  0  0  0  3  0  0  0  0  0  0
  189.5350  176.3630  145.6120 C   0  0  0  0  0  0  0  0  0  0  0  0
  192.0920  176.1570  146.7790 C   0  0  0  0  0  3  0  0  0  0  0  0
  186.9790  177.3180  147.0740 C   0  0  0  0  0  3  0  0  0  0  0  0
  189.2170  175.3470  143.0270 C   0  0  0  0  0  0  0  0  0  0  0  0
  191.2820  177.3000  148.7770 N   0  0  0  0  0  1  0  0  0  0  0  0
  186.0310  177.2970  143.2680 C   0  0  0  0  0  2  0  0  0  0  0  0
  184.9100  178.2720  146.8610 C   0  0  0  0  0  0  0  0  0  0  0  0
  190.4130  175.2640  143.6620 N   0  0  0  0  0  0  0  0  0  0  0  0
  188.1220  175.9600  143.6630 C   0  0  0  0  0  0  0  0  0  0  0  0
  189.7870  176.8770  146.8940 C   0  0  0  0  0  3  0  0  0  0  0  0
  183.8530  178.6710  146.0310 C   0  0  0  0  0  2  0  0  0  0  0  0
  190.6020  175.7480  144.9130 C   0  0  0  0  0  0  0  0  0  0  0  0
  191.8680  175.6470  145.5010 C   0  0  0  0  0  3  0  0  0  0  0  0
  186.7830  176.0070  142.9620 C   0  0  0  0  0  2  0  0  0  0  0  0
  185.9850  177.4890  144.7440 C   0  0  0  0  0  0  0  0  0  0  0  0
  184.9610  178.0650  145.4210 C   0  0  0  0  0  0  0  0  0  0  0  0
  189.1050  174.8060  141.6390 C   0  0  0  0  0  2  0  0  0  0  0  0
  189.2090  172.5180  142.6070 C   0  0  0  0  0  2  0  0  0  0  0  0
  188.4450  173.4310  141.6660 C   0  0  2  0  0  3  0  0  0  0  0  0
  189.3060  172.2880  141.1120 C   0  0  1  0  0  3  0  0  0  0  0  0
  190.6900  172.6990  140.6200 C   0  0  0  0  0  2  0  0  0  0  0  0
  191.2540  171.0620  138.5620 S   0  0  0  0  0  0  0  0  0  0  0  0
  190.7790  172.5190  139.1450 C   0  0  0  0  0  0  0  0  0  0  0  0
  190.5480  173.6520  138.2930 N   0  0  0  0  0  2  0  0  0  0  0  0
  189.3810  173.9300  137.5100 C   0  0  0  0  0  0  0  0  0  0  0  0
  188.1060  174.1110  138.1190 N   0  0  0  0  0  1  0  0  0  0  0  0
  189.5530  174.2500  135.9190 S   0  0  0  0  0  0  0  0  0  0  0  0
  1  9  1  0  0  0  0
  2  5  1  0  0  0  0
  2  3  1  0  0  0  0
  3  7  1  0  0  0  0
  5 14  2  0  0  0  0
  6  1  2  0  0  0  0
  7  4  2  0  0  0  0
  8 12  2  0  0  0  0
  8 13  1  0  0  0  0
 10 19  1  0  0  0  0
 11  4  1  0  0  0  0
 12 16  1  0  0  0  0
 13  2  2  0  0  0  0
 14  1  1  0  0  0  0
 15 11  1  0  0  0  0
 16 17  2  0  0  0  0
 16  5  1  0  0  0  0
 17  6  1  0  0  0  0
 18 10  1  0  0  0  0
 18 13  1  0  0  0  0
 19 20  1  0  0  0  0
 19  3  2  0  0  0  0
 20 15  1  0  0  0  0
 20 11  2  0  0  0  0
 21  8  1  0  0  0  0
 23 21  1  6  0  0  0
 23 22  1  0  0  0  0
 24 25  1  6  0  0  0
 24 23  1  0  0  0  0
 24 22  1  0  0  0  0
 26 27  2  0  0  0  0
 27 25  1  0  0  0  0
 28 27  1  0  0  0  0
 29 30  1  0  0  0  0
 29 28  1  0  0  0  0
 31 29  2  0  0  0  0
M  END
>  <MODEL>
4

>  <REMARK>
 VINA RESULT:      -7.6      3.694      6.092
  Name = 
  6 active torsions:
  status: ('A' for Active; 'I' for Inactive)
    1  A    between atoms: C_1  and  N_24
    2  A    between atoms: C_3  and  C_19
    3  A    between atoms: C_3  and  C_22
    4  A    between atoms: C_9  and  C_23
    5  A    between atoms: C_15  and  C_23
    6  A    between atoms: C_19  and  N_24
                            x       y       z     vdW  Elec       q    Type
                         _______ _______ _______ _____ _____    ______ ____

>  <TORSDO>
F 6

$$$$
=
 OpenBabel11052417463D

 31 36  0  0  1  0  0  0  0  0999 V2000
  190.5270  172.3450  140.8250 C   0  0  0  0  0  0  0  0  0  0  0  0
  190.3960  175.5870  142.7120 C   0  0  0  0  0  0  0  0  0  0  0  0
  191.6520  175.6370  143.5340 C   0  0  0  0  0  0  0  0  0  0  0  0
  193.6300  174.3830  144.6310 C   0  0  0  0  0  3  0  0  0  0  0  0
  190.0590  174.5070  141.8510 C   0  0  0  0  0  0  0  0  0  0  0  0
  189.3360  172.4170  140.1030 C   0  0  0  0  0  3  0  0  0  0  0  0
  192.4220  174.4240  143.8480 C   0  0  0  0  0  3  0  0  0  0  0  0
  188.3370  176.7040  142.0090 C   0  0  0  0  0  0  0  0  0  0  0  0
  191.3790  171.2150  140.6810 N   0  0  0  0  0  1  0  0  0  0  0  0
  191.3060  178.1820  143.7420 C   0  0  0  0  0  2  0  0  0  0  0  0
  193.9470  175.6420  145.0420 C   0  0  0  0  0  0  0  0  0  0  0  0
  188.0440  175.6510  141.2060 N   0  0  0  0  0  0  0  0  0  0  0  0
  189.5230  176.7060  142.7640 C   0  0  0  0  0  0  0  0  0  0  0  0
  190.8850  173.3830  141.6890 C   0  0  0  0  0  3  0  0  0  0  0  0
  194.3750  176.8880  145.5240 C   0  0  0  0  0  2  0  0  0  0  0  0
  188.8570  174.5710  141.1040 C   0  0  0  0  0  0  0  0  0  0  0  0
  188.5040  173.5280  140.2410 C   0  0  0  0  0  3  0  0  0  0  0  0
  189.8160  177.8670  143.6890 C   0  0  0  0  0  2  0  0  0  0  0  0
  192.0550  176.9290  144.0350 C   0  0  0  0  0  0  0  0  0  0  0  0
  193.1980  176.8580  144.7600 C   0  0  0  0  0  0  0  0  0  0  0  0
  187.3930  177.8610  142.0420 C   0  0  0  0  0  2  0  0  0  0  0  0
  185.0760  178.5600  142.6150 C   0  0  0  0  0  2  0  0  0  0  0  0
  185.9760  177.3720  142.3310 C   0  0  2  0  0  3  0  0  0  0  0  0
  185.4750  177.6460  143.7550 C   0  0  1  0  0  3  0  0  0  0  0  0
  186.4670  178.3640  144.6650 C   0  0  0  0  0  2  0  0  0  0  0  0
  185.6820  178.5540  147.2300 S   0  0  0  0  0  0  0  0  0  0  0  0
  186.4470  177.7530  146.0220 C   0  0  0  0  0  0  0  0  0  0  0  0
  187.1850  176.5410  146.2470 N   0  0  0  0  0  2  0  0  0  0  0  0
  188.5660  176.4160  146.6070 C   0  0  0  0  0  0  0  0  0  0  0  0
  189.2990  177.5200  147.1290 N   0  0  0  0  0  1  0  0  0  0  0  0
  189.2510  174.9340  146.6130 S   0  0  0  0  0  0  0  0  0  0  0  0
  1 14  1  0  0  0  0
  2 13  2  0  0  0  0
  2  3  1  0  0  0  0
  3  7  2  0  0  0  0
  3 19  1  0  0  0  0
  4 11  2  0  0  0  0
  5  2  1  0  0  0  0
  6 17  1  0  0  0  0
  6  1  2  0  0  0  0
  7  4  1  0  0  0  0
  8 21  1  0  0  0  0
  8 13  1  0  0  0  0
  9  1  1  0  0  0  0
 10 19  1  0  0  0  0
 11 15  1  0  0  0  0
 12  8  2  0  0  0  0
 13 18  1  0  0  0  0
 14  5  2  0  0  0  0
 16 12  1  0  0  0  0
 16  5  1  0  0  0  0
 17 16  2  0  0  0  0
 18 10  1  0  0  0  0
 19 20  2  0  0  0  0
 20 11  1  0  0  0  0
 20 15  1  0  0  0  0
 22 24  1  0  0  0  0
 23 21  1  1  0  0  0
 23 22  1  0  0  0  0
 23 24  1  0  0  0  0
 24 25  1  1  0  0  0
 25 27  1  0  0  0  0
 27 28  1  0  0  0  0
 27 26  2  0  0  0  0
 28 29  1  0  0  0  0
 29 31  2  0  0  0  0
 29 30  1  0  0  0  0
M  END
>  <MODEL>
5

>  <REMARK>
 VINA RESULT:      -7.6      3.058      6.835
  Name = 
  6 active torsions:
  status: ('A' for Active; 'I' for Inactive)
    1  A    between atoms: C_1  and  N_24
    2  A    between atoms: C_3  and  C_19
    3  A    between atoms: C_3  and  C_22
    4  A    between atoms: C_9  and  C_23
    5  A    between atoms: C_15  and  C_23
    6  A    between atoms: C_19  and  N_24
                            x       y       z     vdW  Elec       q    Type
                         _______ _______ _______ _____ _____    ______ ____

>  <TORSDO>
F 6

$$$$
=
 OpenBabel11052417463D

 31 36  0  0  1  0  0  0  0  0999 V2000
  186.8610  176.7420  140.7610 C   0  0  0  0  0  0  0  0  0  0  0  0
  188.0040  176.2860  144.3070 C   0  0  0  0  0  0  0  0  0  0  0  0
  187.1990  177.2530  145.1280 C   0  0  0  0  0  0  0  0  0  0  0  0
  185.7470  179.3900  145.2350 C   0  0  0  0  0  3  0  0  0  0  0  0
  187.8750  176.1490  142.8980 C   0  0  0  0  0  0  0  0  0  0  0  0
  187.6570  175.8000  140.1090 C   0  0  0  0  0  3  0  0  0  0  0  0
  186.5310  178.4150  144.5220 C   0  0  0  0  0  3  0  0  0  0  0  0
  189.6800  174.5060  144.2610 C   0  0  0  0  0  0  0  0  0  0  0  0
  185.9380  177.5290  140.0190 N   0  0  0  0  0  1  0  0  0  0  0  0
  187.7990  175.8500  147.2040 C   0  0  0  0  0  2  0  0  0  0  0  0
  185.7250  179.0750  146.5590 C   0  0  0  0  0  0  0  0  0  0  0  0
  189.5360  174.4100  142.9150 N   0  0  0  0  0  0  0  0  0  0  0  0
  188.9080  175.4290  144.9880 C   0  0  0  0  0  0  0  0  0  0  0  0
  186.9690  176.9120  142.1430 C   0  0  0  0  0  3  0  0  0  0  0  0
  185.6300  178.8530  147.9410 C   0  0  0  0  0  2  0  0  0  0  0  0
  188.6700  175.1900  142.2240 C   0  0  0  0  0  0  0  0  0  0  0  0
  188.5580  175.0250  140.8390 C   0  0  0  0  0  3  0  0  0  0  0  0
  189.1090  175.5550  146.4820 C   0  0  0  0  0  2  0  0  0  0  0  0
  187.1390  177.0130  146.5490 C   0  0  0  0  0  0  0  0  0  0  0  0
  186.3870  177.9420  147.1900 C   0  0  0  0  0  0  0  0  0  0  0  0
  190.6440  173.5910  144.9430 C   0  0  0  0  0  2  0  0  0  0  0  0
  192.7310  172.2650  144.6800 C   0  0  0  0  0  2  0  0  0  0  0  0
  191.7210  173.1400  143.9610 C   0  0  2  0  0  3  0  0  0  0  0  0
  193.1310  173.6650  144.2600 C   0  0  1  0  0  3  0  0  0  0  0  0
  193.2420  174.5560  145.4920 C   0  0  0  0  0  2  0  0  0  0  0  0
  192.5520  176.9820  144.5560 S   0  0  0  0  0  0  0  0  0  0  0  0
  193.6820  175.9220  145.0930 C   0  0  0  0  0  0  0  0  0  0  0  0
  195.0850  176.2260  145.0940 N   0  0  0  0  0  2  0  0  0  0  0  0
  196.0590  175.8470  144.1130 C   0  0  0  0  0  0  0  0  0  0  0  0
  196.3690  176.6930  143.0110 N   0  0  0  0  0  1  0  0  0  0  0  0
  196.9740  174.5210  144.3780 S   0  0  0  0  0  0  0  0  0  0  0  0
  1 14  1  0  0  0  0
  2 13  2  0  0  0  0
  2  3  1  0  0  0  0
  3 19  1  0  0  0  0
  4 11  2  0  0  0  0
  5  2  1  0  0  0  0
  6  1  2  0  0  0  0
  6 17  1  0  0  0  0
  7  3  2  0  0  0  0
  7  4  1  0  0  0  0
  8 21  1  0  0  0  0
  8 13  1  0  0  0  0
  9  1  1  0  0  0  0
 11 20  1  0  0  0  0
 11 15  1  0  0  0  0
 12  8  2  0  0  0  0
 13 18  1  0  0  0  0
 14  5  2  0  0  0  0
 16  5  1  0  0  0  0
 16 12  1  0  0  0  0
 17 16  2  0  0  0  0
 18 10  1  0  0  0  0
 19 20  2  0  0  0  0
 19 10  1  0  0  0  0
 20 15  1  0  0  0  0
 23 24  1  0  0  0  0
 23 22  1  0  0  0  0
 23 21  1  1  0  0  0
 24 22  1  0  0  0  0
 24 25  1  1  0  0  0
 26 27  2  0  0  0  0
 27 28  1  0  0  0  0
 27 25  1  0  0  0  0
 29 31  2  0  0  0  0
 29 28  1  0  0  0  0
 30 29  1  0  0  0  0
M  END
>  <MODEL>
6

>  <REMARK>
 VINA RESULT:      -7.5      1.841      2.304
  Name = 
  6 active torsions:
  status: ('A' for Active; 'I' for Inactive)
    1  A    between atoms: C_1  and  N_24
    2  A    between atoms: C_3  and  C_19
    3  A    between atoms: C_3  and  C_22
    4  A    between atoms: C_9  and  C_23
    5  A    between atoms: C_15  and  C_23
    6  A    between atoms: C_19  and  N_24
                            x       y       z     vdW  Elec       q    Type
                         _______ _______ _______ _____ _____    ______ ____

>  <TORSDO>
F 6

$$$$
=
 OpenBabel11052417463D

 31 36  0  0  1  0  0  0  0  0999 V2000
  188.4640  174.7760  140.7150 C   0  0  0  0  0  0  0  0  0  0  0  0
  188.1760  176.0890  144.2200 C   0  0  0  0  0  0  0  0  0  0  0  0
  186.9210  176.9140  144.2500 C   0  0  0  0  0  0  0  0  0  0  0  0
  185.1140  178.2410  142.9620 C   0  0  0  0  0  3  0  0  0  0  0  0
  188.6510  175.4160  143.0610 C   0  0  0  0  0  0  0  0  0  0  0  0
  189.6390  174.0310  140.8130 C   0  0  0  0  0  3  0  0  0  0  0  0
  186.3100  177.4410  143.0200 C   0  0  0  0  0  3  0  0  0  0  0  0
  190.0800  175.1720  145.4510 C   0  0  0  0  0  0  0  0  0  0  0  0
  187.7630  174.8400  139.4800 N   0  0  0  0  0  1  0  0  0  0  0  0
  186.9410  176.6840  146.8170 C   0  0  0  0  0  2  0  0  0  0  0  0
  184.6380  178.4400  144.2220 C   0  0  0  0  0  0  0  0  0  0  0  0
  190.5060  174.5520  144.3230 N   0  0  0  0  0  0  0  0  0  0  0  0
  188.9010  175.9370  145.4320 C   0  0  0  0  0  0  0  0  0  0  0  0
  187.9750  175.4600  141.8310 C   0  0  0  0  0  3  0  0  0  0  0  0
  184.0550  178.7130  145.4670 C   0  0  0  0  0  2  0  0  0  0  0  0
  189.8370  174.6480  143.1480 C   0  0  0  0  0  0  0  0  0  0  0  0
  190.3230  173.9660  142.0280 C   0  0  0  0  0  3  0  0  0  0  0  0
  188.4590  176.6590  146.6860 C   0  0  0  0  0  2  0  0  0  0  0  0
  186.3560  177.1970  145.5470 C   0  0  0  0  0  0  0  0  0  0  0  0
  185.2280  177.9440  145.4570 C   0  0  0  0  0  0  0  0  0  0  0  0
  190.8700  174.9930  146.7070 C   0  0  0  0  0  2  0  0  0  0  0  0
  192.3600  176.6370  145.5850 C   0  0  0  0  0  2  0  0  0  0  0  0
  191.7920  176.1910  146.9190 C   0  0  2  0  0  3  0  0  0  0  0  0
  193.2660  175.9400  146.5780 C   0  0  1  0  0  3  0  0  0  0  0  0
  193.5870  174.5350  146.0800 C   0  0  0  0  0  2  0  0  0  0  0  0
  195.7590  173.0820  145.4420 S   0  0  0  0  0  0  0  0  0  0  0  0
  194.9500  174.5070  145.4810 C   0  0  0  0  0  0  0  0  0  0  0  0
  195.5450  175.7430  145.0550 N   0  0  0  0  0  2  0  0  0  0  0  0
  195.7120  176.2130  143.7120 C   0  0  0  0  0  0  0  0  0  0  0  0
  196.9030  176.8770  143.3020 N   0  0  0  0  0  1  0  0  0  0  0  0
  194.6070  175.7960  142.5850 S   0  0  0  0  0  0  0  0  0  0  0  0
  1  6  2  0  0  0  0
  1 14  1  0  0  0  0
  2  3  1  0  0  0  0
  2 13  2  0  0  0  0
  3 19  1  0  0  0  0
  4  7  1  0  0  0  0
  4 11  2  0  0  0  0
  5 16  1  0  0  0  0
  5  2  1  0  0  0  0
  6 17  1  0  0  0  0
  7  3  2  0  0  0  0
  8 21  1  0  0  0  0
  9  1  1  0  0  0  0
 11 20  1  0  0  0  0
 11 15  1  0  0  0  0
 12  8  2  0  0  0  0
 13  8  1  0  0  0  0
 13 18  1  0  0  0  0
 14  5  2  0  0  0  0
 16 12  1  0  0  0  0
 17 16  2  0  0  0  0
 18 10  1  0  0  0  0
 19 10  1  0  0  0  0
 20 15  1  0  0  0  0
 20 19  2  0  0  0  0
 22 24  1  0  0  0  0
 22 23  1  0  0  0  0
 23 21  1  6  0  0  0
 24 25  1  6  0  0  0
 24 23  1  0  0  0  0
 26 27  2  0  0  0  0
 27 25  1  0  0  0  0
 28 27  1  0  0  0  0
 29 28  1  0  0  0  0
 30 29  1  0  0  0  0
 31 29  2  0  0  0  0
M  END
>  <MODEL>
7

>  <REMARK>
 VINA RESULT:      -7.5      2.191      3.348
  Name = 
  6 active torsions:
  status: ('A' for Active; 'I' for Inactive)
    1  A    between atoms: C_1  and  N_24
    2  A    between atoms: C_3  and  C_19
    3  A    between atoms: C_3  and  C_22
    4  A    between atoms: C_9  and  C_23
    5  A    between atoms: C_15  and  C_23
    6  A    between atoms: C_19  and  N_24
                            x       y       z     vdW  Elec       q    Type
                         _______ _______ _______ _____ _____    ______ ____

>  <TORSDO>
F 6

$$$$
=
 OpenBabel11052417463D

 31 36  0  0  1  0  0  0  0  0999 V2000
  185.0540  178.1760  146.6980 C   0  0  0  0  0  0  0  0  0  0  0  0
  187.3670  176.4440  144.3020 C   0  0  0  0  0  0  0  0  0  0  0  0
  186.9020  176.8310  142.9270 C   0  0  0  0  0  0  0  0  0  0  0  0
  185.0200  177.7310  141.3990 C   0  0  0  0  0  3  0  0  0  0  0  0
  186.7460  176.8910  145.5000 C   0  0  0  0  0  0  0  0  0  0  0  0
  185.5830  177.7570  147.9190 C   0  0  0  0  0  3  0  0  0  0  0  0
  185.5450  177.3440  142.6830 C   0  0  0  0  0  3  0  0  0  0  0  0
  188.9950  175.2410  145.6740 C   0  0  0  0  0  0  0  0  0  0  0  0
  183.9250  179.0400  146.6720 N   0  0  0  0  0  1  0  0  0  0  0  0
  189.2200  176.1290  142.0460 C   0  0  0  0  0  2  0  0  0  0  0  0
  185.9720  177.5440  140.4440 C   0  0  0  0  0  0  0  0  0  0  0  0
  188.3690  175.6790  146.7950 N   0  0  0  0  0  0  0  0  0  0  0  0
  188.5230  175.6250  144.4070 C   0  0  0  0  0  0  0  0  0  0  0  0
  185.6320  177.7480  145.5010 C   0  0  0  0  0  3  0  0  0  0  0  0
  186.8670  177.3940  139.3750 C   0  0  0  0  0  2  0  0  0  0  0  0
  187.2780  176.4810  146.7460 C   0  0  0  0  0  0  0  0  0  0  0  0
  186.6940  176.9130  147.9430 C   0  0  0  0  0  3  0  0  0  0  0  0
  189.2030  175.0950  143.1650 C   0  0  0  0  0  2  0  0  0  0  0  0
  187.8370  176.6440  141.8450 C   0  0  0  0  0  0  0  0  0  0  0  0
  187.3160  177.0260  140.6520 C   0  0  0  0  0  0  0  0  0  0  0  0
  190.2050  174.3770  145.8230 C   0  0  0  0  0  2  0  0  0  0  0  0
  191.9860  176.1100  145.7280 C   0  0  0  0  0  2  0  0  0  0  0  0
  191.2760  175.1120  146.6240 C   0  0  2  0  0  3  0  0  0  0  0  0
  192.7170  174.8570  146.1640 C   0  0  1  0  0  3  0  0  0  0  0  0
  192.8610  173.9100  144.9770 C   0  0  0  0  0  2  0  0  0  0  0  0
  193.0390  174.7100  142.4160 S   0  0  0  0  0  0  0  0  0  0  0  0
  193.6840  174.5480  143.9140 C   0  0  0  0  0  0  0  0  0  0  0  0
  195.0450  174.9020  144.2090 N   0  0  0  0  0  2  0  0  0  0  0  0
  195.6460  176.2000  144.1240 C   0  0  0  0  0  0  0  0  0  0  0  0
  195.2930  177.2420  145.0280 N   0  0  0  0  0  1  0  0  0  0  0  0
  196.9030  176.4240  143.1070 S   0  0  0  0  0  0  0  0  0  0  0  0
  1  6  1  0  0  0  0
  2 13  2  0  0  0  0
  2  5  1  0  0  0  0
  3  2  1  0  0  0  0
  4  7  2  0  0  0  0
  5 14  1  0  0  0  0
  5 16  2  0  0  0  0
  6 17  2  0  0  0  0
  7  3  1  0  0  0  0
  8 21  1  0  0  0  0
  8 12  2  0  0  0  0
  9  1  1  0  0  0  0
 10 18  1  0  0  0  0
 11 20  2  0  0  0  0
 11  4  1  0  0  0  0
 13  8  1  0  0  0  0
 14  1  2  0  0  0  0
 15 11  1  0  0  0  0
 15 20  1  0  0  0  0
 16 12  1  0  0  0  0
 16 17  1  0  0  0  0
 18 13  1  0  0  0  0
 19 10  1  0  0  0  0
 19  3  2  0  0  0  0
 20 19  1  0  0  0  0
 22 24  1  0  0  0  0
 22 23  1  0  0  0  0
 23 21  1  6  0  0  0
 24 25  1  6  0  0  0
 24 23  1  0  0  0  0
 26 27  2  0  0  0  0
 27 28  1  0  0  0  0
 27 25  1  0  0  0  0
 29 28  1  0  0  0  0
 29 30  1  0  0  0  0
 31 29  2  0  0  0  0
M  END
>  <MODEL>
8

>  <REMARK>
 VINA RESULT:      -7.4      2.100      4.615
  Name = 
  6 active torsions:
  status: ('A' for Active; 'I' for Inactive)
    1  A    between atoms: C_1  and  N_24
    2  A    between atoms: C_3  and  C_19
    3  A    between atoms: C_3  and  C_22
    4  A    between atoms: C_9  and  C_23
    5  A    between atoms: C_15  and  C_23
    6  A    between atoms: C_19  and  N_24
                            x       y       z     vdW  Elec       q    Type
                         _______ _______ _______ _____ _____    ______ ____

>  <TORSDO>
F 6

$$$$
=
 OpenBabel11052417463D

 31 36  0  0  1  0  0  0  0  0999 V2000
  190.9190  171.1650  142.7520 C   0  0  0  0  0  0  0  0  0  0  0  0
  192.2840  173.9550  144.8600 C   0  0  0  0  0  0  0  0  0  0  0  0
  193.6920  173.5610  145.2060 C   0  0  0  0  0  0  0  0  0  0  0  0
  195.4740  171.7020  145.4430 C   0  0  0  0  0  3  0  0  0  0  0  0
  191.4120  173.1570  144.0710 C   0  0  0  0  0  0  0  0  0  0  0  0
  189.6350  171.6430  142.4900 C   0  0  0  0  0  3  0  0  0  0  0  0
  194.1470  172.1650  145.1250 C   0  0  0  0  0  3  0  0  0  0  0  0
  190.5090  175.6310  145.0070 C   0  0  0  0  0  0  0  0  0  0  0  0
  191.3330  169.9120  142.2240 N   0  0  0  0  0  1  0  0  0  0  0  0
  194.1540  176.0360  145.7510 C   0  0  0  0  0  2  0  0  0  0  0  0
  196.2410  172.7570  145.8340 C   0  0  0  0  0  0  0  0  0  0  0  0
  189.7030  174.8380  144.2590 N   0  0  0  0  0  0  0  0  0  0  0  0
  191.8190  175.2200  145.3100 C   0  0  0  0  0  0  0  0  0  0  0  0
  191.7990  171.9180  143.5340 C   0  0  0  0  0  3  0  0  0  0  0  0
  197.1260  173.7600  146.2540 C   0  0  0  0  0  2  0  0  0  0  0  0
  190.1090  173.6340  143.7880 C   0  0  0  0  0  0  0  0  0  0  0  0
  189.2320  172.8750  143.0050 C   0  0  0  0  0  3  0  0  0  0  0  0
  192.6930  176.0940  146.1810 C   0  0  0  0  0  2  0  0  0  0  0  0
  194.5730  174.6110  145.6560 C   0  0  0  0  0  0  0  0  0  0  0  0
  195.8150  174.1450  145.9370 C   0  0  0  0  0  0  0  0  0  0  0  0
  189.9840  176.9530  145.4670 C   0  0  0  0  0  2  0  0  0  0  0  0
  188.5020  175.5800  146.9160 C   0  0  0  0  0  2  0  0  0  0  0  0
  189.3780  176.8180  146.8600 C   0  0  2  0  0  3  0  0  0  0  0  0
  187.8500  176.9480  146.9160 C   0  0  1  0  0  3  0  0  0  0  0  0
  187.1700  177.1910  145.5730 C   0  0  0  0  0  2  0  0  0  0  0  0
  185.3410  178.4940  147.0520 S   0  0  0  0  0  0  0  0  0  0  0  0
  186.2250  178.3360  145.6820 C   0  0  0  0  0  0  0  0  0  0  0  0
  186.0460  179.1970  144.5460 N   0  0  0  0  0  2  0  0  0  0  0  0
  185.7270  178.8130  143.2030 C   0  0  0  0  0  0  0  0  0  0  0  0
  186.7260  178.7530  142.1910 N   0  0  0  0  0  1  0  0  0  0  0  0
  184.2340  178.2360  142.8790 S   0  0  0  0  0  0  0  0  0  0  0  0
  1 14  1  0  0  0  0
  2  3  1  0  0  0  0
  2 13  2  0  0  0  0
  3 19  1  0  0  0  0
  4 11  2  0  0  0  0
  5  2  1  0  0  0  0
  6  1  2  0  0  0  0
  6 17  1  0  0  0  0
  7  3  2  0  0  0  0
  7  4  1  0  0  0  0
  8 13  1  0  0  0  0
  8 21  1  0  0  0  0
  9  1  1  0  0  0  0
 10 18  1  0  0  0  0
 11 20  1  0  0  0  0
 11 15  1  0  0  0  0
 12  8  2  0  0  0  0
 13 18  1  0  0  0  0
 14  5  2  0  0  0  0
 16  5  1  0  0  0  0
 16 12  1  0  0  0  0
 17 16  2  0  0  0  0
 19 10  1  0  0  0  0
 19 20  2  0  0  0  0
 20 15  1  0  0  0  0
 22 24  1  0  0  0  0
 23 21  1  6  0  0  0
 23 22  1  0  0  0  0
 23 24  1  0  0  0  0
 24 25  1  6  0  0  0
 25 27  1  0  0  0  0
 27 26  2  0  0  0  0
 28 27  1  0  0  0  0
 29 28  1  0  0  0  0
 30 29  1  0  0  0  0
 31 29  2  0  0  0  0
M  END
>  <MODEL>
9

>  <REMARK>
 VINA RESULT:      -7.3      3.760      8.474
  Name = 
  6 active torsions:
  status: ('A' for Active; 'I' for Inactive)
    1  A    between atoms: C_1  and  N_24
    2  A    between atoms: C_3  and  C_19
    3  A    between atoms: C_3  and  C_22
    4  A    between atoms: C_9  and  C_23
    5  A    between atoms: C_15  and  C_23
    6  A    between atoms: C_19  and  N_24
                            x       y       z     vdW  Elec       q    Type
                         _______ _______ _______ _____ _____    ______ ____

>  <TORSDO>
F 6

$$$$
