=
 OpenBabel11052418033D

 28 30  0  0  1  0  0  0  0  0999 V2000
  189.4640  175.9710  143.3410 C   0  0  2  0  0  3  0  0  0  0  0  0
  187.1080  175.6040  141.7550 C   0  0  0  0  0  2  0  0  0  0  0  0
  189.8510  178.0200  142.2000 O   0  0  0  0  0  0  0  0  0  0  0  0
  188.0050  174.4350  142.0620 C   0  0  0  0  0  3  0  0  0  0  0  0
  187.9300  176.8630  141.4170 C   0  0  2  0  0  3  0  0  0  0  0  0
  189.1050  174.6080  142.8090 C   0  0  0  0  0  3  0  0  0  0  0  0
  189.1460  177.0280  142.3100 C   0  0  0  0  0  0  0  0  0  0  0  0
  190.8210  176.0000  143.6850 O   0  0  0  0  0  0  0  0  0  0  0  0
  190.8590  175.6920  145.0510 C   0  0  2  0  0  3  0  0  0  0  0  0
  192.2730  176.4930  147.4880 N   0  0  0  0  0  2  0  0  0  0  0  0
  190.5010  176.9350  145.8700 C   0  0  0  0  0  2  0  0  0  0  0  0
  192.9500  174.6420  144.6180 O   0  0  0  0  0  0  0  0  0  0  0  0
  192.2220  175.1760  145.4400 C   0  0  0  0  0  0  0  0  0  0  0  0
  192.6180  175.2040  146.8870 C   0  0  0  0  0  2  0  0  0  0  0  0
  190.8350  176.7160  147.3430 C   0  0  0  0  0  2  0  0  0  0  0  0
  187.0890  178.0650  141.3990 N   0  0  0  0  0  2  0  0  0  0  0  0
  185.6730  177.7030  141.4350 C   0  0  0  0  0  2  0  0  0  0  0  0
  184.0740  177.7270  143.2050 F   0  0  0  0  0  0  0  0  0  0  0  0
  184.9300  178.5340  142.4720 C   0  0  1  0  0  3  0  0  0  0  0  0
  185.9090  179.2550  143.3940 C   0  0  0  0  0  2  0  0  0  0  0  0
  185.3200  179.4790  145.8670 C   0  0  0  0  0  2  0  0  0  0  0  0
  186.5820  177.4730  144.9130 C   0  0  0  0  0  3  0  0  0  0  0  0
  186.4830  178.4890  147.8260 C   0  0  0  0  0  0  0  0  0  0  0  0
  185.9190  178.6390  144.7570 C   0  0  0  0  0  0  0  0  0  0  0  0
  187.2260  177.5000  147.3250 C   0  0  0  0  0  3  0  0  0  0  0  0
  186.7310  176.6740  146.1790 C   0  0  0  0  0  2  0  0  0  0  0  0
  186.9350  179.1940  148.8970 F   0  0  0  0  0  0  0  0  0  0  0  0
  185.1480  178.8140  147.2300 C   0  0  0  0  0  2  0  0  0  0  0  0
  1  8  1  6  0  0  0
  2  4  1  0  0  0  0
  3  7  2  0  0  0  0
  4  6  2  0  0  0  0
  5 16  1  1  0  0  0
  5  2  1  0  0  0  0
  5  7  1  0  0  0  0
  6  1  1  0  0  0  0
  7  1  1  0  0  0  0
  9  8  1  6  0  0  0
  9 13  1  0  0  0  0
  9 11  1  0  0  0  0
 11 15  1  0  0  0  0
 12 13  2  0  0  0  0
 13 14  1  0  0  0  0
 14 10  1  0  0  0  0
 15 10  1  0  0  0  0
 16 17  1  0  0  0  0
 17 19  1  0  0  0  0
 19 18  1  1  0  0  0
 19 20  1  0  0  0  0
 20 24  1  0  0  0  0
 21 28  1  0  0  0  0
 22 26  1  0  0  0  0
 23 27  1  0  0  0  0
 24 22  2  0  0  0  0
 24 21  1  0  0  0  0
 25 23  2  0  0  0  0
 26 25  1  0  0  0  0
 28 23  1  0  0  0  0
M  END
>  <MODEL>
1

>  <REMARK>
 VINA RESULT:      -7.1      0.000      0.000
  Name = 
  7 active torsions:
  status: ('A' for Active; 'I' for Inactive)
    1  A    between atoms: C_1  and  O_2
    2  A    between atoms: O_2  and  C_3
    3  A    between atoms: N_5  and  C_20
    4  A    between atoms: N_5  and  C_21
    5  A    between atoms: C_10  and  C_13
    6  A    between atoms: C_10  and  C_25
    7  A    between atoms: C_20  and  C_25
                            x       y       z     vdW  Elec       q    Type
                         _______ _______ _______ _____ _____    ______ ____

>  <TORSDO>
F 7

$$$$
=
 OpenBabel11052418033D

 28 30  0  0  1  0  0  0  0  0999 V2000
  188.3760  177.1900  143.4080 C   0  0  2  0  0  3  0  0  0  0  0  0
  190.7160  175.7930  142.5290 C   0  0  0  0  0  2  0  0  0  0  0  0
  187.1620  176.1690  141.6380 O   0  0  0  0  0  0  0  0  0  0  0  0
  190.8140  177.2220  142.9900 C   0  0  0  0  0  3  0  0  0  0  0  0
  189.4620  175.5740  141.6590 C   0  0  2  0  0  3  0  0  0  0  0  0
  189.7190  177.8730  143.4060 C   0  0  0  0  0  3  0  0  0  0  0  0
  188.2440  176.3070  142.1890 C   0  0  0  0  0  0  0  0  0  0  0  0
  187.3590  178.1520  143.4410 O   0  0  0  0  0  0  0  0  0  0  0  0
  186.9520  178.2100  144.7800 C   0  0  2  0  0  3  0  0  0  0  0  0
  184.6570  177.5010  146.4560 N   0  0  0  0  0  2  0  0  0  0  0  0
  186.6850  176.7940  145.2990 C   0  0  0  0  0  2  0  0  0  0  0  0
  185.4680  179.9470  144.1150 O   0  0  0  0  0  0  0  0  0  0  0  0
  185.7200  179.0670  144.9240 C   0  0  0  0  0  0  0  0  0  0  0  0
  184.8750  178.9160  146.1550 C   0  0  0  0  0  2  0  0  0  0  0  0
  185.9530  176.8480  146.6370 C   0  0  0  0  0  2  0  0  0  0  0  0
  189.1990  174.1470  141.4440 N   0  0  0  0  0  2  0  0  0  0  0  0
  190.1400  173.3300  142.2090 C   0  0  0  0  0  2  0  0  0  0  0  0
  188.6790  171.8050  143.3170 F   0  0  0  0  0  0  0  0  0  0  0  0
  189.5210  172.8860  143.5270 C   0  0  1  0  0  3  0  0  0  0  0  0
  190.6030  172.5340  144.5450 C   0  0  0  0  0  2  0  0  0  0  0  0
  189.5430  174.2070  146.1540 C   0  0  0  0  0  2  0  0  0  0  0  0
  192.0480  174.1520  145.6540 C   0  0  0  0  0  3  0  0  0  0  0  0
  190.3500  176.4720  146.7780 C   0  0  0  0  0  0  0  0  0  0  0  0
  190.8030  173.6470  145.5250 C   0  0  0  0  0  0  0  0  0  0  0  0
  191.6380  176.4900  146.4280 C   0  0  0  0  0  3  0  0  0  0  0  0
  192.4880  175.2650  146.5660 C   0  0  0  0  0  2  0  0  0  0  0  0
  189.6130  177.6100  146.6870 F   0  0  0  0  0  0  0  0  0  0  0  0
  189.7190  175.2140  147.2880 C   0  0  0  0  0  2  0  0  0  0  0  0
  1  8  1  6  0  0  0
  2  4  1  0  0  0  0
  3  7  2  0  0  0  0
  4  6  2  0  0  0  0
  5 16  1  1  0  0  0
  5  7  1  0  0  0  0
  5  2  1  0  0  0  0
  6  1  1  0  0  0  0
  7  1  1  0  0  0  0
  9  8  1  6  0  0  0
  9 13  1  0  0  0  0
  9 11  1  0  0  0  0
 10 15  1  0  0  0  0
 11 15  1  0  0  0  0
 12 13  2  0  0  0  0
 13 14  1  0  0  0  0
 14 10  1  0  0  0  0
 16 17  1  0  0  0  0
 17 19  1  0  0  0  0
 19 18  1  6  0  0  0
 19 20  1  0  0  0  0
 20 24  1  0  0  0  0
 21 28  1  0  0  0  0
 22 26  1  0  0  0  0
 23 28  1  0  0  0  0
 24 22  2  0  0  0  0
 24 21  1  0  0  0  0
 25 26  1  0  0  0  0
 25 23  2  0  0  0  0
 27 23  1  0  0  0  0
M  END
>  <MODEL>
2

>  <REMARK>
 VINA RESULT:      -7.0      2.960      5.715
  Name = 
  7 active torsions:
  status: ('A' for Active; 'I' for Inactive)
    1  A    between atoms: C_1  and  O_2
    2  A    between atoms: O_2  and  C_3
    3  A    between atoms: N_5  and  C_20
    4  A    between atoms: N_5  and  C_21
    5  A    between atoms: C_10  and  C_13
    6  A    between atoms: C_10  and  C_25
    7  A    between atoms: C_20  and  C_25
                            x       y       z     vdW  Elec       q    Type
                         _______ _______ _______ _____ _____    ______ ____

>  <TORSDO>
F 7

$$$$
=
 OpenBabel11052418033D

 28 30  0  0  1  0  0  0  0  0999 V2000
  188.5890  177.0600  146.7640 C   0  0  2  0  0  3  0  0  0  0  0  0
  190.4810  174.9240  147.0080 C   0  0  0  0  0  2  0  0  0  0  0  0
  190.0770  178.4510  147.9890 O   0  0  0  0  0  0  0  0  0  0  0  0
  189.0080  174.6520  147.1500 C   0  0  0  0  0  3  0  0  0  0  0  0
  190.8770  176.2300  147.7250 C   0  0  2  0  0  3  0  0  0  0  0  0
  188.1230  175.6520  147.0310 C   0  0  0  0  0  3  0  0  0  0  0  0
  189.8590  177.3380  147.5330 C   0  0  0  0  0  0  0  0  0  0  0  0
  187.5800  177.9650  147.1180 O   0  0  0  0  0  0  0  0  0  0  0  0
  186.5310  177.7130  146.2260 C   0  0  2  0  0  3  0  0  0  0  0  0
  184.6490  179.1650  144.5140 N   0  0  0  0  0  2  0  0  0  0  0  0
  186.8900  178.2570  144.8410 C   0  0  0  0  0  2  0  0  0  0  0  0
  185.0740  178.5450  147.9130 O   0  0  0  0  0  0  0  0  0  0  0  0
  185.2510  178.3350  146.7230 C   0  0  0  0  0  0  0  0  0  0  0  0
  184.1350  178.5690  145.7480 C   0  0  0  0  0  2  0  0  0  0  0  0
  185.6580  178.2750  143.9410 C   0  0  0  0  0  2  0  0  0  0  0  0
  192.2320  176.6540  147.3570 N   0  0  0  0  0  2  0  0  0  0  0  0
  192.9220  175.5950  146.6220 C   0  0  0  0  0  2  0  0  0  0  0  0
  194.9850  175.8940  145.4650 F   0  0  0  0  0  0  0  0  0  0  0  0
  193.6270  176.1590  145.3970 C   0  0  1  0  0  3  0  0  0  0  0  0
  193.0310  175.5860  144.1140 C   0  0  0  0  0  2  0  0  0  0  0  0
  190.6040  175.1190  143.4790 C   0  0  0  0  0  2  0  0  0  0  0  0
  191.5160  177.4760  143.8540 C   0  0  0  0  0  3  0  0  0  0  0  0
  189.0120  176.5990  142.2770 C   0  0  0  0  0  0  0  0  0  0  0  0
  191.6620  176.1340  143.8640 C   0  0  0  0  0  0  0  0  0  0  0  0
  189.5310  177.8240  142.3800 C   0  0  0  0  0  3  0  0  0  0  0  0
  190.2480  178.2510  143.6240 C   0  0  0  0  0  2  0  0  0  0  0  0
  188.3250  176.2520  141.1570 F   0  0  0  0  0  0  0  0  0  0  0  0
  189.1630  175.6140  143.3950 C   0  0  0  0  0  2  0  0  0  0  0  0
  1  6  1  0  0  0  0
  1  8  1  1  0  0  0
  1  7  1  0  0  0  0
  2  4  1  0  0  0  0
  2  5  1  0  0  0  0
  5 16  1  6  0  0  0
  6  4  2  0  0  0  0
  7  5  1  0  0  0  0
  7  3  2  0  0  0  0
  9 13  1  0  0  0  0
  9  8  1  1  0  0  0
 10 14  1  0  0  0  0
 11  9  1  0  0  0  0
 13 12  2  0  0  0  0
 14 13  1  0  0  0  0
 15 10  1  0  0  0  0
 15 11  1  0  0  0  0
 17 16  1  0  0  0  0
 19 18  1  1  0  0  0
 19 17  1  0  0  0  0
 20 19  1  0  0  0  0
 21 24  1  0  0  0  0
 22 24  2  0  0  0  0
 23 25  2  0  0  0  0
 23 28  1  0  0  0  0
 24 20  1  0  0  0  0
 25 26  1  0  0  0  0
 26 22  1  0  0  0  0
 27 23  1  0  0  0  0
 28 21  1  0  0  0  0
M  END
>  <MODEL>
3

>  <REMARK>
 VINA RESULT:      -7.0      3.168      7.010
  Name = 
  7 active torsions:
  status: ('A' for Active; 'I' for Inactive)
    1  A    between atoms: C_1  and  O_2
    2  A    between atoms: O_2  and  C_3
    3  A    between atoms: N_5  and  C_20
    4  A    between atoms: N_5  and  C_21
    5  A    between atoms: C_10  and  C_13
    6  A    between atoms: C_10  and  C_25
    7  A    between atoms: C_20  and  C_25
                            x       y       z     vdW  Elec       q    Type
                         _______ _______ _______ _____ _____    ______ ____

>  <TORSDO>
F 7

$$$$
=
 OpenBabel11052418033D

 28 30  0  0  1  0  0  0  0  0999 V2000
  186.7380  177.0280  141.5880 C   0  0  2  0  0  3  0  0  0  0  0  0
  184.5560  178.6170  142.5460 C   0  0  0  0  0  2  0  0  0  0  0  0
  188.1990  178.2880  142.9770 O   0  0  0  0  0  0  0  0  0  0  0  0
  184.6310  178.2280  141.0950 C   0  0  0  0  0  3  0  0  0  0  0  0
  185.9420  179.0220  143.0860 C   0  0  2  0  0  3  0  0  0  0  0  0
  185.6500  177.4810  140.6490 C   0  0  0  0  0  3  0  0  0  0  0  0
  187.0560  178.1260  142.5760 C   0  0  0  0  0  0  0  0  0  0  0  0
  187.8750  176.6700  140.8550 O   0  0  0  0  0  0  0  0  0  0  0  0
  188.1180  175.3310  141.1840 C   0  0  2  0  0  3  0  0  0  0  0  0
  190.2300  173.3140  140.9520 N   0  0  0  0  0  2  0  0  0  0  0  0
  189.3150  175.2420  142.1350 C   0  0  0  0  0  2  0  0  0  0  0  0
  187.9180  174.8620  138.8600 O   0  0  0  0  0  0  0  0  0  0  0  0
  188.3690  174.5160  139.9400 C   0  0  0  0  0  0  0  0  0  0  0  0
  189.0670  173.1940  140.0720 C   0  0  0  0  0  2  0  0  0  0  0  0
  189.7880  173.7970  142.2600 C   0  0  0  0  0  2  0  0  0  0  0  0
  185.9400  179.1230  144.5490 N   0  0  0  0  0  2  0  0  0  0  0  0
  184.9760  178.1890  145.1290 C   0  0  0  0  0  2  0  0  0  0  0  0
  186.2570  176.1920  144.8900 F   0  0  0  0  0  0  0  0  0  0  0  0
  185.6900  177.0400  145.8280 C   0  0  1  0  0  3  0  0  0  0  0  0
  186.7520  177.5650  146.7890 C   0  0  0  0  0  2  0  0  0  0  0  0
  188.2080  175.5340  147.3060 C   0  0  0  0  0  2  0  0  0  0  0  0
  189.0280  177.5180  145.9210 C   0  0  0  0  0  3  0  0  0  0  0  0
  190.6850  175.4060  147.4460 C   0  0  0  0  0  0  0  0  0  0  0  0
  188.0570  176.8600  146.5890 C   0  0  0  0  0  0  0  0  0  0  0  0
  191.1250  176.4940  146.8100 C   0  0  0  0  0  3  0  0  0  0  0  0
  190.4110  177.0180  145.6020 C   0  0  0  0  0  2  0  0  0  0  0  0
  191.3780  174.9240  148.5110 F   0  0  0  0  0  0  0  0  0  0  0  0
  189.4470  174.7040  146.9810 C   0  0  0  0  0  2  0  0  0  0  0  0
  1  8  1  6  0  0  0
  1  7  1  0  0  0  0
  2  5  1  0  0  0  0
  4  2  1  0  0  0  0
  5 16  1  1  0  0  0
  6  4  2  0  0  0  0
  6  1  1  0  0  0  0
  7  3  2  0  0  0  0
  7  5  1  0  0  0  0
  9  8  1  6  0  0  0
  9 11  1  0  0  0  0
 10 15  1  0  0  0  0
 11 15  1  0  0  0  0
 12 13  2  0  0  0  0
 13 14  1  0  0  0  0
 13  9  1  0  0  0  0
 14 10  1  0  0  0  0
 16 17  1  0  0  0  0
 17 19  1  0  0  0  0
 19 18  1  6  0  0  0
 19 20  1  0  0  0  0
 22 24  2  0  0  0  0
 23 27  1  0  0  0  0
 24 20  1  0  0  0  0
 24 21  1  0  0  0  0
 25 23  2  0  0  0  0
 26 22  1  0  0  0  0
 26 25  1  0  0  0  0
 28 21  1  0  0  0  0
 28 23  1  0  0  0  0
M  END
>  <MODEL>
4

>  <REMARK>
 VINA RESULT:      -6.9      2.636      4.850
  Name = 
  7 active torsions:
  status: ('A' for Active; 'I' for Inactive)
    1  A    between atoms: C_1  and  O_2
    2  A    between atoms: O_2  and  C_3
    3  A    between atoms: N_5  and  C_20
    4  A    between atoms: N_5  and  C_21
    5  A    between atoms: C_10  and  C_13
    6  A    between atoms: C_10  and  C_25
    7  A    between atoms: C_20  and  C_25
                            x       y       z     vdW  Elec       q    Type
                         _______ _______ _______ _____ _____    ______ ____

>  <TORSDO>
F 7

$$$$
=
 OpenBabel11052418033D

 28 30  0  0  1  0  0  0  0  0999 V2000
  191.7820  176.1480  144.7080 C   0  0  2  0  0  3  0  0  0  0  0  0
  189.5470  177.9090  145.0340 C   0  0  0  0  0  2  0  0  0  0  0  0
  190.8490  175.4280  142.6440 O   0  0  0  0  0  0  0  0  0  0  0  0
  190.0930  177.1500  146.2130 C   0  0  0  0  0  3  0  0  0  0  0  0
  189.4980  177.0210  143.7760 C   0  0  2  0  0  3  0  0  0  0  0  0
  191.1420  176.3300  146.0600 C   0  0  0  0  0  3  0  0  0  0  0  0
  190.7210  176.1350  143.6330 C   0  0  0  0  0  0  0  0  0  0  0  0
  192.5240  174.9600  144.6940 O   0  0  0  0  0  0  0  0  0  0  0  0
  193.8280  175.3390  145.0350 C   0  0  2  0  0  3  0  0  0  0  0  0
  196.5660  175.1050  144.0180 N   0  0  0  0  0  2  0  0  0  0  0  0
  194.4070  176.2390  143.9400 C   0  0  0  0  0  2  0  0  0  0  0  0
  194.2140  173.0490  145.5540 O   0  0  0  0  0  0  0  0  0  0  0  0
  194.6980  174.1230  145.2340 C   0  0  0  0  0  0  0  0  0  0  0  0
  196.1890  174.2830  145.1680 C   0  0  0  0  0  2  0  0  0  0  0  0
  195.9110  176.4080  144.1300 C   0  0  0  0  0  2  0  0  0  0  0  0
  189.2450  177.8140  142.5680 N   0  0  0  0  0  2  0  0  0  0  0  0
  188.0110  177.3790  141.9150 C   0  0  0  0  0  2  0  0  0  0  0  0
  186.1130  178.7860  141.5940 F   0  0  0  0  0  0  0  0  0  0  0  0
  186.8000  178.0510  142.5470 C   0  0  1  0  0  3  0  0  0  0  0  0
  185.8810  177.0200  143.1950 C   0  0  0  0  0  2  0  0  0  0  0  0
  184.9250  178.5900  144.9640 C   0  0  0  0  0  2  0  0  0  0  0  0
  186.3030  176.5180  145.5420 C   0  0  0  0  0  3  0  0  0  0  0  0
  185.7690  179.0270  147.2590 C   0  0  0  0  0  0  0  0  0  0  0  0
  185.6800  177.3150  144.6480 C   0  0  0  0  0  0  0  0  0  0  0  0
  186.5720  177.9980  147.5350 C   0  0  0  0  0  3  0  0  0  0  0  0
  186.2520  176.6210  147.0420 C   0  0  0  0  0  2  0  0  0  0  0  0
  186.0580  180.2580  147.7580 F   0  0  0  0  0  0  0  0  0  0  0  0
  184.5430  178.8300  146.4230 C   0  0  0  0  0  2  0  0  0  0  0  0
  1  8  1  1  0  0  0
  1  6  1  0  0  0  0
  2  4  1  0  0  0  0
  3  7  2  0  0  0  0
  5 16  1  6  0  0  0
  5  2  1  0  0  0  0
  6  4  2  0  0  0  0
  7  5  1  0  0  0  0
  7  1  1  0  0  0  0
  9  8  1  6  0  0  0
  9 13  1  0  0  0  0
 10 15  1  0  0  0  0
 10 14  1  0  0  0  0
 11 15  1  0  0  0  0
 11  9  1  0  0  0  0
 13 12  2  0  0  0  0
 14 13  1  0  0  0  0
 17 19  1  0  0  0  0
 17 16  1  0  0  0  0
 19 18  1  6  0  0  0
 19 20  1  0  0  0  0
 20 24  1  0  0  0  0
 21 28  1  0  0  0  0
 22 26  1  0  0  0  0
 23 25  2  0  0  0  0
 23 27  1  0  0  0  0
 24 21  1  0  0  0  0
 24 22  2  0  0  0  0
 26 25  1  0  0  0  0
 28 23  1  0  0  0  0
M  END
>  <MODEL>
5

>  <REMARK>
 VINA RESULT:      -6.9      2.136      3.096
  Name = 
  7 active torsions:
  status: ('A' for Active; 'I' for Inactive)
    1  A    between atoms: C_1  and  O_2
    2  A    between atoms: O_2  and  C_3
    3  A    between atoms: N_5  and  C_20
    4  A    between atoms: N_5  and  C_21
    5  A    between atoms: C_10  and  C_13
    6  A    between atoms: C_10  and  C_25
    7  A    between atoms: C_20  and  C_25
                            x       y       z     vdW  Elec       q    Type
                         _______ _______ _______ _____ _____    ______ ____

>  <TORSDO>
F 7

$$$$
=
 OpenBabel11052418033D

 28 30  0  0  1  0  0  0  0  0999 V2000
  190.5000  173.8910  143.8830 C   0  0  2  0  0  3  0  0  0  0  0  0
  188.5690  172.7930  142.0760 C   0  0  0  0  0  2  0  0  0  0  0  0
  190.7220  175.7600  142.4320 O   0  0  0  0  0  0  0  0  0  0  0  0
  189.5860  171.9000  142.7320 C   0  0  0  0  0  3  0  0  0  0  0  0
  189.2050  174.1210  141.6200 C   0  0  2  0  0  3  0  0  0  0  0  0
  190.4870  172.4150  143.5810 C   0  0  0  0  0  3  0  0  0  0  0  0
  190.1930  174.6770  142.6300 C   0  0  0  0  0  0  0  0  0  0  0  0
  191.7470  174.2530  144.4080 O   0  0  0  0  0  0  0  0  0  0  0  0
  191.5080  174.5410  145.7570 C   0  0  2  0  0  3  0  0  0  0  0  0
  190.1930  176.5670  147.4150 N   0  0  0  0  0  2  0  0  0  0  0  0
  189.9990  174.5770  146.0170 C   0  0  0  0  0  2  0  0  0  0  0  0
  193.1050  176.2900  145.5280 O   0  0  0  0  0  0  0  0  0  0  0  0
  192.1410  175.8560  146.1390 C   0  0  0  0  0  0  0  0  0  0  0  0
  191.6550  176.5600  147.3710 C   0  0  0  0  0  2  0  0  0  0  0  0
  189.7100  175.1870  147.3850 C   0  0  0  0  0  2  0  0  0  0  0  0
  188.1840  175.1060  141.2460 N   0  0  0  0  0  2  0  0  0  0  0  0
  187.2850  175.3670  142.3700 C   0  0  0  0  0  2  0  0  0  0  0  0
  185.3920  176.8010  142.5830 F   0  0  0  0  0  0  0  0  0  0  0  0
  186.7510  176.7920  142.3140 C   0  0  1  0  0  3  0  0  0  0  0  0
  187.4990  177.6910  143.2940 C   0  0  0  0  0  2  0  0  0  0  0  0
  185.9430  179.0340  144.8060 C   0  0  0  0  0  2  0  0  0  0  0  0
  187.0360  176.8410  145.5300 C   0  0  0  0  0  3  0  0  0  0  0  0
  185.8810  179.1000  147.2890 C   0  0  0  0  0  0  0  0  0  0  0  0
  186.7760  177.7850  144.6000 C   0  0  0  0  0  0  0  0  0  0  0  0
  186.5390  178.0070  147.6810 C   0  0  0  0  0  3  0  0  0  0  0  0
  186.4370  176.7300  146.9060 C   0  0  0  0  0  2  0  0  0  0  0  0
  185.9530  180.2330  148.0360 F   0  0  0  0  0  0  0  0  0  0  0  0
  185.0500  179.0800  146.0430 C   0  0  0  0  0  2  0  0  0  0  0  0
  1  8  1  6  0  0  0
  2  4  1  0  0  0  0
  3  7  2  0  0  0  0
  4  6  2  0  0  0  0
  5 16  1  1  0  0  0
  5  2  1  0  0  0  0
  5  7  1  0  0  0  0
  6  1  1  0  0  0  0
  7  1  1  0  0  0  0
  9  8  1  6  0  0  0
  9 11  1  0  0  0  0
  9 13  1  0  0  0  0
 11 15  1  0  0  0  0
 12 13  2  0  0  0  0
 13 14  1  0  0  0  0
 14 10  1  0  0  0  0
 15 10  1  0  0  0  0
 16 17  1  0  0  0  0
 19 17  1  0  0  0  0
 19 18  1  1  0  0  0
 19 20  1  0  0  0  0
 20 24  1  0  0  0  0
 21 28  1  0  0  0  0
 22 26  1  0  0  0  0
 23 25  2  0  0  0  0
 23 27  1  0  0  0  0
 24 21  1  0  0  0  0
 24 22  2  0  0  0  0
 26 25  1  0  0  0  0
 28 23  1  0  0  0  0
M  END
>  <MODEL>
6

>  <REMARK>
 VINA RESULT:      -6.8      1.570      2.126
  Name = 
  7 active torsions:
  status: ('A' for Active; 'I' for Inactive)
    1  A    between atoms: C_1  and  O_2
    2  A    between atoms: O_2  and  C_3
    3  A    between atoms: N_5  and  C_20
    4  A    between atoms: N_5  and  C_21
    5  A    between atoms: C_10  and  C_13
    6  A    between atoms: C_10  and  C_25
    7  A    between atoms: C_20  and  C_25
                            x       y       z     vdW  Elec       q    Type
                         _______ _______ _______ _____ _____    ______ ____

>  <TORSDO>
F 7

$$$$
=
 OpenBabel11052418033D

 28 30  0  0  1  0  0  0  0  0999 V2000
  188.6110  176.0850  142.4600 C   0  0  2  0  0  3  0  0  0  0  0  0
  191.2280  176.6610  143.4700 C   0  0  0  0  0  2  0  0  0  0  0  0
  189.5230  174.2160  141.3080 O   0  0  0  0  0  0  0  0  0  0  0  0
  190.3240  177.7780  143.0240 C   0  0  0  0  0  3  0  0  0  0  0  0
  191.1530  175.4640  142.5020 C   0  0  2  0  0  3  0  0  0  0  0  0
  189.0980  177.5070  142.5550 C   0  0  0  0  0  3  0  0  0  0  0  0
  189.7410  175.1800  142.0260 C   0  0  0  0  0  0  0  0  0  0  0  0
  187.5390  176.0130  141.5610 O   0  0  0  0  0  0  0  0  0  0  0  0
  186.7620  177.1470  141.8270 C   0  0  2  0  0  3  0  0  0  0  0  0
  183.9690  178.0240  141.7140 N   0  0  0  0  0  2  0  0  0  0  0  0
  185.7260  176.8210  142.9060 C   0  0  0  0  0  2  0  0  0  0  0  0
  186.5530  177.3910  139.4690 O   0  0  0  0  0  0  0  0  0  0  0  0
  186.0830  177.6310  140.5700 C   0  0  0  0  0  0  0  0  0  0  0  0
  184.8890  178.5310  140.6950 C   0  0  0  0  0  2  0  0  0  0  0  0
  184.6790  177.9280  142.9890 C   0  0  0  0  0  2  0  0  0  0  0  0
  191.7950  174.2740  143.0690 N   0  0  0  0  0  2  0  0  0  0  0  0
  192.8240  174.6550  144.0370 C   0  0  0  0  0  2  0  0  0  0  0  0
  193.5670  172.8960  145.4650 F   0  0  0  0  0  0  0  0  0  0  0  0
  192.6300  173.9110  145.3510 C   0  0  1  0  0  3  0  0  0  0  0  0
  192.7270  174.8670  146.5370 C   0  0  0  0  0  2  0  0  0  0  0  0
  190.1970  174.5400  146.6080 C   0  0  0  0  0  2  0  0  0  0  0  0
  191.3360  176.7350  147.2520 C   0  0  0  0  0  3  0  0  0  0  0  0
  188.4130  176.2530  146.3830 C   0  0  0  0  0  0  0  0  0  0  0  0
  191.3870  175.4380  146.8790 C   0  0  0  0  0  0  0  0  0  0  0  0
  189.0190  177.4180  146.6190 C   0  0  0  0  0  3  0  0  0  0  0  0
  190.1130  177.5220  147.6370 C   0  0  0  0  0  2  0  0  0  0  0  0
  187.3910  176.1960  145.4890 F   0  0  0  0  0  0  0  0  0  0  0  0
  188.8370  175.0160  147.1110 C   0  0  0  0  0  2  0  0  0  0  0  0
  1  8  1  6  0  0  0
  1  6  1  0  0  0  0
  3  7  2  0  0  0  0
  4  2  1  0  0  0  0
  5 16  1  1  0  0  0
  5  2  1  0  0  0  0
  6  4  2  0  0  0  0
  7  1  1  0  0  0  0
  7  5  1  0  0  0  0
  9  8  1  6  0  0  0
  9 11  1  0  0  0  0
 10 15  1  0  0  0  0
 11 15  1  0  0  0  0
 12 13  2  0  0  0  0
 13 14  1  0  0  0  0
 13  9  1  0  0  0  0
 14 10  1  0  0  0  0
 16 17  1  0  0  0  0
 17 19  1  0  0  0  0
 19 18  1  1  0  0  0
 19 20  1  0  0  0  0
 20 24  1  0  0  0  0
 21 24  1  0  0  0  0
 21 28  1  0  0  0  0
 22 26  1  0  0  0  0
 23 25  2  0  0  0  0
 23 28  1  0  0  0  0
 24 22  2  0  0  0  0
 25 26  1  0  0  0  0
 27 23  1  0  0  0  0
M  END
>  <MODEL>
7

>  <REMARK>
 VINA RESULT:      -6.8      2.885      6.440
  Name = 
  7 active torsions:
  status: ('A' for Active; 'I' for Inactive)
    1  A    between atoms: C_1  and  O_2
    2  A    between atoms: O_2  and  C_3
    3  A    between atoms: N_5  and  C_20
    4  A    between atoms: N_5  and  C_21
    5  A    between atoms: C_10  and  C_13
    6  A    between atoms: C_10  and  C_25
    7  A    between atoms: C_20  and  C_25
                            x       y       z     vdW  Elec       q    Type
                         _______ _______ _______ _____ _____    ______ ____

>  <TORSDO>
F 7

$$$$
=
 OpenBabel11052418033D

 28 30  0  0  1  0  0  0  0  0999 V2000
  188.1830  176.5350  142.6610 C   0  0  2  0  0  3  0  0  0  0  0  0
  190.7730  176.8990  143.8280 C   0  0  0  0  0  2  0  0  0  0  0  0
  188.5720  174.1900  142.6530 O   0  0  0  0  0  0  0  0  0  0  0  0
  190.2810  177.8430  142.7650 C   0  0  0  0  0  3  0  0  0  0  0  0
  190.4120  175.4400  143.4870 C   0  0  2  0  0  3  0  0  0  0  0  0
  189.0670  177.6740  142.2220 C   0  0  0  0  0  3  0  0  0  0  0  0
  189.0170  175.2990  142.9060 C   0  0  0  0  0  0  0  0  0  0  0  0
  187.2070  176.2950  141.6870 O   0  0  0  0  0  0  0  0  0  0  0  0
  186.3930  177.4340  141.6940 C   0  0  2  0  0  3  0  0  0  0  0  0
  183.6020  178.1960  141.2360 N   0  0  0  0  0  2  0  0  0  0  0  0
  185.2870  177.2710  142.7400 C   0  0  0  0  0  2  0  0  0  0  0  0
  186.3530  177.2570  139.3210 O   0  0  0  0  0  0  0  0  0  0  0  0
  185.7990  177.6710  140.3280 C   0  0  0  0  0  0  0  0  0  0  0  0
  184.5850  178.5440  140.2100 C   0  0  0  0  0  2  0  0  0  0  0  0
  184.2180  178.3440  142.5550 C   0  0  0  0  0  2  0  0  0  0  0  0
  190.6250  174.5510  144.6350 N   0  0  0  0  0  2  0  0  0  0  0  0
  190.6200  175.3130  145.8830 C   0  0  0  0  0  2  0  0  0  0  0  0
  188.9530  174.8590  147.5270 F   0  0  0  0  0  0  0  0  0  0  0  0
  189.1940  175.5620  146.3570 C   0  0  1  0  0  3  0  0  0  0  0  0
  188.9430  177.0530  146.5640 C   0  0  0  0  0  2  0  0  0  0  0  0
  186.4800  176.6430  146.0360 C   0  0  0  0  0  2  0  0  0  0  0  0
  187.2630  178.2250  147.8830 C   0  0  0  0  0  3  0  0  0  0  0  0
  184.5470  178.1570  146.4160 C   0  0  0  0  0  0  0  0  0  0  0  0
  187.5130  177.3140  146.9190 C   0  0  0  0  0  0  0  0  0  0  0  0
  184.9780  179.0510  147.3080 C   0  0  0  0  0  3  0  0  0  0  0  0
  185.9170  178.6520  148.4040 C   0  0  0  0  0  2  0  0  0  0  0  0
  183.6580  178.5350  145.4600 F   0  0  0  0  0  0  0  0  0  0  0  0
  185.0210  176.7380  146.4750 C   0  0  0  0  0  2  0  0  0  0  0  0
  1  8  1  6  0  0  0
  1  7  1  0  0  0  0
  3  7  2  0  0  0  0
  4  2  1  0  0  0  0
  5  2  1  0  0  0  0
  5 16  1  1  0  0  0
  6  1  1  0  0  0  0
  6  4  2  0  0  0  0
  7  5  1  0  0  0  0
  9  8  1  6  0  0  0
  9 11  1  0  0  0  0
 10 15  1  0  0  0  0
 12 13  2  0  0  0  0
 13  9  1  0  0  0  0
 14 13  1  0  0  0  0
 14 10  1  0  0  0  0
 15 11  1  0  0  0  0
 16 17  1  0  0  0  0
 17 19  1  0  0  0  0
 19 20  1  0  0  0  0
 19 18  1  1  0  0  0
 20 24  1  0  0  0  0
 21 28  1  0  0  0  0
 21 24  1  0  0  0  0
 22 26  1  0  0  0  0
 23 28  1  0  0  0  0
 23 25  2  0  0  0  0
 24 22  2  0  0  0  0
 25 26  1  0  0  0  0
 27 23  1  0  0  0  0
M  END
>  <MODEL>
8

>  <REMARK>
 VINA RESULT:      -6.8      2.227      5.700
  Name = 
  7 active torsions:
  status: ('A' for Active; 'I' for Inactive)
    1  A    between atoms: C_1  and  O_2
    2  A    between atoms: O_2  and  C_3
    3  A    between atoms: N_5  and  C_20
    4  A    between atoms: N_5  and  C_21
    5  A    between atoms: C_10  and  C_13
    6  A    between atoms: C_10  and  C_25
    7  A    between atoms: C_20  and  C_25
                            x       y       z     vdW  Elec       q    Type
                         _______ _______ _______ _____ _____    ______ ____

>  <TORSDO>
F 7

$$$$
=
 OpenBabel11052418033D

 28 30  0  0  1  0  0  0  0  0999 V2000
  191.0880  176.4050  145.8900 C   0  0  2  0  0  3  0  0  0  0  0  0
  188.6880  175.2950  146.9900 C   0  0  0  0  0  2  0  0  0  0  0  0
  189.7780  178.1210  144.8950 O   0  0  0  0  0  0  0  0  0  0  0  0
  189.7560  174.3920  146.4360 C   0  0  0  0  0  3  0  0  0  0  0  0
  188.4810  176.5300  146.0920 C   0  0  2  0  0  3  0  0  0  0  0  0
  190.8810  174.9130  145.9250 C   0  0  0  0  0  3  0  0  0  0  0  0
  189.7860  177.0990  145.5650 C   0  0  0  0  0  0  0  0  0  0  0  0
  192.0730  176.7220  144.9460 O   0  0  0  0  0  0  0  0  0  0  0  0
  193.0320  175.7090  145.0640 C   0  0  2  0  0  3  0  0  0  0  0  0
  195.9060  175.2900  144.6760 N   0  0  0  0  0  2  0  0  0  0  0  0
  194.0960  176.1220  146.0850 C   0  0  0  0  0  2  0  0  0  0  0  0
  193.0730  175.6560  142.6850 O   0  0  0  0  0  0  0  0  0  0  0  0
  193.6670  175.4210  143.7260 C   0  0  0  0  0  0  0  0  0  0  0  0
  194.9890  174.7130  143.6920 C   0  0  0  0  0  2  0  0  0  0  0  0
  195.3010  175.1900  146.0040 C   0  0  0  0  0  2  0  0  0  0  0  0
  187.6630  177.5480  146.7580 N   0  0  0  0  0  2  0  0  0  0  0  0
  186.2400  177.2900  146.5380 C   0  0  0  0  0  2  0  0  0  0  0  0
  185.6310  179.3850  147.5000 F   0  0  0  0  0  0  0  0  0  0  0  0
  185.4740  178.5950  146.3720 C   0  0  1  0  0  3  0  0  0  0  0  0
  185.9350  179.3420  145.1240 C   0  0  0  0  0  2  0  0  0  0  0  0
  186.7060  177.8800  143.1800 C   0  0  0  0  0  2  0  0  0  0  0  0
  184.3100  178.7360  143.4130 C   0  0  0  0  0  3  0  0  0  0  0  0
  185.7760  177.7540  140.8800 C   0  0  0  0  0  0  0  0  0  0  0  0
  185.5680  178.5940  143.8820 C   0  0  0  0  0  0  0  0  0  0  0  0
  184.5580  178.2920  140.9690 C   0  0  0  0  0  3  0  0  0  0  0  0
  183.7160  178.0890  142.1910 C   0  0  0  0  0  2  0  0  0  0  0  0
  186.4990  177.9140  139.7410 F   0  0  0  0  0  0  0  0  0  0  0  0
  186.3400  176.9610  142.0180 C   0  0  0  0  0  2  0  0  0  0  0  0
  1  8  1  6  0  0  0
  1  6  1  0  0  0  0
  3  7  2  0  0  0  0
  4  2  1  0  0  0  0
  5 16  1  1  0  0  0
  5  2  1  0  0  0  0
  6  4  2  0  0  0  0
  7  1  1  0  0  0  0
  7  5  1  0  0  0  0
  9  8  1  6  0  0  0
  9 11  1  0  0  0  0
 10 15  1  0  0  0  0
 12 13  2  0  0  0  0
 13  9  1  0  0  0  0
 14 13  1  0  0  0  0
 14 10  1  0  0  0  0
 15 11  1  0  0  0  0
 17 16  1  0  0  0  0
 19 17  1  0  0  0  0
 19 18  1  1  0  0  0
 20 19  1  0  0  0  0
 21 24  1  0  0  0  0
 22 24  2  0  0  0  0
 23 25  2  0  0  0  0
 23 28  1  0  0  0  0
 24 20  1  0  0  0  0
 25 26  1  0  0  0  0
 26 22  1  0  0  0  0
 27 23  1  0  0  0  0
 28 21  1  0  0  0  0
M  END
>  <MODEL>
9

>  <REMARK>
 VINA RESULT:      -6.7      2.334      4.517
  Name = 
  7 active torsions:
  status: ('A' for Active; 'I' for Inactive)
    1  A    between atoms: C_1  and  O_2
    2  A    between atoms: O_2  and  C_3
    3  A    between atoms: N_5  and  C_20
    4  A    between atoms: N_5  and  C_21
    5  A    between atoms: C_10  and  C_13
    6  A    between atoms: C_10  and  C_25
    7  A    between atoms: C_20  and  C_25
                            x       y       z     vdW  Elec       q    Type
                         _______ _______ _______ _____ _____    ______ ____

>  <TORSDO>
F 7

$$$$
