=
 OpenBabel11052419313D

 55 60  0  0  1  0  0  0  0  0999 V2000
  188.4840  173.4340  139.6140 C   0  0  0  0  0  2  0  0  0  0  0  0
  190.5880  172.0150  138.1400 C   0  0  2  0  0  3  0  0  0  0  0  0
  190.3560  171.7810  139.6340 C   0  0  0  0  0  2  0  0  0  0  0  0
  188.6930  173.6590  138.1180 C   0  0  0  0  0  2  0  0  0  0  0  0
  189.8050  173.0510  140.2690 C   0  0  2  0  0  3  0  0  0  0  0  0
  189.2740  172.4050  137.4650 C   0  0  0  0  0  2  0  0  0  0  0  0
  189.4290  171.3930  142.5750 O   0  0  0  0  0  0  0  0  0  0  0  0
  189.5760  172.8010  142.0480 P   0  0  1  0  0  4  0  0  0  0  0  0
  189.6750  174.1770  143.2320 C   0  0  1  0  0  3  0  0  0  0  0  0
  188.4890  175.0180  143.1110 N   0  0  0  0  0  2  0  0  0  0  0  0
  189.4280  177.0890  142.4790 O   0  0  0  0  0  1  0  0  0  0  0  0
  188.6670  176.0020  142.0390 C   0  0  2  0  0  3  0  0  0  0  0  0
  187.3330  176.4810  141.4740 C   0  0  0  0  0  2  0  0  0  0  0  0
  187.3030  178.0010  141.3200 C   0  0  0  0  0  2  0  0  0  0  0  0
  186.2110  178.6850  142.1500 C   0  0  2  0  0  3  0  0  0  0  0  0
  186.4160  178.5100  143.6470 C   0  0  0  0  0  1  0  0  0  0  0  0
  184.8340  178.2790  141.7310 C   0  0  0  0  0  0  0  0  0  0  0  0
  184.0030  177.9110  142.6010 O   0  0  0  0  0  1  0  0  0  0  0  0
  184.4540  178.3300  140.3940 O   0  0  0  0  0  0  0  0  0  0  0  0
  189.8020  173.6760  144.6670 C   0  0  0  0  0  2  0  0  0  0  0  0
  192.3920  175.3980  146.8970 C   0  0  0  0  0  3  0  0  0  0  0  0
  193.5610  174.7770  146.4540 C   0  0  0  0  0  3  0  0  0  0  0  0
  191.0930  174.0910  145.3140 C   0  0  0  0  0  0  0  0  0  0  0  0
  192.2700  173.4690  144.8820 C   0  0  0  0  0  3  0  0  0  0  0  0
  193.5000  173.8100  145.4510 C   0  0  0  0  0  3  0  0  0  0  0  0
  191.1530  175.0570  146.3410 C   0  0  0  0  0  0  0  0  0  0  0  0
  189.9360  175.7720  146.8300 C   0  0  0  0  0  2  0  0  0  0  0  0
  189.6580  176.8620  146.0010 O   0  0  0  0  0  0  0  0  0  0  0  0
  188.5070  177.4430  146.5360 C   0  0  0  0  0  2  0  0  0  0  0  0
  187.3710  176.4320  146.5410 C   0  0  0  0  0  2  0  0  0  0  0  0
  186.2580  176.8570  147.4860 C   0  0  0  0  0  2  0  0  0  0  0  0
  184.3970  178.3340  146.7900 C   0  0  0  0  0  1  0  0  0  0  0  0
  185.8500  178.2920  147.2130 C   0  0  0  0  0  2  0  0  0  0  0  0
  191.1510  170.7700  137.4730 C   0  0  0  0  0  2  0  0  0  0  0  0
  192.3350  170.2360  138.2600 C   0  0  0  0  0  2  0  0  0  0  0  0
  193.6430  170.6420  137.6030 C   0  0  0  0  0  2  0  0  0  0  0  0
  194.2690  171.8180  138.3370 C   0  0  0  0  0  2  0  0  0  0  0  0
  194.0290  171.6960  139.7680 N   0  0  0  0  0  2  0  0  0  0  0  0
  196.6100  173.8940  142.3110 N   0  0  2  0  0  0  0  0  0  0  0  0
  192.6490  175.2420  141.6140 O   0  0  0  0  0  1  0  0  0  0  0  0
  194.0040  174.9010  141.5200 C   0  0  2  0  0  0  0  0  0  0  0  0
  193.5190  172.9750  140.2460 C   0  0  1  0  0  3  0  0  0  0  0  0
  196.6560  176.2470  140.4130 O   0  0  0  0  0  1  0  0  0  0  0  0
  194.5120  175.2040  140.1040 C   0  0  1  0  0  3  0  0  0  0  0  0
  194.1630  173.4090  141.5700 C   0  0  1  0  0  3  0  0  0  0  0  0
  196.6470  175.4040  144.2350 C   0  0  0  0  0  1  0  0  0  0  0  0
  196.6310  173.8250  140.8140 C   0  0  2  0  0  3  0  0  0  0  0  0
  192.6530  174.5860  138.7250 F   0  0  0  0  0  0  0  0  0  0  0  0
  196.0590  175.0510  139.9970 C   0  0  2  0  0  0  0  0  0  0  0  0
  195.6650  172.9990  141.5920 C   0  0  1  0  0  3  0  0  0  0  0  0
  194.7060  175.5470  142.6980 C   0  0  0  0  0  2  0  0  0  0  0  0
  193.8310  174.1040  139.2660 C   0  0  2  0  0  3  0  0  0  0  0  0
  196.1810  175.2150  142.8060 C   0  0  2  0  0  3  0  0  0  0  0  0
  196.4520  174.8610  138.5220 C   0  0  0  0  0  2  0  0  0  0  0  0
  197.4550  173.7330  138.3180 C   0  0  0  0  0  1  0  0  0  0  0  0
  1  5  1  0  0  0  0
  2 34  1  6  0  0  0
  2  3  1  0  0  0  0
  3  5  1  0  0  0  0
  4  1  1  0  0  0  0
  5  8  1  1  0  0  0
  6  4  1  0  0  0  0
  6  2  1  0  0  0  0
  8  7  2  1  0  0  0
  8  9  1  0  0  0  0
  9 20  1  1  0  0  0
 10  9  1  0  0  0  0
 12 11  1  1  0  0  0
 12 10  1  0  0  0  0
 13 12  1  0  0  0  0
 14 13  1  0  0  0  0
 14 15  1  0  0  0  0
 15 16  1  1  0  0  0
 17 15  1  0  0  0  0
 17 18  1  0  0  0  0
 19 17  2  0  0  0  0
 20 23  1  0  0  0  0
 22 21  1  0  0  0  0
 23 26  1  0  0  0  0
 24 23  2  0  0  0  0
 24 25  1  0  0  0  0
 25 22  2  0  0  0  0
 26 27  1  0  0  0  0
 26 21  2  0  0  0  0
 28 29  1  0  0  0  0
 28 27  1  0  0  0  0
 29 30  1  0  0  0  0
 30 31  1  0  0  0  0
 32 33  1  0  0  0  0
 33 31  1  0  0  0  0
 34 35  1  0  0  0  0
 36 35  1  0  0  0  0
 36 37  1  0  0  0  0
 37 38  1  0  0  0  0
 38 42  1  0  0  0  0
 39 53  1  0  0  0  0
 41 45  1  0  0  0  0
 41 40  1  0  0  0  0
 41 51  1  0  0  0  0
 42 45  1  0  0  0  0
 44 41  1  0  0  0  0
 45 50  1  0  0  0  0
 47 50  1  0  0  0  0
 47 39  1  0  0  0  0
 48 52  1  0  0  0  0
 49 44  1  0  0  0  0
 49 43  1  0  0  0  0
 49 47  1  0  0  0  0
 50 39  1  0  0  0  0
 51 53  1  0  0  0  0
 52 44  1  0  0  0  0
 52 42  1  0  0  0  0
 53 46  1  0  0  0  0
 54 49  1  0  0  0  0
 55 54  1  0  0  0  0
M  END
>  <MODEL>
1

>  <REMARK>
 VINA RESULT:      -6.1      0.000      0.000
  Name = 
  23 active torsions:
  status: ('A' for Active; 'I' for Inactive)
    1  A    between atoms: C_4  and  C_37
    2  A    between atoms: C_4  and  C_40
    3  A    between atoms: C_5  and  O_19
    4  A    between atoms: C_5  and  C_40
    5  A    between atoms: C_7  and  N_22
    6  A    between atoms: C_8  and  N_22
    7  A    between atoms: C_8  and  C_43
    8  A    between atoms: C_10  and  C_32
    9  A    between atoms: C_11  and  C_38
   10  A    between atoms: C_13  and  C_48
   11  A    between atoms: C_13  and  C_52
   12  A    between atoms: C_16  and  C_36
   13  A    between atoms: O_19  and  C_45
   14  A    between atoms: C_26  and  C_45
   15  A    between atoms: C_27  and  C_54
   16  A    between atoms: P_28  and  C_44
   17  A    between atoms: P_28  and  C_49
   18  A    between atoms: C_32  and  C_48
   19  A    between atoms: N_33  and  C_49
   20  A    between atoms: N_33  and  C_52
   21  A    between atoms: C_36  and  C_49
   22  A    between atoms: C_43  and  C_51
   23  A    between atoms: C_51  and  C_54
                            x       y       z     vdW  Elec       q    Type
                         _______ _______ _______ _____ _____    ______ ____

>  <TORSDO>
F 23

$$$$
=
 OpenBabel11052419313D

 55 60  0  0  1  0  0  0  0  0999 V2000
  195.0810  174.5090  141.3260 C   0  0  0  0  0  2  0  0  0  0  0  0
  195.1130  171.7400  142.2960 C   0  0  2  0  0  3  0  0  0  0  0  0
  194.4980  172.8720  143.1200 C   0  0  0  0  0  2  0  0  0  0  0  0
  195.6790  173.3830  140.4860 C   0  0  0  0  0  2  0  0  0  0  0  0
  195.2170  174.1780  142.8080 C   0  0  2  0  0  3  0  0  0  0  0  0
  194.9910  172.0560  140.8060 C   0  0  0  0  0  2  0  0  0  0  0  0
  195.4480  176.6220  144.2840 O   0  0  0  0  0  0  0  0  0  0  0  0
  194.5310  175.5160  143.8170 P   0  0  1  0  0  4  0  0  0  0  0  0
  192.7490  175.6510  144.1510 C   0  0  1  0  0  3  0  0  0  0  0  0
  192.4250  177.0130  144.5590 N   0  0  0  0  0  2  0  0  0  0  0  0
  191.2410  178.6020  143.2780 O   0  0  0  0  0  1  0  0  0  0  0  0
  191.1270  177.4170  144.0090 C   0  0  2  0  0  3  0  0  0  0  0  0
  190.0650  177.5620  145.0950 C   0  0  0  0  0  2  0  0  0  0  0  0
  189.3020  176.2560  145.3100 C   0  0  0  0  0  2  0  0  0  0  0  0
  188.5960  176.1690  146.6680 C   0  0  2  0  0  3  0  0  0  0  0  0
  188.8060  174.8280  147.3530 C   0  0  0  0  0  1  0  0  0  0  0  0
  187.1450  176.5230  146.5830 C   0  0  0  0  0  0  0  0  0  0  0  0
  186.5990  176.6410  145.4560 O   0  0  0  0  0  0  0  0  0  0  0  0
  186.3870  176.6960  147.7370 O   0  0  0  0  0  1  0  0  0  0  0  0
  191.9180  175.2720  142.9290 C   0  0  0  0  0  2  0  0  0  0  0  0
  188.8780  172.9490  142.8390 C   0  0  0  0  0  3  0  0  0  0  0  0
  189.2500  172.0070  143.8000 C   0  0  0  0  0  3  0  0  0  0  0  0
  190.9580  174.1510  143.2050 C   0  0  0  0  0  0  0  0  0  0  0  0
  191.3250  173.1960  144.1610 C   0  0  0  0  0  3  0  0  0  0  0  0
  190.4750  172.1280  144.4570 C   0  0  0  0  0  3  0  0  0  0  0  0
  189.7260  174.0180  142.5290 C   0  0  0  0  0  0  0  0  0  0  0  0
  189.2670  175.0150  141.5140 C   0  0  0  0  0  2  0  0  0  0  0  0
  187.9470  175.3890  141.7780 O   0  0  0  0  0  0  0  0  0  0  0  0
  187.9810  176.7790  141.9080 C   0  0  0  0  0  2  0  0  0  0  0  0
  186.5650  177.3340  141.9120 C   0  0  0  0  0  2  0  0  0  0  0  0
  186.5250  178.7390  142.4910 C   0  0  0  0  0  2  0  0  0  0  0  0
  185.4590  179.8710  144.4180 C   0  0  0  0  0  1  0  0  0  0  0  0
  185.2170  178.9740  143.2230 C   0  0  0  0  0  2  0  0  0  0  0  0
  194.4280  170.4150  142.5920 C   0  0  0  0  0  2  0  0  0  0  0  0
  193.4610  170.0570  141.4770 C   0  0  0  0  0  2  0  0  0  0  0  0
  192.0740  169.7910  142.0340 C   0  0  0  0  0  2  0  0  0  0  0  0
  191.0050  170.2460  141.0520 C   0  0  0  0  0  2  0  0  0  0  0  0
  191.3030  171.5900  140.5810 N   0  0  0  0  0  2  0  0  0  0  0  0
  192.8450  174.1450  137.5720 N   0  0  2  0  0  0  0  0  0  0  0  0
  188.7840  172.9220  137.4550 O   0  0  0  0  0  1  0  0  0  0  0  0
  190.1820  172.9990  137.4020 C   0  0  2  0  0  0  0  0  0  0  0  0
  190.4060  171.8840  139.4700 C   0  0  1  0  0  3  0  0  0  0  0  0
  192.4800  172.0340  135.4390 O   0  0  0  0  0  1  0  0  0  0  0  0
  190.7600  171.6180  137.0660 C   0  0  1  0  0  3  0  0  0  0  0  0
  190.7360  173.2150  138.7820 C   0  0  1  0  0  3  0  0  0  0  0  0
  192.2260  175.9010  135.9850 C   0  0  0  0  0  1  0  0  0  0  0  0
  193.0710  172.6720  137.7340 C   0  0  2  0  0  3  0  0  0  0  0  0
  189.3290  170.1290  138.2800 F   0  0  0  0  0  0  0  0  0  0  0  0
  192.2910  171.6830  136.7800 C   0  0  2  0  0  0  0  0  0  0  0  0
  192.2780  173.4290  138.7450 C   0  0  1  0  0  3  0  0  0  0  0  0
  190.5270  174.1710  136.5050 C   0  0  0  0  0  2  0  0  0  0  0  0
  190.5170  170.8320  138.3680 C   0  0  2  0  0  3  0  0  0  0  0  0
  192.0120  174.4590  136.3970 C   0  0  2  0  0  3  0  0  0  0  0  0
  192.9010  170.2820  136.9520 C   0  0  0  0  0  2  0  0  0  0  0  0
  194.3060  170.3170  137.5390 C   0  0  0  0  0  1  0  0  0  0  0  0
  1  5  1  0  0  0  0
  2 34  1  6  0  0  0
  2  3  1  0  0  0  0
  4  6  1  0  0  0  0
  4  1  1  0  0  0  0
  5  3  1  0  0  0  0
  5  8  1  1  0  0  0
  6  2  1  0  0  0  0
  8  9  1  0  0  0  0
  8  7  2  6  0  0  0
  9 20  1  6  0  0  0
  9 10  1  0  0  0  0
 12 11  1  1  0  0  0
 12 10  1  0  0  0  0
 12 13  1  0  0  0  0
 13 14  1  0  0  0  0
 14 15  1  0  0  0  0
 15 16  1  6  0  0  0
 17 15  1  0  0  0  0
 17 19  1  0  0  0  0
 18 17  2  0  0  0  0
 20 23  1  0  0  0  0
 21 22  1  0  0  0  0
 22 25  2  0  0  0  0
 23 24  2  0  0  0  0
 24 25  1  0  0  0  0
 26 21  2  0  0  0  0
 26 23  1  0  0  0  0
 27 28  1  0  0  0  0
 27 26  1  0  0  0  0
 28 29  1  0  0  0  0
 29 30  1  0  0  0  0
 30 31  1  0  0  0  0
 31 33  1  0  0  0  0
 33 32  1  0  0  0  0
 35 36  1  0  0  0  0
 35 34  1  0  0  0  0
 37 36  1  0  0  0  0
 38 37  1  0  0  0  0
 39 47  1  0  0  0  0
 39 50  1  0  0  0  0
 41 40  1  0  0  0  0
 41 45  1  0  0  0  0
 42 38  1  0  0  0  0
 43 49  1  0  0  0  0
 44 41  1  0  0  0  0
 44 52  1  0  0  0  0
 45 42  1  0  0  0  0
 46 53  1  0  0  0  0
 47 50  1  0  0  0  0
 48 52  1  0  0  0  0
 49 54  1  0  0  0  0
 49 44  1  0  0  0  0
 49 47  1  0  0  0  0
 50 45  1  0  0  0  0
 51 41  1  0  0  0  0
 52 42  1  0  0  0  0
 53 51  1  0  0  0  0
 53 39  1  0  0  0  0
 54 55  1  0  0  0  0
M  END
>  <MODEL>
2

>  <REMARK>
 VINA RESULT:      -5.9      2.664      5.432
  Name = 
  23 active torsions:
  status: ('A' for Active; 'I' for Inactive)
    1  A    between atoms: C_4  and  C_37
    2  A    between atoms: C_4  and  C_40
    3  A    between atoms: C_5  and  O_19
    4  A    between atoms: C_5  and  C_40
    5  A    between atoms: C_7  and  N_22
    6  A    between atoms: C_8  and  N_22
    7  A    between atoms: C_8  and  C_43
    8  A    between atoms: C_10  and  C_32
    9  A    between atoms: C_11  and  C_38
   10  A    between atoms: C_13  and  C_48
   11  A    between atoms: C_13  and  C_52
   12  A    between atoms: C_16  and  C_36
   13  A    between atoms: O_19  and  C_45
   14  A    between atoms: C_26  and  C_45
   15  A    between atoms: C_27  and  C_54
   16  A    between atoms: P_28  and  C_44
   17  A    between atoms: P_28  and  C_49
   18  A    between atoms: C_32  and  C_48
   19  A    between atoms: N_33  and  C_49
   20  A    between atoms: N_33  and  C_52
   21  A    between atoms: C_36  and  C_49
   22  A    between atoms: C_43  and  C_51
   23  A    between atoms: C_51  and  C_54
                            x       y       z     vdW  Elec       q    Type
                         _______ _______ _______ _____ _____    ______ ____

>  <TORSDO>
F 23

$$$$
=
 OpenBabel11052419313D

 55 60  0  0  1  0  0  0  0  0999 V2000
  189.7110  173.4380  144.4440 C   0  0  0  0  0  2  0  0  0  0  0  0
  191.5000  172.3670  142.3790 C   0  0  2  0  0  3  0  0  0  0  0  0
  191.4690  173.8580  142.7200 C   0  0  0  0  0  2  0  0  0  0  0  0
  189.7490  171.9440  144.1250 C   0  0  0  0  0  2  0  0  0  0  0  0
  190.0750  174.2410  143.2020 C   0  0  2  0  0  3  0  0  0  0  0  0
  191.1320  171.5440  143.6120 C   0  0  0  0  0  2  0  0  0  0  0  0
  190.4880  176.9890  142.5070 O   0  0  0  0  0  0  0  0  0  0  0  0
  190.0130  176.0150  143.5590 P   0  0  1  0  0  4  0  0  0  0  0  0
  189.2520  176.6630  145.0790 C   0  0  1  0  0  3  0  0  0  0  0  0
  190.2890  177.1610  145.9750 N   0  0  0  0  0  2  0  0  0  0  0  0
  190.0550  175.3040  147.4120 O   0  0  0  0  0  1  0  0  0  0  0  0
  190.9610  176.0460  146.6500 C   0  0  2  0  0  3  0  0  0  0  0  0
  192.1240  176.5190  147.5170 C   0  0  0  0  0  2  0  0  0  0  0  0
  193.4700  176.1170  146.9160 C   0  0  0  0  0  2  0  0  0  0  0  0
  193.3590  175.4560  145.5370 C   0  0  2  0  0  3  0  0  0  0  0  0
  193.6730  173.9690  145.5730 C   0  0  0  0  0  1  0  0  0  0  0  0
  194.1650  176.1650  144.4960 C   0  0  0  0  0  0  0  0  0  0  0  0
  195.3070  176.6040  144.7860 O   0  0  0  0  0  1  0  0  0  0  0  0
  193.6760  176.3190  143.2020 O   0  0  0  0  0  0  0  0  0  0  0  0
  188.2570  177.7790  144.7770 C   0  0  0  0  0  2  0  0  0  0  0  0
  184.7250  177.4250  146.2070 C   0  0  0  0  0  3  0  0  0  0  0  0
  184.9530  177.7820  147.5370 C   0  0  0  0  0  3  0  0  0  0  0  0
  187.0780  177.7710  145.7060 C   0  0  0  0  0  0  0  0  0  0  0  0
  187.2970  178.1190  147.0440 C   0  0  0  0  0  3  0  0  0  0  0  0
  186.2390  178.1240  147.9570 C   0  0  0  0  0  3  0  0  0  0  0  0
  185.7800  177.4080  145.2870 C   0  0  0  0  0  0  0  0  0  0  0  0
  185.4770  177.0470  143.8680 C   0  0  0  0  0  2  0  0  0  0  0  0
  184.4040  177.8120  143.4010 O   0  0  0  0  0  0  0  0  0  0  0  0
  184.9880  178.9170  142.7790 C   0  0  0  0  0  2  0  0  0  0  0  0
  186.1270  178.4620  141.8790 C   0  0  0  0  0  2  0  0  0  0  0  0
  185.6140  178.0360  140.5130 C   0  0  0  0  0  2  0  0  0  0  0  0
  187.4560  176.3900  140.6840 C   0  0  0  0  0  1  0  0  0  0  0  0
  186.6980  177.3020  139.7450 C   0  0  0  0  0  2  0  0  0  0  0  0
  192.8740  171.9500  141.8810 C   0  0  0  0  0  2  0  0  0  0  0  0
  192.8430  170.5180  141.3760 C   0  0  0  0  0  2  0  0  0  0  0  0
  194.0150  170.2500  140.4480 C   0  0  0  0  0  2  0  0  0  0  0  0
  193.5360  170.0910  139.0130 C   0  0  0  0  0  2  0  0  0  0  0  0
  192.0900  169.9280  138.9870 N   0  0  0  0  0  2  0  0  0  0  0  0
  189.8410  173.5080  138.7010 N   0  0  2  0  0  0  0  0  0  0  0  0
  190.2820  170.9930  135.3140 O   0  0  0  0  0  1  0  0  0  0  0  0
  190.4670  171.8940  136.3700 C   0  0  2  0  0  0  0  0  0  0  0  0
  191.6230  170.2850  137.6530 C   0  0  1  0  0  3  0  0  0  0  0  0
  191.8270  174.7320  136.7780 O   0  0  0  0  0  1  0  0  0  0  0  0
  191.9290  172.3600  136.3970 C   0  0  1  0  0  3  0  0  0  0  0  0
  190.3710  171.1720  137.6840 C   0  0  1  0  0  3  0  0  0  0  0  0
  187.9850  174.5680  137.5100 C   0  0  0  0  0  1  0  0  0  0  0  0
  191.3310  173.3580  138.7510 C   0  0  2  0  0  3  0  0  0  0  0  0
  193.1350  170.3730  135.8180 F   0  0  0  0  0  0  0  0  0  0  0  0
  192.1490  173.5250  137.4090 C   0  0  2  0  0  0  0  0  0  0  0  0
  190.4490  172.1630  138.8820 C   0  0  1  0  0  3  0  0  0  0  0  0
  189.3720  172.9370  136.2590 C   0  0  0  0  0  2  0  0  0  0  0  0
  192.6680  171.1040  136.8950 C   0  0  2  0  0  3  0  0  0  0  0  0
  189.3660  173.9580  137.3800 C   0  0  2  0  0  3  0  0  0  0  0  0
  193.6410  173.6090  137.7720 C   0  0  0  0  0  2  0  0  0  0  0  0
  193.8760  174.0980  139.1960 C   0  0  0  0  0  1  0  0  0  0  0  0
  2 34  1  1  0  0  0
  2  3  1  0  0  0  0
  2  6  1  0  0  0  0
  3  5  1  0  0  0  0
  4  1  1  0  0  0  0
  5  8  1  1  0  0  0
  5  1  1  0  0  0  0
  6  4  1  0  0  0  0
  8  7  2  6  0  0  0
  8  9  1  0  0  0  0
  9 20  1  6  0  0  0
  9 10  1  0  0  0  0
 10 12  1  0  0  0  0
 12 11  1  1  0  0  0
 12 13  1  0  0  0  0
 14 13  1  0  0  0  0
 15 16  1  1  0  0  0
 15 14  1  0  0  0  0
 17 18  1  0  0  0  0
 17 15  1  0  0  0  0
 19 17  2  0  0  0  0
 20 23  1  0  0  0  0
 21 22  1  0  0  0  0
 22 25  2  0  0  0  0
 23 24  2  0  0  0  0
 24 25  1  0  0  0  0
 26 23  1  0  0  0  0
 26 21  2  0  0  0  0
 27 26  1  0  0  0  0
 28 27  1  0  0  0  0
 29 28  1  0  0  0  0
 30 29  1  0  0  0  0
 31 30  1  0  0  0  0
 33 31  1  0  0  0  0
 33 32  1  0  0  0  0
 35 34  1  0  0  0  0
 36 35  1  0  0  0  0
 37 36  1  0  0  0  0
 38 37  1  0  0  0  0
 39 47  1  0  0  0  0
 39 50  1  0  0  0  0
 40 41  1  0  0  0  0
 41 44  1  0  0  0  0
 41 45  1  0  0  0  0
 42 45  1  0  0  0  0
 42 38  1  0  0  0  0
 43 49  1  0  0  0  0
 44 52  1  0  0  0  0
 44 49  1  0  0  0  0
 45 50  1  0  0  0  0
 47 50  1  0  0  0  0
 48 52  1  0  0  0  0
 49 54  1  0  0  0  0
 49 47  1  0  0  0  0
 51 41  1  0  0  0  0
 51 53  1  0  0  0  0
 52 42  1  0  0  0  0
 53 46  1  0  0  0  0
 53 39  1  0  0  0  0
 54 55  1  0  0  0  0
M  END
>  <MODEL>
3

>  <REMARK>
 VINA RESULT:      -5.6      2.377      6.477
  Name = 
  23 active torsions:
  status: ('A' for Active; 'I' for Inactive)
    1  A    between atoms: C_4  and  C_37
    2  A    between atoms: C_4  and  C_40
    3  A    between atoms: C_5  and  O_19
    4  A    between atoms: C_5  and  C_40
    5  A    between atoms: C_7  and  N_22
    6  A    between atoms: C_8  and  N_22
    7  A    between atoms: C_8  and  C_43
    8  A    between atoms: C_10  and  C_32
    9  A    between atoms: C_11  and  C_38
   10  A    between atoms: C_13  and  C_48
   11  A    between atoms: C_13  and  C_52
   12  A    between atoms: C_16  and  C_36
   13  A    between atoms: O_19  and  C_45
   14  A    between atoms: C_26  and  C_45
   15  A    between atoms: C_27  and  C_54
   16  A    between atoms: P_28  and  C_44
   17  A    between atoms: P_28  and  C_49
   18  A    between atoms: C_32  and  C_48
   19  A    between atoms: N_33  and  C_49
   20  A    between atoms: N_33  and  C_52
   21  A    between atoms: C_36  and  C_49
   22  A    between atoms: C_43  and  C_51
   23  A    between atoms: C_51  and  C_54
                            x       y       z     vdW  Elec       q    Type
                         _______ _______ _______ _____ _____    ______ ____

>  <TORSDO>
F 23

$$$$
=
 OpenBabel11052419313D

 55 60  0  0  1  0  0  0  0  0999 V2000
  186.1400  176.9080  143.4700 C   0  0  0  0  0  2  0  0  0  0  0  0
  187.8330  176.1780  145.7530 C   0  0  2  0  0  3  0  0  0  0  0  0
  188.3980  176.2830  144.3350 C   0  0  0  0  0  2  0  0  0  0  0  0
  185.5700  176.8260  144.8850 C   0  0  0  0  0  2  0  0  0  0  0  0
  187.3090  175.9410  143.3270 C   0  0  2  0  0  3  0  0  0  0  0  0
  186.6550  177.1370  145.9150 C   0  0  0  0  0  2  0  0  0  0  0  0
  187.9350  177.3210  140.8960 O   0  0  0  0  0  0  0  0  0  0  0  0
  187.9800  176.0110  141.6460 P   0  0  1  0  0  4  0  0  0  0  0  0
  188.8470  174.5980  140.8980 C   0  0  1  0  0  3  0  0  0  0  0  0
  188.5560  174.5410  139.4710 N   0  0  0  0  0  2  0  0  0  0  0  0
  187.7640  172.4120  140.1120 O   0  0  0  0  0  1  0  0  0  0  0  0
  188.2960  173.1580  139.0570 C   0  0  2  0  0  3  0  0  0  0  0  0
  189.5470  172.4810  138.5050 C   0  0  0  0  0  2  0  0  0  0  0  0
  189.3180  170.9890  138.2660 C   0  0  0  0  0  2  0  0  0  0  0  0
  190.5070  170.2790  137.6090 C   0  0  2  0  0  3  0  0  0  0  0  0
  191.6990  170.1450  138.5430 C   0  0  0  0  0  1  0  0  0  0  0  0
  190.8950  170.8990  136.3040 C   0  0  0  0  0  0  0  0  0  0  0  0
  191.9930  171.5060  136.2070 O   0  0  0  0  0  1  0  0  0  0  0  0
  190.0680  170.7880  135.1910 O   0  0  0  0  0  0  0  0  0  0  0  0
  190.3550  174.6880  141.1090 C   0  0  0  0  0  2  0  0  0  0  0  0
  192.7820  171.7450  141.4110 C   0  0  0  0  0  3  0  0  0  0  0  0
  192.0220  170.8680  142.1860 C   0  0  0  0  0  3  0  0  0  0  0  0
  190.9720  173.3650  141.4600 C   0  0  0  0  0  0  0  0  0  0  0  0
  190.2210  172.4810  142.2440 C   0  0  0  0  0  3  0  0  0  0  0  0
  190.7440  171.2370  142.6060 C   0  0  0  0  0  3  0  0  0  0  0  0
  192.2710  172.9970  141.0500 C   0  0  0  0  0  0  0  0  0  0  0  0
  193.1150  173.8870  140.1950 C   0  0  0  0  0  2  0  0  0  0  0  0
  192.8890  173.6020  138.8450 O   0  0  0  0  0  0  0  0  0  0  0  0
  193.6750  174.5190  138.1440 C   0  0  0  0  0  2  0  0  0  0  0  0
  194.1830  173.8860  136.8570 C   0  0  0  0  0  2  0  0  0  0  0  0
  195.6400  174.2450  136.6050 C   0  0  0  0  0  2  0  0  0  0  0  0
  197.2250  176.0520  136.0130 C   0  0  0  0  0  1  0  0  0  0  0  0
  195.7790  175.7280  136.3190 C   0  0  0  0  0  2  0  0  0  0  0  0
  188.8970  176.5010  146.7890 C   0  0  0  0  0  2  0  0  0  0  0  0
  189.6140  175.2340  147.2270 C   0  0  0  0  0  2  0  0  0  0  0  0
  190.8670  175.5710  148.0140 C   0  0  0  0  0  2  0  0  0  0  0  0
  192.1100  175.1160  147.2630 C   0  0  0  0  0  2  0  0  0  0  0  0
  192.8640  176.2730  146.8020 N   0  0  0  0  0  2  0  0  0  0  0  0
  196.4750  175.2090  144.8560 N   0  0  2  0  0  0  0  0  0  0  0  0
  193.1600  176.5850  142.5940 O   0  0  0  0  0  1  0  0  0  0  0  0
  194.0600  175.8490  143.3760 C   0  0  2  0  0  0  0  0  0  0  0  0
  192.8300  176.2770  145.3450 C   0  0  1  0  0  3  0  0  0  0  0  0
  195.1600  172.8740  143.4550 O   0  0  0  0  0  1  0  0  0  0  0  0
  193.4240  174.5080  143.7650 C   0  0  1  0  0  3  0  0  0  0  0  0
  194.2160  176.4950  144.7230 C   0  0  1  0  0  3  0  0  0  0  0  0
  197.8450  175.6640  142.8810 C   0  0  0  0  0  1  0  0  0  0  0  0
  195.4380  174.2950  145.4370 C   0  0  2  0  0  3  0  0  0  0  0  0
  191.1360  175.0960  144.1630 F   0  0  0  0  0  0  0  0  0  0  0  0
  194.4500  173.5560  144.4500 C   0  0  2  0  0  0  0  0  0  0  0  0
  195.3020  175.7740  145.5740 C   0  0  1  0  0  3  0  0  0  0  0  0
  195.3840  175.8410  142.6380 C   0  0  0  0  0  2  0  0  0  0  0  0
  192.3570  174.9330  144.7920 C   0  0  2  0  0  3  0  0  0  0  0  0
  196.5110  175.1530  143.3830 C   0  0  2  0  0  3  0  0  0  0  0  0
  193.6940  172.4850  145.2530 C   0  0  0  0  0  2  0  0  0  0  0  0
  194.6040  171.3760  145.7650 C   0  0  0  0  0  1  0  0  0  0  0  0
  1  4  1  0  0  0  0
  2  6  1  0  0  0  0
  2 34  1  1  0  0  0
  3  2  1  0  0  0  0
  4  6  1  0  0  0  0
  5  8  1  6  0  0  0
  5  1  1  0  0  0  0
  5  3  1  0  0  0  0
  8  7  2  1  0  0  0
  9 20  1  6  0  0  0
  9  8  1  0  0  0  0
 10  9  1  0  0  0  0
 12 10  1  0  0  0  0
 12 11  1  1  0  0  0
 13 12  1  0  0  0  0
 14 13  1  0  0  0  0
 15 14  1  0  0  0  0
 15 16  1  1  0  0  0
 17 15  1  0  0  0  0
 18 17  1  0  0  0  0
 19 17  2  0  0  0  0
 20 23  1  0  0  0  0
 21 22  1  0  0  0  0
 22 25  2  0  0  0  0
 23 24  2  0  0  0  0
 24 25  1  0  0  0  0
 26 21  2  0  0  0  0
 26 23  1  0  0  0  0
 27 26  1  0  0  0  0
 28 27  1  0  0  0  0
 29 28  1  0  0  0  0
 30 29  1  0  0  0  0
 31 30  1  0  0  0  0
 32 33  1  0  0  0  0
 33 31  1  0  0  0  0
 34 35  1  0  0  0  0
 35 36  1  0  0  0  0
 37 36  1  0  0  0  0
 38 37  1  0  0  0  0
 39 47  1  0  0  0  0
 39 50  1  0  0  0  0
 40 41  1  0  0  0  0
 41 44  1  0  0  0  0
 41 45  1  0  0  0  0
 42 38  1  0  0  0  0
 43 49  1  0  0  0  0
 44 49  1  0  0  0  0
 44 52  1  0  0  0  0
 45 42  1  0  0  0  0
 45 50  1  0  0  0  0
 46 53  1  0  0  0  0
 47 50  1  0  0  0  0
 48 52  1  0  0  0  0
 49 54  1  0  0  0  0
 49 47  1  0  0  0  0
 51 41  1  0  0  0  0
 51 53  1  0  0  0  0
 52 42  1  0  0  0  0
 53 39  1  0  0  0  0
 54 55  1  0  0  0  0
M  END
>  <MODEL>
4

>  <REMARK>
 VINA RESULT:      -5.5      2.621      7.846
  Name = 
  23 active torsions:
  status: ('A' for Active; 'I' for Inactive)
    1  A    between atoms: C_4  and  C_37
    2  A    between atoms: C_4  and  C_40
    3  A    between atoms: C_5  and  O_19
    4  A    between atoms: C_5  and  C_40
    5  A    between atoms: C_7  and  N_22
    6  A    between atoms: C_8  and  N_22
    7  A    between atoms: C_8  and  C_43
    8  A    between atoms: C_10  and  C_32
    9  A    between atoms: C_11  and  C_38
   10  A    between atoms: C_13  and  C_48
   11  A    between atoms: C_13  and  C_52
   12  A    between atoms: C_16  and  C_36
   13  A    between atoms: O_19  and  C_45
   14  A    between atoms: C_26  and  C_45
   15  A    between atoms: C_27  and  C_54
   16  A    between atoms: P_28  and  C_44
   17  A    between atoms: P_28  and  C_49
   18  A    between atoms: C_32  and  C_48
   19  A    between atoms: N_33  and  C_49
   20  A    between atoms: N_33  and  C_52
   21  A    between atoms: C_36  and  C_49
   22  A    between atoms: C_43  and  C_51
   23  A    between atoms: C_51  and  C_54
                            x       y       z     vdW  Elec       q    Type
                         _______ _______ _______ _____ _____    ______ ____

>  <TORSDO>
F 23

$$$$
=
 OpenBabel11052419313D

 55 60  0  0  1  0  0  0  0  0999 V2000
  193.1870  176.2650  143.1640 C   0  0  0  0  0  2  0  0  0  0  0  0
  195.2340  174.1670  143.0230 C   0  0  2  0  0  3  0  0  0  0  0  0
  194.2860  174.2850  144.2180 C   0  0  0  0  0  2  0  0  0  0  0  0
  194.1150  176.1430  141.9570 C   0  0  0  0  0  2  0  0  0  0  0  0
  193.8900  175.7430  144.4120 C   0  0  2  0  0  3  0  0  0  0  0  0
  194.5490  174.6910  141.7620 C   0  0  0  0  0  2  0  0  0  0  0  0
  193.2770  176.7230  147.0330 O   0  0  0  0  0  0  0  0  0  0  0  0
  192.8080  175.9010  145.8550 P   0  0  1  0  0  4  0  0  0  0  0  0
  191.1170  175.2350  145.8660 C   0  0  1  0  0  3  0  0  0  0  0  0
  190.3990  175.7290  147.0350 N   0  0  0  0  0  2  0  0  0  0  0  0
  189.7240  177.9230  147.5840 O   0  0  0  0  0  1  0  0  0  0  0  0
  189.5600  176.8760  146.6730 C   0  0  2  0  0  3  0  0  0  0  0  0
  188.0870  176.4950  146.5610 C   0  0  0  0  0  2  0  0  0  0  0  0
  187.2360  177.2390  147.5890 C   0  0  0  0  0  2  0  0  0  0  0  0
  186.2910  178.2780  146.9730 C   0  0  2  0  0  3  0  0  0  0  0  0
  186.1820  179.5420  147.8120 C   0  0  0  0  0  1  0  0  0  0  0  0
  184.9450  177.7100  146.6540 C   0  0  0  0  0  0  0  0  0  0  0  0
  183.9120  178.3890  146.8900 O   0  0  0  0  0  1  0  0  0  0  0  0
  184.8240  176.4510  146.0750 O   0  0  0  0  0  0  0  0  0  0  0  0
  190.3550  175.6140  144.6000 C   0  0  0  0  0  2  0  0  0  0  0  0
  188.3900  173.3950  142.1800 C   0  0  0  0  0  3  0  0  0  0  0  0
  188.6770  172.1320  142.7030 C   0  0  0  0  0  3  0  0  0  0  0  0
  189.7470  174.4260  143.9110 C   0  0  0  0  0  0  0  0  0  0  0  0
  190.0340  173.1550  144.4240 C   0  0  0  0  0  3  0  0  0  0  0  0
  189.5020  172.0130  143.8220 C   0  0  0  0  0  3  0  0  0  0  0  0
  188.9260  174.5450  142.7700 C   0  0  0  0  0  0  0  0  0  0  0  0
  188.5640  175.8740  142.1880 C   0  0  0  0  0  2  0  0  0  0  0  0
  187.2160  175.8820  141.8220 O   0  0  0  0  0  0  0  0  0  0  0  0
  186.5380  176.3700  142.9410 C   0  0  0  0  0  2  0  0  0  0  0  0
  187.0630  177.7520  143.3010 C   0  0  0  0  0  2  0  0  0  0  0  0
  185.9520  178.7900  143.2670 C   0  0  0  0  0  2  0  0  0  0  0  0
  183.4920  178.9870  143.4700 C   0  0  0  0  0  1  0  0  0  0  0  0
  184.6240  178.1340  142.9370 C   0  0  0  0  0  2  0  0  0  0  0  0
  195.6620  172.7250  142.8070 C   0  0  0  0  0  2  0  0  0  0  0  0
  195.0640  172.1810  141.5210 C   0  0  0  0  0  2  0  0  0  0  0  0
  194.9800  170.6650  141.5660 C   0  0  0  0  0  2  0  0  0  0  0  0
  194.3250  170.1270  140.3040 C   0  0  0  0  0  2  0  0  0  0  0  0
  192.8850  170.0240  140.4970 N   0  0  0  0  0  2  0  0  0  0  0  0
  190.5080  173.4370  139.6880 N   0  0  2  0  0  0  0  0  0  0  0  0
  190.6240  170.2180  136.9280 O   0  0  0  0  0  1  0  0  0  0  0  0
  190.9040  171.3370  137.7230 C   0  0  2  0  0  0  0  0  0  0  0  0
  192.2540  170.0670  139.1840 C   0  0  1  0  0  3  0  0  0  0  0  0
  192.2140  174.1980  137.3100 O   0  0  0  0  0  1  0  0  0  0  0  0
  192.3440  171.8020  137.4650 C   0  0  1  0  0  3  0  0  0  0  0  0
  190.9870  170.9320  139.1670 C   0  0  1  0  0  3  0  0  0  0  0  0
  188.4930  174.1910  138.5240 C   0  0  0  0  0  1  0  0  0  0  0  0
  191.9980  173.3080  139.5880 C   0  0  2  0  0  3  0  0  0  0  0  0
  193.5350  169.7390  137.2060 F   0  0  0  0  0  0  0  0  0  0  0  0
  192.6450  173.1670  138.1530 C   0  0  2  0  0  0  0  0  0  0  0  0
  191.1750  172.1710  140.0910 C   0  0  1  0  0  3  0  0  0  0  0  0
  189.7720  172.3230  137.5130 C   0  0  0  0  0  2  0  0  0  0  0  0
  193.1750  170.6940  138.1400 C   0  0  2  0  0  3  0  0  0  0  0  0
  189.8660  173.5720  138.3670 C   0  0  2  0  0  3  0  0  0  0  0  0
  194.1660  173.3370  138.3020 C   0  0  0  0  0  2  0  0  0  0  0  0
  194.6500  174.7220  137.8910 C   0  0  0  0  0  1  0  0  0  0  0  0
  1  5  1  0  0  0  0
  2 34  1  6  0  0  0
  2  3  1  0  0  0  0
  3  5  1  0  0  0  0
  4  1  1  0  0  0  0
  5  8  1  1  0  0  0
  6  4  1  0  0  0  0
  6  2  1  0  0  0  0
  8  9  1  0  0  0  0
  8  7  2  6  0  0  0
  9 20  1  6  0  0  0
  9 10  1  0  0  0  0
 12 10  1  0  0  0  0
 12 11  1  1  0  0  0
 13 12  1  0  0  0  0
 13 14  1  0  0  0  0
 15 14  1  0  0  0  0
 15 16  1  1  0  0  0
 17 18  1  0  0  0  0
 17 15  1  0  0  0  0
 19 17  2  0  0  0  0
 21 22  2  0  0  0  0
 21 26  1  0  0  0  0
 22 25  1  0  0  0  0
 23 24  1  0  0  0  0
 23 20  1  0  0  0  0
 25 24  2  0  0  0  0
 26 23  2  0  0  0  0
 27 26  1  0  0  0  0
 28 27  1  0  0  0  0
 28 29  1  0  0  0  0
 29 30  1  0  0  0  0
 31 30  1  0  0  0  0
 33 31  1  0  0  0  0
 33 32  1  0  0  0  0
 35 36  1  0  0  0  0
 35 34  1  0  0  0  0
 37 38  1  0  0  0  0
 37 36  1  0  0  0  0
 39 50  1  0  0  0  0
 40 41  1  0  0  0  0
 41 45  1  0  0  0  0
 42 38  1  0  0  0  0
 43 49  1  0  0  0  0
 44 41  1  0  0  0  0
 44 52  1  0  0  0  0
 44 49  1  0  0  0  0
 45 42  1  0  0  0  0
 45 50  1  0  0  0  0
 47 39  1  0  0  0  0
 47 50  1  0  0  0  0
 48 52  1  0  0  0  0
 49 54  1  0  0  0  0
 49 47  1  0  0  0  0
 51 41  1  0  0  0  0
 51 53  1  0  0  0  0
 52 42  1  0  0  0  0
 53 46  1  0  0  0  0
 53 39  1  0  0  0  0
 55 54  1  0  0  0  0
M  END
>  <MODEL>
5

>  <REMARK>
 VINA RESULT:      -5.5      2.424      5.371
  Name = 
  23 active torsions:
  status: ('A' for Active; 'I' for Inactive)
    1  A    between atoms: C_4  and  C_37
    2  A    between atoms: C_4  and  C_40
    3  A    between atoms: C_5  and  O_19
    4  A    between atoms: C_5  and  C_40
    5  A    between atoms: C_7  and  N_22
    6  A    between atoms: C_8  and  N_22
    7  A    between atoms: C_8  and  C_43
    8  A    between atoms: C_10  and  C_32
    9  A    between atoms: C_11  and  C_38
   10  A    between atoms: C_13  and  C_48
   11  A    between atoms: C_13  and  C_52
   12  A    between atoms: C_16  and  C_36
   13  A    between atoms: O_19  and  C_45
   14  A    between atoms: C_26  and  C_45
   15  A    between atoms: C_27  and  C_54
   16  A    between atoms: P_28  and  C_44
   17  A    between atoms: P_28  and  C_49
   18  A    between atoms: C_32  and  C_48
   19  A    between atoms: N_33  and  C_49
   20  A    between atoms: N_33  and  C_52
   21  A    between atoms: C_36  and  C_49
   22  A    between atoms: C_43  and  C_51
   23  A    between atoms: C_51  and  C_54
                            x       y       z     vdW  Elec       q    Type
                         _______ _______ _______ _____ _____    ______ ____

>  <TORSDO>
F 23

$$$$
=
 OpenBabel11052419313D

 55 60  0  0  1  0  0  0  0  0999 V2000
  188.7520  173.6080  139.3550 C   0  0  0  0  0  2  0  0  0  0  0  0
  191.0470  172.0570  138.3840 C   0  0  2  0  0  3  0  0  0  0  0  0
  190.8560  172.3660  139.8700 C   0  0  0  0  0  2  0  0  0  0  0  0
  188.9210  173.2870  137.8710 C   0  0  0  0  0  2  0  0  0  0  0  0
  190.1170  173.6890  140.0260 C   0  0  2  0  0  3  0  0  0  0  0  0
  189.6870  171.9770  137.6920 C   0  0  0  0  0  2  0  0  0  0  0  0
  189.8010  172.9620  142.7780 O   0  0  0  0  0  0  0  0  0  0  0  0
  189.9320  174.0890  141.7820 P   0  0  1  0  0  4  0  0  0  0  0  0
  190.0590  175.7960  142.3970 C   0  0  1  0  0  3  0  0  0  0  0  0
  189.1100  176.6470  141.6890 N   0  0  0  0  0  2  0  0  0  0  0  0
  187.1810  175.3520  142.1060 O   0  0  0  0  0  1  0  0  0  0  0  0
  187.7920  176.5880  142.3310 C   0  0  2  0  0  3  0  0  0  0  0  0
  186.8810  177.7230  141.8730 C   0  0  0  0  0  2  0  0  0  0  0  0
  186.4690  178.6160  143.0430 C   0  0  0  0  0  2  0  0  0  0  0  0
  185.0760  178.3010  143.6000 C   0  0  2  0  0  3  0  0  0  0  0  0
  184.0370  178.1090  142.5060 C   0  0  0  0  0  1  0  0  0  0  0  0
  184.6260  179.2990  144.6180 C   0  0  0  0  0  0  0  0  0  0  0  0
  185.1930  180.4200  144.6820 O   0  0  0  0  0  0  0  0  0  0  0  0
  183.5710  179.0110  145.4780 O   0  0  0  0  0  1  0  0  0  0  0  0
  189.7960  175.8740  143.8970 C   0  0  0  0  0  2  0  0  0  0  0  0
  192.4800  175.7190  146.6200 C   0  0  0  0  0  3  0  0  0  0  0  0
  193.4310  176.5920  146.0890 C   0  0  0  0  0  3  0  0  0  0  0  0
  191.0480  176.1000  144.6950 C   0  0  0  0  0  0  0  0  0  0  0  0
  192.0110  176.9680  144.1670 C   0  0  0  0  0  3  0  0  0  0  0  0
  193.1990  177.2130  144.8620 C   0  0  0  0  0  3  0  0  0  0  0  0
  191.2910  175.4590  145.9290 C   0  0  0  0  0  0  0  0  0  0  0  0
  190.2940  174.5390  146.5550 C   0  0  0  0  0  2  0  0  0  0  0  0
  189.6530  175.1830  147.6170 O   0  0  0  0  0  0  0  0  0  0  0  0
  188.3110  175.2590  147.2390 C   0  0  0  0  0  2  0  0  0  0  0  0
  187.9140  176.7130  147.0290 C   0  0  0  0  0  2  0  0  0  0  0  0
  186.4170  176.8480  146.8000 C   0  0  0  0  0  2  0  0  0  0  0  0
  186.9230  178.8880  148.1090 C   0  0  0  0  0  1  0  0  0  0  0  0
  185.8350  177.9140  147.7100 C   0  0  0  0  0  2  0  0  0  0  0  0
  191.7940  170.7480  138.1900 C   0  0  0  0  0  2  0  0  0  0  0  0
  193.1800  170.8310  138.8050 C   0  0  0  0  0  2  0  0  0  0  0  0
  194.0670  171.7690  138.0060 C   0  0  0  0  0  2  0  0  0  0  0  0
  194.6500  172.8500  138.9030 C   0  0  0  0  0  2  0  0  0  0  0  0
  195.1080  172.2630  140.1540 N   0  0  0  0  0  2  0  0  0  0  0  0
  197.2460  173.0350  143.7310 N   0  0  2  0  0  0  0  0  0  0  0  0
  193.0500  173.6460  143.5820 O   0  0  0  0  0  1  0  0  0  0  0  0
  194.4410  173.7260  143.4350 C   0  0  2  0  0  0  0  0  0  0  0  0
  194.3440  172.8690  141.2380 C   0  0  1  0  0  3  0  0  0  0  0  0
  196.6540  175.9960  143.5760 O   0  0  0  0  0  1  0  0  0  0  0  0
  194.7920  174.9040  142.5160 C   0  0  1  0  0  3  0  0  0  0  0  0
  194.9390  172.5670  142.6200 C   0  0  1  0  0  3  0  0  0  0  0  0
  197.0350  173.0880  146.1680 C   0  0  0  0  0  1  0  0  0  0  0  0
  197.2050  173.8670  142.4850 C   0  0  2  0  0  3  0  0  0  0  0  0
  193.0550  174.8340  140.8680 F   0  0  0  0  0  0  0  0  0  0  0  0
  196.3260  175.1800  142.4860 C   0  0  2  0  0  0  0  0  0  0  0  0
  196.4940  172.5570  142.5410 C   0  0  1  0  0  3  0  0  0  0  0  0
  195.0360  173.6870  144.8280 C   0  0  0  0  0  2  0  0  0  0  0  0
  194.3390  174.3930  141.1350 C   0  0  2  0  0  3  0  0  0  0  0  0
  196.5520  173.6810  144.8610 C   0  0  2  0  0  3  0  0  0  0  0  0
  196.6750  175.9840  141.2230 C   0  0  0  0  0  2  0  0  0  0  0  0
  197.7230  175.2970  140.3560 C   0  0  0  0  0  1  0  0  0  0  0  0
  1  5  1  0  0  0  0
  2 34  1  1  0  0  0
  2  3  1  0  0  0  0
  3  5  1  0  0  0  0
  4  1  1  0  0  0  0
  5  8  1  1  0  0  0
  6  4  1  0  0  0  0
  6  2  1  0  0  0  0
  8  9  1  0  0  0  0
  8  7  2  1  0  0  0
  9 20  1  1  0  0  0
 10 12  1  0  0  0  0
 10  9  1  0  0  0  0
 12 11  1  6  0  0  0
 13 12  1  0  0  0  0
 13 14  1  0  0  0  0
 14 15  1  0  0  0  0
 15 16  1  6  0  0  0
 15 17  1  0  0  0  0
 17 18  2  0  0  0  0
 17 19  1  0  0  0  0
 20 23  1  0  0  0  0
 22 21  1  0  0  0  0
 23 26  1  0  0  0  0
 24 23  2  0  0  0  0
 24 25  1  0  0  0  0
 25 22  2  0  0  0  0
 26 27  1  0  0  0  0
 26 21  2  0  0  0  0
 27 28  1  0  0  0  0
 29 28  1  0  0  0  0
 30 29  1  0  0  0  0
 31 30  1  0  0  0  0
 31 33  1  0  0  0  0
 33 32  1  0  0  0  0
 34 35  1  0  0  0  0
 36 35  1  0  0  0  0
 36 37  1  0  0  0  0
 37 38  1  0  0  0  0
 38 42  1  0  0  0  0
 39 53  1  0  0  0  0
 41 40  1  0  0  0  0
 41 51  1  0  0  0  0
 42 45  1  0  0  0  0
 44 41  1  0  0  0  0
 45 41  1  0  0  0  0
 47 49  1  0  0  0  0
 47 50  1  0  0  0  0
 47 39  1  0  0  0  0
 48 52  1  0  0  0  0
 49 44  1  0  0  0  0
 49 43  1  0  0  0  0
 50 45  1  0  0  0  0
 50 39  1  0  0  0  0
 51 53  1  0  0  0  0
 52 42  1  0  0  0  0
 52 44  1  0  0  0  0
 53 46  1  0  0  0  0
 54 49  1  0  0  0  0
 55 54  1  0  0  0  0
M  END
>  <MODEL>
6

>  <REMARK>
 VINA RESULT:      -5.5      1.692      2.142
  Name = 
  23 active torsions:
  status: ('A' for Active; 'I' for Inactive)
    1  A    between atoms: C_4  and  C_37
    2  A    between atoms: C_4  and  C_40
    3  A    between atoms: C_5  and  O_19
    4  A    between atoms: C_5  and  C_40
    5  A    between atoms: C_7  and  N_22
    6  A    between atoms: C_8  and  N_22
    7  A    between atoms: C_8  and  C_43
    8  A    between atoms: C_10  and  C_32
    9  A    between atoms: C_11  and  C_38
   10  A    between atoms: C_13  and  C_48
   11  A    between atoms: C_13  and  C_52
   12  A    between atoms: C_16  and  C_36
   13  A    between atoms: O_19  and  C_45
   14  A    between atoms: C_26  and  C_45
   15  A    between atoms: C_27  and  C_54
   16  A    between atoms: P_28  and  C_44
   17  A    between atoms: P_28  and  C_49
   18  A    between atoms: C_32  and  C_48
   19  A    between atoms: N_33  and  C_49
   20  A    between atoms: N_33  and  C_52
   21  A    between atoms: C_36  and  C_49
   22  A    between atoms: C_43  and  C_51
   23  A    between atoms: C_51  and  C_54
                            x       y       z     vdW  Elec       q    Type
                         _______ _______ _______ _____ _____    ______ ____

>  <TORSDO>
F 23

$$$$
=
 OpenBabel11052419313D

 55 60  0  0  1  0  0  0  0  0999 V2000
  188.2420  174.3850  141.4300 C   0  0  0  0  0  2  0  0  0  0  0  0
  189.9380  173.1420  139.3830 C   0  0  2  0  0  3  0  0  0  0  0  0
  190.0330  172.7410  140.8560 C   0  0  0  0  0  2  0  0  0  0  0  0
  188.1250  174.7780  139.9590 C   0  0  0  0  0  2  0  0  0  0  0  0
  189.6650  173.9310  141.7320 C   0  0  2  0  0  3  0  0  0  0  0  0
  188.5180  173.6060  139.0610 C   0  0  0  0  0  2  0  0  0  0  0  0
  189.6070  172.0440  143.8870 O   0  0  0  0  0  0  0  0  0  0  0  0
  189.8240  173.4830  143.4790 P   0  0  1  0  0  4  0  0  0  0  0  0
  190.3900  174.6750  144.7300 C   0  0  1  0  0  3  0  0  0  0  0  0
  189.2420  175.3560  145.3170 N   0  0  0  0  0  2  0  0  0  0  0  0
  190.2890  177.3590  144.6390 O   0  0  0  0  0  1  0  0  0  0  0  0
  189.0700  176.6810  144.7130 C   0  0  2  0  0  3  0  0  0  0  0  0
  188.0380  177.5210  145.4600 C   0  0  0  0  0  2  0  0  0  0  0  0
  187.0420  178.1700  144.5000 C   0  0  0  0  0  2  0  0  0  0  0  0
  185.7130  177.4160  144.3860 C   0  0  2  0  0  3  0  0  0  0  0  0
  185.0910  177.5280  143.0030 C   0  0  0  0  0  1  0  0  0  0  0  0
  184.7430  177.7980  145.4590 C   0  0  0  0  0  0  0  0  0  0  0  0
  184.7140  177.1430  146.5330 O   0  0  0  0  0  1  0  0  0  0  0  0
  183.8920  178.8860  145.2930 O   0  0  0  0  0  0  0  0  0  0  0  0
  191.1990  173.9940  145.8300 C   0  0  0  0  0  2  0  0  0  0  0  0
  194.9940  174.1350  145.3620 C   0  0  0  0  0  3  0  0  0  0  0  0
  195.2760  175.3720  145.9450 C   0  0  0  0  0  3  0  0  0  0  0  0
  192.6330  174.4370  145.8530 C   0  0  0  0  0  0  0  0  0  0  0  0
  192.9260  175.6780  146.4290 C   0  0  0  0  0  3  0  0  0  0  0  0
  194.2420  176.1450  146.4740 C   0  0  0  0  0  3  0  0  0  0  0  0
  193.6780  173.6630  145.3030 C   0  0  0  0  0  0  0  0  0  0  0  0
  193.4340  172.3190  144.6940 C   0  0  0  0  0  2  0  0  0  0  0  0
  193.8030  171.3150  145.5930 O   0  0  0  0  0  0  0  0  0  0  0  0
  193.8680  170.1490  144.8290 C   0  0  0  0  0  2  0  0  0  0  0  0
  194.9790  169.2500  145.3500 C   0  0  0  0  0  2  0  0  0  0  0  0
  196.0580  170.0590  146.0530 C   0  0  0  0  0  2  0  0  0  0  0  0
  195.6250  168.1690  147.5930 C   0  0  0  0  0  1  0  0  0  0  0  0
  196.5510  169.3270  147.2880 C   0  0  0  0  0  2  0  0  0  0  0  0
  190.3110  171.9810  138.4760 C   0  0  0  0  0  2  0  0  0  0  0  0
  191.1060  172.4750  137.2800 C   0  0  0  0  0  2  0  0  0  0  0  0
  191.8870  173.7290  137.6350 C   0  0  0  0  0  2  0  0  0  0  0  0
  193.2600  173.7080  136.9810 C   0  0  0  0  0  2  0  0  0  0  0  0
  194.0220  174.8800  137.3870 N   0  0  0  0  0  2  0  0  0  0  0  0
  195.0700  175.6580  141.4190 N   0  0  2  0  0  0  0  0  0  0  0  0
  197.9400  174.0440  138.7430 O   0  0  0  0  0  1  0  0  0  0  0  0
  196.8580  174.2620  139.6050 C   0  0  2  0  0  0  0  0  0  0  0  0
  195.3450  174.4320  137.8020 C   0  0  1  0  0  3  0  0  0  0  0  0
  195.4610  172.7160  142.0000 O   0  0  0  0  0  1  0  0  0  0  0  0
  195.9920  172.9960  139.6710 C   0  0  1  0  0  3  0  0  0  0  0  0
  195.8960  175.2360  138.9870 C   0  0  1  0  0  3  0  0  0  0  0  0
  196.9470  176.2290  142.8810 C   0  0  0  0  0  1  0  0  0  0  0  0
  194.2400  174.5300  140.8840 C   0  0  2  0  0  3  0  0  0  0  0  0
  196.0470  172.1910  137.4150 F   0  0  0  0  0  0  0  0  0  0  0  0
  194.8980  173.0980  140.7760 C   0  0  2  0  0  0  0  0  0  0  0  0
  194.7440  175.5950  139.9700 C   0  0  1  0  0  3  0  0  0  0  0  0
  197.4240  174.8240  140.8940 C   0  0  0  0  0  2  0  0  0  0  0  0
  195.3190  172.9830  138.2860 C   0  0  2  0  0  3  0  0  0  0  0  0
  196.3780  175.2010  141.9250 C   0  0  2  0  0  3  0  0  0  0  0  0
  193.7790  172.0850  140.4800 C   0  0  0  0  0  2  0  0  0  0  0  0
  193.9350  170.7860  141.2610 C   0  0  0  0  0  1  0  0  0  0  0  0
  1  5  1  0  0  0  0
  2 34  1  6  0  0  0
  2  3  1  0  0  0  0
  3  5  1  0  0  0  0
  4  1  1  0  0  0  0
  5  8  1  1  0  0  0
  6  2  1  0  0  0  0
  6  4  1  0  0  0  0
  8  7  2  6  0  0  0
  8  9  1  0  0  0  0
  9 10  1  0  0  0  0
  9 20  1  1  0  0  0
 12 11  1  1  0  0  0
 12 10  1  0  0  0  0
 12 13  1  0  0  0  0
 14 13  1  0  0  0  0
 15 16  1  6  0  0  0
 15 14  1  0  0  0  0
 15 17  1  0  0  0  0
 17 18  1  0  0  0  0
 19 17  2  0  0  0  0
 20 23  1  0  0  0  0
 21 22  1  0  0  0  0
 22 25  2  0  0  0  0
 23 24  2  0  0  0  0
 24 25  1  0  0  0  0
 26 21  2  0  0  0  0
 26 23  1  0  0  0  0
 27 26  1  0  0  0  0
 27 28  1  0  0  0  0
 29 30  1  0  0  0  0
 29 28  1  0  0  0  0
 30 31  1  0  0  0  0
 31 33  1  0  0  0  0
 33 32  1  0  0  0  0
 35 36  1  0  0  0  0
 35 34  1  0  0  0  0
 37 38  1  0  0  0  0
 37 36  1  0  0  0  0
 38 42  1  0  0  0  0
 39 53  1  0  0  0  0
 40 41  1  0  0  0  0
 41 44  1  0  0  0  0
 41 51  1  0  0  0  0
 42 52  1  0  0  0  0
 42 45  1  0  0  0  0
 44 49  1  0  0  0  0
 45 41  1  0  0  0  0
 45 50  1  0  0  0  0
 47 39  1  0  0  0  0
 48 52  1  0  0  0  0
 49 47  1  0  0  0  0
 49 43  1  0  0  0  0
 50 47  1  0  0  0  0
 50 39  1  0  0  0  0
 51 53  1  0  0  0  0
 52 44  1  0  0  0  0
 53 46  1  0  0  0  0
 54 49  1  0  0  0  0
 54 55  1  0  0  0  0
M  END
>  <MODEL>
7

>  <REMARK>
 VINA RESULT:      -5.4      2.460      4.837
  Name = 
  23 active torsions:
  status: ('A' for Active; 'I' for Inactive)
    1  A    between atoms: C_4  and  C_37
    2  A    between atoms: C_4  and  C_40
    3  A    between atoms: C_5  and  O_19
    4  A    between atoms: C_5  and  C_40
    5  A    between atoms: C_7  and  N_22
    6  A    between atoms: C_8  and  N_22
    7  A    between atoms: C_8  and  C_43
    8  A    between atoms: C_10  and  C_32
    9  A    between atoms: C_11  and  C_38
   10  A    between atoms: C_13  and  C_48
   11  A    between atoms: C_13  and  C_52
   12  A    between atoms: C_16  and  C_36
   13  A    between atoms: O_19  and  C_45
   14  A    between atoms: C_26  and  C_45
   15  A    between atoms: C_27  and  C_54
   16  A    between atoms: P_28  and  C_44
   17  A    between atoms: P_28  and  C_49
   18  A    between atoms: C_32  and  C_48
   19  A    between atoms: N_33  and  C_49
   20  A    between atoms: N_33  and  C_52
   21  A    between atoms: C_36  and  C_49
   22  A    between atoms: C_43  and  C_51
   23  A    between atoms: C_51  and  C_54
                            x       y       z     vdW  Elec       q    Type
                         _______ _______ _______ _____ _____    ______ ____

>  <TORSDO>
F 23

$$$$
=
 OpenBabel11052419313D

 55 60  0  0  1  0  0  0  0  0999 V2000
  190.9640  170.7530  142.3630 C   0  0  0  0  0  2  0  0  0  0  0  0
  190.9940  173.6810  142.5610 C   0  0  2  0  0  3  0  0  0  0  0  0
  192.2780  172.8770  142.3500 C   0  0  0  0  0  2  0  0  0  0  0  0
  189.6740  171.5480  142.5520 C   0  0  0  0  0  2  0  0  0  0  0  0
  192.1310  171.5040  142.9930 C   0  0  2  0  0  3  0  0  0  0  0  0
  189.8100  172.9410  141.9400 C   0  0  0  0  0  2  0  0  0  0  0  0
  193.5870  169.1280  142.3270 O   0  0  0  0  0  0  0  0  0  0  0  0
  193.6650  170.5620  142.7940 P   0  0  1  0  0  4  0  0  0  0  0  0
  195.2990  171.3370  142.9870 C   0  0  1  0  0  3  0  0  0  0  0  0
  196.1190  170.5400  143.8920 N   0  0  0  0  0  2  0  0  0  0  0  0
  195.1490  170.6740  146.0400 O   0  0  0  0  0  1  0  0  0  0  0  0
  196.1690  171.1630  145.2190 C   0  0  2  0  0  3  0  0  0  0  0  0
  196.1040  172.6850  145.1400 C   0  0  0  0  0  2  0  0  0  0  0  0
  194.8160  173.2240  145.7600 C   0  0  0  0  0  2  0  0  0  0  0  0
  194.4660  174.6490  145.3170 C   0  0  2  0  0  3  0  0  0  0  0  0
  195.6760  175.4210  144.8150 C   0  0  0  0  0  1  0  0  0  0  0  0
  193.7250  175.4110  146.3700 C   0  0  0  0  0  0  0  0  0  0  0  0
  192.6800  174.9210  146.8700 O   0  0  0  0  0  1  0  0  0  0  0  0
  194.1940  176.6400  146.8200 O   0  0  0  0  0  0  0  0  0  0  0  0
  196.0130  171.4840  141.6470 C   0  0  0  0  0  2  0  0  0  0  0  0
  194.4700  173.7800  139.0020 C   0  0  0  0  0  3  0  0  0  0  0  0
  194.7690  175.0300  139.5460 C   0  0  0  0  0  3  0  0  0  0  0  0
  195.5640  172.6960  140.8810 C   0  0  0  0  0  0  0  0  0  0  0  0
  195.8520  173.9540  141.4220 C   0  0  0  0  0  3  0  0  0  0  0  0
  195.4560  175.1170  140.7570 C   0  0  0  0  0  3  0  0  0  0  0  0
  194.8550  172.6080  139.6640 C   0  0  0  0  0  0  0  0  0  0  0  0
  194.5360  171.2950  139.0240 C   0  0  0  0  0  2  0  0  0  0  0  0
  193.6570  171.4880  137.9550 O   0  0  0  0  0  0  0  0  0  0  0  0
  192.8150  170.3750  137.9700 C   0  0  0  0  0  2  0  0  0  0  0  0
  191.3930  170.7960  137.6320 C   0  0  0  0  0  2  0  0  0  0  0  0
  190.8280  171.7280  138.6930 C   0  0  0  0  0  2  0  0  0  0  0  0
  189.4640  173.7910  138.5740 C   0  0  0  0  0  1  0  0  0  0  0  0
  190.7760  173.1530  138.1740 C   0  0  0  0  0  2  0  0  0  0  0  0
  191.1090  175.0650  141.9430 C   0  0  0  0  0  2  0  0  0  0  0  0
  192.3960  175.7390  142.3850 C   0  0  0  0  0  2  0  0  0  0  0  0
  192.1270  176.7320  143.5010 C   0  0  0  0  0  2  0  0  0  0  0  0
  190.7090  177.2740  143.4050 C   0  0  0  0  0  2  0  0  0  0  0  0
  190.3570  177.9640  144.6380 N   0  0  0  0  0  2  0  0  0  0  0  0
  186.1900  178.7420  144.6440 N   0  0  2  0  0  0  0  0  0  0  0  0
  187.8040  175.7490  147.1810 O   0  0  0  0  0  1  0  0  0  0  0  0
  187.3410  176.5070  146.0980 C   0  0  2  0  0  0  0  0  0  0  0  0
  189.5380  177.0610  145.4380 C   0  0  1  0  0  3  0  0  0  0  0  0
  185.5670  176.0070  143.5150 O   0  0  0  0  0  1  0  0  0  0  0  0
  187.5870  175.7390  144.7930 C   0  0  1  0  0  3  0  0  0  0  0  0
  188.2240  177.7060  145.8960 C   0  0  1  0  0  3  0  0  0  0  0  0
  184.1830  178.6580  146.0400 C   0  0  0  0  0  1  0  0  0  0  0  0
  186.9890  178.0060  143.6100 C   0  0  2  0  0  3  0  0  0  0  0  0
  189.7140  174.7030  145.1720 F   0  0  0  0  0  0  0  0  0  0  0  0
  186.9010  176.4290  143.5750 C   0  0  2  0  0  0  0  0  0  0  0  0
  187.6680  178.6360  144.7790 C   0  0  1  0  0  3  0  0  0  0  0  0
  185.9280  176.9410  146.4330 C   0  0  0  0  0  2  0  0  0  0  0  0
  189.1170  175.8310  144.6370 C   0  0  2  0  0  3  0  0  0  0  0  0
  185.2920  177.8490  145.3990 C   0  0  2  0  0  3  0  0  0  0  0  0
  187.5660  175.9470  142.2750 C   0  0  0  0  0  2  0  0  0  0  0  0
  187.5880  177.0170  141.1900 C   0  0  0  0  0  1  0  0  0  0  0  0
  1  4  1  0  0  0  0
  1  5  1  0  0  0  0
  2 34  1  6  0  0  0
  3  2  1  0  0  0  0
  3  5  1  0  0  0  0
  5  8  1  6  0  0  0
  6  4  1  0  0  0  0
  6  2  1  0  0  0  0
  8  7  2  6  0  0  0
  8  9  1  0  0  0  0
  9 20  1  6  0  0  0
  9 10  1  0  0  0  0
 10 12  1  0  0  0  0
 12 11  1  1  0  0  0
 13 12  1  0  0  0  0
 13 14  1  0  0  0  0
 15 16  1  1  0  0  0
 15 14  1  0  0  0  0
 15 17  1  0  0  0  0
 17 19  2  0  0  0  0
 17 18  1  0  0  0  0
 21 22  2  0  0  0  0
 21 26  1  0  0  0  0
 22 25  1  0  0  0  0
 23 24  1  0  0  0  0
 23 20  1  0  0  0  0
 25 24  2  0  0  0  0
 26 23  2  0  0  0  0
 27 26  1  0  0  0  0
 28 29  1  0  0  0  0
 28 27  1  0  0  0  0
 30 29  1  0  0  0  0
 30 31  1  0  0  0  0
 33 32  1  0  0  0  0
 33 31  1  0  0  0  0
 34 35  1  0  0  0  0
 35 36  1  0  0  0  0
 37 36  1  0  0  0  0
 37 38  1  0  0  0  0
 38 42  1  0  0  0  0
 39 50  1  0  0  0  0
 39 53  1  0  0  0  0
 41 51  1  0  0  0  0
 41 40  1  0  0  0  0
 42 45  1  0  0  0  0
 43 49  1  0  0  0  0
 44 41  1  0  0  0  0
 45 41  1  0  0  0  0
 47 39  1  0  0  0  0
 47 50  1  0  0  0  0
 49 47  1  0  0  0  0
 49 44  1  0  0  0  0
 50 45  1  0  0  0  0
 52 44  1  0  0  0  0
 52 48  1  0  0  0  0
 52 42  1  0  0  0  0
 53 46  1  0  0  0  0
 53 51  1  0  0  0  0
 54 49  1  0  0  0  0
 55 54  1  0  0  0  0
M  END
>  <MODEL>
8

>  <REMARK>
 VINA RESULT:      -5.4      2.683      8.856
  Name = 
  23 active torsions:
  status: ('A' for Active; 'I' for Inactive)
    1  A    between atoms: C_4  and  C_37
    2  A    between atoms: C_4  and  C_40
    3  A    between atoms: C_5  and  O_19
    4  A    between atoms: C_5  and  C_40
    5  A    between atoms: C_7  and  N_22
    6  A    between atoms: C_8  and  N_22
    7  A    between atoms: C_8  and  C_43
    8  A    between atoms: C_10  and  C_32
    9  A    between atoms: C_11  and  C_38
   10  A    between atoms: C_13  and  C_48
   11  A    between atoms: C_13  and  C_52
   12  A    between atoms: C_16  and  C_36
   13  A    between atoms: O_19  and  C_45
   14  A    between atoms: C_26  and  C_45
   15  A    between atoms: C_27  and  C_54
   16  A    between atoms: P_28  and  C_44
   17  A    between atoms: P_28  and  C_49
   18  A    between atoms: C_32  and  C_48
   19  A    between atoms: N_33  and  C_49
   20  A    between atoms: N_33  and  C_52
   21  A    between atoms: C_36  and  C_49
   22  A    between atoms: C_43  and  C_51
   23  A    between atoms: C_51  and  C_54
                            x       y       z     vdW  Elec       q    Type
                         _______ _______ _______ _____ _____    ______ ____

>  <TORSDO>
F 23

$$$$
=
 OpenBabel11052419313D

 55 60  0  0  1  0  0  0  0  0999 V2000
  185.7580  177.5230  141.2590 C   0  0  0  0  0  2  0  0  0  0  0  0
  185.3000  178.1600  144.0870 C   0  0  2  0  0  3  0  0  0  0  0  0
  186.6900  177.8020  143.5590 C   0  0  0  0  0  2  0  0  0  0  0  0
  184.3690  177.9000  141.7720 C   0  0  0  0  0  2  0  0  0  0  0  0
  186.5570  176.8560  142.3720 C   0  0  2  0  0  3  0  0  0  0  0  0
  184.4810  178.8250  142.9830 C   0  0  0  0  0  2  0  0  0  0  0  0
  189.3100  177.4080  141.8050 O   0  0  0  0  0  0  0  0  0  0  0  0
  188.1990  176.3850  141.7720 P   0  0  1  0  0  4  0  0  0  0  0  0
  188.5890  174.6780  141.2810 C   0  0  1  0  0  3  0  0  0  0  0  0
  187.7780  174.2980  140.1310 N   0  0  0  0  0  2  0  0  0  0  0  0
  188.2230  174.8810  137.8880 O   0  0  0  0  0  1  0  0  0  0  0  0
  188.6270  174.0760  138.9560 C   0  0  2  0  0  3  0  0  0  0  0  0
  188.6530  172.6090  138.5380 C   0  0  0  0  0  2  0  0  0  0  0  0
  189.4200  172.4130  137.2300 C   0  0  0  0  0  2  0  0  0  0  0  0
  190.0780  171.0350  137.1000 C   0  0  2  0  0  3  0  0  0  0  0  0
  189.7560  170.1190  138.2700 C   0  0  0  0  0  1  0  0  0  0  0  0
  191.5510  171.1230  136.8570 C   0  0  0  0  0  0  0  0  0  0  0  0
  192.0130  172.0770  136.1800 O   0  0  0  0  0  0  0  0  0  0  0  0
  192.4170  170.1770  137.3950 O   0  0  0  0  0  1  0  0  0  0  0  0
  190.0670  174.5150  140.9410 C   0  0  0  0  0  2  0  0  0  0  0  0
  192.1290  171.2930  140.8380 C   0  0  0  0  0  3  0  0  0  0  0  0
  191.4180  170.5070  141.7460 C   0  0  0  0  0  3  0  0  0  0  0  0
  190.5690  173.1220  141.1910 C   0  0  0  0  0  0  0  0  0  0  0  0
  189.8680  172.3280  142.1060 C   0  0  0  0  0  3  0  0  0  0  0  0
  190.2900  171.0260  142.3840 C   0  0  0  0  0  3  0  0  0  0  0  0
  191.7190  172.6020  140.5600 C   0  0  0  0  0  0  0  0  0  0  0  0
  192.4990  173.3900  139.5570 C   0  0  0  0  0  2  0  0  0  0  0  0
  192.9980  174.5530  140.1500 O   0  0  0  0  0  0  0  0  0  0  0  0
  194.1340  174.8820  139.4090 C   0  0  0  0  0  2  0  0  0  0  0  0
  195.1120  173.7160  139.4160 C   0  0  0  0  0  2  0  0  0  0  0  0
  196.5020  174.1660  139.8350 C   0  0  0  0  0  2  0  0  0  0  0  0
  197.1900  173.5920  137.5270 C   0  0  0  0  0  1  0  0  0  0  0  0
  197.2980  174.6250  138.6270 C   0  0  0  0  0  2  0  0  0  0  0  0
  185.3940  179.0940  145.2830 C   0  0  0  0  0  2  0  0  0  0  0  0
  184.6500  178.5100  146.4720 C   0  0  0  0  0  2  0  0  0  0  0  0
  185.6220  178.0720  147.5520 C   0  0  0  0  0  2  0  0  0  0  0  0
  186.3140  176.7760  147.1570 C   0  0  0  0  0  2  0  0  0  0  0  0
  187.7360  177.0130  146.9560 N   0  0  0  0  0  2  0  0  0  0  0  0
  191.3510  177.4010  144.7780 N   0  0  2  0  0  0  0  0  0  0  0  0
  189.4720  173.6140  145.1340 O   0  0  0  0  0  1  0  0  0  0  0  0
  190.1670  174.8110  145.3480 C   0  0  2  0  0  0  0  0  0  0  0  0
  188.3350  175.7710  146.4840 C   0  0  1  0  0  3  0  0  0  0  0  0
  192.8610  175.6990  146.7690 O   0  0  0  0  0  1  0  0  0  0  0  0
  190.5940  174.9010  146.8190 C   0  0  1  0  0  3  0  0  0  0  0  0
  189.2240  175.9760  145.2500 C   0  0  1  0  0  3  0  0  0  0  0  0
  192.6400  176.4420  142.9330 C   0  0  0  0  0  1  0  0  0  0  0  0
  191.1670  177.4030  146.2650 C   0  0  2  0  0  3  0  0  0  0  0  0
  188.7200  173.9610  147.9790 F   0  0  0  0  0  0  0  0  0  0  0  0
  191.5550  176.1010  147.0730 C   0  0  2  0  0  0  0  0  0  0  0  0
  189.9850  177.3300  145.3600 C   0  0  1  0  0  3  0  0  0  0  0  0
  191.2330  174.9020  144.2730 C   0  0  0  0  0  2  0  0  0  0  0  0
  189.2560  175.1570  147.5370 C   0  0  2  0  0  3  0  0  0  0  0  0
  192.0380  176.1870  144.2990 C   0  0  2  0  0  3  0  0  0  0  0  0
  191.5470  176.4530  148.5690 C   0  0  0  0  0  2  0  0  0  0  0  0
  191.1820  177.9080  148.8330 C   0  0  0  0  0  1  0  0  0  0  0  0
  1  4  1  0  0  0  0
  1  5  1  0  0  0  0
  2 34  1  1  0  0  0
  3  2  1  0  0  0  0
  4  6  1  0  0  0  0
  5  8  1  6  0  0  0
  5  3  1  0  0  0  0
  6  2  1  0  0  0  0
  8  7  2  1  0  0  0
  9 20  1  6  0  0  0
  9  8  1  0  0  0  0
 10  9  1  0  0  0  0
 12 11  1  6  0  0  0
 12 10  1  0  0  0  0
 13 12  1  0  0  0  0
 14 13  1  0  0  0  0
 15 14  1  0  0  0  0
 15 16  1  1  0  0  0
 17 15  1  0  0  0  0
 17 19  1  0  0  0  0
 18 17  2  0  0  0  0
 20 23  1  0  0  0  0
 21 22  1  0  0  0  0
 22 25  2  0  0  0  0
 23 24  2  0  0  0  0
 24 25  1  0  0  0  0
 26 21  2  0  0  0  0
 26 23  1  0  0  0  0
 27 28  1  0  0  0  0
 27 26  1  0  0  0  0
 29 30  1  0  0  0  0
 29 28  1  0  0  0  0
 30 31  1  0  0  0  0
 32 33  1  0  0  0  0
 33 31  1  0  0  0  0
 34 35  1  0  0  0  0
 35 36  1  0  0  0  0
 37 36  1  0  0  0  0
 38 37  1  0  0  0  0
 39 50  1  0  0  0  0
 39 47  1  0  0  0  0
 40 41  1  0  0  0  0
 41 44  1  0  0  0  0
 42 38  1  0  0  0  0
 42 52  1  0  0  0  0
 43 49  1  0  0  0  0
 44 49  1  0  0  0  0
 44 52  1  0  0  0  0
 45 41  1  0  0  0  0
 45 50  1  0  0  0  0
 45 42  1  0  0  0  0
 46 53  1  0  0  0  0
 47 49  1  0  0  0  0
 49 54  1  0  0  0  0
 50 47  1  0  0  0  0
 51 53  1  0  0  0  0
 51 41  1  0  0  0  0
 52 48  1  0  0  0  0
 53 39  1  0  0  0  0
 54 55  1  0  0  0  0
M  END
>  <MODEL>
9

>  <REMARK>
 VINA RESULT:      -5.3      2.822      8.846
  Name = 
  23 active torsions:
  status: ('A' for Active; 'I' for Inactive)
    1  A    between atoms: C_4  and  C_37
    2  A    between atoms: C_4  and  C_40
    3  A    between atoms: C_5  and  O_19
    4  A    between atoms: C_5  and  C_40
    5  A    between atoms: C_7  and  N_22
    6  A    between atoms: C_8  and  N_22
    7  A    between atoms: C_8  and  C_43
    8  A    between atoms: C_10  and  C_32
    9  A    between atoms: C_11  and  C_38
   10  A    between atoms: C_13  and  C_48
   11  A    between atoms: C_13  and  C_52
   12  A    between atoms: C_16  and  C_36
   13  A    between atoms: O_19  and  C_45
   14  A    between atoms: C_26  and  C_45
   15  A    between atoms: C_27  and  C_54
   16  A    between atoms: P_28  and  C_44
   17  A    between atoms: P_28  and  C_49
   18  A    between atoms: C_32  and  C_48
   19  A    between atoms: N_33  and  C_49
   20  A    between atoms: N_33  and  C_52
   21  A    between atoms: C_36  and  C_49
   22  A    between atoms: C_43  and  C_51
   23  A    between atoms: C_51  and  C_54
                            x       y       z     vdW  Elec       q    Type
                         _______ _______ _______ _____ _____    ______ ____

>  <TORSDO>
F 23

$$$$
