=
 OpenBabel11052419523D

 37 44  0  0  1  0  0  0  0  0999 V2000
  192.1420  176.2880  145.5880 O   0  0  0  0  0  0  0  0  0  0  0  0
  186.1520  176.4030  146.1870 C   0  0  0  0  0  3  0  0  0  0  0  0
  191.7280  171.6470  141.9100 C   0  0  0  0  0  2  0  0  0  0  0  0
  189.1980  174.6970  142.5070 C   0  0  0  0  0  0  0  0  0  0  0  0
  193.0460  175.8420  146.5840 C   0  0  1  0  0  3  0  0  0  0  0  0
  187.2020  177.1280  145.3680 C   0  0  2  0  0  0  0  0  0  0  0  0
  188.5990  176.7890  145.5920 C   0  0  2  0  0  3  0  0  0  0  0  0
  186.9770  178.6210  145.3440 C   0  0  0  0  0  3  0  0  0  0  0  0
  189.2270  172.1850  142.2120 C   0  0  1  0  0  3  0  0  0  0  0  0
  189.7950  175.7370  143.4120 C   0  0  1  0  0  3  0  0  0  0  0  0
  189.7110  173.4940  142.7820 C   0  0  0  0  0  0  0  0  0  0  0  0
  188.7500  176.2930  144.2360 N   0  0  0  0  0  0  0  0  0  0  0  0
  185.5370  180.4580  145.3920 F   0  0  0  0  0  0  0  0  0  0  0  0
  189.6260  172.0700  140.8640 O   0  0  0  0  0  0  0  0  0  0  0  0
  192.4450  175.5590  147.8560 O   0  0  0  0  0  0  0  0  0  0  0  0
  184.5470  178.1910  145.5780 C   0  0  0  0  0  2  0  0  0  0  0  0
  185.7340  179.1160  145.4530 C   0  0  0  0  0  0  0  0  0  0  0  0
  190.5800  173.6320  143.9420 C   0  0  0  0  0  0  0  0  0  0  0  0
  192.4390  172.0800  144.2760 C   0  0  0  0  0  2  0  0  0  0  0  0
  187.0190  175.6730  141.7010 C   0  0  0  0  0  3  0  0  0  0  0  0
  188.2970  174.4100  140.2630 F   0  0  0  0  0  0  0  0  0  0  0  0
  191.1640  172.5840  144.6510 O   0  0  0  0  0  0  0  0  0  0  0  0
  191.0590  175.8660  147.9090 C   0  0  2  0  0  3  0  0  0  0  0  0
  188.8450  175.6360  146.5880 C   0  0  0  0  0  2  0  0  0  0  0  0
  188.1470  174.9660  141.4890 C   0  0  0  0  0  0  0  0  0  0  0  0
  190.6730  174.9060  144.2750 C   0  0  0  0  0  0  0  0  0  0  0  0
  190.2750  171.2100  141.7660 C   0  0  1  0  0  3  0  0  0  0  0  0
  187.3310  176.5640  143.9830 C   0  0  0  0  0  0  0  0  0  0  0  0
  192.3160  171.0400  143.1720 C   0  0  0  0  0  2  0  0  0  0  0  0
  190.3220  175.2050  146.7410 C   0  0  1  0  0  3  0  0  0  0  0  0
  184.9140  176.9090  146.2870 C   0  0  0  0  0  3  0  0  0  0  0  0
  191.1330  175.3770  145.5420 N   0  0  0  0  0  0  0  0  0  0  0  0
  186.5520  176.3510  142.9330 C   0  0  0  0  0  3  0  0  0  0  0  0
  190.8310  177.3750  148.0050 C   0  0  0  0  0  2  0  0  0  0  0  0
  191.5010  177.8850  149.1170 O   0  0  0  0  0  1  0  0  0  0  0  0
  195.1140  175.1590  145.7260 C   0  0  0  0  0  1  0  0  0  0  0  0
  193.7960  174.6870  146.1120 N   0  0  0  0  0  2  0  0  0  0  0  0
  1  5  1  0  0  0  0
  2 31  2  0  0  0  0
  3 29  1  0  0  0  0
  4 11  2  0  0  0  0
  5 37  1  6  0  0  0
  5 15  1  0  0  0  0
  6  8  1  6  0  0  0
  6  7  1  0  0  0  0
  6  2  1  0  0  0  0
  7 24  1  1  0  0  0
  8 17  2  0  0  0  0
  9 14  1  6  0  0  0
  9 11  1  0  0  0  0
 10  4  1  6  0  0  0
 10 12  1  0  0  0  0
 10 26  1  0  0  0  0
 11 18  1  0  0  0  0
 12  7  1  0  0  0  0
 13 17  1  0  0  0  0
 14 27  1  0  0  0  0
 15 23  1  0  0  0  0
 16 31  1  0  0  0  0
 17 16  1  0  0  0  0
 18 26  2  0  0  0  0
 18 22  1  0  0  0  0
 19 22  1  0  0  0  0
 20 33  1  0  0  0  0
 21 25  1  0  0  0  0
 23 34  1  6  0  0  0
 25 20  2  0  0  0  0
 25  4  1  0  0  0  0
 26 32  1  0  0  0  0
 27  3  1  1  0  0  0
 27  9  1  0  0  0  0
 28 12  1  0  0  0  0
 28  6  1  0  0  0  0
 29 19  1  0  0  0  0
 30 24  1  6  0  0  0
 30 23  1  0  0  0  0
 32  1  1  0  0  0  0
 32 30  1  0  0  0  0
 33 28  2  0  0  0  0
 34 35  1  0  0  0  0
 36 37  1  0  0  0  0
M  END
>  <MODEL>
1

>  <REMARK>
 VINA RESULT:      -9.1      0.000      0.000
  Name = 
  2 active torsions:
  status: ('A' for Active; 'I' for Inactive)
    1  A    between atoms: C_5  and  N_23
    2  A    between atoms: C_11  and  C_26
                            x       y       z     vdW  Elec       q    Type
                         _______ _______ _______ _____ _____    ______ ____

>  <TORSDO>
F 2

$$$$
=
 OpenBabel11052419523D

 37 44  0  0  1  0  0  0  0  0999 V2000
  191.9500  176.3680  144.7940 O   0  0  0  0  0  0  0  0  0  0  0  0
  186.0880  176.3320  146.1680 C   0  0  0  0  0  3  0  0  0  0  0  0
  190.8820  173.0860  139.9650 C   0  0  0  0  0  2  0  0  0  0  0  0
  188.5860  175.8210  141.7820 C   0  0  0  0  0  0  0  0  0  0  0  0
  192.9460  175.6320  145.4820 C   0  0  1  0  0  3  0  0  0  0  0  0
  187.0640  177.2680  145.4800 C   0  0  2  0  0  0  0  0  0  0  0  0
  188.4600  176.8660  145.4090 C   0  0  2  0  0  3  0  0  0  0  0  0
  186.9060  178.6960  145.9410 C   0  0  0  0  0  3  0  0  0  0  0  0
  188.4640  173.5220  140.7370 C   0  0  1  0  0  3  0  0  0  0  0  0
  189.3350  176.5280  142.8760 C   0  0  1  0  0  3  0  0  0  0  0  0
  189.0720  174.5890  141.6110 C   0  0  0  0  0  0  0  0  0  0  0  0
  188.4230  176.8110  143.9580 N   0  0  0  0  0  0  0  0  0  0  0  0
  185.5680  180.4390  146.7310 F   0  0  0  0  0  0  0  0  0  0  0  0
  188.6910  173.8240  139.3780 O   0  0  0  0  0  0  0  0  0  0  0  0
  192.4920  174.9750  146.6750 O   0  0  0  0  0  0  0  0  0  0  0  0
  184.5040  178.2310  146.3440 C   0  0  0  0  0  2  0  0  0  0  0  0
  185.7090  179.1420  146.3540 C   0  0  0  0  0  0  0  0  0  0  0  0
  190.0810  174.3570  142.6350 C   0  0  0  0  0  0  0  0  0  0  0  0
  191.8930  172.7660  142.2380 C   0  0  0  0  0  2  0  0  0  0  0  0
  186.3730  177.0120  141.6000 C   0  0  0  0  0  3  0  0  0  0  0  0
  187.4080  176.2440  139.6930 F   0  0  0  0  0  0  0  0  0  0  0  0
  190.6970  173.1380  142.9090 O   0  0  0  0  0  0  0  0  0  0  0  0
  191.1370  175.2600  146.9970 C   0  0  2  0  0  3  0  0  0  0  0  0
  188.7720  175.4620  145.9660 C   0  0  0  0  0  2  0  0  0  0  0  0
  187.4330  176.3970  141.0400 C   0  0  0  0  0  0  0  0  0  0  0  0
  190.2720  175.4670  143.3240 C   0  0  0  0  0  0  0  0  0  0  0  0
  189.4040  172.7240  139.8840 C   0  0  1  0  0  3  0  0  0  0  0  0
  186.9990  177.1560  143.9850 C   0  0  0  0  0  0  0  0  0  0  0  0
  191.5900  172.1170  140.8950 C   0  0  0  0  0  2  0  0  0  0  0  0
  190.2350  174.9950  145.7890 C   0  0  1  0  0  3  0  0  0  0  0  0
  184.8960  176.7910  146.5760 C   0  0  0  0  0  3  0  0  0  0  0  0
  190.9030  175.5230  144.6050 N   0  0  0  0  0  0  0  0  0  0  0  0
  186.0890  177.2820  143.0300 C   0  0  0  0  0  3  0  0  0  0  0  0
  190.9920  176.6680  147.5760 C   0  0  0  0  0  2  0  0  0  0  0  0
  191.6290  176.7370  148.8150 O   0  0  0  0  0  1  0  0  0  0  0  0
  193.8910  173.4930  145.3760 C   0  0  0  0  0  1  0  0  0  0  0  0
  193.5810  174.6730  144.5890 N   0  0  0  0  0  2  0  0  0  0  0  0
  1  5  1  0  0  0  0
  2 31  2  0  0  0  0
  3 29  1  0  0  0  0
  5 37  1  6  0  0  0
  5 15  1  0  0  0  0
  6  8  1  1  0  0  0
  6  2  1  0  0  0  0
  7  6  1  0  0  0  0
  7 24  1  1  0  0  0
  8 17  2  0  0  0  0
  9 14  1  6  0  0  0
  9 11  1  0  0  0  0
 10  4  1  6  0  0  0
 10 26  1  0  0  0  0
 10 12  1  0  0  0  0
 11  4  2  0  0  0  0
 11 18  1  0  0  0  0
 12 28  1  0  0  0  0
 12  7  1  0  0  0  0
 14 27  1  0  0  0  0
 15 23  1  0  0  0  0
 16 17  1  0  0  0  0
 16 31  1  0  0  0  0
 17 13  1  0  0  0  0
 18 22  1  0  0  0  0
 18 26  2  0  0  0  0
 19 22  1  0  0  0  0
 20 33  1  0  0  0  0
 21 25  1  0  0  0  0
 23 34  1  6  0  0  0
 25 20  2  0  0  0  0
 25  4  1  0  0  0  0
 26 32  1  0  0  0  0
 27  3  1  1  0  0  0
 27  9  1  0  0  0  0
 28  6  1  0  0  0  0
 29 19  1  0  0  0  0
 30 24  1  1  0  0  0
 30 23  1  0  0  0  0
 32  1  1  0  0  0  0
 32 30  1  0  0  0  0
 33 28  2  0  0  0  0
 34 35  1  0  0  0  0
 37 36  1  0  0  0  0
M  END
>  <MODEL>
2

>  <REMARK>
 VINA RESULT:      -8.9      1.290      1.477
  Name = 
  2 active torsions:
  status: ('A' for Active; 'I' for Inactive)
    1  A    between atoms: C_5  and  N_23
    2  A    between atoms: C_11  and  C_26
                            x       y       z     vdW  Elec       q    Type
                         _______ _______ _______ _____ _____    ______ ____

>  <TORSDO>
F 2

$$$$
=
 OpenBabel11052419523D

 37 44  0  0  1  0  0  0  0  0999 V2000
  189.8410  172.7970  143.6700 O   0  0  0  0  0  0  0  0  0  0  0  0
  187.2590  178.2170  144.1220 C   0  0  0  0  0  3  0  0  0  0  0  0
  195.0680  175.1060  145.2760 C   0  0  0  0  0  2  0  0  0  0  0  0
  191.3490  176.1740  146.3190 C   0  0  0  0  0  0  0  0  0  0  0  0
  190.1300  172.1390  142.4490 C   0  0  1  0  0  3  0  0  0  0  0  0
  187.3930  176.9740  144.9800 C   0  0  2  0  0  0  0  0  0  0  0  0
  188.1020  175.8320  144.4220 C   0  0  2  0  0  3  0  0  0  0  0  0
  186.0830  176.5750  145.6160 C   0  0  0  0  0  3  0  0  0  0  0  0
  193.5630  177.1700  145.6080 C   0  0  1  0  0  3  0  0  0  0  0  0
  190.3320  175.1950  145.8050 C   0  0  1  0  0  3  0  0  0  0  0  0
  192.4200  176.1890  145.5210 C   0  0  0  0  0  0  0  0  0  0  0  0
  189.1360  175.9130  145.4380 N   0  0  0  0  0  0  0  0  0  0  0  0
  184.0050  177.1460  146.5130 F   0  0  0  0  0  0  0  0  0  0  0  0
  194.3710  176.8690  146.7240 O   0  0  0  0  0  0  0  0  0  0  0  0
  189.6070  172.7850  141.2790 O   0  0  0  0  0  0  0  0  0  0  0  0
  185.4340  178.9680  145.6230 C   0  0  0  0  0  2  0  0  0  0  0  0
  185.1640  177.5090  145.9070 C   0  0  0  0  0  0  0  0  0  0  0  0
  192.1460  175.3230  144.3830 C   0  0  0  0  0  0  0  0  0  0  0  0
  193.9840  174.2500  143.1830 C   0  0  0  0  0  2  0  0  0  0  0  0
  190.0640  177.7800  147.7740 C   0  0  0  0  0  3  0  0  0  0  0  0
  192.1900  177.1430  148.3880 F   0  0  0  0  0  0  0  0  0  0  0  0
  192.9340  175.2050  143.2400 O   0  0  0  0  0  0  0  0  0  0  0  0
  188.8140  173.9270  141.5700 C   0  0  2  0  0  3  0  0  0  0  0  0
  188.7310  176.0620  143.0330 C   0  0  0  0  0  2  0  0  0  0  0  0
  191.1600  177.0380  147.5140 C   0  0  0  0  0  0  0  0  0  0  0  0
  190.9860  174.7170  144.5600 C   0  0  0  0  0  0  0  0  0  0  0  0
  194.9480  176.6130  145.4680 C   0  0  1  0  0  3  0  0  0  0  0  0
  188.4880  177.1030  145.9980 C   0  0  0  0  0  0  0  0  0  0  0  0
  195.2620  174.7980  143.8020 C   0  0  0  0  0  2  0  0  0  0  0  0
  189.5750  174.8850  142.4920 C   0  0  1  0  0  3  0  0  0  0  0  0
  186.3360  179.1420  144.4240 C   0  0  0  0  0  3  0  0  0  0  0  0
  190.2370  174.0890  143.5190 N   0  0  0  0  0  0  0  0  0  0  0  0
  188.8130  177.9160  146.9930 C   0  0  0  0  0  3  0  0  0  0  0  0
  187.4390  173.5220  142.1040 C   0  0  0  0  0  2  0  0  0  0  0  0
  187.0670  172.2910  141.5660 O   0  0  0  0  0  1  0  0  0  0  0  0
  191.8760  172.0100  140.8950 C   0  0  0  0  0  1  0  0  0  0  0  0
  191.5640  171.9270  142.3100 N   0  0  0  0  0  2  0  0  0  0  0  0
  2 31  2  0  0  0  0
  4 25  1  0  0  0  0
  5 37  1  6  0  0  0
  5  1  1  0  0  0  0
  6  2  1  6  0  0  0
  6  8  1  0  0  0  0
  6 28  1  0  0  0  0
  7 24  1  6  0  0  0
  7  6  1  0  0  0  0
  7 12  1  0  0  0  0
  8 17  2  0  0  0  0
  9 11  1  1  0  0  0
  9 14  1  0  0  0  0
 10 26  1  6  0  0  0
 10  4  1  0  0  0  0
 11  4  2  0  0  0  0
 12 10  1  0  0  0  0
 12 28  1  0  0  0  0
 15 23  1  0  0  0  0
 15  5  1  0  0  0  0
 16 17  1  0  0  0  0
 17 13  1  0  0  0  0
 18 26  2  0  0  0  0
 18 11  1  0  0  0  0
 19 22  1  0  0  0  0
 19 29  1  0  0  0  0
 22 18  1  0  0  0  0
 23 34  1  1  0  0  0
 23 30  1  0  0  0  0
 25 20  2  0  0  0  0
 25 21  1  0  0  0  0
 27  3  1  1  0  0  0
 27  9  1  0  0  0  0
 27 14  1  0  0  0  0
 28 33  2  0  0  0  0
 29  3  1  0  0  0  0
 30 24  1  1  0  0  0
 30 32  1  0  0  0  0
 31 16  1  0  0  0  0
 32  1  1  0  0  0  0
 32 26  1  0  0  0  0
 33 20  1  0  0  0  0
 35 34  1  0  0  0  0
 36 37  1  0  0  0  0
M  END
>  <MODEL>
3

>  <REMARK>
 VINA RESULT:      -8.7      2.232      5.318
  Name = 
  2 active torsions:
  status: ('A' for Active; 'I' for Inactive)
    1  A    between atoms: C_5  and  N_23
    2  A    between atoms: C_11  and  C_26
                            x       y       z     vdW  Elec       q    Type
                         _______ _______ _______ _____ _____    ______ ____

>  <TORSDO>
F 2

$$$$
=
 OpenBabel11052419523D

 37 44  0  0  1  0  0  0  0  0999 V2000
  188.1330  177.6250  141.4210 O   0  0  0  0  0  0  0  0  0  0  0  0
  190.5420  172.9030  144.2750 C   0  0  0  0  0  3  0  0  0  0  0  0
  185.4640  179.3500  146.4340 C   0  0  0  0  0  2  0  0  0  0  0  0
  188.9450  177.4380  145.8920 C   0  0  0  0  0  0  0  0  0  0  0  0
  187.0700  177.5490  140.4870 C   0  0  1  0  0  3  0  0  0  0  0  0
  190.9770  174.2980  143.8690 C   0  0  2  0  0  0  0  0  0  0  0  0
  190.0360  175.1170  143.1210 C   0  0  2  0  0  3  0  0  0  0  0  0
  192.3550  174.3090  143.2540 C   0  0  0  0  0  3  0  0  0  0  0  0
  186.8740  177.3950  147.3430 C   0  0  1  0  0  3  0  0  0  0  0  0
  189.3080  177.3600  144.4370 C   0  0  1  0  0  3  0  0  0  0  0  0
  187.6170  177.4930  146.0350 C   0  0  0  0  0  0  0  0  0  0  0  0
  189.9660  176.1010  144.1870 N   0  0  0  0  0  0  0  0  0  0  0  0
  194.5120  173.4310  143.0870 F   0  0  0  0  0  0  0  0  0  0  0  0
  187.0240  178.5920  148.0730 O   0  0  0  0  0  0  0  0  0  0  0  0
  186.6870  176.2150  140.1200 O   0  0  0  0  0  0  0  0  0  0  0  0
  192.9280  172.3500  144.6600 C   0  0  0  0  0  2  0  0  0  0  0  0
  193.2630  173.3900  143.6180 C   0  0  0  0  0  0  0  0  0  0  0  0
  187.0170  177.3420  144.7180 C   0  0  0  0  0  0  0  0  0  0  0  0
  184.8120  178.2900  144.2560 C   0  0  0  0  0  2  0  0  0  0  0  0
  190.9350  176.5190  147.1340 C   0  0  0  0  0  3  0  0  0  0  0  0
  189.7640  178.2920  148.0200 F   0  0  0  0  0  0  0  0  0  0  0  0
  185.6590  177.1670  144.4570 O   0  0  0  0  0  0  0  0  0  0  0  0
  187.5100  175.2110  140.6960 C   0  0  2  0  0  3  0  0  0  0  0  0
  188.6410  174.4920  142.9110 C   0  0  0  0  0  2  0  0  0  0  0  0
  189.9250  177.4040  147.0100 C   0  0  0  0  0  0  0  0  0  0  0  0
  187.9660  177.3160  143.8010 C   0  0  0  0  0  0  0  0  0  0  0  0
  185.7400  178.3530  147.5530 C   0  0  1  0  0  3  0  0  0  0  0  0
  190.8660  175.2780  145.0000 C   0  0  0  0  0  0  0  0  0  0  0  0
  184.3130  178.8470  145.5820 C   0  0  0  0  0  2  0  0  0  0  0  0
  187.6110  175.4070  142.2110 C   0  0  1  0  0  3  0  0  0  0  0  0
  191.4600  171.9950  144.6370 C   0  0  0  0  0  3  0  0  0  0  0  0
  187.7880  176.8320  142.4690 N   0  0  0  0  0  0  0  0  0  0  0  0
  191.3310  175.4110  146.2340 C   0  0  0  0  0  3  0  0  0  0  0  0
  188.8670  175.1400  139.9940 C   0  0  0  0  0  2  0  0  0  0  0  0
  188.8590  174.1110  139.0520 O   0  0  0  0  0  1  0  0  0  0  0  0
  184.7840  177.9160  140.1380 C   0  0  0  0  0  1  0  0  0  0  0  0
  185.9130  178.2910  140.9700 N   0  0  0  0  0  2  0  0  0  0  0  0
  1 32  1  0  0  0  0
  2 31  2  0  0  0  0
  4 11  2  0  0  0  0
  4 25  1  0  0  0  0
  5 37  1  1  0  0  0
  5  1  1  0  0  0  0
  6  8  1  6  0  0  0
  6  2  1  0  0  0  0
  6 28  1  0  0  0  0
  7 24  1  1  0  0  0
  7  6  1  0  0  0  0
  7 12  1  0  0  0  0
  8 17  2  0  0  0  0
  9 11  1  6  0  0  0
  9 27  1  0  0  0  0
  9 14  1  0  0  0  0
 10 26  1  6  0  0  0
 10  4  1  0  0  0  0
 12 10  1  0  0  0  0
 12 28  1  0  0  0  0
 13 17  1  0  0  0  0
 15  5  1  0  0  0  0
 15 23  1  0  0  0  0
 17 16  1  0  0  0  0
 18 11  1  0  0  0  0
 19 22  1  0  0  0  0
 19 29  1  0  0  0  0
 22 18  1  0  0  0  0
 23 34  1  6  0  0  0
 23 30  1  0  0  0  0
 25 20  2  0  0  0  0
 25 21  1  0  0  0  0
 26 18  2  0  0  0  0
 27  3  1  6  0  0  0
 27 14  1  0  0  0  0
 28 33  2  0  0  0  0
 29  3  1  0  0  0  0
 30 32  1  0  0  0  0
 30 24  1  6  0  0  0
 31 16  1  0  0  0  0
 32 26  1  0  0  0  0
 33 20  1  0  0  0  0
 35 34  1  0  0  0  0
 36 37  1  0  0  0  0
M  END
>  <MODEL>
4

>  <REMARK>
 VINA RESULT:      -8.6      2.922      7.841
  Name = 
  2 active torsions:
  status: ('A' for Active; 'I' for Inactive)
    1  A    between atoms: C_5  and  N_23
    2  A    between atoms: C_11  and  C_26
                            x       y       z     vdW  Elec       q    Type
                         _______ _______ _______ _____ _____    ______ ____

>  <TORSDO>
F 2

$$$$
=
 OpenBabel11052419523D

 37 44  0  0  1  0  0  0  0  0999 V2000
  190.1690  171.9250  142.9550 O   0  0  0  0  0  0  0  0  0  0  0  0
  188.3450  177.5920  142.0560 C   0  0  0  0  0  3  0  0  0  0  0  0
  195.0170  173.8840  145.7630 C   0  0  0  0  0  2  0  0  0  0  0  0
  191.3410  175.4680  145.5550 C   0  0  0  0  0  0  0  0  0  0  0  0
  190.6890  171.0740  141.9480 C   0  0  1  0  0  3  0  0  0  0  0  0
  188.0620  176.4750  143.0420 C   0  0  2  0  0  0  0  0  0  0  0  0
  188.7310  175.1990  142.8400 C   0  0  2  0  0  3  0  0  0  0  0  0
  186.5860  176.3090  143.3060 C   0  0  0  0  0  3  0  0  0  0  0  0
  193.7820  176.1190  145.4200 C   0  0  1  0  0  3  0  0  0  0  0  0
  190.3800  174.5360  144.8730 C   0  0  1  0  0  3  0  0  0  0  0  0
  192.5830  175.2590  145.1070 C   0  0  0  0  0  0  0  0  0  0  0  0
  189.4450  175.3160  144.0990 N   0  0  0  0  0  0  0  0  0  0  0  0
  184.4410  177.2120  143.4920 F   0  0  0  0  0  0  0  0  0  0  0  0
  194.2000  175.8980  146.7480 O   0  0  0  0  0  0  0  0  0  0  0  0
  190.6060  171.5990  140.6150 O   0  0  0  0  0  0  0  0  0  0  0  0
  186.3000  178.7320  142.8700 C   0  0  0  0  0  2  0  0  0  0  0  0
  185.7610  177.3640  143.2160 C   0  0  0  0  0  0  0  0  0  0  0  0
  192.5150  174.2740  144.0370 C   0  0  0  0  0  0  0  0  0  0  0  0
  194.4460  172.8570  143.5470 C   0  0  0  0  0  2  0  0  0  0  0  0
  189.9420  177.3880  146.3930 C   0  0  0  0  0  3  0  0  0  0  0  0
  191.7040  176.6280  147.6640 F   0  0  0  0  0  0  0  0  0  0  0  0
  193.5650  173.9150  143.1940 O   0  0  0  0  0  0  0  0  0  0  0  0
  189.9300  172.8470  140.5390 C   0  0  2  0  0  3  0  0  0  0  0  0
  189.7450  175.1630  141.6790 C   0  0  0  0  0  2  0  0  0  0  0  0
  190.9520  176.5080  146.5440 C   0  0  0  0  0  0  0  0  0  0  0  0
  191.2790  173.8220  143.9320 C   0  0  0  0  0  0  0  0  0  0  0  0
  195.0600  175.4080  145.7500 C   0  0  1  0  0  3  0  0  0  0  0  0
  188.8400  176.6340  144.3160 C   0  0  0  0  0  0  0  0  0  0  0  0
  195.5660  173.3530  144.4510 C   0  0  0  0  0  2  0  0  0  0  0  0
  190.5330  173.8410  141.5360 C   0  0  1  0  0  3  0  0  0  0  0  0
  187.5130  178.6410  141.9750 C   0  0  0  0  0  3  0  0  0  0  0  0
  190.7670  173.1340  142.7900 N   0  0  0  0  0  0  0  0  0  0  0  0
  188.9870  177.5410  145.2710 C   0  0  0  0  0  3  0  0  0  0  0  0
  188.4190  172.6660  140.6880 C   0  0  0  0  0  2  0  0  0  0  0  0
  187.8160  172.6660  139.4310 O   0  0  0  0  0  1  0  0  0  0  0  0
  192.7590  170.5420  140.9940 C   0  0  0  0  0  1  0  0  0  0  0  0
  192.0620  170.6980  142.2580 N   0  0  0  0  0  2  0  0  0  0  0  0
  4 25  1  0  0  0  0
  5 37  1  1  0  0  0
  5  1  1  0  0  0  0
  6  2  1  6  0  0  0
  6  8  1  0  0  0  0
  6 28  1  0  0  0  0
  7 24  1  6  0  0  0
  7  6  1  0  0  0  0
  7 12  1  0  0  0  0
  9 11  1  1  0  0  0
  9 27  1  0  0  0  0
  9 14  1  0  0  0  0
 10 26  1  6  0  0  0
 10  4  1  0  0  0  0
 11  4  2  0  0  0  0
 12 28  1  0  0  0  0
 12 10  1  0  0  0  0
 15  5  1  0  0  0  0
 16 17  1  0  0  0  0
 17  8  2  0  0  0  0
 17 13  1  0  0  0  0
 18 11  1  0  0  0  0
 19 29  1  0  0  0  0
 20 25  2  0  0  0  0
 22 19  1  0  0  0  0
 22 18  1  0  0  0  0
 23 15  1  0  0  0  0
 23 34  1  1  0  0  0
 23 30  1  0  0  0  0
 25 21  1  0  0  0  0
 26 18  2  0  0  0  0
 27  3  1  1  0  0  0
 27 14  1  0  0  0  0
 28 33  2  0  0  0  0
 29  3  1  0  0  0  0
 30 24  1  1  0  0  0
 30 32  1  0  0  0  0
 31  2  2  0  0  0  0
 31 16  1  0  0  0  0
 32  1  1  0  0  0  0
 32 26  1  0  0  0  0
 33 20  1  0  0  0  0
 35 34  1  0  0  0  0
 36 37  1  0  0  0  0
M  END
>  <MODEL>
5

>  <REMARK>
 VINA RESULT:      -8.5      2.404      5.523
  Name = 
  2 active torsions:
  status: ('A' for Active; 'I' for Inactive)
    1  A    between atoms: C_5  and  N_23
    2  A    between atoms: C_11  and  C_26
                            x       y       z     vdW  Elec       q    Type
                         _______ _______ _______ _____ _____    ______ ____

>  <TORSDO>
F 2

$$$$
=
 OpenBabel11052419523D

 37 44  0  0  1  0  0  0  0  0999 V2000
  187.8500  175.8730  146.2140 O   0  0  0  0  0  0  0  0  0  0  0  0
  193.1320  176.0370  143.3310 C   0  0  0  0  0  3  0  0  0  0  0  0
  185.0430  177.5410  141.2570 C   0  0  0  0  0  2  0  0  0  0  0  0
  188.3690  175.3550  141.7250 C   0  0  0  0  0  0  0  0  0  0  0  0
  187.4230  176.8250  147.1740 C   0  0  1  0  0  3  0  0  0  0  0  0
  192.1080  174.9880  143.7180 C   0  0  2  0  0  0  0  0  0  0  0  0
  190.9480  175.4150  144.4830 C   0  0  2  0  0  3  0  0  0  0  0  0
  192.7500  173.7510  144.2990 C   0  0  0  0  0  3  0  0  0  0  0  0
  187.4260  177.2380  140.3260 C   0  0  1  0  0  3  0  0  0  0  0  0
  188.6170  175.0360  143.1720 C   0  0  1  0  0  3  0  0  0  0  0  0
  187.6970  176.5040  141.6140 C   0  0  0  0  0  0  0  0  0  0  0  0
  190.0400  175.0410  143.4140 N   0  0  0  0  0  0  0  0  0  0  0  0
  194.5390  172.2570  144.4190 F   0  0  0  0  0  0  0  0  0  0  0  0
  186.4350  176.5610  139.5850 O   0  0  0  0  0  0  0  0  0  0  0  0
  188.4220  177.7800  147.5590 O   0  0  0  0  0  0  0  0  0  0  0  0
  194.7400  174.2020  142.8920 C   0  0  0  0  0  2  0  0  0  0  0  0
  193.9850  173.3910  143.9190 C   0  0  0  0  0  0  0  0  0  0  0  0
  187.5550  177.0730  142.9470 C   0  0  0  0  0  0  0  0  0  0  0  0
  185.6850  178.5610  143.4570 C   0  0  0  0  0  2  0  0  0  0  0  0
  190.1080  174.0610  140.4410 C   0  0  0  0  0  3  0  0  0  0  0  0
  187.9880  174.2840  139.5720 F   0  0  0  0  0  0  0  0  0  0  0  0
  187.0730  178.3460  143.2420 O   0  0  0  0  0  0  0  0  0  0  0  0
  189.6920  177.5400  146.9690 C   0  0  2  0  0  3  0  0  0  0  0  0
  190.8450  176.9340  144.7320 C   0  0  0  0  0  2  0  0  0  0  0  0
  188.8540  174.5330  140.5840 C   0  0  0  0  0  0  0  0  0  0  0  0
  188.0290  176.2240  143.8410 C   0  0  0  0  0  0  0  0  0  0  0  0
  186.0460  177.7940  140.1370 C   0  0  1  0  0  3  0  0  0  0  0  0
  191.1840  174.6530  142.5840 C   0  0  0  0  0  0  0  0  0  0  0  0
  184.9500  178.7720  142.1400 C   0  0  0  0  0  2  0  0  0  0  0  0
  189.5570  177.3960  145.4510 C   0  0  1  0  0  3  0  0  0  0  0  0
  194.3640  175.6630  142.9530 C   0  0  0  0  0  3  0  0  0  0  0  0
  188.3820  176.5760  145.1800 N   0  0  0  0  0  0  0  0  0  0  0  0
  191.2780  174.2100  141.3380 C   0  0  0  0  0  3  0  0  0  0  0  0
  190.3960  176.3590  147.6380 C   0  0  0  0  0  2  0  0  0  0  0  0
  191.5640  176.7960  148.2630 O   0  0  0  0  0  1  0  0  0  0  0  0
  186.0300  178.6630  147.5730 C   0  0  0  0  0  1  0  0  0  0  0  0
  186.2210  177.5080  146.7150 N   0  0  0  0  0  2  0  0  0  0  0  0
  1  5  1  0  0  0  0
  3 29  1  0  0  0  0
  5 37  1  6  0  0  0
  5 15  1  0  0  0  0
  6  2  1  6  0  0  0
  6  8  1  0  0  0  0
  6  7  1  0  0  0  0
  7 24  1  6  0  0  0
  9 14  1  6  0  0  0
  9 11  1  0  0  0  0
 10  4  1  6  0  0  0
 10 12  1  0  0  0  0
 10 26  1  0  0  0  0
 11  4  2  0  0  0  0
 11 18  1  0  0  0  0
 12  7  1  0  0  0  0
 14 27  1  0  0  0  0
 16 31  1  0  0  0  0
 16 17  1  0  0  0  0
 17  8  2  0  0  0  0
 17 13  1  0  0  0  0
 18 22  1  0  0  0  0
 18 26  2  0  0  0  0
 20 25  2  0  0  0  0
 20 33  1  0  0  0  0
 21 25  1  0  0  0  0
 22 19  1  0  0  0  0
 23 15  1  0  0  0  0
 23 34  1  1  0  0  0
 25  4  1  0  0  0  0
 26 32  1  0  0  0  0
 27  9  1  0  0  0  0
 27  3  1  1  0  0  0
 28 12  1  0  0  0  0
 28  6  1  0  0  0  0
 29 19  1  0  0  0  0
 30 24  1  1  0  0  0
 30 23  1  0  0  0  0
 31  2  2  0  0  0  0
 32 30  1  0  0  0  0
 32  1  1  0  0  0  0
 33 28  2  0  0  0  0
 34 35  1  0  0  0  0
 37 36  1  0  0  0  0
M  END
>  <MODEL>
6

>  <REMARK>
 VINA RESULT:      -8.3      2.773      6.346
  Name = 
  2 active torsions:
  status: ('A' for Active; 'I' for Inactive)
    1  A    between atoms: C_5  and  N_23
    2  A    between atoms: C_11  and  C_26
                            x       y       z     vdW  Elec       q    Type
                         _______ _______ _______ _____ _____    ______ ____

>  <TORSDO>
F 2

$$$$
=
 OpenBabel11052419523D

 37 44  0  0  1  0  0  0  0  0999 V2000
  191.7900  171.8300  141.4150 O   0  0  0  0  0  0  0  0  0  0  0  0
  189.7070  176.4510  144.6620 C   0  0  0  0  0  3  0  0  0  0  0  0
  196.8220  174.7910  140.3470 C   0  0  0  0  0  2  0  0  0  0  0  0
  194.4010  174.8890  143.5390 C   0  0  0  0  0  0  0  0  0  0  0  0
  191.3310  171.4790  140.1210 C   0  0  1  0  0  3  0  0  0  0  0  0
  190.3880  175.1230  144.9280 C   0  0  2  0  0  0  0  0  0  0  0  0
  190.6850  174.2670  143.7890 C   0  0  2  0  0  3  0  0  0  0  0  0
  189.7350  174.3620  146.0560 C   0  0  0  0  0  3  0  0  0  0  0  0
  195.7050  176.4180  142.0030 C   0  0  1  0  0  3  0  0  0  0  0  0
  193.3300  173.8400  143.4480 C   0  0  1  0  0  3  0  0  0  0  0  0
  194.7860  175.2630  142.3160 C   0  0  0  0  0  0  0  0  0  0  0  0
  192.1150  174.3630  144.0240 N   0  0  0  0  0  0  0  0  0  0  0  0
  188.5700  174.3330  148.0790 F   0  0  0  0  0  0  0  0  0  0  0  0
  197.0320  176.0830  142.3420 O   0  0  0  0  0  0  0  0  0  0  0  0
  190.1830  172.2130  139.6710 O   0  0  0  0  0  0  0  0  0  0  0  0
  189.0950  176.5350  147.0630 C   0  0  0  0  0  2  0  0  0  0  0  0
  189.1220  175.0250  147.0490 C   0  0  0  0  0  0  0  0  0  0  0  0
  193.9340  174.5860  141.3490 C   0  0  0  0  0  0  0  0  0  0  0  0
  194.7530  174.1390  139.0900 C   0  0  0  0  0  2  0  0  0  0  0  0
  194.1520  175.9110  145.8280 C   0  0  0  0  0  3  0  0  0  0  0  0
  196.2550  175.6070  144.9440 F   0  0  0  0  0  0  0  0  0  0  0  0
  193.8950  174.8400  139.9800 O   0  0  0  0  0  0  0  0  0  0  0  0
  189.6600  173.1020  140.6480 C   0  0  2  0  0  3  0  0  0  0  0  0
  190.3530  174.8700  142.4080 C   0  0  0  0  0  2  0  0  0  0  0  0
  194.9140  175.4630  144.8110 C   0  0  0  0  0  0  0  0  0  0  0  0
  193.1400  173.7400  141.9780 C   0  0  0  0  0  0  0  0  0  0  0  0
  196.7620  176.1830  140.9670 C   0  0  1  0  0  3  0  0  0  0  0  0
  191.8650  175.2760  145.1440 C   0  0  0  0  0  0  0  0  0  0  0  0
  196.1180  174.8050  139.0020 C   0  0  0  0  0  2  0  0  0  0  0  0
  190.7690  174.0040  141.1970 C   0  0  1  0  0  3  0  0  0  0  0  0
  189.0980  177.1030  145.6640 C   0  0  0  0  0  3  0  0  0  0  0  0
  191.9520  173.1790  141.4170 N   0  0  0  0  0  0  0  0  0  0  0  0
  192.6760  175.9390  145.9560 C   0  0  0  0  0  3  0  0  0  0  0  0
  188.8950  172.3410  141.7320 C   0  0  0  0  0  2  0  0  0  0  0  0
  187.5720  172.7820  141.7740 O   0  0  0  0  0  1  0  0  0  0  0  0
  191.8150  171.9850  137.8870 C   0  0  0  0  0  1  0  0  0  0  0  0
  192.4110  171.5850  139.1490 N   0  0  0  0  0  2  0  0  0  0  0  0
  1 32  1  0  0  0  0
  2 31  2  0  0  0  0
  4 25  1  0  0  0  0
  5 37  1  6  0  0  0
  5  1  1  0  0  0  0
  6  2  1  6  0  0  0
  6 28  1  0  0  0  0
  6  8  1  0  0  0  0
  7 24  1  6  0  0  0
  7 12  1  0  0  0  0
  7  6  1  0  0  0  0
  8 17  2  0  0  0  0
  9 11  1  6  0  0  0
  9 14  1  0  0  0  0
 10 26  1  6  0  0  0
 10  4  1  0  0  0  0
 10 12  1  0  0  0  0
 11  4  2  0  0  0  0
 12 28  1  0  0  0  0
 15  5  1  0  0  0  0
 15 23  1  0  0  0  0
 17 16  1  0  0  0  0
 17 13  1  0  0  0  0
 18 26  2  0  0  0  0
 18 11  1  0  0  0  0
 19 22  1  0  0  0  0
 20 33  1  0  0  0  0
 22 18  1  0  0  0  0
 23 30  1  0  0  0  0
 23 34  1  1  0  0  0
 25 21  1  0  0  0  0
 25 20  2  0  0  0  0
 27  3  1  6  0  0  0
 27  9  1  0  0  0  0
 27 14  1  0  0  0  0
 28 33  2  0  0  0  0
 29 19  1  0  0  0  0
 29  3  1  0  0  0  0
 30 32  1  0  0  0  0
 30 24  1  1  0  0  0
 31 16  1  0  0  0  0
 32 26  1  0  0  0  0
 34 35  1  0  0  0  0
 36 37  1  0  0  0  0
M  END
>  <MODEL>
7

>  <REMARK>
 VINA RESULT:      -8.2      3.734      6.543
  Name = 
  2 active torsions:
  status: ('A' for Active; 'I' for Inactive)
    1  A    between atoms: C_5  and  N_23
    2  A    between atoms: C_11  and  C_26
                            x       y       z     vdW  Elec       q    Type
                         _______ _______ _______ _____ _____    ______ ____

>  <TORSDO>
F 2

$$$$
=
 OpenBabel11052419523D

 37 44  0  0  1  0  0  0  0  0999 V2000
  191.3460  171.5320  142.8210 O   0  0  0  0  0  0  0  0  0  0  0  0
  189.1750  176.8940  144.4900 C   0  0  0  0  0  3  0  0  0  0  0  0
  196.8160  173.8100  142.4640 C   0  0  0  0  0  2  0  0  0  0  0  0
  193.7710  174.7830  144.8810 C   0  0  0  0  0  0  0  0  0  0  0  0
  191.1490  170.9410  141.5490 C   0  0  1  0  0  3  0  0  0  0  0  0
  189.6090  175.6090  145.1690 C   0  0  2  0  0  0  0  0  0  0  0  0
  190.0460  174.5060  144.3280 C   0  0  2  0  0  3  0  0  0  0  0  0
  188.6310  175.1650  146.2290 C   0  0  0  0  0  3  0  0  0  0  0  0
  195.5650  175.8380  143.4430 C   0  0  1  0  0  3  0  0  0  0  0  0
  192.6260  173.8210  144.7370 C   0  0  1  0  0  3  0  0  0  0  0  0
  194.4640  174.8510  143.7400 C   0  0  0  0  0  0  0  0  0  0  0  0
  191.3870  174.5450  144.8830 N   0  0  0  0  0  0  0  0  0  0  0  0
  187.0470  175.6660  147.8690 F   0  0  0  0  0  0  0  0  0  0  0  0
  196.7300  175.4890  144.1570 O   0  0  0  0  0  0  0  0  0  0  0  0
  190.2310  171.6410  140.6960 O   0  0  0  0  0  0  0  0  0  0  0  0
  188.0550  177.5470  146.6030 C   0  0  0  0  0  2  0  0  0  0  0  0
  187.8970  176.0720  146.8910 C   0  0  0  0  0  0  0  0  0  0  0  0
  193.7740  174.0420  142.7460 C   0  0  0  0  0  0  0  0  0  0  0  0
  195.0160  173.0510  140.8890 C   0  0  0  0  0  2  0  0  0  0  0  0
  193.1420  176.2980  146.7930 C   0  0  0  0  0  3  0  0  0  0  0  0
  195.3360  175.6530  146.5300 F   0  0  0  0  0  0  0  0  0  0  0  0
  194.0740  173.9920  141.3870 O   0  0  0  0  0  0  0  0  0  0  0  0
  189.6160  172.7580  141.3230 C   0  0  2  0  0  3  0  0  0  0  0  0
  190.1090  174.8130  142.8170 C   0  0  0  0  0  2  0  0  0  0  0  0
  194.0530  175.5830  146.1030 C   0  0  0  0  0  0  0  0  0  0  0  0
  192.7600  173.4150  143.3140 C   0  0  0  0  0  0  0  0  0  0  0  0
  196.7900  175.3040  142.7650 C   0  0  1  0  0  3  0  0  0  0  0  0
  191.0080  175.6980  145.7070 C   0  0  0  0  0  0  0  0  0  0  0  0
  196.4390  173.5810  141.0110 C   0  0  0  0  0  2  0  0  0  0  0  0
  190.6770  173.6740  141.9390 C   0  0  1  0  0  3  0  0  0  0  0  0
  188.4420  177.7920  145.1640 C   0  0  0  0  0  3  0  0  0  0  0  0
  191.6690  172.8340  142.5990 N   0  0  0  0  0  0  0  0  0  0  0  0
  191.6900  176.4610  146.5480 C   0  0  0  0  0  3  0  0  0  0  0  0
  188.5390  172.3110  142.3120 C   0  0  0  0  0  2  0  0  0  0  0  0
  187.3160  172.8910  141.9740 O   0  0  0  0  0  1  0  0  0  0  0  0
  192.1850  170.9310  139.4500 C   0  0  0  0  0  1  0  0  0  0  0  0
  192.4240  170.7520  140.8710 N   0  0  0  0  0  2  0  0  0  0  0  0
  2 31  2  0  0  0  0
  4 25  1  0  0  0  0
  5 37  1  6  0  0  0
  5  1  1  0  0  0  0
  6  2  1  6  0  0  0
  6 28  1  0  0  0  0
  6  8  1  0  0  0  0
  7 24  1  6  0  0  0
  7 12  1  0  0  0  0
  7  6  1  0  0  0  0
  8 17  2  0  0  0  0
  9 11  1  1  0  0  0
  9 14  1  0  0  0  0
 10 26  1  6  0  0  0
 10  4  1  0  0  0  0
 10 12  1  0  0  0  0
 11  4  2  0  0  0  0
 12 28  1  0  0  0  0
 15 23  1  0  0  0  0
 15  5  1  0  0  0  0
 16 17  1  0  0  0  0
 17 13  1  0  0  0  0
 18 26  2  0  0  0  0
 18 11  1  0  0  0  0
 19 29  1  0  0  0  0
 19 22  1  0  0  0  0
 22 18  1  0  0  0  0
 23 30  1  0  0  0  0
 23 34  1  1  0  0  0
 25 21  1  0  0  0  0
 25 20  2  0  0  0  0
 27  3  1  1  0  0  0
 27  9  1  0  0  0  0
 27 14  1  0  0  0  0
 28 33  2  0  0  0  0
 29  3  1  0  0  0  0
 30 32  1  0  0  0  0
 30 24  1  1  0  0  0
 31 16  1  0  0  0  0
 32  1  1  0  0  0  0
 32 26  1  0  0  0  0
 33 20  1  0  0  0  0
 35 34  1  0  0  0  0
 36 37  1  0  0  0  0
M  END
>  <MODEL>
8

>  <REMARK>
 VINA RESULT:      -7.9      3.126      5.941
  Name = 
  2 active torsions:
  status: ('A' for Active; 'I' for Inactive)
    1  A    between atoms: C_5  and  N_23
    2  A    between atoms: C_11  and  C_26
                            x       y       z     vdW  Elec       q    Type
                         _______ _______ _______ _____ _____    ______ ____

>  <TORSDO>
F 2

$$$$
=
 OpenBabel11052419523D

 37 44  0  0  1  0  0  0  0  0999 V2000
  194.6210  176.3420  142.6480 O   0  0  0  0  0  0  0  0  0  0  0  0
  190.1470  174.6330  146.2970 C   0  0  0  0  0  3  0  0  0  0  0  0
  193.6430  171.6310  139.1720 C   0  0  0  0  0  2  0  0  0  0  0  0
  191.0830  173.7770  141.3860 C   0  0  0  0  0  0  0  0  0  0  0  0
  196.0000  176.2440  142.9590 C   0  0  1  0  0  3  0  0  0  0  0  0
  190.3370  175.6080  145.1510 C   0  0  2  0  0  0  0  0  0  0  0  0
  191.6640  175.7260  144.5670 C   0  0  2  0  0  3  0  0  0  0  0  0
  189.7200  176.9540  145.4390 C   0  0  0  0  0  3  0  0  0  0  0  0
  191.6630  171.3860  140.8020 C   0  0  1  0  0  3  0  0  0  0  0  0
  191.7460  174.9920  141.9690 C   0  0  1  0  0  3  0  0  0  0  0  0
  191.9810  172.8060  141.1970 C   0  0  0  0  0  0  0  0  0  0  0  0
  191.1990  175.2370  143.2810 N   0  0  0  0  0  0  0  0  0  0  0  0
  188.0780  178.2580  146.4660 F   0  0  0  0  0  0  0  0  0  0  0  0
  191.2910  171.3360  139.4430 O   0  0  0  0  0  0  0  0  0  0  0  0
  196.2850  175.8510  144.3090 O   0  0  0  0  0  0  0  0  0  0  0  0
  188.0350  175.8080  146.8500 C   0  0  0  0  0  2  0  0  0  0  0  0
  188.6490  177.0470  146.2420 C   0  0  0  0  0  0  0  0  0  0  0  0
  193.2540  173.2590  141.7380 C   0  0  0  0  0  0  0  0  0  0  0  0
  195.3520  172.3730  140.8510 C   0  0  0  0  0  2  0  0  0  0  0  0
  188.6410  173.9950  141.9690 C   0  0  0  0  0  3  0  0  0  0  0  0
  189.2470  173.1200  139.9280 F   0  0  0  0  0  0  0  0  0  0  0  0
  194.3960  172.4770  141.8970 O   0  0  0  0  0  0  0  0  0  0  0  0
  195.1240  175.7170  145.1180 C   0  0  2  0  0  3  0  0  0  0  0  0
  192.7210  174.7530  145.1310 C   0  0  0  0  0  2  0  0  0  0  0  0
  189.6260  173.6610  141.1110 C   0  0  0  0  0  0  0  0  0  0  0  0
  193.1430  174.5150  142.1320 C   0  0  0  0  0  0  0  0  0  0  0  0
  192.5350  170.7610  139.7540 C   0  0  1  0  0  3  0  0  0  0  0  0
  189.8580  175.0460  143.8440 C   0  0  0  0  0  0  0  0  0  0  0  0
  194.9590  171.2950  139.8510 C   0  0  0  0  0  2  0  0  0  0  0  0
  194.1000  174.8070  144.4340 C   0  0  1  0  0  3  0  0  0  0  0  0
  189.0720  174.7370  147.0930 C   0  0  0  0  0  3  0  0  0  0  0  0
  194.0540  175.1640  143.0200 N   0  0  0  0  0  0  0  0  0  0  0  0
  188.7370  174.5530  143.3380 C   0  0  0  0  0  3  0  0  0  0  0  0
  194.5640  177.0850  145.5100 C   0  0  0  0  0  2  0  0  0  0  0  0
  194.3840  177.1440  146.8920 O   0  0  0  0  0  1  0  0  0  0  0  0
  196.7540  176.0540  140.7510 C   0  0  0  0  0  1  0  0  0  0  0  0
  196.6730  175.3560  142.0220 N   0  0  0  0  0  2  0  0  0  0  0  0
  1  5  1  0  0  0  0
  1 32  1  0  0  0  0
  2 31  2  0  0  0  0
  3 29  1  0  0  0  0
  5 37  1  6  0  0  0
  5 15  1  0  0  0  0
  6  8  1  1  0  0  0
  6  2  1  0  0  0  0
  7 24  1  1  0  0  0
  7  6  1  0  0  0  0
  8 17  2  0  0  0  0
  9 14  1  6  0  0  0
  9 11  1  0  0  0  0
 10  4  1  1  0  0  0
 10 26  1  0  0  0  0
 10 12  1  0  0  0  0
 11  4  2  0  0  0  0
 11 18  1  0  0  0  0
 12 28  1  0  0  0  0
 12  7  1  0  0  0  0
 14 27  1  0  0  0  0
 15 23  1  0  0  0  0
 16 31  1  0  0  0  0
 17 13  1  0  0  0  0
 17 16  1  0  0  0  0
 18 22  1  0  0  0  0
 18 26  2  0  0  0  0
 19 22  1  0  0  0  0
 20 33  1  0  0  0  0
 21 25  1  0  0  0  0
 23 34  1  6  0  0  0
 25  4  1  0  0  0  0
 25 20  2  0  0  0  0
 26 32  1  0  0  0  0
 27  3  1  6  0  0  0
 27  9  1  0  0  0  0
 28  6  1  0  0  0  0
 29 19  1  0  0  0  0
 30 23  1  0  0  0  0
 30 24  1  1  0  0  0
 32 30  1  0  0  0  0
 33 28  2  0  0  0  0
 34 35  1  0  0  0  0
 36 37  1  0  0  0  0
M  END
>  <MODEL>
9

>  <REMARK>
 VINA RESULT:      -7.8      2.637      3.754
  Name = 
  2 active torsions:
  status: ('A' for Active; 'I' for Inactive)
    1  A    between atoms: C_5  and  N_23
    2  A    between atoms: C_11  and  C_26
                            x       y       z     vdW  Elec       q    Type
                         _______ _______ _______ _____ _____    ______ ____

>  <TORSDO>
F 2

$$$$
