=
 OpenBabel11052419443D

 55 60  0  0  1  0  0  0  0  0999 V2000
  187.8660  175.5700  141.5520 C   0  0  0  0  0  2  0  0  0  0  0  0
  192.9350  176.1740  142.9040 C   0  0  0  0  0  2  0  0  0  0  0  0
  192.3120  178.8270  143.9390 C   0  0  0  0  0  2  0  0  0  0  0  0
  189.9280  178.5240  143.6930 C   0  0  0  0  0  2  0  0  0  0  0  0
  187.7110  173.1220  142.1900 C   0  0  0  0  0  2  0  0  0  0  0  0
  190.2740  173.1880  143.4140 C   0  0  1  0  0  3  0  0  0  0  0  0
  187.1150  176.1890  142.7220 C   0  0  0  0  0  2  0  0  0  0  0  0
  189.5880  174.5150  143.1000 C   0  0  0  0  0  2  0  0  0  0  0  0
  192.7930  174.6560  142.8920 C   0  0  0  0  0  2  0  0  0  0  0  0
  191.6060  176.8650  142.6270 C   0  0  0  0  0  2  0  0  0  0  0  0
  191.3280  178.0020  143.5790 C   0  0  0  0  0  0  0  0  0  0  0  0
  188.5730  171.9250  142.5960 C   0  0  0  0  0  2  0  0  0  0  0  0
  192.5250  174.0820  144.2930 C   0  0  2  0  0  0  0  0  0  0  0  0
  188.6350  174.3050  141.9260 C   0  0  2  0  0  3  0  0  0  0  0  0
  188.9350  177.4070  143.9950 C   0  0  2  0  0  3  0  0  0  0  0  0
  187.7300  177.5440  143.0540 C   0  0  2  0  0  3  0  0  0  0  0  0
  192.4390  172.6770  144.2360 O   0  0  0  0  0  0  0  0  0  0  0  0
  191.2480  173.3500  144.5740 C   0  0  2  0  0  3  0  0  0  0  0  0
  189.3040  172.2270  143.7620 O   0  0  0  0  0  0  0  0  0  0  0  0
  189.6960  177.5560  146.3340 O   0  0  0  0  0  0  0  0  0  0  0  0
  190.4650  176.3770  146.3900 C   0  0  0  0  0  2  0  0  0  0  0  0
  187.7910  176.0470  145.8520 C   0  0  2  0  0  3  0  0  0  0  0  0
  188.2430  175.4800  147.1930 C   0  0  0  0  0  2  0  0  0  0  0  0
  189.7630  175.3090  147.2300 C   0  0  0  0  0  2  0  0  0  0  0  0
  188.5730  177.3330  145.4950 C   0  0  2  0  0  3  0  0  0  0  0  0
  186.4250  176.3220  145.9040 O   0  0  0  0  0  1  0  0  0  0  0  0
  193.4200  173.4810  146.4360 F   0  0  0  0  0  0  0  0  0  0  0  0
  193.4060  174.5010  145.4960 C   0  0  0  0  0  0  0  0  0  0  0  0
  192.8650  175.6230  146.1010 F   0  0  0  0  0  0  0  0  0  0  0  0
  194.8520  174.8030  145.0320 C   0  0  1  0  0  3  0  0  0  0  0  0
  195.4190  175.8170  145.8140 O   0  0  0  0  0  1  0  0  0  0  0  0
  195.8030  173.5800  144.9400 C   0  0  2  0  0  0  0  0  0  0  0  0
  195.2280  172.4970  145.6110 O   0  0  0  0  0  1  0  0  0  0  0  0
  197.2200  173.3610  146.8790 F   0  0  0  0  0  0  0  0  0  0  0  0
  197.1510  173.8860  145.6000 C   0  0  0  0  0  2  0  0  0  0  0  0
  196.0280  173.1820  143.4630 C   0  0  2  0  0  3  0  0  0  0  0  0
  196.2520  171.6750  143.2860 C   0  0  2  0  0  3  0  0  0  0  0  0
  197.6020  171.3810  143.2180 F   0  0  0  0  0  0  0  0  0  0  0  0
  195.6160  171.2320  142.1270 O   0  0  0  0  0  1  0  0  0  0  0  0
  197.0990  173.8960  142.9050 O   0  0  0  0  0  0  0  0  0  0  0  0
  196.8790  176.0550  142.1970 O   0  0  0  0  0  1  0  0  0  0  0  0
  196.5260  174.7300  141.9390 C   0  0  1  0  0  3  0  0  0  0  0  0
  196.4170  174.8810  139.4470 O   0  0  0  0  0  0  0  0  0  0  0  0
  197.0070  174.3400  140.5830 C   0  0  0  0  0  0  0  0  0  0  0  0
  197.9410  173.5050  140.4680 O   0  0  0  0  0  1  0  0  0  0  0  0
  186.6850  178.5420  143.5500 C   0  0  0  0  0  2  0  0  0  0  0  0
  185.4960  178.3930  141.3540 C   0  0  0  0  0  3  0  0  0  0  0  0
  183.0710  178.3200  141.2380 C   0  0  0  0  0  0  0  0  0  0  0  0
  184.1880  178.4200  143.3920 C   0  0  0  0  0  3  0  0  0  0  0  0
  183.0120  178.3520  142.6390 C   0  0  0  0  0  3  0  0  0  0  0  0
  184.3210  178.3250  140.6010 C   0  0  0  0  0  3  0  0  0  0  0  0
  185.4310  178.4430  142.7500 C   0  0  0  0  0  0  0  0  0  0  0  0
  181.8120  178.2010  140.4340 C   0  0  0  0  0  3  0  0  0  0  0  0
  180.6110  178.0360  141.3530 C   0  0  0  0  0  2  0  0  0  0  0  0
  180.8880  179.3760  140.7130 C   0  0  0  0  0  2  0  0  0  0  0  0
  1  7  1  0  0  0  0
  5 12  1  0  0  0  0
  6  8  1  1  0  0  0
  6 19  1  0  0  0  0
  6 18  1  0  0  0  0
  7 16  1  0  0  0  0
  9  2  1  0  0  0  0
  9 13  1  0  0  0  0
 10  2  1  0  0  0  0
 10 11  1  0  0  0  0
 11  4  1  0  0  0  0
 11  3  2  0  0  0  0
 12 19  1  0  0  0  0
 13 18  1  0  0  0  0
 13 28  1  1  0  0  0
 14  1  1  1  0  0  0
 14  5  1  0  0  0  0
 14  8  1  0  0  0  0
 15  4  1  1  0  0  0
 15 25  1  0  0  0  0
 16 46  1  1  0  0  0
 16 15  1  0  0  0  0
 17 13  1  0  0  0  0
 18 17  1  6  0  0  0
 20 21  1  0  0  0  0
 21 24  1  0  0  0  0
 22 26  1  1  0  0  0
 22 23  1  0  0  0  0
 23 24  1  0  0  0  0
 25 22  1  0  0  0  0
 25 20  1  1  0  0  0
 28 29  1  0  0  0  0
 28 27  1  0  0  0  0
 30 28  1  0  0  0  0
 30 31  1  1  0  0  0
 32 30  1  0  0  0  0
 32 35  1  0  0  0  0
 32 33  1  1  0  0  0
 35 34  1  0  0  0  0
 36 40  1  1  0  0  0
 36 32  1  0  0  0  0
 37 39  1  6  0  0  0
 37 36  1  0  0  0  0
 38 37  1  0  0  0  0
 42 41  1  1  0  0  0
 42 40  1  0  0  0  0
 43 44  2  0  0  0  0
 44 42  1  0  0  0  0
 45 44  1  0  0  0  0
 47 52  1  0  0  0  0
 48 50  2  0  0  0  0
 50 49  1  0  0  0  0
 51 48  1  0  0  0  0
 51 47  2  0  0  0  0
 52 49  2  0  0  0  0
 52 46  1  0  0  0  0
 53 55  1  0  0  0  0
 53 48  1  0  0  0  0
 53 54  1  0  0  0  0
 55 54  1  0  0  0  0
M  END
>  <MODEL>
1

>  <REMARK>
 VINA RESULT:      -7.7      0.000      0.000
  Name = 
  13 active torsions:
  status: ('A' for Active; 'I' for Inactive)
    1  A    between atoms: C_1  and  C_53
    2  A    between atoms: C_6  and  C_14
    3  A    between atoms: C_6  and  C_20
    4  A    between atoms: C_6  and  C_53
    5  A    between atoms: C_8  and  C_20
    6  A    between atoms: C_8  and  C_43
    7  A    between atoms: C_10  and  C_32
    8  A    between atoms: C_11  and  C_29
    9  A    between atoms: C_11  and  O_38
   10  A    between atoms: C_26  and  C_45
   11  A    between atoms: C_33  and  C_49
   12  A    between atoms: C_33  and  C_52
   13  A    between atoms: O_38  and  C_53
                            x       y       z     vdW  Elec       q    Type
                         _______ _______ _______ _____ _____    ______ ____

>  <TORSDO>
F 13

$$$$
=
 OpenBabel11052419443D

 55 60  0  0  1  0  0  0  0  0999 V2000
  187.7790  175.7830  141.5150 C   0  0  0  0  0  2  0  0  0  0  0  0
  192.8520  176.3720  142.8590 C   0  0  0  0  0  2  0  0  0  0  0  0
  192.2110  178.9640  144.0280 C   0  0  0  0  0  2  0  0  0  0  0  0
  189.8280  178.6480  143.7850 C   0  0  0  0  0  2  0  0  0  0  0  0
  187.6530  173.3050  142.0330 C   0  0  0  0  0  2  0  0  0  0  0  0
  190.2250  173.3370  143.2400 C   0  0  1  0  0  3  0  0  0  0  0  0
  187.0310  176.3360  142.7200 C   0  0  0  0  0  2  0  0  0  0  0  0
  189.5230  174.6710  142.9970 C   0  0  0  0  0  2  0  0  0  0  0  0
  192.7250  174.8550  142.7730 C   0  0  0  0  0  2  0  0  0  0  0  0
  191.5140  177.0610  142.6260 C   0  0  0  0  0  2  0  0  0  0  0  0
  191.2330  178.1470  143.6350 C   0  0  0  0  0  0  0  0  0  0  0  0
  188.5300  172.0990  142.3730 C   0  0  0  0  0  2  0  0  0  0  0  0
  192.4740  174.2090  144.1460 C   0  0  2  0  0  0  0  0  0  0  0  0
  188.5640  174.5090  141.8210 C   0  0  2  0  0  3  0  0  0  0  0  0
  188.8480  177.5090  144.0380 C   0  0  2  0  0  3  0  0  0  0  0  0
  187.6350  177.6790  143.1130 C   0  0  2  0  0  3  0  0  0  0  0  0
  192.4010  172.8080  144.0200 O   0  0  0  0  0  0  0  0  0  0  0  0
  191.2060  173.4510  144.4000 C   0  0  2  0  0  3  0  0  0  0  0  0
  189.2670  172.3500  143.5470 O   0  0  0  0  0  0  0  0  0  0  0  0
  189.6250  177.5560  146.3770 O   0  0  0  0  0  0  0  0  0  0  0  0
  190.4110  176.3870  146.3700 C   0  0  0  0  0  2  0  0  0  0  0  0
  187.7380  176.0430  145.8350 C   0  0  2  0  0  3  0  0  0  0  0  0
  188.2090  175.4190  147.1440 C   0  0  0  0  0  2  0  0  0  0  0  0
  189.7310  175.2690  147.1620 C   0  0  0  0  0  2  0  0  0  0  0  0
  188.4990  177.3570  145.5360 C   0  0  2  0  0  3  0  0  0  0  0  0
  186.3690  176.2950  145.9100 O   0  0  0  0  0  1  0  0  0  0  0  0
  193.1710  173.6440  146.3700 F   0  0  0  0  0  0  0  0  0  0  0  0
  193.3600  174.5770  145.3620 C   0  0  0  0  0  0  0  0  0  0  0  0
  192.9810  175.8140  145.8560 F   0  0  0  0  0  0  0  0  0  0  0  0
  194.8530  174.6120  144.9550 C   0  0  1  0  0  3  0  0  0  0  0  0
  195.4850  175.7370  145.4980 O   0  0  0  0  0  1  0  0  0  0  0  0
  195.6660  173.3240  145.2540 C   0  0  2  0  0  0  0  0  0  0  0  0
  194.8280  172.3770  145.8480 O   0  0  0  0  0  1  0  0  0  0  0  0
  197.9410  174.0650  145.5550 F   0  0  0  0  0  0  0  0  0  0  0  0
  196.8160  173.6170  146.2240 C   0  0  0  0  0  2  0  0  0  0  0  0
  196.2330  172.7280  143.9450 C   0  0  2  0  0  3  0  0  0  0  0  0
  196.2200  173.7330  142.7860 C   0  0  2  0  0  3  0  0  0  0  0  0
  195.4180  173.2840  141.7520 F   0  0  0  0  0  0  0  0  0  0  0  0
  197.5180  173.9360  142.3180 O   0  0  0  0  0  1  0  0  0  0  0  0
  195.5420  171.5630  143.5800 O   0  0  0  0  0  0  0  0  0  0  0  0
  197.7450  171.0460  143.8810 O   0  0  0  0  0  1  0  0  0  0  0  0
  196.5310  170.5990  143.3580 C   0  0  1  0  0  3  0  0  0  0  0  0
  195.6570  168.2610  143.2550 O   0  0  0  0  0  0  0  0  0  0  0  0
  196.1460  169.3170  144.0130 C   0  0  0  0  0  0  0  0  0  0  0  0
  196.2520  169.1970  145.2610 O   0  0  0  0  0  1  0  0  0  0  0  0
  186.5840  178.6400  143.6670 C   0  0  0  0  0  2  0  0  0  0  0  0
  184.0900  178.7220  143.4930 C   0  0  0  0  0  3  0  0  0  0  0  0
  182.9650  178.3940  141.3650 C   0  0  0  0  0  0  0  0  0  0  0  0
  185.3900  178.3520  141.4840 C   0  0  0  0  0  3  0  0  0  0  0  0
  184.2120  178.2680  140.7360 C   0  0  0  0  0  3  0  0  0  0  0  0
  182.9110  178.6380  142.7460 C   0  0  0  0  0  3  0  0  0  0  0  0
  185.3300  178.5770  142.8640 C   0  0  0  0  0  0  0  0  0  0  0  0
  181.7040  178.3500  140.5550 C   0  0  0  0  0  3  0  0  0  0  0  0
  180.5230  177.9730  141.4350 C   0  0  0  0  0  2  0  0  0  0  0  0
  180.7280  179.4150  141.0310 C   0  0  0  0  0  2  0  0  0  0  0  0
  1  7  1  0  0  0  0
  5 12  1  0  0  0  0
  6  8  1  1  0  0  0
  6 19  1  0  0  0  0
  6 18  1  0  0  0  0
  7 16  1  0  0  0  0
  9  2  1  0  0  0  0
  9 13  1  0  0  0  0
 10  2  1  0  0  0  0
 10 11  1  0  0  0  0
 11  4  1  0  0  0  0
 11  3  2  0  0  0  0
 12 19  1  0  0  0  0
 13 18  1  0  0  0  0
 13 28  1  1  0  0  0
 14  1  1  1  0  0  0
 14  5  1  0  0  0  0
 14  8  1  0  0  0  0
 15  4  1  1  0  0  0
 15 25  1  0  0  0  0
 16 46  1  1  0  0  0
 16 15  1  0  0  0  0
 17 13  1  0  0  0  0
 18 17  1  6  0  0  0
 21 20  1  0  0  0  0
 21 24  1  0  0  0  0
 22 26  1  1  0  0  0
 22 23  1  0  0  0  0
 23 24  1  0  0  0  0
 25 22  1  0  0  0  0
 25 20  1  1  0  0  0
 28 29  1  0  0  0  0
 28 27  1  0  0  0  0
 30 32  1  0  0  0  0
 30 28  1  0  0  0  0
 30 31  1  1  0  0  0
 32 33  1  1  0  0  0
 32 35  1  0  0  0  0
 34 35  1  0  0  0  0
 36 40  1  6  0  0  0
 36 32  1  0  0  0  0
 37 38  1  6  0  0  0
 37 36  1  0  0  0  0
 39 37  1  0  0  0  0
 42 40  1  0  0  0  0
 42 41  1  1  0  0  0
 42 44  1  0  0  0  0
 43 44  2  0  0  0  0
 44 45  1  0  0  0  0
 48 51  1  0  0  0  0
 49 52  2  0  0  0  0
 50 48  2  0  0  0  0
 50 49  1  0  0  0  0
 51 47  2  0  0  0  0
 52 47  1  0  0  0  0
 52 46  1  0  0  0  0
 53 55  1  0  0  0  0
 53 48  1  0  0  0  0
 53 54  1  0  0  0  0
 55 54  1  0  0  0  0
M  END
>  <MODEL>
2

>  <REMARK>
 VINA RESULT:      -7.4      1.021      2.142
  Name = 
  13 active torsions:
  status: ('A' for Active; 'I' for Inactive)
    1  A    between atoms: C_1  and  C_53
    2  A    between atoms: C_6  and  C_14
    3  A    between atoms: C_6  and  C_20
    4  A    between atoms: C_6  and  C_53
    5  A    between atoms: C_8  and  C_20
    6  A    between atoms: C_8  and  C_43
    7  A    between atoms: C_10  and  C_32
    8  A    between atoms: C_11  and  C_29
    9  A    between atoms: C_11  and  O_38
   10  A    between atoms: C_26  and  C_45
   11  A    between atoms: C_33  and  C_49
   12  A    between atoms: C_33  and  C_52
   13  A    between atoms: O_38  and  C_53
                            x       y       z     vdW  Elec       q    Type
                         _______ _______ _______ _____ _____    ______ ____

>  <TORSDO>
F 13

$$$$
=
 OpenBabel11052419443D

 55 60  0  0  1  0  0  0  0  0999 V2000
  194.1190  172.4420  145.8100 C   0  0  0  0  0  2  0  0  0  0  0  0
  192.2080  171.5070  140.9760 C   0  0  0  0  0  2  0  0  0  0  0  0
  190.4530  173.8180  141.2570 C   0  0  0  0  0  2  0  0  0  0  0  0
  191.4960  174.5460  143.3100 C   0  0  0  0  0  2  0  0  0  0  0  0
  196.5230  171.8510  145.2640 C   0  0  0  0  0  2  0  0  0  0  0  0
  195.9420  171.6790  142.4880 C   0  0  1  0  0  3  0  0  0  0  0  0
  194.2310  173.9590  145.8550 C   0  0  0  0  0  2  0  0  0  0  0  0
  194.9270  172.3650  143.3990 C   0  0  0  0  0  2  0  0  0  0  0  0
  193.5820  170.8500  140.9030 C   0  0  0  0  0  2  0  0  0  0  0  0
  191.9930  172.2100  142.3110 C   0  0  0  0  0  2  0  0  0  0  0  0
  191.4100  173.5930  142.1570 C   0  0  0  0  0  0  0  0  0  0  0  0
  197.3910  171.2180  144.1750 C   0  0  0  0  0  2  0  0  0  0  0  0
  194.6380  171.7700  140.2680 C   0  0  2  0  0  0  0  0  0  0  0  0
  195.0700  171.7940  144.8060 C   0  0  2  0  0  3  0  0  0  0  0  0
  192.9270  174.6940  143.8120 C   0  0  2  0  0  3  0  0  0  0  0  0
  192.9350  174.5740  145.3420 C   0  0  2  0  0  3  0  0  0  0  0  0
  195.8780  171.1060  140.1880 O   0  0  0  0  0  0  0  0  0  0  0  0
  195.8290  172.2080  141.0640 C   0  0  2  0  0  3  0  0  0  0  0  0
  197.2450  171.9240  142.9660 O   0  0  0  0  0  0  0  0  0  0  0  0
  193.1980  176.2780  141.9430 O   0  0  0  0  0  0  0  0  0  0  0  0
  193.8800  175.4370  141.0410 C   0  0  0  0  0  2  0  0  0  0  0  0
  195.1510  175.9260  143.4280 C   0  0  2  0  0  3  0  0  0  0  0  0
  195.8510  176.5080  142.2040 C   0  0  0  0  0  2  0  0  0  0  0  0
  195.3490  175.8460  140.9200 C   0  0  0  0  0  2  0  0  0  0  0  0
  193.6130  175.9660  143.2640 C   0  0  2  0  0  3  0  0  0  0  0  0
  195.5260  176.6460  144.5610 O   0  0  0  0  0  1  0  0  0  0  0  0
  195.2610  173.5220  138.7540 F   0  0  0  0  0  0  0  0  0  0  0  0
  194.3480  172.4930  138.9300 C   0  0  0  0  0  0  0  0  0  0  0  0
  193.0830  173.0570  138.9700 F   0  0  0  0  0  0  0  0  0  0  0  0
  194.4410  171.5020  137.7440 C   0  0  1  0  0  3  0  0  0  0  0  0
  193.5270  170.4540  137.9060 O   0  0  0  0  0  1  0  0  0  0  0  0
  194.3200  172.1270  136.3290 C   0  0  2  0  0  0  0  0  0  0  0  0
  194.1330  171.1080  135.3900 O   0  0  0  0  0  1  0  0  0  0  0  0
  196.7260  172.2470  136.4350 F   0  0  0  0  0  0  0  0  0  0  0  0
  195.5970  172.8880  135.9560 C   0  0  0  0  0  2  0  0  0  0  0  0
  193.1090  173.0860  136.2640 C   0  0  2  0  0  3  0  0  0  0  0  0
  191.9220  172.4850  135.5010 C   0  0  2  0  0  3  0  0  0  0  0  0
  191.4820  173.3470  134.5130 F   0  0  0  0  0  0  0  0  0  0  0  0
  190.8770  172.2130  136.3840 O   0  0  0  0  0  1  0  0  0  0  0  0
  193.4700  174.3180  135.6990 O   0  0  0  0  0  0  0  0  0  0  0  0
  193.8790  175.7220  137.4520 O   0  0  0  0  0  1  0  0  0  0  0  0
  192.9160  175.2890  136.5400 C   0  0  1  0  0  3  0  0  0  0  0  0
  193.2370  177.5700  135.5730 O   0  0  0  0  0  1  0  0  0  0  0  0
  192.4360  176.4460  135.7330 C   0  0  0  0  0  0  0  0  0  0  0  0
  191.2940  176.4100  135.2060 O   0  0  0  0  0  0  0  0  0  0  0  0
  192.6010  175.8850  146.0530 C   0  0  0  0  0  2  0  0  0  0  0  0
  190.3650  175.1290  146.8820 C   0  0  0  0  0  3  0  0  0  0  0  0
  188.3420  176.3630  146.3510 C   0  0  0  0  0  0  0  0  0  0  0  0
  190.4980  177.1560  145.5630 C   0  0  0  0  0  3  0  0  0  0  0  0
  189.1120  177.3090  145.6570 C   0  0  0  0  0  3  0  0  0  0  0  0
  188.9790  175.2820  146.9770 C   0  0  0  0  0  3  0  0  0  0  0  0
  191.1260  176.0640  146.1740 C   0  0  0  0  0  0  0  0  0  0  0  0
  186.8620  176.5540  146.4900 C   0  0  0  0  0  3  0  0  0  0  0  0
  186.5610  177.6240  147.5280 C   0  0  0  0  0  2  0  0  0  0  0  0
  186.4620  177.9570  146.0580 C   0  0  0  0  0  2  0  0  0  0  0  0
  1  7  1  0  0  0  0
  2 10  1  0  0  0  0
  3 11  2  0  0  0  0
  6 19  1  0  0  0  0
  6  8  1  1  0  0  0
  9  2  1  0  0  0  0
 11 10  1  0  0  0  0
 11  4  1  0  0  0  0
 12  5  1  0  0  0  0
 13 28  1  6  0  0  0
 13  9  1  0  0  0  0
 13 18  1  0  0  0  0
 14  8  1  6  0  0  0
 14  5  1  0  0  0  0
 14  1  1  0  0  0  0
 15  4  1  1  0  0  0
 15 16  1  0  0  0  0
 16  7  1  0  0  0  0
 16 46  1  1  0  0  0
 17 13  1  0  0  0  0
 18 17  1  6  0  0  0
 18  6  1  0  0  0  0
 19 12  1  0  0  0  0
 21 20  1  0  0  0  0
 22 26  1  1  0  0  0
 23 22  1  0  0  0  0
 24 21  1  0  0  0  0
 24 23  1  0  0  0  0
 25 20  1  6  0  0  0
 25 22  1  0  0  0  0
 25 15  1  0  0  0  0
 27 28  1  0  0  0  0
 28 29  1  0  0  0  0
 30 31  1  1  0  0  0
 30 28  1  0  0  0  0
 32 33  1  6  0  0  0
 32 30  1  0  0  0  0
 35 32  1  0  0  0  0
 35 34  1  0  0  0  0
 36 40  1  6  0  0  0
 36 32  1  0  0  0  0
 37 38  1  6  0  0  0
 37 36  1  0  0  0  0
 37 39  1  0  0  0  0
 40 42  1  0  0  0  0
 42 41  1  1  0  0  0
 43 44  1  0  0  0  0
 44 42  1  0  0  0  0
 45 44  2  0  0  0  0
 46 52  1  0  0  0  0
 47 51  1  0  0  0  0
 48 53  1  0  0  0  0
 48 51  2  0  0  0  0
 49 50  2  0  0  0  0
 49 52  1  0  0  0  0
 50 48  1  0  0  0  0
 52 47  2  0  0  0  0
 53 54  1  0  0  0  0
 55 53  1  0  0  0  0
 55 54  1  0  0  0  0
M  END
>  <MODEL>
3

>  <REMARK>
 VINA RESULT:      -7.2      3.946      7.527
  Name = 
  13 active torsions:
  status: ('A' for Active; 'I' for Inactive)
    1  A    between atoms: C_1  and  C_53
    2  A    between atoms: C_6  and  C_14
    3  A    between atoms: C_6  and  C_20
    4  A    between atoms: C_6  and  C_53
    5  A    between atoms: C_8  and  C_20
    6  A    between atoms: C_8  and  C_43
    7  A    between atoms: C_10  and  C_32
    8  A    between atoms: C_11  and  C_29
    9  A    between atoms: C_11  and  O_38
   10  A    between atoms: C_26  and  C_45
   11  A    between atoms: C_33  and  C_49
   12  A    between atoms: C_33  and  C_52
   13  A    between atoms: O_38  and  C_53
                            x       y       z     vdW  Elec       q    Type
                         _______ _______ _______ _____ _____    ______ ____

>  <TORSDO>
F 13

$$$$
=
 OpenBabel11052419443D

 55 60  0  0  1  0  0  0  0  0999 V2000
  193.2210  170.4630  140.0720 C   0  0  0  0  0  2  0  0  0  0  0  0
  191.2320  172.4690  144.5340 C   0  0  0  0  0  2  0  0  0  0  0  0
  193.9290  172.6270  145.6290 C   0  0  0  0  0  2  0  0  0  0  0  0
  194.9740  172.0590  143.5270 C   0  0  0  0  0  2  0  0  0  0  0  0
  191.6570  171.6990  138.5050 C   0  0  0  0  0  2  0  0  0  0  0  0
  190.6420  173.2880  140.6310 C   0  0  1  0  0  3  0  0  0  0  0  0
  194.4910  171.2750  139.8590 C   0  0  0  0  0  2  0  0  0  0  0  0
  191.9380  172.5140  140.8610 C   0  0  0  0  0  2  0  0  0  0  0  0
  190.1580  172.8400  143.5180 C   0  0  0  0  0  2  0  0  0  0  0  0
  192.4220  171.7880  143.8700 C   0  0  0  0  0  2  0  0  0  0  0  0
  193.7460  172.3360  144.3410 C   0  0  0  0  0  0  0  0  0  0  0  0
  190.3900  172.5560  138.4960 C   0  0  0  0  0  2  0  0  0  0  0  0
  190.3230  174.2750  142.9890 C   0  0  2  0  0  0  0  0  0  0  0  0
  191.9450  171.2930  139.9460 C   0  0  2  0  0  3  0  0  0  0  0  0
  194.7880  172.4710  142.0710 C   0  0  2  0  0  3  0  0  0  0  0  0
  195.2750  171.3320  141.1650 C   0  0  2  0  0  3  0  0  0  0  0  0
  189.2880  174.5830  142.0840 O   0  0  0  0  0  0  0  0  0  0  0  0
  190.5830  174.5140  141.5330 C   0  0  2  0  0  3  0  0  0  0  0  0
  190.5760  173.7060  139.2860 O   0  0  0  0  0  0  0  0  0  0  0  0
  196.7330  173.9700  142.2860 O   0  0  0  0  0  0  0  0  0  0  0  0
  196.6530  174.2350  143.6680 C   0  0  0  0  0  2  0  0  0  0  0  0
  194.4930  175.0230  142.1650 C   0  0  2  0  0  3  0  0  0  0  0  0
  195.2890  176.1680  142.7810 C   0  0  0  0  0  2  0  0  0  0  0  0
  196.1760  175.6650  143.9220 C   0  0  0  0  0  2  0  0  0  0  0  0
  195.4180  173.8490  141.7660 C   0  0  2  0  0  3  0  0  0  0  0  0
  193.8070  175.4890  141.0440 O   0  0  0  0  0  1  0  0  0  0  0  0
  190.8190  176.6060  143.2540 F   0  0  0  0  0  0  0  0  0  0  0  0
  190.5240  175.4550  143.9710 C   0  0  0  0  0  0  0  0  0  0  0  0
  191.5990  175.1910  144.8030 F   0  0  0  0  0  0  0  0  0  0  0  0
  189.2490  175.6810  144.8190 C   0  0  1  0  0  3  0  0  0  0  0  0
  189.2010  174.7750  145.8860 O   0  0  0  0  0  1  0  0  0  0  0  0
  189.0150  177.1320  145.3170 C   0  0  2  0  0  0  0  0  0  0  0  0
  190.1370  177.9100  145.0150 O   0  0  0  0  0  1  0  0  0  0  0  0
  189.7250  177.9980  147.4530 F   0  0  0  0  0  0  0  0  0  0  0  0
  188.8100  177.1630  146.8350 C   0  0  0  0  0  2  0  0  0  0  0  0
  187.7830  177.7510  144.6160 C   0  0  2  0  0  3  0  0  0  0  0  0
  186.5870  177.9140  145.5610 C   0  0  2  0  0  3  0  0  0  0  0  0
  185.7290  176.8340  145.4640 F   0  0  0  0  0  0  0  0  0  0  0  0
  185.8990  179.0880  145.2580 O   0  0  0  0  0  1  0  0  0  0  0  0
  187.4100  176.9960  143.4930 O   0  0  0  0  0  0  0  0  0  0  0  0
  188.3030  177.6280  141.4900 O   0  0  0  0  0  1  0  0  0  0  0  0
  187.3230  177.9140  142.4410 C   0  0  1  0  0  3  0  0  0  0  0  0
  185.7670  178.3470  140.5340 O   0  0  0  0  0  0  0  0  0  0  0  0
  185.9760  177.8350  141.8090 C   0  0  0  0  0  0  0  0  0  0  0  0
  185.0190  177.3160  142.4410 O   0  0  0  0  0  1  0  0  0  0  0  0
  196.7840  171.3520  140.9270 C   0  0  0  0  0  2  0  0  0  0  0  0
  197.4230  172.7340  138.9410 C   0  0  0  0  0  3  0  0  0  0  0  0
  197.6120  171.7480  136.7300 C   0  0  0  0  0  0  0  0  0  0  0  0
  197.0330  170.3630  138.6400 C   0  0  0  0  0  3  0  0  0  0  0  0
  197.2980  170.4920  137.2730 C   0  0  0  0  0  3  0  0  0  0  0  0
  197.6880  172.8640  137.5750 C   0  0  0  0  0  3  0  0  0  0  0  0
  197.0930  171.4840  139.4750 C   0  0  0  0  0  0  0  0  0  0  0  0
  197.9410  171.8770  135.2730 C   0  0  0  0  0  3  0  0  0  0  0  0
  196.7600  172.4600  134.5130 C   0  0  0  0  0  2  0  0  0  0  0  0
  197.9410  173.3390  134.8550 C   0  0  0  0  0  2  0  0  0  0  0  0
  4 11  1  0  0  0  0
  6  8  1  6  0  0  0
  6 18  1  0  0  0  0
  7  1  1  0  0  0  0
  7 16  1  0  0  0  0
  9  2  1  0  0  0  0
 10 11  1  0  0  0  0
 10  2  1  0  0  0  0
 11  3  2  0  0  0  0
 12  5  1  0  0  0  0
 12 19  1  0  0  0  0
 13  9  1  0  0  0  0
 13 28  1  1  0  0  0
 14  5  1  6  0  0  0
 14  1  1  0  0  0  0
 14  8  1  0  0  0  0
 15  4  1  1  0  0  0
 16 46  1  6  0  0  0
 16 15  1  0  0  0  0
 17 13  1  0  0  0  0
 18 17  1  6  0  0  0
 18 13  1  0  0  0  0
 19  6  1  0  0  0  0
 20 21  1  0  0  0  0
 21 24  1  0  0  0  0
 22 26  1  6  0  0  0
 22 23  1  0  0  0  0
 23 24  1  0  0  0  0
 25 15  1  0  0  0  0
 25 22  1  0  0  0  0
 25 20  1  1  0  0  0
 27 28  1  0  0  0  0
 28 29  1  0  0  0  0
 28 30  1  0  0  0  0
 30 32  1  0  0  0  0
 30 31  1  1  0  0  0
 32 33  1  6  0  0  0
 32 35  1  0  0  0  0
 35 34  1  0  0  0  0
 36 40  1  6  0  0  0
 36 32  1  0  0  0  0
 36 37  1  0  0  0  0
 37 39  1  6  0  0  0
 38 37  1  0  0  0  0
 42 41  1  6  0  0  0
 42 40  1  0  0  0  0
 43 44  2  0  0  0  0
 44 42  1  0  0  0  0
 44 45  1  0  0  0  0
 47 52  1  0  0  0  0
 48 50  2  0  0  0  0
 48 51  1  0  0  0  0
 49 52  2  0  0  0  0
 50 49  1  0  0  0  0
 51 47  2  0  0  0  0
 52 46  1  0  0  0  0
 53 48  1  0  0  0  0
 54 55  1  0  0  0  0
 54 53  1  0  0  0  0
 55 53  1  0  0  0  0
M  END
>  <MODEL>
4

>  <REMARK>
 VINA RESULT:      -7.1      3.337      9.923
  Name = 
  13 active torsions:
  status: ('A' for Active; 'I' for Inactive)
    1  A    between atoms: C_1  and  C_53
    2  A    between atoms: C_6  and  C_14
    3  A    between atoms: C_6  and  C_20
    4  A    between atoms: C_6  and  C_53
    5  A    between atoms: C_8  and  C_20
    6  A    between atoms: C_8  and  C_43
    7  A    between atoms: C_10  and  C_32
    8  A    between atoms: C_11  and  C_29
    9  A    between atoms: C_11  and  O_38
   10  A    between atoms: C_26  and  C_45
   11  A    between atoms: C_33  and  C_49
   12  A    between atoms: C_33  and  C_52
   13  A    between atoms: O_38  and  C_53
                            x       y       z     vdW  Elec       q    Type
                         _______ _______ _______ _____ _____    ______ ____

>  <TORSDO>
F 13

$$$$
=
 OpenBabel11052419443D

 55 60  0  0  1  0  0  0  0  0999 V2000
  190.3700  175.0680  145.4590 C   0  0  0  0  0  2  0  0  0  0  0  0
  192.8630  170.5880  144.1930 C   0  0  0  0  0  2  0  0  0  0  0  0
  190.8860  170.1140  142.1040 C   0  0  0  0  0  2  0  0  0  0  0  0
  189.8820  172.2960  142.3550 C   0  0  0  0  0  2  0  0  0  0  0  0
  192.4670  176.4190  145.9150 C   0  0  0  0  0  2  0  0  0  0  0  0
  194.1260  174.3530  144.8880 C   0  0  1  0  0  3  0  0  0  0  0  0
  189.9810  175.6470  144.1060 C   0  0  0  0  0  2  0  0  0  0  0  0
  192.6310  174.3010  144.5800 C   0  0  0  0  0  2  0  0  0  0  0  0
  193.9810  171.3950  144.8430 C   0  0  0  0  0  2  0  0  0  0  0  0
  191.5740  171.3930  144.0940 C   0  0  0  0  0  2  0  0  0  0  0  0
  190.9200  171.2860  142.7380 C   0  0  0  0  0  0  0  0  0  0  0  0
  193.9790  176.2730  146.0920 C   0  0  0  0  0  2  0  0  0  0  0  0
  194.8510  172.1290  143.8080 C   0  0  2  0  0  0  0  0  0  0  0  0
  191.8790  175.0300  145.6900 C   0  0  2  0  0  3  0  0  0  0  0  0
  190.3980  173.7210  142.5140 C   0  0  2  0  0  3  0  0  0  0  0  0
  189.3440  174.5540  143.2570 C   0  0  2  0  0  3  0  0  0  0  0  0
  195.8900  172.8290  144.4530 O   0  0  0  0  0  0  0  0  0  0  0  0
  194.9210  173.6260  143.8110 C   0  0  2  0  0  3  0  0  0  0  0  0
  194.5500  175.6960  144.9410 O   0  0  0  0  0  0  0  0  0  0  0  0
  190.0690  173.9080  140.0790 O   0  0  0  0  0  0  0  0  0  0  0  0
  190.4570  172.6060  139.7050 C   0  0  0  0  0  2  0  0  0  0  0  0
  192.3840  174.1310  140.9350 C   0  0  2  0  0  3  0  0  0  0  0  0
  192.6730  173.7980  139.4750 C   0  0  0  0  0  2  0  0  0  0  0  0
  191.8150  172.6240  139.0010 C   0  0  0  0  0  2  0  0  0  0  0  0
  190.8690  174.3290  141.1740 C   0  0  2  0  0  3  0  0  0  0  0  0
  193.0760  175.2880  141.2900 O   0  0  0  0  0  1  0  0  0  0  0  0
  194.4180  171.2270  141.6290 F   0  0  0  0  0  0  0  0  0  0  0  0
  195.4160  171.3740  142.5800 C   0  0  0  0  0  0  0  0  0  0  0  0
  195.8250  170.1070  142.9600 F   0  0  0  0  0  0  0  0  0  0  0  0
  196.6100  172.1470  141.9690 C   0  0  1  0  0  3  0  0  0  0  0  0
  197.7930  171.8510  142.6580 O   0  0  0  0  0  1  0  0  0  0  0  0
  196.8080  171.9870  140.4380 C   0  0  2  0  0  0  0  0  0  0  0  0
  195.6330  171.4850  139.8710 O   0  0  0  0  0  1  0  0  0  0  0  0
  197.5670  169.6990  140.4090 F   0  0  0  0  0  0  0  0  0  0  0  0
  197.9410  171.0020  140.1330 C   0  0  0  0  0  2  0  0  0  0  0  0
  197.1230  173.3550  139.7890 C   0  0  2  0  0  3  0  0  0  0  0  0
  196.7730  174.5360  140.7040 C   0  0  2  0  0  3  0  0  0  0  0  0
  195.9290  175.4240  140.0630 F   0  0  0  0  0  0  0  0  0  0  0  0
  197.9380  175.1950  141.0950 O   0  0  0  0  0  1  0  0  0  0  0  0
  196.4680  173.4920  138.5560 O   0  0  0  0  0  0  0  0  0  0  0  0
  197.8440  172.6250  136.9540 O   0  0  0  0  0  1  0  0  0  0  0  0
  197.4750  173.7880  137.6320 C   0  0  1  0  0  3  0  0  0  0  0  0
  197.6160  176.0350  136.5470 O   0  0  0  0  0  1  0  0  0  0  0  0
  196.9860  174.8020  136.6550 C   0  0  0  0  0  0  0  0  0  0  0  0
  195.9860  174.5430  135.9340 O   0  0  0  0  0  0  0  0  0  0  0  0
  188.2520  175.1030  142.3390 C   0  0  0  0  0  2  0  0  0  0  0  0
  187.0190  176.0530  144.2980 C   0  0  0  0  0  3  0  0  0  0  0  0
  186.0630  178.2840  144.2230 C   0  0  0  0  0  0  0  0  0  0  0  0
  187.2920  177.4170  142.3150 C   0  0  0  0  0  3  0  0  0  0  0  0
  186.5760  178.4500  142.9270 C   0  0  0  0  0  3  0  0  0  0  0  0
  186.3030  177.0860  144.9100 C   0  0  0  0  0  3  0  0  0  0  0  0
  187.5120  176.2160  143.0000 C   0  0  0  0  0  0  0  0  0  0  0  0
  185.3370  179.4100  144.8940 C   0  0  0  0  0  3  0  0  0  0  0  0
  183.8690  179.4060  144.4940 C   0  0  0  0  0  2  0  0  0  0  0  0
  184.2800  178.8700  145.8460 C   0  0  0  0  0  2  0  0  0  0  0  0
  1 14  1  0  0  0  0
  2  9  1  0  0  0  0
  3 11  2  0  0  0  0
  4 11  1  0  0  0  0
  5 12  1  0  0  0  0
  6  8  1  6  0  0  0
  6 19  1  0  0  0  0
  7  1  1  0  0  0  0
 10  2  1  0  0  0  0
 11 10  1  0  0  0  0
 13 28  1  6  0  0  0
 13 18  1  0  0  0  0
 13 17  1  0  0  0  0
 13  9  1  0  0  0  0
 14  8  1  6  0  0  0
 14  5  1  0  0  0  0
 15  4  1  6  0  0  0
 15 16  1  0  0  0  0
 16 46  1  6  0  0  0
 16  7  1  0  0  0  0
 18 17  1  1  0  0  0
 18  6  1  0  0  0  0
 19 12  1  0  0  0  0
 21 20  1  0  0  0  0
 22 25  1  0  0  0  0
 22 26  1  6  0  0  0
 23 22  1  0  0  0  0
 24 23  1  0  0  0  0
 24 21  1  0  0  0  0
 25 20  1  6  0  0  0
 25 15  1  0  0  0  0
 27 28  1  0  0  0  0
 28 29  1  0  0  0  0
 30 28  1  0  0  0  0
 30 31  1  1  0  0  0
 32 33  1  6  0  0  0
 32 30  1  0  0  0  0
 35 34  1  0  0  0  0
 35 32  1  0  0  0  0
 36 40  1  6  0  0  0
 36 32  1  0  0  0  0
 36 37  1  0  0  0  0
 37 38  1  6  0  0  0
 37 39  1  0  0  0  0
 42 41  1  6  0  0  0
 42 40  1  0  0  0  0
 43 44  1  0  0  0  0
 44 42  1  0  0  0  0
 45 44  2  0  0  0  0
 46 52  1  0  0  0  0
 47 51  1  0  0  0  0
 48 53  1  0  0  0  0
 48 51  2  0  0  0  0
 49 50  2  0  0  0  0
 49 52  1  0  0  0  0
 50 48  1  0  0  0  0
 52 47  2  0  0  0  0
 53 55  1  0  0  0  0
 54 53  1  0  0  0  0
 54 55  1  0  0  0  0
M  END
>  <MODEL>
5

>  <REMARK>
 VINA RESULT:      -6.8      2.823      5.544
  Name = 
  13 active torsions:
  status: ('A' for Active; 'I' for Inactive)
    1  A    between atoms: C_1  and  C_53
    2  A    between atoms: C_6  and  C_14
    3  A    between atoms: C_6  and  C_20
    4  A    between atoms: C_6  and  C_53
    5  A    between atoms: C_8  and  C_20
    6  A    between atoms: C_8  and  C_43
    7  A    between atoms: C_10  and  C_32
    8  A    between atoms: C_11  and  C_29
    9  A    between atoms: C_11  and  O_38
   10  A    between atoms: C_26  and  C_45
   11  A    between atoms: C_33  and  C_49
   12  A    between atoms: C_33  and  C_52
   13  A    between atoms: O_38  and  C_53
                            x       y       z     vdW  Elec       q    Type
                         _______ _______ _______ _____ _____    ______ ____

>  <TORSDO>
F 13

$$$$
=
 OpenBabel11052419443D

 55 60  0  0  1  0  0  0  0  0999 V2000
  197.5780  171.6700  142.6190 C   0  0  0  0  0  2  0  0  0  0  0  0
  195.0310  176.1650  143.7160 C   0  0  0  0  0  2  0  0  0  0  0  0
  194.2710  176.3840  140.9110 C   0  0  0  0  0  2  0  0  0  0  0  0
  195.0900  174.1780  140.3640 C   0  0  0  0  0  2  0  0  0  0  0  0
  196.9180  170.4640  144.7480 C   0  0  0  0  0  2  0  0  0  0  0  0
  195.0990  172.5290  145.4580 C   0  0  1  0  0  3  0  0  0  0  0  0
  196.6510  170.9750  141.6310 C   0  0  0  0  0  2  0  0  0  0  0  0
  195.6170  172.4830  144.0220 C   0  0  0  0  0  2  0  0  0  0  0  0
  195.0290  175.4640  145.0710 C   0  0  0  0  0  2  0  0  0  0  0  0
  195.6520  175.2910  142.6340 C   0  0  0  0  0  2  0  0  0  0  0  0
  194.8360  175.2650  141.3650 C   0  0  0  0  0  0  0  0  0  0  0  0
  196.2710  170.6980  146.1150 C   0  0  0  0  0  2  0  0  0  0  0  0
  193.7190  174.7010  145.3320 C   0  0  2  0  0  0  0  0  0  0  0  0
  196.9830  171.8010  144.0190 C   0  0  2  0  0  3  0  0  0  0  0  0
  195.0080  172.7960  141.0020 C   0  0  2  0  0  3  0  0  0  0  0  0
  196.2220  171.9690  140.5590 C   0  0  2  0  0  3  0  0  0  0  0  0
  193.7500  174.1030  146.6080 O   0  0  0  0  0  0  0  0  0  0  0  0
  193.7400  173.2140  145.5150 C   0  0  2  0  0  3  0  0  0  0  0  0
  194.9720  171.2170  145.9550 O   0  0  0  0  0  0  0  0  0  0  0  0
  193.1020  172.4340  139.4820 O   0  0  0  0  0  0  0  0  0  0  0  0
  192.5290  173.7210  139.5380 C   0  0  0  0  0  2  0  0  0  0  0  0
  192.6470  172.3500  141.9160 C   0  0  2  0  0  3  0  0  0  0  0  0
  191.2360  172.5930  141.3920 C   0  0  0  0  0  2  0  0  0  0  0  0
  191.2270  173.7020  140.3390 C   0  0  0  0  0  2  0  0  0  0  0  0
  193.6420  172.1160  140.7550 C   0  0  2  0  0  3  0  0  0  0  0  0
  192.6400  171.2430  142.7650 O   0  0  0  0  0  1  0  0  0  0  0  0
  191.8120  174.9750  143.9050 F   0  0  0  0  0  0  0  0  0  0  0  0
  192.3500  175.3910  145.1140 C   0  0  0  0  0  0  0  0  0  0  0  0
  192.5260  176.7630  145.0450 F   0  0  0  0  0  0  0  0  0  0  0  0
  191.3770  175.0450  146.2660 C   0  0  1  0  0  3  0  0  0  0  0  0
  191.4360  176.0200  147.2700 O   0  0  0  0  0  1  0  0  0  0  0  0
  189.9070  174.7690  145.8520 C   0  0  2  0  0  0  0  0  0  0  0  0
  189.2250  174.1910  146.9270 O   0  0  0  0  0  1  0  0  0  0  0  0
  190.4280  172.5780  144.9890 F   0  0  0  0  0  0  0  0  0  0  0  0
  189.8470  173.7930  144.6720 C   0  0  0  0  0  2  0  0  0  0  0  0
  189.1970  176.0880  145.4690 C   0  0  2  0  0  3  0  0  0  0  0  0
  187.9800  176.3810  146.3550 C   0  0  2  0  0  3  0  0  0  0  0  0
  186.8040  176.2360  145.6420 F   0  0  0  0  0  0  0  0  0  0  0  0
  188.0630  177.6760  146.8650 O   0  0  0  0  0  1  0  0  0  0  0  0
  188.8200  176.0850  144.1180 O   0  0  0  0  0  0  0  0  0  0  0  0
  190.2960  177.3400  142.9120 O   0  0  0  0  0  1  0  0  0  0  0  0
  189.1110  177.3700  143.6480 C   0  0  1  0  0  3  0  0  0  0  0  0
  188.1270  177.8450  141.4010 O   0  0  0  0  0  0  0  0  0  0  0  0
  188.0000  177.8590  142.7840 C   0  0  0  0  0  0  0  0  0  0  0  0
  186.9460  178.3000  143.3120 O   0  0  0  0  0  1  0  0  0  0  0  0
  196.0330  171.2990  139.1990 C   0  0  0  0  0  2  0  0  0  0  0  0
  195.5400  172.3730  136.9930 C   0  0  0  0  0  3  0  0  0  0  0  0
  197.0980  173.9360  135.9780 C   0  0  0  0  0  0  0  0  0  0  0  0
  197.5930  172.9490  138.1420 C   0  0  0  0  0  3  0  0  0  0  0  0
  197.9410  173.8040  137.0920 C   0  0  0  0  0  3  0  0  0  0  0  0
  195.8870  173.2280  135.9430 C   0  0  0  0  0  3  0  0  0  0  0  0
  196.3930  172.2310  138.0920 C   0  0  0  0  0  0  0  0  0  0  0  0
  197.4500  174.8880  134.8750 C   0  0  0  0  0  3  0  0  0  0  0  0
  196.2510  175.7530  134.5200 C   0  0  0  0  0  2  0  0  0  0  0  0
  197.3640  176.3250  135.3650 C   0  0  0  0  0  2  0  0  0  0  0  0
  2  9  1  0  0  0  0
  3 11  2  0  0  0  0
  4 11  1  0  0  0  0
  5 12  1  0  0  0  0
  6  8  1  6  0  0  0
  6 18  1  0  0  0  0
  6 19  1  0  0  0  0
  7  1  1  0  0  0  0
  9 13  1  0  0  0  0
 10  2  1  0  0  0  0
 11 10  1  0  0  0  0
 13 28  1  6  0  0  0
 13 18  1  0  0  0  0
 13 17  1  0  0  0  0
 14  1  1  6  0  0  0
 14  8  1  0  0  0  0
 14  5  1  0  0  0  0
 15  4  1  6  0  0  0
 16 46  1  6  0  0  0
 16 15  1  0  0  0  0
 16  7  1  0  0  0  0
 18 17  1  1  0  0  0
 19 12  1  0  0  0  0
 20 21  1  0  0  0  0
 21 24  1  0  0  0  0
 22 26  1  1  0  0  0
 23 22  1  0  0  0  0
 24 23  1  0  0  0  0
 25 20  1  6  0  0  0
 25 15  1  0  0  0  0
 25 22  1  0  0  0  0
 27 28  1  0  0  0  0
 28 30  1  0  0  0  0
 29 28  1  0  0  0  0
 30 31  1  1  0  0  0
 32 30  1  0  0  0  0
 32 33  1  1  0  0  0
 35 34  1  0  0  0  0
 35 32  1  0  0  0  0
 36 40  1  6  0  0  0
 36 32  1  0  0  0  0
 36 37  1  0  0  0  0
 37 38  1  6  0  0  0
 37 39  1  0  0  0  0
 42 41  1  6  0  0  0
 42 40  1  0  0  0  0
 43 44  2  0  0  0  0
 44 45  1  0  0  0  0
 44 42  1  0  0  0  0
 47 52  1  0  0  0  0
 48 50  2  0  0  0  0
 50 49  1  0  0  0  0
 51 48  1  0  0  0  0
 51 47  2  0  0  0  0
 52 49  2  0  0  0  0
 52 46  1  0  0  0  0
 53 55  1  0  0  0  0
 53 48  1  0  0  0  0
 54 53  1  0  0  0  0
 54 55  1  0  0  0  0
M  END
>  <MODEL>
6

>  <REMARK>
 VINA RESULT:      -6.8      3.335      9.405
  Name = 
  13 active torsions:
  status: ('A' for Active; 'I' for Inactive)
    1  A    between atoms: C_1  and  C_53
    2  A    between atoms: C_6  and  C_14
    3  A    between atoms: C_6  and  C_20
    4  A    between atoms: C_6  and  C_53
    5  A    between atoms: C_8  and  C_20
    6  A    between atoms: C_8  and  C_43
    7  A    between atoms: C_10  and  C_32
    8  A    between atoms: C_11  and  C_29
    9  A    between atoms: C_11  and  O_38
   10  A    between atoms: C_26  and  C_45
   11  A    between atoms: C_33  and  C_49
   12  A    between atoms: C_33  and  C_52
   13  A    between atoms: O_38  and  C_53
                            x       y       z     vdW  Elec       q    Type
                         _______ _______ _______ _____ _____    ______ ____

>  <TORSDO>
F 13

$$$$
=
 OpenBabel11052419443D

 55 60  0  0  1  0  0  0  0  0999 V2000
  193.0600  175.0270  146.2080 C   0  0  0  0  0  2  0  0  0  0  0  0
  192.0360  170.3920  143.8920 C   0  0  0  0  0  2  0  0  0  0  0  0
  189.6630  171.5630  142.6680 C   0  0  0  0  0  2  0  0  0  0  0  0
  190.2210  173.8030  143.3790 C   0  0  0  0  0  2  0  0  0  0  0  0
  195.5760  174.9190  145.9160 C   0  0  0  0  0  2  0  0  0  0  0  0
  195.3720  172.6280  144.2480 C   0  0  1  0  0  3  0  0  0  0  0  0
  192.7190  176.0420  145.1260 C   0  0  0  0  0  2  0  0  0  0  0  0
  194.1090  173.4430  144.5150 C   0  0  0  0  0  2  0  0  0  0  0  0
  193.5410  170.3040  144.1170 C   0  0  0  0  0  2  0  0  0  0  0  0
  191.4830  171.7460  144.3180 C   0  0  0  0  0  2  0  0  0  0  0  0
  190.5420  172.3410  143.3000 C   0  0  0  0  0  0  0  0  0  0  0  0
  196.7020  173.9670  145.5110 C   0  0  0  0  0  2  0  0  0  0  0  0
  194.3450  170.7090  142.8700 C   0  0  2  0  0  0  0  0  0  0  0  0
  194.2610  174.1500  145.8590 C   0  0  2  0  0  3  0  0  0  0  0  0
  191.4850  174.6550  143.4030 C   0  0  2  0  0  3  0  0  0  0  0  0
  191.3620  175.6970  144.5240 C   0  0  2  0  0  3  0  0  0  0  0  0
  195.7260  170.5750  143.1150 O   0  0  0  0  0  0  0  0  0  0  0  0
  195.2640  171.8910  142.9180 C   0  0  2  0  0  3  0  0  0  0  0  0
  196.4870  173.4890  144.2040 O   0  0  0  0  0  0  0  0  0  0  0  0
  191.0950  174.6160  140.9700 O   0  0  0  0  0  0  0  0  0  0  0  0
  191.6980  173.3780  140.6720 C   0  0  0  0  0  2  0  0  0  0  0  0
  193.3470  175.2930  141.7500 C   0  0  2  0  0  3  0  0  0  0  0  0
  193.6700  174.9160  140.3080 C   0  0  0  0  0  2  0  0  0  0  0  0
  193.0220  173.5820  139.9340 C   0  0  0  0  0  2  0  0  0  0  0  0
  191.8240  175.2420  142.0150 C   0  0  2  0  0  3  0  0  0  0  0  0
  193.8310  176.5740  142.0120 O   0  0  0  0  0  1  0  0  0  0  0  0
  193.0840  170.9250  140.8410 F   0  0  0  0  0  0  0  0  0  0  0  0
  194.0020  170.1070  141.4850 C   0  0  0  0  0  0  0  0  0  0  0  0
  193.4140  168.8640  141.6500 F   0  0  0  0  0  0  0  0  0  0  0  0
  195.2780  169.9710  140.6200 C   0  0  1  0  0  3  0  0  0  0  0  0
  195.9920  168.8200  140.9730 O   0  0  0  0  0  1  0  0  0  0  0  0
  195.0650  170.0390  139.0840 C   0  0  2  0  0  0  0  0  0  0  0  0
  193.7170  170.2920  138.8150 O   0  0  0  0  0  1  0  0  0  0  0  0
  196.6210  168.8150  137.7070 F   0  0  0  0  0  0  0  0  0  0  0  0
  195.4410  168.7090  138.4210 C   0  0  0  0  0  2  0  0  0  0  0  0
  195.9120  171.1790  138.4720 C   0  0  2  0  0  3  0  0  0  0  0  0
  196.5500  172.0770  139.5390 C   0  0  2  0  0  3  0  0  0  0  0  0
  196.3280  173.4130  139.2580 F   0  0  0  0  0  0  0  0  0  0  0  0
  197.9220  171.8340  139.6060 O   0  0  0  0  0  1  0  0  0  0  0  0
  195.1490  171.9540  137.5850 O   0  0  0  0  0  0  0  0  0  0  0  0
  194.8790  171.2040  135.4460 O   0  0  0  0  0  1  0  0  0  0  0  0
  195.7670  171.8060  136.3380 C   0  0  1  0  0  3  0  0  0  0  0  0
  195.4810  173.7230  134.7600 O   0  0  0  0  0  0  0  0  0  0  0  0
  196.1750  173.1400  135.8130 C   0  0  0  0  0  0  0  0  0  0  0  0
  197.1640  173.7340  136.3170 O   0  0  0  0  0  1  0  0  0  0  0  0
  190.5860  176.9450  144.1060 C   0  0  0  0  0  2  0  0  0  0  0  0
  188.1640  177.5690  144.0480 C   0  0  0  0  0  3  0  0  0  0  0  0
  186.6830  177.0370  145.8990 C   0  0  0  0  0  0  0  0  0  0  0  0
  189.0190  176.3750  145.9750 C   0  0  0  0  0  3  0  0  0  0  0  0
  187.7500  176.4090  146.5600 C   0  0  0  0  0  3  0  0  0  0  0  0
  186.8940  177.6020  144.6320 C   0  0  0  0  0  3  0  0  0  0  0  0
  189.2270  176.9570  144.7190 C   0  0  0  0  0  0  0  0  0  0  0  0
  185.3130  177.0320  146.5070 C   0  0  0  0  0  3  0  0  0  0  0  0
  185.0960  178.2900  147.3340 C   0  0  0  0  0  2  0  0  0  0  0  0
  184.4820  178.1810  145.9580 C   0  0  0  0  0  2  0  0  0  0  0  0
  2  9  1  0  0  0  0
  2 10  1  0  0  0  0
  3 11  2  0  0  0  0
  6  8  1  6  0  0  0
  7  1  1  0  0  0  0
 11  4  1  0  0  0  0
 11 10  1  0  0  0  0
 12  5  1  0  0  0  0
 13 28  1  6  0  0  0
 13 18  1  0  0  0  0
 13 17  1  0  0  0  0
 13  9  1  0  0  0  0
 14  8  1  6  0  0  0
 14  5  1  0  0  0  0
 14  1  1  0  0  0  0
 15  4  1  6  0  0  0
 15 16  1  0  0  0  0
 16 46  1  6  0  0  0
 16  7  1  0  0  0  0
 18 17  1  1  0  0  0
 18  6  1  0  0  0  0
 19  6  1  0  0  0  0
 19 12  1  0  0  0  0
 21 20  1  0  0  0  0
 22 26  1  6  0  0  0
 22 25  1  0  0  0  0
 23 22  1  0  0  0  0
 24 23  1  0  0  0  0
 24 21  1  0  0  0  0
 25 20  1  6  0  0  0
 25 15  1  0  0  0  0
 27 28  1  0  0  0  0
 28 29  1  0  0  0  0
 30 31  1  6  0  0  0
 30 28  1  0  0  0  0
 32 33  1  6  0  0  0
 32 30  1  0  0  0  0
 34 35  1  0  0  0  0
 35 32  1  0  0  0  0
 36 40  1  6  0  0  0
 36 32  1  0  0  0  0
 36 37  1  0  0  0  0
 37 38  1  6  0  0  0
 37 39  1  0  0  0  0
 42 41  1  6  0  0  0
 42 40  1  0  0  0  0
 43 44  2  0  0  0  0
 44 45  1  0  0  0  0
 44 42  1  0  0  0  0
 46 52  1  0  0  0  0
 47 51  2  0  0  0  0
 47 52  1  0  0  0  0
 48 53  1  0  0  0  0
 48 50  2  0  0  0  0
 49 50  1  0  0  0  0
 51 48  1  0  0  0  0
 52 49  2  0  0  0  0
 53 54  1  0  0  0  0
 55 53  1  0  0  0  0
 55 54  1  0  0  0  0
M  END
>  <MODEL>
7

>  <REMARK>
 VINA RESULT:      -6.7      3.359      6.366
  Name = 
  13 active torsions:
  status: ('A' for Active; 'I' for Inactive)
    1  A    between atoms: C_1  and  C_53
    2  A    between atoms: C_6  and  C_14
    3  A    between atoms: C_6  and  C_20
    4  A    between atoms: C_6  and  C_53
    5  A    between atoms: C_8  and  C_20
    6  A    between atoms: C_8  and  C_43
    7  A    between atoms: C_10  and  C_32
    8  A    between atoms: C_11  and  C_29
    9  A    between atoms: C_11  and  O_38
   10  A    between atoms: C_26  and  C_45
   11  A    between atoms: C_33  and  C_49
   12  A    between atoms: C_33  and  C_52
   13  A    between atoms: O_38  and  C_53
                            x       y       z     vdW  Elec       q    Type
                         _______ _______ _______ _____ _____    ______ ____

>  <TORSDO>
F 13

$$$$
=
 OpenBabel11052419443D

 55 60  0  0  1  0  0  0  0  0999 V2000
  190.2070  174.7360  145.4190 C   0  0  0  0  0  2  0  0  0  0  0  0
  193.0650  170.5140  144.0430 C   0  0  0  0  0  2  0  0  0  0  0  0
  191.1010  169.8930  141.9810 C   0  0  0  0  0  2  0  0  0  0  0  0
  189.9110  171.9730  142.2820 C   0  0  0  0  0  2  0  0  0  0  0  0
  192.1820  176.2620  145.8600 C   0  0  0  0  0  2  0  0  0  0  0  0
  194.0000  174.3670  144.7740 C   0  0  1  0  0  3  0  0  0  0  0  0
  189.7430  175.2960  144.0810 C   0  0  0  0  0  2  0  0  0  0  0  0
  192.5110  174.1860  144.4900 C   0  0  0  0  0  2  0  0  0  0  0  0
  194.1190  171.4090  144.6860 C   0  0  0  0  0  2  0  0  0  0  0  0
  191.7080  171.2020  143.9780 C   0  0  0  0  0  2  0  0  0  0  0  0
  191.0420  171.0550  142.6320 C   0  0  0  0  0  0  0  0  0  0  0  0
  193.7040  176.2500  146.0090 C   0  0  0  0  0  2  0  0  0  0  0  0
  194.9000  172.2310  143.6480 C   0  0  2  0  0  0  0  0  0  0  0  0
  191.7170  174.8290  145.6230 C   0  0  2  0  0  3  0  0  0  0  0  0
  190.3000  173.4370  142.4540 C   0  0  2  0  0  3  0  0  0  0  0  0
  189.1900  174.1620  143.2270 C   0  0  2  0  0  3  0  0  0  0  0  0
  195.8840  173.0130  144.2860 O   0  0  0  0  0  0  0  0  0  0  0  0
  194.8370  173.7280  143.6730 C   0  0  2  0  0  3  0  0  0  0  0  0
  194.3030  175.7420  144.8400 O   0  0  0  0  0  0  0  0  0  0  0  0
  189.6430  174.0510  140.1590 O   0  0  0  0  0  0  0  0  0  0  0  0
  189.6080  172.7630  139.5890 C   0  0  0  0  0  2  0  0  0  0  0  0
  192.0410  173.5820  140.5680 C   0  0  2  0  0  3  0  0  0  0  0  0
  191.9920  173.4060  139.0540 C   0  0  0  0  0  2  0  0  0  0  0  0
  190.7900  172.5560  138.6410 C   0  0  0  0  0  2  0  0  0  0  0  0
  190.6910  174.1020  141.1150 C   0  0  2  0  0  3  0  0  0  0  0  0
  193.0610  174.4740  140.8960 O   0  0  0  0  0  1  0  0  0  0  0  0
  194.5560  171.4910  141.3930 F   0  0  0  0  0  0  0  0  0  0  0  0
  195.5090  171.5470  142.4000 C   0  0  0  0  0  0  0  0  0  0  0  0
  195.8680  170.2460  142.7110 F   0  0  0  0  0  0  0  0  0  0  0  0
  196.7490  172.3270  141.9020 C   0  0  1  0  0  3  0  0  0  0  0  0
  197.9280  171.7090  142.3380 O   0  0  0  0  0  1  0  0  0  0  0  0
  196.8060  172.6080  140.3770 C   0  0  2  0  0  0  0  0  0  0  0  0
  195.6020  172.2080  139.7890 O   0  0  0  0  0  1  0  0  0  0  0  0
  197.4800  170.6400  139.1570 F   0  0  0  0  0  0  0  0  0  0  0  0
  197.9410  171.8180  139.7170 C   0  0  0  0  0  2  0  0  0  0  0  0
  197.0050  174.1180  140.1130 C   0  0  2  0  0  3  0  0  0  0  0  0
  197.5430  174.4050  138.7060 C   0  0  2  0  0  3  0  0  0  0  0  0
  197.5240  175.7620  138.4370 F   0  0  0  0  0  0  0  0  0  0  0  0
  196.7780  173.7290  137.7570 O   0  0  0  0  0  1  0  0  0  0  0  0
  197.8470  174.6920  141.0770 O   0  0  0  0  0  0  0  0  0  0  0  0
  195.8540  175.7960  141.2140 O   0  0  0  0  0  1  0  0  0  0  0  0
  197.2260  175.8900  141.4470 C   0  0  1  0  0  3  0  0  0  0  0  0
  197.9400  175.1590  143.7270 O   0  0  0  0  0  1  0  0  0  0  0  0
  197.4700  176.1640  142.8920 C   0  0  0  0  0  0  0  0  0  0  0  0
  197.2340  177.3090  143.3590 O   0  0  0  0  0  0  0  0  0  0  0  0
  188.0370  174.6240  142.3360 C   0  0  0  0  0  2  0  0  0  0  0  0
  187.8250  177.1170  142.3670 C   0  0  0  0  0  3  0  0  0  0  0  0
  186.3160  178.2330  143.9090 C   0  0  0  0  0  0  0  0  0  0  0  0
  186.4600  175.8080  143.8800 C   0  0  0  0  0  3  0  0  0  0  0  0
  185.9030  176.9820  144.3940 C   0  0  0  0  0  3  0  0  0  0  0  0
  187.2680  178.2910  142.8800 C   0  0  0  0  0  3  0  0  0  0  0  0
  187.4230  175.8740  142.8670 C   0  0  0  0  0  0  0  0  0  0  0  0
  185.6840  179.4880  144.4280 C   0  0  0  0  0  3  0  0  0  0  0  0
  184.2370  179.5820  143.9680 C   0  0  0  0  0  2  0  0  0  0  0  0
  184.5480  179.1570  145.3840 C   0  0  0  0  0  2  0  0  0  0  0  0
  1 14  1  0  0  0  0
  2  9  1  0  0  0  0
  3 11  2  0  0  0  0
  4 11  1  0  0  0  0
  5 12  1  0  0  0  0
  6  8  1  6  0  0  0
  6 19  1  0  0  0  0
  7  1  1  0  0  0  0
 10  2  1  0  0  0  0
 11 10  1  0  0  0  0
 13 28  1  6  0  0  0
 13 18  1  0  0  0  0
 13 17  1  0  0  0  0
 13  9  1  0  0  0  0
 14  8  1  6  0  0  0
 14  5  1  0  0  0  0
 15  4  1  6  0  0  0
 15 16  1  0  0  0  0
 16 46  1  6  0  0  0
 16  7  1  0  0  0  0
 18 17  1  1  0  0  0
 18  6  1  0  0  0  0
 19 12  1  0  0  0  0
 21 20  1  0  0  0  0
 22 26  1  6  0  0  0
 22 25  1  0  0  0  0
 23 22  1  0  0  0  0
 24 23  1  0  0  0  0
 24 21  1  0  0  0  0
 25 20  1  6  0  0  0
 25 15  1  0  0  0  0
 27 28  1  0  0  0  0
 28 29  1  0  0  0  0
 30 31  1  6  0  0  0
 30 28  1  0  0  0  0
 32 33  1  6  0  0  0
 32 30  1  0  0  0  0
 34 35  1  0  0  0  0
 35 32  1  0  0  0  0
 36 32  1  0  0  0  0
 36 40  1  1  0  0  0
 37 39  1  6  0  0  0
 37 36  1  0  0  0  0
 38 37  1  0  0  0  0
 40 42  1  0  0  0  0
 42 41  1  1  0  0  0
 42 44  1  0  0  0  0
 44 45  2  0  0  0  0
 44 43  1  0  0  0  0
 46 52  1  0  0  0  0
 47 52  2  0  0  0  0
 47 51  1  0  0  0  0
 48 50  1  0  0  0  0
 48 53  1  0  0  0  0
 49 50  2  0  0  0  0
 51 48  2  0  0  0  0
 52 49  1  0  0  0  0
 53 55  1  0  0  0  0
 54 53  1  0  0  0  0
 54 55  1  0  0  0  0
M  END
>  <MODEL>
8

>  <REMARK>
 VINA RESULT:      -6.7      2.827      5.505
  Name = 
  13 active torsions:
  status: ('A' for Active; 'I' for Inactive)
    1  A    between atoms: C_1  and  C_53
    2  A    between atoms: C_6  and  C_14
    3  A    between atoms: C_6  and  C_20
    4  A    between atoms: C_6  and  C_53
    5  A    between atoms: C_8  and  C_20
    6  A    between atoms: C_8  and  C_43
    7  A    between atoms: C_10  and  C_32
    8  A    between atoms: C_11  and  C_29
    9  A    between atoms: C_11  and  O_38
   10  A    between atoms: C_26  and  C_45
   11  A    between atoms: C_33  and  C_49
   12  A    between atoms: C_33  and  C_52
   13  A    between atoms: O_38  and  C_53
                            x       y       z     vdW  Elec       q    Type
                         _______ _______ _______ _____ _____    ______ ____

>  <TORSDO>
F 13

$$$$
=
 OpenBabel11052419443D

 55 60  0  0  1  0  0  0  0  0999 V2000
  192.7240  170.9760  140.0910 C   0  0  0  0  0  2  0  0  0  0  0  0
  188.4030  172.4670  142.7360 C   0  0  0  0  0  2  0  0  0  0  0  0
  190.0470  172.9370  145.0960 C   0  0  0  0  0  2  0  0  0  0  0  0
  192.1190  172.6220  143.8970 C   0  0  0  0  0  2  0  0  0  0  0  0
  192.0780  172.0620  137.8930 C   0  0  0  0  0  2  0  0  0  0  0  0
  189.8740  173.3910  139.0970 C   0  0  1  0  0  3  0  0  0  0  0  0
  193.7820  171.9620  140.5640 C   0  0  0  0  0  2  0  0  0  0  0  0
  190.9430  172.7910  140.0080 C   0  0  0  0  0  2  0  0  0  0  0  0
  187.9950  172.7380  141.2920 C   0  0  0  0  0  2  0  0  0  0  0  0
  189.8460  171.9890  142.8310 C   0  0  0  0  0  2  0  0  0  0  0  0
  190.6220  172.6880  143.9200 C   0  0  0  0  0  0  0  0  0  0  0  0
  190.9050  172.7380  137.1820 C   0  0  0  0  0  2  0  0  0  0  0  0
  188.2110  174.2060  140.8890 C   0  0  2  0  0  0  0  0  0  0  0  0
  191.6080  171.6280  139.2770 C   0  0  2  0  0  3  0  0  0  0  0  0
  192.6820  173.0760  142.5550 C   0  0  2  0  0  3  0  0  0  0  0  0
  193.7320  172.0610  142.0840 C   0  0  2  0  0  3  0  0  0  0  0  0
  187.7860  174.4150  139.5610 O   0  0  0  0  0  0  0  0  0  0  0  0
  189.1700  174.5510  139.7900 C   0  0  2  0  0  3  0  0  0  0  0  0
  190.4750  173.8620  137.9130 O   0  0  0  0  0  0  0  0  0  0  0  0
  192.7640  175.2770  141.4470 O   0  0  0  0  0  0  0  0  0  0  0  0
  193.6050  174.9470  140.3660 C   0  0  0  0  0  2  0  0  0  0  0  0
  194.6910  174.6480  142.8720 C   0  0  2  0  0  3  0  0  0  0  0  0
  195.3330  175.7440  142.0280 C   0  0  0  0  0  2  0  0  0  0  0  0
  194.9920  175.5640  140.5480 C   0  0  0  0  0  2  0  0  0  0  0  0
  193.1740  174.5410  142.5900 C   0  0  2  0  0  3  0  0  0  0  0  0
  194.9030  174.9220  144.2230 O   0  0  0  0  0  1  0  0  0  0  0  0
  186.6470  174.8850  142.5760 F   0  0  0  0  0  0  0  0  0  0  0  0
  187.6890  175.3530  141.7880 C   0  0  0  0  0  0  0  0  0  0  0  0
  187.1910  176.3750  140.9980 F   0  0  0  0  0  0  0  0  0  0  0  0
  188.8230  175.8960  142.6910 C   0  0  1  0  0  3  0  0  0  0  0  0
  190.0720  175.6880  142.0910 O   0  0  0  0  0  1  0  0  0  0  0  0
  188.6730  177.3690  143.1560 C   0  0  2  0  0  0  0  0  0  0  0  0
  188.7080  178.2110  142.0400 O   0  0  0  0  0  1  0  0  0  0  0  0
  190.4440  176.6560  144.6280 F   0  0  0  0  0  0  0  0  0  0  0  0
  189.8210  177.7680  144.0880 C   0  0  0  0  0  2  0  0  0  0  0  0
  187.3220  177.5700  143.8820 C   0  0  2  0  0  3  0  0  0  0  0  0
  186.4570  178.6540  143.2280 C   0  0  2  0  0  3  0  0  0  0  0  0
  186.3800  179.7770  144.0310 F   0  0  0  0  0  0  0  0  0  0  0  0
  185.1750  178.1600  142.9890 O   0  0  0  0  0  1  0  0  0  0  0  0
  187.5180  177.8650  145.2400 O   0  0  0  0  0  0  0  0  0  0  0  0
  187.5390  176.0090  146.5680 O   0  0  0  0  0  1  0  0  0  0  0  0
  186.7240  176.9490  145.9370 C   0  0  1  0  0  3  0  0  0  0  0  0
  184.8700  178.5050  146.5600 O   0  0  0  0  0  0  0  0  0  0  0  0
  185.9020  177.6620  146.9550 C   0  0  0  0  0  0  0  0  0  0  0  0
  186.1540  177.5110  148.1790 O   0  0  0  0  0  1  0  0  0  0  0  0
  195.1150  172.2990  142.6890 C   0  0  0  0  0  2  0  0  0  0  0  0
  194.8400  169.9860  143.6040 C   0  0  0  0  0  3  0  0  0  0  0  0
  196.0200  169.2760  145.6050 C   0  0  0  0  0  0  0  0  0  0  0  0
  196.3480  171.5160  144.7240 C   0  0  0  0  0  3  0  0  0  0  0  0
  196.6400  170.5340  145.6750 C   0  0  0  0  0  3  0  0  0  0  0  0
  195.1320  169.0040  144.5550 C   0  0  0  0  0  3  0  0  0  0  0  0
  195.4470  171.2430  143.6890 C   0  0  0  0  0  0  0  0  0  0  0  0
  196.3690  168.2090  146.5990 C   0  0  0  0  0  3  0  0  0  0  0  0
  197.8680  168.1970  146.8570 C   0  0  0  0  0  2  0  0  0  0  0  0
  196.9370  168.8270  147.8670 C   0  0  0  0  0  2  0  0  0  0  0  0
  1  7  1  0  0  0  0
  2 10  1  0  0  0  0
  4 11  1  0  0  0  0
  6 18  1  0  0  0  0
  6  8  1  1  0  0  0
  7 16  1  0  0  0  0
  9  2  1  0  0  0  0
 10 11  1  0  0  0  0
 11  3  2  0  0  0  0
 12  5  1  0  0  0  0
 12 19  1  0  0  0  0
 13  9  1  0  0  0  0
 13 28  1  1  0  0  0
 14  5  1  6  0  0  0
 14  8  1  0  0  0  0
 14  1  1  0  0  0  0
 15 25  1  0  0  0  0
 15  4  1  1  0  0  0
 16 15  1  0  0  0  0
 16 46  1  6  0  0  0
 17 13  1  0  0  0  0
 18 17  1  6  0  0  0
 18 13  1  0  0  0  0
 19  6  1  0  0  0  0
 21 24  1  0  0  0  0
 21 20  1  0  0  0  0
 22 26  1  1  0  0  0
 23 22  1  0  0  0  0
 24 23  1  0  0  0  0
 25 20  1  6  0  0  0
 25 22  1  0  0  0  0
 28 27  1  0  0  0  0
 28 30  1  0  0  0  0
 29 28  1  0  0  0  0
 30 31  1  6  0  0  0
 30 32  1  0  0  0  0
 32 33  1  6  0  0  0
 32 36  1  0  0  0  0
 32 35  1  0  0  0  0
 35 34  1  0  0  0  0
 36 40  1  1  0  0  0
 37 39  1  1  0  0  0
 37 36  1  0  0  0  0
 37 38  1  0  0  0  0
 40 42  1  0  0  0  0
 42 41  1  1  0  0  0
 42 44  1  0  0  0  0
 43 44  2  0  0  0  0
 44 45  1  0  0  0  0
 46 52  1  0  0  0  0
 47 52  2  0  0  0  0
 47 51  1  0  0  0  0
 48 50  1  0  0  0  0
 48 53  1  0  0  0  0
 49 50  2  0  0  0  0
 51 48  2  0  0  0  0
 52 49  1  0  0  0  0
 53 54  1  0  0  0  0
 53 55  1  0  0  0  0
 54 55  1  0  0  0  0
M  END
>  <MODEL>
9

>  <REMARK>
 VINA RESULT:      -6.6      3.432     10.200
  Name = 
  13 active torsions:
  status: ('A' for Active; 'I' for Inactive)
    1  A    between atoms: C_1  and  C_53
    2  A    between atoms: C_6  and  C_14
    3  A    between atoms: C_6  and  C_20
    4  A    between atoms: C_6  and  C_53
    5  A    between atoms: C_8  and  C_20
    6  A    between atoms: C_8  and  C_43
    7  A    between atoms: C_10  and  C_32
    8  A    between atoms: C_11  and  C_29
    9  A    between atoms: C_11  and  O_38
   10  A    between atoms: C_26  and  C_45
   11  A    between atoms: C_33  and  C_49
   12  A    between atoms: C_33  and  C_52
   13  A    between atoms: O_38  and  C_53
                            x       y       z     vdW  Elec       q    Type
                         _______ _______ _______ _____ _____    ______ ____

>  <TORSDO>
F 13

$$$$
