=
 OpenBabel11052419263D

 55 59  0  0  1  0  0  0  0  0999 V2000
  192.1510  172.8660  139.5270 C   0  0  0  0  0  2  0  0  0  0  0  0
  189.7960  176.9190  142.9350 C   0  0  0  0  0  2  0  0  0  0  0  0
  192.1720  178.3210  143.7940 O   0  0  0  0  0  1  0  0  0  0  0  0
  195.6370  175.9130  142.6470 C   0  0  0  0  0  2  0  0  0  0  0  0
  196.6830  175.6780  143.7400 C   0  0  0  0  0  2  0  0  0  0  0  0
  194.9910  173.4510  142.7320 C   0  0  1  0  0  3  0  0  0  0  0  0
  196.0420  173.2320  143.8250 C   0  0  0  0  0  2  0  0  0  0  0  0
  192.7610  176.6740  142.1700 C   0  0  0  0  0  2  0  0  0  0  0  0
  197.1980  174.2370  143.6970 C   0  0  0  0  0  2  0  0  0  0  0  0
  190.4150  171.9900  141.1050 C   0  0  0  0  0  3  0  0  0  0  0  0
  194.4910  174.9110  142.8320 C   0  0  2  0  0  3  0  0  0  0  0  0
  188.8540  174.2920  140.7320 C   0  0  0  0  0  0  0  0  0  0  0  0
  193.2680  173.3590  140.4380 C   0  0  1  0  0  3  0  0  0  0  0  0
  190.0560  174.1360  140.0370 C   0  0  0  0  0  3  0  0  0  0  0  0
  194.6460  172.7010  140.2410 C   0  0  2  0  0  3  0  0  0  0  0  0
  188.4510  176.3330  143.3160 C   0  0  0  0  0  2  0  0  0  0  0  0
  195.6190  173.1430  141.3600 C   0  0  0  0  0  2  0  0  0  0  0  0
  190.8730  176.3050  143.8150 C   0  0  0  0  0  2  0  0  0  0  0  0
  192.2380  176.9460  143.5760 C   0  0  2  0  0  3  0  0  0  0  0  0
  189.2120  172.1360  141.7960 C   0  0  0  0  0  3  0  0  0  0  0  0
  187.3770  176.8500  142.3750 C   0  0  1  0  0  3  0  0  0  0  0  0
  190.8340  172.9880  140.2160 C   0  0  0  0  0  0  0  0  0  0  0  0
  193.2180  175.2280  142.0170 C   0  0  2  0  0  3  0  0  0  0  0  0
  193.3320  174.8710  140.5460 C   0  0  0  0  0  2  0  0  0  0  0  0
  186.9850  175.7900  141.3540 C   0  0  0  0  0  2  0  0  0  0  0  0
  188.1000  175.4560  140.5340 O   0  0  0  0  0  0  0  0  0  0  0  0
  188.4330  173.2850  141.6110 C   0  0  0  0  0  3  0  0  0  0  0  0
  196.6780  172.7590  138.8470 C   0  0  0  0  0  2  0  0  0  0  0  0
  196.3440  170.4040  137.9990 C   0  0  2  0  0  3  0  0  0  0  0  0
  194.5800  172.2010  137.8420 C   0  0  0  0  0  2  0  0  0  0  0  0
  194.8430  170.6990  137.9970 C   0  0  0  0  0  2  0  0  0  0  0  0
  197.0440  171.2800  139.0360 C   0  0  0  0  0  2  0  0  0  0  0  0
  195.2230  172.9910  138.9030 N   0  0  1  0  0  0  0  0  0  0  0  0
  196.9680  170.5710  136.6140 C   0  0  0  0  0  3  0  0  0  0  0  0
  195.9940  170.4510  135.6260 O   0  0  0  0  0  1  0  0  0  0  0  0
  197.9410  169.5910  136.4190 O   0  0  0  0  0  1  0  0  0  0  0  0
  186.2560  177.2210  143.1230 O   0  0  0  0  0  0  0  0  0  0  0  0
  186.6000  178.3860  143.7310 N   0  0  0  0  0  0  0  0  0  0  0  0
  185.4680  180.3990  144.0710 F   0  0  0  0  0  0  0  0  0  0  0  0
  185.8050  179.4470  143.1230 C   0  0  0  0  0  3  0  0  0  0  0  0
  184.6410  178.9170  142.5900 F   0  0  0  0  0  0  0  0  0  0  0  0
  186.1780  178.2830  145.1250 C   0  0  0  0  0  2  0  0  0  0  0  0
  187.3490  177.8540  146.0000 C   0  0  0  0  0  2  0  0  0  0  0  0
  187.9020  175.6320  147.1250 N   0  0  0  0  0  2  0  0  0  0  0  0
  186.9940  176.7210  146.9210 C   0  0  0  0  0  0  0  0  0  0  0  0
  185.9100  176.7430  147.5670 O   0  0  0  0  0  0  0  0  0  0  0  0
  189.2440  175.5890  146.5650 C   0  0  2  0  0  3  0  0  0  0  0  0
  189.7870  174.1720  146.6580 C   0  0  0  0  0  2  0  0  0  0  0  0
  189.9730  173.5600  145.2800 C   0  0  0  0  0  3  0  0  0  0  0  0
  191.4480  173.4440  144.9890 C   0  0  0  0  0  1  0  0  0  0  0  0
  189.3480  172.1760  145.2310 C   0  0  0  0  0  1  0  0  0  0  0  0
  190.1690  176.6040  147.2540 C   0  0  0  0  0  2  0  0  0  0  0  0
  191.4830  176.0150  147.6580 C   0  0  0  0  0  0  0  0  0  0  0  0
  192.5110  176.2090  146.9480 O   0  0  0  0  0  0  0  0  0  0  0  0
  191.5790  175.2650  148.8630 N   0  0  0  0  0  1  0  0  0  0  0  0
  1 22  1  0  0  0  0
  2 16  1  0  0  0  0
  2 18  1  0  0  0  0
  4  5  1  0  0  0  0
  6 17  1  6  0  0  0
  6 11  1  0  0  0  0
  6  7  1  0  0  0  0
  8 19  1  0  0  0  0
  9  5  1  0  0  0  0
  9  7  1  0  0  0  0
 10 20  1  0  0  0  0
 11  4  1  6  0  0  0
 12 27  1  0  0  0  0
 13  1  1  6  0  0  0
 13 24  1  0  0  0  0
 14 22  1  0  0  0  0
 14 12  2  0  0  0  0
 15 13  1  0  0  0  0
 15 17  1  1  0  0  0
 19  3  1  6  0  0  0
 19 18  1  0  0  0  0
 21 37  1  1  0  0  0
 21 16  1  0  0  0  0
 22 10  2  0  0  0  0
 23 24  1  6  0  0  0
 23  8  1  0  0  0  0
 23 11  1  0  0  0  0
 25 21  1  0  0  0  0
 26 12  1  0  0  0  0
 26 25  1  0  0  0  0
 27 20  2  0  0  0  0
 28 33  1  0  0  0  0
 28 32  1  0  0  0  0
 29 34  1  6  0  0  0
 29 32  1  0  0  0  0
 30 31  1  0  0  0  0
 31 29  1  0  0  0  0
 33 30  1  6  0  0  0
 33 15  1  0  0  0  0
 35 34  1  0  0  0  0
 36 34  1  0  0  0  0
 37 38  1  0  0  0  0
 38 42  1  0  0  0  0
 40 38  1  0  0  0  0
 40 39  1  0  0  0  0
 41 40  1  0  0  0  0
 42 43  1  0  0  0  0
 43 45  1  0  0  0  0
 45 44  1  0  0  0  0
 45 46  2  0  0  0  0
 47 48  1  1  0  0  0
 47 44  1  0  0  0  0
 47 52  1  0  0  0  0
 49 48  1  0  0  0  0
 50 49  1  0  0  0  0
 51 49  1  0  0  0  0
 52 53  1  0  0  0  0
 53 55  1  0  0  0  0
 54 53  2  0  0  0  0
M  END
>  <MODEL>
1

>  <REMARK>
 VINA RESULT:      -6.1      0.000      0.000
  Name = 
  13 active torsions:
  status: ('A' for Active; 'I' for Inactive)
    1  A    between atoms: C_1  and  C_53
    2  A    between atoms: N_3  and  C_38
    3  A    between atoms: C_6  and  C_12
    4  A    between atoms: C_6  and  C_46
    5  A    between atoms: O_8  and  N_22
    6  A    between atoms: O_8  and  C_43
    7  A    between atoms: C_10  and  C_32
    8  A    between atoms: C_11  and  C_29
    9  A    between atoms: C_20  and  N_22
   10  A    between atoms: N_22  and  C_46
   11  A    between atoms: C_29  and  C_38
   12  A    between atoms: C_33  and  N_52
   13  A    between atoms: C_38  and  C_53
                            x       y       z     vdW  Elec       q    Type
                         _______ _______ _______ _____ _____    ______ ____

>  <TORSDO>
F 13

$$$$
=
 OpenBabel11052419263D

 55 59  0  0  1  0  0  0  0  0999 V2000
  188.8560  174.0110  142.2160 C   0  0  0  0  0  2  0  0  0  0  0  0
  193.3650  170.4270  141.5780 C   0  0  0  0  0  2  0  0  0  0  0  0
  194.7460  170.8770  144.0760 O   0  0  0  0  0  1  0  0  0  0  0  0
  192.9670  174.3920  145.9750 C   0  0  0  0  0  2  0  0  0  0  0  0
  193.9500  175.4510  146.4790 C   0  0  0  0  0  2  0  0  0  0  0  0
  192.1700  175.9910  144.1600 C   0  0  1  0  0  3  0  0  0  0  0  0
  193.1580  177.0410  144.6770 C   0  0  0  0  0  2  0  0  0  0  0  0
  192.6760  172.0650  144.0830 C   0  0  0  0  0  2  0  0  0  0  0  0
  193.4300  176.8600  146.1790 C   0  0  0  0  0  2  0  0  0  0  0  0
  189.9660  174.1560  139.9770 C   0  0  0  0  0  3  0  0  0  0  0  0
  192.7500  174.5920  144.4690 C   0  0  2  0  0  3  0  0  0  0  0  0
  190.3550  171.3780  139.9420 C   0  0  0  0  0  0  0  0  0  0  0  0
  189.9220  174.4890  143.1930 C   0  0  1  0  0  3  0  0  0  0  0  0
  189.6950  171.9830  141.0140 C   0  0  0  0  0  3  0  0  0  0  0  0
  189.5620  175.7210  144.0450 C   0  0  2  0  0  3  0  0  0  0  0  0
  193.4690  170.2420  140.0770 C   0  0  0  0  0  2  0  0  0  0  0  0
  190.8000  176.2140  144.8290 C   0  0  0  0  0  2  0  0  0  0  0  0
  194.0180  171.7450  141.9620 C   0  0  0  0  0  2  0  0  0  0  0  0
  194.0680  171.9370  143.4760 C   0  0  2  0  0  3  0  0  0  0  0  0
  190.6190  173.5570  138.8990 C   0  0  0  0  0  3  0  0  0  0  0  0
  192.7250  168.9850  139.6590 C   0  0  1  0  0  3  0  0  0  0  0  0
  189.4940  173.3670  141.0330 C   0  0  0  0  0  0  0  0  0  0  0  0
  192.0480  173.4150  143.7570 C   0  0  2  0  0  3  0  0  0  0  0  0
  190.5500  173.3650  143.9960 C   0  0  0  0  0  2  0  0  0  0  0  0
  191.3860  169.3260  139.0190 C   0  0  0  0  0  2  0  0  0  0  0  0
  190.5440  169.9890  139.9560 O   0  0  0  0  0  0  0  0  0  0  0  0
  190.8140  172.1710  138.8820 C   0  0  0  0  0  3  0  0  0  0  0  0
  188.6710  175.9710  146.3280 C   0  0  0  0  0  2  0  0  0  0  0  0
  187.4950  178.1400  145.7930 C   0  0  2  0  0  3  0  0  0  0  0  0
  187.1670  176.0180  144.4700 C   0  0  0  0  0  2  0  0  0  0  0  0
  187.1950  177.5490  144.4140 C   0  0  0  0  0  2  0  0  0  0  0  0
  188.7590  177.5040  146.3670 C   0  0  0  0  0  2  0  0  0  0  0  0
  188.4300  175.4550  144.9690 N   0  0  1  0  0  0  0  0  0  0  0  0
  186.3140  178.0010  146.7520 C   0  0  0  0  0  3  0  0  0  0  0  0
  185.2400  178.7720  146.3140 O   0  0  0  0  0  1  0  0  0  0  0  0
  186.6920  178.4260  148.0250 O   0  0  0  0  0  1  0  0  0  0  0  0
  193.5130  168.2700  138.7520 O   0  0  0  0  0  0  0  0  0  0  0  0
  194.6320  169.0210  138.5790 N   0  0  0  0  0  0  0  0  0  0  0  0
  196.1100  168.4700  140.3010 F   0  0  0  0  0  0  0  0  0  0  0  0
  195.7710  168.2040  138.9840 C   0  0  0  0  0  3  0  0  0  0  0  0
  196.8620  168.4850  138.1780 F   0  0  0  0  0  0  0  0  0  0  0  0
  194.7690  169.2630  137.1470 C   0  0  0  0  0  2  0  0  0  0  0  0
  194.8650  170.7590  136.8720 C   0  0  0  0  0  2  0  0  0  0  0  0
  193.3280  172.7610  136.5030 N   0  0  0  0  0  2  0  0  0  0  0  0
  193.5530  171.3490  136.4350 C   0  0  0  0  0  0  0  0  0  0  0  0
  192.6520  170.6080  135.9530 O   0  0  0  0  0  0  0  0  0  0  0  0
  194.3540  173.7210  136.8820 C   0  0  2  0  0  3  0  0  0  0  0  0
  193.7780  174.7110  137.8830 C   0  0  0  0  0  2  0  0  0  0  0  0
  194.6470  174.8070  139.1260 C   0  0  0  0  0  3  0  0  0  0  0  0
  193.7590  174.8300  140.3450 C   0  0  0  0  0  1  0  0  0  0  0  0
  195.5760  173.6080  139.2120 C   0  0  0  0  0  1  0  0  0  0  0  0
  194.9370  174.4280  135.6480 C   0  0  0  0  0  2  0  0  0  0  0  0
  196.4300  174.3630  135.5910 C   0  0  0  0  0  0  0  0  0  0  0  0
  197.0020  173.4250  134.9650 O   0  0  0  0  0  0  0  0  0  0  0  0
  197.2050  175.3820  136.2140 N   0  0  0  0  0  1  0  0  0  0  0  0
  2 18  1  0  0  0  0
  4  5  1  0  0  0  0
  6 11  1  0  0  0  0
  6  7  1  1  0  0  0
  6 17  1  0  0  0  0
  7  9  1  0  0  0  0
  9  5  1  0  0  0  0
 10 22  1  0  0  0  0
 11  4  1  1  0  0  0
 12 26  1  0  0  0  0
 12 14  1  0  0  0  0
 13  1  1  1  0  0  0
 13 24  1  0  0  0  0
 13 15  1  0  0  0  0
 14 22  2  0  0  0  0
 15 17  1  1  0  0  0
 15 33  1  0  0  0  0
 16  2  1  0  0  0  0
 18 19  1  0  0  0  0
 19  3  1  1  0  0  0
 19  8  1  0  0  0  0
 20 10  2  0  0  0  0
 21 37  1  6  0  0  0
 21 16  1  0  0  0  0
 22  1  1  0  0  0  0
 23 24  1  1  0  0  0
 23  8  1  0  0  0  0
 23 11  1  0  0  0  0
 25 21  1  0  0  0  0
 25 26  1  0  0  0  0
 27 20  1  0  0  0  0
 27 12  2  0  0  0  0
 28 32  1  0  0  0  0
 29 32  1  0  0  0  0
 29 34  1  1  0  0  0
 31 30  1  0  0  0  0
 31 29  1  0  0  0  0
 33 30  1  6  0  0  0
 33 28  1  0  0  0  0
 34 36  1  0  0  0  0
 35 34  1  0  0  0  0
 38 37  1  0  0  0  0
 38 40  1  0  0  0  0
 40 39  1  0  0  0  0
 41 40  1  0  0  0  0
 42 38  1  0  0  0  0
 43 42  1  0  0  0  0
 44 47  1  0  0  0  0
 45 44  1  0  0  0  0
 45 43  1  0  0  0  0
 46 45  2  0  0  0  0
 47 52  1  6  0  0  0
 47 48  1  0  0  0  0
 48 49  1  0  0  0  0
 49 51  1  0  0  0  0
 49 50  1  0  0  0  0
 53 52  1  0  0  0  0
 53 55  1  0  0  0  0
 54 53  2  0  0  0  0
M  END
>  <MODEL>
2

>  <REMARK>
 VINA RESULT:      -5.9      4.038     10.194
  Name = 
  13 active torsions:
  status: ('A' for Active; 'I' for Inactive)
    1  A    between atoms: C_1  and  C_53
    2  A    between atoms: N_3  and  C_38
    3  A    between atoms: C_6  and  C_12
    4  A    between atoms: C_6  and  C_46
    5  A    between atoms: O_8  and  N_22
    6  A    between atoms: O_8  and  C_43
    7  A    between atoms: C_10  and  C_32
    8  A    between atoms: C_11  and  C_29
    9  A    between atoms: C_20  and  N_22
   10  A    between atoms: N_22  and  C_46
   11  A    between atoms: C_29  and  C_38
   12  A    between atoms: C_33  and  N_52
   13  A    between atoms: C_38  and  C_53
                            x       y       z     vdW  Elec       q    Type
                         _______ _______ _______ _____ _____    ______ ____

>  <TORSDO>
F 13

$$$$
=
 OpenBabel11052419263D

 55 59  0  0  1  0  0  0  0  0999 V2000
  193.4390  172.2410  139.1390 C   0  0  0  0  0  2  0  0  0  0  0  0
  190.2620  175.7540  142.4780 C   0  0  0  0  0  2  0  0  0  0  0  0
  192.3540  177.1500  143.9030 O   0  0  0  0  0  1  0  0  0  0  0  0
  196.1160  175.0520  143.1520 C   0  0  0  0  0  2  0  0  0  0  0  0
  196.9660  174.7370  144.3850 C   0  0  0  0  0  2  0  0  0  0  0  0
  195.6270  172.5710  142.8520 C   0  0  1  0  0  3  0  0  0  0  0  0
  196.4820  172.2710  144.0870 C   0  0  0  0  0  2  0  0  0  0  0  0
  193.3250  175.7340  142.2450 C   0  0  0  0  0  2  0  0  0  0  0  0
  197.5740  173.3350  144.2810 C   0  0  0  0  0  2  0  0  0  0  0  0
  191.5140  171.1080  140.2700 C   0  0  0  0  0  3  0  0  0  0  0  0
  195.0230  173.9840  143.0160 C   0  0  2  0  0  3  0  0  0  0  0  0
  189.8960  173.3660  139.8710 C   0  0  0  0  0  0  0  0  0  0  0  0
  194.3440  172.6720  140.2860 C   0  0  1  0  0  3  0  0  0  0  0  0
  191.2090  173.3470  139.3930 C   0  0  0  0  0  3  0  0  0  0  0  0
  195.7760  172.1050  140.2730 C   0  0  2  0  0  3  0  0  0  0  0  0
  188.9120  175.0670  142.5430 C   0  0  0  0  0  2  0  0  0  0  0  0
  196.5050  172.4550  141.5910 C   0  0  0  0  0  2  0  0  0  0  0  0
  191.2060  175.0890  143.4680 C   0  0  0  0  0  2  0  0  0  0  0  0
  192.5470  175.8150  143.5530 C   0  0  2  0  0  3  0  0  0  0  0  0
  190.2010  171.1180  140.7420 C   0  0  0  0  0  3  0  0  0  0  0  0
  187.9890  175.6430  141.4840 C   0  0  1  0  0  3  0  0  0  0  0  0
  192.0170  172.2210  139.5860 C   0  0  0  0  0  0  0  0  0  0  0  0
  193.8960  174.3380  142.0220 C   0  0  2  0  0  3  0  0  0  0  0  0
  194.2890  174.1630  140.5670 C   0  0  0  0  0  2  0  0  0  0  0  0
  187.8530  174.6950  140.2990 C   0  0  0  0  0  2  0  0  0  0  0  0
  189.1140  174.5100  139.6650 O   0  0  0  0  0  0  0  0  0  0  0  0
  189.3940  172.2440  140.5440 C   0  0  0  0  0  3  0  0  0  0  0  0
  197.8520  171.8830  138.9650 C   0  0  0  0  0  2  0  0  0  0  0  0
  196.8560  170.1780  137.3920 C   0  0  2  0  0  3  0  0  0  0  0  0
  195.8110  172.4290  137.8440 C   0  0  0  0  0  2  0  0  0  0  0  0
  195.5460  170.9610  137.4950 C   0  0  0  0  0  2  0  0  0  0  0  0
  197.6870  170.3880  138.6560 C   0  0  0  0  0  2  0  0  0  0  0  0
  196.5580  172.5760  139.1010 N   0  0  1  0  0  0  0  0  0  0  0  0
  197.6480  170.5380  136.1360 C   0  0  0  0  0  3  0  0  0  0  0  0
  196.9120  171.4020  135.3290 O   0  0  0  0  0  1  0  0  0  0  0  0
  197.9390  169.3780  135.4170 O   0  0  0  0  0  1  0  0  0  0  0  0
  186.7320  175.8720  142.0510 O   0  0  0  0  0  0  0  0  0  0  0  0
  186.7360  177.1820  142.4140 N   0  0  0  0  0  0  0  0  0  0  0  0
  187.9160  179.0130  141.5740 F   0  0  0  0  0  0  0  0  0  0  0  0
  187.0810  177.9610  141.2310 C   0  0  0  0  0  3  0  0  0  0  0  0
  185.9320  178.4750  140.6530 F   0  0  0  0  0  0  0  0  0  0  0  0
  185.3650  177.5320  142.7700 C   0  0  0  0  0  2  0  0  0  0  0  0
  185.3450  178.8140  143.5930 C   0  0  0  0  0  2  0  0  0  0  0  0
  184.6430  178.2510  145.9790 N   0  0  0  0  0  2  0  0  0  0  0  0
  184.3180  178.7790  144.6890 C   0  0  0  0  0  0  0  0  0  0  0  0
  183.1690  179.2650  144.4990 O   0  0  0  0  0  0  0  0  0  0  0  0
  185.9810  177.8220  146.3590 C   0  0  2  0  0  3  0  0  0  0  0  0
  186.2500  176.4370  145.7910 C   0  0  0  0  0  2  0  0  0  0  0  0
  187.7390  176.1960  145.6050 C   0  0  0  0  0  3  0  0  0  0  0  0
  188.4170  177.5130  145.3250 C   0  0  0  0  0  1  0  0  0  0  0  0
  188.3340  175.5880  146.8630 C   0  0  0  0  0  1  0  0  0  0  0  0
  186.1680  177.8630  147.8830 C   0  0  0  0  0  2  0  0  0  0  0  0
  186.7320  179.1610  148.3660 C   0  0  0  0  0  0  0  0  0  0  0  0
  187.6430  179.1720  149.2430 O   0  0  0  0  0  0  0  0  0  0  0  0
  186.2630  180.3840  147.8100 N   0  0  0  0  0  1  0  0  0  0  0  0
  1 22  1  0  0  0  0
  2 16  1  0  0  0  0
  2 18  1  0  0  0  0
  4  5  1  0  0  0  0
  6 17  1  6  0  0  0
  6 11  1  0  0  0  0
  6  7  1  0  0  0  0
  7  9  1  0  0  0  0
  8 19  1  0  0  0  0
  9  5  1  0  0  0  0
 10 20  1  0  0  0  0
 11  4  1  6  0  0  0
 12 27  1  0  0  0  0
 13  1  1  6  0  0  0
 13 24  1  0  0  0  0
 14 22  1  0  0  0  0
 14 12  2  0  0  0  0
 15 13  1  0  0  0  0
 15 17  1  1  0  0  0
 18 19  1  0  0  0  0
 19  3  1  6  0  0  0
 21 37  1  1  0  0  0
 21 16  1  0  0  0  0
 22 10  2  0  0  0  0
 23 24  1  6  0  0  0
 23  8  1  0  0  0  0
 23 11  1  0  0  0  0
 25 21  1  0  0  0  0
 26 12  1  0  0  0  0
 26 25  1  0  0  0  0
 27 20  2  0  0  0  0
 28 33  1  0  0  0  0
 29 34  1  6  0  0  0
 29 31  1  0  0  0  0
 29 32  1  0  0  0  0
 31 30  1  0  0  0  0
 32 28  1  0  0  0  0
 33 30  1  6  0  0  0
 33 15  1  0  0  0  0
 35 34  1  0  0  0  0
 36 34  1  0  0  0  0
 37 38  1  0  0  0  0
 38 42  1  0  0  0  0
 40 39  1  0  0  0  0
 40 38  1  0  0  0  0
 41 40  1  0  0  0  0
 42 43  1  0  0  0  0
 43 45  1  0  0  0  0
 44 47  1  0  0  0  0
 45 44  1  0  0  0  0
 46 45  2  0  0  0  0
 47 48  1  1  0  0  0
 47 52  1  0  0  0  0
 49 48  1  0  0  0  0
 49 51  1  0  0  0  0
 50 49  1  0  0  0  0
 52 53  1  0  0  0  0
 53 54  2  0  0  0  0
 55 53  1  0  0  0  0
M  END
>  <MODEL>
3

>  <REMARK>
 VINA RESULT:      -5.1      2.017      2.713
  Name = 
  13 active torsions:
  status: ('A' for Active; 'I' for Inactive)
    1  A    between atoms: C_1  and  C_53
    2  A    between atoms: N_3  and  C_38
    3  A    between atoms: C_6  and  C_12
    4  A    between atoms: C_6  and  C_46
    5  A    between atoms: O_8  and  N_22
    6  A    between atoms: O_8  and  C_43
    7  A    between atoms: C_10  and  C_32
    8  A    between atoms: C_11  and  C_29
    9  A    between atoms: C_20  and  N_22
   10  A    between atoms: N_22  and  C_46
   11  A    between atoms: C_29  and  C_38
   12  A    between atoms: C_33  and  N_52
   13  A    between atoms: C_38  and  C_53
                            x       y       z     vdW  Elec       q    Type
                         _______ _______ _______ _____ _____    ______ ____

>  <TORSDO>
F 13

$$$$
=
 OpenBabel11052419263D

 55 59  0  0  1  0  0  0  0  0999 V2000
  193.1460  171.2580  138.6310 C   0  0  0  0  0  2  0  0  0  0  0  0
  190.0630  173.9610  142.7270 C   0  0  0  0  0  2  0  0  0  0  0  0
  191.9020  173.8060  144.9510 O   0  0  0  0  0  1  0  0  0  0  0  0
  195.0910  171.0190  143.8600 C   0  0  0  0  0  2  0  0  0  0  0  0
  195.4280  169.9460  144.8980 C   0  0  0  0  0  2  0  0  0  0  0  0
  194.1290  169.2330  142.3210 C   0  0  1  0  0  3  0  0  0  0  0  0
  194.4730  168.1700  143.3690 C   0  0  0  0  0  2  0  0  0  0  0  0
  192.9540  172.9550  142.9840 C   0  0  0  0  0  2  0  0  0  0  0  0
  195.6800  168.5970  144.2210 C   0  0  0  0  0  2  0  0  0  0  0  0
  190.7560  170.5240  138.7610 C   0  0  0  0  0  3  0  0  0  0  0  0
  193.8640  170.5660  143.0570 C   0  0  2  0  0  3  0  0  0  0  0  0
  189.9300  173.1580  139.2670 C   0  0  0  0  0  0  0  0  0  0  0  0
  193.7410  170.8280  139.9660 C   0  0  1  0  0  3  0  0  0  0  0  0
  191.2800  172.8730  139.0470 C   0  0  0  0  0  3  0  0  0  0  0  0
  194.9280  169.8500  139.8990 C   0  0  2  0  0  3  0  0  0  0  0  0
  188.6320  173.8360  142.2430 C   0  0  0  0  0  2  0  0  0  0  0  0
  195.2890  169.3430  141.3140 C   0  0  0  0  0  2  0  0  0  0  0  0
  190.4750  172.6620  143.4000 C   0  0  0  0  0  2  0  0  0  0  0  0
  191.8620  172.7600  144.0300 C   0  0  2  0  0  3  0  0  0  0  0  0
  189.4050  170.8040  138.9710 C   0  0  0  0  0  3  0  0  0  0  0  0
  188.2380  175.0830  141.4690 C   0  0  1  0  0  3  0  0  0  0  0  0
  191.6950  171.5620  138.7890 C   0  0  0  0  0  0  0  0  0  0  0  0
  193.2090  171.6720  142.2020 C   0  0  2  0  0  3  0  0  0  0  0  0
  193.9670  171.9840  140.9240 C   0  0  0  0  0  2  0  0  0  0  0  0
  188.2380  174.8220  139.9690 C   0  0  0  0  0  2  0  0  0  0  0  0
  189.5480  174.4810  139.5260 O   0  0  0  0  0  0  0  0  0  0  0  0
  188.9930  172.1170  139.2240 C   0  0  0  0  0  3  0  0  0  0  0  0
  197.2880  169.5560  139.2540 C   0  0  0  0  0  2  0  0  0  0  0  0
  196.7080  168.6340  136.9770 C   0  0  2  0  0  3  0  0  0  0  0  0
  195.8390  170.8360  137.8480 C   0  0  0  0  0  2  0  0  0  0  0  0
  195.5420  169.6250  136.9570 C   0  0  0  0  0  2  0  0  0  0  0  0
  197.0690  168.2860  138.4190 C   0  0  0  0  0  2  0  0  0  0  0  0
  196.1160  170.4500  139.2390 N   0  0  1  0  0  0  0  0  0  0  0  0
  197.9210  169.1520  136.2060 C   0  0  0  0  0  3  0  0  0  0  0  0
  197.8680  170.5400  136.0940 O   0  0  0  0  0  1  0  0  0  0  0  0
  197.9400  168.5910  134.9300 O   0  0  0  0  0  1  0  0  0  0  0  0
  186.9630  175.4880  141.8770 O   0  0  0  0  0  0  0  0  0  0  0  0
  187.1550  176.6550  142.5450 N   0  0  0  0  0  0  0  0  0  0  0  0
  188.2650  178.0420  141.0310 F   0  0  0  0  0  0  0  0  0  0  0  0
  187.0280  177.7380  141.5760 C   0  0  0  0  0  3  0  0  0  0  0  0
  186.5250  178.8690  142.1970 F   0  0  0  0  0  0  0  0  0  0  0  0
  186.0500  176.7960  143.4880 C   0  0  0  0  0  2  0  0  0  0  0  0
  186.4440  176.2370  144.8500 C   0  0  0  0  0  2  0  0  0  0  0  0
  188.3560  177.5470  145.9160 N   0  0  0  0  0  2  0  0  0  0  0  0
  186.9520  177.3000  145.7830 C   0  0  0  0  0  0  0  0  0  0  0  0
  186.1400  178.0230  146.4240 O   0  0  0  0  0  0  0  0  0  0  0  0
  189.3680  176.8900  145.1020 C   0  0  2  0  0  3  0  0  0  0  0  0
  189.7270  175.5490  145.7230 C   0  0  0  0  0  2  0  0  0  0  0  0
  189.6320  175.5990  147.2390 C   0  0  0  0  0  3  0  0  0  0  0  0
  188.7560  174.4670  147.7140 C   0  0  0  0  0  1  0  0  0  0  0  0
  191.0120  175.4520  147.8570 C   0  0  0  0  0  1  0  0  0  0  0  0
  190.6030  177.7860  144.9200 C   0  0  0  0  0  2  0  0  0  0  0  0
  191.3440  177.5050  143.6510 C   0  0  0  0  0  0  0  0  0  0  0  0
  190.7470  177.5670  142.5390 O   0  0  0  0  0  0  0  0  0  0  0  0
  192.7340  177.2020  143.6990 N   0  0  0  0  0  1  0  0  0  0  0  0
  1 22  1  0  0  0  0
  2 18  1  0  0  0  0
  4  5  1  0  0  0  0
  6 17  1  6  0  0  0
  6 11  1  0  0  0  0
  6  7  1  0  0  0  0
  7  9  1  0  0  0  0
  8 19  1  0  0  0  0
  9  5  1  0  0  0  0
 10 22  2  0  0  0  0
 10 20  1  0  0  0  0
 11  4  1  6  0  0  0
 12 26  1  0  0  0  0
 13  1  1  6  0  0  0
 13 24  1  0  0  0  0
 14 12  2  0  0  0  0
 15 13  1  0  0  0  0
 15 17  1  1  0  0  0
 16  2  1  0  0  0  0
 18 19  1  0  0  0  0
 19  3  1  1  0  0  0
 20 27  2  0  0  0  0
 21 37  1  1  0  0  0
 21 16  1  0  0  0  0
 22 14  1  0  0  0  0
 23 24  1  6  0  0  0
 23  8  1  0  0  0  0
 23 11  1  0  0  0  0
 25 21  1  0  0  0  0
 26 25  1  0  0  0  0
 27 12  1  0  0  0  0
 29 34  1  1  0  0  0
 29 32  1  0  0  0  0
 31 29  1  0  0  0  0
 31 30  1  0  0  0  0
 32 28  1  0  0  0  0
 33 30  1  6  0  0  0
 33 28  1  0  0  0  0
 33 15  1  0  0  0  0
 35 34  1  0  0  0  0
 36 34  1  0  0  0  0
 37 38  1  0  0  0  0
 38 42  1  0  0  0  0
 39 40  1  0  0  0  0
 40 41  1  0  0  0  0
 40 38  1  0  0  0  0
 42 43  1  0  0  0  0
 43 45  1  0  0  0  0
 45 44  1  0  0  0  0
 45 46  2  0  0  0  0
 47 52  1  1  0  0  0
 47 48  1  0  0  0  0
 47 44  1  0  0  0  0
 48 49  1  0  0  0  0
 49 50  1  0  0  0  0
 49 51  1  0  0  0  0
 53 55  1  0  0  0  0
 53 52  1  0  0  0  0
 54 53  2  0  0  0  0
M  END
>  <MODEL>
4

>  <REMARK>
 VINA RESULT:      -5.0      2.364      3.293
  Name = 
  13 active torsions:
  status: ('A' for Active; 'I' for Inactive)
    1  A    between atoms: C_1  and  C_53
    2  A    between atoms: N_3  and  C_38
    3  A    between atoms: C_6  and  C_12
    4  A    between atoms: C_6  and  C_46
    5  A    between atoms: O_8  and  N_22
    6  A    between atoms: O_8  and  C_43
    7  A    between atoms: C_10  and  C_32
    8  A    between atoms: C_11  and  C_29
    9  A    between atoms: C_20  and  N_22
   10  A    between atoms: N_22  and  C_46
   11  A    between atoms: C_29  and  C_38
   12  A    between atoms: C_33  and  N_52
   13  A    between atoms: C_38  and  C_53
                            x       y       z     vdW  Elec       q    Type
                         _______ _______ _______ _____ _____    ______ ____

>  <TORSDO>
F 13

$$$$
=
 OpenBabel11052419263D

 55 59  0  0  1  0  0  0  0  0999 V2000
  187.6760  174.3680  141.0920 C   0  0  0  0  0  2  0  0  0  0  0  0
  192.5300  171.2790  140.3950 C   0  0  0  0  0  2  0  0  0  0  0  0
  193.9650  172.0160  142.7920 O   0  0  0  0  0  1  0  0  0  0  0  0
  191.8880  175.4100  144.6070 C   0  0  0  0  0  2  0  0  0  0  0  0
  192.7660  176.5980  145.0060 C   0  0  0  0  0  2  0  0  0  0  0  0
  190.8300  176.8080  142.7600 C   0  0  1  0  0  3  0  0  0  0  0  0
  191.7140  177.9880  143.1720 C   0  0  0  0  0  2  0  0  0  0  0  0
  191.7750  172.9640  142.8490 C   0  0  0  0  0  2  0  0  0  0  0  0
  192.0750  177.9210  144.6650 C   0  0  0  0  0  2  0  0  0  0  0  0
  188.6570  174.5130  138.7930 C   0  0  0  0  0  3  0  0  0  0  0  0
  191.5800  175.5010  143.1070 C   0  0  2  0  0  3  0  0  0  0  0  0
  189.3590  171.7970  138.8750 C   0  0  0  0  0  0  0  0  0  0  0  0
  188.7260  175.0150  141.9870 C   0  0  1  0  0  3  0  0  0  0  0  0
  188.6840  172.3830  139.9490 C   0  0  0  0  0  3  0  0  0  0  0  0
  188.2670  176.2430  142.7950 C   0  0  2  0  0  3  0  0  0  0  0  0
  192.5840  171.0240  138.9010 C   0  0  0  0  0  2  0  0  0  0  0  0
  189.4770  176.9140  143.4870 C   0  0  0  0  0  2  0  0  0  0  0  0
  193.0450  172.6800  140.6790 C   0  0  0  0  0  2  0  0  0  0  0  0
  193.1440  172.9590  142.1770 C   0  0  2  0  0  3  0  0  0  0  0  0
  189.3230  173.9320  137.7140 C   0  0  0  0  0  3  0  0  0  0  0  0
  191.9700  169.6720  138.5850 C   0  0  1  0  0  3  0  0  0  0  0  0
  188.3280  173.7350  139.9100 C   0  0  0  0  0  0  0  0  0  0  0  0
  190.9840  174.2170  142.4910 C   0  0  2  0  0  3  0  0  0  0  0  0
  189.5140  174.0120  142.8100 C   0  0  0  0  0  2  0  0  0  0  0  0
  190.5720  169.8260  138.0000 C   0  0  0  0  0  2  0  0  0  0  0  0
  189.7050  170.4420  138.9460 O   0  0  0  0  0  0  0  0  0  0  0  0
  189.6740  172.5780  137.7540 C   0  0  0  0  0  3  0  0  0  0  0  0
  187.5480  176.3680  145.1480 C   0  0  0  0  0  2  0  0  0  0  0  0
  186.2780  178.5220  144.8020 C   0  0  2  0  0  3  0  0  0  0  0  0
  185.9050  176.4500  143.4130 C   0  0  0  0  0  2  0  0  0  0  0  0
  185.8880  177.9820  143.4250 C   0  0  0  0  0  2  0  0  0  0  0  0
  187.5980  177.8990  145.2500 C   0  0  0  0  0  2  0  0  0  0  0  0
  187.2170  175.9040  143.7890 N   0  0  1  0  0  0  0  0  0  0  0  0
  185.1780  178.3050  145.8410 C   0  0  0  0  0  3  0  0  0  0  0  0
  183.9340  178.6300  145.3040 O   0  0  0  0  0  1  0  0  0  0  0  0
  185.4190  179.1110  146.9530 O   0  0  0  0  0  1  0  0  0  0  0  0
  192.7910  169.0000  137.6740 O   0  0  0  0  0  0  0  0  0  0  0  0
  194.0590  169.3630  137.9990 N   0  0  0  0  0  0  0  0  0  0  0  0
  194.5010  168.2430  139.9990 F   0  0  0  0  0  0  0  0  0  0  0  0
  194.6950  168.2110  138.6280 C   0  0  0  0  0  3  0  0  0  0  0  0
  196.0550  168.2240  138.3700 F   0  0  0  0  0  0  0  0  0  0  0  0
  194.7680  169.6110  136.7480 C   0  0  0  0  0  2  0  0  0  0  0  0
  195.1740  171.0770  136.6530 C   0  0  0  0  0  2  0  0  0  0  0  0
  197.2170  172.5560  136.2750 N   0  0  0  0  0  2  0  0  0  0  0  0
  196.6530  171.2520  136.4500 C   0  0  0  0  0  0  0  0  0  0  0  0
  197.4220  170.2520  136.4850 O   0  0  0  0  0  0  0  0  0  0  0  0
  196.4480  173.7870  136.3870 C   0  0  2  0  0  3  0  0  0  0  0  0
  196.0890  174.0300  137.8450 C   0  0  0  0  0  2  0  0  0  0  0  0
  197.3020  173.8720  138.7460 C   0  0  0  0  0  3  0  0  0  0  0  0
  197.7740  175.2370  139.1780 C   0  0  0  0  0  1  0  0  0  0  0  0
  196.9400  173.0600  139.9770 C   0  0  0  0  0  1  0  0  0  0  0  0
  195.2020  173.7490  135.4880 C   0  0  0  0  0  2  0  0  0  0  0  0
  194.3350  174.9580  135.6420 C   0  0  0  0  0  0  0  0  0  0  0  0
  194.8180  176.1130  135.4620 O   0  0  0  0  0  0  0  0  0  0  0  0
  192.9560  174.8030  135.9560 N   0  0  0  0  0  1  0  0  0  0  0  0
  2 18  1  0  0  0  0
  4  5  1  0  0  0  0
  6 11  1  0  0  0  0
  6  7  1  1  0  0  0
  6 17  1  0  0  0  0
  7  9  1  0  0  0  0
  9  5  1  0  0  0  0
 10 22  1  0  0  0  0
 11  4  1  1  0  0  0
 12 26  1  0  0  0  0
 12 14  1  0  0  0  0
 13  1  1  1  0  0  0
 13 15  1  0  0  0  0
 13 24  1  0  0  0  0
 15 17  1  1  0  0  0
 15 33  1  0  0  0  0
 16  2  1  0  0  0  0
 18 19  1  0  0  0  0
 19  3  1  1  0  0  0
 19  8  1  0  0  0  0
 20 27  1  0  0  0  0
 20 10  2  0  0  0  0
 21 37  1  6  0  0  0
 21 16  1  0  0  0  0
 22 14  2  0  0  0  0
 22  1  1  0  0  0  0
 23 24  1  1  0  0  0
 23  8  1  0  0  0  0
 23 11  1  0  0  0  0
 25 21  1  0  0  0  0
 25 26  1  0  0  0  0
 27 12  2  0  0  0  0
 28 32  1  0  0  0  0
 29 32  1  0  0  0  0
 29 34  1  1  0  0  0
 30 31  1  0  0  0  0
 31 29  1  0  0  0  0
 33 30  1  6  0  0  0
 33 28  1  0  0  0  0
 34 36  1  0  0  0  0
 35 34  1  0  0  0  0
 37 38  1  0  0  0  0
 38 40  1  0  0  0  0
 40 39  1  0  0  0  0
 41 40  1  0  0  0  0
 42 38  1  0  0  0  0
 43 42  1  0  0  0  0
 44 47  1  0  0  0  0
 44 45  1  0  0  0  0
 45 46  2  0  0  0  0
 45 43  1  0  0  0  0
 47 52  1  6  0  0  0
 47 48  1  0  0  0  0
 48 49  1  0  0  0  0
 49 50  1  0  0  0  0
 49 51  1  0  0  0  0
 52 53  1  0  0  0  0
 53 55  1  0  0  0  0
 54 53  2  0  0  0  0
M  END
>  <MODEL>
5

>  <REMARK>
 VINA RESULT:      -4.8      3.968     10.477
  Name = 
  13 active torsions:
  status: ('A' for Active; 'I' for Inactive)
    1  A    between atoms: C_1  and  C_53
    2  A    between atoms: N_3  and  C_38
    3  A    between atoms: C_6  and  C_12
    4  A    between atoms: C_6  and  C_46
    5  A    between atoms: O_8  and  N_22
    6  A    between atoms: O_8  and  C_43
    7  A    between atoms: C_10  and  C_32
    8  A    between atoms: C_11  and  C_29
    9  A    between atoms: C_20  and  N_22
   10  A    between atoms: N_22  and  C_46
   11  A    between atoms: C_29  and  C_38
   12  A    between atoms: C_33  and  N_52
   13  A    between atoms: C_38  and  C_53
                            x       y       z     vdW  Elec       q    Type
                         _______ _______ _______ _____ _____    ______ ____

>  <TORSDO>
F 13

$$$$
=
 OpenBabel11052419263D

 55 59  0  0  1  0  0  0  0  0999 V2000
  192.9620  172.4240  138.6730 C   0  0  0  0  0  2  0  0  0  0  0  0
  190.1620  176.0250  142.2480 C   0  0  0  0  0  2  0  0  0  0  0  0
  192.3720  177.6110  143.2250 O   0  0  0  0  0  1  0  0  0  0  0  0
  196.0790  175.6330  142.0150 C   0  0  0  0  0  2  0  0  0  0  0  0
  197.1280  175.4460  143.1120 C   0  0  0  0  0  2  0  0  0  0  0  0
  195.6860  173.1170  141.9560 C   0  0  1  0  0  3  0  0  0  0  0  0
  196.7400  172.9460  143.0550 C   0  0  0  0  0  2  0  0  0  0  0  0
  193.1460  176.1240  141.5260 C   0  0  0  0  0  2  0  0  0  0  0  0
  197.7890  174.0690  143.0020 C   0  0  0  0  0  2  0  0  0  0  0  0
  191.3050  171.2920  140.1700 C   0  0  0  0  0  3  0  0  0  0  0  0
  195.0390  174.5110  142.1250 C   0  0  2  0  0  3  0  0  0  0  0  0
  189.5220  173.4410  139.8920 C   0  0  0  0  0  0  0  0  0  0  0  0
  194.0110  172.9770  139.6290 C   0  0  1  0  0  3  0  0  0  0  0  0
  190.7420  173.4460  139.2110 C   0  0  0  0  0  3  0  0  0  0  0  0
  195.4520  172.4740  139.4230 C   0  0  2  0  0  3  0  0  0  0  0  0
  188.8790  175.2850  142.5730 C   0  0  0  0  0  2  0  0  0  0  0  0
  196.3600  172.9500  140.5810 C   0  0  0  0  0  2  0  0  0  0  0  0
  191.2850  175.4760  143.1140 C   0  0  0  0  0  2  0  0  0  0  0  0
  192.5800  176.2640  142.9350 C   0  0  2  0  0  3  0  0  0  0  0  0
  190.0840  171.2770  140.8450 C   0  0  0  0  0  3  0  0  0  0  0  0
  187.7700  175.7420  141.6410 C   0  0  1  0  0  3  0  0  0  0  0  0
  191.6310  172.3740  139.3430 C   0  0  0  0  0  0  0  0  0  0  0  0
  193.7510  174.7420  141.3050 C   0  0  2  0  0  3  0  0  0  0  0  0
  193.9190  174.4800  139.8190 C   0  0  0  0  0  2  0  0  0  0  0  0
  187.5020  174.7050  140.5580 C   0  0  0  0  0  2  0  0  0  0  0  0
  188.6550  174.5320  139.7420 O   0  0  0  0  0  0  0  0  0  0  0  0
  189.1950  172.3490  140.7080 C   0  0  0  0  0  3  0  0  0  0  0  0
  197.4780  172.7420  138.0450 C   0  0  0  0  0  2  0  0  0  0  0  0
  197.2660  170.4440  137.0200 C   0  0  2  0  0  3  0  0  0  0  0  0
  195.4120  172.1550  136.9930 C   0  0  0  0  0  2  0  0  0  0  0  0
  195.7520  170.6610  137.0350 C   0  0  0  0  0  2  0  0  0  0  0  0
  197.9200  171.2730  138.1240 C   0  0  0  0  0  2  0  0  0  0  0  0
  196.0130  172.8940  138.1130 N   0  0  1  0  0  0  0  0  0  0  0  0
  197.8810  170.7470  135.6550 C   0  0  0  0  0  3  0  0  0  0  0  0
  197.1220  171.7020  134.9820 O   0  0  0  0  0  1  0  0  0  0  0  0
  197.9270  169.5800  134.8930 O   0  0  0  0  0  1  0  0  0  0  0  0
  186.6070  175.9550  142.3870 O   0  0  0  0  0  0  0  0  0  0  0  0
  186.8600  177.0620  143.1350 N   0  0  0  0  0  0  0  0  0  0  0  0
  186.6720  179.0750  141.9680 F   0  0  0  0  0  0  0  0  0  0  0  0
  185.9630  178.1150  142.6710 C   0  0  0  0  0  3  0  0  0  0  0  0
  185.3470  178.7200  143.7530 F   0  0  0  0  0  0  0  0  0  0  0  0
  186.4750  176.7490  144.5070 C   0  0  0  0  0  2  0  0  0  0  0  0
  187.6320  177.0330  145.4570 C   0  0  0  0  0  2  0  0  0  0  0  0
  188.3390  175.4700  147.3450 N   0  0  0  0  0  2  0  0  0  0  0  0
  187.4200  176.4330  146.8190 C   0  0  0  0  0  0  0  0  0  0  0  0
  186.4530  176.8130  147.5360 O   0  0  0  0  0  0  0  0  0  0  0  0
  189.5740  175.0880  146.6770 C   0  0  2  0  0  3  0  0  0  0  0  0
  190.4520  176.3160  146.4920 C   0  0  0  0  0  2  0  0  0  0  0  0
  191.5910  176.3360  147.4970 C   0  0  0  0  0  3  0  0  0  0  0  0
  192.8930  176.5190  146.7580 C   0  0  0  0  0  1  0  0  0  0  0  0
  191.4100  177.4840  148.4750 C   0  0  0  0  0  1  0  0  0  0  0  0
  189.2890  174.3810  145.3420 C   0  0  0  0  0  2  0  0  0  0  0  0
  190.0200  173.0840  145.2020 C   0  0  0  0  0  0  0  0  0  0  0  0
  189.3780  172.0040  145.0600 O   0  0  0  0  0  0  0  0  0  0  0  0
  191.4430  173.0740  145.1940 N   0  0  0  0  0  1  0  0  0  0  0  0
  1 22  1  0  0  0  0
  2 16  1  0  0  0  0
  2 18  1  0  0  0  0
  4  5  1  0  0  0  0
  6 17  1  6  0  0  0
  6 11  1  0  0  0  0
  6  7  1  0  0  0  0
  8 19  1  0  0  0  0
  9  7  1  0  0  0  0
  9  5  1  0  0  0  0
 10 20  1  0  0  0  0
 11  4  1  6  0  0  0
 12 27  1  0  0  0  0
 13  1  1  6  0  0  0
 13 24  1  0  0  0  0
 14 22  1  0  0  0  0
 14 12  2  0  0  0  0
 15 13  1  0  0  0  0
 15 17  1  1  0  0  0
 19 18  1  0  0  0  0
 19  3  1  6  0  0  0
 21 37  1  1  0  0  0
 21 16  1  0  0  0  0
 22 10  2  0  0  0  0
 23 24  1  6  0  0  0
 23  8  1  0  0  0  0
 23 11  1  0  0  0  0
 25 21  1  0  0  0  0
 26 12  1  0  0  0  0
 26 25  1  0  0  0  0
 27 20  2  0  0  0  0
 28 33  1  0  0  0  0
 28 32  1  0  0  0  0
 29 34  1  6  0  0  0
 29 31  1  0  0  0  0
 29 32  1  0  0  0  0
 30 31  1  0  0  0  0
 33 30  1  6  0  0  0
 33 15  1  0  0  0  0
 35 34  1  0  0  0  0
 36 34  1  0  0  0  0
 37 38  1  0  0  0  0
 38 42  1  0  0  0  0
 39 40  1  0  0  0  0
 40 38  1  0  0  0  0
 40 41  1  0  0  0  0
 42 43  1  0  0  0  0
 43 45  1  0  0  0  0
 45 44  1  0  0  0  0
 45 46  2  0  0  0  0
 47 52  1  6  0  0  0
 47 44  1  0  0  0  0
 48 47  1  0  0  0  0
 48 49  1  0  0  0  0
 49 51  1  0  0  0  0
 50 49  1  0  0  0  0
 53 52  1  0  0  0  0
 54 53  2  0  0  0  0
 55 53  1  0  0  0  0
M  END
>  <MODEL>
6

>  <REMARK>
 VINA RESULT:      -4.6      1.475      2.041
  Name = 
  13 active torsions:
  status: ('A' for Active; 'I' for Inactive)
    1  A    between atoms: C_1  and  C_53
    2  A    between atoms: N_3  and  C_38
    3  A    between atoms: C_6  and  C_12
    4  A    between atoms: C_6  and  C_46
    5  A    between atoms: O_8  and  N_22
    6  A    between atoms: O_8  and  C_43
    7  A    between atoms: C_10  and  C_32
    8  A    between atoms: C_11  and  C_29
    9  A    between atoms: C_20  and  N_22
   10  A    between atoms: N_22  and  C_46
   11  A    between atoms: C_29  and  C_38
   12  A    between atoms: C_33  and  N_52
   13  A    between atoms: C_38  and  C_53
                            x       y       z     vdW  Elec       q    Type
                         _______ _______ _______ _____ _____    ______ ____

>  <TORSDO>
F 13

$$$$
=
 OpenBabel11052419263D

 55 59  0  0  1  0  0  0  0  0999 V2000
  188.1780  173.8880  141.6140 C   0  0  0  0  0  2  0  0  0  0  0  0
  193.3340  171.3520  142.3610 C   0  0  0  0  0  2  0  0  0  0  0  0
  194.3070  172.8160  144.6550 O   0  0  0  0  0  1  0  0  0  0  0  0
  191.6810  176.2600  145.2580 C   0  0  0  0  0  2  0  0  0  0  0  0
  192.3770  177.6090  145.4500 C   0  0  0  0  0  2  0  0  0  0  0  0
  190.8040  177.0310  142.9950 C   0  0  1  0  0  3  0  0  0  0  0  0
  191.5060  178.3760  143.2020 C   0  0  0  0  0  2  0  0  0  0  0  0
  192.0600  173.4690  144.1850 C   0  0  0  0  0  2  0  0  0  0  0  0
  191.6340  178.7150  144.6960 C   0  0  0  0  0  2  0  0  0  0  0  0
  189.4880  173.5990  139.5000 C   0  0  0  0  0  3  0  0  0  0  0  0
  191.6030  175.9490  143.7580 C   0  0  2  0  0  3  0  0  0  0  0  0
  190.4060  171.0910  140.3630 C   0  0  0  0  0  0  0  0  0  0  0  0
  189.0130  174.8570  142.4410 C   0  0  1  0  0  3  0  0  0  0  0  0
  189.5230  171.8280  141.1560 C   0  0  0  0  0  3  0  0  0  0  0  0
  188.3280  176.1760  142.8420 C   0  0  2  0  0  3  0  0  0  0  0  0
  193.6430  170.7550  141.0020 C   0  0  0  0  0  2  0  0  0  0  0  0
  189.3500  177.1390  143.4900 C   0  0  0  0  0  2  0  0  0  0  0  0
  193.6730  172.8330  142.3420 C   0  0  0  0  0  2  0  0  0  0  0  0
  193.5120  173.4740  143.7180 C   0  0  2  0  0  3  0  0  0  0  0  0
  190.3630  172.8630  138.7010 C   0  0  0  0  0  3  0  0  0  0  0  0
  193.2080  169.3000  140.9660 C   0  0  1  0  0  3  0  0  0  0  0  0
  189.0590  173.0770  140.7270 C   0  0  0  0  0  0  0  0  0  0  0  0
  191.2270  174.4910  143.4190 C   0  0  2  0  0  3  0  0  0  0  0  0
  189.7490  174.1880  143.5880 C   0  0  0  0  0  2  0  0  0  0  0  0
  191.9100  169.1340  140.1860 C   0  0  0  0  0  2  0  0  0  0  0  0
  190.8550  169.8460  140.8230 O   0  0  0  0  0  0  0  0  0  0  0  0
  190.8220  171.6120  139.1300 C   0  0  0  0  0  3  0  0  0  0  0  0
  187.2210  176.8020  144.9530 C   0  0  0  0  0  2  0  0  0  0  0  0
  185.8050  178.5820  143.8560 C   0  0  2  0  0  3  0  0  0  0  0  0
  185.8870  176.1880  143.0650 C   0  0  0  0  0  2  0  0  0  0  0  0
  185.7070  177.6510  142.6460 C   0  0  0  0  0  2  0  0  0  0  0  0
  187.0910  178.2980  144.6280 C   0  0  0  0  0  2  0  0  0  0  0  0
  187.1690  175.9570  143.7460 N   0  0  1  0  0  0  0  0  0  0  0  0
  184.5770  178.4850  144.7610 C   0  0  0  0  0  3  0  0  0  0  0  0
  183.4740  179.0730  144.1470 O   0  0  0  0  0  1  0  0  0  0  0  0
  184.8320  179.1390  145.9660 O   0  0  0  0  0  1  0  0  0  0  0  0
  194.2170  168.5370  140.3710 O   0  0  0  0  0  0  0  0  0  0  0  0
  195.3820  169.1180  140.7600 N   0  0  0  0  0  0  0  0  0  0  0  0
  195.2400  168.7190  143.0560 F   0  0  0  0  0  0  0  0  0  0  0  0
  195.8940  168.3510  141.8910 C   0  0  0  0  0  3  0  0  0  0  0  0
  197.2490  168.5890  142.0470 F   0  0  0  0  0  0  0  0  0  0  0  0
  196.3320  168.9480  139.6660 C   0  0  0  0  0  2  0  0  0  0  0  0
  196.3260  170.1780  138.7670 C   0  0  0  0  0  2  0  0  0  0  0  0
  196.6370  172.7070  138.8890 N   0  0  0  0  0  2  0  0  0  0  0  0
  196.8060  171.4130  139.4770 C   0  0  0  0  0  0  0  0  0  0  0  0
  197.3170  171.3250  140.6280 O   0  0  0  0  0  0  0  0  0  0  0  0
  195.9120  172.9380  137.6480 C   0  0  2  0  0  3  0  0  0  0  0  0
  196.2870  174.3010  137.0870 C   0  0  0  0  0  2  0  0  0  0  0  0
  196.8350  174.1850  135.6750 C   0  0  0  0  0  3  0  0  0  0  0  0
  197.5610  172.8710  135.5370 C   0  0  0  0  0  1  0  0  0  0  0  0
  195.7000  174.2320  134.6660 C   0  0  0  0  0  1  0  0  0  0  0  0
  194.3950  172.8020  137.8570 C   0  0  0  0  0  2  0  0  0  0  0  0
  193.7090  172.1280  136.7120 C   0  0  0  0  0  0  0  0  0  0  0  0
  192.5560  172.5050  136.3510 O   0  0  0  0  0  0  0  0  0  0  0  0
  194.3720  171.0850  136.0060 N   0  0  0  0  0  1  0  0  0  0  0  0
  4  5  1  0  0  0  0
  6  7  1  1  0  0  0
  6 17  1  0  0  0  0
  6 11  1  0  0  0  0
  7  9  1  0  0  0  0
  9  5  1  0  0  0  0
 10 22  1  0  0  0  0
 11  4  1  1  0  0  0
 12 26  1  0  0  0  0
 12 14  1  0  0  0  0
 13  1  1  1  0  0  0
 13 15  1  0  0  0  0
 13 24  1  0  0  0  0
 15 17  1  1  0  0  0
 15 33  1  0  0  0  0
 16  2  1  0  0  0  0
 18  2  1  0  0  0  0
 18 19  1  0  0  0  0
 19  8  1  0  0  0  0
 19  3  1  1  0  0  0
 20 27  1  0  0  0  0
 20 10  2  0  0  0  0
 21 37  1  6  0  0  0
 21 16  1  0  0  0  0
 22 14  2  0  0  0  0
 22  1  1  0  0  0  0
 23 24  1  1  0  0  0
 23 11  1  0  0  0  0
 23  8  1  0  0  0  0
 25 26  1  0  0  0  0
 25 21  1  0  0  0  0
 27 12  2  0  0  0  0
 29 32  1  0  0  0  0
 29 34  1  1  0  0  0
 31 30  1  0  0  0  0
 31 29  1  0  0  0  0
 32 28  1  0  0  0  0
 33 30  1  6  0  0  0
 33 28  1  0  0  0  0
 34 36  1  0  0  0  0
 35 34  1  0  0  0  0
 37 38  1  0  0  0  0
 38 40  1  0  0  0  0
 40 41  1  0  0  0  0
 40 39  1  0  0  0  0
 42 38  1  0  0  0  0
 43 45  1  0  0  0  0
 43 42  1  0  0  0  0
 44 45  1  0  0  0  0
 45 46  2  0  0  0  0
 47 48  1  1  0  0  0
 47 52  1  0  0  0  0
 47 44  1  0  0  0  0
 49 48  1  0  0  0  0
 50 49  1  0  0  0  0
 51 49  1  0  0  0  0
 53 52  1  0  0  0  0
 54 53  2  0  0  0  0
 55 53  1  0  0  0  0
M  END
>  <MODEL>
7

>  <REMARK>
 VINA RESULT:      -4.4      3.898     10.390
  Name = 
  13 active torsions:
  status: ('A' for Active; 'I' for Inactive)
    1  A    between atoms: C_1  and  C_53
    2  A    between atoms: N_3  and  C_38
    3  A    between atoms: C_6  and  C_12
    4  A    between atoms: C_6  and  C_46
    5  A    between atoms: O_8  and  N_22
    6  A    between atoms: O_8  and  C_43
    7  A    between atoms: C_10  and  C_32
    8  A    between atoms: C_11  and  C_29
    9  A    between atoms: C_20  and  N_22
   10  A    between atoms: N_22  and  C_46
   11  A    between atoms: C_29  and  C_38
   12  A    between atoms: C_33  and  N_52
   13  A    between atoms: C_38  and  C_53
                            x       y       z     vdW  Elec       q    Type
                         _______ _______ _______ _____ _____    ______ ____

>  <TORSDO>
F 13

$$$$
=
 OpenBabel11052419263D

 55 59  0  0  1  0  0  0  0  0999 V2000
  187.3230  174.7530  141.1550 C   0  0  0  0  0  2  0  0  0  0  0  0
  192.2750  172.1430  139.6550 C   0  0  0  0  0  2  0  0  0  0  0  0
  193.9170  172.7850  141.9460 O   0  0  0  0  0  1  0  0  0  0  0  0
  191.8210  175.8280  144.2850 C   0  0  0  0  0  2  0  0  0  0  0  0
  192.6510  177.0440  144.7000 C   0  0  0  0  0  2  0  0  0  0  0  0
  190.4620  177.2890  142.7030 C   0  0  1  0  0  3  0  0  0  0  0  0
  191.3010  178.4980  143.1280 C   0  0  0  0  0  2  0  0  0  0  0  0
  191.6850  173.5420  142.3260 C   0  0  0  0  0  2  0  0  0  0  0  0
  191.8320  178.3310  144.5610 C   0  0  0  0  0  2  0  0  0  0  0  0
  188.0240  175.1760  138.7900 C   0  0  0  0  0  3  0  0  0  0  0  0
  191.3380  176.0230  142.8420 C   0  0  2  0  0  3  0  0  0  0  0  0
  188.9230  172.5300  138.5380 C   0  0  0  0  0  0  0  0  0  0  0  0
  188.4180  175.4030  141.9910 C   0  0  1  0  0  3  0  0  0  0  0  0
  188.3350  172.9630  139.7280 C   0  0  0  0  0  3  0  0  0  0  0  0
  187.9670  176.5150  142.9560 C   0  0  2  0  0  3  0  0  0  0  0  0
  192.1780  172.0240  138.1470 C   0  0  0  0  0  2  0  0  0  0  0  0
  189.1960  177.2200  143.5770 C   0  0  0  0  0  2  0  0  0  0  0  0
  192.7180  173.5520  140.0150 C   0  0  0  0  0  2  0  0  0  0  0  0
  192.9650  173.7070  141.5140 C   0  0  2  0  0  3  0  0  0  0  0  0
  188.6030  174.7470  137.5950 C   0  0  0  0  0  3  0  0  0  0  0  0
  191.6310  170.6580  137.7720 C   0  0  1  0  0  3  0  0  0  0  0  0
  187.8800  174.2800  139.8560 C   0  0  0  0  0  0  0  0  0  0  0  0
  190.7700  174.7520  142.1740 C   0  0  2  0  0  3  0  0  0  0  0  0
  189.3650  174.4010  142.6270 C   0  0  0  0  0  2  0  0  0  0  0  0
  190.1680  170.7470  137.3560 C   0  0  0  0  0  2  0  0  0  0  0  0
  189.3720  171.2060  138.4430 O   0  0  0  0  0  0  0  0  0  0  0  0
  189.0520  173.4270  137.4690 C   0  0  0  0  0  3  0  0  0  0  0  0
  187.4930  176.4070  145.3720 C   0  0  0  0  0  2  0  0  0  0  0  0
  186.0010  178.4430  145.3220 C   0  0  2  0  0  3  0  0  0  0  0  0
  185.6740  176.4440  143.8190 C   0  0  0  0  0  2  0  0  0  0  0  0
  185.5190  177.9630  143.9520 C   0  0  0  0  0  2  0  0  0  0  0  0
  187.4130  177.9250  145.5870 C   0  0  0  0  0  2  0  0  0  0  0  0
  187.0630  176.0060  144.0190 N   0  0  1  0  0  0  0  0  0  0  0  0
  185.0420  178.0480  146.4450 C   0  0  0  0  0  3  0  0  0  0  0  0
  183.8450  178.7530  146.3300 O   0  0  0  0  0  1  0  0  0  0  0  0
  185.6230  178.3340  147.6800 O   0  0  0  0  0  1  0  0  0  0  0  0
  192.3890  170.1370  136.7190 O   0  0  0  0  0  0  0  0  0  0  0  0
  192.3890  168.7910  136.9090 N   0  0  0  0  0  0  0  0  0  0  0  0
  193.5150  168.3790  134.9060 F   0  0  0  0  0  0  0  0  0  0  0  0
  192.3310  168.1660  135.5930 C   0  0  0  0  0  3  0  0  0  0  0  0
  191.2870  168.7070  134.8600 F   0  0  0  0  0  0  0  0  0  0  0  0
  193.6810  168.4410  137.4900 C   0  0  0  0  0  2  0  0  0  0  0  0
  194.7150  169.5100  137.1590 C   0  0  0  0  0  2  0  0  0  0  0  0
  197.1560  169.1990  137.8340 N   0  0  0  0  0  2  0  0  0  0  0  0
  196.0830  168.9340  136.9230 C   0  0  0  0  0  0  0  0  0  0  0  0
  196.2880  168.1660  135.9430 O   0  0  0  0  0  0  0  0  0  0  0  0
  196.9890  169.9300  139.0810 C   0  0  2  0  0  3  0  0  0  0  0  0
  197.8790  171.1630  139.0700 C   0  0  0  0  0  2  0  0  0  0  0  0
  197.1070  172.4040  139.4860 C   0  0  0  0  0  3  0  0  0  0  0  0
  197.8750  173.6280  139.0540 C   0  0  0  0  0  1  0  0  0  0  0  0
  195.7390  172.4180  138.8260 C   0  0  0  0  0  1  0  0  0  0  0  0
  197.2710  169.0310  140.2950 C   0  0  0  0  0  2  0  0  0  0  0  0
  196.4020  169.3480  141.4700 C   0  0  0  0  0  0  0  0  0  0  0  0
  195.1770  169.6120  141.3010 O   0  0  0  0  0  0  0  0  0  0  0  0
  196.9510  169.3170  142.7830 N   0  0  0  0  0  1  0  0  0  0  0  0
  2 18  1  0  0  0  0
  4  5  1  0  0  0  0
  6 11  1  0  0  0  0
  6  7  1  1  0  0  0
  6 17  1  0  0  0  0
  7  9  1  0  0  0  0
  9  5  1  0  0  0  0
 10 22  1  0  0  0  0
 11  4  1  1  0  0  0
 12 14  1  0  0  0  0
 13  1  1  1  0  0  0
 13 24  1  0  0  0  0
 13 15  1  0  0  0  0
 14 22  2  0  0  0  0
 15 17  1  1  0  0  0
 15 33  1  0  0  0  0
 16  2  1  0  0  0  0
 18 19  1  0  0  0  0
 19  3  1  1  0  0  0
 19  8  1  0  0  0  0
 20 10  2  0  0  0  0
 21 37  1  6  0  0  0
 21 16  1  0  0  0  0
 22  1  1  0  0  0  0
 23  8  1  1  0  0  0
 23 24  1  0  0  0  0
 23 11  1  0  0  0  0
 25 21  1  0  0  0  0
 25 26  1  0  0  0  0
 26 12  1  0  0  0  0
 27 20  1  0  0  0  0
 27 12  2  0  0  0  0
 28 32  1  0  0  0  0
 29 32  1  0  0  0  0
 29 34  1  1  0  0  0
 30 31  1  0  0  0  0
 31 29  1  0  0  0  0
 33 30  1  6  0  0  0
 33 28  1  0  0  0  0
 34 36  1  0  0  0  0
 35 34  1  0  0  0  0
 37 38  1  0  0  0  0
 38 42  1  0  0  0  0
 39 40  1  0  0  0  0
 40 38  1  0  0  0  0
 41 40  1  0  0  0  0
 43 42  1  0  0  0  0
 44 47  1  0  0  0  0
 45 43  1  0  0  0  0
 45 44  1  0  0  0  0
 46 45  2  0  0  0  0
 47 48  1  6  0  0  0
 47 52  1  0  0  0  0
 48 49  1  0  0  0  0
 50 49  1  0  0  0  0
 51 49  1  0  0  0  0
 52 53  1  0  0  0  0
 53 55  1  0  0  0  0
 54 53  2  0  0  0  0
M  END
>  <MODEL>
8

>  <REMARK>
 VINA RESULT:      -4.3      4.011     10.397
  Name = 
  13 active torsions:
  status: ('A' for Active; 'I' for Inactive)
    1  A    between atoms: C_1  and  C_53
    2  A    between atoms: N_3  and  C_38
    3  A    between atoms: C_6  and  C_12
    4  A    between atoms: C_6  and  C_46
    5  A    between atoms: O_8  and  N_22
    6  A    between atoms: O_8  and  C_43
    7  A    between atoms: C_10  and  C_32
    8  A    between atoms: C_11  and  C_29
    9  A    between atoms: C_20  and  N_22
   10  A    between atoms: N_22  and  C_46
   11  A    between atoms: C_29  and  C_38
   12  A    between atoms: C_33  and  N_52
   13  A    between atoms: C_38  and  C_53
                            x       y       z     vdW  Elec       q    Type
                         _______ _______ _______ _____ _____    ______ ____

>  <TORSDO>
F 13

$$$$
=
 OpenBabel11052419263D

 55 59  0  0  1  0  0  0  0  0999 V2000
  188.2910  173.6340  141.0470 C   0  0  0  0  0  2  0  0  0  0  0  0
  192.7450  171.4080  144.0120 C   0  0  0  0  0  2  0  0  0  0  0  0
  192.9460  173.3240  146.1660 O   0  0  0  0  0  1  0  0  0  0  0  0
  190.4480  176.7630  145.1380 C   0  0  0  0  0  2  0  0  0  0  0  0
  191.1030  178.1370  145.2910 C   0  0  0  0  0  2  0  0  0  0  0  0
  190.4400  177.0440  142.6070 C   0  0  1  0  0  3  0  0  0  0  0  0
  191.0950  178.4180  142.7760 C   0  0  0  0  0  2  0  0  0  0  0  0
  191.0320  173.8220  144.8310 C   0  0  0  0  0  2  0  0  0  0  0  0
  190.7200  179.0530  144.1250 C   0  0  0  0  0  2  0  0  0  0  0  0
  190.2300  172.9530  139.6180 C   0  0  0  0  0  3  0  0  0  0  0  0
  190.8740  176.1550  143.7950 C   0  0  2  0  0  3  0  0  0  0  0  0
  190.6690  170.6900  141.2180 C   0  0  0  0  0  0  0  0  0  0  0  0
  188.8400  174.7660  141.9060 C   0  0  1  0  0  3  0  0  0  0  0  0
  189.6060  171.5530  141.4960 C   0  0  0  0  0  3  0  0  0  0  0  0
  188.1260  176.1240  141.7790 C   0  0  2  0  0  3  0  0  0  0  0  0
  193.4710  170.5570  142.9880 C   0  0  0  0  0  2  0  0  0  0  0  0
  188.9110  177.2190  142.5380 C   0  0  0  0  0  2  0  0  0  0  0  0
  193.1440  172.8620  143.8210 C   0  0  0  0  0  2  0  0  0  0  0  0
  192.5530  173.7630  144.9030 C   0  0  2  0  0  3  0  0  0  0  0  0
  191.2870  172.0900  139.3300 C   0  0  0  0  0  3  0  0  0  0  0  0
  193.0010  169.1160  143.0900 C   0  0  1  0  0  3  0  0  0  0  0  0
  189.3810  172.6790  140.6970 C   0  0  0  0  0  0  0  0  0  0  0  0
  190.5640  174.6510  143.6400 C   0  0  2  0  0  3  0  0  0  0  0  0
  189.1040  174.3570  143.3440 C   0  0  0  0  0  2  0  0  0  0  0  0
  192.0430  168.7690  141.9580 C   0  0  0  0  0  2  0  0  0  0  0  0
  190.8700  169.5720  142.0380 O   0  0  0  0  0  0  0  0  0  0  0  0
  191.5080  170.9610  140.1280 C   0  0  0  0  0  3  0  0  0  0  0  0
  186.6090  176.0960  143.7210 C   0  0  0  0  0  2  0  0  0  0  0  0
  186.3240  178.6050  143.7240 C   0  0  2  0  0  3  0  0  0  0  0  0
  185.9060  177.1610  141.6980 C   0  0  0  0  0  2  0  0  0  0  0  0
  186.3670  178.5350  142.1960 C   0  0  0  0  0  2  0  0  0  0  0  0
  187.0910  177.4260  144.3190 C   0  0  0  0  0  2  0  0  0  0  0  0
  186.7180  176.0670  142.2510 N   0  0  1  0  0  0  0  0  0  0  0  0
  184.8940  178.6700  144.2600 C   0  0  0  0  0  3  0  0  0  0  0  0
  184.4370  179.9860  144.2640 O   0  0  0  0  0  1  0  0  0  0  0  0
  184.8600  178.1710  145.5620 O   0  0  0  0  0  1  0  0  0  0  0  0
  194.1140  168.2700  143.0410 O   0  0  0  0  0  0  0  0  0  0  0  0
  195.0320  168.8380  143.8670 N   0  0  0  0  0  0  0  0  0  0  0  0
  193.7450  168.5090  145.7860 F   0  0  0  0  0  0  0  0  0  0  0  0
  194.9310  168.1660  145.1580 C   0  0  0  0  0  3  0  0  0  0  0  0
  195.9890  168.5420  145.9680 F   0  0  0  0  0  0  0  0  0  0  0  0
  196.3490  168.5220  143.3240 C   0  0  0  0  0  2  0  0  0  0  0  0
  196.9230  169.7320  142.5960 C   0  0  0  0  0  2  0  0  0  0  0  0
  197.2150  172.1830  143.2390 N   0  0  0  0  0  2  0  0  0  0  0  0
  197.4060  170.7960  143.5410 C   0  0  0  0  0  0  0  0  0  0  0  0
  197.9410  170.4770  144.6380 O   0  0  0  0  0  0  0  0  0  0  0  0
  196.4630  172.6590  142.0880 C   0  0  2  0  0  3  0  0  0  0  0  0
  197.1780  172.2480  140.8100 C   0  0  0  0  0  2  0  0  0  0  0  0
  196.2120  171.6330  139.8110 C   0  0  0  0  0  3  0  0  0  0  0  0
  194.8240  172.1570  140.0840 C   0  0  0  0  0  1  0  0  0  0  0  0
  196.6130  172.0060  138.3940 C   0  0  0  0  0  1  0  0  0  0  0  0
  196.2420  174.1780  142.1570 C   0  0  0  0  0  2  0  0  0  0  0  0
  196.5880  174.7570  143.4910 C   0  0  0  0  0  0  0  0  0  0  0  0
  195.8880  174.4780  144.5070 O   0  0  0  0  0  0  0  0  0  0  0  0
  197.7310  175.5960  143.6210 N   0  0  0  0  0  1  0  0  0  0  0  0
  4  5  1  0  0  0  0
  6 17  1  1  0  0  0
  6  7  1  0  0  0  0
  6 11  1  0  0  0  0
  7  9  1  0  0  0  0
  8 19  1  0  0  0  0
  9  5  1  0  0  0  0
 10 22  1  0  0  0  0
 11  4  1  1  0  0  0
 12 14  1  0  0  0  0
 12 26  1  0  0  0  0
 13  1  1  1  0  0  0
 13 24  1  0  0  0  0
 15 13  1  0  0  0  0
 15 33  1  0  0  0  0
 15 17  1  1  0  0  0
 16 21  1  0  0  0  0
 16  2  1  0  0  0  0
 18  2  1  0  0  0  0
 18 19  1  0  0  0  0
 19  3  1  1  0  0  0
 20 10  2  0  0  0  0
 20 27  1  0  0  0  0
 21 37  1  6  0  0  0
 22  1  1  0  0  0  0
 22 14  2  0  0  0  0
 23 24  1  1  0  0  0
 23 11  1  0  0  0  0
 23  8  1  0  0  0  0
 25 26  1  0  0  0  0
 25 21  1  0  0  0  0
 27 12  2  0  0  0  0
 28 32  1  0  0  0  0
 29 34  1  1  0  0  0
 29 32  1  0  0  0  0
 30 31  1  0  0  0  0
 31 29  1  0  0  0  0
 33 30  1  6  0  0  0
 33 28  1  0  0  0  0
 34 35  1  0  0  0  0
 34 36  1  0  0  0  0
 37 38  1  0  0  0  0
 38 40  1  0  0  0  0
 40 39  1  0  0  0  0
 40 41  1  0  0  0  0
 42 38  1  0  0  0  0
 43 42  1  0  0  0  0
 43 45  1  0  0  0  0
 44 45  1  0  0  0  0
 45 46  2  0  0  0  0
 47 48  1  6  0  0  0
 47 52  1  0  0  0  0
 47 44  1  0  0  0  0
 49 50  1  0  0  0  0
 49 48  1  0  0  0  0
 51 49  1  0  0  0  0
 52 53  1  0  0  0  0
 53 55  1  0  0  0  0
 53 54  2  0  0  0  0
M  END
>  <MODEL>
9

>  <REMARK>
 VINA RESULT:      -4.3      4.206      9.569
  Name = 
  13 active torsions:
  status: ('A' for Active; 'I' for Inactive)
    1  A    between atoms: C_1  and  C_53
    2  A    between atoms: N_3  and  C_38
    3  A    between atoms: C_6  and  C_12
    4  A    between atoms: C_6  and  C_46
    5  A    between atoms: O_8  and  N_22
    6  A    between atoms: O_8  and  C_43
    7  A    between atoms: C_10  and  C_32
    8  A    between atoms: C_11  and  C_29
    9  A    between atoms: C_20  and  N_22
   10  A    between atoms: N_22  and  C_46
   11  A    between atoms: C_29  and  C_38
   12  A    between atoms: C_33  and  N_52
   13  A    between atoms: C_38  and  C_53
                            x       y       z     vdW  Elec       q    Type
                         _______ _______ _______ _____ _____    ______ ____

>  <TORSDO>
F 13

$$$$
