=
 OpenBabel11052419133D

 32 37  0  0  1  0  0  0  0  0999 V2000
  188.6860  176.2190  145.7100 C   0  0  1  0  0  3  0  0  0  0  0  0
  191.0890  175.0870  143.6450 C   0  0  0  0  0  0  0  0  0  0  0  0
  185.1060  177.7350  145.6230 C   0  0  0  0  0  0  0  0  0  0  0  0
  189.5720  177.4390  146.0290 C   0  0  0  0  0  2  0  0  0  0  0  0
  191.3050  175.9190  144.6700 N   0  0  0  0  0  0  0  0  0  0  0  0
  191.6810  173.8220  143.6500 C   0  0  0  0  0  0  0  0  0  0  0  0
  184.5500  177.8980  146.8490 F   0  0  0  0  0  0  0  0  0  0  0  0
  188.4160  173.6540  139.7950 C   0  0  0  0  0  3  0  0  0  0  0  0
  190.0200  175.3870  142.7470 N   0  0  0  0  0  0  0  0  0  0  0  0
  190.2350  172.1380  140.5970 C   0  0  0  0  0  2  0  0  0  0  0  0
  190.4850  173.1500  141.6810 C   0  0  0  0  0  0  0  0  0  0  0  0
  191.9330  175.5350  145.7940 C   0  0  0  0  0  0  0  0  0  0  0  0
  186.8810  176.8920  144.2220 C   0  0  0  0  0  0  0  0  0  0  0  0
  191.3820  172.8960  142.5920 N   0  0  0  0  0  0  0  0  0  0  0  0
  192.5330  174.3140  145.8380 N   0  0  0  0  0  0  0  0  0  0  0  0
  184.4700  178.2570  144.4890 C   0  0  0  0  0  3  0  0  0  0  0  0
  186.2470  177.3920  143.0800 C   0  0  0  0  0  3  0  0  0  0  0  0
  191.6420  176.3000  147.0160 C   0  0  0  0  0  3  0  0  0  0  0  0
  186.3040  177.0330  145.4680 C   0  0  0  0  0  0  0  0  0  0  0  0
  187.2190  176.2870  146.8060 S   0  0  0  0  0  0  0  0  0  0  0  0
  189.1210  176.5040  143.0850 C   0  0  0  0  0  2  0  0  0  0  0  0
  185.0350  178.0820  143.2100 C   0  0  0  0  0  0  0  0  0  0  0  0
  188.1610  176.1370  144.2420 C   0  0  1  0  0  3  0  0  0  0  0  0
  189.7100  174.4220  141.7250 C   0  0  0  0  0  0  0  0  0  0  0  0
  192.4660  173.4690  144.7650 C   0  0  0  0  0  0  0  0  0  0  0  0
  190.5920  177.1460  147.1220 C   0  0  0  0  0  3  0  0  0  0  0  0
  189.0910  172.5070  139.6880 C   0  0  0  0  0  3  0  0  0  0  0  0
  188.7410  174.6450  140.8340 C   0  0  0  0  0  3  0  0  0  0  0  0
  184.8210  178.2220  140.7500 C   0  0  0  0  0  1  0  0  0  0  0  0
  184.4150  178.5840  142.0620 O   0  0  0  0  0  0  0  0  0  0  0  0
  193.1460  172.1450  144.8320 C   0  0  0  0  0  2  0  0  0  0  0  0
  194.1180  172.1670  145.8310 O   0  0  0  0  0  1  0  0  0  0  0  0
  1  4  1  6  0  0  0
  1 20  1  0  0  0  0
  2  6  2  0  0  0  0
  2  5  1  0  0  0  0
  3  7  1  0  0  0  0
  4 26  1  0  0  0  0
  5 12  2  0  0  0  0
  6 25  1  0  0  0  0
  8 28  1  0  0  0  0
  9 21  1  0  0  0  0
  9  2  1  0  0  0  0
 10 11  1  0  0  0  0
 11 24  1  0  0  0  0
 11 14  2  0  0  0  0
 12 15  1  0  0  0  0
 12 18  1  0  0  0  0
 13 23  1  0  0  0  0
 13 19  2  0  0  0  0
 14  6  1  0  0  0  0
 16  3  2  0  0  0  0
 17 22  2  0  0  0  0
 17 13  1  0  0  0  0
 18 26  2  0  0  0  0
 19  3  1  0  0  0  0
 19 20  1  0  0  0  0
 22 16  1  0  0  0  0
 23 21  1  6  0  0  0
 23  1  1  0  0  0  0
 24  9  1  0  0  0  0
 25 31  1  0  0  0  0
 25 15  2  0  0  0  0
 27  8  2  0  0  0  0
 27 10  1  0  0  0  0
 28 24  2  0  0  0  0
 29 30  1  0  0  0  0
 30 22  1  0  0  0  0
 31 32  1  0  0  0  0
M  END
>  <MODEL>
1

>  <REMARK>
 VINA RESULT:      -8.6      0.000      0.000
  Name = 
  2 active torsions:
  status: ('A' for Active; 'I' for Inactive)
    1  A    between atoms: C_13  and  CA_29
    2  A    between atoms: O_15  and  C_26
                            x       y       z     vdW  Elec       q    Type
                         _______ _______ _______ _____ _____    ______ ____

>  <TORSDO>
F 2

$$$$
=
 OpenBabel11052419133D

 32 37  0  0  1  0  0  0  0  0999 V2000
  188.8730  176.1460  141.9540 C   0  0  1  0  0  3  0  0  0  0  0  0
  191.5520  174.3400  142.8910 C   0  0  0  0  0  0  0  0  0  0  0  0
  186.1320  178.4680  143.4450 C   0  0  0  0  0  0  0  0  0  0  0  0
  188.1110  174.8320  141.6940 C   0  0  0  0  0  2  0  0  0  0  0  0
  190.5870  173.8920  142.0800 N   0  0  0  0  0  0  0  0  0  0  0  0
  192.8580  174.4510  142.4080 C   0  0  0  0  0  0  0  0  0  0  0  0
  185.3330  179.0410  142.5120 F   0  0  0  0  0  0  0  0  0  0  0  0
  192.9810  176.7890  146.8880 C   0  0  0  0  0  3  0  0  0  0  0  0
  191.1680  174.9830  144.1060 N   0  0  0  0  0  0  0  0  0  0  0  0
  194.7320  176.0830  145.2490 C   0  0  0  0  0  3  0  0  0  0  0  0
  193.6100  175.5280  144.4170 C   0  0  0  0  0  0  0  0  0  0  0  0
  190.7770  173.7020  140.7640 C   0  0  0  0  0  0  0  0  0  0  0  0
  188.0750  177.1550  144.0200 C   0  0  0  0  0  0  0  0  0  0  0  0
  193.8790  175.0120  143.2510 N   0  0  0  0  0  0  0  0  0  0  0  0
  192.0360  173.7910  140.2530 N   0  0  0  0  0  0  0  0  0  0  0  0
  185.8260  178.5970  144.8060 C   0  0  0  0  0  3  0  0  0  0  0  0
  187.7900  177.2910  145.3830 C   0  0  0  0  0  3  0  0  0  0  0  0
  189.5870  173.7520  139.9020 C   0  0  0  0  0  3  0  0  0  0  0  0
  187.2770  177.7600  143.0690 C   0  0  0  0  0  0  0  0  0  0  0  0
  187.8160  177.5300  141.3840 S   0  0  0  0  0  0  0  0  0  0  0  0
  189.7370  175.2560  144.3250 C   0  0  0  0  0  2  0  0  0  0  0  0
  186.6580  178.0140  145.7830 C   0  0  0  0  0  0  0  0  0  0  0  0
  189.2360  176.4280  143.4460 C   0  0  1  0  0  3  0  0  0  0  0  0
  192.2040  175.5760  144.9090 C   0  0  1  0  0  3  0  0  0  0  0  0
  193.0920  174.1100  141.0620 C   0  0  0  0  0  0  0  0  0  0  0  0
  188.4010  174.2550  140.3150 C   0  0  0  0  0  3  0  0  0  0  0  0
  194.2630  176.7560  146.5130 C   0  0  0  0  0  3  0  0  0  0  0  0
  191.9240  176.1730  146.0710 C   0  0  0  0  0  3  0  0  0  0  0  0
  185.1570  178.6660  147.6380 C   0  0  0  0  0  1  0  0  0  0  0  0
  186.3810  178.1360  147.1470 O   0  0  0  0  0  0  0  0  0  0  0  0
  194.4630  174.1840  140.4820 C   0  0  0  0  0  2  0  0  0  0  0  0
  194.6430  175.4200  139.8620 O   0  0  0  0  0  1  0  0  0  0  0  0
  1  4  1  1  0  0  0
  1 23  1  0  0  0  0
  2  9  1  0  0  0  0
  3 16  1  0  0  0  0
  5  2  1  0  0  0  0
  6  2  2  0  0  0  0
  6 14  1  0  0  0  0
  7  3  1  0  0  0  0
  9 21  1  0  0  0  0
  9 24  1  0  0  0  0
 10 27  2  0  0  0  0
 11 24  1  0  0  0  0
 11 10  1  0  0  0  0
 12  5  2  0  0  0  0
 13 17  2  0  0  0  0
 14 11  2  0  0  0  0
 15 12  1  0  0  0  0
 15 25  2  0  0  0  0
 16 22  2  0  0  0  0
 17 22  1  0  0  0  0
 18 26  2  0  0  0  0
 18 12  1  0  0  0  0
 19  3  2  0  0  0  0
 19 13  1  0  0  0  0
 20  1  1  0  0  0  0
 20 19  1  0  0  0  0
 22 30  1  0  0  0  0
 23 13  1  0  0  0  0
 23 21  1  1  0  0  0
 24 28  1  6  0  0  0
 25  6  1  0  0  0  0
 26  4  1  0  0  0  0
 27  8  1  0  0  0  0
 28  8  2  0  0  0  0
 30 29  1  0  0  0  0
 31 25  1  0  0  0  0
 32 31  1  0  0  0  0
M  END
>  <MODEL>
2

>  <REMARK>
 VINA RESULT:      -8.2      2.641      5.063
  Name = 
  2 active torsions:
  status: ('A' for Active; 'I' for Inactive)
    1  A    between atoms: C_13  and  CA_29
    2  A    between atoms: O_15  and  C_26
                            x       y       z     vdW  Elec       q    Type
                         _______ _______ _______ _____ _____    ______ ____

>  <TORSDO>
F 2

$$$$
=
 OpenBabel11052419133D

 32 37  0  0  1  0  0  0  0  0999 V2000
  187.5030  175.5000  141.9700 C   0  0  1  0  0  3  0  0  0  0  0  0
  185.9390  178.3210  142.9270 C   0  0  0  0  0  0  0  0  0  0  0  0
  190.2390  173.0130  143.1780 C   0  0  0  0  0  0  0  0  0  0  0  0
  188.2260  176.3050  140.8720 C   0  0  0  0  0  2  0  0  0  0  0  0
  186.4350  178.1110  141.7010 N   0  0  0  0  0  0  0  0  0  0  0  0
  184.5650  178.5130  143.0890 C   0  0  0  0  0  0  0  0  0  0  0  0
  190.3780  171.9240  142.3820 F   0  0  0  0  0  0  0  0  0  0  0  0
  186.3150  177.9930  147.8020 C   0  0  0  0  0  3  0  0  0  0  0  0
  186.7710  178.0280  144.0500 N   0  0  0  0  0  0  0  0  0  0  0  0
  184.1130  178.6710  146.8320 C   0  0  0  0  0  3  0  0  0  0  0  0
  184.7480  178.4940  145.4810 C   0  0  0  0  0  0  0  0  0  0  0  0
  185.6520  177.9070  140.6300 C   0  0  0  0  0  0  0  0  0  0  0  0
  189.0540  175.0270  143.7860 C   0  0  0  0  0  0  0  0  0  0  0  0
  184.0210  178.6530  144.4120 N   0  0  0  0  0  0  0  0  0  0  0  0
  184.3080  178.0930  140.7410 N   0  0  0  0  0  0  0  0  0  0  0  0
  191.1520  173.2470  144.2140 C   0  0  0  0  0  3  0  0  0  0  0  0
  189.9490  175.2620  144.8350 C   0  0  0  0  0  3  0  0  0  0  0  0
  186.2400  177.1650  139.5040 C   0  0  0  0  0  3  0  0  0  0  0  0
  189.1790  173.9040  142.9910 C   0  0  0  0  0  0  0  0  0  0  0  0
  187.9210  173.7310  141.7380 S   0  0  0  0  0  0  0  0  0  0  0  0
  188.0640  177.3680  143.8030 C   0  0  0  0  0  2  0  0  0  0  0  0
  191.0070  174.3700  145.0520 C   0  0  0  0  0  0  0  0  0  0  0  0
  187.8850  175.8740  143.4370 C   0  0  1  0  0  3  0  0  0  0  0  0
  186.1890  178.1320  145.3620 C   0  0  1  0  0  3  0  0  0  0  0  0
  183.7530  178.4460  141.9400 C   0  0  0  0  0  0  0  0  0  0  0  0
  187.3850  176.4530  139.6110 C   0  0  0  0  0  3  0  0  0  0  0  0
  185.0370  178.3390  147.9760 C   0  0  0  0  0  3  0  0  0  0  0  0
  186.9120  177.8970  146.4610 C   0  0  0  0  0  3  0  0  0  0  0  0
  191.6050  175.5200  147.1590 C   0  0  0  0  0  1  0  0  0  0  0  0
  191.8990  174.6210  146.0990 O   0  0  0  0  0  0  0  0  0  0  0  0
  182.2810  178.6600  142.0310 C   0  0  0  0  0  2  0  0  0  0  0  0
  181.6370  177.9180  141.0430 O   0  0  0  0  0  1  0  0  0  0  0  0
  1  4  1  6  0  0  0
  1 23  1  0  0  0  0
  2  6  2  0  0  0  0
  2  9  1  0  0  0  0
  3 16  1  0  0  0  0
  5  2  1  0  0  0  0
  6 14  1  0  0  0  0
  7  3  1  0  0  0  0
  8 27  1  0  0  0  0
  9 24  1  0  0  0  0
 10 27  2  0  0  0  0
 11 10  1  0  0  0  0
 12 15  1  0  0  0  0
 12  5  2  0  0  0  0
 13 17  2  0  0  0  0
 14 11  2  0  0  0  0
 15 25  2  0  0  0  0
 16 22  2  0  0  0  0
 17 22  1  0  0  0  0
 18 26  2  0  0  0  0
 18 12  1  0  0  0  0
 19  3  2  0  0  0  0
 19 13  1  0  0  0  0
 20  1  1  0  0  0  0
 20 19  1  0  0  0  0
 21  9  1  0  0  0  0
 22 30  1  0  0  0  0
 23 13  1  0  0  0  0
 23 21  1  6  0  0  0
 24 11  1  0  0  0  0
 24 28  1  6  0  0  0
 25 31  1  0  0  0  0
 25  6  1  0  0  0  0
 26  4  1  0  0  0  0
 28  8  2  0  0  0  0
 30 29  1  0  0  0  0
 32 31  1  0  0  0  0
M  END
>  <MODEL>
3

>  <REMARK>
 VINA RESULT:      -8.1      3.354      8.198
  Name = 
  2 active torsions:
  status: ('A' for Active; 'I' for Inactive)
    1  A    between atoms: C_13  and  CA_29
    2  A    between atoms: O_15  and  C_26
                            x       y       z     vdW  Elec       q    Type
                         _______ _______ _______ _____ _____    ______ ____

>  <TORSDO>
F 2

$$$$
=
 OpenBabel11052419133D

 32 37  0  0  1  0  0  0  0  0999 V2000
  188.5290  176.0370  142.0090 C   0  0  1  0  0  3  0  0  0  0  0  0
  191.0810  174.3860  143.4510 C   0  0  0  0  0  0  0  0  0  0  0  0
  185.3600  178.0920  142.9370 C   0  0  0  0  0  0  0  0  0  0  0  0
  187.9450  174.6840  141.5550 C   0  0  0  0  0  2  0  0  0  0  0  0
  190.3480  173.9060  142.4390 N   0  0  0  0  0  0  0  0  0  0  0  0
  192.4460  174.6100  143.2650 C   0  0  0  0  0  0  0  0  0  0  0  0
  184.7360  178.6470  141.8700 F   0  0  0  0  0  0  0  0  0  0  0  0
  191.4290  176.7540  147.7280 C   0  0  0  0  0  3  0  0  0  0  0  0
  190.3970  174.9460  144.5730 N   0  0  0  0  0  0  0  0  0  0  0  0
  193.5390  176.2450  146.4870 C   0  0  0  0  0  3  0  0  0  0  0  0
  192.6660  175.6490  145.4170 C   0  0  0  0  0  0  0  0  0  0  0  0
  190.8280  173.7880  141.1910 C   0  0  0  0  0  0  0  0  0  0  0  0
  187.2320  176.8960  143.8810 C   0  0  0  0  0  0  0  0  0  0  0  0
  193.2180  175.2040  144.3230 N   0  0  0  0  0  0  0  0  0  0  0  0
  192.1560  173.9870  140.9660 N   0  0  0  0  0  0  0  0  0  0  0  0
  184.7620  178.1390  144.2030 C   0  0  0  0  0  3  0  0  0  0  0  0
  186.6540  176.9520  145.1540 C   0  0  0  0  0  3  0  0  0  0  0  0
  189.8490  173.7910  140.0940 C   0  0  0  0  0  3  0  0  0  0  0  0
  186.6100  177.4840  142.7970 C   0  0  0  0  0  0  0  0  0  0  0  0
  187.5130  177.3660  141.2630 S   0  0  0  0  0  0  0  0  0  0  0  0
  188.9350  175.1080  144.4850 C   0  0  0  0  0  2  0  0  0  0  0  0
  185.4100  177.5750  145.3200 C   0  0  0  0  0  0  0  0  0  0  0  0
  188.5430  176.2780  143.5510 C   0  0  1  0  0  3  0  0  0  0  0  0
  191.1880  175.5760  145.5960 C   0  0  1  0  0  3  0  0  0  0  0  0
  192.9870  174.3440  141.9920 C   0  0  0  0  0  0  0  0  0  0  0  0
  188.5660  174.1900  140.2560 C   0  0  0  0  0  3  0  0  0  0  0  0
  192.7600  176.8280  147.6380 C   0  0  0  0  0  3  0  0  0  0  0  0
  190.6210  176.1000  146.6860 C   0  0  0  0  0  3  0  0  0  0  0  0
  185.2180  178.5760  147.5730 C   0  0  0  0  0  1  0  0  0  0  0  0
  184.8400  177.6180  146.5940 O   0  0  0  0  0  0  0  0  0  0  0  0
  194.4400  174.5410  141.7230 C   0  0  0  0  0  2  0  0  0  0  0  0
  194.6560  175.8280  141.2330 O   0  0  0  0  0  1  0  0  0  0  0  0
  1  4  1  1  0  0  0
  1 23  1  0  0  0  0
  2  9  1  0  0  0  0
  3 16  1  0  0  0  0
  5  2  1  0  0  0  0
  6  2  2  0  0  0  0
  6 14  1  0  0  0  0
  7  3  1  0  0  0  0
  9 24  1  0  0  0  0
 10 27  2  0  0  0  0
 11 24  1  0  0  0  0
 11 10  1  0  0  0  0
 12  5  2  0  0  0  0
 13 17  2  0  0  0  0
 14 11  2  0  0  0  0
 15 12  1  0  0  0  0
 15 25  2  0  0  0  0
 16 22  2  0  0  0  0
 17 22  1  0  0  0  0
 18 26  2  0  0  0  0
 18 12  1  0  0  0  0
 19  3  2  0  0  0  0
 19 13  1  0  0  0  0
 20  1  1  0  0  0  0
 20 19  1  0  0  0  0
 21  9  1  0  0  0  0
 22 30  1  0  0  0  0
 23 13  1  0  0  0  0
 23 21  1  1  0  0  0
 24 28  1  6  0  0  0
 25  6  1  0  0  0  0
 26  4  1  0  0  0  0
 27  8  1  0  0  0  0
 28  8  2  0  0  0  0
 30 29  1  0  0  0  0
 31 25  1  0  0  0  0
 32 31  1  0  0  0  0
M  END
>  <MODEL>
4

>  <REMARK>
 VINA RESULT:      -8.0      2.287      4.927
  Name = 
  2 active torsions:
  status: ('A' for Active; 'I' for Inactive)
    1  A    between atoms: C_13  and  CA_29
    2  A    between atoms: O_15  and  C_26
                            x       y       z     vdW  Elec       q    Type
                         _______ _______ _______ _____ _____    ______ ____

>  <TORSDO>
F 2

$$$$
=
 OpenBabel11052419133D

 32 37  0  0  1  0  0  0  0  0999 V2000
  190.9740  175.9580  144.2380 C   0  0  1  0  0  3  0  0  0  0  0  0
  188.3180  174.9960  142.4080 C   0  0  0  0  0  0  0  0  0  0  0  0
  194.3150  174.5680  145.6620 C   0  0  0  0  0  0  0  0  0  0  0  0
  190.0630  176.0140  145.4800 C   0  0  0  0  0  2  0  0  0  0  0  0
  188.2360  175.6850  143.5530 N   0  0  0  0  0  0  0  0  0  0  0  0
  187.8540  175.5720  141.2240 C   0  0  0  0  0  0  0  0  0  0  0  0
  195.0860  175.5060  146.2630 F   0  0  0  0  0  0  0  0  0  0  0  0
  190.2890  171.4080  139.7130 C   0  0  0  0  0  3  0  0  0  0  0  0
  189.1560  173.8400  142.3760 N   0  0  0  0  0  0  0  0  0  0  0  0
  188.8080  173.0660  138.5680 C   0  0  0  0  0  2  0  0  0  0  0  0
  188.6900  173.7540  139.9000 C   0  0  0  0  0  0  0  0  0  0  0  0
  187.8820  176.9800  143.5930 C   0  0  0  0  0  0  0  0  0  0  0  0
  192.3780  173.9730  144.3490 C   0  0  0  0  0  0  0  0  0  0  0  0
  188.0190  174.8670  139.9820 N   0  0  0  0  0  0  0  0  0  0  0  0
  187.4140  177.5790  142.4640 N   0  0  0  0  0  0  0  0  0  0  0  0
  194.6630  173.2140  145.7470 C   0  0  0  0  0  3  0  0  0  0  0  0
  192.7250  172.6190  144.4110 C   0  0  0  0  0  3  0  0  0  0  0  0
  188.3410  177.7630  144.7510 C   0  0  0  0  0  3  0  0  0  0  0  0
  193.1770  174.9330  144.9380 C   0  0  0  0  0  0  0  0  0  0  0  0
  192.6170  176.6120  144.7150 S   0  0  0  0  0  0  0  0  0  0  0  0
  190.0010  173.5610  143.5510 C   0  0  0  0  0  2  0  0  0  0  0  0
  193.8730  172.2330  145.1150 C   0  0  0  0  0  0  0  0  0  0  0  0
  191.2010  174.5340  143.6380 C   0  0  1  0  0  3  0  0  0  0  0  0
  189.3410  173.1790  141.1120 C   0  0  0  0  0  0  0  0  0  0  0  0
  187.3420  176.8820  141.2890 C   0  0  0  0  0  0  0  0  0  0  0  0
  189.3110  177.3340  145.5900 C   0  0  0  0  0  3  0  0  0  0  0  0
  189.7110  171.8590  138.5970 C   0  0  0  0  0  3  0  0  0  0  0  0
  190.0900  172.0780  141.0080 C   0  0  0  0  0  3  0  0  0  0  0  0
  195.4330  170.4090  145.7150 C   0  0  0  0  0  1  0  0  0  0  0  0
  194.2050  170.8770  145.1750 O   0  0  0  0  0  0  0  0  0  0  0  0
  186.8090  177.5550  140.0700 C   0  0  0  0  0  2  0  0  0  0  0  0
  185.6670  178.2830  140.3980 O   0  0  0  0  0  1  0  0  0  0  0  0
  1 20  1  0  0  0  0
  1  4  1  1  0  0  0
  2  5  1  0  0  0  0
  3 16  1  0  0  0  0
  3  7  1  0  0  0  0
  4 26  1  0  0  0  0
  5 12  2  0  0  0  0
  6 25  1  0  0  0  0
  6  2  2  0  0  0  0
  8 28  1  0  0  0  0
  9  2  1  0  0  0  0
  9 21  1  0  0  0  0
 10 27  1  0  0  0  0
 10 11  1  0  0  0  0
 11 14  2  0  0  0  0
 11 24  1  0  0  0  0
 12 18  1  0  0  0  0
 13 17  2  0  0  0  0
 13 19  1  0  0  0  0
 14  6  1  0  0  0  0
 15 12  1  0  0  0  0
 17 22  1  0  0  0  0
 18 26  2  0  0  0  0
 19  3  2  0  0  0  0
 20 19  1  0  0  0  0
 22 30  1  0  0  0  0
 22 16  2  0  0  0  0
 23 21  1  1  0  0  0
 23  1  1  0  0  0  0
 23 13  1  0  0  0  0
 24  9  1  0  0  0  0
 25 15  2  0  0  0  0
 27  8  2  0  0  0  0
 28 24  2  0  0  0  0
 30 29  1  0  0  0  0
 31 32  1  0  0  0  0
 31 25  1  0  0  0  0
M  END
>  <MODEL>
5

>  <REMARK>
 VINA RESULT:      -7.7      2.938      6.898
  Name = 
  2 active torsions:
  status: ('A' for Active; 'I' for Inactive)
    1  A    between atoms: C_13  and  CA_29
    2  A    between atoms: O_15  and  C_26
                            x       y       z     vdW  Elec       q    Type
                         _______ _______ _______ _____ _____    ______ ____

>  <TORSDO>
F 2

$$$$
=
 OpenBabel11052419133D

 32 37  0  0  1  0  0  0  0  0999 V2000
  190.5410  175.3120  145.7110 C   0  0  1  0  0  3  0  0  0  0  0  0
  192.5300  174.4600  143.1340 C   0  0  0  0  0  0  0  0  0  0  0  0
  186.9220  176.5270  146.4520 C   0  0  0  0  0  0  0  0  0  0  0  0
  191.3830  176.5890  145.9030 C   0  0  0  0  0  2  0  0  0  0  0  0
  192.8970  175.2700  144.1340 N   0  0  0  0  0  0  0  0  0  0  0  0
  193.2010  173.2500  142.9480 C   0  0  0  0  0  0  0  0  0  0  0  0
  186.6280  176.5980  147.7730 F   0  0  0  0  0  0  0  0  0  0  0  0
  189.2160  172.9510  139.8540 C   0  0  0  0  0  3  0  0  0  0  0  0
  191.2760  174.7030  142.4950 N   0  0  0  0  0  0  0  0  0  0  0  0
  191.2700  171.5640  140.1780 C   0  0  0  0  0  2  0  0  0  0  0  0
  191.6680  172.5520  141.2390 C   0  0  0  0  0  0  0  0  0  0  0  0
  193.7740  174.8990  145.0800 C   0  0  0  0  0  0  0  0  0  0  0  0
  188.4180  175.8860  144.6690 C   0  0  0  0  0  0  0  0  0  0  0  0
  192.7540  172.3410  141.9280 N   0  0  0  0  0  0  0  0  0  0  0  0
  194.4590  173.7320  144.9340 N   0  0  0  0  0  0  0  0  0  0  0  0
  186.0240  177.0350  145.5050 C   0  0  0  0  0  3  0  0  0  0  0  0
  187.5210  176.3730  143.7120 C   0  0  0  0  0  3  0  0  0  0  0  0
  193.6930  175.5910  146.3760 C   0  0  0  0  0  3  0  0  0  0  0  0
  188.1090  175.9330  146.0140 C   0  0  0  0  0  0  0  0  0  0  0  0
  189.3390  175.2180  147.0900 S   0  0  0  0  0  0  0  0  0  0  0  0
  190.3890  175.7280  143.0720 C   0  0  0  0  0  2  0  0  0  0  0  0
  186.3160  176.9540  144.1290 C   0  0  0  0  0  0  0  0  0  0  0  0
  189.7250  175.2400  144.3820 C   0  0  1  0  0  3  0  0  0  0  0  0
  190.8290  173.7540  141.5110 C   0  0  0  0  0  0  0  0  0  0  0  0
  194.2280  172.9230  143.8550 C   0  0  0  0  0  0  0  0  0  0  0  0
  192.6300  176.3430  146.7420 C   0  0  0  0  0  3  0  0  0  0  0  0
  189.9360  171.8690  139.5480 C   0  0  0  0  0  3  0  0  0  0  0  0
  189.6790  173.9270  140.8530 C   0  0  0  0  0  3  0  0  0  0  0  0
  185.3070  178.8280  142.8690 C   0  0  0  0  0  1  0  0  0  0  0  0
  185.4330  177.4440  143.1640 O   0  0  0  0  0  0  0  0  0  0  0  0
  195.0030  171.6590  143.7080 C   0  0  0  0  0  2  0  0  0  0  0  0
  194.4800  170.6870  144.5610 O   0  0  0  0  0  1  0  0  0  0  0  0
  1  4  1  6  0  0  0
  1 20  1  0  0  0  0
  2  5  1  0  0  0  0
  3  7  1  0  0  0  0
  4 26  1  0  0  0  0
  5 12  2  0  0  0  0
  6  2  2  0  0  0  0
  6 25  1  0  0  0  0
  8 28  1  0  0  0  0
  9 21  1  0  0  0  0
  9  2  1  0  0  0  0
 10 11  1  0  0  0  0
 11 24  1  0  0  0  0
 11 14  2  0  0  0  0
 12 18  1  0  0  0  0
 13 19  2  0  0  0  0
 14  6  1  0  0  0  0
 15 12  1  0  0  0  0
 16  3  2  0  0  0  0
 17 22  2  0  0  0  0
 17 13  1  0  0  0  0
 18 26  2  0  0  0  0
 19  3  1  0  0  0  0
 19 20  1  0  0  0  0
 22 16  1  0  0  0  0
 23 21  1  6  0  0  0
 23 13  1  0  0  0  0
 23  1  1  0  0  0  0
 24  9  1  0  0  0  0
 25 15  2  0  0  0  0
 27  8  2  0  0  0  0
 27 10  1  0  0  0  0
 28 24  2  0  0  0  0
 29 30  1  0  0  0  0
 30 22  1  0  0  0  0
 31 25  1  0  0  0  0
 31 32  1  0  0  0  0
M  END
>  <MODEL>
6

>  <REMARK>
 VINA RESULT:      -7.7      1.492      1.901
  Name = 
  2 active torsions:
  status: ('A' for Active; 'I' for Inactive)
    1  A    between atoms: C_13  and  CA_29
    2  A    between atoms: O_15  and  C_26
                            x       y       z     vdW  Elec       q    Type
                         _______ _______ _______ _____ _____    ______ ____

>  <TORSDO>
F 2

$$$$
=
 OpenBabel11052419133D

 32 37  0  0  1  0  0  0  0  0999 V2000
  191.9540  175.6330  145.2970 C   0  0  1  0  0  3  0  0  0  0  0  0
  188.9410  175.2220  143.8570 C   0  0  0  0  0  0  0  0  0  0  0  0
  195.3480  173.7920  145.7630 C   0  0  0  0  0  0  0  0  0  0  0  0
  191.2850  175.4820  146.6780 C   0  0  0  0  0  2  0  0  0  0  0  0
  189.1260  175.6630  145.1070 N   0  0  0  0  0  0  0  0  0  0  0  0
  188.3320  176.0560  142.9170 C   0  0  0  0  0  0  0  0  0  0  0  0
  196.2970  174.5410  146.3760 F   0  0  0  0  0  0  0  0  0  0  0  0
  190.0630  172.1650  140.1950 C   0  0  0  0  0  3  0  0  0  0  0  0
  189.6480  174.0520  143.4430 N   0  0  0  0  0  0  0  0  0  0  0  0
  188.5660  174.1040  139.6950 C   0  0  0  0  0  2  0  0  0  0  0  0
  188.7490  174.5070  141.1320 C   0  0  0  0  0  0  0  0  0  0  0  0
  188.9070  176.9390  145.4640 C   0  0  0  0  0  0  0  0  0  0  0  0
  193.1640  173.5920  144.7530 C   0  0  0  0  0  0  0  0  0  0  0  0
  188.2090  175.6160  141.5540 N   0  0  0  0  0  0  0  0  0  0  0  0
  188.3060  177.7840  144.5820 N   0  0  0  0  0  0  0  0  0  0  0  0
  195.5770  172.4320  145.5160 C   0  0  0  0  0  3  0  0  0  0  0  0
  193.3880  172.2380  144.4850 C   0  0  0  0  0  3  0  0  0  0  0  0
  189.6330  177.4380  146.6420 C   0  0  0  0  0  3  0  0  0  0  0  0
  194.1400  174.3630  145.3530 C   0  0  0  0  0  0  0  0  0  0  0  0
  193.7090  176.0810  145.5690 S   0  0  0  0  0  0  0  0  0  0  0  0
  190.6550  173.4890  144.3590 C   0  0  0  0  0  2  0  0  0  0  0  0
  194.6000  171.6500  144.8690 C   0  0  0  0  0  0  0  0  0  0  0  0
  191.9380  174.3540  144.4020 C   0  0  1  0  0  3  0  0  0  0  0  0
  189.5450  173.6590  142.0640 C   0  0  0  0  0  0  0  0  0  0  0  0
  187.9640  177.3510  143.3300 C   0  0  0  0  0  0  0  0  0  0  0  0
  190.6900  176.7900  147.1820 C   0  0  0  0  0  3  0  0  0  0  0  0
  189.3430  172.8690  139.3170 C   0  0  0  0  0  3  0  0  0  0  0  0
  190.1580  172.5620  141.6080 C   0  0  0  0  0  3  0  0  0  0  0  0
  193.7870  169.3170  144.7450 C   0  0  0  0  0  1  0  0  0  0  0  0
  194.8090  170.2940  144.6020 O   0  0  0  0  0  0  0  0  0  0  0  0
  187.2920  178.2910  142.3890 C   0  0  0  0  0  2  0  0  0  0  0  0
  186.3110  179.0130  143.0680 O   0  0  0  0  0  1  0  0  0  0  0  0
  1 20  1  0  0  0  0
  1  4  1  1  0  0  0
  2  5  1  0  0  0  0
  3  7  1  0  0  0  0
  4 26  1  0  0  0  0
  5 12  2  0  0  0  0
  6 25  1  0  0  0  0
  6  2  2  0  0  0  0
  8 28  1  0  0  0  0
  9  2  1  0  0  0  0
  9 21  1  0  0  0  0
 10 11  1  0  0  0  0
 11 14  2  0  0  0  0
 11 24  1  0  0  0  0
 12 18  1  0  0  0  0
 13 19  1  0  0  0  0
 14  6  1  0  0  0  0
 15 12  1  0  0  0  0
 16  3  1  0  0  0  0
 17 13  2  0  0  0  0
 17 22  1  0  0  0  0
 18 26  2  0  0  0  0
 19 20  1  0  0  0  0
 19  3  2  0  0  0  0
 22 16  2  0  0  0  0
 23 21  1  1  0  0  0
 23 13  1  0  0  0  0
 23  1  1  0  0  0  0
 24  9  1  0  0  0  0
 25 15  2  0  0  0  0
 27 10  1  0  0  0  0
 27  8  2  0  0  0  0
 28 24  2  0  0  0  0
 30 29  1  0  0  0  0
 30 22  1  0  0  0  0
 31 32  1  0  0  0  0
 31 25  1  0  0  0  0
M  END
>  <MODEL>
7

>  <REMARK>
 VINA RESULT:      -7.6      3.021      6.996
  Name = 
  2 active torsions:
  status: ('A' for Active; 'I' for Inactive)
    1  A    between atoms: C_13  and  CA_29
    2  A    between atoms: O_15  and  C_26
                            x       y       z     vdW  Elec       q    Type
                         _______ _______ _______ _____ _____    ______ ____

>  <TORSDO>
F 2

$$$$
=
 OpenBabel11052419133D

 32 37  0  0  1  0  0  0  0  0999 V2000
  188.1540  175.2660  142.2530 C   0  0  1  0  0  3  0  0  0  0  0  0
  188.7560  177.5490  144.6500 C   0  0  0  0  0  0  0  0  0  0  0  0
  190.0310  172.8550  139.8470 C   0  0  0  0  0  0  0  0  0  0  0  0
  187.7010  176.4050  141.3200 C   0  0  0  0  0  2  0  0  0  0  0  0
  187.8980  177.7260  143.6380 N   0  0  0  0  0  0  0  0  0  0  0  0
  188.2800  177.5430  145.9620 C   0  0  0  0  0  0  0  0  0  0  0  0
  189.2110  172.0370  139.1430 F   0  0  0  0  0  0  0  0  0  0  0  0
  193.0710  175.9840  146.3700 C   0  0  0  0  0  3  0  0  0  0  0  0
  190.0640  177.0600  144.3480 N   0  0  0  0  0  0  0  0  0  0  0  0
  191.3160  176.6550  148.0210 C   0  0  0  0  0  3  0  0  0  0  0  0
  190.4220  176.9120  146.8390 C   0  0  0  0  0  0  0  0  0  0  0  0
  186.5670  177.7290  143.8120 C   0  0  0  0  0  0  0  0  0  0  0  0
  190.3640  174.4970  141.5850 C   0  0  0  0  0  0  0  0  0  0  0  0
  189.1860  177.2690  147.0440 N   0  0  0  0  0  0  0  0  0  0  0  0
  186.0590  177.7350  145.0750 N   0  0  0  0  0  0  0  0  0  0  0  0
  191.3990  172.9020  139.5510 C   0  0  0  0  0  3  0  0  0  0  0  0
  191.7350  174.5400  141.3100 C   0  0  0  0  0  3  0  0  0  0  0  0
  185.7400  177.3800  142.6470 C   0  0  0  0  0  3  0  0  0  0  0  0
  189.5320  173.6450  140.8860 C   0  0  0  0  0  0  0  0  0  0  0  0
  187.8250  173.6770  141.4030 S   0  0  0  0  0  0  0  0  0  0  0  0
  190.3420  176.6300  142.9670 C   0  0  0  0  0  2  0  0  0  0  0  0
  192.2600  173.7410  140.2860 C   0  0  0  0  0  0  0  0  0  0  0  0
  189.6670  175.2770  142.6390 C   0  0  1  0  0  3  0  0  0  0  0  0
  190.9360  176.7500  145.4490 C   0  0  1  0  0  3  0  0  0  0  0  0
  186.8930  177.6960  146.1580 C   0  0  0  0  0  0  0  0  0  0  0  0
  186.2440  176.7910  141.5380 C   0  0  0  0  0  3  0  0  0  0  0  0
  192.6770  176.1330  147.6380 C   0  0  0  0  0  3  0  0  0  0  0  0
  192.1810  176.3110  145.2450 C   0  0  0  0  0  3  0  0  0  0  0  0
  194.3780  175.0050  140.0990 C   0  0  0  0  0  1  0  0  0  0  0  0
  193.6300  173.8000  140.0170 O   0  0  0  0  0  0  0  0  0  0  0  0
  186.3130  177.7200  147.5310 C   0  0  0  0  0  2  0  0  0  0  0  0
  185.2150  178.5790  147.5600 O   0  0  0  0  0  1  0  0  0  0  0  0
  1  4  1  6  0  0  0
  1 23  1  0  0  0  0
  2  6  2  0  0  0  0
  3 19  1  0  0  0  0
  4 26  1  0  0  0  0
  5 12  2  0  0  0  0
  5  2  1  0  0  0  0
  6 25  1  0  0  0  0
  6 14  1  0  0  0  0
  7  3  1  0  0  0  0
  8 27  1  0  0  0  0
  9  2  1  0  0  0  0
  9 24  1  0  0  0  0
 11 14  2  0  0  0  0
 11 10  1  0  0  0  0
 12 15  1  0  0  0  0
 13 23  1  0  0  0  0
 15 25  2  0  0  0  0
 16  3  2  0  0  0  0
 16 22  1  0  0  0  0
 17 13  1  0  0  0  0
 18 12  1  0  0  0  0
 19 20  1  0  0  0  0
 19 13  2  0  0  0  0
 20  1  1  0  0  0  0
 21  9  1  0  0  0  0
 22 17  2  0  0  0  0
 23 21  1  6  0  0  0
 24 28  1  6  0  0  0
 24 11  1  0  0  0  0
 25 31  1  0  0  0  0
 26 18  2  0  0  0  0
 27 10  2  0  0  0  0
 28  8  2  0  0  0  0
 30 29  1  0  0  0  0
 30 22  1  0  0  0  0
 31 32  1  0  0  0  0
M  END
>  <MODEL>
8

>  <REMARK>
 VINA RESULT:      -7.5      3.262      7.247
  Name = 
  2 active torsions:
  status: ('A' for Active; 'I' for Inactive)
    1  A    between atoms: C_13  and  CA_29
    2  A    between atoms: O_15  and  C_26
                            x       y       z     vdW  Elec       q    Type
                         _______ _______ _______ _____ _____    ______ ____

>  <TORSDO>
F 2

$$$$
=
 OpenBabel11052419133D

 32 37  0  0  1  0  0  0  0  0999 V2000
  191.0020  176.1030  144.6710 C   0  0  1  0  0  3  0  0  0  0  0  0
  187.6410  176.1770  144.5530 C   0  0  0  0  0  0  0  0  0  0  0  0
  194.0790  175.2620  142.4460 C   0  0  0  0  0  0  0  0  0  0  0  0
  190.9150  174.8900  145.6170 C   0  0  0  0  0  2  0  0  0  0  0  0
  188.3490  175.6430  145.5550 N   0  0  0  0  0  0  0  0  0  0  0  0
  186.8090  177.2700  144.8050 C   0  0  0  0  0  0  0  0  0  0  0  0
  195.2690  175.5500  143.0270 F   0  0  0  0  0  0  0  0  0  0  0  0
  186.8890  176.9020  139.7640 C   0  0  0  0  0  3  0  0  0  0  0  0
  187.9930  175.8240  143.2150 N   0  0  0  0  0  0  0  0  0  0  0  0
  185.5420  178.2460  141.3860 C   0  0  0  0  0  2  0  0  0  0  0  0
  186.3170  177.5550  142.4730 C   0  0  0  0  0  0  0  0  0  0  0  0
  188.4310  176.2140  146.7670 C   0  0  0  0  0  0  0  0  0  0  0  0
  191.6670  175.3590  142.4510 C   0  0  0  0  0  0  0  0  0  0  0  0
  186.1140  177.8980  143.7140 N   0  0  0  0  0  0  0  0  0  0  0  0
  187.6300  177.2760  147.0590 N   0  0  0  0  0  0  0  0  0  0  0  0
  194.0400  174.5590  141.2350 C   0  0  0  0  0  3  0  0  0  0  0  0
  191.6150  174.6730  141.2330 C   0  0  0  0  0  3  0  0  0  0  0  0
  189.6110  175.8880  147.5820 C   0  0  0  0  0  3  0  0  0  0  0  0
  192.8790  175.6750  143.0310 C   0  0  0  0  0  0  0  0  0  0  0  0
  192.7620  176.6000  144.5530 S   0  0  0  0  0  0  0  0  0  0  0  0
  189.2100  175.0190  143.0070 C   0  0  0  0  0  2  0  0  0  0  0  0
  192.8070  174.2670  140.6190 C   0  0  0  0  0  0  0  0  0  0  0  0
  190.4940  175.8560  143.2160 C   0  0  1  0  0  3  0  0  0  0  0  0
  187.3150  176.4990  142.1410 C   0  0  0  0  0  0  0  0  0  0  0  0
  186.7790  177.7830  146.1160 C   0  0  0  0  0  0  0  0  0  0  0  0
  190.7160  175.2990  147.0710 C   0  0  0  0  0  3  0  0  0  0  0  0
  185.9660  177.8390  139.9980 C   0  0  0  0  0  3  0  0  0  0  0  0
  187.5740  176.2040  140.8640 C   0  0  0  0  0  3  0  0  0  0  0  0
  191.5120  173.2540  138.7710 C   0  0  0  0  0  1  0  0  0  0  0  0
  192.7420  173.5760  139.4060 O   0  0  0  0  0  0  0  0  0  0  0  0
  185.9010  178.9350  146.4660 C   0  0  0  0  0  2  0  0  0  0  0  0
  184.6410  178.4680  146.8400 O   0  0  0  0  0  1  0  0  0  0  0  0
  1  4  1  1  0  0  0
  2  6  2  0  0  0  0
  2  5  1  0  0  0  0
  3  7  1  0  0  0  0
  3 19  1  0  0  0  0
  4 26  1  0  0  0  0
  5 12  2  0  0  0  0
  6 25  1  0  0  0  0
  8 27  2  0  0  0  0
  8 28  1  0  0  0  0
  9  2  1  0  0  0  0
 10 11  1  0  0  0  0
 11 14  2  0  0  0  0
 12 15  1  0  0  0  0
 12 18  1  0  0  0  0
 13 19  2  0  0  0  0
 13 23  1  0  0  0  0
 14  6  1  0  0  0  0
 16  3  2  0  0  0  0
 17 13  1  0  0  0  0
 19 20  1  0  0  0  0
 20  1  1  0  0  0  0
 21  9  1  0  0  0  0
 22 17  2  0  0  0  0
 22 16  1  0  0  0  0
 23 21  1  1  0  0  0
 23  1  1  0  0  0  0
 24 11  1  0  0  0  0
 24  9  1  0  0  0  0
 25 31  1  0  0  0  0
 25 15  2  0  0  0  0
 26 18  2  0  0  0  0
 27 10  1  0  0  0  0
 28 24  2  0  0  0  0
 29 30  1  0  0  0  0
 30 22  1  0  0  0  0
 31 32  1  0  0  0  0
M  END
>  <MODEL>
9

>  <REMARK>
 VINA RESULT:      -7.3      3.427      6.626
  Name = 
  2 active torsions:
  status: ('A' for Active; 'I' for Inactive)
    1  A    between atoms: C_13  and  CA_29
    2  A    between atoms: O_15  and  C_26
                            x       y       z     vdW  Elec       q    Type
                         _______ _______ _______ _____ _____    ______ ____

>  <TORSDO>
F 2

$$$$
