=
 OpenBabel11052417093D

 30 32  0  0  1  0  0  0  0  0999 V2000
  188.2090  176.4350  144.3290 C   0  0  1  0  0  3  0  0  0  0  0  0
  190.6800  175.8290  144.3940 C   0  0  2  0  0  3  0  0  0  0  0  0
  187.7790  176.0730  142.9850 N   0  0  0  0  0  2  0  0  0  0  0  0
  190.2820  173.7530  141.3860 C   0  0  0  0  0  3  0  0  0  0  0  0
  189.6590  174.5270  142.3730 C   0  0  0  0  0  0  0  0  0  0  0  0
  187.9440  175.1330  140.7620 C   0  0  0  0  0  3  0  0  0  0  0  0
  188.4700  175.2290  142.0560 C   0  0  0  0  0  0  0  0  0  0  0  0
  190.2760  174.4980  143.7400 C   0  0  2  0  0  3  0  0  0  0  0  0
  189.7480  173.6710  140.0990 C   0  0  0  0  0  3  0  0  0  0  0  0
  188.5770  174.3610  139.7880 C   0  0  0  0  0  3  0  0  0  0  0  0
  189.6510  176.9670  144.3230 C   0  0  2  0  0  3  0  0  0  0  0  0
  186.7130  177.2220  146.2610 C   0  0  0  0  0  0  0  0  0  0  0  0
  185.7750  178.1320  146.7600 C   0  0  0  0  0  3  0  0  0  0  0  0
  187.2230  175.9080  147.3130 Cl  0  0  0  0  0  0  0  0  0  0  0  0
  186.7550  178.4430  144.1630 C   0  0  0  0  0  3  0  0  0  0  0  0
  185.3870  180.3760  143.9000 F   0  0  0  0  0  0  0  0  0  0  0  0
  187.2110  177.3780  144.9470 C   0  0  0  0  0  0  0  0  0  0  0  0
  185.3300  179.1930  145.9670 C   0  0  0  0  0  3  0  0  0  0  0  0
  185.8200  179.3480  144.6700 C   0  0  0  0  0  0  0  0  0  0  0  0
  189.8040  173.6940  146.1270 C   0  0  0  0  0  1  0  0  0  0  0  0
  189.8130  173.3510  144.6480 C   0  0  2  0  0  3  0  0  0  0  0  0
  190.5690  172.0530  144.3780 C   0  0  0  0  0  2  0  0  0  0  0  0
  191.9400  172.2180  144.5870 O   0  0  0  0  0  1  0  0  0  0  0  0
  189.8720  177.8430  145.4200 O   0  0  0  0  0  0  0  0  0  0  0  0
  190.6880  176.9200  147.6780 C   0  0  0  0  0  3  0  0  0  0  0  0
  190.3060  177.3540  146.6210 C   0  0  0  0  0  0  0  0  0  0  0  0
  192.0180  176.2770  143.8210 C   0  0  0  0  0  2  0  0  0  0  0  0
  193.8820  174.8670  143.5060 O   0  0  0  0  0  0  0  0  0  0  0  0
  193.1360  175.4120  144.3030 C   0  0  0  0  0  0  0  0  0  0  0  0
  193.3680  175.2470  145.7660 C   0  0  0  0  0  1  0  0  0  0  0  0
  1 17  1  6  0  0  0
  2 27  1  6  0  0  0
  3  1  1  0  0  0  0
  4  5  1  0  0  0  0
  5  8  1  0  0  0  0
  6  7  1  0  0  0  0
  7  5  2  0  0  0  0
  7  3  1  0  0  0  0
  8  2  1  0  0  0  0
  8 21  1  1  0  0  0
  9  4  2  0  0  0  0
 10  9  1  0  0  0  0
 10  6  2  0  0  0  0
 11  1  1  0  0  0  0
 11  2  1  0  0  0  0
 11 24  1  1  0  0  0
 12 13  1  0  0  0  0
 12 14  1  0  0  0  0
 15 19  2  0  0  0  0
 15 17  1  0  0  0  0
 16 19  1  0  0  0  0
 17 12  2  0  0  0  0
 18 13  2  0  0  0  0
 19 18  1  0  0  0  0
 21 20  1  1  0  0  0
 22 23  1  0  0  0  0
 22 21  1  0  0  0  0
 24 26  1  0  0  0  0
 26 25  3  0  0  0  0
 27 29  1  0  0  0  0
 28 29  2  0  0  0  0
 29 30  1  0  0  0  0
M  END
>  <MODEL>
1

>  <REMARK>
 VINA RESULT:      -6.7      0.000      0.000
  Name = 
  7 active torsions:
  status: ('A' for Active; 'I' for Inactive)
    1  A    between atoms: C_1  and  C_22
    2  A    between atoms: C_4  and  C_25
    3  A    between atoms: C_7  and  C_30
    4  A    between atoms: O_10  and  C_23
    5  A    between atoms: O_10  and  C_26
    6  A    between atoms: C_11  and  C_25
    7  A    between atoms: C_13  and  C_30
                            x       y       z     vdW  Elec       q    Type
                         _______ _______ _______ _____ _____    ______ ____

>  <TORSDO>
F 7

$$$$
=
 OpenBabel11052417093D

 30 32  0  0  1  0  0  0  0  0999 V2000
  188.0030  176.2080  143.6170 C   0  0  1  0  0  3  0  0  0  0  0  0
  190.5010  175.9410  144.0260 C   0  0  2  0  0  3  0  0  0  0  0  0
  187.7900  175.6610  142.2840 N   0  0  0  0  0  2  0  0  0  0  0  0
  190.7290  173.5430  141.2480 C   0  0  0  0  0  3  0  0  0  0  0  0
  189.9010  174.3220  142.0650 C   0  0  0  0  0  0  0  0  0  0  0  0
  188.3410  174.5350  140.2150 C   0  0  0  0  0  3  0  0  0  0  0  0
  188.6860  174.8280  141.5400 C   0  0  0  0  0  0  0  0  0  0  0  0
  190.3420  174.5100  143.4870 C   0  0  2  0  0  3  0  0  0  0  0  0
  190.3740  173.2640  139.9280 C   0  0  0  0  0  3  0  0  0  0  0  0
  189.1770  173.7600  139.4120 C   0  0  0  0  0  3  0  0  0  0  0  0
  189.3610  176.9210  143.7120 C   0  0  2  0  0  3  0  0  0  0  0  0
  186.4060  178.1860  143.2560 C   0  0  0  0  0  0  0  0  0  0  0  0
  185.3160  178.9450  143.6960 C   0  0  0  0  0  3  0  0  0  0  0  0
  187.2040  178.6780  141.7680 Cl  0  0  0  0  0  0  0  0  0  0  0  0
  186.1530  176.7380  145.1890 C   0  0  0  0  0  3  0  0  0  0  0  0
  184.4170  177.1710  146.7620 F   0  0  0  0  0  0  0  0  0  0  0  0
  186.8310  177.0680  144.0100 C   0  0  0  0  0  0  0  0  0  0  0  0
  184.6470  178.6040  144.8740 C   0  0  0  0  0  3  0  0  0  0  0  0
  185.0660  177.5020  145.6190 C   0  0  0  0  0  0  0  0  0  0  0  0
  189.7120  173.8840  145.8910 C   0  0  0  0  0  1  0  0  0  0  0  0
  189.9090  173.4080  144.4630 C   0  0  2  0  0  3  0  0  0  0  0  0
  190.8180  172.1840  144.4000 C   0  0  0  0  0  2  0  0  0  0  0  0
  192.1470  172.5330  144.6500 O   0  0  0  0  0  1  0  0  0  0  0  0
  189.3390  177.9230  144.7200 O   0  0  0  0  0  0  0  0  0  0  0  0
  189.8210  177.3160  147.1720 C   0  0  0  0  0  3  0  0  0  0  0  0
  189.5970  177.6000  146.0230 C   0  0  0  0  0  0  0  0  0  0  0  0
  191.8370  176.5020  143.5570 C   0  0  0  0  0  2  0  0  0  0  0  0
  193.9400  175.4420  143.6950 O   0  0  0  0  0  0  0  0  0  0  0  0
  192.9780  175.8860  144.3000 C   0  0  0  0  0  0  0  0  0  0  0  0
  192.9610  175.8520  145.7890 C   0  0  0  0  0  1  0  0  0  0  0  0
  1 11  1  0  0  0  0
  1 17  1  6  0  0  0
  2 27  1  6  0  0  0
  3  1  1  0  0  0  0
  4  5  1  0  0  0  0
  5  8  1  0  0  0  0
  6  7  1  0  0  0  0
  7  5  2  0  0  0  0
  7  3  1  0  0  0  0
  8  2  1  0  0  0  0
  8 21  1  1  0  0  0
  9  4  2  0  0  0  0
 10  9  1  0  0  0  0
 10  6  2  0  0  0  0
 11  2  1  0  0  0  0
 11 24  1  1  0  0  0
 12 13  2  0  0  0  0
 12 17  1  0  0  0  0
 13 18  1  0  0  0  0
 14 12  1  0  0  0  0
 15 19  1  0  0  0  0
 17 15  2  0  0  0  0
 18 19  2  0  0  0  0
 19 16  1  0  0  0  0
 21 20  1  1  0  0  0
 22 21  1  0  0  0  0
 22 23  1  0  0  0  0
 24 26  1  0  0  0  0
 26 25  3  0  0  0  0
 27 29  1  0  0  0  0
 28 29  2  0  0  0  0
 29 30  1  0  0  0  0
M  END
>  <MODEL>
2

>  <REMARK>
 VINA RESULT:      -6.5      1.591      1.827
  Name = 
  7 active torsions:
  status: ('A' for Active; 'I' for Inactive)
    1  A    between atoms: C_1  and  C_22
    2  A    between atoms: C_4  and  C_25
    3  A    between atoms: C_7  and  C_30
    4  A    between atoms: O_10  and  C_23
    5  A    between atoms: O_10  and  C_26
    6  A    between atoms: C_11  and  C_25
    7  A    between atoms: C_13  and  C_30
                            x       y       z     vdW  Elec       q    Type
                         _______ _______ _______ _____ _____    ______ ____

>  <TORSDO>
F 7

$$$$
=
 OpenBabel11052417093D

 30 32  0  0  1  0  0  0  0  0999 V2000
  189.2790  175.6850  144.0060 C   0  0  1  0  0  3  0  0  0  0  0  0
  191.7390  175.4310  143.4040 C   0  0  2  0  0  3  0  0  0  0  0  0
  188.5670  175.3840  142.7710 N   0  0  0  0  0  2  0  0  0  0  0  0
  190.8330  173.5900  140.3530 C   0  0  0  0  0  3  0  0  0  0  0  0
  190.3960  174.1790  141.5450 C   0  0  0  0  0  0  0  0  0  0  0  0
  188.2710  174.6740  140.4780 C   0  0  0  0  0  3  0  0  0  0  0  0
  189.0930  174.7310  141.6090 C   0  0  0  0  0  0  0  0  0  0  0  0
  191.3390  174.1180  142.7110 C   0  0  2  0  0  3  0  0  0  0  0  0
  190.0040  173.5450  139.2310 C   0  0  0  0  0  3  0  0  0  0  0  0
  188.7210  174.0870  139.2950 C   0  0  0  0  0  3  0  0  0  0  0  0
  190.6010  176.4130  143.7180 C   0  0  2  0  0  3  0  0  0  0  0  0
  188.1860  176.0350  146.3030 C   0  0  0  0  0  0  0  0  0  0  0  0
  187.3100  176.7610  147.1170 C   0  0  0  0  0  3  0  0  0  0  0  0
  189.0210  174.6600  147.0130 Cl  0  0  0  0  0  0  0  0  0  0  0  0
  187.6660  177.5200  144.4530 C   0  0  0  0  0  3  0  0  0  0  0  0
  186.1200  179.3040  144.7780 F   0  0  0  0  0  0  0  0  0  0  0  0
  188.3690  176.4190  144.9540 C   0  0  0  0  0  0  0  0  0  0  0  0
  186.6160  177.8600  146.6050 C   0  0  0  0  0  3  0  0  0  0  0  0
  186.7940  178.2390  145.2740 C   0  0  0  0  0  0  0  0  0  0  0  0
  189.8520  172.2890  143.7150 C   0  0  0  0  0  1  0  0  0  0  0  0
  191.2570  172.8420  143.5600 C   0  0  2  0  0  3  0  0  0  0  0  0
  191.9520  172.9960  144.9100 C   0  0  0  0  0  2  0  0  0  0  0  0
  193.2790  172.5670  144.8440 O   0  0  0  0  0  1  0  0  0  0  0  0
  190.9910  177.2130  144.8270 O   0  0  0  0  0  0  0  0  0  0  0  0
  192.3320  176.1860  146.7660 C   0  0  0  0  0  3  0  0  0  0  0  0
  191.7050  176.6680  145.8570 C   0  0  0  0  0  0  0  0  0  0  0  0
  192.8260  176.1120  142.5840 C   0  0  0  0  0  2  0  0  0  0  0  0
  194.6730  176.2540  144.0440 O   0  0  0  0  0  0  0  0  0  0  0  0
  194.1900  175.7250  143.0570 C   0  0  0  0  0  0  0  0  0  0  0  0
  194.9470  174.6590  142.3430 C   0  0  0  0  0  1  0  0  0  0  0  0
  1 17  1  1  0  0  0
  2 27  1  6  0  0  0
  2 11  1  0  0  0  0
  3  1  1  0  0  0  0
  4  5  1  0  0  0  0
  5  7  2  0  0  0  0
  5  8  1  0  0  0  0
  6  7  1  0  0  0  0
  7  3  1  0  0  0  0
  8  2  1  0  0  0  0
  8 21  1  1  0  0  0
  9 10  1  0  0  0  0
  9  4  2  0  0  0  0
 10  6  2  0  0  0  0
 11  1  1  0  0  0  0
 11 24  1  1  0  0  0
 12 14  1  0  0  0  0
 12 13  1  0  0  0  0
 15 17  1  0  0  0  0
 15 19  2  0  0  0  0
 16 19  1  0  0  0  0
 17 12  2  0  0  0  0
 18 13  2  0  0  0  0
 19 18  1  0  0  0  0
 21 20  1  1  0  0  0
 21 22  1  0  0  0  0
 23 22  1  0  0  0  0
 24 26  1  0  0  0  0
 26 25  3  0  0  0  0
 27 29  1  0  0  0  0
 29 28  2  0  0  0  0
 30 29  1  0  0  0  0
M  END
>  <MODEL>
3

>  <REMARK>
 VINA RESULT:      -6.3      1.377      1.711
  Name = 
  7 active torsions:
  status: ('A' for Active; 'I' for Inactive)
    1  A    between atoms: C_1  and  C_22
    2  A    between atoms: C_4  and  C_25
    3  A    between atoms: C_7  and  C_30
    4  A    between atoms: O_10  and  C_23
    5  A    between atoms: O_10  and  C_26
    6  A    between atoms: C_11  and  C_25
    7  A    between atoms: C_13  and  C_30
                            x       y       z     vdW  Elec       q    Type
                         _______ _______ _______ _____ _____    ______ ____

>  <TORSDO>
F 7

$$$$
=
 OpenBabel11052417093D

 30 32  0  0  1  0  0  0  0  0999 V2000
  188.4850  176.6890  144.0440 C   0  0  1  0  0  3  0  0  0  0  0  0
  189.8180  174.6900  143.2030 C   0  0  2  0  0  3  0  0  0  0  0  0
  188.9210  176.8650  145.4230 N   0  0  0  0  0  2  0  0  0  0  0  0
  192.1510  175.0200  146.0260 C   0  0  0  0  0  3  0  0  0  0  0  0
  191.0620  175.5590  145.3300 C   0  0  0  0  0  0  0  0  0  0  0  0
  190.2360  176.4860  147.4180 C   0  0  0  0  0  3  0  0  0  0  0  0
  190.0870  176.3040  146.0380 C   0  0  0  0  0  0  0  0  0  0  0  0
  191.0470  175.3570  143.8430 C   0  0  2  0  0  3  0  0  0  0  0  0
  192.2830  175.2060  147.4020 C   0  0  0  0  0  3  0  0  0  0  0  0
  191.3250  175.9410  148.0990 C   0  0  0  0  0  3  0  0  0  0  0  0
  188.4450  175.2010  143.6630 C   0  0  2  0  0  3  0  0  0  0  0  0
  186.9100  178.1730  142.6620 C   0  0  0  0  0  0  0  0  0  0  0  0
  185.6820  178.8300  142.5380 C   0  0  0  0  0  3  0  0  0  0  0  0
  188.0670  178.3360  141.3480 Cl  0  0  0  0  0  0  0  0  0  0  0  0
  186.2200  177.3330  144.8340 C   0  0  0  0  0  3  0  0  0  0  0  0
  184.0700  177.9060  145.6850 F   0  0  0  0  0  0  0  0  0  0  0  0
  187.1840  177.4130  143.8230 C   0  0  0  0  0  0  0  0  0  0  0  0
  184.7260  178.7400  143.5530 C   0  0  0  0  0  3  0  0  0  0  0  0
  184.9960  177.9920  144.7000 C   0  0  0  0  0  0  0  0  0  0  0  0
  193.0440  175.8670  142.3220 C   0  0  0  0  0  1  0  0  0  0  0  0
  191.8130  176.4060  143.0280 C   0  0  2  0  0  3  0  0  0  0  0  0
  192.1370  177.6550  143.8440 C   0  0  0  0  0  2  0  0  0  0  0  0
  191.2240  178.6790  143.5790 O   0  0  0  0  0  1  0  0  0  0  0  0
  187.5070  174.9700  142.6210 O   0  0  0  0  0  0  0  0  0  0  0  0
  188.2980  174.7480  140.1830 C   0  0  0  0  0  3  0  0  0  0  0  0
  187.9270  174.8500  141.3250 C   0  0  0  0  0  0  0  0  0  0  0  0
  189.9210  173.1820  143.3880 C   0  0  0  0  0  2  0  0  0  0  0  0
  191.0900  172.7980  141.3760 O   0  0  0  0  0  0  0  0  0  0  0  0
  191.0390  172.6080  142.5800 C   0  0  0  0  0  0  0  0  0  0  0  0
  192.1190  171.8340  143.2540 C   0  0  0  0  0  1  0  0  0  0  0  0
  1 17  1  1  0  0  0
  1  3  1  0  0  0  0
  2 27  1  1  0  0  0
  2 11  1  0  0  0  0
  2  8  1  0  0  0  0
  3  7  1  0  0  0  0
  4  9  1  0  0  0  0
  5  4  2  0  0  0  0
  5  7  1  0  0  0  0
  6 10  1  0  0  0  0
  7  6  2  0  0  0  0
  8 21  1  6  0  0  0
  8  5  1  0  0  0  0
  9 10  2  0  0  0  0
 11 24  1  6  0  0  0
 11  1  1  0  0  0  0
 12 17  1  0  0  0  0
 13 12  2  0  0  0  0
 13 18  1  0  0  0  0
 14 12  1  0  0  0  0
 17 15  2  0  0  0  0
 18 19  2  0  0  0  0
 19 15  1  0  0  0  0
 19 16  1  0  0  0  0
 21 20  1  1  0  0  0
 21 22  1  0  0  0  0
 23 22  1  0  0  0  0
 25 26  3  0  0  0  0
 26 24  1  0  0  0  0
 28 29  2  0  0  0  0
 29 30  1  0  0  0  0
 29 27  1  0  0  0  0
M  END
>  <MODEL>
4

>  <REMARK>
 VINA RESULT:      -6.0      2.183      4.771
  Name = 
  7 active torsions:
  status: ('A' for Active; 'I' for Inactive)
    1  A    between atoms: C_1  and  C_22
    2  A    between atoms: C_4  and  C_25
    3  A    between atoms: C_7  and  C_30
    4  A    between atoms: O_10  and  C_23
    5  A    between atoms: O_10  and  C_26
    6  A    between atoms: C_11  and  C_25
    7  A    between atoms: C_13  and  C_30
                            x       y       z     vdW  Elec       q    Type
                         _______ _______ _______ _____ _____    ______ ____

>  <TORSDO>
F 7

$$$$
=
 OpenBabel11052417093D

 30 32  0  0  1  0  0  0  0  0999 V2000
  189.8100  175.4700  144.3530 C   0  0  1  0  0  3  0  0  0  0  0  0
  192.3490  175.3910  144.1800 C   0  0  2  0  0  3  0  0  0  0  0  0
  189.3410  174.9980  143.0570 N   0  0  0  0  0  2  0  0  0  0  0  0
  192.1090  173.2150  141.2260 C   0  0  0  0  0  3  0  0  0  0  0  0
  191.4350  173.8630  142.2670 C   0  0  0  0  0  0  0  0  0  0  0  0
  189.4880  174.0670  140.8290 C   0  0  0  0  0  3  0  0  0  0  0  0
  190.1010  174.2970  142.0660 C   0  0  0  0  0  0  0  0  0  0  0  0
  192.1710  173.9910  143.5690 C   0  0  2  0  0  3  0  0  0  0  0  0
  191.4860  172.9970  139.9970 C   0  0  0  0  0  3  0  0  0  0  0  0
  190.1720  173.4220  139.7990 C   0  0  0  0  0  3  0  0  0  0  0  0
  191.1030  176.2890  144.2070 C   0  0  2  0  0  3  0  0  0  0  0  0
  188.2450  175.8400  146.3540 C   0  0  0  0  0  0  0  0  0  0  0  0
  187.1980  176.5570  146.9420 C   0  0  0  0  0  3  0  0  0  0  0  0
  188.9420  174.5070  147.2640 Cl  0  0  0  0  0  0  0  0  0  0  0  0
  188.0940  177.2660  144.3940 C   0  0  0  0  0  3  0  0  0  0  0  0
  186.4720  179.0090  144.3310 F   0  0  0  0  0  0  0  0  0  0  0  0
  188.7010  176.1980  145.0640 C   0  0  0  0  0  0  0  0  0  0  0  0
  186.6020  177.6230  146.2630 C   0  0  0  0  0  3  0  0  0  0  0  0
  187.0500  177.9760  144.9900 C   0  0  0  0  0  0  0  0  0  0  0  0
  193.3690  172.2940  145.0690 C   0  0  0  0  0  1  0  0  0  0  0  0
  192.0450  172.7930  144.5180 C   0  0  2  0  0  3  0  0  0  0  0  0
  191.2250  171.6560  143.9150 C   0  0  0  0  0  2  0  0  0  0  0  0
  192.0300  170.5520  143.6290 O   0  0  0  0  0  1  0  0  0  0  0  0
  191.2390  177.2140  145.2770 O   0  0  0  0  0  0  0  0  0  0  0  0
  191.9870  176.4160  147.6050 C   0  0  0  0  0  3  0  0  0  0  0  0
  191.6350  176.7900  146.5150 C   0  0  0  0  0  0  0  0  0  0  0  0
  193.5030  176.0950  143.4790 C   0  0  0  0  0  2  0  0  0  0  0  0
  194.7210  175.6340  145.4450 O   0  0  0  0  0  0  0  0  0  0  0  0
  194.7550  176.0330  144.2930 C   0  0  0  0  0  0  0  0  0  0  0  0
  196.0570  176.4210  143.6810 C   0  0  0  0  0  1  0  0  0  0  0  0
  1 17  1  6  0  0  0
  2 27  1  6  0  0  0
  2 11  1  0  0  0  0
  3  1  1  0  0  0  0
  4  5  1  0  0  0  0
  5  8  1  0  0  0  0
  6  7  1  0  0  0  0
  7  5  2  0  0  0  0
  7  3  1  0  0  0  0
  8  2  1  0  0  0  0
  8 21  1  1  0  0  0
  9  4  2  0  0  0  0
 10  9  1  0  0  0  0
 10  6  2  0  0  0  0
 11  1  1  0  0  0  0
 11 24  1  1  0  0  0
 12 13  1  0  0  0  0
 12 14  1  0  0  0  0
 15 19  2  0  0  0  0
 15 17  1  0  0  0  0
 16 19  1  0  0  0  0
 17 12  2  0  0  0  0
 18 13  2  0  0  0  0
 19 18  1  0  0  0  0
 21 20  1  6  0  0  0
 22 21  1  0  0  0  0
 23 22  1  0  0  0  0
 24 26  1  0  0  0  0
 26 25  3  0  0  0  0
 27 29  1  0  0  0  0
 29 28  2  0  0  0  0
 30 29  1  0  0  0  0
M  END
>  <MODEL>
5

>  <REMARK>
 VINA RESULT:      -5.8      1.598      2.038
  Name = 
  7 active torsions:
  status: ('A' for Active; 'I' for Inactive)
    1  A    between atoms: C_1  and  C_22
    2  A    between atoms: C_4  and  C_25
    3  A    between atoms: C_7  and  C_30
    4  A    between atoms: O_10  and  C_23
    5  A    between atoms: O_10  and  C_26
    6  A    between atoms: C_11  and  C_25
    7  A    between atoms: C_13  and  C_30
                            x       y       z     vdW  Elec       q    Type
                         _______ _______ _______ _____ _____    ______ ____

>  <TORSDO>
F 7

$$$$
=
 OpenBabel11052417093D

 30 32  0  0  1  0  0  0  0  0999 V2000
  192.3460  174.4290  144.4810 C   0  0  1  0  0  3  0  0  0  0  0  0
  190.2190  175.5280  145.3470 C   0  0  2  0  0  3  0  0  0  0  0  0
  191.9000  173.5900  143.3770 N   0  0  0  0  0  2  0  0  0  0  0  0
  188.4530  174.6170  142.2540 C   0  0  0  0  0  3  0  0  0  0  0  0
  189.6690  174.6540  142.9470 C   0  0  0  0  0  0  0  0  0  0  0  0
  190.3660  172.6550  141.7570 C   0  0  0  0  0  3  0  0  0  0  0  0
  190.6420  173.6560  142.6950 C   0  0  0  0  0  0  0  0  0  0  0  0
  189.8780  175.8150  143.8760 C   0  0  2  0  0  3  0  0  0  0  0  0
  188.1910  173.6090  141.3250 C   0  0  0  0  0  3  0  0  0  0  0  0
  189.1500  172.6280  141.0750 C   0  0  0  0  0  3  0  0  0  0  0  0
  191.2980  174.4660  145.6050 C   0  0  2  0  0  3  0  0  0  0  0  0
  194.8010  174.8880  145.0740 C   0  0  0  0  0  0  0  0  0  0  0  0
  196.0470  174.4040  145.4850 C   0  0  0  0  0  3  0  0  0  0  0  0
  194.6560  176.6090  144.7430 Cl  0  0  0  0  0  0  0  0  0  0  0  0
  193.9040  172.6360  145.2080 C   0  0  0  0  0  3  0  0  0  0  0  0
  195.3220  170.8440  145.8820 F   0  0  0  0  0  0  0  0  0  0  0  0
  193.7140  173.9950  144.9340 C   0  0  0  0  0  0  0  0  0  0  0  0
  196.2230  173.0450  145.7570 C   0  0  0  0  0  3  0  0  0  0  0  0
  195.1520  172.1620  145.6190 C   0  0  0  0  0  0  0  0  0  0  0  0
  191.2610  177.9510  144.1750 C   0  0  0  0  0  1  0  0  0  0  0  0
  190.4520  177.0820  143.2290 C   0  0  2  0  0  3  0  0  0  0  0  0
  189.3890  177.8920  142.4940 C   0  0  0  0  0  2  0  0  0  0  0  0
  188.1910  177.9180  143.2110 O   0  0  0  0  0  1  0  0  0  0  0  0
  191.9090  174.7410  146.8590 O   0  0  0  0  0  0  0  0  0  0  0  0
  192.2570  177.1680  147.6360 C   0  0  0  0  0  3  0  0  0  0  0  0
  192.0940  176.0320  147.2710 C   0  0  0  0  0  0  0  0  0  0  0  0
  188.9370  175.1840  146.0950 C   0  0  0  0  0  2  0  0  0  0  0  0
  186.9170  176.3990  146.0070 O   0  0  0  0  0  0  0  0  0  0  0  0
  188.0960  176.3980  146.3220 C   0  0  0  0  0  0  0  0  0  0  0  0
  188.6880  177.5990  146.9740 C   0  0  0  0  0  1  0  0  0  0  0  0
  1 17  1  1  0  0  0
  1 11  1  0  0  0  0
  2 11  1  0  0  0  0
  2 27  1  1  0  0  0
  3  1  1  0  0  0  0
  4  5  1  0  0  0  0
  5  8  1  0  0  0  0
  6  7  1  0  0  0  0
  7  5  2  0  0  0  0
  7  3  1  0  0  0  0
  8 21  1  6  0  0  0
  8  2  1  0  0  0  0
  9  4  2  0  0  0  0
 10  9  1  0  0  0  0
 10  6  2  0  0  0  0
 11 24  1  1  0  0  0
 12 13  1  0  0  0  0
 13 18  2  0  0  0  0
 14 12  1  0  0  0  0
 15 19  2  0  0  0  0
 17 12  2  0  0  0  0
 17 15  1  0  0  0  0
 19 18  1  0  0  0  0
 19 16  1  0  0  0  0
 21 20  1  1  0  0  0
 22 23  1  0  0  0  0
 22 21  1  0  0  0  0
 24 26  1  0  0  0  0
 26 25  3  0  0  0  0
 27 29  1  0  0  0  0
 28 29  2  0  0  0  0
 29 30  1  0  0  0  0
M  END
>  <MODEL>
6

>  <REMARK>
 VINA RESULT:      -5.8      3.708      6.485
  Name = 
  7 active torsions:
  status: ('A' for Active; 'I' for Inactive)
    1  A    between atoms: C_1  and  C_22
    2  A    between atoms: C_4  and  C_25
    3  A    between atoms: C_7  and  C_30
    4  A    between atoms: O_10  and  C_23
    5  A    between atoms: O_10  and  C_26
    6  A    between atoms: C_11  and  C_25
    7  A    between atoms: C_13  and  C_30
                            x       y       z     vdW  Elec       q    Type
                         _______ _______ _______ _____ _____    ______ ____

>  <TORSDO>
F 7

$$$$
=
 OpenBabel11052417093D

 30 32  0  0  1  0  0  0  0  0999 V2000
  190.0310  174.4240  142.2120 C   0  0  1  0  0  3  0  0  0  0  0  0
  190.1980  174.5030  144.7500 C   0  0  2  0  0  3  0  0  0  0  0  0
  188.7400  175.0280  141.9110 N   0  0  0  0  0  2  0  0  0  0  0  0
  187.4740  176.9700  144.8820 C   0  0  0  0  0  3  0  0  0  0  0  0
  188.3480  176.2230  144.0830 C   0  0  0  0  0  0  0  0  0  0  0  0
  186.6570  176.1800  142.3400 C   0  0  0  0  0  3  0  0  0  0  0  0
  187.9330  175.8220  142.7890 C   0  0  0  0  0  0  0  0  0  0  0  0
  189.7150  175.9590  144.6440 C   0  0  2  0  0  3  0  0  0  0  0  0
  186.2040  177.3160  144.4220 C   0  0  0  0  0  3  0  0  0  0  0  0
  185.7950  176.9220  143.1480 C   0  0  0  0  0  3  0  0  0  0  0  0
  189.9720  173.6160  143.5170 C   0  0  2  0  0  3  0  0  0  0  0  0
  191.8250  173.7470  140.5040 C   0  0  0  0  0  0  0  0  0  0  0  0
  192.1940  172.9900  139.3870 C   0  0  0  0  0  3  0  0  0  0  0  0
  193.0300  174.8180  141.2060 Cl  0  0  0  0  0  0  0  0  0  0  0  0
  189.6050  172.7670  140.4100 C   0  0  0  0  0  3  0  0  0  0  0  0
  189.0930  171.1780  138.7110 F   0  0  0  0  0  0  0  0  0  0  0  0
  190.5150  173.6350  141.0240 C   0  0  0  0  0  0  0  0  0  0  0  0
  191.2770  172.1260  138.7850 C   0  0  0  0  0  3  0  0  0  0  0  0
  189.9830  172.0150  139.2960 C   0  0  0  0  0  0  0  0  0  0  0  0
  190.4530  177.9340  143.1880 C   0  0  0  0  0  1  0  0  0  0  0  0
  190.7570  177.0560  144.3880 C   0  0  2  0  0  3  0  0  0  0  0  0
  192.1790  176.5050  144.3350 C   0  0  0  0  0  2  0  0  0  0  0  0
  192.9400  176.9750  145.4080 O   0  0  0  0  0  1  0  0  0  0  0  0
  190.9510  172.5850  143.5200 O   0  0  0  0  0  0  0  0  0  0  0  0
  193.2320  172.9590  144.6490 C   0  0  0  0  0  3  0  0  0  0  0  0
  192.1640  172.7830  144.1190 C   0  0  0  0  0  0  0  0  0  0  0  0
  189.5850  173.8670  145.9900 C   0  0  0  0  0  2  0  0  0  0  0  0
  188.5590  175.1580  147.6770 O   0  0  0  0  0  0  0  0  0  0  0  0
  189.6030  174.8070  147.1520 C   0  0  0  0  0  0  0  0  0  0  0  0
  190.9030  175.2850  147.6980 C   0  0  0  0  0  1  0  0  0  0  0  0
  1 17  1  6  0  0  0
  1 11  1  0  0  0  0
  2 27  1  1  0  0  0
  3  1  1  0  0  0  0
  3  7  1  0  0  0  0
  5  8  1  0  0  0  0
  5  4  2  0  0  0  0
  6  7  2  0  0  0  0
  6 10  1  0  0  0  0
  7  5  1  0  0  0  0
  8 21  1  6  0  0  0
  8  2  1  0  0  0  0
  9  4  1  0  0  0  0
 10  9  2  0  0  0  0
 11 24  1  6  0  0  0
 11  2  1  0  0  0  0
 12 17  1  0  0  0  0
 12 14  1  0  0  0  0
 13 12  2  0  0  0  0
 15 17  2  0  0  0  0
 16 19  1  0  0  0  0
 18 19  2  0  0  0  0
 18 13  1  0  0  0  0
 19 15  1  0  0  0  0
 21 20  1  6  0  0  0
 22 21  1  0  0  0  0
 22 23  1  0  0  0  0
 24 26  1  0  0  0  0
 26 25  3  0  0  0  0
 27 29  1  0  0  0  0
 29 28  2  0  0  0  0
 29 30  1  0  0  0  0
M  END
>  <MODEL>
7

>  <REMARK>
 VINA RESULT:      -5.8      3.057      6.178
  Name = 
  7 active torsions:
  status: ('A' for Active; 'I' for Inactive)
    1  A    between atoms: C_1  and  C_22
    2  A    between atoms: C_4  and  C_25
    3  A    between atoms: C_7  and  C_30
    4  A    between atoms: O_10  and  C_23
    5  A    between atoms: O_10  and  C_26
    6  A    between atoms: C_11  and  C_25
    7  A    between atoms: C_13  and  C_30
                            x       y       z     vdW  Elec       q    Type
                         _______ _______ _______ _____ _____    ______ ____

>  <TORSDO>
F 7

$$$$
=
 OpenBabel11052417093D

 30 32  0  0  1  0  0  0  0  0999 V2000
  188.8970  175.7450  143.5170 C   0  0  1  0  0  3  0  0  0  0  0  0
  191.3970  175.4280  143.1580 C   0  0  2  0  0  3  0  0  0  0  0  0
  188.2940  175.3600  142.2480 N   0  0  0  0  0  2  0  0  0  0  0  0
  190.7400  173.3750  140.1790 C   0  0  0  0  0  3  0  0  0  0  0  0
  190.2070  174.0540  141.2820 C   0  0  0  0  0  0  0  0  0  0  0  0
  188.1930  174.4860  139.9950 C   0  0  0  0  0  3  0  0  0  0  0  0
  188.9110  174.6190  141.1880 C   0  0  0  0  0  0  0  0  0  0  0  0
  191.0410  174.0710  142.5290 C   0  0  2  0  0  3  0  0  0  0  0  0
  190.0130  173.2550  138.9940 C   0  0  0  0  0  3  0  0  0  0  0  0
  188.7370  173.8100  138.9030 C   0  0  0  0  0  3  0  0  0  0  0  0
  190.2500  176.4400  143.2970 C   0  0  2  0  0  3  0  0  0  0  0  0
  187.2680  177.7050  143.8230 C   0  0  0  0  0  0  0  0  0  0  0  0
  186.3810  178.4120  144.6410 C   0  0  0  0  0  3  0  0  0  0  0  0
  187.5350  178.3030  142.1910 Cl  0  0  0  0  0  0  0  0  0  0  0  0
  187.6620  176.1390  145.6360 C   0  0  0  0  0  3  0  0  0  0  0  0
  186.5350  176.4390  147.7140 F   0  0  0  0  0  0  0  0  0  0  0  0
  187.9170  176.5540  144.3240 C   0  0  0  0  0  0  0  0  0  0  0  0
  186.1340  177.9870  145.9490 C   0  0  0  0  0  3  0  0  0  0  0  0
  186.7740  176.8510  146.4460 C   0  0  0  0  0  0  0  0  0  0  0  0
  189.4650  172.2750  143.4550 C   0  0  0  0  0  1  0  0  0  0  0  0
  190.8650  172.8620  143.4570 C   0  0  2  0  0  3  0  0  0  0  0  0
  191.3540  173.1410  144.8750 C   0  0  0  0  0  2  0  0  0  0  0  0
  192.7110  172.8370  145.0080 O   0  0  0  0  0  1  0  0  0  0  0  0
  190.5520  177.3150  144.3760 O   0  0  0  0  0  0  0  0  0  0  0  0
  191.6720  176.4150  146.5080 C   0  0  0  0  0  3  0  0  0  0  0  0
  191.1470  176.8380  145.5100 C   0  0  0  0  0  0  0  0  0  0  0  0
  192.5630  176.0380  142.3920 C   0  0  0  0  0  2  0  0  0  0  0  0
  194.2130  175.8150  144.0620 O   0  0  0  0  0  0  0  0  0  0  0  0
  193.8750  175.5560  142.9190 C   0  0  0  0  0  0  0  0  0  0  0  0
  194.7580  174.7200  142.0580 C   0  0  0  0  0  1  0  0  0  0  0  0
  1 17  1  6  0  0  0
  2 27  1  6  0  0  0
  2 11  1  0  0  0  0
  3  1  1  0  0  0  0
  4  5  1  0  0  0  0
  5  8  1  0  0  0  0
  6  7  1  0  0  0  0
  7  5  2  0  0  0  0
  7  3  1  0  0  0  0
  8  2  1  0  0  0  0
  8 21  1  1  0  0  0
  9  4  2  0  0  0  0
 10  9  1  0  0  0  0
 10  6  2  0  0  0  0
 11  1  1  0  0  0  0
 11 24  1  1  0  0  0
 12 17  2  0  0  0  0
 12 13  1  0  0  0  0
 13 18  2  0  0  0  0
 14 12  1  0  0  0  0
 15 19  2  0  0  0  0
 17 15  1  0  0  0  0
 18 19  1  0  0  0  0
 19 16  1  0  0  0  0
 21 20  1  1  0  0  0
 21 22  1  0  0  0  0
 22 23  1  0  0  0  0
 24 26  1  0  0  0  0
 26 25  3  0  0  0  0
 27 29  1  0  0  0  0
 29 28  2  0  0  0  0
 30 29  1  0  0  0  0
M  END
>  <MODEL>
8

>  <REMARK>
 VINA RESULT:      -5.7      1.908      2.300
  Name = 
  7 active torsions:
  status: ('A' for Active; 'I' for Inactive)
    1  A    between atoms: C_1  and  C_22
    2  A    between atoms: C_4  and  C_25
    3  A    between atoms: C_7  and  C_30
    4  A    between atoms: O_10  and  C_23
    5  A    between atoms: O_10  and  C_26
    6  A    between atoms: C_11  and  C_25
    7  A    between atoms: C_13  and  C_30
                            x       y       z     vdW  Elec       q    Type
                         _______ _______ _______ _____ _____    ______ ____

>  <TORSDO>
F 7

$$$$
=
 OpenBabel11052417093D

 30 32  0  0  1  0  0  0  0  0999 V2000
  188.5820  176.0850  143.2810 C   0  0  1  0  0  3  0  0  0  0  0  0
  189.8640  173.8860  143.3120 C   0  0  2  0  0  3  0  0  0  0  0  0
  188.8710  176.6950  144.5720 N   0  0  0  0  0  2  0  0  0  0  0  0
  191.8830  175.0680  146.1480 C   0  0  0  0  0  3  0  0  0  0  0  0
  190.9170  175.3750  145.1820 C   0  0  0  0  0  0  0  0  0  0  0  0
  189.9250  176.9610  146.7320 C   0  0  0  0  0  3  0  0  0  0  0  0
  189.9210  176.3380  145.4790 C   0  0  0  0  0  0  0  0  0  0  0  0
  191.0550  174.6940  143.8520 C   0  0  2  0  0  3  0  0  0  0  0  0
  191.8720  175.6950  147.3950 C   0  0  0  0  0  3  0  0  0  0  0  0
  190.8920  176.6440  147.6870 C   0  0  0  0  0  3  0  0  0  0  0  0
  188.4850  174.5560  143.4020 C   0  0  2  0  0  3  0  0  0  0  0  0
  186.1900  177.0090  143.4060 C   0  0  0  0  0  0  0  0  0  0  0  0
  185.0950  177.5960  142.7640 C   0  0  0  0  0  3  0  0  0  0  0  0
  186.0370  176.6380  145.1180 Cl  0  0  0  0  0  0  0  0  0  0  0  0
  187.4150  177.0450  141.3100 C   0  0  0  0  0  3  0  0  0  0  0  0
  186.3770  177.9340  139.3580 F   0  0  0  0  0  0  0  0  0  0  0  0
  187.3660  176.7290  142.6720 C   0  0  0  0  0  0  0  0  0  0  0  0
  185.1580  177.9080  141.4030 C   0  0  0  0  0  3  0  0  0  0  0  0
  186.3170  177.6330  140.6770 C   0  0  0  0  0  0  0  0  0  0  0  0
  193.1540  174.5510  142.3900 C   0  0  0  0  0  1  0  0  0  0  0  0
  191.9770  175.3950  142.8450 C   0  0  2  0  0  3  0  0  0  0  0  0
  192.4260  176.7710  143.3280 C   0  0  0  0  0  2  0  0  0  0  0  0
  191.6230  177.7790  142.7890 O   0  0  0  0  0  1  0  0  0  0  0  0
  187.6570  174.0180  142.3790 O   0  0  0  0  0  0  0  0  0  0  0  0
  188.6610  173.3270  140.1140 C   0  0  0  0  0  3  0  0  0  0  0  0
  188.1910  173.6520  141.1750 C   0  0  0  0  0  0  0  0  0  0  0  0
  189.8440  172.5210  143.9880 C   0  0  0  0  0  2  0  0  0  0  0  0
  190.4640  171.0970  142.2130 O   0  0  0  0  0  0  0  0  0  0  0  0
  190.7600  171.5590  143.3020 C   0  0  0  0  0  0  0  0  0  0  0  0
  192.0590  171.1940  143.9340 C   0  0  0  0  0  1  0  0  0  0  0  0
  1 17  1  1  0  0  0
  1 11  1  0  0  0  0
  1  3  1  0  0  0  0
  2 11  1  0  0  0  0
  2  8  1  0  0  0  0
  2 27  1  1  0  0  0
  3  7  1  0  0  0  0
  4  9  1  0  0  0  0
  5  7  1  0  0  0  0
  5  4  2  0  0  0  0
  6 10  1  0  0  0  0
  7  6  2  0  0  0  0
  8 21  1  6  0  0  0
  8  5  1  0  0  0  0
  9 10  2  0  0  0  0
 11 24  1  6  0  0  0
 12 14  1  0  0  0  0
 13 12  1  0  0  0  0
 15 17  1  0  0  0  0
 16 19  1  0  0  0  0
 17 12  2  0  0  0  0
 18 13  2  0  0  0  0
 19 15  2  0  0  0  0
 19 18  1  0  0  0  0
 21 20  1  1  0  0  0
 21 22  1  0  0  0  0
 23 22  1  0  0  0  0
 25 26  3  0  0  0  0
 26 24  1  0  0  0  0
 28 29  2  0  0  0  0
 29 30  1  0  0  0  0
 29 27  1  0  0  0  0
M  END
>  <MODEL>
9

>  <REMARK>
 VINA RESULT:      -5.5      2.231      4.852
  Name = 
  7 active torsions:
  status: ('A' for Active; 'I' for Inactive)
    1  A    between atoms: C_1  and  C_22
    2  A    between atoms: C_4  and  C_25
    3  A    between atoms: C_7  and  C_30
    4  A    between atoms: O_10  and  C_23
    5  A    between atoms: O_10  and  C_26
    6  A    between atoms: C_11  and  C_25
    7  A    between atoms: C_13  and  C_30
                            x       y       z     vdW  Elec       q    Type
                         _______ _______ _______ _____ _____    ______ ____

>  <TORSDO>
F 7

$$$$
