=
 OpenBabel11052417333D

 25 28  0  0  1  0  0  0  0  0999 V2000
  186.4880  177.7770  143.7270 C   0  0  0  0  0  0  0  0  0  0  0  0
  185.8030  177.7670  142.4970 C   0  0  0  0  0  0  0  0  0  0  0  0
  188.5920  177.4210  142.5800 C   0  0  0  0  0  3  0  0  0  0  0  0
  185.9650  177.9420  145.0230 C   0  0  0  0  0  0  0  0  0  0  0  0
  182.5050  178.3510  140.8840 C   0  0  0  0  0  0  0  0  0  0  0  0
  185.3740  178.2270  147.7150 C   0  0  0  0  0  3  0  0  0  0  0  0
  187.9230  177.4110  141.3950 N   0  0  0  0  0  0  0  0  0  0  0  0
  186.9490  177.8950  146.0030 C   0  0  0  0  0  0  0  0  0  0  0  0
  186.6650  178.0330  147.3220 N   0  0  0  0  0  0  0  0  0  0  0  0
  185.9110  177.5700  139.9930 C   0  0  0  0  0  0  0  0  0  0  0  0
  186.8440  177.2720  138.5370 Cl  0  0  0  0  0  0  0  0  0  0  0  0
  181.2400  178.6230  140.7250 C   0  0  0  0  0  3  0  0  0  0  0  0
  184.3010  177.8970  142.4380 C   0  0  0  0  0  2  0  0  0  0  0  0
  184.3390  178.2820  146.7630 C   0  0  0  0  0  3  0  0  0  0  0  0
  187.8700  177.6070  143.7490 C   0  0  0  0  0  0  0  0  0  0  0  0
  188.4710  177.6530  145.3260 S   0  0  0  0  0  0  0  0  0  0  0  0
  184.6080  177.8190  139.8720 C   0  0  0  0  0  3  0  0  0  0  0  0
  184.6350  178.1400  145.4010 C   0  0  0  0  0  3  0  0  0  0  0  0
  183.7680  178.0800  141.0480 C   0  0  0  0  0  0  0  0  0  0  0  0
  186.5680  177.5750  141.3170 C   0  0  0  0  0  0  0  0  0  0  0  0
  180.4740  179.3420  141.7860 C   0  0  2  0  0  3  0  0  0  0  0  0
  181.2340  179.3680  143.0270 N   0  0  0  0  0  1  0  0  0  0  0  0
  179.1550  178.6820  142.0090 C   0  0  0  0  0  0  0  0  0  0  0  0
  178.0070  179.4580  142.1060 O   0  0  0  0  0  1  0  0  0  0  0  0
  179.0700  177.4280  142.0960 O   0  0  0  0  0  0  0  0  0  0  0  0
  1 15  2  0  0  0  0
  1  4  1  0  0  0  0
  2  1  1  0  0  0  0
  3 15  1  0  0  0  0
  4 18  2  0  0  0  0
  4  8  1  0  0  0  0
  5 19  2  0  0  0  0
  7  3  2  0  0  0  0
  8  9  2  0  0  0  0
  9  6  1  0  0  0  0
 10 20  1  0  0  0  0
 11 10  1  0  0  0  0
 12  5  2  0  0  0  0
 12 21  1  0  0  0  0
 13  2  1  0  0  0  0
 14  6  2  0  0  0  0
 15 16  1  0  0  0  0
 16  8  1  0  0  0  0
 17 10  2  0  0  0  0
 17 19  1  0  0  0  0
 18 14  1  0  0  0  0
 19 13  1  0  0  0  0
 20  7  1  0  0  0  0
 20  2  2  0  0  0  0
 21 23  1  0  0  0  0
 21 22  1  1  0  0  0
 23 25  2  0  0  0  0
 23 24  1  0  0  0  0
M  END
>  <MODEL>
1

>  <REMARK>
 VINA RESULT:      -7.9      0.000      0.000
  Name = 
  2 active torsions:
  status: ('A' for Active; 'I' for Inactive)
    1  A    between atoms: C_2  and  CA_21
    2  A    between atoms: C_15  and  CA_21
                            x       y       z     vdW  Elec       q    Type
                         _______ _______ _______ _____ _____    ______ ____

>  <TORSDO>
F 2

$$$$
=
 OpenBabel11052417333D

 25 28  0  0  1  0  0  0  0  0999 V2000
  185.8930  177.5370  143.8630 C   0  0  0  0  0  0  0  0  0  0  0  0
  186.7030  176.8880  142.9110 C   0  0  0  0  0  0  0  0  0  0  0  0
  184.5240  178.4660  142.0920 C   0  0  0  0  0  3  0  0  0  0  0  0
  186.0050  177.5280  145.2650 C   0  0  0  0  0  0  0  0  0  0  0  0
  189.4730  174.4470  142.4810 C   0  0  0  0  0  0  0  0  0  0  0  0
  185.8520  177.7820  148.0210 C   0  0  0  0  0  3  0  0  0  0  0  0
  185.3120  177.8370  141.1780 N   0  0  0  0  0  0  0  0  0  0  0  0
  185.0200  178.2900  145.8820 C   0  0  0  0  0  0  0  0  0  0  0  0
  184.9410  178.4180  147.2300 N   0  0  0  0  0  0  0  0  0  0  0  0
  187.1820  176.3960  140.4930 C   0  0  0  0  0  0  0  0  0  0  0  0
  186.8230  176.6580  138.7960 Cl  0  0  0  0  0  0  0  0  0  0  0  0
  190.4260  173.6000  142.7570 C   0  0  0  0  0  3  0  0  0  0  0  0
  187.9080  176.0830  143.3310 C   0  0  0  0  0  2  0  0  0  0  0  0
  186.8700  176.9970  147.4470 C   0  0  0  0  0  3  0  0  0  0  0  0
  184.8160  178.3130  143.4390 C   0  0  0  0  0  0  0  0  0  0  0  0
  183.9930  178.9910  144.7480 S   0  0  0  0  0  0  0  0  0  0  0  0
  188.1700  175.5620  140.8120 C   0  0  0  0  0  3  0  0  0  0  0  0
  186.9490  176.8670  146.0540 C   0  0  0  0  0  3  0  0  0  0  0  0
  188.5210  175.2940  142.2120 C   0  0  0  0  0  0  0  0  0  0  0  0
  186.3800  177.0620  141.5400 C   0  0  0  0  0  0  0  0  0  0  0  0
  190.5020  172.9470  144.0970 C   0  0  2  0  0  3  0  0  0  0  0  0
  189.3600  172.0700  144.2980 N   0  0  0  0  0  1  0  0  0  0  0  0
  190.5500  173.9780  145.1730 C   0  0  0  0  0  0  0  0  0  0  0  0
  189.4600  174.1370  146.0200 O   0  0  0  0  0  1  0  0  0  0  0  0
  191.5720  174.6970  145.3300 O   0  0  0  0  0  0  0  0  0  0  0  0
  1  4  1  0  0  0  0
  2 13  1  0  0  0  0
  2  1  1  0  0  0  0
  3 15  1  0  0  0  0
  4  8  2  0  0  0  0
  4 18  1  0  0  0  0
  5 12  2  0  0  0  0
  7 20  1  0  0  0  0
  7  3  2  0  0  0  0
  8  9  1  0  0  0  0
  9  6  2  0  0  0  0
 10 17  2  0  0  0  0
 10 20  1  0  0  0  0
 11 10  1  0  0  0  0
 12 21  1  0  0  0  0
 14  6  1  0  0  0  0
 15  1  2  0  0  0  0
 15 16  1  0  0  0  0
 16  8  1  0  0  0  0
 17 19  1  0  0  0  0
 18 14  2  0  0  0  0
 19  5  2  0  0  0  0
 19 13  1  0  0  0  0
 20  2  2  0  0  0  0
 21 22  1  1  0  0  0
 21 23  1  0  0  0  0
 23 25  2  0  0  0  0
 23 24  1  0  0  0  0
M  END
>  <MODEL>
2

>  <REMARK>
 VINA RESULT:      -7.6      4.390      6.673
  Name = 
  2 active torsions:
  status: ('A' for Active; 'I' for Inactive)
    1  A    between atoms: C_2  and  CA_21
    2  A    between atoms: C_15  and  CA_21
                            x       y       z     vdW  Elec       q    Type
                         _______ _______ _______ _____ _____    ______ ____

>  <TORSDO>
F 2

$$$$
=
 OpenBabel11052417333D

 25 28  0  0  1  0  0  0  0  0999 V2000
  188.6120  175.6780  144.3370 C   0  0  0  0  0  0  0  0  0  0  0  0
  187.6470  176.6250  144.7270 C   0  0  0  0  0  0  0  0  0  0  0  0
  189.5290  175.6600  146.5800 C   0  0  0  0  0  3  0  0  0  0  0  0
  188.8070  175.0900  143.0730 C   0  0  0  0  0  0  0  0  0  0  0  0
  184.5950  178.4400  143.6260 C   0  0  0  0  0  0  0  0  0  0  0  0
  189.5370  173.7050  140.7870 C   0  0  0  0  0  3  0  0  0  0  0  0
  188.5930  176.5770  146.9490 N   0  0  0  0  0  0  0  0  0  0  0  0
  189.8670  174.1910  143.0630 C   0  0  0  0  0  0  0  0  0  0  0  0
  190.2290  173.5110  141.9460 N   0  0  0  0  0  0  0  0  0  0  0  0
  186.6670  178.0510  146.5510 C   0  0  0  0  0  0  0  0  0  0  0  0
  186.7230  178.6470  148.2000 Cl  0  0  0  0  0  0  0  0  0  0  0  0
  183.6070  178.8580  142.8830 C   0  0  0  0  0  3  0  0  0  0  0  0
  186.6640  177.1940  143.7320 C   0  0  0  0  0  2  0  0  0  0  0  0
  188.4560  174.6040  140.7430 C   0  0  0  0  0  3  0  0  0  0  0  0
  189.5350  175.2090  145.2680 C   0  0  0  0  0  0  0  0  0  0  0  0
  190.5900  174.0860  144.5780 S   0  0  0  0  0  0  0  0  0  0  0  0
  185.6920  178.4810  145.7530 C   0  0  0  0  0  3  0  0  0  0  0  0
  188.0840  175.3060  141.8980 C   0  0  0  0  0  3  0  0  0  0  0  0
  185.5830  178.0200  144.3630 C   0  0  0  0  0  0  0  0  0  0  0  0
  187.6630  177.0690  146.0750 C   0  0  0  0  0  0  0  0  0  0  0  0
  183.1830  178.0890  141.6760 C   0  0  2  0  0  3  0  0  0  0  0  0
  184.0680  178.3760  140.5580 N   0  0  0  0  0  1  0  0  0  0  0  0
  181.7760  178.4300  141.3150 C   0  0  0  0  0  0  0  0  0  0  0  0
  181.0120  179.2000  142.1820 O   0  0  0  0  0  1  0  0  0  0  0  0
  181.2790  178.0380  140.2250 O   0  0  0  0  0  0  0  0  0  0  0  0
  1  2  2  0  0  0  0
  1 15  1  0  0  0  0
  2 20  1  0  0  0  0
  3  7  1  0  0  0  0
  4  1  1  0  0  0  0
  5 19  2  0  0  0  0
  6  9  1  0  0  0  0
  8  4  1  0  0  0  0
  8 16  1  0  0  0  0
  9  8  2  0  0  0  0
 10 11  1  0  0  0  0
 12  5  2  0  0  0  0
 13 19  1  0  0  0  0
 13  2  1  0  0  0  0
 14  6  2  0  0  0  0
 14 18  1  0  0  0  0
 15  3  2  0  0  0  0
 16 15  1  0  0  0  0
 17 10  2  0  0  0  0
 18  4  2  0  0  0  0
 19 17  1  0  0  0  0
 20 10  1  0  0  0  0
 20  7  2  0  0  0  0
 21 22  1  6  0  0  0
 21 12  1  0  0  0  0
 23 21  1  0  0  0  0
 23 24  1  0  0  0  0
 25 23  2  0  0  0  0
M  END
>  <MODEL>
3

>  <REMARK>
 VINA RESULT:      -7.5      3.230      5.254
  Name = 
  2 active torsions:
  status: ('A' for Active; 'I' for Inactive)
    1  A    between atoms: C_2  and  CA_21
    2  A    between atoms: C_15  and  CA_21
                            x       y       z     vdW  Elec       q    Type
                         _______ _______ _______ _____ _____    ______ ____

>  <TORSDO>
F 2

$$$$
=
 OpenBabel11052417333D

 25 28  0  0  1  0  0  0  0  0999 V2000
  185.8710  177.5260  143.0670 C   0  0  0  0  0  0  0  0  0  0  0  0
  186.1680  177.3340  144.4300 C   0  0  0  0  0  0  0  0  0  0  0  0
  184.0610  179.0260  143.6540 C   0  0  0  0  0  3  0  0  0  0  0  0
  186.5020  176.9660  141.9410 C   0  0  0  0  0  0  0  0  0  0  0  0
  188.6000  175.8100  146.7930 C   0  0  0  0  0  0  0  0  0  0  0  0
  187.4410  176.1060  139.4800 C   0  0  0  0  0  3  0  0  0  0  0  0
  184.3530  178.8340  144.9690 N   0  0  0  0  0  0  0  0  0  0  0  0
  185.9320  177.3880  140.7460 C   0  0  0  0  0  0  0  0  0  0  0  0
  186.3870  176.9690  139.5390 N   0  0  0  0  0  0  0  0  0  0  0  0
  185.6400  177.8700  146.8280 C   0  0  0  0  0  0  0  0  0  0  0  0
  184.6170  178.6660  148.0110 Cl  0  0  0  0  0  0  0  0  0  0  0  0
  189.6250  175.1480  147.2530 C   0  0  0  0  0  3  0  0  0  0  0  0
  187.2600  176.3870  144.8640 C   0  0  0  0  0  2  0  0  0  0  0  0
  188.0550  175.6470  140.6600 C   0  0  0  0  0  3  0  0  0  0  0  0
  184.8250  178.3700  142.7010 C   0  0  0  0  0  0  0  0  0  0  0  0
  184.6540  178.4470  141.0230 S   0  0  0  0  0  0  0  0  0  0  0  0
  186.6780  177.1570  147.2630 C   0  0  0  0  0  3  0  0  0  0  0  0
  187.5830  176.0810  141.9060 C   0  0  0  0  0  3  0  0  0  0  0  0
  187.5770  176.4690  146.3280 C   0  0  0  0  0  0  0  0  0  0  0  0
  185.3700  178.0180  145.3830 C   0  0  0  0  0  0  0  0  0  0  0  0
  190.7950  174.8480  146.3760 C   0  0  2  0  0  3  0  0  0  0  0  0
  191.5320  176.0670  146.0810 N   0  0  0  0  0  1  0  0  0  0  0  0
  190.3400  174.2060  145.1090 C   0  0  0  0  0  0  0  0  0  0  0  0
  190.4080  174.9160  143.9170 O   0  0  0  0  0  0  0  0  0  0  0  0
  189.9080  173.0230  145.1070 O   0  0  0  0  0  1  0  0  0  0  0  0
  1  2  2  0  0  0  0
  2 13  1  0  0  0  0
  2 20  1  0  0  0  0
  3  7  1  0  0  0  0
  4  1  1  0  0  0  0
  5 12  2  0  0  0  0
  6  9  2  0  0  0  0
  6 14  1  0  0  0  0
  7 20  2  0  0  0  0
  8 16  1  0  0  0  0
  8  4  2  0  0  0  0
  9  8  1  0  0  0  0
 10 17  2  0  0  0  0
 10 11  1  0  0  0  0
 13 19  1  0  0  0  0
 14 18  2  0  0  0  0
 15  1  1  0  0  0  0
 15  3  2  0  0  0  0
 16 15  1  0  0  0  0
 18  4  1  0  0  0  0
 19  5  2  0  0  0  0
 19 17  1  0  0  0  0
 20 10  1  0  0  0  0
 21 22  1  6  0  0  0
 21 12  1  0  0  0  0
 23 21  1  0  0  0  0
 24 23  2  0  0  0  0
 25 23  1  0  0  0  0
M  END
>  <MODEL>
4

>  <REMARK>
 VINA RESULT:      -7.4      4.769      8.004
  Name = 
  2 active torsions:
  status: ('A' for Active; 'I' for Inactive)
    1  A    between atoms: C_2  and  CA_21
    2  A    between atoms: C_15  and  CA_21
                            x       y       z     vdW  Elec       q    Type
                         _______ _______ _______ _____ _____    ______ ____

>  <TORSDO>
F 2

$$$$
=
 OpenBabel11052417333D

 25 28  0  0  1  0  0  0  0  0999 V2000
  185.8260  177.9120  143.4250 C   0  0  0  0  0  0  0  0  0  0  0  0
  186.6560  177.7580  144.5520 C   0  0  0  0  0  0  0  0  0  0  0  0
  184.0360  178.7410  144.8320 C   0  0  0  0  0  3  0  0  0  0  0  0
  186.1130  177.6290  142.0760 C   0  0  0  0  0  0  0  0  0  0  0  0
  190.1150  176.9630  145.6560 C   0  0  0  0  0  0  0  0  0  0  0  0
  186.2490  177.2220  139.3390 C   0  0  0  0  0  3  0  0  0  0  0  0
  184.8440  178.5890  145.9170 N   0  0  0  0  0  0  0  0  0  0  0  0
  185.0420  177.9070  141.2350 C   0  0  0  0  0  0  0  0  0  0  0  0
  185.1040  177.7090  139.8950 N   0  0  0  0  0  0  0  0  0  0  0  0
  186.9470  177.9900  147.0380 C   0  0  0  0  0  0  0  0  0  0  0  0
  186.2710  178.3700  148.6120 Cl  0  0  0  0  0  0  0  0  0  0  0  0
  191.3770  176.6340  145.6220 C   0  0  0  0  0  3  0  0  0  0  0  0
  188.0440  177.1810  144.4260 C   0  0  0  0  0  2  0  0  0  0  0  0
  187.3630  176.9240  140.1450 C   0  0  0  0  0  3  0  0  0  0  0  0
  184.5320  178.4020  143.5820 C   0  0  0  0  0  0  0  0  0  0  0  0
  183.7260  178.4990  142.1010 S   0  0  0  0  0  0  0  0  0  0  0  0
  188.2240  177.6180  146.9680 C   0  0  0  0  0  3  0  0  0  0  0  0
  187.2970  177.1300  141.5300 C   0  0  0  0  0  3  0  0  0  0  0  0
  188.8550  177.2890  145.6840 C   0  0  0  0  0  0  0  0  0  0  0  0
  186.1220  178.1130  145.8180 C   0  0  0  0  0  0  0  0  0  0  0  0
  192.1640  176.7560  144.3590 C   0  0  2  0  0  3  0  0  0  0  0  0
  191.7710  175.7200  143.4170 N   0  0  0  0  0  1  0  0  0  0  0  0
  193.6240  176.6570  144.6480 C   0  0  0  0  0  0  0  0  0  0  0  0
  194.4710  176.0790  143.7110 O   0  0  0  0  0  0  0  0  0  0  0  0
  194.0970  177.1040  145.7260 O   0  0  0  0  0  1  0  0  0  0  0  0
  1 15  1  0  0  0  0
  1  2  2  0  0  0  0
  2 20  1  0  0  0  0
  3  7  1  0  0  0  0
  4  1  1  0  0  0  0
  5 19  2  0  0  0  0
  6  9  2  0  0  0  0
  6 14  1  0  0  0  0
  8  4  2  0  0  0  0
  8 16  1  0  0  0  0
  9  8  1  0  0  0  0
 10 11  1  0  0  0  0
 12  5  2  0  0  0  0
 13  2  1  0  0  0  0
 13 19  1  0  0  0  0
 14 18  2  0  0  0  0
 15  3  2  0  0  0  0
 16 15  1  0  0  0  0
 17 10  2  0  0  0  0
 18  4  1  0  0  0  0
 19 17  1  0  0  0  0
 20  7  2  0  0  0  0
 20 10  1  0  0  0  0
 21 22  1  6  0  0  0
 21 23  1  0  0  0  0
 21 12  1  0  0  0  0
 23 25  1  0  0  0  0
 24 23  2  0  0  0  0
M  END
>  <MODEL>
5

>  <REMARK>
 VINA RESULT:      -7.3      5.607      8.693
  Name = 
  2 active torsions:
  status: ('A' for Active; 'I' for Inactive)
    1  A    between atoms: C_2  and  CA_21
    2  A    between atoms: C_15  and  CA_21
                            x       y       z     vdW  Elec       q    Type
                         _______ _______ _______ _____ _____    ______ ____

>  <TORSDO>
F 2

$$$$
=
 OpenBabel11052417333D

 25 28  0  0  1  0  0  0  0  0999 V2000
  190.3680  175.8340  144.3350 C   0  0  0  0  0  0  0  0  0  0  0  0
  189.2340  175.8800  143.5010 C   0  0  0  0  0  0  0  0  0  0  0  0
  191.6080  174.6590  142.6170 C   0  0  0  0  0  3  0  0  0  0  0  0
  190.5200  176.3360  145.6410 C   0  0  0  0  0  0  0  0  0  0  0  0
  185.8080  177.2810  143.1540 C   0  0  0  0  0  0  0  0  0  0  0  0
  191.2490  177.1610  148.1840 C   0  0  0  0  0  3  0  0  0  0  0  0
  190.5080  174.7060  141.8170 N   0  0  0  0  0  0  0  0  0  0  0  0
  191.7900  176.1040  146.1550 C   0  0  0  0  0  0  0  0  0  0  0  0
  192.1510  176.5060  147.3990 N   0  0  0  0  0  0  0  0  0  0  0  0
  188.1880  175.3190  141.2850 C   0  0  0  0  0  0  0  0  0  0  0  0
  188.2910  174.5380  139.7170 Cl  0  0  0  0  0  0  0  0  0  0  0  0
  184.7060  177.9260  143.4180 C   0  0  0  0  0  3  0  0  0  0  0  0
  187.9370  176.4830  143.9800 C   0  0  0  0  0  2  0  0  0  0  0  0
  189.9490  177.4210  147.7120 C   0  0  0  0  0  3  0  0  0  0  0  0
  191.5360  175.2280  143.8800 C   0  0  0  0  0  0  0  0  0  0  0  0
  192.7570  175.2900  145.0440 S   0  0  0  0  0  0  0  0  0  0  0  0
  187.0640  175.9600  141.6030 C   0  0  0  0  0  3  0  0  0  0  0  0
  189.5780  177.0050  146.4250 C   0  0  0  0  0  3  0  0  0  0  0  0
  186.9110  176.6380  142.8960 C   0  0  0  0  0  0  0  0  0  0  0  0
  189.3370  175.2910  142.2140 C   0  0  0  0  0  0  0  0  0  0  0  0
  184.6770  178.9920  144.4620 C   0  0  2  0  0  3  0  0  0  0  0  0
  185.6240  180.0460  144.1350 N   0  0  0  0  0  1  0  0  0  0  0  0
  184.9970  178.4140  145.8000 C   0  0  0  0  0  0  0  0  0  0  0  0
  186.2840  178.5300  146.3070 O   0  0  0  0  0  0  0  0  0  0  0  0
  184.1080  177.8350  146.4790 O   0  0  0  0  0  1  0  0  0  0  0  0
  1  4  1  0  0  0  0
  2 13  1  0  0  0  0
  2  1  1  0  0  0  0
  3 15  1  0  0  0  0
  4  8  2  0  0  0  0
  4 18  1  0  0  0  0
  5 12  2  0  0  0  0
  7 20  1  0  0  0  0
  7  3  2  0  0  0  0
  8  9  1  0  0  0  0
  9  6  2  0  0  0  0
 10 17  2  0  0  0  0
 10 20  1  0  0  0  0
 11 10  1  0  0  0  0
 12 21  1  0  0  0  0
 14  6  1  0  0  0  0
 15  1  2  0  0  0  0
 15 16  1  0  0  0  0
 16  8  1  0  0  0  0
 17 19  1  0  0  0  0
 18 14  2  0  0  0  0
 19  5  2  0  0  0  0
 19 13  1  0  0  0  0
 20  2  2  0  0  0  0
 21 22  1  6  0  0  0
 21 23  1  0  0  0  0
 23 24  2  0  0  0  0
 23 25  1  0  0  0  0
M  END
>  <MODEL>
6

>  <REMARK>
 VINA RESULT:      -7.3      3.784      5.033
  Name = 
  2 active torsions:
  status: ('A' for Active; 'I' for Inactive)
    1  A    between atoms: C_2  and  CA_21
    2  A    between atoms: C_15  and  CA_21
                            x       y       z     vdW  Elec       q    Type
                         _______ _______ _______ _____ _____    ______ ____

>  <TORSDO>
F 2

$$$$
=
 OpenBabel11052417333D

 25 28  0  0  1  0  0  0  0  0999 V2000
  189.4120  176.2300  144.8650 C   0  0  0  0  0  0  0  0  0  0  0  0
  190.5090  176.2860  145.7460 C   0  0  0  0  0  0  0  0  0  0  0  0
  188.0810  177.5410  146.4080 C   0  0  0  0  0  3  0  0  0  0  0  0
  189.3230  175.5970  143.6110 C   0  0  0  0  0  0  0  0  0  0  0  0
  194.1190  175.4790  146.1130 C   0  0  0  0  0  0  0  0  0  0  0  0
  188.7160  174.5130  141.1340 C   0  0  0  0  0  3  0  0  0  0  0  0
  189.1450  177.5900  147.2550 N   0  0  0  0  0  0  0  0  0  0  0  0
  188.0730  175.7540  143.0240 C   0  0  0  0  0  0  0  0  0  0  0  0
  187.7710  175.2250  141.8130 N   0  0  0  0  0  0  0  0  0  0  0  0
  191.4570  177.1000  147.9280 C   0  0  0  0  0  0  0  0  0  0  0  0
  191.2330  177.9170  149.4640 Cl  0  0  0  0  0  0  0  0  0  0  0  0
  195.3180  175.0400  145.8510 C   0  0  0  0  0  3  0  0  0  0  0  0
  191.8010  175.5730  145.4320 C   0  0  0  0  0  2  0  0  0  0  0  0
  189.9980  174.3250  141.6840 C   0  0  0  0  0  3  0  0  0  0  0  0
  188.2180  176.8590  145.2080 C   0  0  0  0  0  0  0  0  0  0  0  0
  187.0490  176.6590  144.0060 S   0  0  0  0  0  0  0  0  0  0  0  0
  192.6610  176.6080  147.6390 C   0  0  0  0  0  3  0  0  0  0  0  0
  190.3080  174.8730  142.9360 C   0  0  0  0  0  3  0  0  0  0  0  0
  192.9190  175.9160  146.3700 C   0  0  0  0  0  0  0  0  0  0  0  0
  190.3400  176.9910  146.9670 C   0  0  0  0  0  0  0  0  0  0  0  0
  195.7420  174.7730  144.4440 C   0  0  2  0  0  3  0  0  0  0  0  0
  197.1420  174.3780  144.4050 N   0  0  0  0  0  1  0  0  0  0  0  0
  195.5300  175.9840  143.6010 C   0  0  0  0  0  0  0  0  0  0  0  0
  194.4140  176.0600  142.7780 O   0  0  0  0  0  0  0  0  0  0  0  0
  196.3440  176.9450  143.6380 O   0  0  0  0  0  1  0  0  0  0  0  0
  1 15  1  0  0  0  0
  1  2  2  0  0  0  0
  2 20  1  0  0  0  0
  3  7  1  0  0  0  0
  4  1  1  0  0  0  0
  5 19  2  0  0  0  0
  6 14  2  0  0  0  0
  6  9  1  0  0  0  0
  8  4  1  0  0  0  0
  8 16  1  0  0  0  0
  9  8  2  0  0  0  0
 10 11  1  0  0  0  0
 12  5  2  0  0  0  0
 13  2  1  0  0  0  0
 13 19  1  0  0  0  0
 14 18  1  0  0  0  0
 15  3  2  0  0  0  0
 16 15  1  0  0  0  0
 17 10  2  0  0  0  0
 18  4  2  0  0  0  0
 19 17  1  0  0  0  0
 20  7  2  0  0  0  0
 20 10  1  0  0  0  0
 21 22  1  1  0  0  0
 21 12  1  0  0  0  0
 23 25  1  0  0  0  0
 23 21  1  0  0  0  0
 24 23  2  0  0  0  0
M  END
>  <MODEL>
7

>  <REMARK>
 VINA RESULT:      -6.9      6.967     10.529
  Name = 
  2 active torsions:
  status: ('A' for Active; 'I' for Inactive)
    1  A    between atoms: C_2  and  CA_21
    2  A    between atoms: C_15  and  CA_21
                            x       y       z     vdW  Elec       q    Type
                         _______ _______ _______ _____ _____    ______ ____

>  <TORSDO>
F 2

$$$$
=
 OpenBabel11052417333D

 25 28  0  0  1  0  0  0  0  0999 V2000
  190.7460  174.7290  143.6400 C   0  0  0  0  0  0  0  0  0  0  0  0
  190.2610  175.5790  144.6520 C   0  0  0  0  0  0  0  0  0  0  0  0
  192.6910  174.2040  144.9870 C   0  0  0  0  0  3  0  0  0  0  0  0
  190.1730  174.4340  142.3890 C   0  0  0  0  0  0  0  0  0  0  0  0
  187.3510  177.6300  145.7210 C   0  0  0  0  0  0  0  0  0  0  0  0
  189.4100  173.5810  139.8660 C   0  0  0  0  0  3  0  0  0  0  0  0
  192.2160  175.0280  145.9600 N   0  0  0  0  0  0  0  0  0  0  0  0
  190.9420  173.5460  141.6470 C   0  0  0  0  0  0  0  0  0  0  0  0
  190.5740  173.1270  140.4120 N   0  0  0  0  0  0  0  0  0  0  0  0
  190.5780  176.5770  146.9380 C   0  0  0  0  0  0  0  0  0  0  0  0
  191.5660  176.7920  148.3710 Cl  0  0  0  0  0  0  0  0  0  0  0  0
  186.1850  178.2140  145.7180 C   0  0  0  0  0  3  0  0  0  0  0  0
  188.9870  176.3660  144.4670 C   0  0  0  0  0  2  0  0  0  0  0  0
  188.5930  174.4810  140.5750 C   0  0  0  0  0  3  0  0  0  0  0  0
  191.9510  174.0540  143.8240 C   0  0  0  0  0  0  0  0  0  0  0  0
  192.3320  173.0990  142.4840 S   0  0  0  0  0  0  0  0  0  0  0  0
  189.3940  177.1850  146.8850 C   0  0  0  0  0  3  0  0  0  0  0  0
  188.9760  174.9140  141.8520 C   0  0  0  0  0  3  0  0  0  0  0  0
  188.5150  177.0450  145.7180 C   0  0  0  0  0  0  0  0  0  0  0  0
  191.0390  175.7120  145.8320 C   0  0  0  0  0  0  0  0  0  0  0  0
  185.0950  177.7380  144.8160 C   0  0  2  0  0  3  0  0  0  0  0  0
  185.6020  176.7290  143.8990 N   0  0  0  0  0  1  0  0  0  0  0  0
  184.5210  178.8820  144.0490 C   0  0  0  0  0  0  0  0  0  0  0  0
  185.0120  180.1640  144.2600 O   0  0  0  0  0  1  0  0  0  0  0  0
  183.6060  178.6950  143.2040 O   0  0  0  0  0  0  0  0  0  0  0  0
  1 15  1  0  0  0  0
  1  2  2  0  0  0  0
  2 20  1  0  0  0  0
  3  7  1  0  0  0  0
  4  1  1  0  0  0  0
  6  9  2  0  0  0  0
  6 14  1  0  0  0  0
  8  4  2  0  0  0  0
  8 16  1  0  0  0  0
  9  8  1  0  0  0  0
 10 11  1  0  0  0  0
 12  5  2  0  0  0  0
 13  2  1  0  0  0  0
 13 19  1  0  0  0  0
 14 18  2  0  0  0  0
 15  3  2  0  0  0  0
 16 15  1  0  0  0  0
 17 10  2  0  0  0  0
 18  4  1  0  0  0  0
 19  5  2  0  0  0  0
 19 17  1  0  0  0  0
 20  7  2  0  0  0  0
 20 10  1  0  0  0  0
 21 22  1  6  0  0  0
 21 12  1  0  0  0  0
 23 24  1  0  0  0  0
 23 21  1  0  0  0  0
 25 23  2  0  0  0  0
M  END
>  <MODEL>
8

>  <REMARK>
 VINA RESULT:      -6.9      4.567      7.059
  Name = 
  2 active torsions:
  status: ('A' for Active; 'I' for Inactive)
    1  A    between atoms: C_2  and  CA_21
    2  A    between atoms: C_15  and  CA_21
                            x       y       z     vdW  Elec       q    Type
                         _______ _______ _______ _____ _____    ______ ____

>  <TORSDO>
F 2

$$$$
=
 OpenBabel11052417333D

 25 28  0  0  1  0  0  0  0  0999 V2000
  188.5010  175.1390  141.9260 C   0  0  0  0  0  0  0  0  0  0  0  0
  188.4740  175.5820  143.2620 C   0  0  0  0  0  0  0  0  0  0  0  0
  190.0180  173.3490  142.5300 C   0  0  0  0  0  3  0  0  0  0  0  0
  187.8330  175.6730  140.8090 C   0  0  0  0  0  0  0  0  0  0  0  0
  186.8370  177.9480  145.6160 C   0  0  0  0  0  0  0  0  0  0  0  0
  186.7190  176.3840  138.3730 C   0  0  0  0  0  3  0  0  0  0  0  0
  189.9880  173.7840  143.8190 N   0  0  0  0  0  0  0  0  0  0  0  0
  188.1000  174.9680  139.6410 C   0  0  0  0  0  0  0  0  0  0  0  0
  187.5580  175.3120  138.4470 N   0  0  0  0  0  0  0  0  0  0  0  0
  189.2520  175.2710  145.6320 C   0  0  0  0  0  0  0  0  0  0  0  0
  190.2570  174.4260  146.7970 Cl  0  0  0  0  0  0  0  0  0  0  0  0
  186.0640  178.8900  146.0810 C   0  0  0  0  0  3  0  0  0  0  0  0
  187.6950  176.8110  143.6620 C   0  0  0  0  0  2  0  0  0  0  0  0
  186.4140  177.1330  139.5250 C   0  0  0  0  0  3  0  0  0  0  0  0
  189.2690  174.0300  141.5820 C   0  0  0  0  0  0  0  0  0  0  0  0
  189.1490  173.6850  139.9330 S   0  0  0  0  0  0  0  0  0  0  0  0
  188.4740  176.2620  146.0650 C   0  0  0  0  0  3  0  0  0  0  0  0
  186.9760  176.7750  140.7590 C   0  0  0  0  0  3  0  0  0  0  0  0
  187.6060  177.0080  145.1460 C   0  0  0  0  0  0  0  0  0  0  0  0
  189.2500  174.8660  144.2110 C   0  0  0  0  0  0  0  0  0  0  0  0
  184.8610  179.3360  145.3180 C   0  0  2  0  0  3  0  0  0  0  0  0
  183.6630  178.7060  145.8510 N   0  0  0  0  0  1  0  0  0  0  0  0
  185.0130  179.0050  143.8720 C   0  0  0  0  0  0  0  0  0  0  0  0
  184.2460  177.9890  143.3160 O   0  0  0  0  0  1  0  0  0  0  0  0
  185.8200  179.6450  143.1470 O   0  0  0  0  0  0  0  0  0  0  0  0
  1  2  2  0  0  0  0
  2 13  1  0  0  0  0
  2 20  1  0  0  0  0
  3  7  1  0  0  0  0
  4  1  1  0  0  0  0
  5 12  2  0  0  0  0
  6  9  2  0  0  0  0
  6 14  1  0  0  0  0
  7 20  2  0  0  0  0
  8 16  1  0  0  0  0
  8  4  2  0  0  0  0
  9  8  1  0  0  0  0
 10 17  2  0  0  0  0
 10 11  1  0  0  0  0
 13 19  1  0  0  0  0
 14 18  2  0  0  0  0
 15  1  1  0  0  0  0
 15  3  2  0  0  0  0
 16 15  1  0  0  0  0
 18  4  1  0  0  0  0
 19  5  2  0  0  0  0
 19 17  1  0  0  0  0
 20 10  1  0  0  0  0
 21 22  1  1  0  0  0
 21 12  1  0  0  0  0
 23 21  1  0  0  0  0
 24 23  1  0  0  0  0
 25 23  2  0  0  0  0
M  END
>  <MODEL>
9

>  <REMARK>
 VINA RESULT:      -6.8      3.926      6.355
  Name = 
  2 active torsions:
  status: ('A' for Active; 'I' for Inactive)
    1  A    between atoms: C_2  and  CA_21
    2  A    between atoms: C_15  and  CA_21
                            x       y       z     vdW  Elec       q    Type
                         _______ _______ _______ _____ _____    ______ ____

>  <TORSDO>
F 2

$$$$
