=
 OpenBabel11052420253D

 34 39  0  0  1  0  0  0  0  0999 V2000
  192.0430  173.1820  143.1830 C   0  0  0  0  0  0  0  0  0  0  0  0
  191.7500  172.0830  139.6910 C   0  0  0  0  0  3  0  0  0  0  0  0
  192.9300  171.2720  141.4320 O   0  0  0  0  0  0  0  0  0  0  0  0
  192.1320  174.2720  145.3080 C   0  0  0  0  0  0  0  0  0  0  0  0
  191.6070  174.1280  144.0640 N   0  0  0  0  0  0  0  0  0  0  0  0
  193.6290  172.4310  144.8680 C   0  0  0  0  0  0  0  0  0  0  0  0
  194.7260  171.5610  145.3870 C   0  0  0  0  0  1  0  0  0  0  0  0
  193.1540  173.4240  145.7230 C   0  0  0  0  0  3  0  0  0  0  0  0
  191.6570  175.2810  146.2080 N   0  0  0  0  0  2  0  0  0  0  0  0
  193.4560  171.2960  142.6500 C   0  0  0  0  0  0  0  0  0  0  0  0
  193.0700  172.2920  143.5720 C   0  0  0  0  0  0  0  0  0  0  0  0
  194.3150  170.4240  142.9470 O   0  0  0  0  0  0  0  0  0  0  0  0
  191.0020  173.1100  138.9100 C   0  0  0  0  0  2  0  0  0  0  0  0
  189.5930  173.2690  139.3590 C   0  0  0  0  0  0  0  0  0  0  0  0
  189.3080  173.6080  140.6140 C   0  0  0  0  0  3  0  0  0  0  0  0
  192.0110  172.1300  141.0020 C   0  0  0  0  0  0  0  0  0  0  0  0
  190.2690  173.7100  141.7270 C   0  0  0  0  0  3  0  0  0  0  0  0
  191.4380  173.0610  141.9150 C   0  0  0  0  0  0  0  0  0  0  0  0
  189.5430  177.8550  144.4550 C   0  0  0  0  0  3  0  0  0  0  0  0
  189.5610  176.2330  146.8180 C   0  0  0  0  0  3  0  0  0  0  0  0
  185.9710  178.0670  145.6140 N   0  0  0  0  0  0  0  0  0  0  0  0
  184.7340  178.6480  145.1760 C   0  0  0  0  0  0  0  0  0  0  0  0
  187.1640  178.2340  144.8290 C   0  0  0  0  0  3  0  0  0  0  0  0
  183.6720  178.4470  145.8220 O   0  0  0  0  0  0  0  0  0  0  0  0
  188.3320  177.7770  145.2810 C   0  0  0  0  0  0  0  0  0  0  0  0
  184.6940  179.4630  144.0080 N   0  0  0  0  0  1  0  0  0  0  0  0
  187.1480  176.7350  147.2430 C   0  0  0  0  0  3  0  0  0  0  0  0
  188.4500  177.2380  146.6860 C   0  0  1  0  0  3  0  0  0  0  0  0
  185.9900  177.1830  146.7500 C   0  0  0  0  0  3  0  0  0  0  0  0
  190.6020  176.2230  145.9720 C   0  0  0  0  0  0  0  0  0  0  0  0
  190.6130  177.1310  144.7950 C   0  0  0  0  0  3  0  0  0  0  0  0
  188.4810  173.1130  138.3660 C   0  0  2  0  0  3  0  0  0  0  0  0
  188.9220  173.4830  137.0200 C   0  0  0  0  0  2  0  0  0  0  0  0
  188.1180  174.4280  137.8040 N   0  0  0  0  0  2  0  0  0  0  0  0
  1 11  2  0  0  0  0
  1  5  1  0  0  0  0
  2 16  2  0  0  0  0
  3 10  1  0  0  0  0
  4  8  1  0  0  0  0
  4  9  1  0  0  0  0
  5  4  2  0  0  0  0
  6  7  1  0  0  0  0
  6  8  2  0  0  0  0
 10 12  2  0  0  0  0
 10 11  1  0  0  0  0
 11  6  1  0  0  0  0
 13 14  1  0  0  0  0
 13  2  1  0  0  0  0
 14 15  2  0  0  0  0
 15 17  1  0  0  0  0
 16  3  1  0  0  0  0
 16 18  1  0  0  0  0
 17 18  2  0  0  0  0
 18  1  1  0  0  0  0
 19 31  2  0  0  0  0
 19 25  1  0  0  0  0
 21 29  1  0  0  0  0
 22 21  1  0  0  0  0
 22 24  2  0  0  0  0
 23 25  2  0  0  0  0
 23 21  1  0  0  0  0
 25 28  1  0  0  0  0
 26 22  1  0  0  0  0
 28 20  1  6  0  0  0
 28 27  1  0  0  0  0
 29 27  2  0  0  0  0
 30  9  1  0  0  0  0
 30 20  2  0  0  0  0
 31 30  1  0  0  0  0
 32 14  1  1  0  0  0
 33 34  1  0  0  0  0
 33 32  1  0  0  0  0
 34 32  1  0  0  0  0
M  END
>  <MODEL>
1

>  <REMARK>
 VINA RESULT:      -8.4      0.000      0.000
  Name = 
  2 active torsions:
  status: ('A' for Active; 'I' for Inactive)
    1  A    between atoms: C_3  and  C_25
    2  A    between atoms: N_18  and  C_30
                            x       y       z     vdW  Elec       q    Type
                         _______ _______ _______ _____ _____    ______ ____

>  <TORSDO>
F 2

$$$$
=
 OpenBabel11052420253D

 34 39  0  0  1  0  0  0  0  0999 V2000
  191.7250  175.3140  143.7870 C   0  0  0  0  0  0  0  0  0  0  0  0
  192.9980  173.6800  140.7530 C   0  0  0  0  0  3  0  0  0  0  0  0
  193.9710  174.1550  142.7300 O   0  0  0  0  0  0  0  0  0  0  0  0
  190.6280  176.5610  145.5050 C   0  0  0  0  0  0  0  0  0  0  0  0
  190.6120  175.8910  144.3240 N   0  0  0  0  0  0  0  0  0  0  0  0
  192.9850  176.0860  145.7200 C   0  0  0  0  0  0  0  0  0  0  0  0
  194.2210  176.2440  146.5420 C   0  0  0  0  0  1  0  0  0  0  0  0
  191.8190  176.6680  146.2160 C   0  0  0  0  0  3  0  0  0  0  0  0
  189.4420  177.1640  146.0380 N   0  0  0  0  0  2  0  0  0  0  0  0
  194.0670  174.7330  143.9210 C   0  0  0  0  0  0  0  0  0  0  0  0
  192.9520  175.3880  144.4850 C   0  0  0  0  0  0  0  0  0  0  0  0
  195.1760  174.6960  144.5160 O   0  0  0  0  0  0  0  0  0  0  0  0
  191.9940  173.8160  139.6600 C   0  0  0  0  0  2  0  0  0  0  0  0
  190.7210  173.1040  139.9480 C   0  0  0  0  0  0  0  0  0  0  0  0
  190.0000  173.3970  141.0270 C   0  0  0  0  0  3  0  0  0  0  0  0
  192.8560  174.1200  142.0090 C   0  0  0  0  0  0  0  0  0  0  0  0
  190.4040  174.2950  142.1250 C   0  0  0  0  0  3  0  0  0  0  0  0
  191.6410  174.6040  142.5710 C   0  0  0  0  0  0  0  0  0  0  0  0
  185.7210  177.6280  145.7120 C   0  0  0  0  0  3  0  0  0  0  0  0
  188.0090  176.8790  144.1580 C   0  0  0  0  0  3  0  0  0  0  0  0
  184.4340  177.8970  142.1880 N   0  0  0  0  0  0  0  0  0  0  0  0
  183.2310  178.2940  141.5140 C   0  0  0  0  0  0  0  0  0  0  0  0
  184.5070  177.9530  143.6240 C   0  0  0  0  0  3  0  0  0  0  0  0
  183.1840  178.3130  140.2550 O   0  0  0  0  0  0  0  0  0  0  0  0
  185.5870  177.4950  144.2570 C   0  0  0  0  0  0  0  0  0  0  0  0
  182.0760  178.6670  142.2590 N   0  0  0  0  0  1  0  0  0  0  0  0
  186.7060  177.1050  142.0360 C   0  0  0  0  0  3  0  0  0  0  0  0
  186.6640  176.7580  143.4970 C   0  0  1  0  0  3  0  0  0  0  0  0
  185.6200  177.5950  141.4310 C   0  0  0  0  0  3  0  0  0  0  0  0
  188.1270  177.1380  145.4680 C   0  0  0  0  0  0  0  0  0  0  0  0
  186.9180  177.4450  146.2780 C   0  0  0  0  0  3  0  0  0  0  0  0
  190.2060  172.0900  138.9700 C   0  0  2  0  0  3  0  0  0  0  0  0
  190.7680  172.3120  137.6370 C   0  0  0  0  0  2  0  0  0  0  0  0
  189.4010  172.7560  137.9290 N   0  0  0  0  0  2  0  0  0  0  0  0
  1  5  1  0  0  0  0
  1 11  2  0  0  0  0
  2 16  2  0  0  0  0
  3 10  1  0  0  0  0
  4  9  1  0  0  0  0
  4  8  1  0  0  0  0
  5  4  2  0  0  0  0
  6  8  2  0  0  0  0
  6  7  1  0  0  0  0
 10 11  1  0  0  0  0
 10 12  2  0  0  0  0
 11  6  1  0  0  0  0
 13 14  1  0  0  0  0
 13  2  1  0  0  0  0
 14 15  2  0  0  0  0
 15 17  1  0  0  0  0
 16 18  1  0  0  0  0
 16  3  1  0  0  0  0
 17 18  2  0  0  0  0
 18  1  1  0  0  0  0
 19 31  2  0  0  0  0
 20 30  2  0  0  0  0
 21 23  1  0  0  0  0
 22 21  1  0  0  0  0
 22 26  1  0  0  0  0
 23 25  2  0  0  0  0
 24 22  2  0  0  0  0
 25 19  1  0  0  0  0
 28 27  1  6  0  0  0
 28 20  1  0  0  0  0
 28 25  1  0  0  0  0
 29 27  2  0  0  0  0
 29 21  1  0  0  0  0
 30  9  1  0  0  0  0
 30 31  1  0  0  0  0
 32 14  1  1  0  0  0
 33 34  1  0  0  0  0
 33 32  1  0  0  0  0
 34 32  1  0  0  0  0
M  END
>  <MODEL>
2

>  <REMARK>
 VINA RESULT:      -8.4      2.408      3.313
  Name = 
  2 active torsions:
  status: ('A' for Active; 'I' for Inactive)
    1  A    between atoms: C_3  and  C_25
    2  A    between atoms: N_18  and  C_30
                            x       y       z     vdW  Elec       q    Type
                         _______ _______ _______ _____ _____    ______ ____

>  <TORSDO>
F 2

$$$$
=
 OpenBabel11052420253D

 34 39  0  0  1  0  0  0  0  0999 V2000
  193.6980  174.1970  143.2920 C   0  0  0  0  0  0  0  0  0  0  0  0
  193.9910  173.5770  139.6840 C   0  0  0  0  0  3  0  0  0  0  0  0
  195.4730  173.3840  141.3720 O   0  0  0  0  0  0  0  0  0  0  0  0
  193.2030  174.8620  145.5330 C   0  0  0  0  0  0  0  0  0  0  0  0
  192.8210  174.6000  144.2570 N   0  0  0  0  0  0  0  0  0  0  0  0
  195.4750  174.2930  144.9510 C   0  0  0  0  0  0  0  0  0  0  0  0
  196.8870  174.1580  145.4160 C   0  0  0  0  0  1  0  0  0  0  0  0
  194.5380  174.7140  145.8940 C   0  0  0  0  0  3  0  0  0  0  0  0
  192.2580  175.2920  146.5230 N   0  0  0  0  0  2  0  0  0  0  0  0
  195.9240  173.5540  142.6080 C   0  0  0  0  0  0  0  0  0  0  0  0
  195.0610  174.0210  143.6220 C   0  0  0  0  0  0  0  0  0  0  0  0
  197.1370  173.3080  142.8410 O   0  0  0  0  0  0  0  0  0  0  0  0
  192.7650  174.0730  138.9960 C   0  0  0  0  0  2  0  0  0  0  0  0
  191.5370  173.3340  139.3910 C   0  0  0  0  0  0  0  0  0  0  0  0
  191.1450  173.2870  140.6610 C   0  0  0  0  0  3  0  0  0  0  0  0
  194.2150  173.6010  141.0030 C   0  0  0  0  0  0  0  0  0  0  0  0
  191.9030  173.7830  141.8250 C   0  0  0  0  0  3  0  0  0  0  0  0
  193.2370  173.9090  141.9900 C   0  0  0  0  0  0  0  0  0  0  0  0
  188.5720  175.2750  147.2840 C   0  0  0  0  0  3  0  0  0  0  0  0
  190.4250  176.2010  145.3040 C   0  0  0  0  0  3  0  0  0  0  0  0
  186.5140  177.7490  145.3360 N   0  0  0  0  0  0  0  0  0  0  0  0
  185.1970  178.3160  145.3780 C   0  0  0  0  0  0  0  0  0  0  0  0
  186.9170  176.7870  146.3270 C   0  0  0  0  0  3  0  0  0  0  0  0
  184.8620  179.2090  144.5560 O   0  0  0  0  0  0  0  0  0  0  0  0
  188.1040  176.1880  146.2340 C   0  0  0  0  0  0  0  0  0  0  0  0
  184.2510  177.8730  146.3480 N   0  0  0  0  0  1  0  0  0  0  0  0
  188.6730  177.6540  144.2690 C   0  0  0  0  0  3  0  0  0  0  0  0
  188.9620  176.3780  145.0070 C   0  0  1  0  0  3  0  0  0  0  0  0
  187.4880  178.2550  144.4040 C   0  0  0  0  0  3  0  0  0  0  0  0
  190.8460  175.4740  146.3490 C   0  0  0  0  0  0  0  0  0  0  0  0
  189.8630  174.9320  147.3230 C   0  0  0  0  0  3  0  0  0  0  0  0
  190.6910  172.6920  138.3330 C   0  0  2  0  0  3  0  0  0  0  0  0
  189.9510  171.5500  138.8730 C   0  0  0  0  0  2  0  0  0  0  0  0
  191.1600  171.3180  138.0760 N   0  0  0  0  0  2  0  0  0  0  0  0
  1 11  2  0  0  0  0
  1  5  1  0  0  0  0
  2 16  2  0  0  0  0
  3 10  1  0  0  0  0
  4  8  1  0  0  0  0
  4  9  1  0  0  0  0
  5  4  2  0  0  0  0
  6  7  1  0  0  0  0
  6  8  2  0  0  0  0
 10 12  2  0  0  0  0
 10 11  1  0  0  0  0
 11  6  1  0  0  0  0
 13 14  1  0  0  0  0
 13  2  1  0  0  0  0
 14 15  2  0  0  0  0
 15 17  1  0  0  0  0
 16  3  1  0  0  0  0
 16 18  1  0  0  0  0
 17 18  2  0  0  0  0
 18  1  1  0  0  0  0
 19 31  2  0  0  0  0
 20 30  2  0  0  0  0
 21 22  1  0  0  0  0
 21 23  1  0  0  0  0
 22 26  1  0  0  0  0
 24 22  2  0  0  0  0
 25 23  2  0  0  0  0
 25 19  1  0  0  0  0
 27 29  2  0  0  0  0
 28 27  1  1  0  0  0
 28 20  1  0  0  0  0
 28 25  1  0  0  0  0
 29 21  1  0  0  0  0
 30  9  1  0  0  0  0
 30 31  1  0  0  0  0
 32 33  1  0  0  0  0
 32 14  1  1  0  0  0
 34 32  1  0  0  0  0
 34 33  1  0  0  0  0
M  END
>  <MODEL>
3

>  <REMARK>
 VINA RESULT:      -8.2      2.031      2.519
  Name = 
  2 active torsions:
  status: ('A' for Active; 'I' for Inactive)
    1  A    between atoms: C_3  and  C_25
    2  A    between atoms: N_18  and  C_30
                            x       y       z     vdW  Elec       q    Type
                         _______ _______ _______ _____ _____    ______ ____

>  <TORSDO>
F 2

$$$$
=
 OpenBabel11052420253D

 34 39  0  0  1  0  0  0  0  0999 V2000
  188.9730  175.9560  142.1590 C   0  0  0  0  0  0  0  0  0  0  0  0
  188.5210  173.5120  139.4540 C   0  0  0  0  0  3  0  0  0  0  0  0
  187.4420  175.4280  139.9510 O   0  0  0  0  0  0  0  0  0  0  0  0
  189.4300  177.2280  144.1300 C   0  0  0  0  0  0  0  0  0  0  0  0
  189.7300  176.2290  143.2600 N   0  0  0  0  0  0  0  0  0  0  0  0
  187.5080  177.7950  142.7850 C   0  0  0  0  0  0  0  0  0  0  0  0
  186.3250  178.6890  142.6100 C   0  0  0  0  0  1  0  0  0  0  0  0
  188.3100  178.0210  143.9020 C   0  0  0  0  0  3  0  0  0  0  0  0
  190.2410  177.4850  145.2830 N   0  0  0  0  0  2  0  0  0  0  0  0
  187.1090  176.4650  140.7080 C   0  0  0  0  0  0  0  0  0  0  0  0
  187.8350  176.7480  141.8850 C   0  0  0  0  0  0  0  0  0  0  0  0
  186.1250  177.1690  140.3590 O   0  0  0  0  0  0  0  0  0  0  0  0
  189.3670  172.3140  139.7240 C   0  0  0  0  0  2  0  0  0  0  0  0
  190.8230  172.6140  139.7020 C   0  0  0  0  0  0  0  0  0  0  0  0
  191.3490  173.5180  140.5240 C   0  0  0  0  0  3  0  0  0  0  0  0
  188.4630  174.6170  140.2070 C   0  0  0  0  0  0  0  0  0  0  0  0
  190.6010  174.4280  141.4100 C   0  0  0  0  0  3  0  0  0  0  0  0
  189.3520  174.9250  141.2750 C   0  0  0  0  0  0  0  0  0  0  0  0
  192.4870  174.9090  146.8610 C   0  0  0  0  0  3  0  0  0  0  0  0
  192.5890  177.1430  145.0700 C   0  0  0  0  0  3  0  0  0  0  0  0
  195.8570  174.5000  145.2410 N   0  0  0  0  0  0  0  0  0  0  0  0
  196.9490  173.5700  145.2600 C   0  0  0  0  0  0  0  0  0  0  0  0
  194.6950  174.2630  146.0550 C   0  0  0  0  0  3  0  0  0  0  0  0
  197.9390  173.7350  144.4980 O   0  0  0  0  0  0  0  0  0  0  0  0
  193.7210  175.1720  146.1120 C   0  0  0  0  0  0  0  0  0  0  0  0
  196.9300  172.4520  146.1430 N   0  0  0  0  0  1  0  0  0  0  0  0
  194.9020  176.5250  144.3470 C   0  0  0  0  0  3  0  0  0  0  0  0
  193.9000  176.5250  145.4680 C   0  0  1  0  0  3  0  0  0  0  0  0
  195.8470  175.5830  144.2930 C   0  0  0  0  0  3  0  0  0  0  0  0
  191.4400  176.7970  145.6680 C   0  0  0  0  0  0  0  0  0  0  0  0
  191.4200  175.6870  146.6570 C   0  0  0  0  0  3  0  0  0  0  0  0
  191.7220  171.8350  138.7890 C   0  0  2  0  0  3  0  0  0  0  0  0
  192.8320  172.6610  138.3130 C   0  0  0  0  0  2  0  0  0  0  0  0
  191.6860  172.4110  137.4320 N   0  0  0  0  0  2  0  0  0  0  0  0
  1  5  1  0  0  0  0
  2 13  1  0  0  0  0
  2 16  2  0  0  0  0
  3 16  1  0  0  0  0
  3 10  1  0  0  0  0
  4  9  1  0  0  0  0
  5  4  2  0  0  0  0
  6  8  2  0  0  0  0
  7  6  1  0  0  0  0
  8  4  1  0  0  0  0
  9 30  1  0  0  0  0
 10 11  1  0  0  0  0
 11  1  2  0  0  0  0
 11  6  1  0  0  0  0
 12 10  2  0  0  0  0
 14 13  1  0  0  0  0
 14 15  2  0  0  0  0
 15 17  1  0  0  0  0
 16 18  1  0  0  0  0
 18 17  2  0  0  0  0
 18  1  1  0  0  0  0
 20 28  1  0  0  0  0
 20 30  2  0  0  0  0
 21 22  1  0  0  0  0
 21 23  1  0  0  0  0
 22 26  1  0  0  0  0
 23 25  2  0  0  0  0
 24 22  2  0  0  0  0
 25 19  1  0  0  0  0
 28 27  1  6  0  0  0
 28 25  1  0  0  0  0
 29 27  2  0  0  0  0
 29 21  1  0  0  0  0
 30 31  1  0  0  0  0
 31 19  2  0  0  0  0
 32 14  1  1  0  0  0
 33 32  1  0  0  0  0
 34 33  1  0  0  0  0
 34 32  1  0  0  0  0
M  END
>  <MODEL>
4

>  <REMARK>
 VINA RESULT:      -8.1      3.069      7.202
  Name = 
  2 active torsions:
  status: ('A' for Active; 'I' for Inactive)
    1  A    between atoms: C_3  and  C_25
    2  A    between atoms: N_18  and  C_30
                            x       y       z     vdW  Elec       q    Type
                         _______ _______ _______ _____ _____    ______ ____

>  <TORSDO>
F 2

$$$$
=
 OpenBabel11052420253D

 34 39  0  0  1  0  0  0  0  0999 V2000
  193.3090  175.1410  142.1980 C   0  0  0  0  0  0  0  0  0  0  0  0
  193.0440  173.6540  138.8500 C   0  0  0  0  0  3  0  0  0  0  0  0
  194.8200  174.0990  140.1650 O   0  0  0  0  0  0  0  0  0  0  0  0
  193.1200  176.2910  144.2840 C   0  0  0  0  0  0  0  0  0  0  0  0
  192.5660  175.6600  143.2170 N   0  0  0  0  0  0  0  0  0  0  0  0
  195.3120  175.8930  143.3560 C   0  0  0  0  0  0  0  0  0  0  0  0
  196.7870  176.0680  143.5130 C   0  0  0  0  0  1  0  0  0  0  0  0
  194.5040  176.4170  144.3630 C   0  0  0  0  0  3  0  0  0  0  0  0
  192.3110  176.8340  145.3360 N   0  0  0  0  0  2  0  0  0  0  0  0
  195.4510  174.6400  141.1990 C   0  0  0  0  0  0  0  0  0  0  0  0
  194.7180  175.2350  142.2470 C   0  0  0  0  0  0  0  0  0  0  0  0
  196.7100  174.6230  141.2070 O   0  0  0  0  0  0  0  0  0  0  0  0
  191.6430  173.7910  138.3570 C   0  0  0  0  0  2  0  0  0  0  0  0
  190.6640  173.0250  139.1720 C   0  0  0  0  0  0  0  0  0  0  0  0
  190.5260  173.2560  140.4750 C   0  0  0  0  0  3  0  0  0  0  0  0
  193.4970  174.0470  140.0460 C   0  0  0  0  0  0  0  0  0  0  0  0
  191.3810  174.1310  141.2980 C   0  0  0  0  0  3  0  0  0  0  0  0
  192.6780  174.4690  141.1300 C   0  0  0  0  0  0  0  0  0  0  0  0
  188.8900  176.6060  146.8880 C   0  0  0  0  0  3  0  0  0  0  0  0
  190.1530  177.0850  144.3610 C   0  0  0  0  0  3  0  0  0  0  0  0
  186.0930  178.0750  144.8460 N   0  0  0  0  0  0  0  0  0  0  0  0
  184.7230  178.4620  145.0260 C   0  0  0  0  0  0  0  0  0  0  0  0
  186.8390  177.5290  145.9480 C   0  0  0  0  0  3  0  0  0  0  0  0
  184.0860  179.0050  144.0840 O   0  0  0  0  0  0  0  0  0  0  0  0
  188.0800  177.0800  145.7590 C   0  0  0  0  0  0  0  0  0  0  0  0
  184.0660  178.2320  146.2690 N   0  0  0  0  0  1  0  0  0  0  0  0
  188.0050  177.9160  143.3860 C   0  0  0  0  0  3  0  0  0  0  0  0
  188.6530  176.9790  144.3670 C   0  0  1  0  0  3  0  0  0  0  0  0
  186.7730  178.3790  143.6140 C   0  0  0  0  0  3  0  0  0  0  0  0
  190.8820  176.7790  145.4430 C   0  0  0  0  0  0  0  0  0  0  0  0
  190.2080  176.4530  146.7280 C   0  0  0  0  0  3  0  0  0  0  0  0
  189.7680  172.0260  138.5010 C   0  0  2  0  0  3  0  0  0  0  0  0
  189.5600  172.3680  137.0930 C   0  0  0  0  0  2  0  0  0  0  0  0
  188.5150  172.6770  138.0760 N   0  0  0  0  0  2  0  0  0  0  0  0
  1 11  2  0  0  0  0
  1  5  1  0  0  0  0
  2 16  2  0  0  0  0
  3 10  1  0  0  0  0
  4  8  1  0  0  0  0
  4  9  1  0  0  0  0
  5  4  2  0  0  0  0
  6  7  1  0  0  0  0
  6  8  2  0  0  0  0
  9 30  1  0  0  0  0
 10 12  2  0  0  0  0
 10 11  1  0  0  0  0
 11  6  1  0  0  0  0
 13  2  1  0  0  0  0
 13 14  1  0  0  0  0
 14 15  2  0  0  0  0
 15 17  1  0  0  0  0
 16  3  1  0  0  0  0
 16 18  1  0  0  0  0
 18 17  2  0  0  0  0
 18  1  1  0  0  0  0
 20 28  1  0  0  0  0
 20 30  2  0  0  0  0
 21 22  1  0  0  0  0
 21 23  1  0  0  0  0
 22 26  1  0  0  0  0
 24 22  2  0  0  0  0
 25 23  2  0  0  0  0
 25 19  1  0  0  0  0
 27 29  2  0  0  0  0
 28 27  1  6  0  0  0
 28 25  1  0  0  0  0
 29 21  1  0  0  0  0
 30 31  1  0  0  0  0
 31 19  2  0  0  0  0
 32 14  1  1  0  0  0
 33 34  1  0  0  0  0
 33 32  1  0  0  0  0
 34 32  1  0  0  0  0
M  END
>  <MODEL>
5

>  <REMARK>
 VINA RESULT:      -8.1      2.341      2.686
  Name = 
  2 active torsions:
  status: ('A' for Active; 'I' for Inactive)
    1  A    between atoms: C_3  and  C_25
    2  A    between atoms: N_18  and  C_30
                            x       y       z     vdW  Elec       q    Type
                         _______ _______ _______ _____ _____    ______ ____

>  <TORSDO>
F 2

$$$$
=
 OpenBabel11052420253D

 34 39  0  0  1  0  0  0  0  0999 V2000
  188.6180  174.2350  139.4280 C   0  0  0  0  0  0  0  0  0  0  0  0
  190.3780  171.5220  141.1690 C   0  0  0  0  0  3  0  0  0  0  0  0
  190.2920  172.1120  138.9950 O   0  0  0  0  0  0  0  0  0  0  0  0
  187.2090  175.9850  138.6150 C   0  0  0  0  0  0  0  0  0  0  0  0
  187.7860  175.2970  139.6330 N   0  0  0  0  0  0  0  0  0  0  0  0
  188.3250  174.5440  137.0330 C   0  0  0  0  0  0  0  0  0  0  0  0
  188.5560  174.2070  135.5970 C   0  0  0  0  0  1  0  0  0  0  0  0
  187.4710  175.6130  137.3000 C   0  0  0  0  0  3  0  0  0  0  0  0
  186.3310  177.0910  138.8630 N   0  0  0  0  0  2  0  0  0  0  0  0
  189.8270  172.7660  137.9390 C   0  0  0  0  0  0  0  0  0  0  0  0
  188.9210  173.8350  138.1070 C   0  0  0  0  0  0  0  0  0  0  0  0
  190.1990  172.3960  136.7940 O   0  0  0  0  0  0  0  0  0  0  0  0
  189.9130  171.4590  142.5840 C   0  0  0  0  0  2  0  0  0  0  0  0
  190.2620  172.6750  143.3650 C   0  0  0  0  0  0  0  0  0  0  0  0
  189.8380  173.8780  142.9850 C   0  0  0  0  0  3  0  0  0  0  0  0
  189.9820  172.4120  140.2520 C   0  0  0  0  0  0  0  0  0  0  0  0
  189.1460  174.1980  141.7240 C   0  0  0  0  0  3  0  0  0  0  0  0
  189.2130  173.5770  140.5250 C   0  0  0  0  0  0  0  0  0  0  0  0
  184.1780  178.2900  141.7080 C   0  0  0  0  0  3  0  0  0  0  0  0
  186.9230  177.7750  141.0660 C   0  0  0  0  0  3  0  0  0  0  0  0
  185.8100  178.2380  145.0970 N   0  0  0  0  0  0  0  0  0  0  0  0
  185.4230  178.3430  146.4740 C   0  0  0  0  0  0  0  0  0  0  0  0
  184.8140  178.3110  144.0610 C   0  0  0  0  0  3  0  0  0  0  0  0
  186.2790  178.2100  147.3880 O   0  0  0  0  0  0  0  0  0  0  0  0
  185.1810  178.3100  142.7790 C   0  0  0  0  0  0  0  0  0  0  0  0
  184.0660  178.6040  146.8250 N   0  0  0  0  0  1  0  0  0  0  0  0
  187.5680  177.9200  143.4780 C   0  0  0  0  0  3  0  0  0  0  0  0
  186.6390  178.4060  142.4010 C   0  0  1  0  0  3  0  0  0  0  0  0
  187.1650  177.8980  144.7520 C   0  0  0  0  0  3  0  0  0  0  0  0
  185.9650  177.6350  140.1390 C   0  0  0  0  0  0  0  0  0  0  0  0
  184.5570  177.9860  140.4630 C   0  0  0  0  0  3  0  0  0  0  0  0
  191.0420  172.5360  144.6380 C   0  0  2  0  0  3  0  0  0  0  0  0
  191.7390  173.7810  144.9660 C   0  0  0  0  0  2  0  0  0  0  0  0
  192.4850  172.6700  144.3630 N   0  0  0  0  0  2  0  0  0  0  0  0
  1  5  1  0  0  0  0
  1 18  1  0  0  0  0
  2 13  1  0  0  0  0
  3 16  1  0  0  0  0
  4  9  1  0  0  0  0
  4  5  2  0  0  0  0
  6  8  2  0  0  0  0
  6 11  1  0  0  0  0
  7  6  1  0  0  0  0
  8  4  1  0  0  0  0
  9 30  1  0  0  0  0
 10 11  1  0  0  0  0
 10  3  1  0  0  0  0
 11  1  2  0  0  0  0
 12 10  2  0  0  0  0
 13 14  1  0  0  0  0
 15 14  2  0  0  0  0
 16 18  1  0  0  0  0
 16  2  2  0  0  0  0
 17 15  1  0  0  0  0
 18 17  2  0  0  0  0
 19 25  1  0  0  0  0
 21 22  1  0  0  0  0
 22 26  1  0  0  0  0
 22 24  2  0  0  0  0
 23 21  1  0  0  0  0
 25 23  2  0  0  0  0
 27 29  2  0  0  0  0
 28 20  1  6  0  0  0
 28 25  1  0  0  0  0
 28 27  1  0  0  0  0
 29 21  1  0  0  0  0
 30 31  1  0  0  0  0
 30 20  2  0  0  0  0
 31 19  2  0  0  0  0
 32 14  1  6  0  0  0
 32 33  1  0  0  0  0
 34 32  1  0  0  0  0
 34 33  1  0  0  0  0
M  END
>  <MODEL>
6

>  <REMARK>
 VINA RESULT:      -8.1      2.514      6.048
  Name = 
  2 active torsions:
  status: ('A' for Active; 'I' for Inactive)
    1  A    between atoms: C_3  and  C_25
    2  A    between atoms: N_18  and  C_30
                            x       y       z     vdW  Elec       q    Type
                         _______ _______ _______ _____ _____    ______ ____

>  <TORSDO>
F 2

$$$$
=
 OpenBabel11052420253D

 34 39  0  0  1  0  0  0  0  0999 V2000
  189.7870  176.1590  145.7530 C   0  0  0  0  0  0  0  0  0  0  0  0
  186.4320  177.6210  145.4370 C   0  0  0  0  0  3  0  0  0  0  0  0
  188.1550  178.0860  146.8150 O   0  0  0  0  0  0  0  0  0  0  0  0
  191.7980  174.8680  145.7950 C   0  0  0  0  0  0  0  0  0  0  0  0
  190.6090  175.2040  145.2310 N   0  0  0  0  0  0  0  0  0  0  0  0
  191.4220  176.5130  147.5200 C   0  0  0  0  0  0  0  0  0  0  0  0
  191.9400  177.1660  148.7590 C   0  0  0  0  0  1  0  0  0  0  0  0
  192.2160  175.5200  146.9510 C   0  0  0  0  0  3  0  0  0  0  0  0
  192.6350  173.8530  145.2260 N   0  0  0  0  0  2  0  0  0  0  0  0
  189.3280  177.8700  147.3970 C   0  0  0  0  0  0  0  0  0  0  0  0
  190.1830  176.8540  146.9190 C   0  0  0  0  0  0  0  0  0  0  0  0
  189.6430  178.5790  148.3890 O   0  0  0  0  0  0  0  0  0  0  0  0
  185.6170  176.7910  144.5060 C   0  0  0  0  0  2  0  0  0  0  0  0
  186.1430  176.7890  143.1160 C   0  0  0  0  0  0  0  0  0  0  0  0
  187.3790  176.3740  142.8510 C   0  0  0  0  0  3  0  0  0  0  0  0
  187.7140  177.4110  145.7580 C   0  0  0  0  0  0  0  0  0  0  0  0
  188.4130  176.0310  143.8450 C   0  0  0  0  0  3  0  0  0  0  0  0
  188.5780  176.4870  145.1060 C   0  0  0  0  0  0  0  0  0  0  0  0
  191.3300  171.1400  142.9680 C   0  0  0  0  0  3  0  0  0  0  0  0
  192.6980  173.6550  142.8540 C   0  0  0  0  0  3  0  0  0  0  0  0
  190.9990  172.0830  139.3420 N   0  0  0  0  0  0  0  0  0  0  0  0
  190.3750  171.5730  138.1540 C   0  0  0  0  0  0  0  0  0  0  0  0
  190.8670  171.3740  140.5860 C   0  0  0  0  0  3  0  0  0  0  0  0
  190.4280  172.2240  137.0770 O   0  0  0  0  0  0  0  0  0  0  0  0
  191.5240  171.7930  141.6680 C   0  0  0  0  0  0  0  0  0  0  0  0
  189.6910  170.3230  138.1780 N   0  0  0  0  0  1  0  0  0  0  0  0
  192.3120  173.8120  140.3880 C   0  0  0  0  0  3  0  0  0  0  0  0
  192.5420  172.9020  141.5620 C   0  0  1  0  0  3  0  0  0  0  0  0
  191.6210  173.3810  139.3290 C   0  0  0  0  0  3  0  0  0  0  0  0
  192.3880  173.0970  144.0330 C   0  0  0  0  0  0  0  0  0  0  0  0
  191.7520  171.7540  144.0770 C   0  0  0  0  0  3  0  0  0  0  0  0
  185.2450  177.1950  141.9860 C   0  0  2  0  0  3  0  0  0  0  0  0
  185.9990  177.8730  140.9310 C   0  0  0  0  0  2  0  0  0  0  0  0
  185.2040  178.6660  141.8770 N   0  0  0  0  0  2  0  0  0  0  0  0
  1 11  2  0  0  0  0
  2 16  2  0  0  0  0
  3 10  1  0  0  0  0
  4  8  1  0  0  0  0
  5  1  1  0  0  0  0
  5  4  2  0  0  0  0
  6  7  1  0  0  0  0
  8  6  2  0  0  0  0
  9  4  1  0  0  0  0
 10 12  2  0  0  0  0
 11 10  1  0  0  0  0
 11  6  1  0  0  0  0
 13  2  1  0  0  0  0
 14 13  1  0  0  0  0
 15 14  2  0  0  0  0
 15 17  1  0  0  0  0
 16  3  1  0  0  0  0
 17 18  2  0  0  0  0
 18  1  1  0  0  0  0
 18 16  1  0  0  0  0
 19 31  2  0  0  0  0
 20 30  2  0  0  0  0
 21 23  1  0  0  0  0
 22 26  1  0  0  0  0
 22 21  1  0  0  0  0
 23 25  2  0  0  0  0
 24 22  2  0  0  0  0
 25 19  1  0  0  0  0
 28 27  1  6  0  0  0
 28 25  1  0  0  0  0
 28 20  1  0  0  0  0
 29 21  1  0  0  0  0
 29 27  2  0  0  0  0
 30 31  1  0  0  0  0
 30  9  1  0  0  0  0
 32 14  1  1  0  0  0
 33 34  1  0  0  0  0
 33 32  1  0  0  0  0
 34 32  1  0  0  0  0
M  END
>  <MODEL>
7

>  <REMARK>
 VINA RESULT:      -8.0      2.615      7.595
  Name = 
  2 active torsions:
  status: ('A' for Active; 'I' for Inactive)
    1  A    between atoms: C_3  and  C_25
    2  A    between atoms: N_18  and  C_30
                            x       y       z     vdW  Elec       q    Type
                         _______ _______ _______ _____ _____    ______ ____

>  <TORSDO>
F 2

$$$$
=
 OpenBabel11052420253D

 34 39  0  0  1  0  0  0  0  0999 V2000
  189.8420  175.8510  145.0430 C   0  0  0  0  0  0  0  0  0  0  0  0
  186.7440  177.4190  146.2410 C   0  0  0  0  0  3  0  0  0  0  0  0
  188.8640  177.4920  147.0050 O   0  0  0  0  0  0  0  0  0  0  0  0
  191.6060  174.5450  144.0980 C   0  0  0  0  0  0  0  0  0  0  0  0
  190.3400  175.0360  144.0690 N   0  0  0  0  0  0  0  0  0  0  0  0
  191.9960  175.7230  146.1680 C   0  0  0  0  0  0  0  0  0  0  0  0
  192.9590  176.0390  147.2640 C   0  0  0  0  0  1  0  0  0  0  0  0
  192.4490  174.8830  145.1520 C   0  0  0  0  0  3  0  0  0  0  0  0
  192.0970  173.6830  143.0630 N   0  0  0  0  0  2  0  0  0  0  0  0
  190.1330  177.1150  147.0820 C   0  0  0  0  0  0  0  0  0  0  0  0
  190.6700  176.2290  146.1240 C   0  0  0  0  0  0  0  0  0  0  0  0
  190.8300  177.5510  148.0360 O   0  0  0  0  0  0  0  0  0  0  0  0
  185.5840  176.8610  145.4890 C   0  0  0  0  0  2  0  0  0  0  0  0
  185.6190  177.1900  144.0390 C   0  0  0  0  0  0  0  0  0  0  0  0
  186.6480  176.8250  143.2790 C   0  0  0  0  0  3  0  0  0  0  0  0
  188.0300  177.1080  146.0440 C   0  0  0  0  0  0  0  0  0  0  0  0
  187.9090  176.2250  143.7500 C   0  0  0  0  0  3  0  0  0  0  0  0
  188.5280  176.3540  144.9440 C   0  0  0  0  0  0  0  0  0  0  0  0
  189.8430  173.7920  140.0510 C   0  0  0  0  0  3  0  0  0  0  0  0
  191.7360  172.0740  141.3460 C   0  0  0  0  0  3  0  0  0  0  0  0
  190.6060  171.2590  137.3770 N   0  0  0  0  0  0  0  0  0  0  0  0
  190.2610  171.0100  136.0060 C   0  0  0  0  0  0  0  0  0  0  0  0
  190.0650  172.4030  138.0590 C   0  0  0  0  0  3  0  0  0  0  0  0
  190.7850  170.0500  135.3820 O   0  0  0  0  0  0  0  0  0  0  0  0
  190.3070  172.5840  139.3580 C   0  0  0  0  0  0  0  0  0  0  0  0
  189.3190  171.8440  135.3360 N   0  0  0  0  0  1  0  0  0  0  0  0
  191.8540  170.5980  139.3300 C   0  0  0  0  0  3  0  0  0  0  0  0
  190.9980  171.5100  140.1630 C   0  0  1  0  0  3  0  0  0  0  0  0
  191.6140  170.4600  138.0230 C   0  0  0  0  0  3  0  0  0  0  0  0
  191.3930  173.2490  141.8920 C   0  0  0  0  0  0  0  0  0  0  0  0
  190.3490  174.0920  141.2510 C   0  0  0  0  0  3  0  0  0  0  0  0
  184.4460  177.8810  143.4110 C   0  0  2  0  0  3  0  0  0  0  0  0
  184.8590  178.6650  142.2470 C   0  0  0  0  0  2  0  0  0  0  0  0
  184.6020  179.3430  143.5230 N   0  0  0  0  0  2  0  0  0  0  0  0
  1 11  2  0  0  0  0
  3 10  1  0  0  0  0
  4  8  1  0  0  0  0
  5  4  2  0  0  0  0
  5  1  1  0  0  0  0
  6  7  1  0  0  0  0
  8  6  2  0  0  0  0
  9  4  1  0  0  0  0
 10 12  2  0  0  0  0
 11  6  1  0  0  0  0
 11 10  1  0  0  0  0
 13  2  1  0  0  0  0
 14 13  1  0  0  0  0
 15 17  1  0  0  0  0
 15 14  2  0  0  0  0
 16  2  2  0  0  0  0
 16  3  1  0  0  0  0
 17 18  2  0  0  0  0
 18  1  1  0  0  0  0
 18 16  1  0  0  0  0
 19 31  2  0  0  0  0
 20 30  2  0  0  0  0
 21 29  1  0  0  0  0
 21 23  1  0  0  0  0
 22 21  1  0  0  0  0
 23 25  2  0  0  0  0
 24 22  2  0  0  0  0
 25 19  1  0  0  0  0
 25 28  1  0  0  0  0
 26 22  1  0  0  0  0
 28 27  1  6  0  0  0
 28 20  1  0  0  0  0
 29 27  2  0  0  0  0
 30  9  1  0  0  0  0
 31 30  1  0  0  0  0
 32 34  1  0  0  0  0
 32 14  1  1  0  0  0
 33 32  1  0  0  0  0
 33 34  1  0  0  0  0
M  END
>  <MODEL>
8

>  <REMARK>
 VINA RESULT:      -8.0      2.667      8.155
  Name = 
  2 active torsions:
  status: ('A' for Active; 'I' for Inactive)
    1  A    between atoms: C_3  and  C_25
    2  A    between atoms: N_18  and  C_30
                            x       y       z     vdW  Elec       q    Type
                         _______ _______ _______ _____ _____    ______ ____

>  <TORSDO>
F 2

$$$$
=
 OpenBabel11052420253D

 34 39  0  0  1  0  0  0  0  0999 V2000
  195.0320  174.6150  143.3940 C   0  0  0  0  0  0  0  0  0  0  0  0
  196.4050  173.9530  140.0530 C   0  0  0  0  0  3  0  0  0  0  0  0
  197.0340  173.2640  142.1050 O   0  0  0  0  0  0  0  0  0  0  0  0
  193.9910  175.3950  145.3990 C   0  0  0  0  0  0  0  0  0  0  0  0
  194.0370  175.2830  144.0470 N   0  0  0  0  0  0  0  0  0  0  0  0
  196.0210  174.0990  145.5560 C   0  0  0  0  0  0  0  0  0  0  0  0
  197.0510  173.4940  146.4520 C   0  0  0  0  0  1  0  0  0  0  0  0
  194.9870  174.8050  146.1700 C   0  0  0  0  0  3  0  0  0  0  0  0
  192.9360  176.1110  146.0550 N   0  0  0  0  0  2  0  0  0  0  0  0
  197.0360  173.2660  143.4320 C   0  0  0  0  0  0  0  0  0  0  0  0
  196.0550  173.9900  144.1420 C   0  0  0  0  0  0  0  0  0  0  0  0
  197.9400  172.6250  144.0300 O   0  0  0  0  0  0  0  0  0  0  0  0
  195.7320  174.8360  139.0580 C   0  0  0  0  0  2  0  0  0  0  0  0
  194.2800  174.5500  138.9150 C   0  0  0  0  0  0  0  0  0  0  0  0
  193.4600  174.6300  139.9600 C   0  0  0  0  0  3  0  0  0  0  0  0
  196.1310  173.8940  141.3610 C   0  0  0  0  0  0  0  0  0  0  0  0
  193.8580  174.8370  141.3640 C   0  0  0  0  0  3  0  0  0  0  0  0
  195.0100  174.5060  141.9880 C   0  0  0  0  0  0  0  0  0  0  0  0
  190.8480  177.8250  143.4330 C   0  0  0  0  0  3  0  0  0  0  0  0
  190.6330  176.7170  146.0670 C   0  0  0  0  0  3  0  0  0  0  0  0
  187.1270  177.5250  143.8880 N   0  0  0  0  0  0  0  0  0  0  0  0
  185.9320  177.7510  143.1260 C   0  0  0  0  0  0  0  0  0  0  0  0
  188.4150  177.7790  143.3010 C   0  0  0  0  0  3  0  0  0  0  0  0
  184.8050  177.4650  143.6100 O   0  0  0  0  0  0  0  0  0  0  0  0
  189.5200  177.6620  144.0370 C   0  0  0  0  0  0  0  0  0  0  0  0
  186.0060  178.3050  141.8160 N   0  0  0  0  0  1  0  0  0  0  0  0
  188.1360  176.7920  145.9510 C   0  0  0  0  0  3  0  0  0  0  0  0
  189.4270  177.4330  145.5260 C   0  0  1  0  0  3  0  0  0  0  0  0
  187.0500  176.8940  145.1800 C   0  0  0  0  0  3  0  0  0  0  0  0
  191.8160  176.7580  145.4360 C   0  0  0  0  0  0  0  0  0  0  0  0
  191.9270  177.4100  144.1050 C   0  0  0  0  0  3  0  0  0  0  0  0
  193.7200  174.2360  137.5600 C   0  0  2  0  0  3  0  0  0  0  0  0
  192.4210  173.5710  137.6700 C   0  0  0  0  0  2  0  0  0  0  0  0
  193.6200  172.7750  137.3820 N   0  0  0  0  0  2  0  0  0  0  0  0
  1  5  1  0  0  0  0
  1 11  2  0  0  0  0
  2 16  2  0  0  0  0
  3 10  1  0  0  0  0
  4  9  1  0  0  0  0
  4  8  1  0  0  0  0
  5  4  2  0  0  0  0
  6  8  2  0  0  0  0
  6  7  1  0  0  0  0
 10 12  2  0  0  0  0
 10 11  1  0  0  0  0
 11  6  1  0  0  0  0
 13  2  1  0  0  0  0
 14 13  1  0  0  0  0
 14 15  2  0  0  0  0
 15 17  1  0  0  0  0
 16 18  1  0  0  0  0
 16  3  1  0  0  0  0
 17 18  2  0  0  0  0
 18  1  1  0  0  0  0
 19 25  1  0  0  0  0
 19 31  2  0  0  0  0
 21 29  1  0  0  0  0
 22 24  2  0  0  0  0
 22 21  1  0  0  0  0
 23 21  1  0  0  0  0
 23 25  2  0  0  0  0
 25 28  1  0  0  0  0
 26 22  1  0  0  0  0
 28 27  1  6  0  0  0
 28 20  1  0  0  0  0
 29 27  2  0  0  0  0
 30  9  1  0  0  0  0
 30 20  2  0  0  0  0
 31 30  1  0  0  0  0
 32 33  1  0  0  0  0
 32 14  1  1  0  0  0
 34 32  1  0  0  0  0
 34 33  1  0  0  0  0
M  END
>  <MODEL>
9

>  <REMARK>
 VINA RESULT:      -7.9      2.938      3.380
  Name = 
  2 active torsions:
  status: ('A' for Active; 'I' for Inactive)
    1  A    between atoms: C_3  and  C_25
    2  A    between atoms: N_18  and  C_30
                            x       y       z     vdW  Elec       q    Type
                         _______ _______ _______ _____ _____    ______ ____

>  <TORSDO>
F 2

$$$$
