=
 OpenBabel11052417103D

 30 32  0  0  1  0  0  0  0  0999 V2000
  192.6850  174.7990  144.3130 C   0  0  1  0  0  3  0  0  0  0  0  0
  195.2650  174.6290  144.1560 C   0  0  2  0  0  3  0  0  0  0  0  0
  192.7140  174.3120  142.9930 O   0  0  0  0  0  0  0  0  0  0  0  0
  194.0070  170.9100  143.9910 C   0  0  0  0  0  2  0  0  0  0  0  0
  193.9220  172.4170  144.1740 C   0  0  2  0  0  3  0  0  0  0  0  0
  191.7090  171.8490  142.7170 S   0  0  0  0  0  0  0  0  0  0  0  0
  193.1220  172.9530  142.9650 C   0  0  1  0  0  3  0  0  0  0  0  0
  195.2970  173.0940  144.3880 C   0  0  2  0  0  3  0  0  0  0  0  0
  192.8030  170.5260  143.2050 C   0  0  0  0  0  0  0  0  0  0  0  0
  192.6240  169.3800  142.8300 O   0  0  0  0  0  0  0  0  0  0  0  0
  194.0450  175.3870  144.7270 C   0  0  2  0  0  3  0  0  0  0  0  0
  190.3220  175.4550  145.0460 C   0  0  0  0  0  0  0  0  0  0  0  0
  189.3300  176.4340  145.1670 C   0  0  0  0  0  3  0  0  0  0  0  0
  189.9570  173.8320  145.6140 Cl  0  0  0  0  0  0  0  0  0  0  0  0
  191.8000  177.1040  144.0490 C   0  0  0  0  0  3  0  0  0  0  0  0
  191.0350  179.3410  143.7530 F   0  0  0  0  0  0  0  0  0  0  0  0
  191.5720  175.7920  144.4810 C   0  0  0  0  0  0  0  0  0  0  0  0
  189.5690  177.7400  144.7320 C   0  0  0  0  0  3  0  0  0  0  0  0
  190.8030  178.0740  144.1740 C   0  0  0  0  0  0  0  0  0  0  0  0
  196.8950  176.7590  143.1500 O   0  0  0  0  0  0  0  0  0  0  0  0
  196.3040  176.0240  142.3150 C   0  0  0  0  0  0  0  0  0  0  0  0
  196.4790  176.2750  140.8610 C   0  0  0  0  0  1  0  0  0  0  0  0
  195.4630  174.9560  142.7500 N   0  0  0  0  0  2  0  0  0  0  0  0
  197.0220  173.7200  146.1640 C   0  0  0  0  0  1  0  0  0  0  0  0
  195.8930  172.7700  145.7800 C   0  0  2  0  0  3  0  0  0  0  0  0
  196.4050  171.3360  145.8910 C   0  0  0  0  0  2  0  0  0  0  0  0
  197.5360  171.1490  145.0930 O   0  0  0  0  0  1  0  0  0  0  0  0
  194.1300  175.5100  146.2450 C   0  0  0  0  0  2  0  0  0  0  0  0
  194.9010  177.7030  145.7020 O   0  0  0  0  0  1  0  0  0  0  0  0
  194.2120  176.9670  146.6660 C   0  0  0  0  0  2  0  0  0  0  0  0
  1 17  1  6  0  0  0
  1 11  1  0  0  0  0
  2 23  1  6  0  0  0
  2  8  1  0  0  0  0
  2 11  1  0  0  0  0
  3  1  1  0  0  0  0
  5  4  1  6  0  0  0
  5  8  1  0  0  0  0
  6  9  1  0  0  0  0
  7  6  1  1  0  0  0
  7  3  1  0  0  0  0
  7  5  1  0  0  0  0
  8 25  1  1  0  0  0
  9  4  1  0  0  0  0
 10  9  2  0  0  0  0
 11 28  1  1  0  0  0
 12 13  1  0  0  0  0
 12 14  1  0  0  0  0
 15 19  2  0  0  0  0
 15 17  1  0  0  0  0
 16 19  1  0  0  0  0
 17 12  2  0  0  0  0
 18 13  2  0  0  0  0
 19 18  1  0  0  0  0
 21 23  1  0  0  0  0
 21 20  2  0  0  0  0
 22 21  1  0  0  0  0
 25 26  1  0  0  0  0
 25 24  1  6  0  0  0
 27 26  1  0  0  0  0
 28 30  1  0  0  0  0
 29 30  1  0  0  0  0
M  END
>  <MODEL>
1

>  <REMARK>
 VINA RESULT:      -6.2      0.000      0.000
  Name = 
  6 active torsions:
  status: ('A' for Active; 'I' for Inactive)
    1  A    between atoms: C_1  and  C_22
    2  A    between atoms: C_4  and  N_25
    3  A    between atoms: C_7  and  C_30
    4  A    between atoms: C_10  and  C_23
    5  A    between atoms: C_10  and  C_26
    6  A    between atoms: C_13  and  C_30
                            x       y       z     vdW  Elec       q    Type
                         _______ _______ _______ _____ _____    ______ ____

>  <TORSDO>
F 6

$$$$
=
 OpenBabel11052417103D

 30 32  0  0  1  0  0  0  0  0999 V2000
  192.3640  174.4320  144.7900 C   0  0  1  0  0  3  0  0  0  0  0  0
  194.8820  174.5130  144.1860 C   0  0  2  0  0  3  0  0  0  0  0  0
  192.2190  173.8720  143.5080 O   0  0  0  0  0  0  0  0  0  0  0  0
  194.0290  170.6830  144.4010 C   0  0  0  0  0  2  0  0  0  0  0  0
  193.8120  172.1820  144.5330 C   0  0  2  0  0  3  0  0  0  0  0  0
  191.4570  171.3080  143.5170 S   0  0  0  0  0  0  0  0  0  0  0  0
  192.7630  172.5620  143.4630 C   0  0  1  0  0  3  0  0  0  0  0  0
  195.1210  173.0050  144.4720 C   0  0  2  0  0  3  0  0  0  0  0  0
  192.7570  170.1330  143.8570 C   0  0  0  0  0  0  0  0  0  0  0  0
  192.6430  168.9540  143.5680 O   0  0  0  0  0  0  0  0  0  0  0  0
  193.7030  175.1770  144.9320 C   0  0  2  0  0  3  0  0  0  0  0  0
  190.9720  176.5550  144.4690 C   0  0  0  0  0  0  0  0  0  0  0  0
  189.8620  177.3290  144.8240 C   0  0  0  0  0  3  0  0  0  0  0  0
  192.0470  177.1730  143.2230 Cl  0  0  0  0  0  0  0  0  0  0  0  0
  190.3000  174.8810  146.0950 C   0  0  0  0  0  3  0  0  0  0  0  0
  188.3350  175.2290  147.3950 F   0  0  0  0  0  0  0  0  0  0  0  0
  191.1950  175.3160  145.1110 C   0  0  0  0  0  0  0  0  0  0  0  0
  188.9750  176.8840  145.8070 C   0  0  0  0  0  3  0  0  0  0  0  0
  189.1940  175.6600  146.4420 C   0  0  0  0  0  0  0  0  0  0  0  0
  196.2440  176.6090  142.7860 O   0  0  0  0  0  0  0  0  0  0  0  0
  195.5180  175.8270  142.1160 C   0  0  0  0  0  0  0  0  0  0  0  0
  195.4040  176.0090  140.6460 C   0  0  0  0  0  1  0  0  0  0  0  0
  194.7980  174.7730  142.7540 N   0  0  0  0  0  2  0  0  0  0  0  0
  197.1060  173.8500  145.8370 C   0  0  0  0  0  1  0  0  0  0  0  0
  195.9790  172.8270  145.7480 C   0  0  2  0  0  3  0  0  0  0  0  0
  196.5800  171.4300  145.8730 C   0  0  0  0  0  2  0  0  0  0  0  0
  197.7390  171.3150  145.1010 O   0  0  0  0  0  1  0  0  0  0  0  0
  194.0330  175.3990  146.4030 C   0  0  0  0  0  2  0  0  0  0  0  0
  194.6200  177.5600  145.5760 O   0  0  0  0  0  1  0  0  0  0  0  0
  194.1740  176.8800  146.7100 C   0  0  0  0  0  2  0  0  0  0  0  0
  1 11  1  0  0  0  0
  1 17  1  6  0  0  0
  2 23  1  6  0  0  0
  2  8  1  0  0  0  0
  2 11  1  0  0  0  0
  3  1  1  0  0  0  0
  5  4  1  6  0  0  0
  6  9  1  0  0  0  0
  7  3  1  1  0  0  0
  7  6  1  0  0  0  0
  7  5  1  0  0  0  0
  8  5  1  0  0  0  0
  8 25  1  1  0  0  0
  9  4  1  0  0  0  0
 10  9  2  0  0  0  0
 11 28  1  1  0  0  0
 12 13  2  0  0  0  0
 12 17  1  0  0  0  0
 13 18  1  0  0  0  0
 14 12  1  0  0  0  0
 15 19  1  0  0  0  0
 17 15  2  0  0  0  0
 18 19  2  0  0  0  0
 19 16  1  0  0  0  0
 21 23  1  0  0  0  0
 21 20  2  0  0  0  0
 22 21  1  0  0  0  0
 25 24  1  6  0  0  0
 25 26  1  0  0  0  0
 27 26  1  0  0  0  0
 28 30  1  0  0  0  0
 29 30  1  0  0  0  0
M  END
>  <MODEL>
2

>  <REMARK>
 VINA RESULT:      -6.1      1.564      1.808
  Name = 
  6 active torsions:
  status: ('A' for Active; 'I' for Inactive)
    1  A    between atoms: C_1  and  C_22
    2  A    between atoms: C_4  and  N_25
    3  A    between atoms: C_7  and  C_30
    4  A    between atoms: C_10  and  C_23
    5  A    between atoms: C_10  and  C_26
    6  A    between atoms: C_13  and  C_30
                            x       y       z     vdW  Elec       q    Type
                         _______ _______ _______ _____ _____    ______ ____

>  <TORSDO>
F 6

$$$$
=
 OpenBabel11052417103D

 30 32  0  0  1  0  0  0  0  0999 V2000
  191.8910  174.7980  144.6240 C   0  0  1  0  0  3  0  0  0  0  0  0
  192.8330  172.6000  143.6290 C   0  0  2  0  0  3  0  0  0  0  0  0
  193.0270  174.7450  145.4500 O   0  0  0  0  0  0  0  0  0  0  0  0
  195.4480  175.3550  142.6190 C   0  0  0  0  0  2  0  0  0  0  0  0
  194.1550  174.7780  143.1760 C   0  0  2  0  0  3  0  0  0  0  0  0
  194.8060  176.6880  144.9850 S   0  0  0  0  0  0  0  0  0  0  0  0
  194.2080  175.0020  144.7050 C   0  0  1  0  0  3  0  0  0  0  0  0
  193.8950  173.3140  142.7490 C   0  0  2  0  0  3  0  0  0  0  0  0
  195.8560  176.4290  143.5650 C   0  0  0  0  0  0  0  0  0  0  0  0
  196.9050  177.0350  143.4280 O   0  0  0  0  0  0  0  0  0  0  0  0
  191.5810  173.4250  144.0030 C   0  0  2  0  0  3  0  0  0  0  0  0
  190.1760  176.6280  145.1330 C   0  0  0  0  0  0  0  0  0  0  0  0
  189.0820  177.0750  145.8820 C   0  0  0  0  0  3  0  0  0  0  0  0
  190.8300  177.7000  143.9030 Cl  0  0  0  0  0  0  0  0  0  0  0  0
  190.1490  174.5410  146.3740 C   0  0  0  0  0  3  0  0  0  0  0  0
  188.5150  174.2080  148.0760 F   0  0  0  0  0  0  0  0  0  0  0  0
  190.7170  175.3470  145.3810 C   0  0  0  0  0  0  0  0  0  0  0  0
  188.5240  176.2620  146.8710 C   0  0  0  0  0  3  0  0  0  0  0  0
  189.0570  174.9960  147.1160 C   0  0  0  0  0  0  0  0  0  0  0  0
  194.0700  170.0210  143.7740 O   0  0  0  0  0  0  0  0  0  0  0  0
  194.0550  170.7270  144.8180 C   0  0  0  0  0  0  0  0  0  0  0  0
  194.6780  170.2110  146.0640 C   0  0  0  0  0  1  0  0  0  0  0  0
  193.4380  172.0140  144.8180 N   0  0  0  0  0  2  0  0  0  0  0  0
  194.6210  172.5570  140.4210 C   0  0  0  0  0  1  0  0  0  0  0  0
  193.5190  173.2050  141.2520 C   0  0  2  0  0  3  0  0  0  0  0  0
  193.1660  174.5510  140.6250 C   0  0  0  0  0  2  0  0  0  0  0  0
  193.8860  174.7550  139.4460 O   0  0  0  0  0  1  0  0  0  0  0  0
  190.6450  173.5810  142.8090 C   0  0  0  0  0  2  0  0  0  0  0  0
  189.3120  172.0030  144.0060 O   0  0  0  0  0  1  0  0  0  0  0  0
  189.6770  172.4120  142.7240 C   0  0  0  0  0  2  0  0  0  0  0  0
  1 17  1  1  0  0  0
  1  3  1  0  0  0  0
  2 11  1  0  0  0  0
  2 23  1  1  0  0  0
  4  9  1  0  0  0  0
  5  4  1  6  0  0  0
  5  7  1  0  0  0  0
  7  6  1  6  0  0  0
  7  3  1  0  0  0  0
  8 25  1  6  0  0  0
  8  5  1  0  0  0  0
  8  2  1  0  0  0  0
  9  6  1  0  0  0  0
 10  9  2  0  0  0  0
 11 28  1  6  0  0  0
 11  1  1  0  0  0  0
 12 17  2  0  0  0  0
 12 13  1  0  0  0  0
 13 18  2  0  0  0  0
 14 12  1  0  0  0  0
 15 19  2  0  0  0  0
 17 15  1  0  0  0  0
 18 19  1  0  0  0  0
 19 16  1  0  0  0  0
 20 21  2  0  0  0  0
 21 23  1  0  0  0  0
 21 22  1  0  0  0  0
 25 24  1  6  0  0  0
 26 25  1  0  0  0  0
 27 26  1  0  0  0  0
 30 28  1  0  0  0  0
 30 29  1  0  0  0  0
M  END
>  <MODEL>
3

>  <REMARK>
 VINA RESULT:      -6.0      2.806      5.324
  Name = 
  6 active torsions:
  status: ('A' for Active; 'I' for Inactive)
    1  A    between atoms: C_1  and  C_22
    2  A    between atoms: C_4  and  N_25
    3  A    between atoms: C_7  and  C_30
    4  A    between atoms: C_10  and  C_23
    5  A    between atoms: C_10  and  C_26
    6  A    between atoms: C_13  and  C_30
                            x       y       z     vdW  Elec       q    Type
                         _______ _______ _______ _____ _____    ______ ____

>  <TORSDO>
F 6

$$$$
=
 OpenBabel11052417103D

 30 32  0  0  1  0  0  0  0  0999 V2000
  190.8590  174.7840  144.4430 C   0  0  1  0  0  3  0  0  0  0  0  0
  193.4250  174.5980  144.1400 C   0  0  2  0  0  3  0  0  0  0  0  0
  190.8220  174.5670  143.0540 O   0  0  0  0  0  0  0  0  0  0  0  0
  192.0580  171.0090  143.3060 C   0  0  0  0  0  2  0  0  0  0  0  0
  192.0230  172.4530  143.7840 C   0  0  2  0  0  3  0  0  0  0  0  0
  189.7380  172.2260  142.3460 S   0  0  0  0  0  0  0  0  0  0  0  0
  191.1910  173.2320  142.7410 C   0  0  1  0  0  3  0  0  0  0  0  0
  193.4240  173.0470  144.0650 C   0  0  2  0  0  3  0  0  0  0  0  0
  190.8140  170.8120  142.5140 C   0  0  0  0  0  0  0  0  0  0  0  0
  190.5880  169.7660  141.9300 O   0  0  0  0  0  0  0  0  0  0  0  0
  192.2510  175.2530  144.9030 C   0  0  2  0  0  3  0  0  0  0  0  0
  189.5700  176.9820  144.2010 C   0  0  0  0  0  0  0  0  0  0  0  0
  188.5490  177.8310  144.6410 C   0  0  0  0  0  3  0  0  0  0  0  0
  190.5510  177.5040  142.8380 Cl  0  0  0  0  0  0  0  0  0  0  0  0
  188.9660  175.3890  145.9300 C   0  0  0  0  0  3  0  0  0  0  0  0
  187.1640  175.8860  147.4070 F   0  0  0  0  0  0  0  0  0  0  0  0
  189.7830  175.7460  144.8520 C   0  0  0  0  0  0  0  0  0  0  0  0
  187.7400  177.4630  145.7190 C   0  0  0  0  0  3  0  0  0  0  0  0
  187.9480  176.2430  146.3620 C   0  0  0  0  0  0  0  0  0  0  0  0
  195.7330  176.0090  143.1950 O   0  0  0  0  0  0  0  0  0  0  0  0
  194.7620  175.8690  142.4040 C   0  0  0  0  0  0  0  0  0  0  0  0
  194.8500  176.4210  141.0280 C   0  0  0  0  0  1  0  0  0  0  0  0
  193.5750  175.1920  142.8180 N   0  0  0  0  0  2  0  0  0  0  0  0
  195.3900  173.1110  145.6920 C   0  0  0  0  0  1  0  0  0  0  0  0
  194.0660  172.4440  145.3380 C   0  0  2  0  0  3  0  0  0  0  0  0
  194.2930  170.9380  145.2350 C   0  0  0  0  0  2  0  0  0  0  0  0
  195.3770  170.5430  146.0220 O   0  0  0  0  0  1  0  0  0  0  0  0
  192.4010  175.0720  146.4090 C   0  0  0  0  0  2  0  0  0  0  0  0
  191.5540  176.6890  147.9480 O   0  0  0  0  0  1  0  0  0  0  0  0
  192.6220  176.4090  147.0950 C   0  0  0  0  0  2  0  0  0  0  0  0
  1 17  1  6  0  0  0
  1 11  1  0  0  0  0
  2 23  1  6  0  0  0
  2 11  1  0  0  0  0
  3  1  1  0  0  0  0
  5  4  1  6  0  0  0
  5  8  1  0  0  0  0
  6  9  1  0  0  0  0
  7  6  1  1  0  0  0
  7  3  1  0  0  0  0
  7  5  1  0  0  0  0
  8  2  1  0  0  0  0
  8 25  1  1  0  0  0
  9  4  1  0  0  0  0
 10  9  2  0  0  0  0
 11 28  1  1  0  0  0
 12 13  2  0  0  0  0
 12 17  1  0  0  0  0
 13 18  1  0  0  0  0
 14 12  1  0  0  0  0
 15 19  1  0  0  0  0
 17 15  2  0  0  0  0
 18 19  2  0  0  0  0
 19 16  1  0  0  0  0
 21 23  1  0  0  0  0
 21 20  2  0  0  0  0
 22 21  1  0  0  0  0
 25 24  1  6  0  0  0
 26 25  1  0  0  0  0
 26 27  1  0  0  0  0
 28 30  1  0  0  0  0
 30 29  1  0  0  0  0
M  END
>  <MODEL>
4

>  <REMARK>
 VINA RESULT:      -5.8      2.191      2.593
  Name = 
  6 active torsions:
  status: ('A' for Active; 'I' for Inactive)
    1  A    between atoms: C_1  and  C_22
    2  A    between atoms: C_4  and  N_25
    3  A    between atoms: C_7  and  C_30
    4  A    between atoms: C_10  and  C_23
    5  A    between atoms: C_10  and  C_26
    6  A    between atoms: C_13  and  C_30
                            x       y       z     vdW  Elec       q    Type
                         _______ _______ _______ _____ _____    ______ ____

>  <TORSDO>
F 6

$$$$
=
 OpenBabel11052417103D

 30 32  0  0  1  0  0  0  0  0999 V2000
  192.2060  174.6440  143.7640 C   0  0  1  0  0  3  0  0  0  0  0  0
  189.6320  174.7220  144.0490 C   0  0  2  0  0  3  0  0  0  0  0  0
  192.1280  173.5470  144.6410 O   0  0  0  0  0  0  0  0  0  0  0  0
  190.3270  171.3460  142.1590 C   0  0  0  0  0  2  0  0  0  0  0  0
  190.6310  172.7050  142.7710 C   0  0  2  0  0  3  0  0  0  0  0  0
  192.7610  171.2050  143.5150 S   0  0  0  0  0  0  0  0  0  0  0  0
  191.5230  172.4330  144.0040 C   0  0  1  0  0  3  0  0  0  0  0  0
  189.3680  173.5500  143.0640 C   0  0  2  0  0  3  0  0  0  0  0  0
  191.4740  170.4700  142.5210 C   0  0  0  0  0  0  0  0  0  0  0  0
  191.4880  169.2850  142.2340 O   0  0  0  0  0  0  0  0  0  0  0  0
  190.9400  175.5170  143.8390 C   0  0  2  0  0  3  0  0  0  0  0  0
  194.5440  175.4730  143.1350 C   0  0  0  0  0  0  0  0  0  0  0  0
  195.6740  176.2350  143.4510 C   0  0  0  0  0  3  0  0  0  0  0  0
  194.5440  174.5820  141.6200 Cl  0  0  0  0  0  0  0  0  0  0  0  0
  193.5120  176.1740  145.2190 C   0  0  0  0  0  3  0  0  0  0  0  0
  194.6940  177.6380  146.6800 F   0  0  0  0  0  0  0  0  0  0  0  0
  193.4500  175.4400  144.0280 C   0  0  0  0  0  0  0  0  0  0  0  0
  195.7250  176.9620  144.6430 C   0  0  0  0  0  3  0  0  0  0  0  0
  194.6440  176.9320  145.5250 C   0  0  0  0  0  0  0  0  0  0  0  0
  188.5890  176.2900  146.2070 O   0  0  0  0  0  0  0  0  0  0  0  0
  188.9640  175.1150  146.4600 C   0  0  0  0  0  0  0  0  0  0  0  0
  188.8450  174.5870  147.8440 C   0  0  0  0  0  1  0  0  0  0  0  0
  189.5100  174.2860  145.4340 N   0  0  0  0  0  2  0  0  0  0  0  0
  187.6220  175.1080  142.0440 C   0  0  0  0  0  1  0  0  0  0  0  0
  188.7060  174.0730  141.7660 C   0  0  2  0  0  3  0  0  0  0  0  0
  188.1070  172.9600  140.9110 C   0  0  0  0  0  2  0  0  0  0  0  0
  188.2620  173.2390  139.5510 O   0  0  0  0  0  1  0  0  0  0  0  0
  190.8470  176.4230  142.6160 C   0  0  0  0  0  2  0  0  0  0  0  0
  190.6090  178.2120  144.1800 O   0  0  0  0  0  1  0  0  0  0  0  0
  190.1410  177.7240  142.9600 C   0  0  0  0  0  2  0  0  0  0  0  0
  1 11  1  0  0  0  0
  1 17  1  1  0  0  0
  1  3  1  0  0  0  0
  2 23  1  1  0  0  0
  4  9  1  0  0  0  0
  5  4  1  1  0  0  0
  5  8  1  0  0  0  0
  5  7  1  0  0  0  0
  7  6  1  6  0  0  0
  7  3  1  0  0  0  0
  8 25  1  6  0  0  0
  8  2  1  0  0  0  0
  9  6  1  0  0  0  0
 10  9  2  0  0  0  0
 11 28  1  6  0  0  0
 11  2  1  0  0  0  0
 12 13  2  0  0  0  0
 12 17  1  0  0  0  0
 13 18  1  0  0  0  0
 14 12  1  0  0  0  0
 15 19  1  0  0  0  0
 17 15  2  0  0  0  0
 18 19  2  0  0  0  0
 19 16  1  0  0  0  0
 20 21  2  0  0  0  0
 21 22  1  0  0  0  0
 23 21  1  0  0  0  0
 25 24  1  1  0  0  0
 26 25  1  0  0  0  0
 27 26  1  0  0  0  0
 28 30  1  0  0  0  0
 30 29  1  0  0  0  0
M  END
>  <MODEL>
5

>  <REMARK>
 VINA RESULT:      -5.7      3.279      6.028
  Name = 
  6 active torsions:
  status: ('A' for Active; 'I' for Inactive)
    1  A    between atoms: C_1  and  C_22
    2  A    between atoms: C_4  and  N_25
    3  A    between atoms: C_7  and  C_30
    4  A    between atoms: C_10  and  C_23
    5  A    between atoms: C_10  and  C_26
    6  A    between atoms: C_13  and  C_30
                            x       y       z     vdW  Elec       q    Type
                         _______ _______ _______ _____ _____    ______ ____

>  <TORSDO>
F 6

$$$$
=
 OpenBabel11052417103D

 30 32  0  0  1  0  0  0  0  0999 V2000
  190.8020  174.6960  144.3390 C   0  0  1  0  0  3  0  0  0  0  0  0
  193.3810  174.6120  144.1100 C   0  0  2  0  0  3  0  0  0  0  0  0
  190.8120  174.4390  142.9570 O   0  0  0  0  0  0  0  0  0  0  0  0
  192.1890  170.9460  143.3420 C   0  0  0  0  0  2  0  0  0  0  0  0
  192.0800  172.3990  143.7780 C   0  0  2  0  0  3  0  0  0  0  0  0
  189.8470  172.0360  142.2870 S   0  0  0  0  0  0  0  0  0  0  0  0
  191.2450  173.1140  142.6920 C   0  0  1  0  0  3  0  0  0  0  0  0
  193.4470  173.0600  144.0790 C   0  0  2  0  0  3  0  0  0  0  0  0
  190.9760  170.6740  142.5240 C   0  0  0  0  0  0  0  0  0  0  0  0
  190.8110  169.6040  141.9640 O   0  0  0  0  0  0  0  0  0  0  0  0
  192.1600  175.2360  144.8220 C   0  0  2  0  0  3  0  0  0  0  0  0
  188.9430  175.5150  145.8960 C   0  0  0  0  0  0  0  0  0  0  0  0
  187.9020  176.4120  146.1560 C   0  0  0  0  0  3  0  0  0  0  0  0
  189.2930  174.2820  147.1000 Cl  0  0  0  0  0  0  0  0  0  0  0  0
  189.3470  176.6280  143.7760 C   0  0  0  0  0  3  0  0  0  0  0  0
  187.9970  178.4880  143.1500 F   0  0  0  0  0  0  0  0  0  0  0  0
  189.6750  175.6220  144.6930 C   0  0  0  0  0  0  0  0  0  0  0  0
  187.5840  177.4110  145.2330 C   0  0  0  0  0  3  0  0  0  0  0  0
  188.3060  177.5190  144.0450 C   0  0  0  0  0  0  0  0  0  0  0  0
  195.6480  176.1010  143.1890 O   0  0  0  0  0  0  0  0  0  0  0  0
  194.7090  175.8940  142.3760 C   0  0  0  0  0  0  0  0  0  0  0  0
  194.8120  176.4120  140.9870 C   0  0  0  0  0  1  0  0  0  0  0  0
  193.5430  175.1750  142.7760 N   0  0  0  0  0  2  0  0  0  0  0  0
  195.3560  173.2610  145.7620 C   0  0  0  0  0  1  0  0  0  0  0  0
  194.0780  172.5200  145.3840 C   0  0  2  0  0  3  0  0  0  0  0  0
  194.3830  171.0250  145.3260 C   0  0  0  0  0  2  0  0  0  0  0  0
  195.5000  170.7140  146.1060 O   0  0  0  0  0  1  0  0  0  0  0  0
  192.2760  175.1020  146.3370 C   0  0  0  0  0  2  0  0  0  0  0  0
  191.5750  176.7480  147.9180 O   0  0  0  0  0  1  0  0  0  0  0  0
  192.5610  176.4500  146.9780 C   0  0  0  0  0  2  0  0  0  0  0  0
  1 17  1  6  0  0  0
  1 11  1  0  0  0  0
  2 23  1  6  0  0  0
  2 11  1  0  0  0  0
  3  1  1  0  0  0  0
  5  4  1  6  0  0  0
  5  8  1  0  0  0  0
  6  9  1  0  0  0  0
  7  6  1  1  0  0  0
  7  3  1  0  0  0  0
  7  5  1  0  0  0  0
  8  2  1  0  0  0  0
  8 25  1  1  0  0  0
  9  4  1  0  0  0  0
 10  9  2  0  0  0  0
 11 28  1  1  0  0  0
 12 13  1  0  0  0  0
 12 14  1  0  0  0  0
 15 19  2  0  0  0  0
 15 17  1  0  0  0  0
 16 19  1  0  0  0  0
 17 12  2  0  0  0  0
 18 13  2  0  0  0  0
 19 18  1  0  0  0  0
 21 23  1  0  0  0  0
 21 20  2  0  0  0  0
 22 21  1  0  0  0  0
 25 24  1  6  0  0  0
 26 25  1  0  0  0  0
 26 27  1  0  0  0  0
 28 30  1  0  0  0  0
 30 29  1  0  0  0  0
M  END
>  <MODEL>
6

>  <REMARK>
 VINA RESULT:      -5.7      1.781      2.092
  Name = 
  6 active torsions:
  status: ('A' for Active; 'I' for Inactive)
    1  A    between atoms: C_1  and  C_22
    2  A    between atoms: C_4  and  N_25
    3  A    between atoms: C_7  and  C_30
    4  A    between atoms: C_10  and  C_23
    5  A    between atoms: C_10  and  C_26
    6  A    between atoms: C_13  and  C_30
                            x       y       z     vdW  Elec       q    Type
                         _______ _______ _______ _____ _____    ______ ____

>  <TORSDO>
F 6

$$$$
=
 OpenBabel11052417103D

 30 32  0  0  1  0  0  0  0  0999 V2000
  192.6860  174.0170  143.5760 C   0  0  1  0  0  3  0  0  0  0  0  0
  191.2120  175.7920  144.7540 C   0  0  2  0  0  3  0  0  0  0  0  0
  191.6380  173.1370  143.9000 O   0  0  0  0  0  0  0  0  0  0  0  0
  189.1790  174.7720  141.5490 C   0  0  0  0  0  2  0  0  0  0  0  0
  190.3580  174.8310  142.5080 C   0  0  2  0  0  3  0  0  0  0  0  0
  190.2880  172.2220  141.7790 S   0  0  0  0  0  0  0  0  0  0  0  0
  190.4830  173.4190  143.1240 C   0  0  1  0  0  3  0  0  0  0  0  0
  190.2600  175.9780  143.5420 C   0  0  2  0  0  3  0  0  0  0  0  0
  189.0930  173.3580  141.0960 C   0  0  0  0  0  0  0  0  0  0  0  0
  188.1920  172.9740  140.3690 O   0  0  0  0  0  0  0  0  0  0  0  0
  192.6400  175.2910  144.4390 C   0  0  2  0  0  3  0  0  0  0  0  0
  194.9720  173.3340  142.6500 C   0  0  0  0  0  0  0  0  0  0  0  0
  196.1840  172.6550  142.8200 C   0  0  0  0  0  3  0  0  0  0  0  0
  194.7070  174.1880  141.1360 Cl  0  0  0  0  0  0  0  0  0  0  0  0
  194.2830  172.6200  144.8660 C   0  0  0  0  0  3  0  0  0  0  0  0
  195.7500  171.2740  146.1750 F   0  0  0  0  0  0  0  0  0  0  0  0
  194.0100  173.3180  143.6840 C   0  0  0  0  0  0  0  0  0  0  0  0
  196.4450  171.9630  144.0040 C   0  0  0  0  0  3  0  0  0  0  0  0
  195.4960  171.9460  145.0260 C   0  0  0  0  0  0  0  0  0  0  0  0
  189.1120  176.6270  146.5140 O   0  0  0  0  0  0  0  0  0  0  0  0
  189.5390  175.4470  146.6240 C   0  0  0  0  0  0  0  0  0  0  0  0
  188.9400  174.5410  147.6380 C   0  0  0  0  0  1  0  0  0  0  0  0
  190.5960  174.9730  145.7900 N   0  0  0  0  0  2  0  0  0  0  0  0
  190.9890  178.4010  143.8880 C   0  0  0  0  0  1  0  0  0  0  0  0
  190.4780  177.3660  142.8910 C   0  0  2  0  0  3  0  0  0  0  0  0
  189.2220  177.9160  142.2210 C   0  0  0  0  0  2  0  0  0  0  0  0
  188.1220  177.8270  143.0770 O   0  0  0  0  0  1  0  0  0  0  0  0
  193.4850  176.3910  143.8060 C   0  0  0  0  0  2  0  0  0  0  0  0
  194.5520  176.0780  145.9190 O   0  0  0  0  0  1  0  0  0  0  0  0
  194.6470  176.7670  144.7100 C   0  0  0  0  0  2  0  0  0  0  0  0
  1 17  1  1  0  0  0
  1  3  1  0  0  0  0
  1 11  1  0  0  0  0
  2 23  1  1  0  0  0
  5  4  1  1  0  0  0
  5  7  1  0  0  0  0
  5  8  1  0  0  0  0
  7  6  1  6  0  0  0
  7  3  1  0  0  0  0
  8 25  1  6  0  0  0
  8  2  1  0  0  0  0
  9  4  1  0  0  0  0
  9  6  1  0  0  0  0
 10  9  2  0  0  0  0
 11 28  1  6  0  0  0
 11  2  1  0  0  0  0
 12 13  2  0  0  0  0
 12 17  1  0  0  0  0
 13 18  1  0  0  0  0
 14 12  1  0  0  0  0
 15 19  1  0  0  0  0
 17 15  2  0  0  0  0
 18 19  2  0  0  0  0
 19 16  1  0  0  0  0
 20 21  2  0  0  0  0
 21 22  1  0  0  0  0
 23 21  1  0  0  0  0
 25 24  1  1  0  0  0
 26 25  1  0  0  0  0
 26 27  1  0  0  0  0
 28 30  1  0  0  0  0
 30 29  1  0  0  0  0
M  END
>  <MODEL>
7

>  <REMARK>
 VINA RESULT:      -5.5      3.470      6.513
  Name = 
  6 active torsions:
  status: ('A' for Active; 'I' for Inactive)
    1  A    between atoms: C_1  and  C_22
    2  A    between atoms: C_4  and  N_25
    3  A    between atoms: C_7  and  C_30
    4  A    between atoms: C_10  and  C_23
    5  A    between atoms: C_10  and  C_26
    6  A    between atoms: C_13  and  C_30
                            x       y       z     vdW  Elec       q    Type
                         _______ _______ _______ _____ _____    ______ ____

>  <TORSDO>
F 6

$$$$
=
 OpenBabel11052417103D

 30 32  0  0  1  0  0  0  0  0999 V2000
  191.2490  174.1120  143.8330 C   0  0  1  0  0  3  0  0  0  0  0  0
  193.1930  173.2780  142.3380 C   0  0  2  0  0  3  0  0  0  0  0  0
  191.0060  175.0060  142.7740 O   0  0  0  0  0  0  0  0  0  0  0  0
  189.9310  172.2970  140.3760 C   0  0  0  0  0  2  0  0  0  0  0  0
  190.7790  172.8030  141.5330 C   0  0  2  0  0  3  0  0  0  0  0  0
  188.7140  174.5560  141.4720 S   0  0  0  0  0  0  0  0  0  0  0  0
  190.5010  174.3200  141.6390 C   0  0  1  0  0  3  0  0  0  0  0  0
  192.2760  172.4290  141.4140 C   0  0  2  0  0  3  0  0  0  0  0  0
  188.7620  173.2140  140.2960 C   0  0  0  0  0  0  0  0  0  0  0  0
  187.9300  173.1110  139.4110 O   0  0  0  0  0  0  0  0  0  0  0  0
  192.6760  173.5380  143.7700 C   0  0  2  0  0  3  0  0  0  0  0  0
  191.7320  175.8550  145.6430 C   0  0  0  0  0  0  0  0  0  0  0  0
  191.4160  176.4180  146.8840 C   0  0  0  0  0  3  0  0  0  0  0  0
  193.0820  176.5360  144.7460 Cl  0  0  0  0  0  0  0  0  0  0  0  0
  189.9060  174.2780  145.9150 C   0  0  0  0  0  3  0  0  0  0  0  0
  188.5660  174.3590  147.8830 F   0  0  0  0  0  0  0  0  0  0  0  0
  190.9700  174.7720  145.1510 C   0  0  0  0  0  0  0  0  0  0  0  0
  190.3520  175.9160  147.6370 C   0  0  0  0  0  3  0  0  0  0  0  0
  189.5980  174.8470  147.1520 C   0  0  0  0  0  0  0  0  0  0  0  0
  195.6880  174.6380  142.7020 O   0  0  0  0  0  0  0  0  0  0  0  0
  194.8510  175.1440  141.9080 C   0  0  0  0  0  0  0  0  0  0  0  0
  195.1850  176.4010  141.1910 C   0  0  0  0  0  1  0  0  0  0  0  0
  193.5810  174.5260  141.6950 N   0  0  0  0  0  2  0  0  0  0  0  0
  192.8960  170.1830  140.3720 C   0  0  0  0  0  1  0  0  0  0  0  0
  192.5180  170.9190  141.6520 C   0  0  2  0  0  3  0  0  0  0  0  0
  191.3200  170.2150  142.2820 C   0  0  0  0  0  2  0  0  0  0  0  0
  190.9470  169.0980  141.5300 O   0  0  0  0  0  1  0  0  0  0  0  0
  192.7820  172.2860  144.6340 C   0  0  0  0  0  2  0  0  0  0  0  0
  194.5080  173.5590  145.6840 O   0  0  0  0  0  1  0  0  0  0  0  0
  194.1030  172.2580  145.3850 C   0  0  0  0  0  2  0  0  0  0  0  0
  1 17  1  1  0  0  0
  2 23  1  6  0  0  0
  2 11  1  0  0  0  0
  3  1  1  0  0  0  0
  5  4  1  6  0  0  0
  5  7  1  0  0  0  0
  7  6  1  1  0  0  0
  7  3  1  0  0  0  0
  8  5  1  0  0  0  0
  8 25  1  1  0  0  0
  8  2  1  0  0  0  0
  9  4  1  0  0  0  0
  9  6  1  0  0  0  0
 10  9  2  0  0  0  0
 11  1  1  0  0  0  0
 11 28  1  1  0  0  0
 12 13  1  0  0  0  0
 13 18  2  0  0  0  0
 14 12  1  0  0  0  0
 15 19  2  0  0  0  0
 17 12  2  0  0  0  0
 17 15  1  0  0  0  0
 19 18  1  0  0  0  0
 19 16  1  0  0  0  0
 21 20  2  0  0  0  0
 22 21  1  0  0  0  0
 23 21  1  0  0  0  0
 25 24  1  6  0  0  0
 25 26  1  0  0  0  0
 27 26  1  0  0  0  0
 28 30  1  0  0  0  0
 30 29  1  0  0  0  0
M  END
>  <MODEL>
8

>  <REMARK>
 VINA RESULT:      -5.5      2.969      4.434
  Name = 
  6 active torsions:
  status: ('A' for Active; 'I' for Inactive)
    1  A    between atoms: C_1  and  C_22
    2  A    between atoms: C_4  and  N_25
    3  A    between atoms: C_7  and  C_30
    4  A    between atoms: C_10  and  C_23
    5  A    between atoms: C_10  and  C_26
    6  A    between atoms: C_13  and  C_30
                            x       y       z     vdW  Elec       q    Type
                         _______ _______ _______ _____ _____    ______ ____

>  <TORSDO>
F 6

$$$$
=
 OpenBabel11052417103D

 30 32  0  0  1  0  0  0  0  0999 V2000
  191.5430  175.1600  143.9220 C   0  0  1  0  0  3  0  0  0  0  0  0
  191.5800  173.4150  142.0090 C   0  0  2  0  0  3  0  0  0  0  0  0
  191.2490  176.0730  142.8930 O   0  0  0  0  0  0  0  0  0  0  0  0
  187.8410  174.6090  142.1990 C   0  0  0  0  0  2  0  0  0  0  0  0
  189.2980  174.4740  142.6140 C   0  0  2  0  0  3  0  0  0  0  0  0
  188.7840  177.1030  143.0200 S   0  0  0  0  0  0  0  0  0  0  0  0
  189.9400  175.8610  142.3870 C   0  0  1  0  0  3  0  0  0  0  0  0
  190.0340  173.3020  141.9200 C   0  0  2  0  0  3  0  0  0  0  0  0
  187.4870  176.0380  142.4120 C   0  0  0  0  0  0  0  0  0  0  0  0
  186.3950  176.4790  142.0970 O   0  0  0  0  0  0  0  0  0  0  0  0
  192.1620  173.8650  143.3680 C   0  0  2  0  0  3  0  0  0  0  0  0
  192.0920  175.8300  146.3310 C   0  0  0  0  0  0  0  0  0  0  0  0
  192.9580  176.4500  147.2380 C   0  0  0  0  0  3  0  0  0  0  0  0
  190.6160  175.1080  146.9560 Cl  0  0  0  0  0  0  0  0  0  0  0  0
  193.6130  176.3930  144.5230 C   0  0  0  0  0  3  0  0  0  0  0  0
  195.6220  177.5790  145.0050 F   0  0  0  0  0  0  0  0  0  0  0  0
  192.4210  175.8010  144.9570 C   0  0  0  0  0  0  0  0  0  0  0  0
  194.1440  177.0380  146.7930 C   0  0  0  0  0  3  0  0  0  0  0  0
  194.4710  177.0080  145.4370 C   0  0  0  0  0  0  0  0  0  0  0  0
  194.0610  172.9650  140.6490 O   0  0  0  0  0  0  0  0  0  0  0  0
  193.3530  173.9380  140.2770 C   0  0  0  0  0  0  0  0  0  0  0  0
  193.8160  174.7980  139.1570 C   0  0  0  0  0  1  0  0  0  0  0  0
  192.1140  174.2280  140.9240 N   0  0  0  0  0  2  0  0  0  0  0  0
  189.3170  171.9340  143.9530 C   0  0  0  0  0  1  0  0  0  0  0  0
  189.5610  171.9260  142.4480 C   0  0  2  0  0  3  0  0  0  0  0  0
  190.5310  170.7950  142.1190 C   0  0  0  0  0  2  0  0  0  0  0  0
  190.4420  170.4390  140.7710 O   0  0  0  0  0  1  0  0  0  0  0  0
  192.0760  172.7500  144.4040 C   0  0  0  0  0  2  0  0  0  0  0  0
  193.3190  170.7120  144.3450 O   0  0  0  0  0  1  0  0  0  0  0  0
  193.4270  172.0810  144.5920 C   0  0  0  0  0  2  0  0  0  0  0  0
  1 17  1  1  0  0  0
  2 23  1  6  0  0  0
  2 11  1  0  0  0  0
  3  1  1  0  0  0  0
  4  9  1  0  0  0  0
  5  4  1  6  0  0  0
  7  5  1  0  0  0  0
  7  3  1  1  0  0  0
  7  6  1  0  0  0  0
  8  2  1  0  0  0  0
  8 25  1  1  0  0  0
  8  5  1  0  0  0  0
  9  6  1  0  0  0  0
 10  9  2  0  0  0  0
 11  1  1  0  0  0  0
 11 28  1  1  0  0  0
 12 14  1  0  0  0  0
 12 13  1  0  0  0  0
 15 17  1  0  0  0  0
 15 19  2  0  0  0  0
 16 19  1  0  0  0  0
 17 12  2  0  0  0  0
 18 13  2  0  0  0  0
 19 18  1  0  0  0  0
 21 20  2  0  0  0  0
 21 23  1  0  0  0  0
 22 21  1  0  0  0  0
 25 24  1  1  0  0  0
 26 25  1  0  0  0  0
 27 26  1  0  0  0  0
 28 30  1  0  0  0  0
 29 30  1  0  0  0  0
M  END
>  <MODEL>
9

>  <REMARK>
 VINA RESULT:      -5.4      3.059      5.361
  Name = 
  6 active torsions:
  status: ('A' for Active; 'I' for Inactive)
    1  A    between atoms: C_1  and  C_22
    2  A    between atoms: C_4  and  N_25
    3  A    between atoms: C_7  and  C_30
    4  A    between atoms: C_10  and  C_23
    5  A    between atoms: C_10  and  C_26
    6  A    between atoms: C_13  and  C_30
                            x       y       z     vdW  Elec       q    Type
                         _______ _______ _______ _____ _____    ______ ____

>  <TORSDO>
F 6

$$$$
