=
 OpenBabel11052419143D

 32 37  0  0  1  0  0  0  0  0999 V2000
  190.5910  176.2560  144.7110 C   0  0  1  0  0  3  0  0  0  0  0  0
  188.5870  177.8660  144.4080 C   0  0  2  0  0  3  0  0  0  0  0  0
  191.8030  176.0380  145.6180 C   0  0  0  0  0  2  0  0  0  0  0  0
  189.7390  177.3880  145.3150 C   0  0  1  0  0  3  0  0  0  0  0  0
  187.1820  177.6990  144.9840 C   0  0  2  0  0  3  0  0  0  0  0  0
  186.2600  177.8390  140.0150 C   0  0  0  0  0  2  0  0  0  0  0  0
  188.6110  177.2470  143.0200 C   0  0  2  0  0  3  0  0  0  0  0  0
  185.0710  178.4700  142.1310 C   0  0  0  0  0  2  0  0  0  0  0  0
  186.1880  177.8280  142.9490 C   0  0  2  0  0  3  0  0  0  0  0  0
  189.3250  177.0400  146.7270 C   0  0  0  0  0  0  0  0  0  0  0  0
  186.2870  178.4640  144.2060 O   0  0  0  0  0  0  0  0  0  0  0  0
  188.1690  177.3940  147.2090 N   0  0  0  0  0  0  0  0  0  0  0  0
  190.2390  176.2300  147.5490 C   0  0  0  0  0  3  0  0  0  0  0  0
  190.0170  177.3970  142.4540 C   0  0  0  0  0  2  0  0  0  0  0  0
  191.0100  176.5150  143.2360 C   0  0  2  0  0  3  0  0  0  0  0  0
  187.5260  177.9090  142.1730 C   0  0  2  0  0  3  0  0  0  0  0  0
  187.1910  178.1660  146.4390 C   0  0  2  0  0  3  0  0  0  0  0  0
  191.3750  175.7440  147.0350 C   0  0  0  0  0  3  0  0  0  0  0  0
  184.9410  177.7670  140.7820 C   0  0  0  0  0  2  0  0  0  0  0  0
  187.3810  177.1960  140.8290 C   0  0  0  0  0  2  0  0  0  0  0  0
  192.6790  173.8670  140.8690 C   0  0  2  0  0  3  0  0  0  0  0  0
  192.7830  174.4500  139.6060 O   0  0  0  0  0  1  0  0  0  0  0  0
  191.2230  175.2200  142.4410 C   0  0  2  0  0  3  0  0  0  0  0  0
  191.4670  172.9240  140.8980 C   0  0  0  0  0  2  0  0  0  0  0  0
  190.4970  173.9760  142.9820 C   0  0  0  0  0  2  0  0  0  0  0  0
  192.6550  174.9640  141.9460 C   0  0  1  0  0  3  0  0  0  0  0  0
  193.5900  174.5670  143.0750 C   0  0  0  0  0  1  0  0  0  0  0  0
  190.9890  172.6780  142.3260 C   0  0  1  0  0  3  0  0  0  0  0  0
  188.9030  171.8200  143.0100 O   0  0  0  0  0  0  0  0  0  0  0  0
  189.9010  171.6580  142.3280 C   0  0  0  0  0  3  0  0  0  0  0  0
  185.8110  178.0720  147.0870 C   0  0  0  0  0  2  0  0  0  0  0  0
  185.0380  176.8500  146.6160 C   0  0  0  0  0  1  0  0  0  0  0  0
  1  4  1  0  0  0  0
  1  3  1  1  0  0  0
  2  5  1  0  0  0  0
  2  4  1  0  0  0  0
  3 18  1  0  0  0  0
  4 10  1  0  0  0  0
  5 17  1  0  0  0  0
  6 19  1  0  0  0  0
  6 20  1  0  0  0  0
  7  2  1  0  0  0  0
  8  9  1  0  0  0  0
  9 11  1  0  0  0  0
 10 12  2  0  0  0  0
 10 13  1  0  0  0  0
 11  5  1  0  0  0  0
 14  7  1  0  0  0  0
 14 15  1  0  0  0  0
 15  1  1  0  0  0  0
 16  9  1  0  0  0  0
 16  7  1  0  0  0  0
 17 31  1  0  0  0  0
 17 12  1  0  0  0  0
 18 13  2  0  0  0  0
 19  8  1  0  0  0  0
 20 16  1  0  0  0  0
 21 24  1  0  0  0  0
 21 26  1  0  0  0  0
 22 21  1  0  0  0  0
 23 25  1  0  0  0  0
 23 15  1  0  0  0  0
 24 28  1  0  0  0  0
 26 23  1  0  0  0  0
 26 27  1  0  0  0  0
 28 30  1  0  0  0  0
 28 25  1  0  0  0  0
 30 29  2  0  0  0  0
 32 31  1  0  0  0  0
M  END
>  <MODEL>
1

>  <REMARK>
 VINA RESULT:      -8.1      0.000      0.000
  Name = 
  3 active torsions:
  status: ('A' for Active; 'I' for Inactive)
    1  A    between atoms: C_13  and  C_29
    2  A    between atoms: C_15  and  C_26
    3  A    between atoms: C_16  and  C_27
                            x       y       z     vdW  Elec       q    Type
                         _______ _______ _______ _____ _____    ______ ____

>  <TORSDO>
F 3

$$$$
=
 OpenBabel11052419143D

 32 37  0  0  1  0  0  0  0  0999 V2000
  189.6050  175.1180  144.5990 C   0  0  1  0  0  3  0  0  0  0  0  0
  187.8880  177.0200  144.2320 C   0  0  2  0  0  3  0  0  0  0  0  0
  190.6460  174.6480  145.6170 C   0  0  0  0  0  2  0  0  0  0  0  0
  188.8360  176.3020  145.2140 C   0  0  1  0  0  3  0  0  0  0  0  0
  186.4100  177.0060  144.6140 C   0  0  2  0  0  3  0  0  0  0  0  0
  186.1840  177.7170  139.6140 C   0  0  0  0  0  2  0  0  0  0  0  0
  188.0160  176.5290  142.7990 C   0  0  2  0  0  3  0  0  0  0  0  0
  184.8170  178.3220  141.6280 C   0  0  0  0  0  2  0  0  0  0  0  0
  185.7210  177.4570  142.5000 C   0  0  2  0  0  3  0  0  0  0  0  0
  188.1950  175.8930  146.5220 C   0  0  0  0  0  0  0  0  0  0  0  0
  185.7340  177.9570  143.8210 O   0  0  0  0  0  0  0  0  0  0  0  0
  187.0420  176.3660  146.8960 N   0  0  0  0  0  0  0  0  0  0  0  0
  188.8770  174.8910  147.3560 C   0  0  0  0  0  3  0  0  0  0  0  0
  189.4920  176.5250  142.4240 C   0  0  0  0  0  2  0  0  0  0  0  0
  190.2470  175.4440  143.2220 C   0  0  2  0  0  3  0  0  0  0  0  0
  187.1490  177.4130  141.9030 C   0  0  2  0  0  3  0  0  0  0  0  0
  186.2860  177.3360  146.1020 C   0  0  2  0  0  3  0  0  0  0  0  0
  189.9980  174.2940  146.9330 C   0  0  0  0  0  3  0  0  0  0  0  0
  184.7770  177.7680  140.2060 C   0  0  0  0  0  2  0  0  0  0  0  0
  187.0930  176.8510  140.4830 C   0  0  0  0  0  2  0  0  0  0  0  0
  189.9290  171.7430  141.9540 C   0  0  2  0  0  3  0  0  0  0  0  0
  190.5910  170.9330  142.8760 O   0  0  0  0  0  1  0  0  0  0  0  0
  190.3920  174.2070  142.3250 C   0  0  2  0  0  3  0  0  0  0  0  0
  190.8340  171.9730  140.7340 C   0  0  0  0  0  2  0  0  0  0  0  0
  190.5850  174.4880  140.8240 C   0  0  0  0  0  2  0  0  0  0  0  0
  189.4540  173.0330  142.6430 C   0  0  1  0  0  3  0  0  0  0  0  0
  188.0200  173.3140  142.2280 C   0  0  0  0  0  1  0  0  0  0  0  0
  190.4210  173.2260  139.9660 C   0  0  1  0  0  3  0  0  0  0  0  0
  190.7660  173.8830  137.7280 O   0  0  0  0  0  0  0  0  0  0  0  0
  191.2310  173.3450  138.7190 C   0  0  0  0  0  3  0  0  0  0  0  0
  184.8310  177.3840  146.5660 C   0  0  0  0  0  2  0  0  0  0  0  0
  184.3960  178.7910  146.9470 C   0  0  0  0  0  1  0  0  0  0  0  0
  1  4  1  0  0  0  0
  1  3  1  1  0  0  0
  2  5  1  0  0  0  0
  2  4  1  0  0  0  0
  3 18  1  0  0  0  0
  4 10  1  0  0  0  0
  5 17  1  0  0  0  0
  6 19  1  0  0  0  0
  6 20  1  0  0  0  0
  7  2  1  0  0  0  0
  8  9  1  0  0  0  0
  9 11  1  0  0  0  0
 10 12  2  0  0  0  0
 10 13  1  0  0  0  0
 11  5  1  0  0  0  0
 14  7  1  0  0  0  0
 14 15  1  0  0  0  0
 15  1  1  0  0  0  0
 16  9  1  0  0  0  0
 16  7  1  0  0  0  0
 17 31  1  0  0  0  0
 17 12  1  0  0  0  0
 18 13  2  0  0  0  0
 19  8  1  0  0  0  0
 20 16  1  0  0  0  0
 21 26  1  0  0  0  0
 21 22  1  0  0  0  0
 23 26  1  0  0  0  0
 23 15  1  0  0  0  0
 24 21  1  0  0  0  0
 25 23  1  0  0  0  0
 27 26  1  0  0  0  0
 28 24  1  0  0  0  0
 28 25  1  0  0  0  0
 29 30  2  0  0  0  0
 30 28  1  0  0  0  0
 31 32  1  0  0  0  0
M  END
>  <MODEL>
2

>  <REMARK>
 VINA RESULT:      -8.0      1.495      2.458
  Name = 
  3 active torsions:
  status: ('A' for Active; 'I' for Inactive)
    1  A    between atoms: C_13  and  C_29
    2  A    between atoms: C_15  and  C_26
    3  A    between atoms: C_16  and  C_27
                            x       y       z     vdW  Elec       q    Type
                         _______ _______ _______ _____ _____    ______ ____

>  <TORSDO>
F 3

$$$$
=
 OpenBabel11052419143D

 32 37  0  0  1  0  0  0  0  0999 V2000
  192.3650  174.7760  143.5130 C   0  0  1  0  0  3  0  0  0  0  0  0
  191.0100  176.4960  144.8930 C   0  0  2  0  0  3  0  0  0  0  0  0
  193.8080  174.4420  143.1310 C   0  0  0  0  0  2  0  0  0  0  0  0
  192.3950  175.9070  144.5570 C   0  0  1  0  0  3  0  0  0  0  0  0
  190.5700  176.3610  146.3490 C   0  0  2  0  0  3  0  0  0  0  0  0
  186.1390  176.8600  143.9670 C   0  0  0  0  0  2  0  0  0  0  0  0
  189.8950  175.9670  144.0050 C   0  0  2  0  0  3  0  0  0  0  0  0
  187.0970  177.4110  146.2180 C   0  0  0  0  0  2  0  0  0  0  0  0
  188.3770  176.6660  145.8550 C   0  0  2  0  0  3  0  0  0  0  0  0
  193.2090  175.4900  145.7630 C   0  0  0  0  0  0  0  0  0  0  0  0
  189.4680  177.2150  146.5640 O   0  0  0  0  0  0  0  0  0  0  0  0
  192.8920  175.8680  146.9670 N   0  0  0  0  0  0  0  0  0  0  0  0
  194.3530  174.5860  145.5600 C   0  0  0  0  0  3  0  0  0  0  0  0
  190.3420  176.0850  142.5540 C   0  0  0  0  0  2  0  0  0  0  0  0
  191.4980  175.1080  142.2650 C   0  0  2  0  0  3  0  0  0  0  0  0
  188.6120  176.7320  144.3260 C   0  0  2  0  0  3  0  0  0  0  0  0
  191.7470  176.7330  147.2520 C   0  0  2  0  0  3  0  0  0  0  0  0
  194.6220  174.0800  144.3500 C   0  0  0  0  0  3  0  0  0  0  0  0
  185.9090  176.8040  145.4760 C   0  0  0  0  0  2  0  0  0  0  0  0
  187.4200  176.1140  143.5980 C   0  0  0  0  0  2  0  0  0  0  0  0
  190.6220  171.3390  141.6090 C   0  0  2  0  0  3  0  0  0  0  0  0
  191.8260  170.6670  141.4000 O   0  0  0  0  0  1  0  0  0  0  0  0
  190.9090  173.8580  141.5990 C   0  0  2  0  0  3  0  0  0  0  0  0
  189.9550  171.6230  140.2540 C   0  0  0  0  0  2  0  0  0  0  0  0
  189.6550  174.0860  140.7370 C   0  0  0  0  0  2  0  0  0  0  0  0
  190.8690  172.5910  142.4680 C   0  0  1  0  0  3  0  0  0  0  0  0
  189.8020  172.6660  143.5460 C   0  0  0  0  0  1  0  0  0  0  0  0
  188.9570  172.7730  140.3570 C   0  0  1  0  0  3  0  0  0  0  0  0
  188.0530  174.0420  138.5880 O   0  0  0  0  0  0  0  0  0  0  0  0
  188.2330  172.9330  139.0630 C   0  0  0  0  0  3  0  0  0  0  0  0
  191.3830  176.6640  148.7340 C   0  0  0  0  0  2  0  0  0  0  0  0
  191.4500  178.0270  149.4060 C   0  0  0  0  0  1  0  0  0  0  0  0
  1  3  1  6  0  0  0
  1  4  1  0  0  0  0
  2  5  1  0  0  0  0
  3 18  1  0  0  0  0
  4  2  1  0  0  0  0
  4 10  1  0  0  0  0
  5 11  1  0  0  0  0
  5 17  1  0  0  0  0
  6 19  1  0  0  0  0
  7 16  1  0  0  0  0
  7  2  1  0  0  0  0
  9  8  1  0  0  0  0
  9 11  1  0  0  0  0
 10 12  2  0  0  0  0
 12 17  1  0  0  0  0
 13 10  1  0  0  0  0
 14  7  1  0  0  0  0
 15 14  1  0  0  0  0
 15  1  1  0  0  0  0
 16  9  1  0  0  0  0
 17 31  1  0  0  0  0
 18 13  2  0  0  0  0
 19  8  1  0  0  0  0
 20  6  1  0  0  0  0
 20 16  1  0  0  0  0
 21 26  1  0  0  0  0
 22 21  1  0  0  0  0
 23 15  1  0  0  0  0
 23 26  1  0  0  0  0
 24 28  1  0  0  0  0
 24 21  1  0  0  0  0
 25 23  1  0  0  0  0
 26 27  1  0  0  0  0
 28 25  1  0  0  0  0
 29 30  2  0  0  0  0
 30 28  1  0  0  0  0
 31 32  1  0  0  0  0
M  END
>  <MODEL>
3

>  <REMARK>
 VINA RESULT:      -7.5      2.218      3.900
  Name = 
  3 active torsions:
  status: ('A' for Active; 'I' for Inactive)
    1  A    between atoms: C_13  and  C_29
    2  A    between atoms: C_15  and  C_26
    3  A    between atoms: C_16  and  C_27
                            x       y       z     vdW  Elec       q    Type
                         _______ _______ _______ _____ _____    ______ ____

>  <TORSDO>
F 3

$$$$
=
 OpenBabel11052419143D

 32 37  0  0  1  0  0  0  0  0999 V2000
  191.0590  173.4790  143.8700 C   0  0  1  0  0  3  0  0  0  0  0  0
  188.8320  174.1470  142.7330 C   0  0  2  0  0  3  0  0  0  0  0  0
  191.9800  172.2690  144.0450 C   0  0  0  0  0  2  0  0  0  0  0  0
  189.9580  173.1010  142.8630 C   0  0  1  0  0  3  0  0  0  0  0  0
  188.6600  174.7620  141.3460 C   0  0  2  0  0  3  0  0  0  0  0  0
  186.5990  178.2970  144.3140 C   0  0  0  0  0  2  0  0  0  0  0  0
  188.9340  175.2750  143.7470 C   0  0  2  0  0  3  0  0  0  0  0  0
  186.3040  177.4540  141.9710 C   0  0  0  0  0  2  0  0  0  0  0  0
  187.5320  176.5630  142.1380 C   0  0  2  0  0  3  0  0  0  0  0  0
  190.5710  172.6710  141.5480 C   0  0  0  0  0  0  0  0  0  0  0  0
  187.4180  175.4290  141.3050 O   0  0  0  0  0  0  0  0  0  0  0  0
  190.0010  172.9350  140.4080 N   0  0  0  0  0  0  0  0  0  0  0  0
  191.8750  171.9870  141.5700 C   0  0  0  0  0  3  0  0  0  0  0  0
  189.1240  174.6610  145.1280 C   0  0  0  0  0  2  0  0  0  0  0  0
  190.5060  173.9860  145.2320 C   0  0  2  0  0  3  0  0  0  0  0  0
  187.6910  176.1540  143.6240 C   0  0  2  0  0  3  0  0  0  0  0  0
  188.7250  173.6450  140.3040 C   0  0  2  0  0  3  0  0  0  0  0  0
  192.5410  171.8190  142.7190 C   0  0  0  0  0  3  0  0  0  0  0  0
  186.4360  178.6960  142.8490 C   0  0  0  0  0  2  0  0  0  0  0  0
  187.8270  177.4060  144.4880 C   0  0  0  0  0  2  0  0  0  0  0  0
  193.5090  176.4460  145.8090 C   0  0  2  0  0  3  0  0  0  0  0  0
  194.6820  175.7170  145.6150 O   0  0  0  0  0  1  0  0  0  0  0  0
  191.4590  174.9610  145.9360 C   0  0  2  0  0  3  0  0  0  0  0  0
  193.2390  176.5880  147.3140 C   0  0  0  0  0  2  0  0  0  0  0  0
  190.8690  175.7280  147.1320 C   0  0  0  0  0  2  0  0  0  0  0  0
  192.3600  175.8000  145.0170 C   0  0  1  0  0  3  0  0  0  0  0  0
  191.5880  176.8900  144.2930 C   0  0  0  0  0  1  0  0  0  0  0  0
  191.7670  176.8850  147.5880 C   0  0  1  0  0  3  0  0  0  0  0  0
  191.5310  178.2920  149.4650 O   0  0  0  0  0  0  0  0  0  0  0  0
  191.5670  177.1480  149.0430 C   0  0  0  0  0  3  0  0  0  0  0  0
  188.5210  174.1660  138.8820 C   0  0  0  0  0  2  0  0  0  0  0  0
  189.6140  173.6940  137.9350 C   0  0  0  0  0  1  0  0  0  0  0  0
  1  3  1  1  0  0  0
  1 15  1  0  0  0  0
  2  4  1  0  0  0  0
  2  7  1  0  0  0  0
  4  1  1  0  0  0  0
  5  2  1  0  0  0  0
  6 20  1  0  0  0  0
  7 14  1  0  0  0  0
  8  9  1  0  0  0  0
  8 19  1  0  0  0  0
  9 16  1  0  0  0  0
 10 13  1  0  0  0  0
 10  4  1  0  0  0  0
 11  5  1  0  0  0  0
 11  9  1  0  0  0  0
 12 10  2  0  0  0  0
 13 18  2  0  0  0  0
 14 15  1  0  0  0  0
 15 23  1  0  0  0  0
 16  7  1  0  0  0  0
 16 20  1  0  0  0  0
 17 12  1  0  0  0  0
 17  5  1  0  0  0  0
 18  3  1  0  0  0  0
 19  6  1  0  0  0  0
 21 24  1  0  0  0  0
 22 21  1  0  0  0  0
 23 25  1  0  0  0  0
 24 28  1  0  0  0  0
 25 28  1  0  0  0  0
 26 21  1  0  0  0  0
 26 23  1  0  0  0  0
 27 26  1  0  0  0  0
 28 30  1  0  0  0  0
 30 29  2  0  0  0  0
 31 17  1  0  0  0  0
 32 31  1  0  0  0  0
M  END
>  <MODEL>
4

>  <REMARK>
 VINA RESULT:      -7.4      2.967      5.745
  Name = 
  3 active torsions:
  status: ('A' for Active; 'I' for Inactive)
    1  A    between atoms: C_13  and  C_29
    2  A    between atoms: C_15  and  C_26
    3  A    between atoms: C_16  and  C_27
                            x       y       z     vdW  Elec       q    Type
                         _______ _______ _______ _____ _____    ______ ____

>  <TORSDO>
F 3

$$$$
=
 OpenBabel11052419143D

 32 37  0  0  1  0  0  0  0  0999 V2000
  188.3220  176.5030  142.3000 C   0  0  1  0  0  3  0  0  0  0  0  0
  190.5200  175.6830  143.3940 C   0  0  2  0  0  3  0  0  0  0  0  0
  187.6950  176.7080  140.9200 C   0  0  0  0  0  2  0  0  0  0  0  0
  189.6690  175.7810  142.1120 C   0  0  1  0  0  3  0  0  0  0  0  0
  190.8340  174.2660  143.8700 C   0  0  2  0  0  3  0  0  0  0  0  0
  191.3320  176.9300  148.1370 C   0  0  0  0  0  2  0  0  0  0  0  0
  189.9450  176.4640  144.5640 C   0  0  2  0  0  3  0  0  0  0  0  0
  192.3060  174.8460  147.1380 C   0  0  0  0  0  2  0  0  0  0  0  0
  191.3150  174.9380  145.9830 C   0  0  2  0  0  3  0  0  0  0  0  0
  189.4680  174.4680  141.3880 C   0  0  0  0  0  0  0  0  0  0  0  0
  191.8650  174.3350  144.8300 O   0  0  0  0  0  0  0  0  0  0  0  0
  190.1880  173.4190  141.6600 N   0  0  0  0  0  0  0  0  0  0  0  0
  188.3860  174.3710  140.3940 C   0  0  0  0  0  3  0  0  0  0  0  0
  189.6150  177.8710  144.0840 C   0  0  0  0  0  2  0  0  0  0  0  0
  188.4400  177.8380  143.0870 C   0  0  2  0  0  3  0  0  0  0  0  0
  190.9440  176.4190  145.7180 C   0  0  2  0  0  3  0  0  0  0  0  0
  191.2550  173.4260  142.6630 C   0  0  2  0  0  3  0  0  0  0  0  0
  187.5500  175.3960  140.1890 C   0  0  0  0  0  3  0  0  0  0  0  0
  191.7040  175.4710  148.3940 C   0  0  0  0  0  2  0  0  0  0  0  0
  190.3380  177.0280  146.9820 C   0  0  0  0  0  2  0  0  0  0  0  0
  185.0560  179.6010  144.0080 C   0  0  2  0  0  3  0  0  0  0  0  0
  185.3360  180.9540  144.2020 O   0  0  0  0  0  1  0  0  0  0  0  0
  187.1580  178.1930  143.8530 C   0  0  2  0  0  3  0  0  0  0  0  0
  184.9430  178.9020  145.3710 C   0  0  0  0  0  2  0  0  0  0  0  0
  186.5880  177.0840  144.7550 C   0  0  0  0  0  2  0  0  0  0  0  0
  186.1040  178.9860  143.0650 C   0  0  1  0  0  3  0  0  0  0  0  0
  185.3930  178.1280  142.0330 C   0  0  0  0  0  1  0  0  0  0  0  0
  185.1670  177.3980  145.2430 C   0  0  1  0  0  3  0  0  0  0  0  0
  185.7910  176.7050  147.4080 O   0  0  0  0  0  0  0  0  0  0  0  0
  184.9180  176.7350  146.5560 C   0  0  0  0  0  3  0  0  0  0  0  0
  191.6280  171.9970  143.0540 C   0  0  0  0  0  2  0  0  0  0  0  0
  190.8520  170.9620  142.2530 C   0  0  0  0  0  1  0  0  0  0  0  0
  1  3  1  6  0  0  0
  1 15  1  0  0  0  0
  2  5  1  0  0  0  0
  2  7  1  0  0  0  0
  4  1  1  0  0  0  0
  4  2  1  0  0  0  0
  5 11  1  0  0  0  0
  6 19  1  0  0  0  0
  7 16  1  0  0  0  0
  8 19  1  0  0  0  0
  9  8  1  0  0  0  0
 10 12  2  0  0  0  0
 10  4  1  0  0  0  0
 11  9  1  0  0  0  0
 12 17  1  0  0  0  0
 13 10  1  0  0  0  0
 14  7  1  0  0  0  0
 15 23  1  0  0  0  0
 15 14  1  0  0  0  0
 16  9  1  0  0  0  0
 16 20  1  0  0  0  0
 17 31  1  0  0  0  0
 17  5  1  0  0  0  0
 18 13  2  0  0  0  0
 18  3  1  0  0  0  0
 20  6  1  0  0  0  0
 21 22  1  0  0  0  0
 21 24  1  0  0  0  0
 23 25  1  0  0  0  0
 25 28  1  0  0  0  0
 26 23  1  0  0  0  0
 26 21  1  0  0  0  0
 27 26  1  0  0  0  0
 28 24  1  0  0  0  0
 28 30  1  0  0  0  0
 30 29  2  0  0  0  0
 32 31  1  0  0  0  0
M  END
>  <MODEL>
5

>  <REMARK>
 VINA RESULT:      -7.3      2.231      7.304
  Name = 
  3 active torsions:
  status: ('A' for Active; 'I' for Inactive)
    1  A    between atoms: C_13  and  C_29
    2  A    between atoms: C_15  and  C_26
    3  A    between atoms: C_16  and  C_27
                            x       y       z     vdW  Elec       q    Type
                         _______ _______ _______ _____ _____    ______ ____

>  <TORSDO>
F 3

$$$$
=
 OpenBabel11052419143D

 32 37  0  0  1  0  0  0  0  0999 V2000
  189.7440  175.2040  144.8290 C   0  0  1  0  0  3  0  0  0  0  0  0
  187.9810  177.0310  144.3300 C   0  0  2  0  0  3  0  0  0  0  0  0
  190.7520  174.7980  145.9070 C   0  0  0  0  0  2  0  0  0  0  0  0
  188.9060  176.3750  145.3740 C   0  0  1  0  0  3  0  0  0  0  0  0
  186.4870  176.9740  144.6440 C   0  0  2  0  0  3  0  0  0  0  0  0
  186.4730  177.5450  139.6210 C   0  0  0  0  0  2  0  0  0  0  0  0
  188.1930  176.5090  142.9190 C   0  0  2  0  0  3  0  0  0  0  0  0
  184.9920  178.1530  141.5520 C   0  0  0  0  0  2  0  0  0  0  0  0
  185.8840  177.3440  142.4890 C   0  0  2  0  0  3  0  0  0  0  0  0
  188.2190  175.9780  146.6620 C   0  0  0  0  0  0  0  0  0  0  0  0
  185.8170  177.8790  143.7940 O   0  0  0  0  0  0  0  0  0  0  0  0
  187.0330  176.4180  146.9700 N   0  0  0  0  0  0  0  0  0  0  0  0
  188.8960  175.0230  147.5550 C   0  0  0  0  0  3  0  0  0  0  0  0
  189.6840  176.5480  142.6130 C   0  0  0  0  0  2  0  0  0  0  0  0
  190.4380  175.5170  143.4740 C   0  0  2  0  0  3  0  0  0  0  0  0
  187.3390  177.3360  141.9590 C   0  0  2  0  0  3  0  0  0  0  0  0
  186.2820  177.3390  146.1150 C   0  0  2  0  0  3  0  0  0  0  0  0
  190.0550  174.4570  147.2010 C   0  0  0  0  0  3  0  0  0  0  0  0
  185.0380  177.5610  140.1450 C   0  0  0  0  0  2  0  0  0  0  0  0
  187.3700  176.7350  140.5550 C   0  0  0  0  0  2  0  0  0  0  0  0
  191.1290  173.2600  140.3380 C   0  0  2  0  0  3  0  0  0  0  0  0
  190.0730  173.4560  139.4490 O   0  0  0  0  0  1  0  0  0  0  0  0
  190.6690  174.2630  142.6200 C   0  0  2  0  0  3  0  0  0  0  0  0
  190.9130  171.9470  141.1060 C   0  0  0  0  0  2  0  0  0  0  0  0
  191.2150  173.0340  143.3680 C   0  0  0  0  0  2  0  0  0  0  0  0
  191.2890  174.4990  141.2350 C   0  0  1  0  0  3  0  0  0  0  0  0
  192.7620  174.8590  141.3190 C   0  0  0  0  0  1  0  0  0  0  0  0
  191.6980  171.9330  142.4140 C   0  0  1  0  0  3  0  0  0  0  0  0
  192.4970  170.1370  143.7160 O   0  0  0  0  0  0  0  0  0  0  0  0
  191.5730  170.5970  143.0660 C   0  0  0  0  0  3  0  0  0  0  0  0
  184.8060  177.3460  146.5090 C   0  0  0  0  0  2  0  0  0  0  0  0
  184.2630  178.7570  146.6730 C   0  0  0  0  0  1  0  0  0  0  0  0
  1  4  1  0  0  0  0
  1  3  1  1  0  0  0
  2  5  1  0  0  0  0
  2  4  1  0  0  0  0
  3 18  1  0  0  0  0
  4 10  1  0  0  0  0
  5 17  1  0  0  0  0
  6 19  1  0  0  0  0
  6 20  1  0  0  0  0
  7  2  1  0  0  0  0
  8  9  1  0  0  0  0
  9 11  1  0  0  0  0
 10 12  2  0  0  0  0
 10 13  1  0  0  0  0
 11  5  1  0  0  0  0
 14  7  1  0  0  0  0
 14 15  1  0  0  0  0
 15  1  1  0  0  0  0
 16  9  1  0  0  0  0
 16  7  1  0  0  0  0
 17 31  1  0  0  0  0
 17 12  1  0  0  0  0
 18 13  2  0  0  0  0
 19  8  1  0  0  0  0
 20 16  1  0  0  0  0
 21 24  1  0  0  0  0
 21 26  1  0  0  0  0
 22 21  1  0  0  0  0
 23 25  1  0  0  0  0
 23 15  1  0  0  0  0
 24 28  1  0  0  0  0
 26 27  1  0  0  0  0
 26 23  1  0  0  0  0
 28 30  1  0  0  0  0
 28 25  1  0  0  0  0
 30 29  2  0  0  0  0
 31 32  1  0  0  0  0
M  END
>  <MODEL>
6

>  <REMARK>
 VINA RESULT:      -7.3      1.442      1.555
  Name = 
  3 active torsions:
  status: ('A' for Active; 'I' for Inactive)
    1  A    between atoms: C_13  and  C_29
    2  A    between atoms: C_15  and  C_26
    3  A    between atoms: C_16  and  C_27
                            x       y       z     vdW  Elec       q    Type
                         _______ _______ _______ _____ _____    ______ ____

>  <TORSDO>
F 3

$$$$
=
 OpenBabel11052419143D

 32 37  0  0  1  0  0  0  0  0999 V2000
  191.7860  175.2860  145.8090 C   0  0  1  0  0  3  0  0  0  0  0  0
  192.6340  173.1610  144.5990 C   0  0  2  0  0  3  0  0  0  0  0  0
  192.0350  176.0980  147.0820 C   0  0  0  0  0  2  0  0  0  0  0  0
  192.8680  174.1930  145.7210 C   0  0  1  0  0  3  0  0  0  0  0  0
  193.7250  173.0870  143.5330 C   0  0  2  0  0  3  0  0  0  0  0  0
  189.7310  171.2180  141.0630 C   0  0  0  0  0  2  0  0  0  0  0  0
  191.2930  173.3180  143.9010 C   0  0  2  0  0  3  0  0  0  0  0  0
  192.2220  170.9370  141.0220 C   0  0  0  0  0  2  0  0  0  0  0  0
  192.3660  172.0810  142.0200 C   0  0  2  0  0  3  0  0  0  0  0  0
  194.2470  174.8140  145.7260 C   0  0  0  0  0  0  0  0  0  0  0  0
  193.5400  171.9050  142.7860 O   0  0  0  0  0  0  0  0  0  0  0  0
  195.2290  174.3070  145.0390 N   0  0  0  0  0  0  0  0  0  0  0  0
  194.4560  176.0560  146.4890 C   0  0  0  0  0  3  0  0  0  0  0  0
  190.2080  173.4100  144.9650 C   0  0  0  0  0  2  0  0  0  0  0  0
  190.3360  174.7280  145.7530 C   0  0  2  0  0  3  0  0  0  0  0  0
  191.1120  172.1550  142.9270 C   0  0  2  0  0  3  0  0  0  0  0  0
  195.0880  173.0970  144.2270 C   0  0  2  0  0  3  0  0  0  0  0  0
  193.4330  176.6670  147.0980 C   0  0  0  0  0  3  0  0  0  0  0  0
  190.9700  171.1380  140.1730 C   0  0  0  0  0  2  0  0  0  0  0  0
  189.8690  172.3630  142.0630 C   0  0  0  0  0  2  0  0  0  0  0  0
  187.2480  177.1360  145.4820 C   0  0  2  0  0  3  0  0  0  0  0  0
  186.1030  176.3560  145.6410 O   0  0  0  0  0  1  0  0  0  0  0  0
  189.3350  175.7320  145.1660 C   0  0  2  0  0  3  0  0  0  0  0  0
  187.4690  177.4190  143.9880 C   0  0  0  0  0  2  0  0  0  0  0  0
  189.8670  176.6200  144.0270 C   0  0  0  0  0  2  0  0  0  0  0  0
  188.4390  176.4570  146.1810 C   0  0  1  0  0  3  0  0  0  0  0  0
  189.2010  177.5020  146.9780 C   0  0  0  0  0  1  0  0  0  0  0  0
  188.9230  177.7850  143.7020 C   0  0  1  0  0  3  0  0  0  0  0  0
  188.2460  177.8360  141.4440 O   0  0  0  0  0  0  0  0  0  0  0  0
  189.0720  178.1830  142.2720 C   0  0  0  0  0  3  0  0  0  0  0  0
  196.2440  172.9860  143.2340 C   0  0  0  0  0  2  0  0  0  0  0  0
  196.2990  174.1700  142.2810 C   0  0  0  0  0  1  0  0  0  0  0  0
  1  3  1  1  0  0  0
  2  4  1  0  0  0  0
  3 18  1  0  0  0  0
  4 10  1  0  0  0  0
  4  1  1  0  0  0  0
  5 17  1  0  0  0  0
  5  2  1  0  0  0  0
  6 20  1  0  0  0  0
  7  2  1  0  0  0  0
  7 14  1  0  0  0  0
  8  9  1  0  0  0  0
  9 11  1  0  0  0  0
  9 16  1  0  0  0  0
 10 13  1  0  0  0  0
 11  5  1  0  0  0  0
 12 10  2  0  0  0  0
 13 18  2  0  0  0  0
 14 15  1  0  0  0  0
 15  1  1  0  0  0  0
 16  7  1  0  0  0  0
 17 12  1  0  0  0  0
 19  8  1  0  0  0  0
 19  6  1  0  0  0  0
 20 16  1  0  0  0  0
 21 22  1  0  0  0  0
 21 26  1  0  0  0  0
 23 15  1  0  0  0  0
 23 26  1  0  0  0  0
 24 21  1  0  0  0  0
 25 23  1  0  0  0  0
 26 27  1  0  0  0  0
 28 24  1  0  0  0  0
 28 25  1  0  0  0  0
 29 30  2  0  0  0  0
 30 28  1  0  0  0  0
 31 17  1  0  0  0  0
 32 31  1  0  0  0  0
M  END
>  <MODEL>
7

>  <REMARK>
 VINA RESULT:      -7.1      2.585      7.074
  Name = 
  3 active torsions:
  status: ('A' for Active; 'I' for Inactive)
    1  A    between atoms: C_13  and  C_29
    2  A    between atoms: C_15  and  C_26
    3  A    between atoms: C_16  and  C_27
                            x       y       z     vdW  Elec       q    Type
                         _______ _______ _______ _____ _____    ______ ____

>  <TORSDO>
F 3

$$$$
=
 OpenBabel11052419143D

 32 37  0  0  1  0  0  0  0  0999 V2000
  188.9460  176.0980  144.8410 C   0  0  1  0  0  3  0  0  0  0  0  0
  191.1230  174.7110  144.6580 C   0  0  2  0  0  3  0  0  0  0  0  0
  187.9130  176.5430  145.8790 C   0  0  0  0  0  2  0  0  0  0  0  0
  190.0980  175.3970  145.5840 C   0  0  1  0  0  3  0  0  0  0  0  0
  192.5540  175.2340  144.7550 C   0  0  2  0  0  3  0  0  0  0  0  0
  192.5050  173.1910  140.1310 C   0  0  0  0  0  2  0  0  0  0  0  0
  190.7120  174.7100  143.1940 C   0  0  2  0  0  3  0  0  0  0  0  0
  194.1800  173.5900  141.9540 C   0  0  0  0  0  2  0  0  0  0  0  0
  193.1410  174.3930  142.7310 C   0  0  2  0  0  3  0  0  0  0  0  0
  190.7050  176.3260  146.6130 C   0  0  0  0  0  0  0  0  0  0  0  0
  193.4110  174.3130  144.1150 O   0  0  0  0  0  0  0  0  0  0  0  0
  191.9780  176.3130  146.8810 N   0  0  0  0  0  0  0  0  0  0  0  0
  189.8290  177.3040  147.2800 C   0  0  0  0  0  3  0  0  0  0  0  0
  189.2780  174.2050  143.1010 C   0  0  0  0  0  2  0  0  0  0  0  0
  188.3060  175.2240  143.7260 C   0  0  2  0  0  3  0  0  0  0  0  0
  191.7180  173.8730  142.4060 C   0  0  2  0  0  3  0  0  0  0  0  0
  192.9170  175.3970  146.2310 C   0  0  2  0  0  3  0  0  0  0  0  0
  188.5440  177.4250  146.9290 C   0  0  0  0  0  3  0  0  0  0  0  0
  193.9090  173.6960  140.4560 C   0  0  0  0  0  2  0  0  0  0  0  0
  191.4610  173.9920  140.9050 C   0  0  0  0  0  2  0  0  0  0  0  0
  186.9450  178.3260  141.7430 C   0  0  2  0  0  3  0  0  0  0  0  0
  185.8520  178.8230  142.4540 O   0  0  0  0  0  1  0  0  0  0  0  0
  187.6990  176.0600  142.5900 C   0  0  2  0  0  3  0  0  0  0  0  0
  186.4440  177.4820  140.5610 C   0  0  0  0  0  2  0  0  0  0  0  0
  187.8750  175.4890  141.1720 C   0  0  0  0  0  2  0  0  0  0  0  0
  187.8900  177.5800  142.6990 C   0  0  1  0  0  3  0  0  0  0  0  0
  189.3190  178.0020  142.4070 C   0  0  0  0  0  1  0  0  0  0  0  0
  187.5170  176.5080  140.0810 C   0  0  1  0  0  3  0  0  0  0  0  0
  186.4310  176.4060  137.9920 O   0  0  0  0  0  0  0  0  0  0  0  0
  187.0470  175.8020  138.8540 C   0  0  0  0  0  3  0  0  0  0  0  0
  194.3530  175.8810  146.4250 C   0  0  0  0  0  2  0  0  0  0  0  0
  194.5930  177.2390  145.7830 C   0  0  0  0  0  1  0  0  0  0  0  0
  1  4  1  0  0  0  0
  1  3  1  1  0  0  0
  2  5  1  0  0  0  0
  2  4  1  0  0  0  0
  3 18  1  0  0  0  0
  4 10  1  0  0  0  0
  5 17  1  0  0  0  0
  6 19  1  0  0  0  0
  6 20  1  0  0  0  0
  7  2  1  0  0  0  0
  8  9  1  0  0  0  0
  9 11  1  0  0  0  0
 10 12  2  0  0  0  0
 10 13  1  0  0  0  0
 11  5  1  0  0  0  0
 14  7  1  0  0  0  0
 14 15  1  0  0  0  0
 15  1  1  0  0  0  0
 16  9  1  0  0  0  0
 16  7  1  0  0  0  0
 17 31  1  0  0  0  0
 17 12  1  0  0  0  0
 18 13  2  0  0  0  0
 19  8  1  0  0  0  0
 20 16  1  0  0  0  0
 21 22  1  0  0  0  0
 21 26  1  0  0  0  0
 23 26  1  0  0  0  0
 23 15  1  0  0  0  0
 24 21  1  0  0  0  0
 25 23  1  0  0  0  0
 27 26  1  0  0  0  0
 28 24  1  0  0  0  0
 28 25  1  0  0  0  0
 29 30  2  0  0  0  0
 30 28  1  0  0  0  0
 32 31  1  0  0  0  0
M  END
>  <MODEL>
8

>  <REMARK>
 VINA RESULT:      -7.1      2.135      6.079
  Name = 
  3 active torsions:
  status: ('A' for Active; 'I' for Inactive)
    1  A    between atoms: C_13  and  C_29
    2  A    between atoms: C_15  and  C_26
    3  A    between atoms: C_16  and  C_27
                            x       y       z     vdW  Elec       q    Type
                         _______ _______ _______ _____ _____    ______ ____

>  <TORSDO>
F 3

$$$$
=
 OpenBabel11052419143D

 32 37  0  0  1  0  0  0  0  0999 V2000
  190.2240  175.8660  145.8220 C   0  0  1  0  0  3  0  0  0  0  0  0
  191.5980  174.1220  144.4930 C   0  0  2  0  0  3  0  0  0  0  0  0
  189.9380  176.2950  147.2630 C   0  0  0  0  0  2  0  0  0  0  0  0
  191.3370  174.8030  145.8510 C   0  0  1  0  0  3  0  0  0  0  0  0
  193.0030  174.3030  143.9230 C   0  0  2  0  0  3  0  0  0  0  0  0
  190.3140  173.3070  139.7600 C   0  0  0  0  0  2  0  0  0  0  0  0
  190.5930  174.5070  143.4190 C   0  0  2  0  0  3  0  0  0  0  0  0
  192.6640  172.9650  140.5640 C   0  0  0  0  0  2  0  0  0  0  0  0
  192.3570  173.7910  141.8090 C   0  0  2  0  0  3  0  0  0  0  0  0
  192.5740  175.3530  146.5260 C   0  0  0  0  0  0  0  0  0  0  0  0
  193.1840  173.3750  142.8760 O   0  0  0  0  0  0  0  0  0  0  0  0
  193.7710  175.0200  146.1390 N   0  0  0  0  0  0  0  0  0  0  0  0
  192.4060  176.3350  147.6110 C   0  0  0  0  0  3  0  0  0  0  0  0
  189.1930  174.3430  143.9950 C   0  0  0  0  0  2  0  0  0  0  0  0
  188.9350  175.3930  145.0930 C   0  0  2  0  0  3  0  0  0  0  0  0
  190.8590  173.6580  142.1770 C   0  0  2  0  0  3  0  0  0  0  0  0
  194.0190  174.0810  145.0440 C   0  0  2  0  0  3  0  0  0  0  0  0
  191.1920  176.7910  147.9400 C   0  0  0  0  0  3  0  0  0  0  0  0
  191.7930  173.4300  139.4000 C   0  0  0  0  0  2  0  0  0  0  0  0
  190.0000  174.1330  141.0060 C   0  0  0  0  0  2  0  0  0  0  0  0
  187.3480  177.7360  142.3730 C   0  0  2  0  0  3  0  0  0  0  0  0
  188.3990  178.2900  141.6430 O   0  0  0  0  0  1  0  0  0  0  0  0
  188.1460  176.5510  144.4670 C   0  0  2  0  0  3  0  0  0  0  0  0
  186.8440  178.7610  143.4010 C   0  0  0  0  0  2  0  0  0  0  0  0
  187.0270  177.1470  145.3380 C   0  0  0  0  0  2  0  0  0  0  0  0
  187.7900  176.3940  142.9810 C   0  0  1  0  0  3  0  0  0  0  0  0
  186.6920  175.3690  142.7580 C   0  0  0  0  0  1  0  0  0  0  0  0
  186.1000  178.0790  144.5450 C   0  0  1  0  0  3  0  0  0  0  0  0
  184.3410  179.0400  145.7860 O   0  0  0  0  0  0  0  0  0  0  0  0
  185.5120  179.1080  145.4510 C   0  0  0  0  0  3  0  0  0  0  0  0
  195.4600  174.2040  144.5530 C   0  0  0  0  0  2  0  0  0  0  0  0
  196.4620  174.1650  145.6970 C   0  0  0  0  0  1  0  0  0  0  0  0
  1  4  1  0  0  0  0
  1  3  1  1  0  0  0
  2  4  1  0  0  0  0
  3 18  1  0  0  0  0
  4 10  1  0  0  0  0
  5  2  1  0  0  0  0
  5 17  1  0  0  0  0
  6 20  1  0  0  0  0
  7 14  1  0  0  0  0
  7  2  1  0  0  0  0
  8  9  1  0  0  0  0
  9 16  1  0  0  0  0
  9 11  1  0  0  0  0
 10 13  1  0  0  0  0
 11  5  1  0  0  0  0
 12 10  2  0  0  0  0
 13 18  2  0  0  0  0
 14 15  1  0  0  0  0
 15  1  1  0  0  0  0
 16  7  1  0  0  0  0
 17 12  1  0  0  0  0
 19  6  1  0  0  0  0
 19  8  1  0  0  0  0
 20 16  1  0  0  0  0
 21 26  1  0  0  0  0
 21 24  1  0  0  0  0
 22 21  1  0  0  0  0
 23 15  1  0  0  0  0
 23 25  1  0  0  0  0
 24 28  1  0  0  0  0
 26 23  1  0  0  0  0
 27 26  1  0  0  0  0
 28 25  1  0  0  0  0
 28 30  1  0  0  0  0
 30 29  2  0  0  0  0
 31 17  1  0  0  0  0
 31 32  1  0  0  0  0
M  END
>  <MODEL>
9

>  <REMARK>
 VINA RESULT:      -7.0      2.168      6.507
  Name = 
  3 active torsions:
  status: ('A' for Active; 'I' for Inactive)
    1  A    between atoms: C_13  and  C_29
    2  A    between atoms: C_15  and  C_26
    3  A    between atoms: C_16  and  C_27
                            x       y       z     vdW  Elec       q    Type
                         _______ _______ _______ _____ _____    ______ ____

>  <TORSDO>
F 3

$$$$
