=
 OpenBabel11052420373D

 34 38  0  0  1  0  0  0  0  0999 V2000
  190.6180  175.2660  144.7260 C   0  0  1  0  0  3  0  0  0  0  0  0
  187.6330  176.9730  146.2280 C   0  0  0  0  0  3  0  0  0  0  0  0
  188.8180  175.1460  147.2490 C   0  0  0  0  0  2  0  0  0  0  0  0
  191.2210  177.0380  145.9080 O   0  0  0  0  0  0  0  0  0  0  0  0
  191.8600  176.4770  147.0230 C   0  0  0  0  0  2  0  0  0  0  0  0
  190.1770  174.8140  147.3710 O   0  0  0  0  0  0  0  0  0  0  0  0
  191.5730  176.3030  144.8610 O   0  0  0  0  0  0  0  0  0  0  0  0
  190.8100  175.9090  147.9710 C   0  0  0  0  0  2  0  0  0  0  0  0
  187.2370  177.9540  145.1780 C   0  0  0  0  0  2  0  0  0  0  0  0
  186.5430  177.2680  144.0470 C   0  0  0  0  0  0  0  0  0  0  0  0
  187.1920  176.3830  143.2840 C   0  0  0  0  0  3  0  0  0  0  0  0
  188.5150  175.9890  146.0330 C   0  0  0  0  0  0  0  0  0  0  0  0
  188.5660  175.9010  143.5250 C   0  0  0  0  0  3  0  0  0  0  0  0
  189.1790  175.7390  144.7110 C   0  0  0  0  0  0  0  0  0  0  0  0
  192.1420  174.7620  142.7300 C   0  0  1  0  0  3  0  0  0  0  0  0
  193.5700  172.1690  143.4180 C   0  0  0  0  0  2  0  0  0  0  0  0
  195.6380  176.0840  143.0300 C   0  0  0  0  0  2  0  0  0  0  0  0
  191.1860  172.8500  144.2630 C   0  0  1  0  0  3  0  0  0  0  0  0
  191.0030  174.2500  143.6420 C   0  0  1  0  0  3  0  0  0  0  0  0
  196.3560  173.6550  143.4510 C   0  0  2  0  0  3  0  0  0  0  0  0
  194.6120  175.2310  142.2990 C   0  0  2  0  0  3  0  0  0  0  0  0
  197.6720  173.7440  143.9100 O   0  0  0  0  0  1  0  0  0  0  0  0
  193.5720  174.7390  143.3250 C   0  0  2  0  0  3  0  0  0  0  0  0
  189.8360  172.2190  144.5730 C   0  0  0  0  0  1  0  0  0  0  0  0
  191.6180  171.0010  142.8230 O   0  0  0  0  0  0  0  0  0  0  0  0
  196.0670  174.7640  142.4230 C   0  0  1  0  0  3  0  0  0  0  0  0
  195.3750  173.4770  144.6110 C   0  0  2  0  0  3  0  0  0  0  0  0
  193.9380  173.4720  144.1220 C   0  0  2  0  0  3  0  0  0  0  0  0
  195.5690  174.5060  145.7170 C   0  0  0  0  0  1  0  0  0  0  0  0
  192.0870  171.9260  143.4690 C   0  0  0  0  0  0  0  0  0  0  0  0
  192.0440  174.1440  141.3400 C   0  0  0  0  0  1  0  0  0  0  0  0
  185.1570  177.6450  143.7220 C   0  0  0  0  0  0  0  0  0  0  0  0
  184.3330  178.1820  144.7050 O   0  0  0  0  0  1  0  0  0  0  0  0
  184.7020  177.4840  142.5590 O   0  0  0  0  0  0  0  0  0  0  0  0
  1 14  1  6  0  0  0
  1  7  1  0  0  0  0
  3  6  1  0  0  0  0
  4  5  1  0  0  0  0
  5  8  1  0  0  0  0
  6  8  1  0  0  0  0
  7  4  1  0  0  0  0
  9  2  1  0  0  0  0
 10  9  1  0  0  0  0
 11 13  1  0  0  0  0
 11 10  2  0  0  0  0
 12  2  2  0  0  0  0
 12  3  1  0  0  0  0
 13 14  2  0  0  0  0
 14 12  1  0  0  0  0
 15 31  1  6  0  0  0
 15 23  1  0  0  0  0
 15 19  1  0  0  0  0
 16 30  1  0  0  0  0
 16 28  1  0  0  0  0
 18 24  1  6  0  0  0
 19 18  1  0  0  0  0
 19  1  1  1  0  0  0
 20 22  1  1  0  0  0
 20 27  1  0  0  0  0
 21 26  1  0  0  0  0
 21 17  1  1  0  0  0
 21 23  1  0  0  0  0
 23 28  1  0  0  0  0
 25 30  2  0  0  0  0
 26 17  1  0  0  0  0
 26 20  1  0  0  0  0
 27 29  1  0  0  0  0
 28 27  1  0  0  0  0
 30 18  1  0  0  0  0
 32 10  1  0  0  0  0
 32 33  1  0  0  0  0
 34 32  2  0  0  0  0
M  END
>  <MODEL>
1

>  <REMARK>
 VINA RESULT:      -8.5      0.000      0.000
  Name = 
  2 active torsions:
  status: ('A' for Active; 'I' for Inactive)
    1  A    between atoms: C_1  and  C_9
    2  A    between atoms: C_3  and  C_25
                            x       y       z     vdW  Elec       q    Type
                         _______ _______ _______ _____ _____    ______ ____

>  <TORSDO>
F 2

$$$$
=
 OpenBabel11052420373D

 34 38  0  0  1  0  0  0  0  0999 V2000
  193.2400  173.9320  144.5200 C   0  0  1  0  0  3  0  0  0  0  0  0
  196.8440  173.0200  145.0260 C   0  0  0  0  0  3  0  0  0  0  0  0
  196.0010  174.2640  143.1470 C   0  0  0  0  0  2  0  0  0  0  0  0
  194.2820  175.4450  145.7550 O   0  0  0  0  0  0  0  0  0  0  0  0
  194.3530  176.5590  144.9060 C   0  0  0  0  0  2  0  0  0  0  0  0
  195.0480  175.2850  143.0050 O   0  0  0  0  0  0  0  0  0  0  0  0
  193.0940  174.8900  145.5530 O   0  0  0  0  0  0  0  0  0  0  0  0
  195.4360  176.3240  143.8600 C   0  0  0  0  0  2  0  0  0  0  0  0
  196.8170  172.1960  146.2670 C   0  0  0  0  0  2  0  0  0  0  0  0
  196.2890  170.8280  145.9830 C   0  0  0  0  0  0  0  0  0  0  0  0
  195.0270  170.6540  145.5790 C   0  0  0  0  0  3  0  0  0  0  0  0
  195.7530  173.3760  144.3440 C   0  0  0  0  0  0  0  0  0  0  0  0
  194.0820  171.7400  145.2550 C   0  0  0  0  0  3  0  0  0  0  0  0
  194.3690  172.9470  144.7360 C   0  0  0  0  0  0  0  0  0  0  0  0
  190.7800  173.5580  145.1270 C   0  0  1  0  0  3  0  0  0  0  0  0
  189.1760  174.7500  142.8380 C   0  0  0  0  0  2  0  0  0  0  0  0
  189.1520  176.3900  146.9680 C   0  0  0  0  0  2  0  0  0  0  0  0
  191.5810  173.7330  142.6280 C   0  0  1  0  0  3  0  0  0  0  0  0
  191.8980  173.3310  144.0830 C   0  0  1  0  0  3  0  0  0  0  0  0
  187.9290  176.9120  144.7720 C   0  0  2  0  0  3  0  0  0  0  0  0
  189.0440  175.0570  146.2430 C   0  0  2  0  0  3  0  0  0  0  0  0
  187.3610  178.1730  144.9690 O   0  0  0  0  0  1  0  0  0  0  0  0
  190.1730  174.9820  145.1970 C   0  0  2  0  0  3  0  0  0  0  0  0
  192.4220  172.9230  141.6520 C   0  0  0  0  0  1  0  0  0  0  0  0
  189.6460  172.8210  141.5780 O   0  0  0  0  0  0  0  0  0  0  0  0
  187.9480  176.1180  146.0900 C   0  0  1  0  0  3  0  0  0  0  0  0
  189.2300  177.0090  143.9730 C   0  0  2  0  0  3  0  0  0  0  0  0
  189.8960  175.6520  143.8370 C   0  0  2  0  0  3  0  0  0  0  0  0
  190.2020  178.0360  144.5390 C   0  0  0  0  0  1  0  0  0  0  0  0
  190.1070  173.7100  142.2780 C   0  0  0  0  0  0  0  0  0  0  0  0
  189.7380  172.4470  145.0580 C   0  0  0  0  0  1  0  0  0  0  0  0
  197.1480  169.6600  146.2420 C   0  0  0  0  0  0  0  0  0  0  0  0
  197.0950  169.0150  147.4730 O   0  0  0  0  0  1  0  0  0  0  0  0
  197.9400  169.2360  145.3590 O   0  0  0  0  0  0  0  0  0  0  0  0
  1 14  1  1  0  0  0
  1  7  1  0  0  0  0
  2  9  1  0  0  0  0
  3 12  1  0  0  0  0
  5  4  1  0  0  0  0
  6  3  1  0  0  0  0
  6  8  1  0  0  0  0
  7  4  1  0  0  0  0
  8  5  1  0  0  0  0
 10 32  1  0  0  0  0
 10  9  1  0  0  0  0
 11 10  2  0  0  0  0
 12 14  1  0  0  0  0
 12  2  2  0  0  0  0
 13 11  1  0  0  0  0
 14 13  2  0  0  0  0
 15 31  1  6  0  0  0
 15 23  1  0  0  0  0
 16 28  1  0  0  0  0
 18 24  1  6  0  0  0
 18 19  1  0  0  0  0
 19  1  1  1  0  0  0
 19 15  1  0  0  0  0
 20 22  1  1  0  0  0
 20 26  1  0  0  0  0
 21 17  1  1  0  0  0
 23 21  1  0  0  0  0
 25 30  2  0  0  0  0
 26 21  1  0  0  0  0
 26 17  1  0  0  0  0
 27 29  1  0  0  0  0
 27 20  1  0  0  0  0
 28 27  1  0  0  0  0
 28 23  1  0  0  0  0
 30 18  1  0  0  0  0
 30 16  1  0  0  0  0
 32 33  1  0  0  0  0
 34 32  2  0  0  0  0
M  END
>  <MODEL>
2

>  <REMARK>
 VINA RESULT:      -8.4      2.336      7.939
  Name = 
  2 active torsions:
  status: ('A' for Active; 'I' for Inactive)
    1  A    between atoms: C_1  and  C_9
    2  A    between atoms: C_3  and  C_25
                            x       y       z     vdW  Elec       q    Type
                         _______ _______ _______ _____ _____    ______ ____

>  <TORSDO>
F 2

$$$$
=
 OpenBabel11052420373D

 34 38  0  0  1  0  0  0  0  0999 V2000
  189.2320  175.8230  143.3610 C   0  0  1  0  0  3  0  0  0  0  0  0
  186.2730  177.9860  144.1620 C   0  0  0  0  0  3  0  0  0  0  0  0
  187.7700  178.3510  142.3150 C   0  0  0  0  0  2  0  0  0  0  0  0
  187.3880  175.0350  142.4230 O   0  0  0  0  0  0  0  0  0  0  0  0
  187.5950  175.2750  141.0570 C   0  0  0  0  0  2  0  0  0  0  0  0
  188.4000  177.5020  141.3910 O   0  0  0  0  0  0  0  0  0  0  0  0
  188.5580  174.6570  142.9230 O   0  0  0  0  0  0  0  0  0  0  0  0
  187.3890  176.7570  140.7710 C   0  0  0  0  0  2  0  0  0  0  0  0
  185.7460  177.3910  145.4230 C   0  0  0  0  0  2  0  0  0  0  0  0
  186.6050  177.7670  146.5860 C   0  0  0  0  0  0  0  0  0  0  0  0
  187.8720  177.3490  146.6610 C   0  0  0  0  0  3  0  0  0  0  0  0
  187.4580  177.6760  143.6300 C   0  0  0  0  0  0  0  0  0  0  0  0
  188.5870  176.6090  145.6020 C   0  0  0  0  0  3  0  0  0  0  0  0
  188.4130  176.7140  144.2720 C   0  0  0  0  0  0  0  0  0  0  0  0
  190.9520  174.0200  143.9530 C   0  0  1  0  0  3  0  0  0  0  0  0
  193.3290  174.5170  142.1250 C   0  0  0  0  0  2  0  0  0  0  0  0
  190.7570  170.9000  141.8830 C   0  0  0  0  0  2  0  0  0  0  0  0
  191.6700  176.3560  142.9790 C   0  0  1  0  0  3  0  0  0  0  0  0
  190.6690  175.5350  143.8160 C   0  0  1  0  0  3  0  0  0  0  0  0
  192.8870  171.7280  140.7120 C   0  0  2  0  0  3  0  0  0  0  0  0
  191.4790  171.7490  142.9180 C   0  0  2  0  0  3  0  0  0  0  0  0
  193.0210  170.9080  139.5890 O   0  0  0  0  0  1  0  0  0  0  0  0
  191.1610  173.2310  142.6370 C   0  0  2  0  0  3  0  0  0  0  0  0
  191.6720  177.8120  143.4220 C   0  0  0  0  0  1  0  0  0  0  0  0
  193.9830  176.2740  143.5450 O   0  0  0  0  0  0  0  0  0  0  0  0
  192.2710  170.9420  141.8830 C   0  0  1  0  0  3  0  0  0  0  0  0
  192.2620  173.0750  140.3430 C   0  0  2  0  0  3  0  0  0  0  0  0
  192.0310  173.9310  141.5740 C   0  0  2  0  0  3  0  0  0  0  0  0
  190.9810  172.9340  139.5310 C   0  0  0  0  0  1  0  0  0  0  0  0
  193.0650  175.7690  142.9170 C   0  0  0  0  0  0  0  0  0  0  0  0
  192.0270  173.7620  145.0030 C   0  0  0  0  0  1  0  0  0  0  0  0
  186.0130  178.5290  147.6980 C   0  0  0  0  0  0  0  0  0  0  0  0
  186.8290  179.2650  148.5500 O   0  0  0  0  0  1  0  0  0  0  0  0
  184.7680  178.5210  147.8930 O   0  0  0  0  0  0  0  0  0  0  0  0
  1  7  1  1  0  0  0
  1 14  1  0  0  0  0
  2  9  1  0  0  0  0
  3 12  1  0  0  0  0
  4  7  1  0  0  0  0
  5  4  1  0  0  0  0
  6  3  1  0  0  0  0
  8  5  1  0  0  0  0
  8  6  1  0  0  0  0
  9 10  1  0  0  0  0
 10 11  2  0  0  0  0
 10 32  1  0  0  0  0
 12  2  2  0  0  0  0
 12 14  1  0  0  0  0
 13 11  1  0  0  0  0
 14 13  2  0  0  0  0
 15 31  1  1  0  0  0
 16 30  1  0  0  0  0
 18 24  1  1  0  0  0
 18 19  1  0  0  0  0
 19  1  1  6  0  0  0
 19 15  1  0  0  0  0
 20 22  1  6  0  0  0
 20 26  1  0  0  0  0
 21 17  1  6  0  0  0
 23 21  1  0  0  0  0
 23 15  1  0  0  0  0
 26 17  1  0  0  0  0
 26 21  1  0  0  0  0
 27 20  1  0  0  0  0
 27 28  1  0  0  0  0
 28 16  1  0  0  0  0
 28 23  1  0  0  0  0
 29 27  1  0  0  0  0
 30 18  1  0  0  0  0
 30 25  2  0  0  0  0
 32 34  2  0  0  0  0
 32 33  1  0  0  0  0
M  END
>  <MODEL>
3

>  <REMARK>
 VINA RESULT:      -8.1      2.490      4.779
  Name = 
  2 active torsions:
  status: ('A' for Active; 'I' for Inactive)
    1  A    between atoms: C_1  and  C_9
    2  A    between atoms: C_3  and  C_25
                            x       y       z     vdW  Elec       q    Type
                         _______ _______ _______ _____ _____    ______ ____

>  <TORSDO>
F 2

$$$$
=
 OpenBabel11052420373D

 34 38  0  0  1  0  0  0  0  0999 V2000
  189.6820  175.6000  144.0650 C   0  0  1  0  0  3  0  0  0  0  0  0
  186.2910  177.1950  143.8930 C   0  0  0  0  0  3  0  0  0  0  0  0
  188.0030  177.4430  142.2210 C   0  0  0  0  0  2  0  0  0  0  0  0
  188.2040  174.2380  143.1380 O   0  0  0  0  0  0  0  0  0  0  0  0
  188.6040  174.1970  141.7940 C   0  0  0  0  0  2  0  0  0  0  0  0
  188.9270  176.5620  141.6370 O   0  0  0  0  0  0  0  0  0  0  0  0
  189.3150  174.2470  143.8630 O   0  0  0  0  0  0  0  0  0  0  0  0
  188.1910  175.4940  141.1080 C   0  0  0  0  0  2  0  0  0  0  0  0
  185.6630  176.8040  145.1870 C   0  0  0  0  0  2  0  0  0  0  0  0
  186.2220  177.6140  146.3120 C   0  0  0  0  0  0  0  0  0  0  0  0
  187.5100  177.5090  146.6540 C   0  0  0  0  0  3  0  0  0  0  0  0
  187.5870  177.0360  143.6150 C   0  0  0  0  0  0  0  0  0  0  0  0
  188.5210  176.7190  145.9240 C   0  0  0  0  0  3  0  0  0  0  0  0
  188.5700  176.4760  144.6020 C   0  0  0  0  0  0  0  0  0  0  0  0
  191.6200  174.3800  145.2130 C   0  0  1  0  0  3  0  0  0  0  0  0
  194.1170  175.1630  143.6680 C   0  0  0  0  0  2  0  0  0  0  0  0
  192.4750  171.0340  143.7540 C   0  0  0  0  0  2  0  0  0  0  0  0
  191.9750  176.6480  143.9290 C   0  0  1  0  0  3  0  0  0  0  0  0
  191.0440  175.7420  144.7590 C   0  0  1  0  0  3  0  0  0  0  0  0
  194.5480  172.1710  142.7530 C   0  0  2  0  0  3  0  0  0  0  0  0
  192.8010  172.1780  144.7020 C   0  0  2  0  0  3  0  0  0  0  0  0
  195.0530  171.2510  141.8320 O   0  0  0  0  0  1  0  0  0  0  0  0
  192.2240  173.4780  144.1090 C   0  0  2  0  0  3  0  0  0  0  0  0
  191.5840  178.1100  144.0890 C   0  0  0  0  0  1  0  0  0  0  0  0
  194.1130  177.2170  144.8120 O   0  0  0  0  0  0  0  0  0  0  0  0
  193.9200  171.4430  143.9550 C   0  0  1  0  0  3  0  0  0  0  0  0
  193.7210  173.2550  142.0570 C   0  0  2  0  0  3  0  0  0  0  0  0
  193.0960  174.2030  143.0640 C   0  0  2  0  0  3  0  0  0  0  0  0
  192.6650  172.6860  141.1180 C   0  0  0  0  0  1  0  0  0  0  0  0
  193.4530  176.4160  144.1690 C   0  0  0  0  0  0  0  0  0  0  0  0
  192.5220  174.5510  146.4310 C   0  0  0  0  0  1  0  0  0  0  0  0
  185.3160  178.4630  147.1030 C   0  0  0  0  0  0  0  0  0  0  0  0
  185.8360  179.4180  147.9700 O   0  0  0  0  0  1  0  0  0  0  0  0
  184.0660  178.3350  147.0070 O   0  0  0  0  0  0  0  0  0  0  0  0
  1  7  1  1  0  0  0
  1 14  1  0  0  0  0
  2  9  1  0  0  0  0
  3 12  1  0  0  0  0
  4  7  1  0  0  0  0
  5  4  1  0  0  0  0
  6  3  1  0  0  0  0
  8  6  1  0  0  0  0
  8  5  1  0  0  0  0
  9 10  1  0  0  0  0
 10 11  2  0  0  0  0
 10 32  1  0  0  0  0
 12  2  2  0  0  0  0
 12 14  1  0  0  0  0
 13 11  1  0  0  0  0
 14 13  2  0  0  0  0
 15 31  1  1  0  0  0
 16 30  1  0  0  0  0
 17 26  1  0  0  0  0
 18 24  1  1  0  0  0
 18 30  1  0  0  0  0
 18 19  1  0  0  0  0
 19  1  1  6  0  0  0
 19 15  1  0  0  0  0
 20 22  1  6  0  0  0
 20 26  1  0  0  0  0
 21 17  1  6  0  0  0
 23 21  1  0  0  0  0
 23 15  1  0  0  0  0
 26 21  1  0  0  0  0
 27 20  1  0  0  0  0
 27 28  1  0  0  0  0
 28 16  1  0  0  0  0
 28 23  1  0  0  0  0
 29 27  1  0  0  0  0
 30 25  2  0  0  0  0
 32 33  1  0  0  0  0
 34 32  2  0  0  0  0
M  END
>  <MODEL>
4

>  <REMARK>
 VINA RESULT:      -8.0      2.163      4.231
  Name = 
  2 active torsions:
  status: ('A' for Active; 'I' for Inactive)
    1  A    between atoms: C_1  and  C_9
    2  A    between atoms: C_3  and  C_25
                            x       y       z     vdW  Elec       q    Type
                         _______ _______ _______ _____ _____    ______ ____

>  <TORSDO>
F 2

$$$$
=
 OpenBabel11052420373D

 34 38  0  0  1  0  0  0  0  0999 V2000
  191.4540  174.8560  143.7600 C   0  0  1  0  0  3  0  0  0  0  0  0
  193.5490  171.7620  144.1030 C   0  0  0  0  0  3  0  0  0  0  0  0
  191.1790  171.8580  144.5080 C   0  0  0  0  0  2  0  0  0  0  0  0
  191.6360  173.7960  141.8260 O   0  0  0  0  0  0  0  0  0  0  0  0
  190.3470  173.2840  141.6170 C   0  0  0  0  0  2  0  0  0  0  0  0
  190.1080  172.4960  143.8630 O   0  0  0  0  0  0  0  0  0  0  0  0
  191.4830  175.0040  142.3520 O   0  0  0  0  0  0  0  0  0  0  0  0
  190.1320  172.0800  142.5260 C   0  0  0  0  0  2  0  0  0  0  0  0
  194.9300  172.2530  143.8300 C   0  0  0  0  0  2  0  0  0  0  0  0
  195.4660  173.0040  145.0050 C   0  0  0  0  0  0  0  0  0  0  0  0
  194.9020  174.1500  145.3970 C   0  0  0  0  0  3  0  0  0  0  0  0
  192.5010  172.5630  144.3100 C   0  0  0  0  0  0  0  0  0  0  0  0
  193.6650  174.7250  144.8320 C   0  0  0  0  0  3  0  0  0  0  0  0
  192.6090  174.0600  144.3300 C   0  0  0  0  0  0  0  0  0  0  0  0
  190.5410  177.2380  143.5260 C   0  0  1  0  0  3  0  0  0  0  0  0
  188.2300  177.4310  145.4910 C   0  0  0  0  0  2  0  0  0  0  0  0
  187.7270  177.6250  141.0790 C   0  0  0  0  0  2  0  0  0  0  0  0
  190.3250  175.8830  145.7710 C   0  0  1  0  0  3  0  0  0  0  0  0
  191.1220  176.1690  144.4820 C   0  0  1  0  0  3  0  0  0  0  0  0
  186.1870  177.8560  143.1200 C   0  0  2  0  0  3  0  0  0  0  0  0
  188.6040  178.2060  142.1790 C   0  0  2  0  0  3  0  0  0  0  0  0
  184.8930  177.7480  142.6080 O   0  0  0  0  0  1  0  0  0  0  0  0
  189.0670  177.0510  143.0890 C   0  0  2  0  0  3  0  0  0  0  0  0
  191.2430  175.3520  146.8630 C   0  0  0  0  0  1  0  0  0  0  0  0
  189.7980  177.6980  147.2230 O   0  0  0  0  0  0  0  0  0  0  0  0
  187.1130  178.5530  142.1070 C   0  0  1  0  0  3  0  0  0  0  0  0
  186.6550  176.5320  143.7290 C   0  0  2  0  0  3  0  0  0  0  0  0
  188.0930  176.6220  144.2030 C   0  0  2  0  0  3  0  0  0  0  0  0
  186.4650  175.3470  142.7910 C   0  0  0  0  0  1  0  0  0  0  0  0
  189.4690  177.0390  146.2480 C   0  0  0  0  0  0  0  0  0  0  0  0
  190.8620  178.6430  144.0240 C   0  0  0  0  0  1  0  0  0  0  0  0
  196.6840  172.5160  145.6730 C   0  0  0  0  0  0  0  0  0  0  0  0
  197.2170  171.2780  145.3300 O   0  0  0  0  0  0  0  0  0  0  0  0
  197.2530  173.2060  146.5600 O   0  0  0  0  0  1  0  0  0  0  0  0
  1  7  1  6  0  0  0
  1 14  1  0  0  0  0
  2 12  2  0  0  0  0
  4  7  1  0  0  0  0
  5  4  1  0  0  0  0
  5  8  1  0  0  0  0
  6  3  1  0  0  0  0
  8  6  1  0  0  0  0
  9  2  1  0  0  0  0
  9 10  1  0  0  0  0
 10 11  2  0  0  0  0
 10 32  1  0  0  0  0
 12 14  1  0  0  0  0
 12  3  1  0  0  0  0
 13 11  1  0  0  0  0
 14 13  2  0  0  0  0
 15 31  1  1  0  0  0
 15 19  1  0  0  0  0
 16 30  1  0  0  0  0
 17 26  1  0  0  0  0
 18 30  1  0  0  0  0
 18 24  1  1  0  0  0
 19  1  1  6  0  0  0
 19 18  1  0  0  0  0
 20 22  1  6  0  0  0
 20 27  1  0  0  0  0
 21 17  1  6  0  0  0
 21 23  1  0  0  0  0
 23 15  1  0  0  0  0
 23 28  1  0  0  0  0
 26 21  1  0  0  0  0
 26 20  1  0  0  0  0
 27 28  1  0  0  0  0
 28 16  1  0  0  0  0
 29 27  1  0  0  0  0
 30 25  2  0  0  0  0
 32 34  1  0  0  0  0
 33 32  2  0  0  0  0
M  END
>  <MODEL>
5

>  <REMARK>
 VINA RESULT:      -7.8      1.842      7.925
  Name = 
  2 active torsions:
  status: ('A' for Active; 'I' for Inactive)
    1  A    between atoms: C_1  and  C_9
    2  A    between atoms: C_3  and  C_25
                            x       y       z     vdW  Elec       q    Type
                         _______ _______ _______ _____ _____    ______ ____

>  <TORSDO>
F 2

$$$$
=
 OpenBabel11052420373D

 34 38  0  0  1  0  0  0  0  0999 V2000
  190.0950  174.2730  142.5020 C   0  0  1  0  0  3  0  0  0  0  0  0
  190.8650  171.2320  140.4430 C   0  0  0  0  0  3  0  0  0  0  0  0
  192.2610  172.0720  142.2140 C   0  0  0  0  0  2  0  0  0  0  0  0
  189.1490  172.4660  143.3610 O   0  0  0  0  0  0  0  0  0  0  0  0
  189.8830  172.2470  144.5360 C   0  0  0  0  0  2  0  0  0  0  0  0
  192.0020  172.6040  143.4860 O   0  0  0  0  0  0  0  0  0  0  0  0
  188.9980  173.7790  143.2480 O   0  0  0  0  0  0  0  0  0  0  0  0
  191.2400  171.6540  144.1770 C   0  0  0  0  0  2  0  0  0  0  0  0
  189.7520  171.2010  139.4520 C   0  0  0  0  0  2  0  0  0  0  0  0
  189.9570  172.2330  138.3920 C   0  0  0  0  0  0  0  0  0  0  0  0
  189.9420  173.5350  138.6940 C   0  0  0  0  0  3  0  0  0  0  0  0
  191.1240  172.2730  141.2390 C   0  0  0  0  0  0  0  0  0  0  0  0
  189.8520  174.0880  140.0600 C   0  0  0  0  0  3  0  0  0  0  0  0
  190.3380  173.5500  141.1940 C   0  0  0  0  0  0  0  0  0  0  0  0
  188.7160  176.4270  142.6370 C   0  0  1  0  0  3  0  0  0  0  0  0
  189.9990  178.0910  144.8330 C   0  0  0  0  0  2  0  0  0  0  0  0
  185.9140  176.3650  145.1280 C   0  0  0  0  0  2  0  0  0  0  0  0
  191.2560  176.3610  143.3200 C   0  0  1  0  0  3  0  0  0  0  0  0
  190.1190  175.8060  142.4370 C   0  0  1  0  0  3  0  0  0  0  0  0
  187.3760  177.8960  146.5800 C   0  0  2  0  0  3  0  0  0  0  0  0
  186.7860  177.1350  144.1470 C   0  0  2  0  0  3  0  0  0  0  0  0
  186.7550  177.9040  147.8310 O   0  0  0  0  0  1  0  0  0  0  0  0
  188.1660  176.4500  144.0840 C   0  0  2  0  0  3  0  0  0  0  0  0
  192.6040  176.1710  142.6390 C   0  0  0  0  0  1  0  0  0  0  0  0
  191.6810  178.7050  143.3090 O   0  0  0  0  0  0  0  0  0  0  0  0
  186.3290  177.7840  145.4580 C   0  0  1  0  0  3  0  0  0  0  0  0
  188.5610  176.9280  146.5570 C   0  0  2  0  0  3  0  0  0  0  0  0
  189.1800  176.8480  145.1740 C   0  0  2  0  0  3  0  0  0  0  0  0
  188.2050  175.5400  147.0730 C   0  0  0  0  0  1  0  0  0  0  0  0
  191.0430  177.7830  143.7950 C   0  0  0  0  0  0  0  0  0  0  0  0
  188.6090  177.7670  141.9160 C   0  0  0  0  0  1  0  0  0  0  0  0
  190.0870  171.8040  136.9890 C   0  0  0  0  0  0  0  0  0  0  0  0
  190.5840  172.6840  136.0350 O   0  0  0  0  0  0  0  0  0  0  0  0
  189.7480  170.6420  136.6380 O   0  0  0  0  0  1  0  0  0  0  0  0
  1 14  1  6  0  0  0
  1  7  1  0  0  0  0
  2 12  2  0  0  0  0
  3  6  1  0  0  0  0
  4  5  1  0  0  0  0
  6  8  1  0  0  0  0
  7  4  1  0  0  0  0
  8  5  1  0  0  0  0
  9  2  1  0  0  0  0
 10 11  2  0  0  0  0
 10  9  1  0  0  0  0
 11 13  1  0  0  0  0
 12  3  1  0  0  0  0
 13 14  2  0  0  0  0
 14 12  1  0  0  0  0
 15 31  1  1  0  0  0
 15 23  1  0  0  0  0
 16 28  1  0  0  0  0
 17 26  1  0  0  0  0
 18 24  1  6  0  0  0
 18 30  1  0  0  0  0
 19  1  1  1  0  0  0
 19 15  1  0  0  0  0
 19 18  1  0  0  0  0
 20 22  1  1  0  0  0
 21 17  1  1  0  0  0
 21 26  1  0  0  0  0
 23 21  1  0  0  0  0
 23 28  1  0  0  0  0
 25 30  2  0  0  0  0
 26 20  1  0  0  0  0
 27 20  1  0  0  0  0
 27 29  1  0  0  0  0
 28 27  1  0  0  0  0
 30 16  1  0  0  0  0
 32 10  1  0  0  0  0
 33 32  2  0  0  0  0
 34 32  1  0  0  0  0
M  END
>  <MODEL>
6

>  <REMARK>
 VINA RESULT:      -7.5      2.892      7.364
  Name = 
  2 active torsions:
  status: ('A' for Active; 'I' for Inactive)
    1  A    between atoms: C_1  and  C_9
    2  A    between atoms: C_3  and  C_25
                            x       y       z     vdW  Elec       q    Type
                         _______ _______ _______ _____ _____    ______ ____

>  <TORSDO>
F 2

$$$$
=
 OpenBabel11052420373D

 34 38  0  0  1  0  0  0  0  0999 V2000
  190.8010  174.3740  143.7760 C   0  0  1  0  0  3  0  0  0  0  0  0
  187.4510  175.5200  142.5370 C   0  0  0  0  0  3  0  0  0  0  0  0
  189.1920  174.6270  141.1370 C   0  0  0  0  0  2  0  0  0  0  0  0
  189.3060  172.7460  143.8950 O   0  0  0  0  0  0  0  0  0  0  0  0
  189.7240  171.8530  142.8970 C   0  0  0  0  0  2  0  0  0  0  0  0
  190.1030  173.5690  141.2750 O   0  0  0  0  0  0  0  0  0  0  0  0
  190.4060  173.2070  144.4750 O   0  0  0  0  0  0  0  0  0  0  0  0
  189.3510  172.4160  141.5310 C   0  0  0  0  0  2  0  0  0  0  0  0
  186.7960  176.0520  143.7660 C   0  0  0  0  0  2  0  0  0  0  0  0
  187.3570  177.3890  144.1290 C   0  0  0  0  0  0  0  0  0  0  0  0
  188.6370  177.5150  144.4920 C   0  0  0  0  0  3  0  0  0  0  0  0
  188.7470  175.2090  142.4590 C   0  0  0  0  0  0  0  0  0  0  0  0
  189.6400  176.4330  144.4610 C   0  0  0  0  0  3  0  0  0  0  0  0
  189.7020  175.4000  143.6000 C   0  0  0  0  0  0  0  0  0  0  0  0
  192.8700  173.9440  145.2250 C   0  0  1  0  0  3  0  0  0  0  0  0
  195.2500  174.1550  143.3460 C   0  0  0  0  0  2  0  0  0  0  0  0
  194.0170  170.3760  145.3340 C   0  0  0  0  0  2  0  0  0  0  0  0
  192.9790  175.4290  143.0560 C   0  0  1  0  0  3  0  0  0  0  0  0
  192.1560  174.9140  144.2540 C   0  0  1  0  0  3  0  0  0  0  0  0
  195.9500  171.1110  143.8130 C   0  0  2  0  0  3  0  0  0  0  0  0
  194.2490  171.8440  145.6620 C   0  0  2  0  0  3  0  0  0  0  0  0
  196.5240  169.9210  143.3610 O   0  0  0  0  0  1  0  0  0  0  0  0
  193.5380  172.6970  144.5940 C   0  0  2  0  0  3  0  0  0  0  0  0
  192.4510  176.7750  142.5810 C   0  0  0  0  0  1  0  0  0  0  0  0
  195.0690  176.4970  143.4700 O   0  0  0  0  0  0  0  0  0  0  0  0
  195.4190  170.9440  145.2480 C   0  0  1  0  0  3  0  0  0  0  0  0
  195.0090  171.7070  142.7630 C   0  0  2  0  0  3  0  0  0  0  0  0
  194.3150  172.9500  143.2870 C   0  0  2  0  0  3  0  0  0  0  0  0
  193.9960  170.7000  142.2340 C   0  0  0  0  0  1  0  0  0  0  0  0
  194.4770  175.4440  143.2850 C   0  0  0  0  0  0  0  0  0  0  0  0
  193.7740  174.7070  146.1870 C   0  0  0  0  0  1  0  0  0  0  0  0
  186.4600  178.5550  144.1710 C   0  0  0  0  0  0  0  0  0  0  0  0
  186.0690  179.1760  142.9890 O   0  0  0  0  0  0  0  0  0  0  0  0
  186.0410  179.0060  145.2700 O   0  0  0  0  0  1  0  0  0  0  0  0
  1 14  1  1  0  0  0
  1  7  1  0  0  0  0
  2  9  1  0  0  0  0
  3  6  1  0  0  0  0
  3 12  1  0  0  0  0
  4  7  1  0  0  0  0
  5  4  1  0  0  0  0
  6  8  1  0  0  0  0
  8  5  1  0  0  0  0
  9 10  1  0  0  0  0
 10 32  1  0  0  0  0
 10 11  2  0  0  0  0
 12  2  2  0  0  0  0
 12 14  1  0  0  0  0
 13 11  1  0  0  0  0
 14 13  2  0  0  0  0
 15 31  1  6  0  0  0
 18 24  1  1  0  0  0
 18 30  1  0  0  0  0
 18 19  1  0  0  0  0
 19  1  1  6  0  0  0
 19 15  1  0  0  0  0
 20 22  1  6  0  0  0
 20 26  1  0  0  0  0
 21 17  1  6  0  0  0
 23 15  1  0  0  0  0
 23 21  1  0  0  0  0
 26 17  1  0  0  0  0
 26 21  1  0  0  0  0
 27 28  1  0  0  0  0
 27 20  1  0  0  0  0
 28 16  1  0  0  0  0
 28 23  1  0  0  0  0
 29 27  1  0  0  0  0
 30 16  1  0  0  0  0
 30 25  2  0  0  0  0
 32 34  1  0  0  0  0
 33 32  2  0  0  0  0
M  END
>  <MODEL>
7

>  <REMARK>
 VINA RESULT:      -7.2      2.114      4.125
  Name = 
  2 active torsions:
  status: ('A' for Active; 'I' for Inactive)
    1  A    between atoms: C_1  and  C_9
    2  A    between atoms: C_3  and  C_25
                            x       y       z     vdW  Elec       q    Type
                         _______ _______ _______ _____ _____    ______ ____

>  <TORSDO>
F 2

$$$$
=
 OpenBabel11052420373D

 34 38  0  0  1  0  0  0  0  0999 V2000
  191.1820  175.2610  143.9620 C   0  0  1  0  0  3  0  0  0  0  0  0
  188.7140  177.0360  146.1610 C   0  0  0  0  0  3  0  0  0  0  0  0
  190.2880  175.3870  146.9290 C   0  0  0  0  0  2  0  0  0  0  0  0
  192.0010  177.1830  144.6940 O   0  0  0  0  0  0  0  0  0  0  0  0
  192.9990  176.7830  145.5950 C   0  0  0  0  0  2  0  0  0  0  0  0
  191.6350  175.1180  146.6380 O   0  0  0  0  0  0  0  0  0  0  0  0
  192.0540  176.3390  143.6720 O   0  0  0  0  0  0  0  0  0  0  0  0
  192.3460  176.2990  146.8850 C   0  0  0  0  0  2  0  0  0  0  0  0
  187.9370  177.8690  145.2000 C   0  0  0  0  0  2  0  0  0  0  0  0
  186.9700  177.0280  144.4310 C   0  0  0  0  0  0  0  0  0  0  0  0
  187.4050  176.0800  143.5960 C   0  0  0  0  0  3  0  0  0  0  0  0
  189.5560  176.0660  145.7950 C   0  0  0  0  0  0  0  0  0  0  0  0
  188.8150  175.6770  143.4290 C   0  0  0  0  0  3  0  0  0  0  0  0
  189.7830  175.6800  144.3630 C   0  0  0  0  0  0  0  0  0  0  0  0
  192.1180  174.5370  141.6910 C   0  0  1  0  0  3  0  0  0  0  0  0
  193.7150  172.0060  142.2270 C   0  0  0  0  0  2  0  0  0  0  0  0
  195.5470  175.8320  140.9020 C   0  0  0  0  0  2  0  0  0  0  0  0
  191.6370  172.8030  143.6100 C   0  0  1  0  0  3  0  0  0  0  0  0
  191.2740  174.1350  142.9230 C   0  0  1  0  0  3  0  0  0  0  0  0
  196.3860  173.4490  141.3570 C   0  0  2  0  0  3  0  0  0  0  0  0
  194.3740  174.9240  140.5650 C   0  0  2  0  0  3  0  0  0  0  0  0
  197.7750  173.5650  141.4340 O   0  0  0  0  0  1  0  0  0  0  0  0
  193.6560  174.5540  141.8770 C   0  0  2  0  0  3  0  0  0  0  0  0
  190.4290  172.2260  144.3340 C   0  0  0  0  0  1  0  0  0  0  0  0
  191.6900  170.8120  142.3030 O   0  0  0  0  0  0  0  0  0  0  0  0
  195.8150  174.4520  140.3390 C   0  0  1  0  0  3  0  0  0  0  0  0
  195.7560  173.4030  142.7510 C   0  0  2  0  0  3  0  0  0  0  0  0
  194.2410  173.3690  142.6710 C   0  0  2  0  0  3  0  0  0  0  0  0
  196.2270  174.5360  143.6540 C   0  0  0  0  0  1  0  0  0  0  0  0
  192.3030  171.7910  142.7010 C   0  0  0  0  0  0  0  0  0  0  0  0
  191.6580  173.7820  140.4480 C   0  0  0  0  0  1  0  0  0  0  0  0
  185.5300  177.3150  144.5350 C   0  0  0  0  0  0  0  0  0  0  0  0
  184.7870  177.5730  143.3880 O   0  0  0  0  0  0  0  0  0  0  0  0
  184.9570  177.3360  145.6560 O   0  0  0  0  0  1  0  0  0  0  0  0
  1  7  1  6  0  0  0
  1 14  1  0  0  0  0
  4  5  1  0  0  0  0
  5  8  1  0  0  0  0
  6  8  1  0  0  0  0
  6  3  1  0  0  0  0
  7  4  1  0  0  0  0
  9  2  1  0  0  0  0
 10 32  1  0  0  0  0
 10  9  1  0  0  0  0
 11 10  2  0  0  0  0
 12  2  2  0  0  0  0
 12  3  1  0  0  0  0
 13 11  1  0  0  0  0
 13 14  2  0  0  0  0
 14 12  1  0  0  0  0
 15 31  1  6  0  0  0
 15 23  1  0  0  0  0
 15 19  1  0  0  0  0
 16 28  1  0  0  0  0
 16 30  1  0  0  0  0
 18 24  1  6  0  0  0
 19 18  1  0  0  0  0
 19  1  1  1  0  0  0
 20 22  1  1  0  0  0
 20 27  1  0  0  0  0
 21 17  1  1  0  0  0
 21 23  1  0  0  0  0
 23 28  1  0  0  0  0
 25 30  2  0  0  0  0
 26 21  1  0  0  0  0
 26 17  1  0  0  0  0
 26 20  1  0  0  0  0
 27 29  1  0  0  0  0
 28 27  1  0  0  0  0
 30 18  1  0  0  0  0
 32 34  1  0  0  0  0
 33 32  2  0  0  0  0
M  END
>  <MODEL>
8

>  <REMARK>
 VINA RESULT:      -7.2      1.215      1.491
  Name = 
  2 active torsions:
  status: ('A' for Active; 'I' for Inactive)
    1  A    between atoms: C_1  and  C_9
    2  A    between atoms: C_3  and  C_25
                            x       y       z     vdW  Elec       q    Type
                         _______ _______ _______ _____ _____    ______ ____

>  <TORSDO>
F 2

$$$$
=
 OpenBabel11052420373D

 34 38  0  0  1  0  0  0  0  0999 V2000
  190.7600  174.4340  142.7090 C   0  0  1  0  0  3  0  0  0  0  0  0
  187.0570  175.0410  142.7270 C   0  0  0  0  0  3  0  0  0  0  0  0
  188.1240  173.1390  141.7120 C   0  0  0  0  0  2  0  0  0  0  0  0
  189.8260  173.6230  144.5440 O   0  0  0  0  0  0  0  0  0  0  0  0
  189.9180  172.2350  144.3650 C   0  0  0  0  0  2  0  0  0  0  0  0
  189.1880  172.3040  142.0880 O   0  0  0  0  0  0  0  0  0  0  0  0
  190.9550  174.1410  144.0800 O   0  0  0  0  0  0  0  0  0  0  0  0
  188.8710  171.7890  143.3510 C   0  0  0  0  0  2  0  0  0  0  0  0
  186.9320  176.3700  143.3910 C   0  0  0  0  0  2  0  0  0  0  0  0
  187.3230  177.4680  142.4570 C   0  0  0  0  0  0  0  0  0  0  0  0
  188.5780  177.5670  142.0070 C   0  0  0  0  0  3  0  0  0  0  0  0
  188.2140  174.5260  142.3030 C   0  0  0  0  0  0  0  0  0  0  0  0
  189.6510  176.5850  142.2600 C   0  0  0  0  0  3  0  0  0  0  0  0
  189.5210  175.2550  142.4150 C   0  0  0  0  0  0  0  0  0  0  0  0
  193.0130  175.6210  142.9840 C   0  0  1  0  0  3  0  0  0  0  0  0
  195.1120  173.6300  142.0530 C   0  0  0  0  0  2  0  0  0  0  0  0
  194.7350  175.0170  146.2590 C   0  0  0  0  0  2  0  0  0  0  0  0
  192.6450  173.7440  141.1780 C   0  0  1  0  0  3  0  0  0  0  0  0
  192.0500  174.8940  142.0160 C   0  0  1  0  0  3  0  0  0  0  0  0
  196.3480  173.5030  144.9570 C   0  0  2  0  0  3  0  0  0  0  0  0
  194.7560  175.5770  144.8450 C   0  0  2  0  0  3  0  0  0  0  0  0
  197.0590  172.8070  145.9370 O   0  0  0  0  0  1  0  0  0  0  0  0
  193.8050  174.7330  143.9750 C   0  0  2  0  0  3  0  0  0  0  0  0
  191.8560  173.5530  139.8910 C   0  0  0  0  0  1  0  0  0  0  0  0
  194.5640  174.1750  139.8320 O   0  0  0  0  0  0  0  0  0  0  0  0
  196.0070  174.9230  145.4430 C   0  0  1  0  0  3  0  0  0  0  0  0
  195.2160  172.6490  144.3810 C   0  0  2  0  0  3  0  0  0  0  0  0
  194.3870  173.4340  143.3820 C   0  0  2  0  0  3  0  0  0  0  0  0
  194.3310  172.0320  145.4560 C   0  0  0  0  0  1  0  0  0  0  0  0
  194.1360  173.8550  140.9310 C   0  0  0  0  0  0  0  0  0  0  0  0
  193.8770  176.6290  142.2340 C   0  0  0  0  0  1  0  0  0  0  0  0
  186.3310  178.4980  142.1070 C   0  0  0  0  0  0  0  0  0  0  0  0
  185.7430  178.4980  140.8470 O   0  0  0  0  0  0  0  0  0  0  0  0
  186.0080  179.3890  142.9370 O   0  0  0  0  0  1  0  0  0  0  0  0
  1 14  1  1  0  0  0
  1  7  1  0  0  0  0
  2  9  1  0  0  0  0
  3  6  1  0  0  0  0
  3 12  1  0  0  0  0
  5  4  1  0  0  0  0
  6  8  1  0  0  0  0
  7  4  1  0  0  0  0
  8  5  1  0  0  0  0
 10  9  1  0  0  0  0
 11 13  1  0  0  0  0
 11 10  2  0  0  0  0
 12 14  1  0  0  0  0
 12  2  2  0  0  0  0
 13 14  2  0  0  0  0
 15 31  1  6  0  0  0
 15 23  1  0  0  0  0
 16 28  1  0  0  0  0
 18 24  1  6  0  0  0
 18 19  1  0  0  0  0
 19  1  1  1  0  0  0
 19 15  1  0  0  0  0
 20 26  1  0  0  0  0
 20 22  1  1  0  0  0
 21 26  1  0  0  0  0
 21 17  1  1  0  0  0
 23 21  1  0  0  0  0
 25 30  2  0  0  0  0
 26 17  1  0  0  0  0
 27 20  1  0  0  0  0
 27 29  1  0  0  0  0
 28 23  1  0  0  0  0
 28 27  1  0  0  0  0
 30 18  1  0  0  0  0
 30 16  1  0  0  0  0
 32 10  1  0  0  0  0
 32 34  1  0  0  0  0
 33 32  2  0  0  0  0
M  END
>  <MODEL>
9

>  <REMARK>
 VINA RESULT:      -7.1      2.237      3.429
  Name = 
  2 active torsions:
  status: ('A' for Active; 'I' for Inactive)
    1  A    between atoms: C_1  and  C_9
    2  A    between atoms: C_3  and  C_25
                            x       y       z     vdW  Elec       q    Type
                         _______ _______ _______ _____ _____    ______ ____

>  <TORSDO>
F 2

$$$$
