=
 OpenBabel11052417423D

 31 36  0  0  1  0  0  0  0  0999 V2000
  194.5810  177.1600  145.4020 S   0  0  0  0  0  0  0  0  0  0  0  0
  189.9360  176.5020  144.9470 C   0  0  2  0  0  3  0  0  0  0  0  0
  188.4300  176.4950  144.7330 C   0  0  2  0  0  3  0  0  0  0  0  0
  186.4350  178.0240  144.2090 C   0  0  0  0  0  2  0  0  0  0  0  0
  190.8050  176.7630  143.7300 C   0  0  0  0  0  2  0  0  0  0  0  0
  193.1530  176.3170  144.6600 C   0  0  1  0  0  0  0  0  0  0  0  0
  187.9360  177.9280  144.4970 C   0  0  0  0  0  2  0  0  0  0  0  0
  193.9830  176.0480  146.7150 C   0  0  0  0  0  2  0  0  0  0  0  0
  189.0020  174.4680  147.6190 O   0  0  0  0  0  0  0  0  0  0  0  0
  185.5530  177.1960  145.1480 C   0  0  0  0  0  2  0  0  0  0  0  0
  191.5170  175.6450  146.6180 C   0  0  0  0  0  2  0  0  0  0  0  0
  190.3000  175.2710  145.7630 C   0  0  1  0  0  0  0  0  0  0  0  0
  192.8610  175.4520  145.8950 C   0  0  1  0  0  3  0  0  0  0  0  0
  185.9030  177.3570  146.6330 C   0  0  0  0  0  2  0  0  0  0  0  0
  192.1180  177.3630  144.2190 C   0  0  0  0  0  2  0  0  0  0  0  0
  193.6100  175.4570  143.4930 C   0  0  0  0  0  1  0  0  0  0  0  0
  189.0580  175.1340  146.5950 C   0  0  0  0  0  0  0  0  0  0  0  0
  187.8720  175.8340  146.0160 C   0  0  1  0  0  3  0  0  0  0  0  0
  187.3000  176.8440  147.0200 C   0  0  0  0  0  2  0  0  0  0  0  0
  189.3840  173.5370  144.0560 C   0  0  2  0  0  3  0  0  0  0  0  0
  190.5890  174.0390  144.8440 C   0  0  2  0  0  3  0  0  0  0  0  0
  189.8730  172.7760  145.2810 C   0  0  0  0  0  2  0  0  0  0  0  0
  189.8420  172.8780  142.8370 N   0  0  0  0  0  0  0  0  0  0  0  0
  188.4120  173.3090  140.7930 C   0  0  1  0  0  3  0  0  0  0  0  0
  188.2390  174.4820  141.7580 C   0  0  0  0  0  2  0  0  0  0  0  0
  188.5820  173.9470  139.0960 S   0  0  0  0  0  1  0  0  0  0  0  0
  189.5560  173.7480  141.6930 C   0  0  1  0  0  0  0  0  0  0  0  0
  190.6160  174.4680  141.1260 O   0  0  0  0  0  1  0  0  0  0  0  0
  191.2930  172.7420  142.9310 C   0  0  0  0  0  2  0  0  0  0  0  0
  190.6370  170.5390  142.2880 O   0  0  0  0  0  1  0  0  0  0  0  0
  191.7310  171.4000  142.3710 C   0  0  0  0  0  2  0  0  0  0  0  0
  1  8  1  0  0  0  0
  2  5  1  6  0  0  0
  2 12  1  0  0  0  0
  3  7  1  1  0  0  0
  3  2  1  0  0  0  0
  3 18  1  0  0  0  0
  4  7  1  0  0  0  0
  4 10  1  0  0  0  0
  5 15  1  0  0  0  0
  6 16  1  6  0  0  0
  6  1  1  0  0  0  0
  6 13  1  0  0  0  0
 10 14  1  0  0  0  0
 12 17  1  0  0  0  0
 12 11  1  1  0  0  0
 13 11  1  1  0  0  0
 13  8  1  0  0  0  0
 14 19  1  0  0  0  0
 15  6  1  0  0  0  0
 17  9  2  0  0  0  0
 18 17  1  0  0  0  0
 18 19  1  1  0  0  0
 20 23  1  6  0  0  0
 20 21  1  0  0  0  0
 20 22  1  0  0  0  0
 21 22  1  1  0  0  0
 21 12  1  0  0  0  0
 23 29  1  0  0  0  0
 24 26  1  6  0  0  0
 24 27  1  0  0  0  0
 24 25  1  0  0  0  0
 27 28  1  6  0  0  0
 27 25  1  0  0  0  0
 27 23  1  0  0  0  0
 30 31  1  0  0  0  0
 31 29  1  0  0  0  0
M  END
>  <MODEL>
1

>  <REMARK>
 VINA RESULT:      -7.5      0.000      0.000
  Name = 
  5 active torsions:
  status: ('A' for Active; 'I' for Inactive)
    1  A    between atoms: C_3  and  C_7
    2  A    between atoms: C_3  and  N_22
    3  A    between atoms: C_9  and  N_22
    4  A    between atoms: C_15  and  C_21
    5  A    between atoms: C_19  and  N_22
                            x       y       z     vdW  Elec       q    Type
                         _______ _______ _______ _____ _____    ______ ____

>  <TORSDO>
F 5

$$$$
=
 OpenBabel11052417423D

 31 36  0  0  1  0  0  0  0  0999 V2000
  185.5120  179.1180  144.6390 S   0  0  0  0  0  0  0  0  0  0  0  0
  189.4210  176.5380  145.1680 C   0  0  2  0  0  3  0  0  0  0  0  0
  190.6690  175.7560  145.5500 C   0  0  2  0  0  3  0  0  0  0  0  0
  192.2950  175.3220  147.4890 C   0  0  0  0  0  2  0  0  0  0  0  0
  188.1140  176.1050  145.8080 C   0  0  0  0  0  2  0  0  0  0  0  0
  186.4110  177.5430  144.5390 C   0  0  1  0  0  0  0  0  0  0  0  0
  191.0790  176.1050  146.9860 C   0  0  0  0  0  2  0  0  0  0  0  0
  186.5770  179.3000  143.1720 C   0  0  0  0  0  2  0  0  0  0  0  0
  191.3460  177.1400  142.3260 O   0  0  0  0  0  0  0  0  0  0  0  0
  193.4600  175.2500  146.4970 C   0  0  0  0  0  2  0  0  0  0  0  0
  188.7140  178.0120  143.3370 C   0  0  0  0  0  2  0  0  0  0  0  0
  189.3980  176.6770  143.6540 C   0  0  1  0  0  0  0  0  0  0  0  0
  187.1810  177.9170  143.2620 C   0  0  1  0  0  3  0  0  0  0  0  0
  193.8210  176.5990  145.8620 C   0  0  0  0  0  2  0  0  0  0  0  0
  187.1920  177.3190  145.8420 C   0  0  0  0  0  2  0  0  0  0  0  0
  185.4370  176.4080  144.2700 C   0  0  0  0  0  1  0  0  0  0  0  0
  190.8720  176.7280  143.3750 C   0  0  0  0  0  0  0  0  0  0  0  0
  191.7080  176.1610  144.4750 C   0  0  1  0  0  3  0  0  0  0  0  0
  192.7200  177.2020  144.9740 C   0  0  0  0  0  2  0  0  0  0  0  0
  189.4810  174.7470  141.9140 C   0  0  2  0  0  3  0  0  0  0  0  0
  188.6650  175.4710  142.9790 C   0  0  2  0  0  3  0  0  0  0  0  0
  188.3580  175.6930  141.5110 C   0  0  0  0  0  2  0  0  0  0  0  0
  189.0300  173.3610  141.8170 N   0  0  0  0  0  0  0  0  0  0  0  0
  190.3110  173.4160  139.6340 C   0  0  1  0  0  3  0  0  0  0  0  0
  190.1970  171.9610  140.0900 C   0  0  0  0  0  2  0  0  0  0  0  0
  189.9900  173.5130  137.8450 S   0  0  0  0  0  1  0  0  0  0  0  0
  189.0960  172.9400  140.4150 C   0  0  1  0  0  0  0  0  0  0  0  0
  187.8930  172.7410  139.7250 O   0  0  0  0  0  1  0  0  0  0  0  0
  189.9770  172.5390  142.5660 C   0  0  0  0  0  2  0  0  0  0  0  0
  189.6450  172.4800  144.9280 O   0  0  0  0  0  1  0  0  0  0  0  0
  189.2760  171.8650  143.7330 C   0  0  0  0  0  2  0  0  0  0  0  0
  2  3  1  0  0  0  0
  2  5  1  6  0  0  0
  3  7  1  1  0  0  0
  5 15  1  0  0  0  0
  6 16  1  6  0  0  0
  6  1  1  0  0  0  0
  6 15  1  0  0  0  0
  7  4  1  0  0  0  0
  8  1  1  0  0  0  0
  9 17  2  0  0  0  0
 10  4  1  0  0  0  0
 12 11  1  6  0  0  0
 12  2  1  0  0  0  0
 13  8  1  1  0  0  0
 13 11  1  0  0  0  0
 13  6  1  0  0  0  0
 14 10  1  0  0  0  0
 17 12  1  0  0  0  0
 17 18  1  0  0  0  0
 18 19  1  1  0  0  0
 18  3  1  0  0  0  0
 19 14  1  0  0  0  0
 20 23  1  1  0  0  0
 20 21  1  0  0  0  0
 21 22  1  6  0  0  0
 21 12  1  0  0  0  0
 22 20  1  0  0  0  0
 23 29  1  0  0  0  0
 24 26  1  6  0  0  0
 24 25  1  0  0  0  0
 24 27  1  0  0  0  0
 25 27  1  0  0  0  0
 27 28  1  6  0  0  0
 27 23  1  0  0  0  0
 29 31  1  0  0  0  0
 31 30  1  0  0  0  0
M  END
>  <MODEL>
2

>  <REMARK>
 VINA RESULT:      -7.3      2.313      5.124
  Name = 
  5 active torsions:
  status: ('A' for Active; 'I' for Inactive)
    1  A    between atoms: C_3  and  C_7
    2  A    between atoms: C_3  and  N_22
    3  A    between atoms: C_9  and  N_22
    4  A    between atoms: C_15  and  C_21
    5  A    between atoms: C_19  and  N_22
                            x       y       z     vdW  Elec       q    Type
                         _______ _______ _______ _____ _____    ______ ____

>  <TORSDO>
F 5

$$$$
=
 OpenBabel11052417423D

 31 36  0  0  1  0  0  0  0  0999 V2000
  191.5430  170.4850  140.1020 S   0  0  0  0  0  0  0  0  0  0  0  0
  192.4640  174.3070  142.7020 C   0  0  2  0  0  3  0  0  0  0  0  0
  192.9670  175.5180  143.4740 C   0  0  2  0  0  3  0  0  0  0  0  0
  195.1080  176.7510  144.1720 C   0  0  0  0  0  2  0  0  0  0  0  0
  192.6100  174.3430  141.1910 C   0  0  0  0  0  2  0  0  0  0  0  0
  191.3130  172.2440  140.4910 C   0  0  1  0  0  0  0  0  0  0  0  0
  194.5010  175.5330  143.4690 C   0  0  0  0  0  2  0  0  0  0  0  0
  190.5010  170.4830  141.5960 C   0  0  0  0  0  2  0  0  0  0  0  0
  190.4680  174.0220  145.5440 O   0  0  0  0  0  0  0  0  0  0  0  0
  194.4750  177.0840  145.5260 C   0  0  0  0  0  2  0  0  0  0  0  0
  190.9180  172.4410  143.0940 C   0  0  0  0  0  2  0  0  0  0  0  0
  191.0780  173.9610  143.2220 C   0  0  1  0  0  0  0  0  0  0  0  0
  190.4160  171.9880  141.7120 C   0  0  1  0  0  3  0  0  0  0  0  0
  194.3010  175.8700  146.4470 C   0  0  0  0  0  2  0  0  0  0  0  0
  192.6850  172.9030  140.6990 C   0  0  0  0  0  2  0  0  0  0  0  0
  190.5310  172.9220  139.3790 C   0  0  0  0  0  1  0  0  0  0  0  0
  191.2230  174.3850  144.6540 C   0  0  0  0  0  0  0  0  0  0  0  0
  192.3380  175.3530  144.8800 C   0  0  1  0  0  3  0  0  0  0  0  0
  193.3220  174.8070  145.9240 C   0  0  0  0  0  2  0  0  0  0  0  0
  189.1220  175.6720  143.2950 C   0  0  2  0  0  3  0  0  0  0  0  0
  189.9640  174.7320  142.4390 C   0  0  2  0  0  3  0  0  0  0  0  0
  188.5570  174.3340  142.8390 C   0  0  0  0  0  2  0  0  0  0  0  0
  188.6000  176.7500  142.4590 N   0  0  0  0  0  0  0  0  0  0  0  0
  186.7620  178.4910  142.4440 C   0  0  1  0  0  3  0  0  0  0  0  0
  186.1540  177.1450  142.0460 C   0  0  0  0  0  2  0  0  0  0  0  0
  185.6450  179.3340  143.6090 S   0  0  0  0  0  1  0  0  0  0  0  0
  187.3150  177.1930  143.0090 C   0  0  1  0  0  0  0  0  0  0  0  0
  187.0090  176.8550  144.3340 O   0  0  0  0  0  1  0  0  0  0  0  0
  189.5290  177.8720  142.5610 C   0  0  0  0  0  2  0  0  0  0  0  0
  191.3250  178.6330  143.9350 O   0  0  0  0  0  1  0  0  0  0  0  0
  190.1140  177.9430  143.9600 C   0  0  0  0  0  2  0  0  0  0  0  0
  1  6  1  0  0  0  0
  1  8  1  0  0  0  0
  2  5  1  6  0  0  0
  2 12  1  0  0  0  0
  2  3  1  0  0  0  0
  3  7  1  1  0  0  0
  3 18  1  0  0  0  0
  4 10  1  0  0  0  0
  6 16  1  6  0  0  0
  6 15  1  0  0  0  0
  6 13  1  0  0  0  0
  7  4  1  0  0  0  0
 10 14  1  0  0  0  0
 12 11  1  6  0  0  0
 12 17  1  0  0  0  0
 13  8  1  1  0  0  0
 13 11  1  0  0  0  0
 15  5  1  0  0  0  0
 17 18  1  0  0  0  0
 17  9  2  0  0  0  0
 18 19  1  1  0  0  0
 19 14  1  0  0  0  0
 20 23  1  6  0  0  0
 21 22  1  1  0  0  0
 21 12  1  0  0  0  0
 21 20  1  0  0  0  0
 22 20  1  0  0  0  0
 23 29  1  0  0  0  0
 23 27  1  0  0  0  0
 24 27  1  0  0  0  0
 24 26  1  1  0  0  0
 25 24  1  0  0  0  0
 25 27  1  0  0  0  0
 27 28  1  1  0  0  0
 29 31  1  0  0  0  0
 30 31  1  0  0  0  0
M  END
>  <MODEL>
3

>  <REMARK>
 VINA RESULT:      -7.2      2.971      5.871
  Name = 
  5 active torsions:
  status: ('A' for Active; 'I' for Inactive)
    1  A    between atoms: C_3  and  C_7
    2  A    between atoms: C_3  and  N_22
    3  A    between atoms: C_9  and  N_22
    4  A    between atoms: C_15  and  C_21
    5  A    between atoms: C_19  and  N_22
                            x       y       z     vdW  Elec       q    Type
                         _______ _______ _______ _____ _____    ______ ____

>  <TORSDO>
F 5

$$$$
=
 OpenBabel11052417423D

 31 36  0  0  1  0  0  0  0  0999 V2000
  189.7290  177.3130  147.0590 S   0  0  0  0  0  0  0  0  0  0  0  0
  193.4370  175.1180  145.1500 C   0  0  2  0  0  3  0  0  0  0  0  0
  194.7300  174.4370  144.7270 C   0  0  2  0  0  3  0  0  0  0  0  0
  197.1400  173.9770  145.4840 C   0  0  0  0  0  2  0  0  0  0  0  0
  192.6680  174.4860  146.2950 C   0  0  0  0  0  2  0  0  0  0  0  0
  190.5020  175.8600  146.2910 C   0  0  1  0  0  0  0  0  0  0  0  0
  195.8110  174.6760  145.7880 C   0  0  0  0  0  2  0  0  0  0  0  0
  189.8720  177.7580  145.2990 C   0  0  0  0  0  2  0  0  0  0  0  0
  193.5880  176.2140  141.8450 O   0  0  0  0  0  0  0  0  0  0  0  0
  197.6240  174.1320  144.0390 C   0  0  0  0  0  2  0  0  0  0  0  0
  191.8310  176.6930  144.1670 C   0  0  0  0  0  2  0  0  0  0  0  0
  192.6290  175.4110  143.8960 C   0  0  1  0  0  0  0  0  0  0  0  0
  190.4850  176.4450  144.8700 C   0  0  1  0  0  3  0  0  0  0  0  0
  197.5540  175.5700  143.5110 C   0  0  0  0  0  2  0  0  0  0  0  0
  191.8530  175.5850  146.9680 C   0  0  0  0  0  2  0  0  0  0  0  0
  189.5720  174.6640  146.3940 C   0  0  0  0  0  1  0  0  0  0  0  0
  193.7410  175.6470  142.9170 C   0  0  0  0  0  0  0  0  0  0  0  0
  195.0470  175.0590  143.3450 C   0  0  1  0  0  3  0  0  0  0  0  0
  196.1320  176.1430  143.4030 C   0  0  0  0  0  2  0  0  0  0  0  0
  192.0860  173.4790  142.2440 C   0  0  2  0  0  3  0  0  0  0  0  0
  191.6960  174.2120  143.5220 C   0  0  2  0  0  3  0  0  0  0  0  0
  190.9010  174.4360  142.2510 C   0  0  0  0  0  2  0  0  0  0  0  0
  191.6170  172.0970  142.3150 N   0  0  0  0  0  0  0  0  0  0  0  0
  192.0940  172.0250  139.8300 C   0  0  1  0  0  3  0  0  0  0  0  0
  191.9810  170.5890  140.3410 C   0  0  0  0  0  2  0  0  0  0  0  0
  191.2080  172.1720  138.2470 S   0  0  0  0  0  1  0  0  0  0  0  0
  191.1650  171.6830  140.9840 C   0  0  1  0  0  0  0  0  0  0  0  0
  189.7870  171.6260  140.7390 O   0  0  0  0  0  1  0  0  0  0  0  0
  192.7630  171.2640  142.6670 C   0  0  0  0  0  2  0  0  0  0  0  0
  193.5480  171.1780  144.9190 O   0  0  0  0  0  1  0  0  0  0  0  0
  192.5760  170.6760  144.0550 C   0  0  0  0  0  2  0  0  0  0  0  0
  2  5  1  1  0  0  0
  3  2  1  0  0  0  0
  3  7  1  1  0  0  0
  4  7  1  0  0  0  0
  5 15  1  0  0  0  0
  6 16  1  1  0  0  0
  6 15  1  0  0  0  0
  6  1  1  0  0  0  0
  8  1  1  0  0  0  0
  9 17  2  0  0  0  0
 10  4  1  0  0  0  0
 12 11  1  1  0  0  0
 12  2  1  0  0  0  0
 13 11  1  1  0  0  0
 13  8  1  0  0  0  0
 13  6  1  0  0  0  0
 14 10  1  0  0  0  0
 17 18  1  0  0  0  0
 17 12  1  0  0  0  0
 18 19  1  1  0  0  0
 18  3  1  0  0  0  0
 19 14  1  0  0  0  0
 20 22  1  0  0  0  0
 20 23  1  1  0  0  0
 20 21  1  0  0  0  0
 21 22  1  6  0  0  0
 21 12  1  0  0  0  0
 23 29  1  0  0  0  0
 24 26  1  6  0  0  0
 24 25  1  0  0  0  0
 24 27  1  0  0  0  0
 25 27  1  0  0  0  0
 27 28  1  6  0  0  0
 27 23  1  0  0  0  0
 29 31  1  0  0  0  0
 31 30  1  0  0  0  0
M  END
>  <MODEL>
4

>  <REMARK>
 VINA RESULT:      -7.0      2.618      5.893
  Name = 
  5 active torsions:
  status: ('A' for Active; 'I' for Inactive)
    1  A    between atoms: C_3  and  C_7
    2  A    between atoms: C_3  and  N_22
    3  A    between atoms: C_9  and  N_22
    4  A    between atoms: C_15  and  C_21
    5  A    between atoms: C_19  and  N_22
                            x       y       z     vdW  Elec       q    Type
                         _______ _______ _______ _____ _____    ______ ____

>  <TORSDO>
F 5

$$$$
=
 OpenBabel11052417423D

 31 36  0  0  1  0  0  0  0  0999 V2000
  189.7360  171.8040  141.4010 S   0  0  0  0  0  0  0  0  0  0  0  0
  188.9040  175.5040  144.2000 C   0  0  2  0  0  3  0  0  0  0  0  0
  188.5090  176.5640  145.2170 C   0  0  2  0  0  3  0  0  0  0  0  0
  186.9230  177.0160  147.1840 C   0  0  0  0  0  2  0  0  0  0  0  0
  189.6450  174.2870  144.7230 C   0  0  0  0  0  2  0  0  0  0  0  0
  190.2970  173.0970  142.5470 C   0  0  1  0  0  0  0  0  0  0  0  0
  187.3560  176.0430  146.0840 C   0  0  0  0  0  2  0  0  0  0  0  0
  189.6950  173.3320  140.4100 C   0  0  0  0  0  2  0  0  0  0  0  0
  188.7400  178.2710  142.0870 O   0  0  0  0  0  0  0  0  0  0  0  0
  186.7640  178.4680  146.7230 C   0  0  0  0  0  2  0  0  0  0  0  0
  189.2180  175.3770  141.7680 C   0  0  0  0  0  2  0  0  0  0  0  0
  189.5470  176.2070  143.0150 C   0  0  1  0  0  0  0  0  0  0  0  0
  190.2100  174.2300  141.5120 C   0  0  1  0  0  3  0  0  0  0  0  0
  185.9680  178.6240  145.4210 C   0  0  0  0  0  2  0  0  0  0  0  0
  189.3670  173.1310  143.7690 C   0  0  0  0  0  2  0  0  0  0  0  0
  191.7390  172.8410  142.9490 C   0  0  0  0  0  1  0  0  0  0  0  0
  188.7870  177.5020  143.0360 C   0  0  0  0  0  0  0  0  0  0  0  0
  188.1490  177.7970  144.3530 C   0  0  1  0  0  3  0  0  0  0  0  0
  186.6360  177.9990  144.1860 C   0  0  0  0  0  2  0  0  0  0  0  0
  191.4890  177.1330  144.4750 C   0  0  2  0  0  3  0  0  0  0  0  0
  191.0900  176.3720  143.2150 C   0  0  2  0  0  3  0  0  0  0  0  0
  191.5640  177.8080  143.1120 C   0  0  0  0  0  2  0  0  0  0  0  0
  192.8200  176.7050  144.8980 N   0  0  0  0  0  0  0  0  0  0  0  0
  191.4760  176.5930  147.0400 C   0  0  1  0  0  3  0  0  0  0  0  0
  192.2730  175.2950  146.9030 C   0  0  0  0  0  2  0  0  0  0  0  0
  191.5670  177.1760  148.7620 S   0  0  0  0  0  1  0  0  0  0  0  0
  192.8340  176.5860  146.3580 C   0  0  1  0  0  0  0  0  0  0  0  0
  193.9360  177.1010  147.0550 O   0  0  0  0  0  1  0  0  0  0  0  0
  193.0460  175.3710  144.3480 C   0  0  0  0  0  2  0  0  0  0  0  0
  195.0160  176.4230  143.5060 O   0  0  0  0  0  1  0  0  0  0  0  0
  194.5050  175.2070  143.9580 C   0  0  0  0  0  2  0  0  0  0  0  0
  1  6  1  0  0  0  0
  2  5  1  1  0  0  0
  2  3  1  0  0  0  0
  3  7  1  6  0  0  0
  6 16  1  1  0  0  0
  6 15  1  0  0  0  0
  7  4  1  0  0  0  0
  8  1  1  0  0  0  0
  9 17  2  0  0  0  0
 10  4  1  0  0  0  0
 12 11  1  6  0  0  0
 12 17  1  0  0  0  0
 12 21  1  0  0  0  0
 12  2  1  0  0  0  0
 13  8  1  6  0  0  0
 13 11  1  0  0  0  0
 13  6  1  0  0  0  0
 14 10  1  0  0  0  0
 15  5  1  0  0  0  0
 17 18  1  0  0  0  0
 18 19  1  6  0  0  0
 18  3  1  0  0  0  0
 19 14  1  0  0  0  0
 20 23  1  6  0  0  0
 21 22  1  6  0  0  0
 21 20  1  0  0  0  0
 22 20  1  0  0  0  0
 23 27  1  0  0  0  0
 24 26  1  1  0  0  0
 25 24  1  0  0  0  0
 27 25  1  0  0  0  0
 27 24  1  0  0  0  0
 27 28  1  1  0  0  0
 29 23  1  0  0  0  0
 30 31  1  0  0  0  0
 31 29  1  0  0  0  0
M  END
>  <MODEL>
5

>  <REMARK>
 VINA RESULT:      -6.9      2.515      5.275
  Name = 
  5 active torsions:
  status: ('A' for Active; 'I' for Inactive)
    1  A    between atoms: C_3  and  C_7
    2  A    between atoms: C_3  and  N_22
    3  A    between atoms: C_9  and  N_22
    4  A    between atoms: C_15  and  C_21
    5  A    between atoms: C_19  and  N_22
                            x       y       z     vdW  Elec       q    Type
                         _______ _______ _______ _____ _____    ______ ____

>  <TORSDO>
F 5

$$$$
=
 OpenBabel11052417423D

 31 36  0  0  1  0  0  0  0  0999 V2000
  196.2620  175.0490  144.3090 S   0  0  0  0  0  0  0  0  0  0  0  0
  191.6360  175.7440  144.8920 C   0  0  2  0  0  3  0  0  0  0  0  0
  190.2000  176.1310  145.2110 C   0  0  2  0  0  3  0  0  0  0  0  0
  188.7800  177.6260  146.7410 C   0  0  0  0  0  2  0  0  0  0  0  0
  192.4980  176.7930  144.2120 C   0  0  0  0  0  2  0  0  0  0  0  0
  194.6140  175.4520  143.6600 C   0  0  1  0  0  0  0  0  0  0  0  0
  190.1810  177.1260  146.3790 C   0  0  0  0  0  2  0  0  0  0  0  0
  195.3880  173.4520  144.2790 C   0  0  0  0  0  2  0  0  0  0  0  0
  190.2000  172.5700  144.9320 O   0  0  0  0  0  0  0  0  0  0  0  0
  187.7150  176.5290  146.8250 C   0  0  0  0  0  2  0  0  0  0  0  0
  192.9200  173.6700  144.6210 C   0  0  0  0  0  2  0  0  0  0  0  0
  191.6170  174.3770  144.2280 C   0  0  1  0  0  0  0  0  0  0  0  0
  194.1050  174.0020  143.6980 C   0  0  1  0  0  3  0  0  0  0  0  0
  188.1510  175.2980  147.6300 C   0  0  0  0  0  2  0  0  0  0  0  0
  193.9510  176.4990  144.5680 C   0  0  0  0  0  2  0  0  0  0  0  0
  194.7290  175.9470  142.2280 C   0  0  0  0  0  1  0  0  0  0  0  0
  190.4280  173.7700  144.9130 C   0  0  0  0  0  0  0  0  0  0  0  0
  189.5070  174.7810  145.5150 C   0  0  1  0  0  3  0  0  0  0  0  0
  189.3240  174.5170  147.0160 C   0  0  0  0  0  2  0  0  0  0  0  0
  190.3370  173.6570  142.0820 C   0  0  2  0  0  3  0  0  0  0  0  0
  191.4640  174.4950  142.6750 C   0  0  2  0  0  3  0  0  0  0  0  0
  191.7870  173.2130  141.9340 C   0  0  0  0  0  2  0  0  0  0  0  0
  189.8720  174.2760  140.8440 N   0  0  0  0  0  0  0  0  0  0  0  0
  189.6230  171.8760  140.0780 C   0  0  1  0  0  3  0  0  0  0  0  0
  188.7150  172.7540  139.2160 C   0  0  0  0  0  2  0  0  0  0  0  0
  190.4750  170.6690  139.0150 S   0  0  0  0  0  1  0  0  0  0  0  0
  190.0120  173.3100  139.7510 C   0  0  1  0  0  0  0  0  0  0  0  0
  191.0100  173.5320  138.7930 O   0  0  0  0  0  1  0  0  0  0  0  0
  188.4480  174.5550  141.0030 C   0  0  0  0  0  2  0  0  0  0  0  0
  187.1960  176.5260  141.4960 O   0  0  0  0  0  1  0  0  0  0  0  0
  188.2460  175.7270  141.9470 C   0  0  0  0  0  2  0  0  0  0  0  0
  2  5  1  6  0  0  0
  2  3  1  0  0  0  0
  3 18  1  0  0  0  0
  3  7  1  1  0  0  0
  4 10  1  0  0  0  0
  5 15  1  0  0  0  0
  6 16  1  6  0  0  0
  6 13  1  0  0  0  0
  6  1  1  0  0  0  0
  6 15  1  0  0  0  0
  7  4  1  0  0  0  0
  8  1  1  0  0  0  0
 10 14  1  0  0  0  0
 12 11  1  1  0  0  0
 12  2  1  0  0  0  0
 12 17  1  0  0  0  0
 13  8  1  1  0  0  0
 13 11  1  0  0  0  0
 17  9  2  0  0  0  0
 17 18  1  0  0  0  0
 18 19  1  1  0  0  0
 19 14  1  0  0  0  0
 20 23  1  6  0  0  0
 20 21  1  0  0  0  0
 21 22  1  6  0  0  0
 21 12  1  0  0  0  0
 22 20  1  0  0  0  0
 23 29  1  0  0  0  0
 24 26  1  6  0  0  0
 25 27  1  0  0  0  0
 25 24  1  0  0  0  0
 27 28  1  6  0  0  0
 27 24  1  0  0  0  0
 27 23  1  0  0  0  0
 29 31  1  0  0  0  0
 30 31  1  0  0  0  0
M  END
>  <MODEL>
6

>  <REMARK>
 VINA RESULT:      -6.9      1.975      3.132
  Name = 
  5 active torsions:
  status: ('A' for Active; 'I' for Inactive)
    1  A    between atoms: C_3  and  C_7
    2  A    between atoms: C_3  and  N_22
    3  A    between atoms: C_9  and  N_22
    4  A    between atoms: C_15  and  C_21
    5  A    between atoms: C_19  and  N_22
                            x       y       z     vdW  Elec       q    Type
                         _______ _______ _______ _____ _____    ______ ____

>  <TORSDO>
F 5

$$$$
=
 OpenBabel11052417423D

 31 36  0  0  1  0  0  0  0  0999 V2000
  188.1910  172.3030  139.8740 S   0  0  0  0  0  0  0  0  0  0  0  0
  190.0210  174.1940  143.7850 C   0  0  2  0  0  3  0  0  0  0  0  0
  190.4450  174.7120  145.1510 C   0  0  2  0  0  3  0  0  0  0  0  0
  189.6680  174.9160  147.5900 C   0  0  0  0  0  2  0  0  0  0  0  0
  189.9620  172.6870  143.6070 C   0  0  0  0  0  2  0  0  0  0  0  0
  189.5330  172.4770  141.0870 C   0  0  1  0  0  0  0  0  0  0  0  0
  189.3160  174.4820  146.1640 C   0  0  0  0  0  2  0  0  0  0  0  0
  188.9400  173.9180  139.4890 C   0  0  0  0  0  2  0  0  0  0  0  0
  191.2680  177.3070  142.8380 O   0  0  0  0  0  0  0  0  0  0  0  0
  190.3400  176.2890  147.6890 C   0  0  0  0  0  2  0  0  0  0  0  0
  189.9150  175.0570  141.4900 C   0  0  0  0  0  2  0  0  0  0  0  0
  190.8120  174.9510  142.7300 C   0  0  1  0  0  0  0  0  0  0  0  0
  190.0070  173.8390  140.5560 C   0  0  1  0  0  3  0  0  0  0  0  0
  189.6420  177.3830  146.8710 C   0  0  0  0  0  2  0  0  0  0  0  0
  188.9500  172.3920  142.5050 C   0  0  0  0  0  2  0  0  0  0  0  0
  190.5850  171.4070  140.8500 C   0  0  0  0  0  1  0  0  0  0  0  0
  190.9650  176.2760  143.4190 C   0  0  0  0  0  0  0  0  0  0  0  0
  190.7800  176.2020  144.8990 C   0  0  1  0  0  3  0  0  0  0  0  0
  189.6670  177.1580  145.3510 C   0  0  0  0  0  2  0  0  0  0  0  0
  193.3810  174.8390  143.1140 C   0  0  2  0  0  3  0  0  0  0  0  0
  192.1680  174.2400  142.4100 C   0  0  2  0  0  3  0  0  0  0  0  0
  193.1390  175.1080  141.6350 C   0  0  0  0  0  2  0  0  0  0  0  0
  194.4030  173.8090  143.2780 N   0  0  0  0  0  0  0  0  0  0  0  0
  195.9000  175.7580  143.8860 C   0  0  1  0  0  3  0  0  0  0  0  0
  196.5280  174.4770  144.4370 C   0  0  0  0  0  2  0  0  0  0  0  0
  197.1990  176.7910  143.1380 S   0  0  0  0  0  1  0  0  0  0  0  0
  195.7240  174.4330  143.1610 C   0  0  1  0  0  0  0  0  0  0  0  0
  196.4640  174.2060  141.9930 O   0  0  0  0  0  1  0  0  0  0  0  0
  194.2840  173.2860  144.6360 C   0  0  0  0  0  2  0  0  0  0  0  0
  194.3550  171.1820  145.7600 O   0  0  0  0  0  1  0  0  0  0  0  0
  193.9120  171.8140  144.5990 C   0  0  0  0  0  2  0  0  0  0  0  0
  1  6  1  0  0  0  0
  2  5  1  1  0  0  0
  2  3  1  0  0  0  0
  3  7  1  1  0  0  0
  4 10  1  0  0  0  0
  6 16  1  6  0  0  0
  6 15  1  0  0  0  0
  7  4  1  0  0  0  0
  8  1  1  0  0  0  0
  9 17  2  0  0  0  0
 12 11  1  6  0  0  0
 12 17  1  0  0  0  0
 12  2  1  0  0  0  0
 13  8  1  6  0  0  0
 13  6  1  0  0  0  0
 13 11  1  0  0  0  0
 14 10  1  0  0  0  0
 15  5  1  0  0  0  0
 17 18  1  0  0  0  0
 18  3  1  0  0  0  0
 18 19  1  6  0  0  0
 19 14  1  0  0  0  0
 20 23  1  6  0  0  0
 21 22  1  6  0  0  0
 21 12  1  0  0  0  0
 21 20  1  0  0  0  0
 22 20  1  0  0  0  0
 23 29  1  0  0  0  0
 24 26  1  6  0  0  0
 24 25  1  0  0  0  0
 27 28  1  6  0  0  0
 27 23  1  0  0  0  0
 27 24  1  0  0  0  0
 27 25  1  0  0  0  0
 31 29  1  0  0  0  0
 31 30  1  0  0  0  0
M  END
>  <MODEL>
7

>  <REMARK>
 VINA RESULT:      -6.9      2.660      5.702
  Name = 
  5 active torsions:
  status: ('A' for Active; 'I' for Inactive)
    1  A    between atoms: C_3  and  C_7
    2  A    between atoms: C_3  and  N_22
    3  A    between atoms: C_9  and  N_22
    4  A    between atoms: C_15  and  C_21
    5  A    between atoms: C_19  and  N_22
                            x       y       z     vdW  Elec       q    Type
                         _______ _______ _______ _____ _____    ______ ____

>  <TORSDO>
F 5

$$$$
=
 OpenBabel11052417423D

 31 36  0  0  1  0  0  0  0  0999 V2000
  187.6830  176.4360  146.6860 S   0  0  0  0  0  0  0  0  0  0  0  0
  189.9610  174.4870  143.0490 C   0  0  2  0  0  3  0  0  0  0  0  0
  190.5260  173.9200  141.7550 C   0  0  2  0  0  3  0  0  0  0  0  0
  189.9270  173.4230  139.3090 C   0  0  0  0  0  2  0  0  0  0  0  0
  189.7060  175.9830  143.0920 C   0  0  0  0  0  2  0  0  0  0  0  0
  189.1050  176.3380  145.5600 C   0  0  1  0  0  0  0  0  0  0  0  0
  189.4400  173.9210  140.6720 C   0  0  0  0  0  2  0  0  0  0  0  0
  188.6000  174.9660  147.2470 C   0  0  0  0  0  2  0  0  0  0  0  0
  191.5230  171.6450  144.3230 O   0  0  0  0  0  0  0  0  0  0  0  0
  190.7660  172.1430  139.3620 C   0  0  0  0  0  2  0  0  0  0  0  0
  189.8260  173.8040  145.4030 C   0  0  0  0  0  2  0  0  0  0  0  0
  190.7750  173.9240  144.2030 C   0  0  1  0  0  0  0  0  0  0  0  0
  189.7120  175.0960  146.2300 C   0  0  1  0  0  3  0  0  0  0  0  0
  190.1620  171.0380  140.2370 C   0  0  0  0  0  2  0  0  0  0  0  0
  188.6020  176.2340  144.1130 C   0  0  0  0  0  2  0  0  0  0  0  0
  190.0020  177.5490  145.7540 C   0  0  0  0  0  1  0  0  0  0  0  0
  191.1300  172.5790  143.6410 C   0  0  0  0  0  0  0  0  0  0  0  0
  191.0260  172.5090  142.1520 C   0  0  1  0  0  3  0  0  0  0  0  0
  190.0680  171.3860  141.7310 C   0  0  0  0  0  2  0  0  0  0  0  0
  193.3570  174.2180  144.1470 C   0  0  2  0  0  3  0  0  0  0  0  0
  192.0120  174.8260  144.5260 C   0  0  2  0  0  3  0  0  0  0  0  0
  192.9130  174.2560  145.6030 C   0  0  0  0  0  2  0  0  0  0  0  0
  194.3170  175.2880  143.8850 N   0  0  0  0  0  0  0  0  0  0  0  0
  196.3130  173.9110  144.6100 C   0  0  1  0  0  3  0  0  0  0  0  0
  196.8100  175.2920  144.1790 C   0  0  0  0  0  2  0  0  0  0  0  0
  197.1700  173.4140  146.1370 S   0  0  0  0  0  1  0  0  0  0  0  0
  195.4460  175.1440  144.8070 C   0  0  1  0  0  0  0  0  0  0  0  0
  195.3200  175.6750  146.0980 O   0  0  0  0  0  1  0  0  0  0  0  0
  194.8290  175.0950  142.5310 C   0  0  0  0  0  2  0  0  0  0  0  0
  195.5620  176.7900  141.0210 O   0  0  0  0  0  1  0  0  0  0  0  0
  194.4340  176.2670  141.6510 C   0  0  0  0  0  2  0  0  0  0  0  0
  1  8  1  0  0  0  0
  2  5  1  6  0  0  0
  2 12  1  0  0  0  0
  3  7  1  6  0  0  0
  3 18  1  0  0  0  0
  3  2  1  0  0  0  0
  4 10  1  0  0  0  0
  4  7  1  0  0  0  0
  5 15  1  0  0  0  0
  6 16  1  1  0  0  0
  6 13  1  0  0  0  0
  6  1  1  0  0  0  0
 10 14  1  0  0  0  0
 12 21  1  0  0  0  0
 12 11  1  1  0  0  0
 13 11  1  6  0  0  0
 13  8  1  0  0  0  0
 14 19  1  0  0  0  0
 15  6  1  0  0  0  0
 17 12  1  0  0  0  0
 17  9  2  0  0  0  0
 18 19  1  1  0  0  0
 18 17  1  0  0  0  0
 20 23  1  1  0  0  0
 20 21  1  0  0  0  0
 20 22  1  0  0  0  0
 21 22  1  1  0  0  0
 23 27  1  0  0  0  0
 24 27  1  0  0  0  0
 24 26  1  1  0  0  0
 25 24  1  0  0  0  0
 25 27  1  0  0  0  0
 27 28  1  1  0  0  0
 29 23  1  0  0  0  0
 30 31  1  0  0  0  0
 31 29  1  0  0  0  0
M  END
>  <MODEL>
8

>  <REMARK>
 VINA RESULT:      -6.8      2.872      6.104
  Name = 
  5 active torsions:
  status: ('A' for Active; 'I' for Inactive)
    1  A    between atoms: C_3  and  C_7
    2  A    between atoms: C_3  and  N_22
    3  A    between atoms: C_9  and  N_22
    4  A    between atoms: C_15  and  C_21
    5  A    between atoms: C_19  and  N_22
                            x       y       z     vdW  Elec       q    Type
                         _______ _______ _______ _____ _____    ______ ____

>  <TORSDO>
F 5

$$$$
=
 OpenBabel11052417423D

 31 36  0  0  1  0  0  0  0  0999 V2000
  194.7300  177.4920  145.6420 S   0  0  0  0  0  0  0  0  0  0  0  0
  190.1420  176.7520  144.8570 C   0  0  2  0  0  3  0  0  0  0  0  0
  188.6420  176.7290  144.6060 C   0  0  2  0  0  3  0  0  0  0  0  0
  186.5590  178.2280  144.5380 C   0  0  0  0  0  2  0  0  0  0  0  0
  191.0060  177.4400  143.8160 C   0  0  0  0  0  2  0  0  0  0  0  0
  193.3670  176.8540  144.6260 C   0  0  1  0  0  0  0  0  0  0  0  0
  188.0600  178.1310  144.8260 C   0  0  0  0  0  2  0  0  0  0  0  0
  194.1900  175.9850  146.5110 C   0  0  0  0  0  2  0  0  0  0  0  0
  189.3110  173.9170  146.7060 O   0  0  0  0  0  0  0  0  0  0  0  0
  185.7220  177.0930  145.1350 C   0  0  0  0  0  2  0  0  0  0  0  0
  191.7560  175.4940  146.2140 C   0  0  0  0  0  2  0  0  0  0  0  0
  190.5750  175.3470  145.2470 C   0  0  1  0  0  0  0  0  0  0  0  0
  193.1170  175.6210  145.5090 C   0  0  1  0  0  3  0  0  0  0  0  0
  186.0440  176.7870  146.6030 C   0  0  0  0  0  2  0  0  0  0  0  0
  192.2720  177.9240  144.5120 C   0  0  0  0  0  2  0  0  0  0  0  0
  193.8900  176.4420  143.2600 C   0  0  0  0  0  1  0  0  0  0  0  0
  189.3350  174.8790  145.9530 C   0  0  0  0  0  0  0  0  0  0  0  0
  188.1130  175.6580  145.5920 C   0  0  1  0  0  3  0  0  0  0  0  0
  187.4670  176.2580  146.8480 C   0  0  0  0  0  2  0  0  0  0  0  0
  189.8750  173.5120  143.5430 C   0  0  2  0  0  3  0  0  0  0  0  0
  190.9520  174.4940  143.9910 C   0  0  2  0  0  3  0  0  0  0  0  0
  191.1080  173.0160  144.2870 C   0  0  0  0  0  2  0  0  0  0  0  0
  190.0150  173.2590  142.1110 N   0  0  0  0  0  0  0  0  0  0  0  0
  190.9130  171.5240  140.5010 C   0  0  1  0  0  3  0  0  0  0  0  0
  191.9720  171.7810  141.5740 C   0  0  0  0  0  2  0  0  0  0  0  0
  190.7950  169.7350  140.1890 S   0  0  0  0  0  1  0  0  0  0  0  0
  190.5080  171.8930  141.9200 C   0  0  1  0  0  0  0  0  0  0  0  0
  190.0110  170.8850  142.7570 O   0  0  0  0  0  1  0  0  0  0  0  0
  188.6810  173.3300  141.5220 C   0  0  0  0  0  2  0  0  0  0  0  0
  187.8350  175.5450  141.2510 O   0  0  0  0  0  1  0  0  0  0  0  0
  188.5720  174.5450  140.6180 C   0  0  0  0  0  2  0  0  0  0  0  0
  1  8  1  0  0  0  0
  2  5  1  6  0  0  0
  2 12  1  0  0  0  0
  3  7  1  1  0  0  0
  3  2  1  0  0  0  0
  3 18  1  0  0  0  0
  4  7  1  0  0  0  0
  4 10  1  0  0  0  0
  5 15  1  0  0  0  0
  6 16  1  6  0  0  0
  6 13  1  0  0  0  0
  6  1  1  0  0  0  0
 10 14  1  0  0  0  0
 12 17  1  0  0  0  0
 12 11  1  1  0  0  0
 13 11  1  1  0  0  0
 13  8  1  0  0  0  0
 14 19  1  0  0  0  0
 15  6  1  0  0  0  0
 17  9  2  0  0  0  0
 18 17  1  0  0  0  0
 18 19  1  1  0  0  0
 20 23  1  6  0  0  0
 20 21  1  0  0  0  0
 20 22  1  0  0  0  0
 21 22  1  1  0  0  0
 21 12  1  0  0  0  0
 24 26  1  1  0  0  0
 24 25  1  0  0  0  0
 24 27  1  0  0  0  0
 25 27  1  0  0  0  0
 27 23  1  0  0  0  0
 27 28  1  1  0  0  0
 29 23  1  0  0  0  0
 31 30  1  0  0  0  0
 31 29  1  0  0  0  0
M  END
>  <MODEL>
9

>  <REMARK>
 VINA RESULT:      -6.8      1.310      2.219
  Name = 
  5 active torsions:
  status: ('A' for Active; 'I' for Inactive)
    1  A    between atoms: C_3  and  C_7
    2  A    between atoms: C_3  and  N_22
    3  A    between atoms: C_9  and  N_22
    4  A    between atoms: C_15  and  C_21
    5  A    between atoms: C_19  and  N_22
                            x       y       z     vdW  Elec       q    Type
                         _______ _______ _______ _____ _____    ______ ____

>  <TORSDO>
F 5

$$$$
