=
 OpenBabel11052421013D

 43 49  0  0  1  0  0  0  0  0999 V2000
  195.3040  174.5880  145.8020 C   0  0  0  0  0  0  0  0  0  0  0  0
  190.7430  174.0170  143.6120 C   0  0  0  0  0  0  0  0  0  0  0  0
  189.7770  176.6270  143.1270 C   0  0  0  0  0  0  0  0  0  0  0  0
  193.2590  173.6610  144.8230 C   0  0  0  0  0  0  0  0  0  0  0  0
  194.9150  175.8460  145.5950 C   0  0  0  0  0  3  0  0  0  0  0  0
  196.5290  174.3360  146.4030 O   0  0  0  0  0  1  0  0  0  0  0  0
  192.7790  174.9670  144.5750 C   0  0  0  0  0  0  0  0  0  0  0  0
  194.4460  173.4620  145.4000 C   0  0  0  0  0  3  0  0  0  0  0  0
  193.5970  176.1830  144.9490 C   0  0  0  0  0  3  0  0  0  0  0  0
  191.0310  176.4300  143.7240 O   0  0  0  0  0  0  0  0  0  0  0  0
  191.5220  175.1400  143.9730 C   0  0  0  0  0  0  0  0  0  0  0  0
  191.2400  172.7300  143.8630 C   0  0  0  0  0  2  0  0  0  0  0  0
  189.5340  174.2060  143.0360 C   0  0  0  0  0  0  0  0  0  0  0  0
  189.0350  175.5740  142.7860 C   0  0  0  0  0  3  0  0  0  0  0  0
  192.4870  172.5550  144.4640 C   0  0  0  0  0  3  0  0  0  0  0  0
  188.6690  173.0560  142.6100 C   0  0  0  0  0  2  0  0  0  0  0  0
  187.9840  173.3490  141.2800 C   0  0  0  0  0  2  0  0  0  0  0  0
  189.7470  172.0870  140.0680 C   0  0  0  0  0  2  0  0  0  0  0  0
  190.1090  171.9270  138.6090 C   0  0  2  0  0  3  0  0  0  0  0  0
  188.2820  173.5300  138.8020 C   0  0  0  0  0  2  0  0  0  0  0  0
  188.9870  173.3900  140.1380 C   0  0  1  0  0  3  0  0  0  0  0  0
  189.0030  172.6120  137.8290 C   0  0  0  0  0  2  0  0  0  0  0  0
  190.4290  170.5540  136.9050 C   0  0  0  0  0  1  0  0  0  0  0  0
  190.1640  170.5740  138.2760 O   0  0  0  0  0  0  0  0  0  0  0  0
  189.2990  177.9120  142.8840 O   0  0  0  0  0  0  0  0  0  0  0  0
  188.4490  178.1870  141.7820 C   0  0  0  0  0  2  0  0  0  0  0  0
  186.9880  178.0430  142.1990 C   0  0  2  0  0  3  0  0  0  0  0  0
  186.2140  177.4370  139.9030 C   0  0  0  0  0  1  0  0  0  0  0  0
  186.0140  178.3840  141.0720 C   0  0  0  0  0  2  0  0  0  0  0  0
  186.6860  178.6860  143.4270 O   0  0  0  0  0  0  0  0  0  0  0  0
  185.7460  177.9390  144.1780 C   0  0  2  0  0  0  0  0  0  0  0  0
  185.4190  177.7190  146.6080 C   0  0  0  0  0  2  0  0  0  0  0  0
  184.4310  178.5950  144.5770 C   0  0  0  0  0  2  0  0  0  0  0  0
  186.3640  177.4200  145.4640 C   0  0  1  0  0  0  0  0  0  0  0  0
  185.9700  176.4400  144.3830 C   0  0  0  0  0  2  0  0  0  0  0  0
  184.4590  178.7640  146.0830 C   0  0  0  0  0  2  0  0  0  0  0  0
  187.7500  177.7160  145.6060 O   0  0  0  0  0  0  0  0  0  0  0  0
  188.5870  177.0190  146.4810 C   0  0  0  0  0  0  0  0  0  0  0  0
  189.3610  174.6990  147.0450 C   0  0  0  0  0  2  0  0  0  0  0  0
  190.6580  176.8070  147.7620 C   0  0  0  0  0  2  0  0  0  0  0  0
  190.7310  175.3250  147.3810 C   0  0  0  0  0  2  0  0  0  0  0  0
  189.7660  177.5420  146.8090 C   0  0  0  0  0  3  0  0  0  0  0  0
  188.1880  175.6900  147.0690 C   0  0  0  0  0  2  0  0  0  0  0  0
  1  6  1  0  0  0  0
  2 12  1  0  0  0  0
  2 11  1  0  0  0  0
  3 10  1  0  0  0  0
  4  8  1  0  0  0  0
  5  1  1  0  0  0  0
  7  4  1  0  0  0  0
  7  9  1  0  0  0  0
  8  1  2  0  0  0  0
  9  5  2  0  0  0  0
 10 11  1  0  0  0  0
 11  7  2  0  0  0  0
 12 15  1  0  0  0  0
 13  2  2  0  0  0  0
 14 13  1  0  0  0  0
 14  3  2  0  0  0  0
 15  4  2  0  0  0  0
 16 13  1  0  0  0  0
 17 16  1  0  0  0  0
 18 21  1  0  0  0  0
 19 24  1  6  0  0  0
 19 18  1  0  0  0  0
 20 21  1  0  0  0  0
 21 17  1  1  0  0  0
 22 19  1  0  0  0  0
 22 20  1  0  0  0  0
 23 24  1  0  0  0  0
 25  3  1  0  0  0  0
 26 27  1  0  0  0  0
 26 25  1  0  0  0  0
 27 29  1  6  0  0  0
 27 30  1  0  0  0  0
 28 29  1  0  0  0  0
 31 30  1  6  0  0  0
 31 35  1  0  0  0  0
 31 33  1  0  0  0  0
 31 34  1  0  0  0  0
 33 36  1  0  0  0  0
 34 37  1  1  0  0  0
 34 32  1  0  0  0  0
 35 34  1  0  0  0  0
 36 32  1  0  0  0  0
 37 38  1  0  0  0  0
 38 42  2  0  0  0  0
 38 43  1  0  0  0  0
 39 43  1  0  0  0  0
 39 41  1  0  0  0  0
 41 40  1  0  0  0  0
 42 40  1  0  0  0  0
M  END
>  <MODEL>
1

>  <REMARK>
 VINA RESULT:      -8.0      0.000      0.000
  Name = 
  12 active torsions:
  status: ('A' for Active; 'I' for Inactive)
    1  A    between atoms: C_1  and  C_34
    2  A    between atoms: C_1  and  C_35
    3  A    between atoms: C_2  and  O_6
    4  A    between atoms: C_2  and  C_12
    5  A    between atoms: O_3  and  C_4
    6  A    between atoms: O_3  and  C_12
    7  A    between atoms: O_6  and  C_13
    8  A    between atoms: C_11  and  O_14
    9  A    between atoms: C_12  and  C_17
   10  A    between atoms: O_14  and  C_22
   11  A    between atoms: C_19  and  O_37
   12  A    between atoms: C_32  and  C_35
                            x       y       z     vdW  Elec       q    Type
                         _______ _______ _______ _____ _____    ______ ____

>  <TORSDO>
F 12

$$$$
=
 OpenBabel11052421013D

 43 49  0  0  1  0  0  0  0  0999 V2000
  191.2870  177.5420  148.5270 C   0  0  0  0  0  0  0  0  0  0  0  0
  188.7900  176.0440  144.3510 C   0  0  0  0  0  0  0  0  0  0  0  0
  190.6460  174.5640  142.8190 C   0  0  0  0  0  0  0  0  0  0  0  0
  189.5800  177.1540  146.8140 C   0  0  0  0  0  0  0  0  0  0  0  0
  192.2110  176.8480  147.8620 C   0  0  0  0  0  3  0  0  0  0  0  0
  191.6080  178.1250  149.7450 O   0  0  0  0  0  1  0  0  0  0  0  0
  190.5080  176.4080  146.0510 C   0  0  0  0  0  0  0  0  0  0  0  0
  189.9290  177.6950  147.9830 C   0  0  0  0  0  3  0  0  0  0  0  0
  191.9240  176.1930  146.5370 C   0  0  0  0  0  2  0  0  0  0  0  0
  191.0200  175.1200  144.0520 O   0  0  0  0  0  0  0  0  0  0  0  0
  190.1090  175.8580  144.8220 C   0  0  0  0  0  0  0  0  0  0  0  0
  187.8840  176.7830  145.1250 C   0  0  0  0  0  3  0  0  0  0  0  0
  188.4280  175.5090  143.1630 C   0  0  0  0  0  0  0  0  0  0  0  0
  189.4040  174.7360  142.3670 C   0  0  0  0  0  3  0  0  0  0  0  0
  188.2780  177.3330  146.3450 C   0  0  0  0  0  3  0  0  0  0  0  0
  187.0370  175.6500  142.6180 C   0  0  0  0  0  2  0  0  0  0  0  0
  186.9870  176.6910  141.5060 C   0  0  0  0  0  2  0  0  0  0  0  0
  184.9890  177.3330  142.8360 C   0  0  0  0  0  2  0  0  0  0  0  0
  184.6050  178.5630  143.6260 C   0  0  2  0  0  3  0  0  0  0  0  0
  186.7440  178.9640  142.5270 C   0  0  0  0  0  2  0  0  0  0  0  0
  186.0210  177.8160  141.8460 C   0  0  1  0  0  3  0  0  0  0  0  0
  185.8380  179.4470  143.6470 C   0  0  0  0  0  2  0  0  0  0  0  0
  184.9980  179.0500  145.7470 C   0  0  0  0  0  1  0  0  0  0  0  0
  184.2500  178.2050  144.9270 O   0  0  0  0  0  0  0  0  0  0  0  0
  191.5580  173.8320  142.0630 O   0  0  0  0  0  0  0  0  0  0  0  0
  192.5940  174.4720  141.3350 C   0  0  0  0  0  2  0  0  0  0  0  0
  193.9380  174.2350  142.0180 C   0  0  2  0  0  3  0  0  0  0  0  0
  195.5780  175.3480  140.4980 C   0  0  0  0  0  1  0  0  0  0  0  0
  195.0770  174.0160  141.0230 C   0  0  0  0  0  2  0  0  0  0  0  0
  193.8840  173.2600  143.0470 O   0  0  0  0  0  0  0  0  0  0  0  0
  194.2080  173.8240  144.3050 C   0  0  2  0  0  0  0  0  0  0  0  0
  196.2300  173.6300  145.6960 C   0  0  0  0  0  2  0  0  0  0  0  0
  194.9260  175.1660  144.3490 C   0  0  0  0  0  2  0  0  0  0  0  0
  195.0510  172.8690  145.1300 C   0  0  1  0  0  0  0  0  0  0  0  0
  193.6440  173.1920  145.5790 C   0  0  0  0  0  2  0  0  0  0  0  0
  196.3200  174.9050  144.8850 C   0  0  0  0  0  2  0  0  0  0  0  0
  195.2670  171.6020  144.5160 O   0  0  0  0  0  0  0  0  0  0  0  0
  195.3730  170.4150  145.2460 C   0  0  0  0  0  0  0  0  0  0  0  0
  196.4970  169.4310  147.2620 C   0  0  0  0  0  2  0  0  0  0  0  0
  194.4040  168.3790  146.1890 C   0  0  0  0  0  2  0  0  0  0  0  0
  195.2150  168.5970  147.4700 C   0  0  0  0  0  2  0  0  0  0  0  0
  194.2900  169.6620  145.4240 C   0  0  0  0  0  3  0  0  0  0  0  0
  196.6830  169.9600  145.8330 C   0  0  0  0  0  2  0  0  0  0  0  0
  1  6  1  0  0  0  0
  2 11  1  0  0  0  0
  2 12  1  0  0  0  0
  3 10  1  0  0  0  0
  4  8  2  0  0  0  0
  5  1  2  0  0  0  0
  7  9  1  0  0  0  0
  7  4  1  0  0  0  0
  8  1  1  0  0  0  0
  9  5  1  0  0  0  0
 10 11  1  0  0  0  0
 11  7  2  0  0  0  0
 12 15  2  0  0  0  0
 13  2  2  0  0  0  0
 14  3  2  0  0  0  0
 14 13  1  0  0  0  0
 15  4  1  0  0  0  0
 16 13  1  0  0  0  0
 17 16  1  0  0  0  0
 18 19  1  0  0  0  0
 19 22  1  0  0  0  0
 19 24  1  1  0  0  0
 20 22  1  0  0  0  0
 21 17  1  1  0  0  0
 21 20  1  0  0  0  0
 21 18  1  0  0  0  0
 24 23  1  0  0  0  0
 25  3  1  0  0  0  0
 26 27  1  0  0  0  0
 26 25  1  0  0  0  0
 27 29  1  6  0  0  0
 27 30  1  0  0  0  0
 28 29  1  0  0  0  0
 31 30  1  6  0  0  0
 31 33  1  0  0  0  0
 31 34  1  0  0  0  0
 31 35  1  0  0  0  0
 33 36  1  0  0  0  0
 34 37  1  6  0  0  0
 34 35  1  0  0  0  0
 34 32  1  0  0  0  0
 36 32  1  0  0  0  0
 37 38  1  0  0  0  0
 38 42  2  0  0  0  0
 38 43  1  0  0  0  0
 39 41  1  0  0  0  0
 40 41  1  0  0  0  0
 42 40  1  0  0  0  0
 43 39  1  0  0  0  0
M  END
>  <MODEL>
2

>  <REMARK>
 VINA RESULT:      -7.6      2.661      7.797
  Name = 
  12 active torsions:
  status: ('A' for Active; 'I' for Inactive)
    1  A    between atoms: C_1  and  C_34
    2  A    between atoms: C_1  and  C_35
    3  A    between atoms: C_2  and  O_6
    4  A    between atoms: C_2  and  C_12
    5  A    between atoms: O_3  and  C_4
    6  A    between atoms: O_3  and  C_12
    7  A    between atoms: O_6  and  C_13
    8  A    between atoms: C_11  and  O_14
    9  A    between atoms: C_12  and  C_17
   10  A    between atoms: O_14  and  C_22
   11  A    between atoms: C_19  and  O_37
   12  A    between atoms: C_32  and  C_35
                            x       y       z     vdW  Elec       q    Type
                         _______ _______ _______ _____ _____    ______ ____

>  <TORSDO>
F 12

$$$$
=
 OpenBabel11052421013D

 43 49  0  0  1  0  0  0  0  0999 V2000
  184.0480  178.2290  141.1280 C   0  0  0  0  0  0  0  0  0  0  0  0
  187.6760  177.4210  144.6080 C   0  0  0  0  0  0  0  0  0  0  0  0
  190.1240  177.4230  143.1990 C   0  0  0  0  0  0  0  0  0  0  0  0
  185.2630  177.8260  143.2170 C   0  0  0  0  0  0  0  0  0  0  0  0
  185.1660  178.2520  140.4020 C   0  0  0  0  0  3  0  0  0  0  0  0
  182.8210  178.4140  140.5080 O   0  0  0  0  0  1  0  0  0  0  0  0
  186.4880  177.8340  142.5120 C   0  0  0  0  0  0  0  0  0  0  0  0
  184.1030  178.0120  142.5820 C   0  0  0  0  0  3  0  0  0  0  0  0
  186.5270  178.0580  141.0160 C   0  0  0  0  0  2  0  0  0  0  0  0
  188.9120  177.6290  142.5240 O   0  0  0  0  0  0  0  0  0  0  0  0
  187.6890  177.6290  143.2100 C   0  0  0  0  0  0  0  0  0  0  0  0
  186.4490  177.4220  145.2890 C   0  0  0  0  0  3  0  0  0  0  0  0
  188.8430  177.2220  145.2610 C   0  0  0  0  0  0  0  0  0  0  0  0
  190.1200  177.2240  144.5170 C   0  0  0  0  0  3  0  0  0  0  0  0
  185.2550  177.6230  144.5980 C   0  0  0  0  0  3  0  0  0  0  0  0
  188.8990  177.0190  146.7460 C   0  0  0  0  0  2  0  0  0  0  0  0
  189.1680  175.5590  147.0900 C   0  0  0  0  0  2  0  0  0  0  0  0
  191.4600  174.7710  146.5420 C   0  0  0  0  0  2  0  0  0  0  0  0
  192.8480  175.2870  146.8450 C   0  0  2  0  0  3  0  0  0  0  0  0
  191.2130  176.7010  147.9740 C   0  0  0  0  0  2  0  0  0  0  0  0
  190.5820  175.3670  147.6170 C   0  0  1  0  0  3  0  0  0  0  0  0
  192.6540  176.6430  147.4970 C   0  0  0  0  0  2  0  0  0  0  0  0
  194.1420  174.1650  145.4470 C   0  0  0  0  0  1  0  0  0  0  0  0
  193.5760  175.4220  145.6630 O   0  0  0  0  0  0  0  0  0  0  0  0
  191.3330  177.4260  142.5080 O   0  0  0  0  0  0  0  0  0  0  0  0
  192.4400  176.6600  142.9560 C   0  0  0  0  0  2  0  0  0  0  0  0
  192.4700  175.3130  142.2380 C   0  0  2  0  0  3  0  0  0  0  0  0
  194.0020  173.7260  141.0680 C   0  0  0  0  0  1  0  0  0  0  0  0
  193.6400  175.1860  141.2650 C   0  0  0  0  0  2  0  0  0  0  0  0
  191.2190  174.9450  141.6780 O   0  0  0  0  0  0  0  0  0  0  0  0
  190.5610  173.9820  142.4820 C   0  0  2  0  0  0  0  0  0  0  0  0
  189.9230  171.6490  142.0230 C   0  0  0  0  0  2  0  0  0  0  0  0
  191.3960  173.0470  143.3450 C   0  0  0  0  0  2  0  0  0  0  0  0
  189.6640  173.0910  141.6420 C   0  0  1  0  0  0  0  0  0  0  0  0
  189.0400  174.0450  142.6350 C   0  0  0  0  0  2  0  0  0  0  0  0
  191.2400  171.6530  142.7680 C   0  0  0  0  0  2  0  0  0  0  0  0
  189.6090  173.4510  140.2650 O   0  0  0  0  0  0  0  0  0  0  0  0
  190.0880  172.6240  139.2460 C   0  0  0  0  0  0  0  0  0  0  0  0
  192.1730  171.4770  138.4500 C   0  0  0  0  0  2  0  0  0  0  0  0
  189.8190  170.7620  137.6850 C   0  0  0  0  0  2  0  0  0  0  0  0
  191.2610  170.3300  137.9670 C   0  0  0  0  0  2  0  0  0  0  0  0
  189.3160  171.6390  138.7920 C   0  0  0  0  0  3  0  0  0  0  0  0
  191.4530  172.8200  138.6420 C   0  0  0  0  0  2  0  0  0  0  0  0
  1  8  1  0  0  0  0
  2 13  2  0  0  0  0
  2 12  1  0  0  0  0
  3 14  2  0  0  0  0
  4 15  1  0  0  0  0
  5  9  1  0  0  0  0
  5  1  2  0  0  0  0
  6  1  1  0  0  0  0
  7 11  2  0  0  0  0
  7  4  1  0  0  0  0
  8  4  2  0  0  0  0
  9  7  1  0  0  0  0
 10  3  1  0  0  0  0
 10 11  1  0  0  0  0
 11  2  1  0  0  0  0
 13 16  1  0  0  0  0
 14 13  1  0  0  0  0
 15 12  2  0  0  0  0
 16 17  1  0  0  0  0
 18 19  1  0  0  0  0
 18 21  1  0  0  0  0
 19 24  1  6  0  0  0
 19 22  1  0  0  0  0
 21 17  1  6  0  0  0
 21 20  1  0  0  0  0
 22 20  1  0  0  0  0
 23 24  1  0  0  0  0
 25 26  1  0  0  0  0
 25  3  1  0  0  0  0
 27 29  1  6  0  0  0
 27 26  1  0  0  0  0
 28 29  1  0  0  0  0
 30 27  1  0  0  0  0
 31 30  1  6  0  0  0
 31 35  1  0  0  0  0
 31 33  1  0  0  0  0
 32 36  1  0  0  0  0
 34 37  1  6  0  0  0
 34 32  1  0  0  0  0
 34 31  1  0  0  0  0
 34 35  1  0  0  0  0
 36 33  1  0  0  0  0
 38 37  1  0  0  0  0
 39 43  1  0  0  0  0
 40 41  1  0  0  0  0
 40 42  1  0  0  0  0
 41 39  1  0  0  0  0
 42 38  2  0  0  0  0
 43 38  1  0  0  0  0
M  END
>  <MODEL>
3

>  <REMARK>
 VINA RESULT:      -7.5      1.840      8.393
  Name = 
  12 active torsions:
  status: ('A' for Active; 'I' for Inactive)
    1  A    between atoms: C_1  and  C_34
    2  A    between atoms: C_1  and  C_35
    3  A    between atoms: C_2  and  O_6
    4  A    between atoms: C_2  and  C_12
    5  A    between atoms: O_3  and  C_4
    6  A    between atoms: O_3  and  C_12
    7  A    between atoms: O_6  and  C_13
    8  A    between atoms: C_11  and  O_14
    9  A    between atoms: C_12  and  C_17
   10  A    between atoms: O_14  and  C_22
   11  A    between atoms: C_19  and  O_37
   12  A    between atoms: C_32  and  C_35
                            x       y       z     vdW  Elec       q    Type
                         _______ _______ _______ _____ _____    ______ ____

>  <TORSDO>
F 12

$$$$
=
 OpenBabel11052421013D

 43 49  0  0  1  0  0  0  0  0999 V2000
  191.4470  177.2680  148.2430 C   0  0  0  0  0  0  0  0  0  0  0  0
  188.3910  176.3040  144.2870 C   0  0  0  0  0  0  0  0  0  0  0  0
  189.9700  174.9130  142.4010 C   0  0  0  0  0  0  0  0  0  0  0  0
  189.5290  177.1250  146.7270 C   0  0  0  0  0  0  0  0  0  0  0  0
  192.2470  176.6090  147.4050 C   0  0  0  0  0  3  0  0  0  0  0  0
  191.9420  177.7110  149.4620 O   0  0  0  0  0  1  0  0  0  0  0  0
  190.3180  176.4240  145.7860 C   0  0  0  0  0  0  0  0  0  0  0  0
  190.0430  177.5300  147.8900 C   0  0  0  0  0  3  0  0  0  0  0  0
  191.7690  176.1050  146.0690 C   0  0  0  0  0  2  0  0  0  0  0  0
  190.5180  175.3260  143.6250 O   0  0  0  0  0  0  0  0  0  0  0  0
  189.7460  176.0180  144.5700 C   0  0  0  0  0  0  0  0  0  0  0  0
  187.6250  176.9970  145.2360 C   0  0  0  0  0  3  0  0  0  0  0  0
  187.8610  175.9070  143.1080 C   0  0  0  0  0  0  0  0  0  0  0  0
  188.6930  175.1810  142.1260 C   0  0  0  0  0  3  0  0  0  0  0  0
  188.1910  177.4030  146.4440 C   0  0  0  0  0  3  0  0  0  0  0  0
  186.4250  176.1590  142.7570 C   0  0  0  0  0  2  0  0  0  0  0  0
  186.2990  177.2760  141.7280 C   0  0  0  0  0  2  0  0  0  0  0  0
  184.4180  177.9080  143.2230 C   0  0  0  0  0  2  0  0  0  0  0  0
  184.1820  179.0460  144.1900 C   0  0  2  0  0  3  0  0  0  0  0  0
  186.3130  179.3960  143.0580 C   0  0  0  0  0  2  0  0  0  0  0  0
  185.4600  178.4270  142.2610 C   0  0  1  0  0  3  0  0  0  0  0  0
  185.4960  179.7990  144.2740 C   0  0  0  0  0  2  0  0  0  0  0  0
  184.8160  179.0370  146.3090 C   0  0  0  0  0  1  0  0  0  0  0  0
  183.8360  178.5430  145.4440 O   0  0  0  0  0  0  0  0  0  0  0  0
  190.7450  174.2260  141.4710 O   0  0  0  0  0  0  0  0  0  0  0  0
  190.3680  172.9400  141.0040 C   0  0  0  0  0  2  0  0  0  0  0  0
  190.6690  171.8880  142.0680 C   0  0  2  0  0  3  0  0  0  0  0  0
  190.0660  172.0500  144.4860 C   0  0  0  0  0  1  0  0  0  0  0  0
  189.5460  171.7450  143.0940 C   0  0  0  0  0  2  0  0  0  0  0  0
  191.9570  172.0240  142.6470 O   0  0  0  0  0  0  0  0  0  0  0  0
  192.7470  170.8720  142.4140 C   0  0  2  0  0  0  0  0  0  0  0  0
  193.6750  169.2010  143.9660 C   0  0  0  0  0  2  0  0  0  0  0  0
  192.0550  169.5340  142.1950 C   0  0  0  0  0  2  0  0  0  0  0  0
  193.7380  170.6530  143.5430 C   0  0  1  0  0  0  0  0  0  0  0  0
  194.2500  171.0290  142.1710 C   0  0  0  0  0  2  0  0  0  0  0  0
  192.3810  168.6640  143.3930 C   0  0  0  0  0  2  0  0  0  0  0  0
  193.7240  171.6710  144.5380 O   0  0  0  0  0  0  0  0  0  0  0  0
  194.8470  172.4400  144.8510 C   0  0  0  0  0  0  0  0  0  0  0  0
  195.5310  174.5530  146.0200 C   0  0  0  0  0  2  0  0  0  0  0  0
  197.1910  172.6490  145.5140 C   0  0  0  0  0  2  0  0  0  0  0  0
  196.8160  173.8100  146.4410 C   0  0  0  0  0  2  0  0  0  0  0  0
  195.9790  171.8290  145.1960 C   0  0  0  0  0  3  0  0  0  0  0  0
  194.8160  173.9450  144.8040 C   0  0  0  0  0  2  0  0  0  0  0  0
  1  6  1  0  0  0  0
  2 11  1  0  0  0  0
  2 12  1  0  0  0  0
  3 10  1  0  0  0  0
  4  8  2  0  0  0  0
  5  1  2  0  0  0  0
  7  9  1  0  0  0  0
  7  4  1  0  0  0  0
  8  1  1  0  0  0  0
  9  5  1  0  0  0  0
 10 11  1  0  0  0  0
 11  7  2  0  0  0  0
 12 15  2  0  0  0  0
 13  2  2  0  0  0  0
 14  3  2  0  0  0  0
 14 13  1  0  0  0  0
 15  4  1  0  0  0  0
 16 13  1  0  0  0  0
 17 16  1  0  0  0  0
 18 19  1  0  0  0  0
 19 22  1  0  0  0  0
 19 24  1  1  0  0  0
 20 22  1  0  0  0  0
 21 17  1  1  0  0  0
 21 20  1  0  0  0  0
 21 18  1  0  0  0  0
 24 23  1  0  0  0  0
 25  3  1  0  0  0  0
 26 25  1  0  0  0  0
 27 26  1  1  0  0  0
 27 30  1  0  0  0  0
 27 29  1  0  0  0  0
 29 28  1  0  0  0  0
 31 30  1  1  0  0  0
 31 34  1  0  0  0  0
 33 31  1  0  0  0  0
 33 36  1  0  0  0  0
 34 32  1  0  0  0  0
 34 37  1  1  0  0  0
 35 31  1  0  0  0  0
 35 34  1  0  0  0  0
 36 32  1  0  0  0  0
 37 38  1  0  0  0  0
 38 42  2  0  0  0  0
 39 41  1  0  0  0  0
 40 41  1  0  0  0  0
 42 40  1  0  0  0  0
 43 38  1  0  0  0  0
 43 39  1  0  0  0  0
M  END
>  <MODEL>
4

>  <REMARK>
 VINA RESULT:      -7.5      2.306      7.664
  Name = 
  12 active torsions:
  status: ('A' for Active; 'I' for Inactive)
    1  A    between atoms: C_1  and  C_34
    2  A    between atoms: C_1  and  C_35
    3  A    between atoms: C_2  and  O_6
    4  A    between atoms: C_2  and  C_12
    5  A    between atoms: O_3  and  C_4
    6  A    between atoms: O_3  and  C_12
    7  A    between atoms: O_6  and  C_13
    8  A    between atoms: C_11  and  O_14
    9  A    between atoms: C_12  and  C_17
   10  A    between atoms: O_14  and  C_22
   11  A    between atoms: C_19  and  O_37
   12  A    between atoms: C_32  and  C_35
                            x       y       z     vdW  Elec       q    Type
                         _______ _______ _______ _____ _____    ______ ____

>  <TORSDO>
F 12

$$$$
=
 OpenBabel11052421013D

 43 49  0  0  1  0  0  0  0  0999 V2000
  184.5590  178.4680  145.2890 C   0  0  0  0  0  0  0  0  0  0  0  0
  189.3160  176.7090  145.7340 C   0  0  0  0  0  0  0  0  0  0  0  0
  189.9820  175.6110  143.2170 C   0  0  0  0  0  0  0  0  0  0  0  0
  186.7780  177.8590  146.1290 C   0  0  0  0  0  0  0  0  0  0  0  0
  184.8090  177.9770  144.0740 C   0  0  0  0  0  3  0  0  0  0  0  0
  183.3250  179.0420  145.5590 O   0  0  0  0  0  1  0  0  0  0  0  0
  187.1120  177.3150  144.8680 C   0  0  0  0  0  0  0  0  0  0  0  0
  185.5800  178.4070  146.3460 C   0  0  0  0  0  3  0  0  0  0  0  0
  186.1270  177.3420  143.7210 C   0  0  0  0  0  2  0  0  0  0  0  0
  188.7230  176.1930  143.4310 O   0  0  0  0  0  0  0  0  0  0  0  0
  188.3790  176.7410  144.6760 C   0  0  0  0  0  0  0  0  0  0  0  0
  188.9660  177.2570  146.9760 C   0  0  0  0  0  3  0  0  0  0  0  0
  190.5290  176.1480  145.5290 C   0  0  0  0  0  0  0  0  0  0  0  0
  190.8700  175.5750  144.2100 C   0  0  0  0  0  3  0  0  0  0  0  0
  187.7070  177.8270  147.1700 C   0  0  0  0  0  3  0  0  0  0  0  0
  191.5760  176.1030  146.6030 C   0  0  0  0  0  2  0  0  0  0  0  0
  192.4780  174.8850  146.4390 C   0  0  0  0  0  2  0  0  0  0  0  0
  194.4200  174.9280  144.8910 C   0  0  0  0  0  2  0  0  0  0  0  0
  195.4860  175.9510  144.5720 C   0  0  2  0  0  3  0  0  0  0  0  0
  194.0890  176.8000  146.3810 C   0  0  0  0  0  2  0  0  0  0  0  0
  193.9330  175.2940  146.2730 C   0  0  1  0  0  3  0  0  0  0  0  0
  195.0850  177.2140  145.3110 C   0  0  0  0  0  2  0  0  0  0  0  0
  194.2120  175.9880  142.7650 C   0  0  0  0  0  1  0  0  0  0  0  0
  195.5230  176.1900  143.1990 O   0  0  0  0  0  0  0  0  0  0  0  0
  190.3140  175.0710  141.9770 O   0  0  0  0  0  0  0  0  0  0  0  0
  189.5340  174.0420  141.3890 C   0  0  0  0  0  2  0  0  0  0  0  0
  189.9230  172.6880  141.9780 C   0  0  2  0  0  3  0  0  0  0  0  0
  189.7590  172.1010  144.3990 C   0  0  0  0  0  1  0  0  0  0  0  0
  188.9880  172.2410  143.1000 C   0  0  0  0  0  2  0  0  0  0  0  0
  191.2990  172.5910  142.3080 O   0  0  0  0  0  0  0  0  0  0  0  0
  191.9780  171.7190  141.4230 C   0  0  2  0  0  0  0  0  0  0  0  0
  193.3660  169.7320  141.8520 C   0  0  0  0  0  2  0  0  0  0  0  0
  191.2590  170.4770  140.9150 C   0  0  0  0  0  2  0  0  0  0  0  0
  193.2820  171.2320  142.0300 C   0  0  1  0  0  0  0  0  0  0  0  0
  193.3210  172.1490  140.8290 C   0  0  0  0  0  2  0  0  0  0  0  0
  191.9590  169.2790  141.5260 C   0  0  0  0  0  2  0  0  0  0  0  0
  193.5830  171.8030  143.2990 O   0  0  0  0  0  0  0  0  0  0  0  0
  194.7280  171.4690  144.0270 C   0  0  0  0  0  0  0  0  0  0  0  0
  197.0250  172.3090  144.5900 C   0  0  0  0  0  2  0  0  0  0  0  0
  195.8200  170.5160  145.9950 C   0  0  0  0  0  2  0  0  0  0  0  0
  196.8310  171.6680  145.9800 C   0  0  0  0  0  2  0  0  0  0  0  0
  194.5950  170.8940  145.2200 C   0  0  0  0  0  3  0  0  0  0  0  0
  196.1110  171.7380  143.4960 C   0  0  0  0  0  2  0  0  0  0  0  0
  1  6  1  0  0  0  0
  1  8  1  0  0  0  0
  2 12  1  0  0  0  0
  3 10  1  0  0  0  0
  3 14  2  0  0  0  0
  4  8  2  0  0  0  0
  4 15  1  0  0  0  0
  5  1  2  0  0  0  0
  7  4  1  0  0  0  0
  9  5  1  0  0  0  0
  9  7  1  0  0  0  0
 10 11  1  0  0  0  0
 11  7  2  0  0  0  0
 11  2  1  0  0  0  0
 12 15  2  0  0  0  0
 13  2  2  0  0  0  0
 13 16  1  0  0  0  0
 14 13  1  0  0  0  0
 17 16  1  0  0  0  0
 18 21  1  0  0  0  0
 19 24  1  6  0  0  0
 19 18  1  0  0  0  0
 19 22  1  0  0  0  0
 21 20  1  0  0  0  0
 21 17  1  6  0  0  0
 22 20  1  0  0  0  0
 23 24  1  0  0  0  0
 25  3  1  0  0  0  0
 26 25  1  0  0  0  0
 27 26  1  1  0  0  0
 27 30  1  0  0  0  0
 27 29  1  0  0  0  0
 29 28  1  0  0  0  0
 31 34  1  0  0  0  0
 31 30  1  1  0  0  0
 32 34  1  0  0  0  0
 33 31  1  0  0  0  0
 33 36  1  0  0  0  0
 34 37  1  1  0  0  0
 35 31  1  0  0  0  0
 35 34  1  0  0  0  0
 36 32  1  0  0  0  0
 37 38  1  0  0  0  0
 38 42  2  0  0  0  0
 39 41  1  0  0  0  0
 41 40  1  0  0  0  0
 42 40  1  0  0  0  0
 43 38  1  0  0  0  0
 43 39  1  0  0  0  0
M  END
>  <MODEL>
5

>  <REMARK>
 VINA RESULT:      -7.4      2.371      8.287
  Name = 
  12 active torsions:
  status: ('A' for Active; 'I' for Inactive)
    1  A    between atoms: C_1  and  C_34
    2  A    between atoms: C_1  and  C_35
    3  A    between atoms: C_2  and  O_6
    4  A    between atoms: C_2  and  C_12
    5  A    between atoms: O_3  and  C_4
    6  A    between atoms: O_3  and  C_12
    7  A    between atoms: O_6  and  C_13
    8  A    between atoms: C_11  and  O_14
    9  A    between atoms: C_12  and  C_17
   10  A    between atoms: O_14  and  C_22
   11  A    between atoms: C_19  and  O_37
   12  A    between atoms: C_32  and  C_35
                            x       y       z     vdW  Elec       q    Type
                         _______ _______ _______ _____ _____    ______ ____

>  <TORSDO>
F 12

$$$$
=
 OpenBabel11052421013D

 43 49  0  0  1  0  0  0  0  0999 V2000
  190.1390  172.0240  139.9190 C   0  0  0  0  0  0  0  0  0  0  0  0
  192.7990  174.9450  143.1310 C   0  0  0  0  0  0  0  0  0  0  0  0
  190.9290  176.6910  144.3300 C   0  0  0  0  0  0  0  0  0  0  0  0
  191.9300  173.0560  141.2340 C   0  0  0  0  0  0  0  0  0  0  0  0
  189.2020  172.8090  140.4510 C   0  0  0  0  0  3  0  0  0  0  0  0
  189.7850  171.0740  138.9710 O   0  0  0  0  0  1  0  0  0  0  0  0
  190.9920  173.9250  141.8380 C   0  0  0  0  0  0  0  0  0  0  0  0
  191.5460  172.1530  140.3280 C   0  0  0  0  0  3  0  0  0  0  0  0
  189.5240  173.8570  141.4830 C   0  0  0  0  0  3  0  0  0  0  0  0
  190.5140  175.7390  143.3870 O   0  0  0  0  0  0  0  0  0  0  0  0
  191.4320  174.8670  142.7820 C   0  0  0  0  0  0  0  0  0  0  0  0
  193.7120  174.0710  142.5230 C   0  0  0  0  0  2  0  0  0  0  0  0
  193.2010  175.8620  144.0400 C   0  0  0  0  0  0  0  0  0  0  0  0
  192.2170  176.7720  144.6620 C   0  0  0  0  0  3  0  0  0  0  0  0
  193.2790  173.1350  141.5830 C   0  0  0  0  0  3  0  0  0  0  0  0
  194.6330  175.9800  144.4690 C   0  0  0  0  0  2  0  0  0  0  0  0
  194.8880  175.1990  145.7530 C   0  0  0  0  0  2  0  0  0  0  0  0
  195.9790  172.9670  145.7590 C   0  0  0  0  0  2  0  0  0  0  0  0
  197.1310  172.3600  144.9920 C   0  0  2  0  0  3  0  0  0  0  0  0
  196.9180  174.7080  144.3730 C   0  0  0  0  0  2  0  0  0  0  0  0
  196.2140  174.4570  145.6950 C   0  0  1  0  0  3  0  0  0  0  0  0
  197.5110  173.3800  143.9350 C   0  0  0  0  0  2  0  0  0  0  0  0
  197.6620  170.2210  144.8030 C   0  0  0  0  0  1  0  0  0  0  0  0
  196.7270  171.1700  144.3850 O   0  0  0  0  0  0  0  0  0  0  0  0
  190.0100  177.5510  144.9250 O   0  0  0  0  0  0  0  0  0  0  0  0
  189.8080  177.5580  146.3290 C   0  0  0  0  0  2  0  0  0  0  0  0
  188.5900  176.7110  146.6880 C   0  0  2  0  0  3  0  0  0  0  0  0
  190.3440  175.2090  147.6370 C   0  0  0  0  0  1  0  0  0  0  0  0
  188.9530  175.2690  147.0350 C   0  0  0  0  0  2  0  0  0  0  0  0
  187.5290  176.8240  145.7520 O   0  0  0  0  0  0  0  0  0  0  0  0
  186.7240  177.9570  146.0240 C   0  0  2  0  0  0  0  0  0  0  0  0
  184.2800  178.2130  146.1600 C   0  0  0  0  0  2  0  0  0  0  0  0
  186.3220  178.2480  147.4630 C   0  0  0  0  0  2  0  0  0  0  0  0
  185.4330  177.9120  145.2270 C   0  0  1  0  0  0  0  0  0  0  0  0
  186.4610  178.9750  144.9130 C   0  0  0  0  0  2  0  0  0  0  0  0
  184.8260  178.0260  147.5590 C   0  0  0  0  0  2  0  0  0  0  0  0
  185.3370  176.8090  144.3320 O   0  0  0  0  0  0  0  0  0  0  0  0
  185.6320  176.9100  142.9710 C   0  0  0  0  0  0  0  0  0  0  0  0
  185.5250  178.5120  141.0410 C   0  0  0  0  0  2  0  0  0  0  0  0
  187.0540  176.4370  141.0390 C   0  0  0  0  0  2  0  0  0  0  0  0
  186.8360  177.8690  140.5400 C   0  0  0  0  0  2  0  0  0  0  0  0
  186.7440  176.3470  142.5020 C   0  0  0  0  0  3  0  0  0  0  0  0
  184.7220  177.6360  142.0150 C   0  0  0  0  0  2  0  0  0  0  0  0
  1  8  2  0  0  0  0
  1  5  1  0  0  0  0
  2 13  2  0  0  0  0
  3 14  2  0  0  0  0
  3 25  1  0  0  0  0
  4 15  2  0  0  0  0
  4  7  1  0  0  0  0
  5  9  2  0  0  0  0
  6  1  1  0  0  0  0
  7 11  2  0  0  0  0
  8  4  1  0  0  0  0
  9  7  1  0  0  0  0
 10  3  1  0  0  0  0
 11  2  1  0  0  0  0
 11 10  1  0  0  0  0
 12  2  1  0  0  0  0
 13 16  1  0  0  0  0
 13 14  1  0  0  0  0
 15 12  1  0  0  0  0
 16 17  1  0  0  0  0
 19 24  1  6  0  0  0
 19 18  1  0  0  0  0
 20 21  1  0  0  0  0
 21 17  1  6  0  0  0
 21 18  1  0  0  0  0
 22 20  1  0  0  0  0
 22 19  1  0  0  0  0
 24 23  1  0  0  0  0
 25 26  1  0  0  0  0
 27 26  1  6  0  0  0
 27 29  1  0  0  0  0
 29 28  1  0  0  0  0
 30 27  1  0  0  0  0
 31 30  1  6  0  0  0
 31 33  1  0  0  0  0
 32 36  1  0  0  0  0
 33 36  1  0  0  0  0
 34 37  1  6  0  0  0
 34 31  1  0  0  0  0
 34 32  1  0  0  0  0
 35 34  1  0  0  0  0
 35 31  1  0  0  0  0
 38 37  1  0  0  0  0
 39 43  1  0  0  0  0
 40 42  1  0  0  0  0
 41 40  1  0  0  0  0
 41 39  1  0  0  0  0
 42 38  2  0  0  0  0
 43 38  1  0  0  0  0
M  END
>  <MODEL>
6

>  <REMARK>
 VINA RESULT:      -7.4      1.797      6.292
  Name = 
  12 active torsions:
  status: ('A' for Active; 'I' for Inactive)
    1  A    between atoms: C_1  and  C_34
    2  A    between atoms: C_1  and  C_35
    3  A    between atoms: C_2  and  O_6
    4  A    between atoms: C_2  and  C_12
    5  A    between atoms: O_3  and  C_4
    6  A    between atoms: O_3  and  C_12
    7  A    between atoms: O_6  and  C_13
    8  A    between atoms: C_11  and  O_14
    9  A    between atoms: C_12  and  C_17
   10  A    between atoms: O_14  and  C_22
   11  A    between atoms: C_19  and  O_37
   12  A    between atoms: C_32  and  C_35
                            x       y       z     vdW  Elec       q    Type
                         _______ _______ _______ _____ _____    ______ ____

>  <TORSDO>
F 12

$$$$
=
 OpenBabel11052421013D

 43 49  0  0  1  0  0  0  0  0999 V2000
  190.9010  170.7830  136.1660 C   0  0  0  0  0  0  0  0  0  0  0  0
  189.2150  172.6930  140.5740 C   0  0  0  0  0  0  0  0  0  0  0  0
  190.9780  171.7370  142.5650 C   0  0  0  0  0  0  0  0  0  0  0  0
  189.6250  171.9760  137.8840 C   0  0  0  0  0  0  0  0  0  0  0  0
  191.7750  170.3040  137.0510 C   0  0  0  0  0  3  0  0  0  0  0  0
  191.0350  170.4640  134.8220 O   0  0  0  0  0  1  0  0  0  0  0  0
  190.5110  171.5020  138.8780 C   0  0  0  0  0  0  0  0  0  0  0  0
  189.7930  171.6480  136.6010 C   0  0  0  0  0  3  0  0  0  0  0  0
  191.6820  170.6130  138.5210 C   0  0  0  0  0  3  0  0  0  0  0  0
  191.1690  171.3950  141.2180 O   0  0  0  0  0  0  0  0  0  0  0  0
  190.3010  171.8610  140.2190 C   0  0  0  0  0  0  0  0  0  0  0  0
  188.3500  173.1560  139.5720 C   0  0  0  0  0  2  0  0  0  0  0  0
  189.0290  173.0230  141.8720 C   0  0  0  0  0  0  0  0  0  0  0  0
  189.9550  172.5190  142.9080 C   0  0  0  0  0  3  0  0  0  0  0  0
  188.5550  172.7990  138.2390 C   0  0  0  0  0  3  0  0  0  0  0  0
  187.9100  173.9210  142.3110 C   0  0  0  0  0  2  0  0  0  0  0  0
  188.3530  175.3790  142.3380 C   0  0  0  0  0  2  0  0  0  0  0  0
  186.2100  176.3410  143.1450 C   0  0  0  0  0  2  0  0  0  0  0  0
  185.5890  177.7170  143.0850 C   0  0  2  0  0  3  0  0  0  0  0  0
  187.6900  177.7420  141.8490 C   0  0  0  0  0  2  0  0  0  0  0  0
  187.2010  176.3130  142.0060 C   0  0  1  0  0  3  0  0  0  0  0  0
  186.6590  178.6330  142.5210 C   0  0  0  0  0  2  0  0  0  0  0  0
  185.5280  179.4970  144.3960 C   0  0  0  0  0  1  0  0  0  0  0  0
  185.2270  178.1340  144.3670 O   0  0  0  0  0  0  0  0  0  0  0  0
  191.8460  171.2690  143.5480 O   0  0  0  0  0  0  0  0  0  0  0  0
  193.2520  171.2880  143.3590 C   0  0  0  0  0  2  0  0  0  0  0  0
  193.9120  172.1550  144.4280 C   0  0  2  0  0  3  0  0  0  0  0  0
  195.8960  171.4560  145.7730 C   0  0  0  0  0  1  0  0  0  0  0  0
  194.3890  171.3480  145.6340 C   0  0  0  0  0  2  0  0  0  0  0  0
  193.1500  173.3020  144.7730 O   0  0  0  0  0  0  0  0  0  0  0  0
  193.5550  174.4310  144.0200 C   0  0  2  0  0  0  0  0  0  0  0  0
  194.0460  176.7440  144.7040 C   0  0  0  0  0  2  0  0  0  0  0  0
  195.0410  174.7080  143.8460 C   0  0  0  0  0  2  0  0  0  0  0  0
  192.9520  175.7060  144.5830 C   0  0  1  0  0  0  0  0  0  0  0  0
  192.5100  175.2140  143.2230 C   0  0  0  0  0  2  0  0  0  0  0  0
  195.3480  175.9780  144.6150 C   0  0  0  0  0  2  0  0  0  0  0  0
  192.0620  175.4980  145.6750 O   0  0  0  0  0  0  0  0  0  0  0  0
  190.7120  175.8550  145.6300 C   0  0  0  0  0  0  0  0  0  0  0  0
  188.5120  175.4030  146.7500 C   0  0  0  0  0  2  0  0  0  0  0  0
  188.9360  177.5060  145.3220 C   0  0  0  0  0  2  0  0  0  0  0  0
  188.1690  176.8860  146.4950 C   0  0  0  0  0  2  0  0  0  0  0  0
  190.3820  177.1230  145.3900 C   0  0  0  0  0  3  0  0  0  0  0  0
  189.6170  174.8430  145.8420 C   0  0  0  0  0  2  0  0  0  0  0  0
  1  8  2  0  0  0  0
  1  5  1  0  0  0  0
  2 13  2  0  0  0  0
  3 14  2  0  0  0  0
  3 25  1  0  0  0  0
  4 15  2  0  0  0  0
  4  7  1  0  0  0  0
  5  9  2  0  0  0  0
  6  1  1  0  0  0  0
  7 11  2  0  0  0  0
  8  4  1  0  0  0  0
  9  7  1  0  0  0  0
 10  3  1  0  0  0  0
 11  2  1  0  0  0  0
 11 10  1  0  0  0  0
 12  2  1  0  0  0  0
 13 16  1  0  0  0  0
 13 14  1  0  0  0  0
 15 12  1  0  0  0  0
 16 17  1  0  0  0  0
 19 18  1  0  0  0  0
 19 24  1  1  0  0  0
 20 21  1  0  0  0  0
 20 22  1  0  0  0  0
 21 17  1  1  0  0  0
 21 18  1  0  0  0  0
 22 19  1  0  0  0  0
 24 23  1  0  0  0  0
 26 25  1  0  0  0  0
 27 26  1  6  0  0  0
 27 30  1  0  0  0  0
 27 29  1  0  0  0  0
 29 28  1  0  0  0  0
 31 34  1  0  0  0  0
 31 30  1  1  0  0  0
 33 31  1  0  0  0  0
 33 36  1  0  0  0  0
 34 32  1  0  0  0  0
 34 37  1  1  0  0  0
 35 31  1  0  0  0  0
 35 34  1  0  0  0  0
 36 32  1  0  0  0  0
 38 37  1  0  0  0  0
 38 43  1  0  0  0  0
 40 42  1  0  0  0  0
 40 41  1  0  0  0  0
 41 39  1  0  0  0  0
 42 38  2  0  0  0  0
 43 39  1  0  0  0  0
M  END
>  <MODEL>
7

>  <REMARK>
 VINA RESULT:      -7.3      1.803      7.712
  Name = 
  12 active torsions:
  status: ('A' for Active; 'I' for Inactive)
    1  A    between atoms: C_1  and  C_34
    2  A    between atoms: C_1  and  C_35
    3  A    between atoms: C_2  and  O_6
    4  A    between atoms: C_2  and  C_12
    5  A    between atoms: O_3  and  C_4
    6  A    between atoms: O_3  and  C_12
    7  A    between atoms: O_6  and  C_13
    8  A    between atoms: C_11  and  O_14
    9  A    between atoms: C_12  and  C_17
   10  A    between atoms: O_14  and  C_22
   11  A    between atoms: C_19  and  O_37
   12  A    between atoms: C_32  and  C_35
                            x       y       z     vdW  Elec       q    Type
                         _______ _______ _______ _____ _____    ______ ____

>  <TORSDO>
F 12

$$$$
=
 OpenBabel11052421013D

 43 49  0  0  1  0  0  0  0  0999 V2000
  185.5340  178.0580  147.1360 C   0  0  0  0  0  0  0  0  0  0  0  0
  190.2830  176.2870  146.6480 C   0  0  0  0  0  0  0  0  0  0  0  0
  190.0720  173.8810  145.1820 C   0  0  0  0  0  0  0  0  0  0  0  0
  187.9630  177.7630  147.2510 C   0  0  0  0  0  0  0  0  0  0  0  0
  185.3620  176.9380  146.4340 C   0  0  0  0  0  3  0  0  0  0  0  0
  184.4350  178.8330  147.4770 O   0  0  0  0  0  1  0  0  0  0  0  0
  187.8580  176.5630  146.5110 C   0  0  0  0  0  0  0  0  0  0  0  0
  186.8800  178.4810  147.5540 C   0  0  0  0  0  3  0  0  0  0  0  0
  186.5150  176.0560  146.0350 C   0  0  0  0  0  2  0  0  0  0  0  0
  188.9280  174.6330  145.4870 O   0  0  0  0  0  0  0  0  0  0  0  0
  189.0180  175.8290  146.2150 C   0  0  0  0  0  0  0  0  0  0  0  0
  190.3660  177.4820  147.3770 C   0  0  0  0  0  3  0  0  0  0  0  0
  191.3870  175.5630  146.3550 C   0  0  0  0  0  0  0  0  0  0  0  0
  191.2690  174.3050  145.5880 C   0  0  0  0  0  3  0  0  0  0  0  0
  189.2150  178.2130  147.6740 C   0  0  0  0  0  3  0  0  0  0  0  0
  192.7600  176.0060  146.7660 C   0  0  0  0  0  2  0  0  0  0  0  0
  193.8140  174.9910  146.3400 C   0  0  0  0  0  2  0  0  0  0  0  0
  196.0660  174.6500  145.3490 C   0  0  0  0  0  2  0  0  0  0  0  0
  196.8100  175.2770  144.1920 C   0  0  2  0  0  3  0  0  0  0  0  0
  194.6760  176.4210  144.4750 C   0  0  0  0  0  2  0  0  0  0  0  0
  195.0350  175.6780  145.7490 C   0  0  1  0  0  3  0  0  0  0  0  0
  195.8080  176.1770  143.4930 C   0  0  0  0  0  2  0  0  0  0  0  0
  196.9950  174.7910  142.0420 C   0  0  0  0  0  1  0  0  0  0  0  0
  197.2560  174.2860  143.3170 O   0  0  0  0  0  0  0  0  0  0  0  0
  189.9720  172.6960  144.4570 O   0  0  0  0  0  0  0  0  0  0  0  0
  191.1090  172.1090  143.8430 C   0  0  0  0  0  2  0  0  0  0  0  0
  191.1380  172.4560  142.3570 C   0  0  2  0  0  3  0  0  0  0  0  0
  193.4570  173.3190  142.6940 C   0  0  0  0  0  1  0  0  0  0  0  0
  192.5550  172.5020  141.7880 C   0  0  0  0  0  2  0  0  0  0  0  0
  190.3530  173.5900  142.0260 O   0  0  0  0  0  0  0  0  0  0  0  0
  189.2360  173.2260  141.2350 C   0  0  2  0  0  0  0  0  0  0  0  0
  188.2130  174.3140  139.2780 C   0  0  0  0  0  2  0  0  0  0  0  0
  189.4560  172.3630  140.0000 C   0  0  0  0  0  2  0  0  0  0  0  0
  188.4800  174.4540  140.7610 C   0  0  1  0  0  0  0  0  0  0  0  0
  187.8250  173.5180  141.7490 C   0  0  0  0  0  2  0  0  0  0  0  0
  189.1510  173.2300  138.7940 C   0  0  0  0  0  2  0  0  0  0  0  0
  188.9920  175.6850  141.2650 O   0  0  0  0  0  0  0  0  0  0  0  0
  188.1680  176.7380  141.6690 C   0  0  0  0  0  0  0  0  0  0  0  0
  185.8410  177.6400  141.4020 C   0  0  0  0  0  2  0  0  0  0  0  0
  187.3780  178.3230  143.3540 C   0  0  0  0  0  2  0  0  0  0  0  0
  185.9410  178.1080  142.8690 C   0  0  0  0  0  2  0  0  0  0  0  0
  188.2460  177.1810  142.9220 C   0  0  0  0  0  3  0  0  0  0  0  0
  187.1960  177.3920  140.7220 C   0  0  0  0  0  2  0  0  0  0  0  0
  1  6  1  0  0  0  0
  1  8  1  0  0  0  0
  2 12  1  0  0  0  0
  3 10  1  0  0  0  0
  3 14  2  0  0  0  0
  4  8  2  0  0  0  0
  4 15  1  0  0  0  0
  5  1  2  0  0  0  0
  7  4  1  0  0  0  0
  9  5  1  0  0  0  0
  9  7  1  0  0  0  0
 10 11  1  0  0  0  0
 11  7  2  0  0  0  0
 11  2  1  0  0  0  0
 12 15  2  0  0  0  0
 13  2  2  0  0  0  0
 13 16  1  0  0  0  0
 14 13  1  0  0  0  0
 17 16  1  0  0  0  0
 18 21  1  0  0  0  0
 19 24  1  6  0  0  0
 19 18  1  0  0  0  0
 20 21  1  0  0  0  0
 21 17  1  6  0  0  0
 22 19  1  0  0  0  0
 22 20  1  0  0  0  0
 23 24  1  0  0  0  0
 25  3  1  0  0  0  0
 26 25  1  0  0  0  0
 27 29  1  1  0  0  0
 27 26  1  0  0  0  0
 29 28  1  0  0  0  0
 30 27  1  0  0  0  0
 31 35  1  0  0  0  0
 31 30  1  1  0  0  0
 32 34  1  0  0  0  0
 33 31  1  0  0  0  0
 34 31  1  0  0  0  0
 34 37  1  1  0  0  0
 34 35  1  0  0  0  0
 36 32  1  0  0  0  0
 36 33  1  0  0  0  0
 37 38  1  0  0  0  0
 38 42  2  0  0  0  0
 39 41  1  0  0  0  0
 41 40  1  0  0  0  0
 42 40  1  0  0  0  0
 43 39  1  0  0  0  0
 43 38  1  0  0  0  0
M  END
>  <MODEL>
8

>  <REMARK>
 VINA RESULT:      -7.2      1.954      7.437
  Name = 
  12 active torsions:
  status: ('A' for Active; 'I' for Inactive)
    1  A    between atoms: C_1  and  C_34
    2  A    between atoms: C_1  and  C_35
    3  A    between atoms: C_2  and  O_6
    4  A    between atoms: C_2  and  C_12
    5  A    between atoms: O_3  and  C_4
    6  A    between atoms: O_3  and  C_12
    7  A    between atoms: O_6  and  C_13
    8  A    between atoms: C_11  and  O_14
    9  A    between atoms: C_12  and  C_17
   10  A    between atoms: O_14  and  C_22
   11  A    between atoms: C_19  and  O_37
   12  A    between atoms: C_32  and  C_35
                            x       y       z     vdW  Elec       q    Type
                         _______ _______ _______ _____ _____    ______ ____

>  <TORSDO>
F 12

$$$$
=
 OpenBabel11052421013D

 43 49  0  0  1  0  0  0  0  0999 V2000
  196.3510  174.0000  145.4300 C   0  0  0  0  0  0  0  0  0  0  0  0
  191.4430  172.9340  144.5900 C   0  0  0  0  0  0  0  0  0  0  0  0
  189.9670  174.8440  146.0580 C   0  0  0  0  0  0  0  0  0  0  0  0
  194.2570  172.9980  144.6480 C   0  0  0  0  0  0  0  0  0  0  0  0
  195.7180  174.9360  146.1380 C   0  0  0  0  0  3  0  0  0  0  0  0
  197.7380  173.9640  145.4180 O   0  0  0  0  0  1  0  0  0  0  0  0
  193.5190  173.9580  145.3770 C   0  0  0  0  0  0  0  0  0  0  0  0
  195.5910  173.0020  144.6600 C   0  0  0  0  0  3  0  0  0  0  0  0
  194.2170  175.0250  146.1910 C   0  0  0  0  0  3  0  0  0  0  0  0
  191.3700  174.8630  146.0700 O   0  0  0  0  0  0  0  0  0  0  0  0
  192.1150  173.9200  145.3470 C   0  0  0  0  0  0  0  0  0  0  0  0
  192.1940  171.9940  143.8700 C   0  0  0  0  0  2  0  0  0  0  0  0
  190.0910  172.9140  144.5780 C   0  0  0  0  0  0  0  0  0  0  0  0
  189.3260  173.9160  145.3480 C   0  0  0  0  0  3  0  0  0  0  0  0
  193.5890  172.0270  143.9000 C   0  0  0  0  0  3  0  0  0  0  0  0
  189.3190  171.9070  143.7770 C   0  0  0  0  0  2  0  0  0  0  0  0
  188.5770  172.5750  142.6250 C   0  0  0  0  0  2  0  0  0  0  0  0
  190.1180  171.3830  141.0840 C   0  0  0  0  0  2  0  0  0  0  0  0
  190.3240  171.3990  139.5860 C   0  0  2  0  0  3  0  0  0  0  0  0
  188.6470  173.0680  140.1720 C   0  0  0  0  0  2  0  0  0  0  0  0
  189.4660  172.7080  141.3980 C   0  0  1  0  0  3  0  0  0  0  0  0
  189.2010  172.2480  139.0200 C   0  0  0  0  0  2  0  0  0  0  0  0
  190.8330  169.3000  140.0600 C   0  0  0  0  0  1  0  0  0  0  0  0
  190.2470  170.1020  139.0790 O   0  0  0  0  0  0  0  0  0  0  0  0
  189.2360  175.7850  146.7790 O   0  0  0  0  0  0  0  0  0  0  0  0
  187.8920  176.0910  146.4410 C   0  0  0  0  0  2  0  0  0  0  0  0
  187.7830  177.5450  145.9890 C   0  0  2  0  0  3  0  0  0  0  0  0
  185.5330  177.1560  147.0010 C   0  0  0  0  0  1  0  0  0  0  0  0
  186.3950  178.1360  146.2260 C   0  0  0  0  0  2  0  0  0  0  0  0
  188.2830  177.7670  144.6800 O   0  0  0  0  0  0  0  0  0  0  0  0
  187.2880  177.5160  143.7030 C   0  0  2  0  0  0  0  0  0  0  0  0
  187.4460  176.5800  141.4320 C   0  0  0  0  0  2  0  0  0  0  0  0
  186.6150  176.1510  143.6680 C   0  0  0  0  0  2  0  0  0  0  0  0
  187.8250  177.7570  142.3040 C   0  0  1  0  0  0  0  0  0  0  0  0
  186.7590  178.6760  142.8560 C   0  0  0  0  0  2  0  0  0  0  0  0
  187.0590  175.4710  142.3870 C   0  0  0  0  0  2  0  0  0  0  0  0
  189.1610  178.2510  142.2680 O   0  0  0  0  0  0  0  0  0  0  0  0
  190.2430  177.5480  142.8030 C   0  0  0  0  0  0  0  0  0  0  0  0
  191.8550  175.7000  142.2690 C   0  0  0  0  0  2  0  0  0  0  0  0
  192.3090  177.4500  144.1050 C   0  0  0  0  0  2  0  0  0  0  0  0
  192.9090  176.4990  143.0650 C   0  0  0  0  0  2  0  0  0  0  0  0
  191.1580  178.2040  143.5130 C   0  0  0  0  0  3  0  0  0  0  0  0
  190.4000  176.0640  142.6020 C   0  0  0  0  0  2  0  0  0  0  0  0
  1  5  1  0  0  0  0
  2 11  1  0  0  0  0
  3 10  1  0  0  0  0
  3 25  1  0  0  0  0
  4  8  1  0  0  0  0
  4  7  1  0  0  0  0
  5  9  2  0  0  0  0
  6  1  1  0  0  0  0
  7  9  1  0  0  0  0
  8  1  2  0  0  0  0
 11  7  2  0  0  0  0
 11 10  1  0  0  0  0
 12 15  1  0  0  0  0
 12  2  1  0  0  0  0
 13  2  2  0  0  0  0
 13 14  1  0  0  0  0
 14  3  2  0  0  0  0
 15  4  2  0  0  0  0
 16 13  1  0  0  0  0
 17 16  1  0  0  0  0
 18 21  1  0  0  0  0
 19 24  1  6  0  0  0
 19 18  1  0  0  0  0
 20 21  1  0  0  0  0
 21 17  1  1  0  0  0
 22 19  1  0  0  0  0
 22 20  1  0  0  0  0
 24 23  1  0  0  0  0
 26 25  1  0  0  0  0
 27 29  1  6  0  0  0
 27 26  1  0  0  0  0
 29 28  1  0  0  0  0
 30 27  1  0  0  0  0
 31 30  1  1  0  0  0
 32 34  1  0  0  0  0
 32 36  1  0  0  0  0
 33 31  1  0  0  0  0
 34 37  1  6  0  0  0
 34 35  1  0  0  0  0
 34 31  1  0  0  0  0
 35 31  1  0  0  0  0
 36 33  1  0  0  0  0
 37 38  1  0  0  0  0
 38 42  2  0  0  0  0
 39 43  1  0  0  0  0
 39 41  1  0  0  0  0
 41 40  1  0  0  0  0
 42 40  1  0  0  0  0
 43 38  1  0  0  0  0
M  END
>  <MODEL>
9

>  <REMARK>
 VINA RESULT:      -7.1      1.532      3.296
  Name = 
  12 active torsions:
  status: ('A' for Active; 'I' for Inactive)
    1  A    between atoms: C_1  and  C_34
    2  A    between atoms: C_1  and  C_35
    3  A    between atoms: C_2  and  O_6
    4  A    between atoms: C_2  and  C_12
    5  A    between atoms: O_3  and  C_4
    6  A    between atoms: O_3  and  C_12
    7  A    between atoms: O_6  and  C_13
    8  A    between atoms: C_11  and  O_14
    9  A    between atoms: C_12  and  C_17
   10  A    between atoms: O_14  and  C_22
   11  A    between atoms: C_19  and  O_37
   12  A    between atoms: C_32  and  C_35
                            x       y       z     vdW  Elec       q    Type
                         _______ _______ _______ _____ _____    ______ ____

>  <TORSDO>
F 12

$$$$
