=
 OpenBabel11052419293D

 55 60  0  0  1  0  0  0  0  0999 V2000
  190.8940  173.4420  140.4600 C   0  0  0  0  0  2  0  0  0  0  0  0
  193.2460  173.7240  145.7060 C   0  0  0  0  0  2  0  0  0  0  0  0
  190.3780  175.5850  147.6390 O   0  0  0  0  0  0  0  0  0  0  0  0
  194.4630  172.4020  143.5620 C   0  0  0  0  0  2  0  0  0  0  0  0
  196.3250  174.0440  143.7720 C   0  0  0  0  0  2  0  0  0  0  0  0
  190.7560  177.5290  145.4830 C   0  0  0  0  0  2  0  0  0  0  0  0
  197.2110  170.5560  146.5130 C   0  0  0  0  0  2  0  0  0  0  0  0
  195.1120  169.1860  146.1220 C   0  0  2  0  0  3  0  0  0  0  0  0
  195.3480  168.8800  144.7630 O   0  0  0  0  0  0  0  0  0  0  0  0
  191.4180  178.7490  144.8450 C   0  0  0  0  0  2  0  0  0  0  0  0
  189.9310  176.8060  143.2550 C   0  0  2  0  0  3  0  0  0  0  0  0
  190.5890  178.0090  142.5890 C   0  0  0  0  0  2  0  0  0  0  0  0
  190.2450  173.9260  144.0390 C   0  0  0  0  0  2  0  0  0  0  0  0
  196.7930  171.5920  144.0470 C   0  0  1  0  0  3  0  0  0  0  0  0
  197.1720  173.0020  144.4950 C   0  0  0  0  0  2  0  0  0  0  0  0
  190.6660  179.1670  143.5830 C   0  0  0  0  0  2  0  0  0  0  0  0
  193.9480  173.5620  139.1940 C   0  0  0  0  0  2  0  0  0  0  0  0
  197.9220  170.3890  144.8370 S   0  0  0  0  0  0  0  0  0  0  0  0
  190.7440  176.3730  144.4840 C   0  0  2  0  0  3  0  0  0  0  0  0
  193.5570  175.3410  140.8310 C   0  0  0  0  0  0  0  0  0  0  0  0
  190.0840  173.2820  141.6590 N   0  0  2  0  0  0  0  0  0  0  0  0
  196.4200  169.3140  146.9100 C   0  0  1  0  0  3  0  0  0  0  0  0
  193.0560  176.4620  141.1140 O   0  0  0  0  0  0  0  0  0  0  0  0
  188.1750  175.4040  142.1300 C   0  0  2  0  0  3  0  0  0  0  0  0
  188.6850  173.3640  141.2040 C   0  0  0  0  0  2  0  0  0  0  0  0
  194.5900  174.0220  145.4150 O   0  0  0  0  0  0  0  0  0  0  0  0
  189.6810  175.6800  142.2470 C   0  0  2  0  0  3  0  0  0  0  0  0
  192.6260  174.8480  146.5020 C   0  0  0  0  0  2  0  0  0  0  0  0
  190.8550  174.5470  146.6320 S   0  0  2  0  0  0  0  0  0  0  0  0
  192.7910  172.5690  139.1310 C   0  0  0  0  0  2  0  0  0  0  0  0
  195.2850  171.3200  144.2790 C   0  0  2  0  0  3  0  0  0  0  0  0
  194.8340  173.8280  144.0300 C   0  0  2  0  0  0  0  0  0  0  0  0
  192.0470  172.4560  140.4530 C   0  0  0  0  0  2  0  0  0  0  0  0
  190.1400  175.0790  145.0500 C   0  0  2  0  0  3  0  0  0  0  0  0
  190.4400  174.3770  142.5780 C   0  0  1  0  0  3  0  0  0  0  0  0
  197.2100  168.1670  146.7870 O   0  0  0  0  0  1  0  0  0  0  0  0
  194.0700  174.8690  143.2020 C   0  0  0  0  0  2  0  0  0  0  0  0
  187.8620  174.0220  142.1420 O   0  0  0  0  0  0  0  0  0  0  0  0
  194.8000  169.8750  143.9030 C   0  0  1  0  0  0  0  0  0  0  0  0
  194.1610  174.5620  141.8180 O   0  0  0  0  0  0  0  0  0  0  0  0
  193.4930  174.8700  139.5220 O   0  0  0  0  0  0  0  0  0  0  0  0
  195.2650  169.5570  142.4990 C   0  0  0  0  0  0  0  0  0  0  0  0
  194.8760  170.3570  141.4310 O   0  0  0  0  0  0  0  0  0  0  0  0
  195.9820  168.5430  142.2750 O   0  0  0  0  0  1  0  0  0  0  0  0
  194.1250  168.2780  148.2770 C   0  0  0  0  0  1  0  0  0  0  0  0
  194.1660  168.1660  146.7610 C   0  0  0  0  0  2  0  0  0  0  0  0
  193.2540  169.7480  143.8760 C   0  0  0  0  0  2  0  0  0  0  0  0
  192.7330  168.3460  143.5850 C   0  0  0  0  0  1  0  0  0  0  0  0
  187.5790  176.1170  140.9220 C   0  0  0  0  0  2  0  0  0  0  0  0
  187.0890  177.4980  141.3200 C   0  0  0  0  0  2  0  0  0  0  0  0
  184.8610  178.0920  142.2110 C   0  0  0  0  0  1  0  0  0  0  0  0
  186.1740  177.4050  142.5280 C   0  0  2  0  0  3  0  0  0  0  0  0
  186.7940  178.0560  143.6710 N   0  0  0  0  0  2  0  0  0  0  0  0
  186.8170  177.0850  144.7500 C   0  0  0  0  0  2  0  0  0  0  0  0
  185.9360  177.5670  145.8820 C   0  0  0  0  0  1  0  0  0  0  0  0
  2 28  1  0  0  0  0
  4 32  1  0  0  0  0
  4 31  1  0  0  0  0
  5 32  1  0  0  0  0
  5 15  1  0  0  0  0
  7 22  1  0  0  0  0
  8 46  1  1  0  0  0
  8 22  1  0  0  0  0
  9  8  1  0  0  0  0
 10  6  1  0  0  0  0
 11 12  1  6  0  0  0
 11 19  1  0  0  0  0
 12 16  1  0  0  0  0
 13 34  1  0  0  0  0
 14 31  1  0  0  0  0
 14 15  1  1  0  0  0
 14 18  1  0  0  0  0
 16 10  1  0  0  0  0
 17 41  1  0  0  0  0
 18  7  1  0  0  0  0
 19 34  1  0  0  0  0
 19  6  1  1  0  0  0
 20 23  2  0  0  0  0
 20 40  1  0  0  0  0
 21  1  1  6  0  0  0
 21 35  1  0  0  0  0
 22 36  1  6  0  0  0
 24 49  1  6  0  0  0
 24 38  1  0  0  0  0
 24 27  1  0  0  0  0
 25 21  1  0  0  0  0
 25 38  1  0  0  0  0
 26  2  1  0  0  0  0
 27 35  1  0  0  0  0
 27 11  1  0  0  0  0
 28 29  1  0  0  0  0
 29  3  2  0  0  0  0
 30 17  1  0  0  0  0
 30 33  1  0  0  0  0
 32 26  1  0  0  0  0
 33  1  1  0  0  0  0
 34 29  1  0  0  0  0
 35 13  1  0  0  0  0
 37 32  1  0  0  0  0
 39 31  1  0  0  0  0
 39  9  1  0  0  0  0
 40 37  1  0  0  0  0
 41 20  1  0  0  0  0
 42 39  1  0  0  0  0
 43 42  2  0  0  0  0
 44 42  1  0  0  0  0
 46 45  1  0  0  0  0
 47 39  1  0  0  0  0
 48 47  1  0  0  0  0
 49 50  1  0  0  0  0
 50 52  1  0  0  0  0
 51 52  1  0  0  0  0
 52 53  1  0  0  0  0
 53 54  1  0  0  0  0
 54 55  1  0  0  0  0
M  END
>  <MODEL>
1

>  <REMARK>
 VINA RESULT:      -5.0      0.000      0.000
  Name = 
  8 active torsions:
  status: ('A' for Active; 'I' for Inactive)
    1  A    between atoms: C_1  and  C_53
    2  A    between atoms: C_6  and  C_53
    3  A    between atoms: C_12  and  C_38
    4  A    between atoms: C_13  and  C_33
    5  A    between atoms: C_13  and  C_48
    6  A    between atoms: C_18  and  N_39
    7  A    between atoms: C_32  and  N_39
    8  A    between atoms: C_32  and  C_48
                            x       y       z     vdW  Elec       q    Type
                         _______ _______ _______ _____ _____    ______ ____

>  <TORSDO>
F 8

$$$$
=
 OpenBabel11052419293D

 55 60  0  0  1  0  0  0  0  0999 V2000
  194.2110  175.2490  142.1740 C   0  0  0  0  0  2  0  0  0  0  0  0
  194.4860  169.5760  141.2320 C   0  0  0  0  0  2  0  0  0  0  0  0
  193.0070  168.2510  144.6200 O   0  0  0  0  0  0  0  0  0  0  0  0
  195.1810  171.4750  139.2990 C   0  0  0  0  0  2  0  0  0  0  0  0
  197.4830  170.5260  139.3770 C   0  0  0  0  0  2  0  0  0  0  0  0
  195.1510  169.9130  145.7230 C   0  0  0  0  0  2  0  0  0  0  0  0
  195.1010  168.1890  136.3220 C   0  0  0  0  0  2  0  0  0  0  0  0
  192.8540  169.3360  136.5920 C   0  0  2  0  0  3  0  0  0  0  0  0
  193.2440  170.6080  136.1160 O   0  0  0  0  0  0  0  0  0  0  0  0
  196.5840  170.1590  146.1900 C   0  0  0  0  0  2  0  0  0  0  0  0
  194.7810  172.3620  145.5500 C   0  0  2  0  0  3  0  0  0  0  0  0
  196.2090  172.6400  146.0050 C   0  0  0  0  0  2  0  0  0  0  0  0
  192.9640  171.9540  143.1970 C   0  0  0  0  0  2  0  0  0  0  0  0
  196.1980  170.4950  137.2180 C   0  0  1  0  0  3  0  0  0  0  0  0
  197.2180  169.7590  138.0850 C   0  0  0  0  0  2  0  0  0  0  0  0
  196.6890  171.5040  146.9090 C   0  0  0  0  0  2  0  0  0  0  0  0
  196.8630  175.5990  140.2270 C   0  0  0  0  0  2  0  0  0  0  0  0
  196.0150  169.6110  135.6280 S   0  0  0  0  0  0  0  0  0  0  0  0
  194.7210  171.0350  144.7790 C   0  0  2  0  0  3  0  0  0  0  0  0
  197.2010  173.8880  141.9460 C   0  0  0  0  0  0  0  0  0  0  0  0
  193.1660  174.3540  142.6500 N   0  0  2  0  0  0  0  0  0  0  0  0
  193.6340  168.2100  135.9040 C   0  0  1  0  0  3  0  0  0  0  0  0
  197.4580  173.5930  143.1440 O   0  0  0  0  0  0  0  0  0  0  0  0
  192.9840  174.1180  145.5270 C   0  0  2  0  0  3  0  0  0  0  0  0
  192.3520  175.1570  143.5770 C   0  0  0  0  0  2  0  0  0  0  0  0
  195.7250  169.4420  140.5800 O   0  0  0  0  0  0  0  0  0  0  0  0
  194.2020  173.5550  144.7820 C   0  0  2  0  0  3  0  0  0  0  0  0
  194.5030  168.8250  142.5420 C   0  0  0  0  0  2  0  0  0  0  0  0
  193.0050  169.2300  143.4540 S   0  0  2  0  0  0  0  0  0  0  0  0
  195.4290  176.1210  140.2020 C   0  0  0  0  0  2  0  0  0  0  0  0
  194.8750  170.7270  137.9920 C   0  0  2  0  0  3  0  0  0  0  0  0
  196.1990  170.7200  140.1840 C   0  0  2  0  0  0  0  0  0  0  0  0
  194.4230  175.0840  140.6800 C   0  0  0  0  0  2  0  0  0  0  0  0
  193.3050  170.8520  144.2140 C   0  0  2  0  0  3  0  0  0  0  0  0
  193.8300  173.2230  143.3210 C   0  0  1  0  0  3  0  0  0  0  0  0
  193.5200  168.2790  134.5130 O   0  0  0  0  0  1  0  0  0  0  0  0
  196.5540  171.5640  141.4150 C   0  0  0  0  0  2  0  0  0  0  0  0
  191.8890  174.3940  144.6700 O   0  0  0  0  0  0  0  0  0  0  0  0
  193.7350  171.4300  137.1710 C   0  0  1  0  0  0  0  0  0  0  0  0
  196.8470  172.8990  141.0290 O   0  0  0  0  0  0  0  0  0  0  0  0
  197.2570  175.2200  141.5400 O   0  0  0  0  0  0  0  0  0  0  0  0
  194.2950  172.6830  136.5370 C   0  0  0  0  0  0  0  0  0  0  0  0
  194.6850  173.7580  137.3280 O   0  0  0  0  0  1  0  0  0  0  0  0
  194.3840  172.7830  135.2820 O   0  0  0  0  0  0  0  0  0  0  0  0
  190.7170  170.0820  135.4460 C   0  0  0  0  0  1  0  0  0  0  0  0
  191.3420  169.1360  136.4590 C   0  0  0  0  0  2  0  0  0  0  0  0
  192.5540  171.8970  138.0620 C   0  0  0  0  0  2  0  0  0  0  0  0
  191.6450  172.9390  137.4230 C   0  0  0  0  0  1  0  0  0  0  0  0
  193.3690  175.3250  146.3740 C   0  0  0  0  0  2  0  0  0  0  0  0
  192.2920  176.3920  146.2810 C   0  0  0  0  0  2  0  0  0  0  0  0
  191.2920  175.2090  148.2070 C   0  0  0  0  0  1  0  0  0  0  0  0
  191.6110  176.5710  147.6260 C   0  0  2  0  0  3  0  0  0  0  0  0
  190.3780  177.3240  147.4610 N   0  0  0  0  0  2  0  0  0  0  0  0
  189.8830  177.0390  146.1260 C   0  0  0  0  0  2  0  0  0  0  0  0
  188.4290  176.6290  146.2030 C   0  0  0  0  0  1  0  0  0  0  0  0
  2 28  1  0  0  0  0
  4 32  1  0  0  0  0
  5 32  1  0  0  0  0
  6 10  1  0  0  0  0
  8 46  1  6  0  0  0
  9  8  1  0  0  0  0
  9 39  1  0  0  0  0
 10 16  1  0  0  0  0
 11 12  1  6  0  0  0
 12 16  1  0  0  0  0
 13 35  1  0  0  0  0
 13 34  1  0  0  0  0
 14 31  1  0  0  0  0
 14 15  1  1  0  0  0
 15  5  1  0  0  0  0
 17 41  1  0  0  0  0
 18  7  1  0  0  0  0
 18 14  1  0  0  0  0
 19 11  1  0  0  0  0
 19  6  1  1  0  0  0
 20 23  2  0  0  0  0
 21  1  1  1  0  0  0
 21 35  1  0  0  0  0
 21 25  1  0  0  0  0
 22 36  1  6  0  0  0
 22  7  1  0  0  0  0
 22  8  1  0  0  0  0
 24 49  1  6  0  0  0
 25 38  1  0  0  0  0
 26  2  1  0  0  0  0
 27 24  1  0  0  0  0
 27 11  1  0  0  0  0
 28 29  1  0  0  0  0
 29 34  1  0  0  0  0
 29  3  2  0  0  0  0
 30 17  1  0  0  0  0
 30 33  1  0  0  0  0
 31  4  1  0  0  0  0
 32 26  1  0  0  0  0
 32 37  1  0  0  0  0
 33  1  1  0  0  0  0
 34 19  1  0  0  0  0
 35 27  1  0  0  0  0
 38 24  1  0  0  0  0
 39 31  1  0  0  0  0
 39 47  1  0  0  0  0
 40 37  1  0  0  0  0
 40 20  1  0  0  0  0
 41 20  1  0  0  0  0
 42 39  1  0  0  0  0
 42 43  1  0  0  0  0
 44 42  2  0  0  0  0
 45 46  1  0  0  0  0
 48 47  1  0  0  0  0
 50 49  1  0  0  0  0
 50 52  1  0  0  0  0
 52 51  1  0  0  0  0
 53 52  1  0  0  0  0
 54 55  1  0  0  0  0
 54 53  1  0  0  0  0
M  END
>  <MODEL>
2

>  <REMARK>
 VINA RESULT:      -5.0      3.347      7.173
  Name = 
  8 active torsions:
  status: ('A' for Active; 'I' for Inactive)
    1  A    between atoms: C_1  and  C_53
    2  A    between atoms: C_6  and  C_53
    3  A    between atoms: C_12  and  C_38
    4  A    between atoms: C_13  and  C_33
    5  A    between atoms: C_13  and  C_48
    6  A    between atoms: C_18  and  N_39
    7  A    between atoms: C_32  and  N_39
    8  A    between atoms: C_32  and  C_48
                            x       y       z     vdW  Elec       q    Type
                         _______ _______ _______ _____ _____    ______ ____

>  <TORSDO>
F 8

$$$$
=
 OpenBabel11052419293D

 55 60  0  0  1  0  0  0  0  0999 V2000
  193.6810  176.5840  143.3670 C   0  0  0  0  0  2  0  0  0  0  0  0
  192.3950  172.1580  139.9180 C   0  0  0  0  0  2  0  0  0  0  0  0
  188.4770  172.2090  140.1770 O   0  0  0  0  0  0  0  0  0  0  0  0
  195.0080  173.0800  140.3000 C   0  0  0  0  0  2  0  0  0  0  0  0
  195.5230  170.8390  141.2610 C   0  0  0  0  0  2  0  0  0  0  0  0
  189.0810  172.0360  143.0370 C   0  0  0  0  0  2  0  0  0  0  0  0
  196.1770  170.6360  136.7890 C   0  0  0  0  0  2  0  0  0  0  0  0
  195.4730  172.9930  136.1660 C   0  0  2  0  0  3  0  0  0  0  0  0
  196.5150  173.6740  136.8350 O   0  0  0  0  0  0  0  0  0  0  0  0
  189.3760  171.2720  144.3260 C   0  0  0  0  0  2  0  0  0  0  0  0
  190.0120  174.1060  144.0440 C   0  0  2  0  0  3  0  0  0  0  0  0
  190.3280  173.3680  145.3400 C   0  0  0  0  0  2  0  0  0  0  0  0
  191.0580  174.9750  141.3680 C   0  0  0  0  0  2  0  0  0  0  0  0
  196.7710  171.6390  139.2330 C   0  0  1  0  0  3  0  0  0  0  0  0
  196.1890  170.4240  139.9530 C   0  0  0  0  0  2  0  0  0  0  0  0
  189.3410  172.2150  145.5270 C   0  0  0  0  0  2  0  0  0  0  0  0
  196.5130  175.0470  144.1160 C   0  0  0  0  0  2  0  0  0  0  0  0
  197.6720  171.0770  137.7440 S   0  0  0  0  0  0  0  0  0  0  0  0
  190.1160  173.1450  142.8510 C   0  0  2  0  0  3  0  0  0  0  0  0
  194.5720  173.5740  144.3600 C   0  0  0  0  0  0  0  0  0  0  0  0
  192.5150  176.6210  142.4950 N   0  0  2  0  0  0  0  0  0  0  0  0
  195.9300  171.6230  135.6530 C   0  0  1  0  0  3  0  0  0  0  0  0
  193.5730  173.2010  145.0320 O   0  0  0  0  0  0  0  0  0  0  0  0
  189.9690  176.6120  143.8680 C   0  0  2  0  0  3  0  0  0  0  0  0
  191.7220  177.7770  142.9470 C   0  0  0  0  0  2  0  0  0  0  0  0
  193.3910  171.2210  140.2510 O   0  0  0  0  0  0  0  0  0  0  0  0
  190.8690  175.3680  143.9020 C   0  0  2  0  0  3  0  0  0  0  0  0
  191.0300  171.6070  140.2550 C   0  0  0  0  0  2  0  0  0  0  0  0
  189.8170  172.9210  140.0540 S   0  0  2  0  0  0  0  0  0  0  0  0
  196.1460  176.3920  143.4940 C   0  0  0  0  0  2  0  0  0  0  0  0
  195.6770  172.7050  138.9690 C   0  0  2  0  0  3  0  0  0  0  0  0
  194.4030  171.8520  141.0200 C   0  0  2  0  0  0  0  0  0  0  0  0
  194.9400  176.2970  142.5710 C   0  0  0  0  0  2  0  0  0  0  0  0
  189.9330  173.9420  141.5510 C   0  0  2  0  0  3  0  0  0  0  0  0
  191.7970  175.3460  142.6690 C   0  0  1  0  0  3  0  0  0  0  0  0
  197.0610  171.7280  134.8380 O   0  0  0  0  0  1  0  0  0  0  0  0
  193.8550  172.2640  142.3920 C   0  0  0  0  0  2  0  0  0  0  0  0
  190.3350  177.5340  142.8570 O   0  0  0  0  0  0  0  0  0  0  0  0
  196.1580  173.9760  138.1810 C   0  0  1  0  0  0  0  0  0  0  0  0
  194.8060  173.0590  143.0860 O   0  0  0  0  0  0  0  0  0  0  0  0
  195.4420  174.5240  144.8920 O   0  0  0  0  0  0  0  0  0  0  0  0
  197.3940  174.5270  138.8570 C   0  0  0  0  0  0  0  0  0  0  0  0
  197.9220  173.8980  139.9780 O   0  0  0  0  0  1  0  0  0  0  0  0
  197.9400  175.5820  138.4330 O   0  0  0  0  0  0  0  0  0  0  0  0
  195.8370  174.9470  134.5890 C   0  0  0  0  0  1  0  0  0  0  0  0
  194.8870  173.8490  135.0410 C   0  0  0  0  0  2  0  0  0  0  0  0
  195.1170  175.1250  138.2000 C   0  0  0  0  0  2  0  0  0  0  0  0
  193.6740  174.6840  137.9920 C   0  0  0  0  0  1  0  0  0  0  0  0
  189.8890  177.2690  145.2410 C   0  0  0  0  0  2  0  0  0  0  0  0
  188.6210  176.8350  145.9540 C   0  0  0  0  0  2  0  0  0  0  0  0
  186.3690  177.5350  146.6970 C   0  0  0  0  0  1  0  0  0  0  0  0
  187.5500  177.9020  145.8210 C   0  0  2  0  0  3  0  0  0  0  0  0
  187.1110  177.9940  144.4380 N   0  0  0  0  0  2  0  0  0  0  0  0
  186.0210  177.0480  144.2750 C   0  0  0  0  0  2  0  0  0  0  0  0
  186.2570  176.2150  143.0340 C   0  0  0  0  0  1  0  0  0  0  0  0
  2 26  1  0  0  0  0
  2 28  1  0  0  0  0
  4 32  1  0  0  0  0
  6 10  1  0  0  0  0
  7 18  1  0  0  0  0
  8 46  1  6  0  0  0
  8  9  1  0  0  0  0
  9 39  1  0  0  0  0
 10 16  1  0  0  0  0
 11 12  1  1  0  0  0
 12 16  1  0  0  0  0
 13 34  1  0  0  0  0
 13 35  1  0  0  0  0
 14 15  1  6  0  0  0
 15  5  1  0  0  0  0
 17 41  1  0  0  0  0
 18 14  1  0  0  0  0
 19  6  1  1  0  0  0
 19 11  1  0  0  0  0
 20 41  1  0  0  0  0
 20 23  2  0  0  0  0
 21 35  1  0  0  0  0
 21 25  1  1  0  0  0
 21  1  1  0  0  0  0
 22 36  1  1  0  0  0
 22  8  1  0  0  0  0
 22  7  1  0  0  0  0
 24 27  1  0  0  0  0
 24 49  1  1  0  0  0
 26 32  1  0  0  0  0
 27 11  1  0  0  0  0
 29  3  2  0  0  0  0
 29 28  1  0  0  0  0
 29 34  1  0  0  0  0
 30 17  1  0  0  0  0
 31 14  1  0  0  0  0
 31  4  1  0  0  0  0
 32  5  1  0  0  0  0
 32 37  1  0  0  0  0
 33  1  1  0  0  0  0
 33 30  1  0  0  0  0
 34 19  1  0  0  0  0
 35 27  1  0  0  0  0
 37 40  1  0  0  0  0
 38 25  1  0  0  0  0
 38 24  1  0  0  0  0
 39 47  1  0  0  0  0
 39 42  1  0  0  0  0
 39 31  1  0  0  0  0
 40 20  1  0  0  0  0
 42 43  1  0  0  0  0
 44 42  2  0  0  0  0
 45 46  1  0  0  0  0
 48 47  1  0  0  0  0
 49 50  1  0  0  0  0
 52 50  1  0  0  0  0
 52 51  1  0  0  0  0
 53 52  1  0  0  0  0
 54 53  1  0  0  0  0
 55 54  1  0  0  0  0
M  END
>  <MODEL>
3

>  <REMARK>
 VINA RESULT:      -4.9      3.156      6.542
  Name = 
  8 active torsions:
  status: ('A' for Active; 'I' for Inactive)
    1  A    between atoms: C_1  and  C_53
    2  A    between atoms: C_6  and  C_53
    3  A    between atoms: C_12  and  C_38
    4  A    between atoms: C_13  and  C_33
    5  A    between atoms: C_13  and  C_48
    6  A    between atoms: C_18  and  N_39
    7  A    between atoms: C_32  and  N_39
    8  A    between atoms: C_32  and  C_48
                            x       y       z     vdW  Elec       q    Type
                         _______ _______ _______ _____ _____    ______ ____

>  <TORSDO>
F 8

$$$$
=
 OpenBabel11052419293D

 55 60  0  0  1  0  0  0  0  0999 V2000
  188.9360  173.1130  144.2960 C   0  0  0  0  0  2  0  0  0  0  0  0
  194.4650  174.4370  143.3930 C   0  0  0  0  0  2  0  0  0  0  0  0
  194.9320  177.2730  146.0690 O   0  0  0  0  0  0  0  0  0  0  0  0
  193.1610  172.3550  142.0560 C   0  0  0  0  0  2  0  0  0  0  0  0
  193.5910  173.6100  139.9470 C   0  0  0  0  0  2  0  0  0  0  0  0
  192.6400  178.4140  144.6480 C   0  0  0  0  0  2  0  0  0  0  0  0
  197.1590  170.9480  140.7520 C   0  0  0  0  0  2  0  0  0  0  0  0
  196.4270  169.9410  142.9620 C   0  0  2  0  0  3  0  0  0  0  0  0
  195.3150  169.2210  142.4720 O   0  0  0  0  0  0  0  0  0  0  0  0
  191.9980  179.2550  143.5460 C   0  0  0  0  0  2  0  0  0  0  0  0
  190.4790  177.2540  145.0280 C   0  0  2  0  0  3  0  0  0  0  0  0
  189.8120  178.0710  143.9280 C   0  0  0  0  0  2  0  0  0  0  0  0
  191.9270  174.7110  145.6980 C   0  0  0  0  0  2  0  0  0  0  0  0
  194.5260  171.2960  140.2290 C   0  0  1  0  0  3  0  0  0  0  0  0
  194.7550  172.6780  139.6210 C   0  0  0  0  0  2  0  0  0  0  0  0
  190.5030  179.4290  143.8080 C   0  0  0  0  0  2  0  0  0  0  0  0
  188.7140  172.2950  141.0980 C   0  0  0  0  0  2  0  0  0  0  0  0
  195.8760  170.1800  139.7010 S   0  0  0  0  0  0  0  0  0  0  0  0
  191.9650  177.0450  144.7050 C   0  0  2  0  0  3  0  0  0  0  0  0
  189.7150  174.5070  141.4170 C   0  0  0  0  0  0  0  0  0  0  0  0
  189.8190  173.4570  145.4010 N   0  0  2  0  0  0  0  0  0  0  0  0
  197.5430  170.0420  141.9170 C   0  0  1  0  0  3  0  0  0  0  0  0
  189.5730  175.7350  141.6600 O   0  0  0  0  0  0  0  0  0  0  0  0
  189.1850  175.9430  146.7380 C   0  0  2  0  0  3  0  0  0  0  0  0
  188.9360  173.6650  146.5610 C   0  0  0  0  0  2  0  0  0  0  0  0
  194.5600  174.3830  141.9900 O   0  0  0  0  0  0  0  0  0  0  0  0
  189.7130  175.9540  145.2960 C   0  0  2  0  0  3  0  0  0  0  0  0
  194.7580  175.8360  143.8800 C   0  0  0  0  0  2  0  0  0  0  0  0
  194.3800  175.9220  145.6380 S   0  0  2  0  0  0  0  0  0  0  0  0
  188.5030  171.5580  142.4190 C   0  0  0  0  0  2  0  0  0  0  0  0
  194.3190  171.3890  141.7630 C   0  0  2  0  0  3  0  0  0  0  0  0
  193.4020  173.7590  141.4570 C   0  0  2  0  0  0  0  0  0  0  0  0
  189.5110  171.9690  143.4820 C   0  0  0  0  0  2  0  0  0  0  0  0
  192.5770  176.1040  145.7530 C   0  0  2  0  0  3  0  0  0  0  0  0
  190.5430  174.6820  145.0200 C   0  0  1  0  0  3  0  0  0  0  0  0
  197.9300  168.7810  141.4520 O   0  0  0  0  0  1  0  0  0  0  0  0
  192.1680  174.6440  141.6780 C   0  0  0  0  0  2  0  0  0  0  0  0
  189.3970  174.7060  147.3960 O   0  0  0  0  0  0  0  0  0  0  0  0
  194.1310  170.0130  142.4960 C   0  0  1  0  0  0  0  0  0  0  0  0
  190.9870  173.9430  141.3160 O   0  0  0  0  0  0  0  0  0  0  0  0
  188.5880  173.7020  141.2610 O   0  0  0  0  0  0  0  0  0  0  0  0
  193.0530  169.2260  141.7850 C   0  0  0  0  0  0  0  0  0  0  0  0
  191.7150  169.5730  141.9340 O   0  0  0  0  0  1  0  0  0  0  0  0
  193.3510  168.2270  141.0750 O   0  0  0  0  0  0  0  0  0  0  0  0
  197.1190  170.3880  145.3620 C   0  0  0  0  0  1  0  0  0  0  0  0
  196.9370  169.3410  144.2750 C   0  0  0  0  0  2  0  0  0  0  0  0
  193.6410  170.1750  143.9590 C   0  0  0  0  0  2  0  0  0  0  0  0
  193.2710  168.8720  144.6580 C   0  0  0  0  0  1  0  0  0  0  0  0
  187.7260  176.3790  146.7920 C   0  0  0  0  0  2  0  0  0  0  0  0
  187.1780  176.5420  145.3850 C   0  0  0  0  0  2  0  0  0  0  0  0
  185.0550  177.1010  146.5210 C   0  0  0  0  0  1  0  0  0  0  0  0
  185.9880  177.4840  145.3900 C   0  0  2  0  0  3  0  0  0  0  0  0
  185.2750  177.3900  144.1260 N   0  0  0  0  0  2  0  0  0  0  0  0
  185.5790  178.5960  143.3770 C   0  0  0  0  0  2  0  0  0  0  0  0
  185.5720  179.7860  144.3130 C   0  0  0  0  0  1  0  0  0  0  0  0
  2 28  1  0  0  0  0
  5 32  1  0  0  0  0
  7 22  1  0  0  0  0
  8 46  1  1  0  0  0
  9 39  1  0  0  0  0
  9  8  1  0  0  0  0
 10 16  1  0  0  0  0
 10  6  1  0  0  0  0
 11 12  1  6  0  0  0
 11 27  1  0  0  0  0
 13 34  1  0  0  0  0
 14 15  1  1  0  0  0
 14 31  1  0  0  0  0
 15  5  1  0  0  0  0
 16 12  1  0  0  0  0
 17 41  1  0  0  0  0
 17 30  1  0  0  0  0
 18 14  1  0  0  0  0
 18  7  1  0  0  0  0
 19  6  1  1  0  0  0
 19 11  1  0  0  0  0
 19 34  1  0  0  0  0
 20 23  2  0  0  0  0
 21  1  1  6  0  0  0
 21 25  1  0  0  0  0
 22 36  1  6  0  0  0
 22  8  1  0  0  0  0
 24 49  1  6  0  0  0
 24 38  1  0  0  0  0
 25 38  1  0  0  0  0
 26  2  1  0  0  0  0
 27 24  1  0  0  0  0
 28 29  1  0  0  0  0
 29 34  1  0  0  0  0
 29  3  2  0  0  0  0
 30 33  1  0  0  0  0
 31  4  1  0  0  0  0
 31 39  1  0  0  0  0
 32 37  1  0  0  0  0
 32 26  1  0  0  0  0
 32  4  1  0  0  0  0
 33  1  1  0  0  0  0
 35 27  1  0  0  0  0
 35 21  1  0  0  0  0
 35 13  1  0  0  0  0
 39 47  1  0  0  0  0
 40 20  1  0  0  0  0
 40 37  1  0  0  0  0
 41 20  1  0  0  0  0
 42 43  1  0  0  0  0
 42 39  1  0  0  0  0
 44 42  2  0  0  0  0
 46 45  1  0  0  0  0
 47 48  1  0  0  0  0
 50 52  1  0  0  0  0
 50 49  1  0  0  0  0
 52 51  1  0  0  0  0
 53 52  1  0  0  0  0
 54 53  1  0  0  0  0
 54 55  1  0  0  0  0
M  END
>  <MODEL>
4

>  <REMARK>
 VINA RESULT:      -3.8      2.093      3.758
  Name = 
  8 active torsions:
  status: ('A' for Active; 'I' for Inactive)
    1  A    between atoms: C_1  and  C_53
    2  A    between atoms: C_6  and  C_53
    3  A    between atoms: C_12  and  C_38
    4  A    between atoms: C_13  and  C_33
    5  A    between atoms: C_13  and  C_48
    6  A    between atoms: C_18  and  N_39
    7  A    between atoms: C_32  and  N_39
    8  A    between atoms: C_32  and  C_48
                            x       y       z     vdW  Elec       q    Type
                         _______ _______ _______ _____ _____    ______ ____

>  <TORSDO>
F 8

$$$$
=
 OpenBabel11052419293D

 55 60  0  0  1  0  0  0  0  0999 V2000
  188.7360  173.0280  143.8570 C   0  0  0  0  0  2  0  0  0  0  0  0
  194.3330  173.7960  142.7500 C   0  0  0  0  0  2  0  0  0  0  0  0
  195.3260  176.0570  145.8040 O   0  0  0  0  0  0  0  0  0  0  0  0
  192.6880  172.1470  141.2010 C   0  0  0  0  0  2  0  0  0  0  0  0
  193.1630  173.6800  139.2950 C   0  0  0  0  0  2  0  0  0  0  0  0
  193.1320  177.6960  144.7680 C   0  0  0  0  0  2  0  0  0  0  0  0
  196.3810  170.5020  139.3790 C   0  0  0  0  0  2  0  0  0  0  0  0
  195.6470  169.2320  141.4490 C   0  0  2  0  0  3  0  0  0  0  0  0
  194.4220  168.7480  140.9370 O   0  0  0  0  0  0  0  0  0  0  0  0
  192.5480  178.7850  143.8700 C   0  0  0  0  0  2  0  0  0  0  0  0
  190.8600  176.7620  145.1240 C   0  0  2  0  0  3  0  0  0  0  0  0
  190.2480  177.8300  144.2250 C   0  0  0  0  0  2  0  0  0  0  0  0
  191.9890  173.9840  145.2600 C   0  0  0  0  0  2  0  0  0  0  0  0
  193.7940  171.2550  139.1260 C   0  0  1  0  0  3  0  0  0  0  0  0
  194.1700  172.6820  138.7330 C   0  0  0  0  0  2  0  0  0  0  0  0
  191.1070  179.0940  144.2730 C   0  0  0  0  0  2  0  0  0  0  0  0
  188.2260  172.7980  140.5960 C   0  0  0  0  0  2  0  0  0  0  0  0
  194.9490  170.0880  138.3220 S   0  0  0  0  0  0  0  0  0  0  0  0
  192.2840  176.4300  144.6560 C   0  0  2  0  0  3  0  0  0  0  0  0
  189.5310  174.7840  141.1880 C   0  0  0  0  0  0  0  0  0  0  0  0
  189.7190  173.0680  144.9300 N   0  0  2  0  0  0  0  0  0  0  0  0
  196.7050  169.3710  140.3490 C   0  0  1  0  0  3  0  0  0  0  0  0
  189.5690  175.9610  141.6360 O   0  0  0  0  0  0  0  0  0  0  0  0
  189.5000  175.3490  146.6960 C   0  0  2  0  0  3  0  0  0  0  0  0
  188.9380  173.1820  146.1740 C   0  0  0  0  0  2  0  0  0  0  0  0
  194.3400  173.9690  141.3540 O   0  0  0  0  0  0  0  0  0  0  0  0
  189.9420  175.5400  145.2380 C   0  0  2  0  0  3  0  0  0  0  0  0
  194.8380  175.0450  143.4320 C   0  0  0  0  0  2  0  0  0  0  0  0
  194.5750  174.8770  145.2050 S   0  0  2  0  0  0  0  0  0  0  0  0
  187.9930  171.8800  141.7930 C   0  0  0  0  0  2  0  0  0  0  0  0
  193.6880  171.1110  140.6660 C   0  0  2  0  0  3  0  0  0  0  0  0
  193.0810  173.5930  140.8190 C   0  0  2  0  0  0  0  0  0  0  0  0
  189.1060  171.9770  142.8270 C   0  0  0  0  0  2  0  0  0  0  0  0
  192.8220  175.2570  145.4880 C   0  0  2  0  0  3  0  0  0  0  0  0
  190.5780  174.2410  144.6960 C   0  0  1  0  0  3  0  0  0  0  0  0
  196.8920  168.1700  139.6590 O   0  0  0  0  0  1  0  0  0  0  0  0
  191.9910  174.5730  141.2760 C   0  0  0  0  0  2  0  0  0  0  0  0
  189.5810  174.0010  147.1270 O   0  0  0  0  0  0  0  0  0  0  0  0
  193.3580  169.6640  141.1810 C   0  0  1  0  0  0  0  0  0  0  0  0
  190.7080  174.0940  140.8990 O   0  0  0  0  0  0  0  0  0  0  0  0
  188.3000  174.1620  140.9930 O   0  0  0  0  0  0  0  0  0  0  0  0
  192.1460  169.1480  140.4380 C   0  0  0  0  0  0  0  0  0  0  0  0
  190.8980  169.7260  140.6420 O   0  0  0  0  0  1  0  0  0  0  0  0
  192.2450  168.1670  139.6520 O   0  0  0  0  0  0  0  0  0  0  0  0
  196.4550  169.1680  143.8530 C   0  0  0  0  0  1  0  0  0  0  0  0
  196.1450  168.3600  142.6040 C   0  0  0  0  0  2  0  0  0  0  0  0
  192.9780  169.6330  142.6850 C   0  0  0  0  0  2  0  0  0  0  0  0
  192.5840  168.2620  143.2170 C   0  0  0  0  0  1  0  0  0  0  0  0
  188.1190  175.9450  146.9330 C   0  0  0  0  0  2  0  0  0  0  0  0
  187.4960  176.3610  145.6120 C   0  0  0  0  0  2  0  0  0  0  0  0
  186.1300  177.5810  147.2720 C   0  0  0  0  0  1  0  0  0  0  0  0
  186.5560  177.5340  145.8190 C   0  0  2  0  0  3  0  0  0  0  0  0
  185.3790  177.3820  144.9780 N   0  0  0  0  0  2  0  0  0  0  0  0
  184.7580  178.6910  144.8770 C   0  0  0  0  0  2  0  0  0  0  0  0
  185.5560  179.5550  143.9240 C   0  0  0  0  0  1  0  0  0  0  0  0
  2 28  1  0  0  0  0
  5 32  1  0  0  0  0
  7 22  1  0  0  0  0
  8 46  1  1  0  0  0
  9 39  1  0  0  0  0
  9  8  1  0  0  0  0
 10 16  1  0  0  0  0
 10  6  1  0  0  0  0
 11 12  1  6  0  0  0
 11 27  1  0  0  0  0
 12 16  1  0  0  0  0
 13 34  1  0  0  0  0
 14 15  1  1  0  0  0
 14 31  1  0  0  0  0
 15  5  1  0  0  0  0
 17 41  1  0  0  0  0
 17 30  1  0  0  0  0
 18 14  1  0  0  0  0
 18  7  1  0  0  0  0
 19  6  1  1  0  0  0
 19 11  1  0  0  0  0
 19 34  1  0  0  0  0
 20 23  2  0  0  0  0
 21  1  1  6  0  0  0
 21 25  1  0  0  0  0
 22 36  1  6  0  0  0
 22  8  1  0  0  0  0
 24 49  1  6  0  0  0
 24 38  1  0  0  0  0
 25 38  1  0  0  0  0
 26  2  1  0  0  0  0
 27 24  1  0  0  0  0
 28 29  1  0  0  0  0
 29 34  1  0  0  0  0
 29  3  2  0  0  0  0
 30 33  1  0  0  0  0
 31 39  1  0  0  0  0
 31  4  1  0  0  0  0
 32  4  1  0  0  0  0
 32 37  1  0  0  0  0
 32 26  1  0  0  0  0
 33  1  1  0  0  0  0
 35 21  1  0  0  0  0
 35 27  1  0  0  0  0
 35 13  1  0  0  0  0
 39 47  1  0  0  0  0
 40 20  1  0  0  0  0
 40 37  1  0  0  0  0
 41 20  1  0  0  0  0
 42 43  1  0  0  0  0
 42 39  1  0  0  0  0
 44 42  2  0  0  0  0
 46 45  1  0  0  0  0
 47 48  1  0  0  0  0
 50 52  1  0  0  0  0
 50 49  1  0  0  0  0
 52 51  1  0  0  0  0
 53 52  1  0  0  0  0
 54 53  1  0  0  0  0
 55 54  1  0  0  0  0
M  END
>  <MODEL>
5

>  <REMARK>
 VINA RESULT:      -3.6      2.405      4.252
  Name = 
  8 active torsions:
  status: ('A' for Active; 'I' for Inactive)
    1  A    between atoms: C_1  and  C_53
    2  A    between atoms: C_6  and  C_53
    3  A    between atoms: C_12  and  C_38
    4  A    between atoms: C_13  and  C_33
    5  A    between atoms: C_13  and  C_48
    6  A    between atoms: C_18  and  N_39
    7  A    between atoms: C_32  and  N_39
    8  A    between atoms: C_32  and  C_48
                            x       y       z     vdW  Elec       q    Type
                         _______ _______ _______ _____ _____    ______ ____

>  <TORSDO>
F 8

$$$$
=
 OpenBabel11052419293D

 55 60  0  0  1  0  0  0  0  0999 V2000
  193.5310  174.2540  143.8560 C   0  0  0  0  0  2  0  0  0  0  0  0
  192.1900  171.8030  138.8220 C   0  0  0  0  0  2  0  0  0  0  0  0
  189.1350  174.0360  137.7700 O   0  0  0  0  0  0  0  0  0  0  0  0
  194.3970  171.0240  140.3540 C   0  0  0  0  0  2  0  0  0  0  0  0
  193.3120  168.7900  140.5500 C   0  0  0  0  0  2  0  0  0  0  0  0
  188.1550  173.2020  140.4000 C   0  0  0  0  0  2  0  0  0  0  0  0
  195.8360  168.8020  136.7960 C   0  0  0  0  0  2  0  0  0  0  0  0
  196.6710  171.1970  136.8730 C   0  0  2  0  0  3  0  0  0  0  0  0
  197.4480  171.0780  138.0470 O   0  0  0  0  0  0  0  0  0  0  0  0
  187.4180  172.2530  141.3440 C   0  0  0  0  0  2  0  0  0  0  0  0
  189.3180  174.2340  142.3350 C   0  0  2  0  0  3  0  0  0  0  0  0
  188.6060  173.2960  143.3020 C   0  0  0  0  0  2  0  0  0  0  0  0
  191.7710  174.6780  140.6640 C   0  0  0  0  0  2  0  0  0  0  0  0
  195.5790  168.9820  139.4850 C   0  0  1  0  0  3  0  0  0  0  0  0
  194.2470  168.2340  139.4800 C   0  0  0  0  0  2  0  0  0  0  0  0
  187.2500  172.8940  142.7210 C   0  0  0  0  0  2  0  0  0  0  0  0
  194.6130  171.3040  144.8890 C   0  0  0  0  0  2  0  0  0  0  0  0
  196.7100  168.1950  138.2820 S   0  0  0  0  0  0  0  0  0  0  0  0
  189.5270  173.5400  140.9820 C   0  0  2  0  0  3  0  0  0  0  0  0
  192.3650  171.1760  143.9260 C   0  0  0  0  0  0  0  0  0  0  0  0
  193.0820  175.0520  142.7230 N   0  0  2  0  0  0  0  0  0  0  0  0
  196.6370  169.8850  136.0810 C   0  0  1  0  0  3  0  0  0  0  0  0
  191.1240  171.3560  144.0460 O   0  0  0  0  0  0  0  0  0  0  0  0
  190.5060  176.3220  143.0750 C   0  0  2  0  0  3  0  0  0  0  0  0
  192.7950  176.3880  143.2730 C   0  0  0  0  0  2  0  0  0  0  0  0
  192.3570  170.4340  139.1030 O   0  0  0  0  0  0  0  0  0  0  0  0
  190.6050  174.7940  142.9510 C   0  0  2  0  0  3  0  0  0  0  0  0
  190.7500  172.0870  138.4650 C   0  0  0  0  0  2  0  0  0  0  0  0
  190.5270  173.8710  138.3640 S   0  0  2  0  0  0  0  0  0  0  0  0
  195.2420  172.6830  144.7120 C   0  0  0  0  0  2  0  0  0  0  0  0
  195.3630  170.5030  139.2790 C   0  0  2  0  0  3  0  0  0  0  0  0
  193.0420  170.2790  140.3360 C   0  0  2  0  0  0  0  0  0  0  0  0
  194.7280  173.4030  143.4740 C   0  0  0  0  0  2  0  0  0  0  0  0
  190.3680  174.4520  140.0770 C   0  0  2  0  0  3  0  0  0  0  0  0
  191.8800  174.4000  142.1760 C   0  0  1  0  0  3  0  0  0  0  0  0
  197.9240  169.4290  135.7830 O   0  0  0  0  0  1  0  0  0  0  0  0
  192.1640  170.7580  141.5000 C   0  0  0  0  0  2  0  0  0  0  0  0
  191.6810  176.9880  142.6480 O   0  0  0  0  0  0  0  0  0  0  0  0
  196.6770  171.3610  139.2110 C   0  0  1  0  0  0  0  0  0  0  0  0
  192.9130  170.7800  142.7070 O   0  0  0  0  0  0  0  0  0  0  0  0
  193.2000  171.3900  145.0220 O   0  0  0  0  0  0  0  0  0  0  0  0
  197.5380  171.0260  140.4090 C   0  0  0  0  0  0  0  0  0  0  0  0
  197.9290  172.0220  141.2960 O   0  0  0  0  0  1  0  0  0  0  0  0
  197.9410  169.8460  140.5990 O   0  0  0  0  0  0  0  0  0  0  0  0
  196.0260  173.0020  135.2110 C   0  0  0  0  0  1  0  0  0  0  0  0
  197.1520  172.3650  136.0090 C   0  0  0  0  0  2  0  0  0  0  0  0
  196.4050  172.8860  139.3000 C   0  0  0  0  0  2  0  0  0  0  0  0
  195.0030  173.3100  138.8800 C   0  0  0  0  0  1  0  0  0  0  0  0
  190.0930  176.7330  144.4820 C   0  0  0  0  0  2  0  0  0  0  0  0
  188.7180  177.3780  144.4550 C   0  0  0  0  0  2  0  0  0  0  0  0
  188.6140  175.8450  146.3920 C   0  0  0  0  0  1  0  0  0  0  0  0
  187.9450  177.0230  145.7120 C   0  0  2  0  0  3  0  0  0  0  0  0
  186.5770  176.6660  145.3690 N   0  0  0  0  0  2  0  0  0  0  0  0
  185.7470  177.8120  145.6920 C   0  0  0  0  0  2  0  0  0  0  0  0
  185.1960  178.4130  144.4170 C   0  0  0  0  0  1  0  0  0  0  0  0
  2 26  1  0  0  0  0
  3 29  2  0  0  0  0
  6 10  1  0  0  0  0
  7 18  1  0  0  0  0
  8 46  1  6  0  0  0
  8  9  1  0  0  0  0
  9 39  1  0  0  0  0
 10 16  1  0  0  0  0
 11 27  1  0  0  0  0
 11 12  1  1  0  0  0
 13 35  1  0  0  0  0
 14 15  1  6  0  0  0
 15  5  1  0  0  0  0
 16 12  1  0  0  0  0
 17 41  1  0  0  0  0
 18 14  1  0  0  0  0
 19  6  1  6  0  0  0
 19 11  1  0  0  0  0
 20 23  2  0  0  0  0
 20 41  1  0  0  0  0
 21 25  1  1  0  0  0
 21  1  1  0  0  0  0
 22 36  1  1  0  0  0
 22  7  1  0  0  0  0
 22  8  1  0  0  0  0
 24 49  1  1  0  0  0
 26 32  1  0  0  0  0
 27 24  1  0  0  0  0
 28  2  1  0  0  0  0
 29 28  1  0  0  0  0
 29 34  1  0  0  0  0
 30 17  1  0  0  0  0
 31 14  1  0  0  0  0
 31  4  1  0  0  0  0
 32  4  1  0  0  0  0
 32  5  1  0  0  0  0
 32 37  1  0  0  0  0
 33  1  1  0  0  0  0
 33 30  1  0  0  0  0
 34 13  1  0  0  0  0
 34 19  1  0  0  0  0
 35 21  1  0  0  0  0
 35 27  1  0  0  0  0
 37 40  1  0  0  0  0
 38 24  1  0  0  0  0
 38 25  1  0  0  0  0
 39 31  1  0  0  0  0
 39 47  1  0  0  0  0
 39 42  1  0  0  0  0
 40 20  1  0  0  0  0
 42 44  2  0  0  0  0
 42 43  1  0  0  0  0
 45 46  1  0  0  0  0
 48 47  1  0  0  0  0
 50 49  1  0  0  0  0
 50 52  1  0  0  0  0
 52 51  1  0  0  0  0
 53 54  1  0  0  0  0
 53 52  1  0  0  0  0
 55 54  1  0  0  0  0
M  END
>  <MODEL>
6

>  <REMARK>
 VINA RESULT:      -2.9      3.165      6.445
  Name = 
  8 active torsions:
  status: ('A' for Active; 'I' for Inactive)
    1  A    between atoms: C_1  and  C_53
    2  A    between atoms: C_6  and  C_53
    3  A    between atoms: C_12  and  C_38
    4  A    between atoms: C_13  and  C_33
    5  A    between atoms: C_13  and  C_48
    6  A    between atoms: C_18  and  N_39
    7  A    between atoms: C_32  and  N_39
    8  A    between atoms: C_32  and  C_48
                            x       y       z     vdW  Elec       q    Type
                         _______ _______ _______ _____ _____    ______ ____

>  <TORSDO>
F 8

$$$$
=
 OpenBabel11052419293D

 55 60  0  0  1  0  0  0  0  0999 V2000
  197.1310  172.8770  142.6440 C   0  0  0  0  0  2  0  0  0  0  0  0
  191.4630  173.7660  142.1750 C   0  0  0  0  0  2  0  0  0  0  0  0
  190.3950  170.4290  140.4000 O   0  0  0  0  0  0  0  0  0  0  0  0
  193.1790  175.5460  143.4830 C   0  0  0  0  0  2  0  0  0  0  0  0
  192.5370  177.2300  141.7630 C   0  0  0  0  0  2  0  0  0  0  0  0
  192.4310  171.2890  138.4790 C   0  0  0  0  0  2  0  0  0  0  0  0
  189.5650  177.4900  145.1640 C   0  0  0  0  0  2  0  0  0  0  0  0
  190.4520  175.6150  146.6250 C   0  0  2  0  0  3  0  0  0  0  0  0
  191.6940  176.2090  146.9450 O   0  0  0  0  0  0  0  0  0  0  0  0
  192.9070  172.0520  137.2450 C   0  0  0  0  0  2  0  0  0  0  0  0
  194.7760  171.1000  139.2730 C   0  0  2  0  0  3  0  0  0  0  0  0
  195.2810  171.8670  138.0570 C   0  0  0  0  0  2  0  0  0  0  0  0
  193.8590  171.2990  142.1250 C   0  0  0  0  0  2  0  0  0  0  0  0
  192.0820  177.6950  144.1890 C   0  0  1  0  0  3  0  0  0  0  0  0
  191.5900  177.8950  142.7570 C   0  0  0  0  0  2  0  0  0  0  0  0
  194.3330  171.6410  136.8790 C   0  0  0  0  0  2  0  0  0  0  0  0
  197.5610  176.1490  142.4200 C   0  0  0  0  0  2  0  0  0  0  0  0
  190.9930  178.6190  145.3300 S   0  0  0  0  0  0  0  0  0  0  0  0
  193.3670  171.5790  139.6520 C   0  0  2  0  0  3  0  0  0  0  0  0
  196.1310  175.2830  140.6310 C   0  0  0  0  0  0  0  0  0  0  0  0
  196.1800  171.7880  142.8150 N   0  0  2  0  0  0  0  0  0  0  0  0
  189.3540  176.6670  146.4300 C   0  0  1  0  0  3  0  0  0  0  0  0
  196.0200  174.6870  139.5270 O   0  0  0  0  0  0  0  0  0  0  0  0
  196.2810  169.7490  140.7650 C   0  0  2  0  0  3  0  0  0  0  0  0
  196.9860  170.5550  142.7990 C   0  0  0  0  0  2  0  0  0  0  0  0
  191.4020  175.1280  141.8270 O   0  0  0  0  0  0  0  0  0  0  0  0
  195.7840  171.1620  140.4260 C   0  0  2  0  0  3  0  0  0  0  0  0
  190.8870  172.9200  141.0640 C   0  0  0  0  0  2  0  0  0  0  0  0
  191.2140  171.1890  141.4340 S   0  0  2  0  0  0  0  0  0  0  0  0
  197.8960  175.0850  143.4610 C   0  0  0  0  0  2  0  0  0  0  0  0
  192.2430  176.1890  144.5180 C   0  0  2  0  0  3  0  0  0  0  0  0
  192.6700  175.7310  142.0350 C   0  0  2  0  0  0  0  0  0  0  0  0
  196.8100  174.0260  143.5820 C   0  0  0  0  0  2  0  0  0  0  0  0
  192.9420  170.8940  140.9590 C   0  0  2  0  0  3  0  0  0  0  0  0
  195.2310  171.8530  141.6910 C   0  0  1  0  0  3  0  0  0  0  0  0
  189.2360  177.5010  147.5460 O   0  0  0  0  0  1  0  0  0  0  0  0
  193.6970  175.1740  141.0400 C   0  0  0  0  0  2  0  0  0  0  0  0
  196.3130  169.4930  142.1580 O   0  0  0  0  0  0  0  0  0  0  0  0
  192.6940  175.8700  145.9880 C   0  0  1  0  0  0  0  0  0  0  0  0
  195.0000  175.6350  141.3680 O   0  0  0  0  0  0  0  0  0  0  0  0
  197.3990  175.5790  141.1270 O   0  0  0  0  0  0  0  0  0  0  0  0
  193.9180  176.6960  146.3110 C   0  0  0  0  0  0  0  0  0  0  0  0
  195.0820  176.5520  145.5640 O   0  0  0  0  0  0  0  0  0  0  0  0
  193.9110  177.5010  147.2830 O   0  0  0  0  0  1  0  0  0  0  0  0
  188.5460  174.4570  147.8360 C   0  0  0  0  0  1  0  0  0  0  0  0
  190.0530  174.5720  147.6720 C   0  0  0  0  0  2  0  0  0  0  0  0
  193.1190  174.3900  146.1790 C   0  0  0  0  0  2  0  0  0  0  0  0
  192.3410  173.3880  145.3360 C   0  0  0  0  0  1  0  0  0  0  0  0
  197.6220  169.4650  140.0990 C   0  0  0  0  0  2  0  0  0  0  0  0
  197.5450  168.1750  139.3010 C   0  0  0  0  0  2  0  0  0  0  0  0
  197.9410  169.9020  137.5770 C   0  0  0  0  0  1  0  0  0  0  0  0
  197.4810  168.4780  137.8150 C   0  0  2  0  0  3  0  0  0  0  0  0
  196.1170  168.3280  137.3360 N   0  0  0  0  0  2  0  0  0  0  0  0
  196.1600  168.4530  135.8900 C   0  0  0  0  0  2  0  0  0  0  0  0
  194.7880  168.1660  135.3170 C   0  0  0  0  0  1  0  0  0  0  0  0
  1 33  1  0  0  0  0
  3 29  2  0  0  0  0
  4 31  1  0  0  0  0
  5 32  1  0  0  0  0
  5 15  1  0  0  0  0
  7 18  1  0  0  0  0
  7 22  1  0  0  0  0
  8  9  1  0  0  0  0
  8 46  1  1  0  0  0
 10  6  1  0  0  0  0
 11 12  1  6  0  0  0
 11 19  1  0  0  0  0
 11 27  1  0  0  0  0
 14 15  1  6  0  0  0
 14 31  1  0  0  0  0
 14 18  1  0  0  0  0
 16 10  1  0  0  0  0
 16 12  1  0  0  0  0
 17 30  1  0  0  0  0
 19  6  1  6  0  0  0
 19 34  1  0  0  0  0
 20 41  1  0  0  0  0
 20 40  1  0  0  0  0
 21  1  1  6  0  0  0
 22  8  1  0  0  0  0
 22 36  1  1  0  0  0
 23 20  2  0  0  0  0
 24 49  1  1  0  0  0
 24 38  1  0  0  0  0
 25 21  1  0  0  0  0
 26 32  1  0  0  0  0
 26  2  1  0  0  0  0
 27 24  1  0  0  0  0
 27 35  1  0  0  0  0
 28 29  1  0  0  0  0
 28  2  1  0  0  0  0
 30 33  1  0  0  0  0
 31 39  1  0  0  0  0
 32  4  1  0  0  0  0
 34 29  1  0  0  0  0
 34 13  1  0  0  0  0
 35 13  1  0  0  0  0
 35 21  1  0  0  0  0
 37 40  1  0  0  0  0
 37 32  1  0  0  0  0
 38 25  1  0  0  0  0
 39 47  1  0  0  0  0
 39 42  1  0  0  0  0
 39  9  1  0  0  0  0
 41 17  1  0  0  0  0
 42 44  1  0  0  0  0
 43 42  2  0  0  0  0
 46 45  1  0  0  0  0
 48 47  1  0  0  0  0
 50 49  1  0  0  0  0
 51 52  1  0  0  0  0
 52 50  1  0  0  0  0
 53 52  1  0  0  0  0
 54 53  1  0  0  0  0
 55 54  1  0  0  0  0
M  END
>  <MODEL>
7

>  <REMARK>
 VINA RESULT:      -2.5      3.444      8.780
  Name = 
  8 active torsions:
  status: ('A' for Active; 'I' for Inactive)
    1  A    between atoms: C_1  and  C_53
    2  A    between atoms: C_6  and  C_53
    3  A    between atoms: C_12  and  C_38
    4  A    between atoms: C_13  and  C_33
    5  A    between atoms: C_13  and  C_48
    6  A    between atoms: C_18  and  N_39
    7  A    between atoms: C_32  and  N_39
    8  A    between atoms: C_32  and  C_48
                            x       y       z     vdW  Elec       q    Type
                         _______ _______ _______ _____ _____    ______ ____

>  <TORSDO>
F 8

$$$$
=
 OpenBabel11052419293D

 55 60  0  0  1  0  0  0  0  0999 V2000
  190.2870  172.7780  140.3750 C   0  0  0  0  0  2  0  0  0  0  0  0
  193.0650  173.5830  145.3530 C   0  0  0  0  0  2  0  0  0  0  0  0
  190.3080  175.5270  147.3650 O   0  0  0  0  0  0  0  0  0  0  0  0
  194.1400  172.1130  143.2310 C   0  0  0  0  0  2  0  0  0  0  0  0
  195.9550  173.8170  143.1360 C   0  0  0  0  0  2  0  0  0  0  0  0
  190.4330  177.2840  145.0260 C   0  0  0  0  0  2  0  0  0  0  0  0
  197.1920  170.6080  146.0760 C   0  0  0  0  0  2  0  0  0  0  0  0
  195.1160  169.1520  145.9880 C   0  0  2  0  0  3  0  0  0  0  0  0
  195.2460  168.7340  144.6440 O   0  0  0  0  0  0  0  0  0  0  0  0
  190.9960  178.4610  144.2320 C   0  0  0  0  0  2  0  0  0  0  0  0
  189.4480  176.3470  142.9490 C   0  0  2  0  0  3  0  0  0  0  0  0
  190.0040  177.5040  142.1280 C   0  0  0  0  0  2  0  0  0  0  0  0
  189.9270  173.5560  143.9430 C   0  0  0  0  0  2  0  0  0  0  0  0
  196.5300  171.4120  143.5770 C   0  0  1  0  0  3  0  0  0  0  0  0
  196.8970  172.8650  143.8690 C   0  0  0  0  0  2  0  0  0  0  0  0
  190.1250  178.7470  143.0100 C   0  0  0  0  0  2  0  0  0  0  0  0
  193.2160  172.8720  138.8420 C   0  0  0  0  0  2  0  0  0  0  0  0
  197.7630  170.3150  144.3650 S   0  0  0  0  0  0  0  0  0  0  0  0
  190.3770  176.0450  144.1340 C   0  0  2  0  0  3  0  0  0  0  0  0
  192.9040  174.7750  140.3500 C   0  0  0  0  0  0  0  0  0  0  0  0
  189.5880  172.7020  141.6500 N   0  0  2  0  0  0  0  0  0  0  0  0
  196.4810  169.3840  146.6440 C   0  0  1  0  0  3  0  0  0  0  0  0
  192.3910  175.9030  140.5790 O   0  0  0  0  0  0  0  0  0  0  0  0
  187.6530  174.8050  142.1040 C   0  0  2  0  0  3  0  0  0  0  0  0
  188.1540  172.7050  141.3140 C   0  0  0  0  0  2  0  0  0  0  0  0
  194.3680  173.8910  144.9210 O   0  0  0  0  0  0  0  0  0  0  0  0
  189.1530  175.1300  142.0650 C   0  0  2  0  0  3  0  0  0  0  0  0
  192.4750  174.7550  146.1020 C   0  0  0  0  0  2  0  0  0  0  0  0
  190.7340  174.4190  146.4120 S   0  0  2  0  0  0  0  0  0  0  0  0
  192.0940  171.8450  138.9640 C   0  0  0  0  0  2  0  0  0  0  0  0
  195.0570  171.1200  143.9630 C   0  0  2  0  0  3  0  0  0  0  0  0
  194.5000  173.5840  143.5420 C   0  0  2  0  0  0  0  0  0  0  0  0
  191.4690  171.8280  140.3520 C   0  0  0  0  0  2  0  0  0  0  0  0
  189.8690  174.7900  144.8590 C   0  0  2  0  0  3  0  0  0  0  0  0
  189.9820  173.8830  142.4380 C   0  0  1  0  0  3  0  0  0  0  0  0
  197.2970  168.2530  146.5500 O   0  0  0  0  0  1  0  0  0  0  0  0
  193.6320  174.5270  142.6980 C   0  0  0  0  0  2  0  0  0  0  0  0
  187.3910  173.4210  142.2610 O   0  0  0  0  0  0  0  0  0  0  0  0
  194.5930  169.6350  143.7540 C   0  0  1  0  0  0  0  0  0  0  0  0
  193.6170  174.1020  141.3430 O   0  0  0  0  0  0  0  0  0  0  0  0
  192.7460  174.1900  139.0960 O   0  0  0  0  0  0  0  0  0  0  0  0
  194.9480  169.2080  142.3470 C   0  0  0  0  0  0  0  0  0  0  0  0
  196.0460  168.3870  142.1170 O   0  0  0  0  0  1  0  0  0  0  0  0
  194.2740  169.6190  141.3630 O   0  0  0  0  0  0  0  0  0  0  0  0
  194.5260  168.2520  148.2860 C   0  0  0  0  0  1  0  0  0  0  0  0
  194.2640  168.1660  146.7910 C   0  0  0  0  0  2  0  0  0  0  0  0
  193.0560  169.4630  143.8730 C   0  0  0  0  0  2  0  0  0  0  0  0
  192.4740  168.3220  143.0490 C   0  0  0  0  0  1  0  0  0  0  0  0
  186.9320  175.3920  140.8970 C   0  0  0  0  0  2  0  0  0  0  0  0
  187.9240  175.6730  139.7830 C   0  0  0  0  0  2  0  0  0  0  0  0
  188.0840  174.3800  137.6820 C   0  0  0  0  0  1  0  0  0  0  0  0
  187.2810  175.4250  138.4300 C   0  0  2  0  0  3  0  0  0  0  0  0
  187.2580  176.6570  137.6580 N   0  0  0  0  0  2  0  0  0  0  0  0
  186.2220  176.5070  136.6530 C   0  0  0  0  0  2  0  0  0  0  0  0
  186.8200  176.7070  135.2770 C   0  0  0  0  0  1  0  0  0  0  0  0
  2 28  1  0  0  0  0
  4 32  1  0  0  0  0
  4 31  1  0  0  0  0
  5 32  1  0  0  0  0
  5 15  1  0  0  0  0
  7 22  1  0  0  0  0
  8 22  1  0  0  0  0
  8 46  1  1  0  0  0
  9  8  1  0  0  0  0
 10  6  1  0  0  0  0
 11 12  1  6  0  0  0
 11 19  1  0  0  0  0
 12 16  1  0  0  0  0
 13 34  1  0  0  0  0
 14 15  1  1  0  0  0
 14 31  1  0  0  0  0
 14 18  1  0  0  0  0
 16 10  1  0  0  0  0
 17 30  1  0  0  0  0
 17 41  1  0  0  0  0
 18  7  1  0  0  0  0
 19 34  1  0  0  0  0
 19  6  1  1  0  0  0
 20 23  2  0  0  0  0
 20 40  1  0  0  0  0
 21  1  1  6  0  0  0
 21 35  1  0  0  0  0
 22 36  1  6  0  0  0
 24 49  1  6  0  0  0
 24 38  1  0  0  0  0
 25 21  1  0  0  0  0
 25 38  1  0  0  0  0
 26  2  1  0  0  0  0
 27 24  1  0  0  0  0
 27 35  1  0  0  0  0
 27 11  1  0  0  0  0
 28 29  1  0  0  0  0
 29  3  2  0  0  0  0
 30 33  1  0  0  0  0
 32 26  1  0  0  0  0
 33  1  1  0  0  0  0
 34 29  1  0  0  0  0
 35 13  1  0  0  0  0
 37 32  1  0  0  0  0
 39 47  1  0  0  0  0
 39 31  1  0  0  0  0
 39  9  1  0  0  0  0
 40 37  1  0  0  0  0
 41 20  1  0  0  0  0
 42 39  1  0  0  0  0
 43 42  1  0  0  0  0
 44 42  2  0  0  0  0
 46 45  1  0  0  0  0
 48 47  1  0  0  0  0
 50 49  1  0  0  0  0
 51 52  1  0  0  0  0
 52 50  1  0  0  0  0
 53 52  1  0  0  0  0
 54 53  1  0  0  0  0
 55 54  1  0  0  0  0
M  END
>  <MODEL>
8

>  <REMARK>
 VINA RESULT:      -2.4      1.551      2.426
  Name = 
  8 active torsions:
  status: ('A' for Active; 'I' for Inactive)
    1  A    between atoms: C_1  and  C_53
    2  A    between atoms: C_6  and  C_53
    3  A    between atoms: C_12  and  C_38
    4  A    between atoms: C_13  and  C_33
    5  A    between atoms: C_13  and  C_48
    6  A    between atoms: C_18  and  N_39
    7  A    between atoms: C_32  and  N_39
    8  A    between atoms: C_32  and  C_48
                            x       y       z     vdW  Elec       q    Type
                         _______ _______ _______ _____ _____    ______ ____

>  <TORSDO>
F 8

$$$$
=
 OpenBabel11052419293D

 55 60  0  0  1  0  0  0  0  0999 V2000
  189.0160  173.9320  143.2920 C   0  0  0  0  0  2  0  0  0  0  0  0
  194.5960  172.9970  142.2270 C   0  0  0  0  0  2  0  0  0  0  0  0
  195.9230  172.5450  145.8960 O   0  0  0  0  0  0  0  0  0  0  0  0
  192.6890  173.2940  140.2020 C   0  0  0  0  0  2  0  0  0  0  0  0
  193.9550  175.3150  139.4810 C   0  0  0  0  0  2  0  0  0  0  0  0
  194.6550  175.1630  146.2310 C   0  0  0  0  0  2  0  0  0  0  0  0
  195.7270  171.7210  137.3790 C   0  0  0  0  0  2  0  0  0  0  0  0
  194.2960  169.8980  138.4120 C   0  0  2  0  0  3  0  0  0  0  0  0
  193.0630  170.2990  137.8520 O   0  0  0  0  0  0  0  0  0  0  0  0
  194.6450  176.6900  146.1890 C   0  0  0  0  0  2  0  0  0  0  0  0
  192.1730  175.1400  146.2320 C   0  0  2  0  0  3  0  0  0  0  0  0
  192.1300  176.6630  146.1800 C   0  0  0  0  0  2  0  0  0  0  0  0
  192.1650  172.6030  144.6280 C   0  0  0  0  0  2  0  0  0  0  0  0
  193.6620  173.3970  137.8850 C   0  0  1  0  0  3  0  0  0  0  0  0
  194.5900  174.5200  138.3430 C   0  0  0  0  0  2  0  0  0  0  0  0
  193.3790  177.2340  146.8490 C   0  0  0  0  0  2  0  0  0  0  0  0
  188.9140  175.8050  140.5670 C   0  0  0  0  0  2  0  0  0  0  0  0
  194.4030  172.5600  136.4380 S   0  0  0  0  0  0  0  0  0  0  0  0
  193.4240  174.6220  145.5070 C   0  0  2  0  0  3  0  0  0  0  0  0
  190.7650  176.4270  142.0440 C   0  0  0  0  0  0  0  0  0  0  0  0
  189.7860  172.9800  144.0810 N   0  0  2  0  0  0  0  0  0  0  0  0
  195.4720  170.2210  137.4840 C   0  0  1  0  0  3  0  0  0  0  0  0
  191.1730  177.0200  143.0790 O   0  0  0  0  0  0  0  0  0  0  0  0
  190.1850  173.7310  146.8460 C   0  0  2  0  0  3  0  0  0  0  0  0
  188.9390  172.6550  145.2410 C   0  0  0  0  0  2  0  0  0  0  0  0
  194.8600  173.9130  141.1920 O   0  0  0  0  0  0  0  0  0  0  0  0
  190.8630  174.5290  145.7230 C   0  0  2  0  0  3  0  0  0  0  0  0
  195.4280  173.3330  143.4420 C   0  0  0  0  0  2  0  0  0  0  0  0
  194.8790  172.3060  144.8140 S   0  0  2  0  0  0  0  0  0  0  0  0
  188.1950  174.5440  141.0380 C   0  0  0  0  0  2  0  0  0  0  0  0
  193.2990  172.4590  139.0650 C   0  0  2  0  0  3  0  0  0  0  0  0
  193.6370  174.4190  140.6780 C   0  0  2  0  0  0  0  0  0  0  0  0
  189.1100  173.6070  141.8130 C   0  0  0  0  0  2  0  0  0  0  0  0
  193.3690  173.0890  145.4520 C   0  0  2  0  0  3  0  0  0  0  0  0
  191.0410  173.6460  144.4700 C   0  0  1  0  0  3  0  0  0  0  0  0
  195.2960  169.6620  136.2150 O   0  0  0  0  0  1  0  0  0  0  0  0
  192.9350  175.2900  141.7280 C   0  0  0  0  0  2  0  0  0  0  0  0
  189.7010  172.4710  146.4150 O   0  0  0  0  0  0  0  0  0  0  0  0
  192.3900  171.2340  138.6910 C   0  0  1  0  0  0  0  0  0  0  0  0
  191.6310  175.6400  141.2870 O   0  0  0  0  0  0  0  0  0  0  0  0
  189.4300  176.5500  141.6630 O   0  0  0  0  0  0  0  0  0  0  0  0
  191.1880  171.7380  137.9230 C   0  0  0  0  0  0  0  0  0  0  0  0
  190.2720  172.5900  138.5290 O   0  0  0  0  0  1  0  0  0  0  0  0
  190.9830  171.3640  136.7350 O   0  0  0  0  0  0  0  0  0  0  0  0
  194.6340  168.1870  140.2550 C   0  0  0  0  0  1  0  0  0  0  0  0
  194.2720  168.4170  138.7970 C   0  0  0  0  0  2  0  0  0  0  0  0
  191.8220  170.5040  139.9360 C   0  0  0  0  0  2  0  0  0  0  0  0
  190.7930  169.4230  139.6290 C   0  0  0  0  0  1  0  0  0  0  0  0
  189.1030  174.5580  147.5300 C   0  0  0  0  0  2  0  0  0  0  0  0
  189.0430  175.9470  146.9210 C   0  0  0  0  0  2  0  0  0  0  0  0
  187.9110  177.0180  145.0020 C   0  0  0  0  0  1  0  0  0  0  0  0
  187.7050  176.1660  146.2380 C   0  0  2  0  0  3  0  0  0  0  0  0
  186.7920  176.8460  147.1430 N   0  0  0  0  0  2  0  0  0  0  0  0
  185.4700  176.7680  146.5480 C   0  0  0  0  0  2  0  0  0  0  0  0
  184.7770  178.1070  146.6790 C   0  0  0  0  0  1  0  0  0  0  0  0
  2 28  1  0  0  0  0
  4 32  1  0  0  0  0
  5 32  1  0  0  0  0
  7 22  1  0  0  0  0
  8 46  1  6  0  0  0
  9  8  1  0  0  0  0
  9 39  1  0  0  0  0
 10  6  1  0  0  0  0
 10 16  1  0  0  0  0
 11 12  1  6  0  0  0
 12 16  1  0  0  0  0
 13 34  1  0  0  0  0
 14 15  1  1  0  0  0
 14 31  1  0  0  0  0
 15  5  1  0  0  0  0
 17 30  1  0  0  0  0
 17 41  1  0  0  0  0
 18  7  1  0  0  0  0
 18 14  1  0  0  0  0
 19  6  1  1  0  0  0
 19 11  1  0  0  0  0
 20 23  2  0  0  0  0
 21  1  1  6  0  0  0
 21 35  1  0  0  0  0
 21 25  1  0  0  0  0
 22 36  1  6  0  0  0
 22  8  1  0  0  0  0
 24 49  1  6  0  0  0
 25 38  1  0  0  0  0
 26  2  1  0  0  0  0
 27 11  1  0  0  0  0
 27 24  1  0  0  0  0
 28 29  1  0  0  0  0
 29 34  1  0  0  0  0
 29  3  2  0  0  0  0
 30 33  1  0  0  0  0
 31  4  1  0  0  0  0
 32 26  1  0  0  0  0
 32 37  1  0  0  0  0
 33  1  1  0  0  0  0
 34 19  1  0  0  0  0
 35 13  1  0  0  0  0
 35 27  1  0  0  0  0
 38 24  1  0  0  0  0
 39 31  1  0  0  0  0
 39 47  1  0  0  0  0
 40 37  1  0  0  0  0
 40 20  1  0  0  0  0
 41 20  1  0  0  0  0
 42 43  1  0  0  0  0
 42 39  1  0  0  0  0
 44 42  2  0  0  0  0
 46 45  1  0  0  0  0
 48 47  1  0  0  0  0
 50 49  1  0  0  0  0
 51 52  1  0  0  0  0
 52 50  1  0  0  0  0
 52 53  1  0  0  0  0
 54 55  1  0  0  0  0
 54 53  1  0  0  0  0
M  END
>  <MODEL>
9

>  <REMARK>
 VINA RESULT:      -2.4      2.846      5.470
  Name = 
  8 active torsions:
  status: ('A' for Active; 'I' for Inactive)
    1  A    between atoms: C_1  and  C_53
    2  A    between atoms: C_6  and  C_53
    3  A    between atoms: C_12  and  C_38
    4  A    between atoms: C_13  and  C_33
    5  A    between atoms: C_13  and  C_48
    6  A    between atoms: C_18  and  N_39
    7  A    between atoms: C_32  and  N_39
    8  A    between atoms: C_32  and  C_48
                            x       y       z     vdW  Elec       q    Type
                         _______ _______ _______ _____ _____    ______ ____

>  <TORSDO>
F 8

$$$$
