=
 OpenBabel11052420423D

 43 47  0  0  1  0  0  0  0  0999 V2000
  190.7590  169.9660  136.9260 C   0  0  0  0  0  0  0  0  0  0  0  0
  189.0030  173.6050  139.9720 C   0  0  0  0  0  0  0  0  0  0  0  0
  189.9150  172.9490  142.5160 C   0  0  0  0  0  0  0  0  0  0  0  0
  189.6530  171.9310  137.8120 C   0  0  0  0  0  0  0  0  0  0  0  0
  191.2270  169.6470  138.2050 C   0  0  0  0  0  3  0  0  0  0  0  0
  191.0750  169.1500  135.8500 O   0  0  0  0  0  1  0  0  0  0  0  0
  190.1200  171.6120  139.1100 C   0  0  0  0  0  0  0  0  0  0  0  0
  189.9730  171.1060  136.7300 C   0  0  0  0  0  3  0  0  0  0  0  0
  190.9100  170.4650  139.2920 C   0  0  0  0  0  3  0  0  0  0  0  0
  190.2250  172.1600  141.4500 N   0  0  0  0  0  0  0  0  0  0  0  0
  189.7920  172.4490  140.1920 C   0  0  0  0  0  0  0  0  0  0  0  0
  188.5510  173.9040  138.6800 C   0  0  0  0  0  3  0  0  0  0  0  0
  188.6940  174.4470  141.0530 C   0  0  0  0  0  0  0  0  0  0  0  0
  189.1530  174.1010  142.3320 C   0  0  0  0  0  3  0  0  0  0  0  0
  188.8730  173.0710  137.6060 C   0  0  0  0  0  3  0  0  0  0  0  0
  190.4300  172.6160  143.8750 C   0  0  1  0  0  3  0  0  0  0  0  0
  189.4410  171.9620  144.6120 O   0  0  0  0  0  1  0  0  0  0  0  0
  191.6050  171.7680  143.7590 N   0  0  0  0  0  2  0  0  0  0  0  0
  192.7630  172.6420  143.7000 C   0  0  0  0  0  2  0  0  0  0  0  0
  193.1330  173.1290  145.0980 C   0  0  1  0  0  3  0  0  0  0  0  0
  194.3520  172.3710  145.5860 C   0  0  0  0  0  1  0  0  0  0  0  0
  193.3840  174.6410  145.1870 C   0  0  2  0  0  3  0  0  0  0  0  0
  192.9850  176.5070  146.7140 C   0  0  0  0  0  2  0  0  0  0  0  0
  194.6730  174.9650  145.9090 C   0  0  0  0  0  2  0  0  0  0  0  0
  192.2900  175.4150  145.9080 C   0  0  1  0  0  3  0  0  0  0  0  0
  194.4740  176.3610  146.4570 C   0  0  0  0  0  2  0  0  0  0  0  0
  191.2680  175.9760  144.9130 C   0  0  2  0  0  3  0  0  0  0  0  0
  191.9060  176.4290  143.7540 O   0  0  0  0  0  1  0  0  0  0  0  0
  190.4260  177.0970  145.5240 C   0  0  1  0  0  3  0  0  0  0  0  0
  190.2850  178.1440  144.6110 O   0  0  0  0  0  1  0  0  0  0  0  0
  189.0680  176.6170  145.9490 C   0  0  0  0  0  0  0  0  0  0  0  0
  188.7120  175.3640  145.6740 C   0  0  0  0  0  2  0  0  0  0  0  0
  187.0650  176.7330  147.2080 O   0  0  0  0  0  1  0  0  0  0  0  0
  188.2320  177.4280  146.8880 C   0  0  0  0  0  2  0  0  0  0  0  0
  187.9110  175.5950  140.8310 O   0  0  0  0  0  0  0  0  0  0  0  0
  187.2430  178.6550  142.8640 C   0  0  0  0  0  3  0  0  0  0  0  0
  186.2900  178.1560  143.7580 C   0  0  0  0  0  0  0  0  0  0  0  0
  186.4510  175.9790  142.7060 C   0  0  0  0  0  3  0  0  0  0  0  0
  187.7920  177.8170  141.8910 C   0  0  0  0  0  3  0  0  0  0  0  0
  187.4040  176.4690  141.8070 C   0  0  0  0  0  0  0  0  0  0  0  0
  185.8980  176.8160  143.6810 C   0  0  0  0  0  3  0  0  0  0  0  0
  184.5960  178.3820  145.4510 N   0  0  0  0  0  1  0  0  0  0  0  0
  185.7170  179.0420  144.8060 C   0  0  0  0  0  2  0  0  0  0  0  0
  1  5  1  0  0  0  0
  2 11  1  0  0  0  0
  2 13  1  0  0  0  0
  3 16  1  0  0  0  0
  4  7  1  0  0  0  0
  5  9  2  0  0  0  0
  6  1  1  0  0  0  0
  7  9  1  0  0  0  0
  7 11  2  0  0  0  0
  8  1  2  0  0  0  0
  8  4  1  0  0  0  0
 10  3  2  0  0  0  0
 11 10  1  0  0  0  0
 12  2  2  0  0  0  0
 13 14  2  0  0  0  0
 14  3  1  0  0  0  0
 15  4  2  0  0  0  0
 15 12  1  0  0  0  0
 16 17  1  1  0  0  0
 18 16  1  0  0  0  0
 19 18  1  0  0  0  0
 19 20  1  0  0  0  0
 20 21  1  6  0  0  0
 22 20  1  1  0  0  0
 22 25  1  0  0  0  0
 22 24  1  0  0  0  0
 24 26  1  0  0  0  0
 25 27  1  6  0  0  0
 25 23  1  0  0  0  0
 26 23  1  0  0  0  0
 27 28  1  6  0  0  0
 27 29  1  0  0  0  0
 29 30  1  6  0  0  0
 29 31  1  0  0  0  0
 31 34  1  0  0  0  0
 32 31  2  0  0  0  0
 34 33  1  0  0  0  0
 35 13  1  0  0  0  0
 35 40  1  0  0  0  0
 36 37  1  0  0  0  0
 37 43  1  0  0  0  0
 38 41  1  0  0  0  0
 39 36  2  0  0  0  0
 40 39  1  0  0  0  0
 40 38  2  0  0  0  0
 41 37  2  0  0  0  0
 43 42  1  0  0  0  0
M  END
>  <MODEL>
1

>  <REMARK>
 VINA RESULT:      -7.4      0.000      0.000
  Name = 
  12 active torsions:
  status: ('A' for Active; 'I' for Inactive)
    1  A    between atoms: O_1  and  C_34
    2  A    between atoms: O_1  and  C_35
    3  A    between atoms: C_2  and  N_6
    4  A    between atoms: C_2  and  C_13
    5  A    between atoms: C_3  and  C_4
    6  A    between atoms: C_3  and  C_12
    7  A    between atoms: N_6  and  C_12
    8  A    between atoms: C_11  and  C_14
    9  A    between atoms: C_11  and  C_29
   10  A    between atoms: C_14  and  C_22
   11  A    between atoms: C_19  and  C_37
   12  A    between atoms: C_29  and  C_31
                            x       y       z     vdW  Elec       q    Type
                         _______ _______ _______ _____ _____    ______ ____

>  <TORSDO>
F 12

$$$$
=
 OpenBabel11052420423D

 43 47  0  0  1  0  0  0  0  0999 V2000
  190.7730  170.3470  136.2740 C   0  0  0  0  0  0  0  0  0  0  0  0
  188.9850  173.7340  139.5810 C   0  0  0  0  0  0  0  0  0  0  0  0
  189.7930  172.8270  142.0830 C   0  0  0  0  0  0  0  0  0  0  0  0
  189.6770  172.2490  137.2990 C   0  0  0  0  0  0  0  0  0  0  0  0
  191.1890  169.9020  137.5330 C   0  0  0  0  0  3  0  0  0  0  0  0
  191.1110  169.6260  135.1380 O   0  0  0  0  0  1  0  0  0  0  0  0
  190.0910  171.8020  138.5770 C   0  0  0  0  0  0  0  0  0  0  0  0
  190.0180  171.5190  136.1570 C   0  0  0  0  0  3  0  0  0  0  0  0
  190.8500  170.6250  138.6800 C   0  0  0  0  0  3  0  0  0  0  0  0
  190.1240  172.1320  140.9610 N   0  0  0  0  0  0  0  0  0  0  0  0
  189.7410  172.5450  139.7200 C   0  0  0  0  0  0  0  0  0  0  0  0
  188.5850  174.1590  138.3070 C   0  0  0  0  0  3  0  0  0  0  0  0
  188.6550  174.4810  140.7240 C   0  0  0  0  0  0  0  0  0  0  0  0
  189.0610  174.0090  141.9800 C   0  0  0  0  0  3  0  0  0  0  0  0
  188.9280  173.4210  137.1730 C   0  0  0  0  0  3  0  0  0  0  0  0
  190.2520  172.3600  143.4220 C   0  0  1  0  0  3  0  0  0  0  0  0
  191.5890  172.7090  143.6160 O   0  0  0  0  0  1  0  0  0  0  0  0
  189.4270  172.9580  144.4580 N   0  0  0  0  0  2  0  0  0  0  0  0
  190.3050  173.7400  145.3110 C   0  0  0  0  0  2  0  0  0  0  0  0
  189.5860  174.9870  145.8150 C   0  0  1  0  0  3  0  0  0  0  0  0
  189.2890  174.8300  147.2940 C   0  0  0  0  0  1  0  0  0  0  0  0
  190.3530  176.2940  145.5680 C   0  0  2  0  0  3  0  0  0  0  0  0
  191.8280  177.2980  143.9000 C   0  0  0  0  0  2  0  0  0  0  0  0
  189.5560  177.2770  144.7410 C   0  0  0  0  0  2  0  0  0  0  0  0
  191.6800  176.1120  144.8460 C   0  0  1  0  0  3  0  0  0  0  0  0
  190.5910  178.1580  144.0770 C   0  0  0  0  0  2  0  0  0  0  0  0
  192.8380  176.0060  145.8450 C   0  0  2  0  0  3  0  0  0  0  0  0
  192.4970  176.6050  147.0610 O   0  0  0  0  0  1  0  0  0  0  0  0
  194.1280  176.6200  145.2970 C   0  0  1  0  0  3  0  0  0  0  0  0
  194.6710  177.5040  146.2300 O   0  0  0  0  0  1  0  0  0  0  0  0
  195.1460  175.5740  144.9450 C   0  0  0  0  0  0  0  0  0  0  0  0
  195.6150  174.7810  145.9040 C   0  0  0  0  0  2  0  0  0  0  0  0
  194.9640  176.2650  142.6860 O   0  0  0  0  0  1  0  0  0  0  0  0
  195.4370  175.2460  143.5140 C   0  0  0  0  0  2  0  0  0  0  0  0
  187.9040  175.6620  140.5830 O   0  0  0  0  0  0  0  0  0  0  0  0
  186.0720  176.6220  143.6910 C   0  0  0  0  0  3  0  0  0  0  0  0
  186.2440  178.0100  143.6620 C   0  0  0  0  0  0  0  0  0  0  0  0
  187.4880  177.8070  141.5940 C   0  0  0  0  0  3  0  0  0  0  0  0
  186.6130  175.8310  142.6750 C   0  0  0  0  0  3  0  0  0  0  0  0
  187.3220  176.4180  141.6140 C   0  0  0  0  0  0  0  0  0  0  0  0
  186.9490  178.6020  142.6110 C   0  0  0  0  0  3  0  0  0  0  0  0
  184.4680  178.2100  145.2740 N   0  0  0  0  0  1  0  0  0  0  0  0
  185.6530  178.8550  144.7340 C   0  0  0  0  0  2  0  0  0  0  0  0
  1  5  1  0  0  0  0
  2 11  1  0  0  0  0
  2 13  1  0  0  0  0
  3 16  1  0  0  0  0
  4  7  1  0  0  0  0
  5  9  2  0  0  0  0
  6  1  1  0  0  0  0
  7  9  1  0  0  0  0
  7 11  2  0  0  0  0
  8  1  2  0  0  0  0
  8  4  1  0  0  0  0
 10  3  2  0  0  0  0
 11 10  1  0  0  0  0
 12  2  2  0  0  0  0
 13 14  2  0  0  0  0
 14  3  1  0  0  0  0
 15  4  2  0  0  0  0
 15 12  1  0  0  0  0
 16 17  1  1  0  0  0
 16 18  1  0  0  0  0
 18 19  1  0  0  0  0
 19 20  1  0  0  0  0
 20 21  1  1  0  0  0
 22 20  1  6  0  0  0
 23 26  1  0  0  0  0
 23 25  1  0  0  0  0
 24 22  1  0  0  0  0
 25 22  1  0  0  0  0
 25 27  1  1  0  0  0
 26 24  1  0  0  0  0
 27 28  1  1  0  0  0
 29 27  1  0  0  0  0
 29 30  1  1  0  0  0
 31 29  1  0  0  0  0
 31 32  2  0  0  0  0
 33 34  1  0  0  0  0
 34 31  1  0  0  0  0
 35 13  1  0  0  0  0
 35 40  1  0  0  0  0
 37 36  1  0  0  0  0
 37 43  1  0  0  0  0
 38 40  2  0  0  0  0
 38 41  1  0  0  0  0
 39 36  2  0  0  0  0
 40 39  1  0  0  0  0
 41 37  2  0  0  0  0
 43 42  1  0  0  0  0
M  END
>  <MODEL>
2

>  <REMARK>
 VINA RESULT:      -7.4      1.609      3.315
  Name = 
  12 active torsions:
  status: ('A' for Active; 'I' for Inactive)
    1  A    between atoms: O_1  and  C_34
    2  A    between atoms: O_1  and  C_35
    3  A    between atoms: C_2  and  N_6
    4  A    between atoms: C_2  and  C_13
    5  A    between atoms: C_3  and  C_4
    6  A    between atoms: C_3  and  C_12
    7  A    between atoms: N_6  and  C_12
    8  A    between atoms: C_11  and  C_14
    9  A    between atoms: C_11  and  C_29
   10  A    between atoms: C_14  and  C_22
   11  A    between atoms: C_19  and  C_37
   12  A    between atoms: C_29  and  C_31
                            x       y       z     vdW  Elec       q    Type
                         _______ _______ _______ _____ _____    ______ ____

>  <TORSDO>
F 12

$$$$
=
 OpenBabel11052420423D

 43 47  0  0  1  0  0  0  0  0999 V2000
  185.6860  179.2290  143.9560 C   0  0  0  0  0  0  0  0  0  0  0  0
  188.0450  175.6110  141.3190 C   0  0  0  0  0  0  0  0  0  0  0  0
  189.2500  173.9750  143.2180 C   0  0  0  0  0  0  0  0  0  0  0  0
  186.5680  177.8420  142.1770 C   0  0  0  0  0  0  0  0  0  0  0  0
  186.2820  178.3950  144.9080 C   0  0  0  0  0  3  0  0  0  0  0  0
  184.9510  180.3310  144.3650 O   0  0  0  0  0  1  0  0  0  0  0  0
  187.1780  176.9960  143.1340 C   0  0  0  0  0  0  0  0  0  0  0  0
  185.8290  178.9520  142.5920 C   0  0  0  0  0  3  0  0  0  0  0  0
  187.0250  177.2840  144.5000 C   0  0  0  0  0  3  0  0  0  0  0  0
  188.5200  175.0560  143.6070 N   0  0  0  0  0  0  0  0  0  0  0  0
  187.9200  175.8810  142.7040 C   0  0  0  0  0  0  0  0  0  0  0  0
  187.4340  176.4600  140.3880 C   0  0  0  0  0  3  0  0  0  0  0  0
  188.7720  174.4860  140.8970 C   0  0  0  0  0  0  0  0  0  0  0  0
  189.3820  173.6730  141.8630 C   0  0  0  0  0  3  0  0  0  0  0  0
  186.7010  177.5690  140.8130 C   0  0  0  0  0  3  0  0  0  0  0  0
  189.8710  173.0790  144.2350 C   0  0  1  0  0  3  0  0  0  0  0  0
  191.2150  172.8650  143.9250 O   0  0  0  0  0  1  0  0  0  0  0  0
  189.7540  173.6800  145.5530 N   0  0  0  0  0  2  0  0  0  0  0  0
  191.0430  174.2700  145.8730 C   0  0  0  0  0  2  0  0  0  0  0  0
  190.8630  175.6990  146.3740 C   0  0  1  0  0  3  0  0  0  0  0  0
  191.5180  175.8390  147.7340 C   0  0  0  0  0  1  0  0  0  0  0  0
  191.4050  176.7700  145.4170 C   0  0  2  0  0  3  0  0  0  0  0  0
  191.6710  177.1580  143.0190 C   0  0  0  0  0  2  0  0  0  0  0  0
  190.3250  177.7230  144.9540 C   0  0  0  0  0  2  0  0  0  0  0  0
  192.0450  176.2110  144.1540 C   0  0  1  0  0  3  0  0  0  0  0  0
  190.8180  178.2560  143.6260 C   0  0  0  0  0  2  0  0  0  0  0  0
  193.5620  176.0670  144.3250 C   0  0  2  0  0  3  0  0  0  0  0  0
  194.0820  177.1500  145.0410 O   0  0  0  0  0  1  0  0  0  0  0  0
  194.2820  175.9260  142.9830 C   0  0  1  0  0  3  0  0  0  0  0  0
  195.6020  176.3640  143.0990 O   0  0  0  0  0  1  0  0  0  0  0  0
  194.2650  174.5120  142.4790 C   0  0  0  0  0  0  0  0  0  0  0  0
  194.7120  173.5400  143.2710 C   0  0  0  0  0  2  0  0  0  0  0  0
  193.8230  175.0780  140.2220 O   0  0  0  0  0  1  0  0  0  0  0  0
  193.5260  174.1580  141.2280 C   0  0  0  0  0  2  0  0  0  0  0  0
  188.8940  174.2210  139.5200 O   0  0  0  0  0  0  0  0  0  0  0  0
  191.7520  172.3510  138.0110 C   0  0  0  0  0  3  0  0  0  0  0  0
  191.1460  171.1120  137.7850 C   0  0  0  0  0  0  0  0  0  0  0  0
  189.0690  171.9670  138.6920 C   0  0  0  0  0  3  0  0  0  0  0  0
  191.0170  173.3930  138.5820 C   0  0  0  0  0  3  0  0  0  0  0  0
  189.6670  173.2110  138.9230 C   0  0  0  0  0  0  0  0  0  0  0  0
  189.8030  170.9220  138.1220 C   0  0  0  0  0  3  0  0  0  0  0  0
  192.6100  169.2450  138.1880 N   0  0  0  0  0  1  0  0  0  0  0  0
  191.9220  170.0070  137.1600 C   0  0  0  0  0  2  0  0  0  0  0  0
  1  6  1  0  0  0  0
  1  5  1  0  0  0  0
  2 11  1  0  0  0  0
  3 10  1  0  0  0  0
  3 16  1  0  0  0  0
  4  8  1  0  0  0  0
  4  7  2  0  0  0  0
  7  9  1  0  0  0  0
  8  1  2  0  0  0  0
  9  5  2  0  0  0  0
 11  7  1  0  0  0  0
 11 10  2  0  0  0  0
 12 15  2  0  0  0  0
 12  2  1  0  0  0  0
 13  2  2  0  0  0  0
 13 14  1  0  0  0  0
 14  3  2  0  0  0  0
 15  4  1  0  0  0  0
 16 17  1  6  0  0  0
 16 18  1  0  0  0  0
 18 19  1  0  0  0  0
 19 20  1  0  0  0  0
 20 21  1  1  0  0  0
 22 20  1  6  0  0  0
 23 26  1  0  0  0  0
 23 25  1  0  0  0  0
 24 22  1  0  0  0  0
 25 27  1  1  0  0  0
 25 22  1  0  0  0  0
 26 24  1  0  0  0  0
 27 28  1  6  0  0  0
 29 30  1  1  0  0  0
 29 27  1  0  0  0  0
 31 29  1  0  0  0  0
 31 32  2  0  0  0  0
 33 34  1  0  0  0  0
 34 31  1  0  0  0  0
 35 13  1  0  0  0  0
 36 39  1  0  0  0  0
 37 36  2  0  0  0  0
 37 41  1  0  0  0  0
 38 40  1  0  0  0  0
 39 40  2  0  0  0  0
 40 35  1  0  0  0  0
 41 38  2  0  0  0  0
 43 37  1  0  0  0  0
 43 42  1  0  0  0  0
M  END
>  <MODEL>
3

>  <REMARK>
 VINA RESULT:      -7.1      2.377      7.128
  Name = 
  12 active torsions:
  status: ('A' for Active; 'I' for Inactive)
    1  A    between atoms: O_1  and  C_34
    2  A    between atoms: O_1  and  C_35
    3  A    between atoms: C_2  and  N_6
    4  A    between atoms: C_2  and  C_13
    5  A    between atoms: C_3  and  C_4
    6  A    between atoms: C_3  and  C_12
    7  A    between atoms: N_6  and  C_12
    8  A    between atoms: C_11  and  C_14
    9  A    between atoms: C_11  and  C_29
   10  A    between atoms: C_14  and  C_22
   11  A    between atoms: C_19  and  C_37
   12  A    between atoms: C_29  and  C_31
                            x       y       z     vdW  Elec       q    Type
                         _______ _______ _______ _____ _____    ______ ____

>  <TORSDO>
F 12

$$$$
=
 OpenBabel11052420423D

 43 47  0  0  1  0  0  0  0  0999 V2000
  185.8170  179.3040  144.0180 C   0  0  0  0  0  0  0  0  0  0  0  0
  188.3590  175.4620  141.9260 C   0  0  0  0  0  0  0  0  0  0  0  0
  189.7040  174.2320  144.0270 C   0  0  0  0  0  0  0  0  0  0  0  0
  186.7550  177.7060  142.4580 C   0  0  0  0  0  0  0  0  0  0  0  0
  186.4830  178.6740  145.0730 C   0  0  0  0  0  3  0  0  0  0  0  0
  185.0180  180.4110  144.2660 O   0  0  0  0  0  1  0  0  0  0  0  0
  187.4370  177.0660  143.5210 C   0  0  0  0  0  0  0  0  0  0  0  0
  185.9520  178.8210  142.7120 C   0  0  0  0  0  3  0  0  0  0  0  0
  187.2900  177.5600  144.8270 C   0  0  0  0  0  3  0  0  0  0  0  0
  188.9120  175.3130  144.2590 N   0  0  0  0  0  0  0  0  0  0  0  0
  188.2430  175.9430  143.2530 C   0  0  0  0  0  0  0  0  0  0  0  0
  187.6770  176.1100  140.8890 C   0  0  0  0  0  3  0  0  0  0  0  0
  189.1510  174.3310  141.6690 C   0  0  0  0  0  0  0  0  0  0  0  0
  189.8310  173.7240  142.7340 C   0  0  0  0  0  3  0  0  0  0  0  0
  186.8800  177.2260  141.1520 C   0  0  0  0  0  3  0  0  0  0  0  0
  190.4010  173.5510  145.1550 C   0  0  1  0  0  3  0  0  0  0  0  0
  191.5270  172.8750  144.6830 O   0  0  0  0  0  1  0  0  0  0  0  0
  190.7930  174.5340  146.1520 N   0  0  0  0  0  2  0  0  0  0  0  0
  192.2380  174.6720  146.0750 C   0  0  0  0  0  2  0  0  0  0  0  0
  192.6330  176.1450  146.1080 C   0  0  1  0  0  3  0  0  0  0  0  0
  193.9240  176.2990  146.8890 C   0  0  0  0  0  1  0  0  0  0  0  0
  192.7800  176.7850  144.7200 C   0  0  2  0  0  3  0  0  0  0  0  0
  192.3090  176.2730  142.3780 C   0  0  0  0  0  2  0  0  0  0  0  0
  191.5320  177.5290  144.2990 C   0  0  0  0  0  2  0  0  0  0  0  0
  193.0770  175.7930  143.6040 C   0  0  1  0  0  3  0  0  0  0  0  0
  191.5730  177.5350  142.7870 C   0  0  0  0  0  2  0  0  0  0  0  0
  194.5850  175.6860  143.3520 C   0  0  2  0  0  3  0  0  0  0  0  0
  194.9380  176.3660  142.1820 O   0  0  0  0  0  1  0  0  0  0  0  0
  195.0550  174.2330  143.2810 C   0  0  1  0  0  3  0  0  0  0  0  0
  196.0510  174.0980  142.3130 O   0  0  0  0  0  1  0  0  0  0  0  0
  195.5700  173.7400  144.6020 C   0  0  0  0  0  0  0  0  0  0  0  0
  195.0680  172.6180  145.1120 C   0  0  0  0  0  2  0  0  0  0  0  0
  197.0740  173.7180  146.4320 O   0  0  0  0  0  1  0  0  0  0  0  0
  196.7980  174.3380  145.2120 C   0  0  0  0  0  2  0  0  0  0  0  0
  189.2650  173.8540  140.3490 O   0  0  0  0  0  0  0  0  0  0  0  0
  191.2580  170.9620  139.0840 C   0  0  0  0  0  3  0  0  0  0  0  0
  192.4340  171.6170  138.7060 C   0  0  0  0  0  0  0  0  0  0  0  0
  191.4910  173.7240  139.4420 C   0  0  0  0  0  3  0  0  0  0  0  0
  190.2000  171.6900  139.6340 C   0  0  0  0  0  3  0  0  0  0  0  0
  190.3100  173.0780  139.8220 C   0  0  0  0  0  0  0  0  0  0  0  0
  192.5510  172.9980  138.8900 C   0  0  0  0  0  3  0  0  0  0  0  0
  193.3250  169.4180  138.3050 N   0  0  0  0  0  1  0  0  0  0  0  0
  193.5680  170.8400  138.1370 C   0  0  0  0  0  2  0  0  0  0  0  0
  1  6  1  0  0  0  0
  1  5  1  0  0  0  0
  2 11  1  0  0  0  0
  3 10  1  0  0  0  0
  3 16  1  0  0  0  0
  4  8  1  0  0  0  0
  4  7  2  0  0  0  0
  7  9  1  0  0  0  0
  8  1  2  0  0  0  0
  9  5  2  0  0  0  0
 11  7  1  0  0  0  0
 11 10  2  0  0  0  0
 12 15  2  0  0  0  0
 12  2  1  0  0  0  0
 13  2  2  0  0  0  0
 13 14  1  0  0  0  0
 14  3  2  0  0  0  0
 15  4  1  0  0  0  0
 16 17  1  6  0  0  0
 16 18  1  0  0  0  0
 19 20  1  0  0  0  0
 19 18  1  0  0  0  0
 20 21  1  6  0  0  0
 22 20  1  1  0  0  0
 23 26  1  0  0  0  0
 23 25  1  0  0  0  0
 24 22  1  0  0  0  0
 25 27  1  6  0  0  0
 25 22  1  0  0  0  0
 26 24  1  0  0  0  0
 27 28  1  6  0  0  0
 29 30  1  6  0  0  0
 29 27  1  0  0  0  0
 29 31  1  0  0  0  0
 31 32  2  0  0  0  0
 31 34  1  0  0  0  0
 34 33  1  0  0  0  0
 35 13  1  0  0  0  0
 36 39  1  0  0  0  0
 37 41  1  0  0  0  0
 37 36  2  0  0  0  0
 38 40  1  0  0  0  0
 39 40  2  0  0  0  0
 40 35  1  0  0  0  0
 41 38  2  0  0  0  0
 43 42  1  0  0  0  0
 43 37  1  0  0  0  0
M  END
>  <MODEL>
4

>  <REMARK>
 VINA RESULT:      -7.1      2.539      7.304
  Name = 
  12 active torsions:
  status: ('A' for Active; 'I' for Inactive)
    1  A    between atoms: O_1  and  C_34
    2  A    between atoms: O_1  and  C_35
    3  A    between atoms: C_2  and  N_6
    4  A    between atoms: C_2  and  C_13
    5  A    between atoms: C_3  and  C_4
    6  A    between atoms: C_3  and  C_12
    7  A    between atoms: N_6  and  C_12
    8  A    between atoms: C_11  and  C_14
    9  A    between atoms: C_11  and  C_29
   10  A    between atoms: C_14  and  C_22
   11  A    between atoms: C_19  and  C_37
   12  A    between atoms: C_29  and  C_31
                            x       y       z     vdW  Elec       q    Type
                         _______ _______ _______ _____ _____    ______ ____

>  <TORSDO>
F 12

$$$$
=
 OpenBabel11052420423D

 43 47  0  0  1  0  0  0  0  0999 V2000
  184.9400  178.1600  145.7370 C   0  0  0  0  0  0  0  0  0  0  0  0
  188.9190  175.9070  143.5690 C   0  0  0  0  0  0  0  0  0  0  0  0
  191.0070  176.1810  145.3850 C   0  0  0  0  0  0  0  0  0  0  0  0
  186.4030  176.9810  144.2070 C   0  0  0  0  0  0  0  0  0  0  0  0
  185.9890  178.2830  146.6530 C   0  0  0  0  0  3  0  0  0  0  0  0
  183.6910  178.6820  146.0410 O   0  0  0  0  0  1  0  0  0  0  0  0
  187.4710  177.1060  145.1280 C   0  0  0  0  0  0  0  0  0  0  0  0
  185.1460  177.5090  144.5160 C   0  0  0  0  0  3  0  0  0  0  0  0
  187.2490  177.7600  146.3510 C   0  0  0  0  0  3  0  0  0  0  0  0
  189.7760  176.6830  145.6740 N   0  0  0  0  0  0  0  0  0  0  0  0
  188.7320  176.5710  144.8070 C   0  0  0  0  0  0  0  0  0  0  0  0
  187.8490  175.7930  142.6720 C   0  0  0  0  0  3  0  0  0  0  0  0
  190.1750  175.3580  143.2620 C   0  0  0  0  0  0  0  0  0  0  0  0
  191.2220  175.5100  144.1820 C   0  0  0  0  0  3  0  0  0  0  0  0
  186.5990  176.3280  142.9880 C   0  0  0  0  0  3  0  0  0  0  0  0
  192.1200  176.2990  146.3700 C   0  0  1  0  0  3  0  0  0  0  0  0
  192.0970  175.2140  147.2480 O   0  0  0  0  0  1  0  0  0  0  0  0
  193.3920  176.3440  145.6680 N   0  0  0  0  0  2  0  0  0  0  0  0
  194.2490  175.3340  146.2660 C   0  0  0  0  0  2  0  0  0  0  0  0
  195.0450  174.6070  145.1860 C   0  0  1  0  0  3  0  0  0  0  0  0
  196.3140  174.0430  145.7950 C   0  0  0  0  0  1  0  0  0  0  0  0
  194.2620  173.4930  144.4760 C   0  0  2  0  0  3  0  0  0  0  0  0
  194.6120  171.2340  143.6140 C   0  0  0  0  0  2  0  0  0  0  0  0
  193.6680  172.5010  145.4510 C   0  0  0  0  0  2  0  0  0  0  0  0
  195.0910  172.6760  143.4950 C   0  0  1  0  0  3  0  0  0  0  0  0
  193.5130  171.2210  144.6600 C   0  0  0  0  0  2  0  0  0  0  0  0
  194.9560  173.2270  142.0710 C   0  0  2  0  0  3  0  0  0  0  0  0
  194.9090  172.1840  141.1410 O   0  0  0  0  0  1  0  0  0  0  0  0
  196.0850  174.1980  141.7200 C   0  0  1  0  0  3  0  0  0  0  0  0
  196.6200  173.8780  140.4710 O   0  0  0  0  0  1  0  0  0  0  0  0
  195.6220  175.6260  141.7160 C   0  0  0  0  0  0  0  0  0  0  0  0
  194.3160  175.8800  141.6780 C   0  0  0  0  0  2  0  0  0  0  0  0
  196.5510  177.0350  143.3780 O   0  0  0  0  0  1  0  0  0  0  0  0
  196.5780  176.7370  142.0150 C   0  0  0  0  0  2  0  0  0  0  0  0
  190.3570  174.6990  142.0330 O   0  0  0  0  0  0  0  0  0  0  0  0
  190.5670  170.9980  142.4770 C   0  0  0  0  0  3  0  0  0  0  0  0
  191.3200  170.6550  141.3500 C   0  0  0  0  0  0  0  0  0  0  0  0
  191.4310  172.9910  140.7190 C   0  0  0  0  0  3  0  0  0  0  0  0
  190.2440  172.3350  142.7190 C   0  0  0  0  0  3  0  0  0  0  0  0
  190.6770  173.3440  141.8440 C   0  0  0  0  0  0  0  0  0  0  0  0
  191.7550  171.6530  140.4730 C   0  0  0  0  0  3  0  0  0  0  0  0
  192.7660  169.1610  140.1380 N   0  0  0  0  0  1  0  0  0  0  0  0
  191.6810  169.2330  141.1000 C   0  0  0  0  0  2  0  0  0  0  0  0
  1  6  1  0  0  0  0
  1  5  1  0  0  0  0
  2 11  1  0  0  0  0
  3 10  1  0  0  0  0
  3 16  1  0  0  0  0
  4  8  1  0  0  0  0
  4  7  2  0  0  0  0
  7  9  1  0  0  0  0
  8  1  2  0  0  0  0
  9  5  2  0  0  0  0
 11  7  1  0  0  0  0
 11 10  2  0  0  0  0
 12 15  2  0  0  0  0
 12  2  1  0  0  0  0
 13  2  2  0  0  0  0
 13 14  1  0  0  0  0
 14  3  2  0  0  0  0
 15  4  1  0  0  0  0
 16 17  1  1  0  0  0
 18 19  1  0  0  0  0
 18 16  1  0  0  0  0
 20 21  1  1  0  0  0
 20 19  1  0  0  0  0
 22 20  1  1  0  0  0
 22 24  1  0  0  0  0
 23 26  1  0  0  0  0
 25 27  1  6  0  0  0
 25 23  1  0  0  0  0
 25 22  1  0  0  0  0
 26 24  1  0  0  0  0
 27 28  1  6  0  0  0
 29 30  1  6  0  0  0
 29 27  1  0  0  0  0
 31 29  1  0  0  0  0
 31 34  1  0  0  0  0
 32 31  2  0  0  0  0
 34 33  1  0  0  0  0
 35 13  1  0  0  0  0
 36 39  1  0  0  0  0
 37 36  2  0  0  0  0
 38 40  1  0  0  0  0
 40 35  1  0  0  0  0
 40 39  2  0  0  0  0
 41 38  2  0  0  0  0
 41 37  1  0  0  0  0
 42 43  1  0  0  0  0
 43 37  1  0  0  0  0
M  END
>  <MODEL>
5

>  <REMARK>
 VINA RESULT:      -7.1      2.886      7.709
  Name = 
  12 active torsions:
  status: ('A' for Active; 'I' for Inactive)
    1  A    between atoms: O_1  and  C_34
    2  A    between atoms: O_1  and  C_35
    3  A    between atoms: C_2  and  N_6
    4  A    between atoms: C_2  and  C_13
    5  A    between atoms: C_3  and  C_4
    6  A    between atoms: C_3  and  C_12
    7  A    between atoms: N_6  and  C_12
    8  A    between atoms: C_11  and  C_14
    9  A    between atoms: C_11  and  C_29
   10  A    between atoms: C_14  and  C_22
   11  A    between atoms: C_19  and  C_37
   12  A    between atoms: C_29  and  C_31
                            x       y       z     vdW  Elec       q    Type
                         _______ _______ _______ _____ _____    ______ ____

>  <TORSDO>
F 12

$$$$
=
 OpenBabel11052420423D

 43 47  0  0  1  0  0  0  0  0999 V2000
  187.4930  177.2610  146.3070 C   0  0  0  0  0  0  0  0  0  0  0  0
  189.0800  174.1790  142.6210 C   0  0  0  0  0  0  0  0  0  0  0  0
  191.2350  172.7870  143.6940 C   0  0  0  0  0  0  0  0  0  0  0  0
  187.7540  176.0810  144.2070 C   0  0  0  0  0  0  0  0  0  0  0  0
  188.5680  176.5490  146.8470 C   0  0  0  0  0  3  0  0  0  0  0  0
  186.8260  178.2000  147.0800 O   0  0  0  0  0  1  0  0  0  0  0  0
  188.8470  175.3590  144.7460 C   0  0  0  0  0  0  0  0  0  0  0  0
  187.0860  177.0270  144.9890 C   0  0  0  0  0  3  0  0  0  0  0  0
  189.2430  175.6020  146.0710 C   0  0  0  0  0  3  0  0  0  0  0  0
  190.5690  173.7060  144.4450 N   0  0  0  0  0  0  0  0  0  0  0  0
  189.5120  174.4090  143.9500 C   0  0  0  0  0  0  0  0  0  0  0  0
  187.9960  174.9030  142.1070 C   0  0  0  0  0  3  0  0  0  0  0  0
  189.7370  173.2160  141.8370 C   0  0  0  0  0  0  0  0  0  0  0  0
  190.8270  172.5260  142.3860 C   0  0  0  0  0  3  0  0  0  0  0  0
  187.3380  175.8490  142.8940 C   0  0  0  0  0  3  0  0  0  0  0  0
  192.3710  172.0170  144.2770 C   0  0  1  0  0  3  0  0  0  0  0  0
  193.3040  171.7180  143.2830 O   0  0  0  0  0  1  0  0  0  0  0  0
  193.0000  172.7970  145.3300 N   0  0  0  0  0  2  0  0  0  0  0  0
  194.3970  172.3990  145.3850 C   0  0  0  0  0  2  0  0  0  0  0  0
  195.2950  173.6280  145.4890 C   0  0  1  0  0  3  0  0  0  0  0  0
  196.7370  173.1820  145.6360 C   0  0  0  0  0  1  0  0  0  0  0  0
  195.1630  174.6010  144.3080 C   0  0  2  0  0  3  0  0  0  0  0  0
  196.3160  176.5320  143.3520 C   0  0  0  0  0  2  0  0  0  0  0  0
  195.9570  174.1480  143.1030 C   0  0  0  0  0  2  0  0  0  0  0  0
  195.6280  176.0180  144.6120 C   0  0  1  0  0  3  0  0  0  0  0  0
  196.2470  175.4140  142.3280 C   0  0  0  0  0  2  0  0  0  0  0  0
  194.4520  176.9000  145.0440 C   0  0  2  0  0  3  0  0  0  0  0  0
  194.5700  177.2560  146.3910 O   0  0  0  0  0  1  0  0  0  0  0  0
  193.1030  176.2240  144.7930 C   0  0  1  0  0  3  0  0  0  0  0  0
  192.2800  176.3660  145.9120 O   0  0  0  0  0  1  0  0  0  0  0  0
  192.4070  176.7810  143.5850 C   0  0  0  0  0  0  0  0  0  0  0  0
  192.4760  176.1120  142.4370 C   0  0  0  0  0  2  0  0  0  0  0  0
  190.4300  177.7940  142.7630 O   0  0  0  0  0  1  0  0  0  0  0  0
  191.4410  177.9150  143.7180 C   0  0  0  0  0  2  0  0  0  0  0  0
  189.3050  172.9890  140.5170 O   0  0  0  0  0  0  0  0  0  0  0  0
  191.9480  173.7980  138.0080 C   0  0  0  0  0  3  0  0  0  0  0  0
  191.1520  174.1690  136.9200 C   0  0  0  0  0  0  0  0  0  0  0  0
  189.1640  173.7690  138.2440 C   0  0  0  0  0  3  0  0  0  0  0  0
  191.3500  173.4090  139.2090 C   0  0  0  0  0  3  0  0  0  0  0  0
  189.9510  173.3950  139.3380 C   0  0  0  0  0  0  0  0  0  0  0  0
  189.7600  174.1580  137.0410 C   0  0  0  0  0  3  0  0  0  0  0  0
  192.3750  175.9200  135.8120 N   0  0  0  0  0  1  0  0  0  0  0  0
  191.7880  174.6020  135.6460 C   0  0  0  0  0  2  0  0  0  0  0  0
  1  5  1  0  0  0  0
  1  6  1  0  0  0  0
  2 11  1  0  0  0  0
  3 16  1  0  0  0  0
  3 10  1  0  0  0  0
  4  7  2  0  0  0  0
  4  8  1  0  0  0  0
  7  9  1  0  0  0  0
  8  1  2  0  0  0  0
  9  5  2  0  0  0  0
 11 10  2  0  0  0  0
 11  7  1  0  0  0  0
 12  2  1  0  0  0  0
 12 15  2  0  0  0  0
 13 14  1  0  0  0  0
 13  2  2  0  0  0  0
 14  3  2  0  0  0  0
 15  4  1  0  0  0  0
 16 17  1  6  0  0  0
 16 18  1  0  0  0  0
 18 19  1  0  0  0  0
 19 20  1  0  0  0  0
 20 21  1  6  0  0  0
 22 25  1  0  0  0  0
 22 20  1  1  0  0  0
 23 25  1  0  0  0  0
 24 22  1  0  0  0  0
 25 27  1  6  0  0  0
 26 24  1  0  0  0  0
 26 23  1  0  0  0  0
 27 28  1  1  0  0  0
 29 27  1  0  0  0  0
 29 30  1  1  0  0  0
 31 34  1  0  0  0  0
 31 29  1  0  0  0  0
 32 31  2  0  0  0  0
 33 34  1  0  0  0  0
 35 13  1  0  0  0  0
 36 39  1  0  0  0  0
 37 41  1  0  0  0  0
 37 36  2  0  0  0  0
 38 40  1  0  0  0  0
 39 40  2  0  0  0  0
 40 35  1  0  0  0  0
 41 38  2  0  0  0  0
 43 42  1  0  0  0  0
 43 37  1  0  0  0  0
M  END
>  <MODEL>
6

>  <REMARK>
 VINA RESULT:      -7.0      2.509      6.432
  Name = 
  12 active torsions:
  status: ('A' for Active; 'I' for Inactive)
    1  A    between atoms: O_1  and  C_34
    2  A    between atoms: O_1  and  C_35
    3  A    between atoms: C_2  and  N_6
    4  A    between atoms: C_2  and  C_13
    5  A    between atoms: C_3  and  C_4
    6  A    between atoms: C_3  and  C_12
    7  A    between atoms: N_6  and  C_12
    8  A    between atoms: C_11  and  C_14
    9  A    between atoms: C_11  and  C_29
   10  A    between atoms: C_14  and  C_22
   11  A    between atoms: C_19  and  C_37
   12  A    between atoms: C_29  and  C_31
                            x       y       z     vdW  Elec       q    Type
                         _______ _______ _______ _____ _____    ______ ____

>  <TORSDO>
F 12

$$$$
=
 OpenBabel11052420423D

 43 47  0  0  1  0  0  0  0  0999 V2000
  196.0530  173.6720  145.8720 C   0  0  0  0  0  0  0  0  0  0  0  0
  191.4240  175.3430  144.6990 C   0  0  0  0  0  0  0  0  0  0  0  0
  190.0690  173.1310  143.6950 C   0  0  0  0  0  0  0  0  0  0  0  0
  194.0910  175.0510  145.5290 C   0  0  0  0  0  0  0  0  0  0  0  0
  195.3640  172.5590  145.3800 C   0  0  0  0  0  3  0  0  0  0  0  0
  197.3700  173.5410  146.2890 O   0  0  0  0  0  1  0  0  0  0  0  0
  193.3890  173.9300  145.0250 C   0  0  0  0  0  0  0  0  0  0  0  0
  195.4180  174.9160  145.9470 C   0  0  0  0  0  3  0  0  0  0  0  0
  194.0380  172.6860  144.9580 C   0  0  0  0  0  3  0  0  0  0  0  0
  191.3580  173.0140  144.1140 N   0  0  0  0  0  0  0  0  0  0  0  0
  192.0530  174.0770  144.6060 C   0  0  0  0  0  0  0  0  0  0  0  0
  192.1360  176.4390  145.2010 C   0  0  0  0  0  3  0  0  0  0  0  0
  190.0850  175.4790  144.2970 C   0  0  0  0  0  0  0  0  0  0  0  0
  189.4150  174.3590  143.7850 C   0  0  0  0  0  3  0  0  0  0  0  0
  193.4620  176.2950  145.6120 C   0  0  0  0  0  3  0  0  0  0  0  0
  189.3300  171.9400  143.1860 C   0  0  1  0  0  3  0  0  0  0  0  0
  188.1750  172.3460  142.5150 O   0  0  0  0  0  1  0  0  0  0  0  0
  190.1860  171.1820  142.2880 N   0  0  0  0  0  2  0  0  0  0  0  0
  190.1660  171.8570  141.0010 C   0  0  0  0  0  2  0  0  0  0  0  0
  191.5060  172.5350  140.7370 C   0  0  1  0  0  3  0  0  0  0  0  0
  192.6280  171.5630  141.0430 C   0  0  0  0  0  1  0  0  0  0  0  0
  191.6590  173.0820  139.3100 C   0  0  2  0  0  3  0  0  0  0  0  0
  193.1130  172.8200  137.3640 C   0  0  0  0  0  2  0  0  0  0  0  0
  190.9560  172.2170  138.2880 C   0  0  0  0  0  2  0  0  0  0  0  0
  193.1020  173.2040  138.8400 C   0  0  1  0  0  3  0  0  0  0  0  0
  191.6840  172.4790  136.9870 C   0  0  0  0  0  2  0  0  0  0  0  0
  193.6420  174.6170  139.0860 C   0  0  2  0  0  3  0  0  0  0  0  0
  193.8470  175.2850  137.8750 O   0  0  0  0  0  1  0  0  0  0  0  0
  194.9320  174.6050  139.9070 C   0  0  1  0  0  3  0  0  0  0  0  0
  195.9480  175.2650  139.2140 O   0  0  0  0  0  1  0  0  0  0  0  0
  194.7510  175.2400  141.2550 C   0  0  0  0  0  0  0  0  0  0  0  0
  193.5220  175.5460  141.6630 C   0  0  0  0  0  2  0  0  0  0  0  0
  196.4360  174.0170  142.3850 O   0  0  0  0  0  1  0  0  0  0  0  0
  195.8820  175.2890  142.2330 C   0  0  0  0  0  2  0  0  0  0  0  0
  189.4620  176.7380  144.3900 O   0  0  0  0  0  0  0  0  0  0  0  0
  186.6940  177.2540  146.8430 C   0  0  0  0  0  3  0  0  0  0  0  0
  185.6660  177.6420  145.9790 C   0  0  0  0  0  0  0  0  0  0  0  0
  187.1670  177.4030  144.0930 C   0  0  0  0  0  3  0  0  0  0  0  0
  187.9570  176.9470  146.3310 C   0  0  0  0  0  3  0  0  0  0  0  0
  188.2030  177.0140  144.9490 C   0  0  0  0  0  0  0  0  0  0  0  0
  185.9020  177.7120  144.6030 C   0  0  0  0  0  3  0  0  0  0  0  0
  183.7150  179.0340  145.7610 N   0  0  0  0  0  1  0  0  0  0  0  0
  184.3150  177.9510  146.5210 C   0  0  0  0  0  2  0  0  0  0  0  0
  1  8  1  0  0  0  0
  1  6  1  0  0  0  0
  2 12  1  0  0  0  0
  3 14  2  0  0  0  0
  3 10  1  0  0  0  0
  4 15  1  0  0  0  0
  4  8  2  0  0  0  0
  5  1  2  0  0  0  0
  7  4  1  0  0  0  0
  9  7  2  0  0  0  0
  9  5  1  0  0  0  0
 10 11  2  0  0  0  0
 11  2  1  0  0  0  0
 11  7  1  0  0  0  0
 12 15  2  0  0  0  0
 13 35  1  0  0  0  0
 13  2  2  0  0  0  0
 14 13  1  0  0  0  0
 16 17  1  6  0  0  0
 16  3  1  0  0  0  0
 18 16  1  0  0  0  0
 19 18  1  0  0  0  0
 20 19  1  0  0  0  0
 20 21  1  6  0  0  0
 22 20  1  1  0  0  0
 23 25  1  0  0  0  0
 24 22  1  0  0  0  0
 25 27  1  6  0  0  0
 25 22  1  0  0  0  0
 26 23  1  0  0  0  0
 26 24  1  0  0  0  0
 27 28  1  6  0  0  0
 27 29  1  0  0  0  0
 29 30  1  6  0  0  0
 29 31  1  0  0  0  0
 31 32  2  0  0  0  0
 31 34  1  0  0  0  0
 34 33  1  0  0  0  0
 35 40  1  0  0  0  0
 37 43  1  0  0  0  0
 37 36  2  0  0  0  0
 38 41  2  0  0  0  0
 38 40  1  0  0  0  0
 39 36  1  0  0  0  0
 40 39  2  0  0  0  0
 41 37  1  0  0  0  0
 42 43  1  0  0  0  0
M  END
>  <MODEL>
7

>  <REMARK>
 VINA RESULT:      -6.8      2.794      6.784
  Name = 
  12 active torsions:
  status: ('A' for Active; 'I' for Inactive)
    1  A    between atoms: O_1  and  C_34
    2  A    between atoms: O_1  and  C_35
    3  A    between atoms: C_2  and  N_6
    4  A    between atoms: C_2  and  C_13
    5  A    between atoms: C_3  and  C_4
    6  A    between atoms: C_3  and  C_12
    7  A    between atoms: N_6  and  C_12
    8  A    between atoms: C_11  and  C_14
    9  A    between atoms: C_11  and  C_29
   10  A    between atoms: C_14  and  C_22
   11  A    between atoms: C_19  and  C_37
   12  A    between atoms: C_29  and  C_31
                            x       y       z     vdW  Elec       q    Type
                         _______ _______ _______ _____ _____    ______ ____

>  <TORSDO>
F 12

$$$$
=
 OpenBabel11052420423D

 43 47  0  0  1  0  0  0  0  0999 V2000
  195.9010  173.9300  145.8660 C   0  0  0  0  0  0  0  0  0  0  0  0
  191.4400  175.6580  144.2150 C   0  0  0  0  0  0  0  0  0  0  0  0
  189.9800  173.3950  143.5190 C   0  0  0  0  0  0  0  0  0  0  0  0
  194.0500  175.3480  145.2090 C   0  0  0  0  0  0  0  0  0  0  0  0
  195.1580  172.7950  145.5280 C   0  0  0  0  0  3  0  0  0  0  0  0
  197.1890  173.7920  146.3620 O   0  0  0  0  0  1  0  0  0  0  0  0
  193.2930  174.2030  144.8610 C   0  0  0  0  0  0  0  0  0  0  0  0
  195.3470  175.2050  145.7070 C   0  0  0  0  0  3  0  0  0  0  0  0
  193.8600  172.9290  145.0270 C   0  0  0  0  0  3  0  0  0  0  0  0
  191.2420  173.2720  144.0130 N   0  0  0  0  0  0  0  0  0  0  0  0
  191.9870  174.3590  144.3600 C   0  0  0  0  0  0  0  0  0  0  0  0
  192.2050  176.7770  144.5660 C   0  0  0  0  0  3  0  0  0  0  0  0
  190.1300  175.8050  143.7320 C   0  0  0  0  0  0  0  0  0  0  0  0
  189.4060  174.6580  143.3770 C   0  0  0  0  0  3  0  0  0  0  0  0
  193.5020  176.6240  145.0590 C   0  0  0  0  0  3  0  0  0  0  0  0
  189.1840  172.1830  143.1750 C   0  0  1  0  0  3  0  0  0  0  0  0
  188.1840  172.5130  142.2590 O   0  0  0  0  0  1  0  0  0  0  0  0
  190.0580  171.1670  142.6120 N   0  0  0  0  0  2  0  0  0  0  0  0
  190.0850  171.3710  141.1740 C   0  0  0  0  0  2  0  0  0  0  0  0
  191.4300  170.9360  140.6010 C   0  0  1  0  0  3  0  0  0  0  0  0
  191.1980  170.1260  139.3400 C   0  0  0  0  0  1  0  0  0  0  0  0
  192.3910  172.0970  140.3090 C   0  0  2  0  0  3  0  0  0  0  0  0
  192.6700  174.4620  140.8570 C   0  0  0  0  0  2  0  0  0  0  0  0
  193.4650  172.2300  141.3660 C   0  0  0  0  0  2  0  0  0  0  0  0
  191.7160  173.4590  140.2200 C   0  0  1  0  0  3  0  0  0  0  0  0
  193.8890  173.6820  141.3120 C   0  0  0  0  0  2  0  0  0  0  0  0
  191.3760  173.8080  138.7660 C   0  0  2  0  0  3  0  0  0  0  0  0
  190.0910  173.3650  138.4400 O   0  0  0  0  0  1  0  0  0  0  0  0
  192.3980  173.2350  137.7830 C   0  0  1  0  0  3  0  0  0  0  0  0
  191.7550  172.7900  136.6280 O   0  0  0  0  0  1  0  0  0  0  0  0
  193.4530  174.2380  137.4160 C   0  0  0  0  0  0  0  0  0  0  0  0
  194.7330  173.9280  137.6090 C   0  0  0  0  0  2  0  0  0  0  0  0
  193.8130  175.4380  135.4050 O   0  0  0  0  0  1  0  0  0  0  0  0
  193.1050  175.4480  136.6080 C   0  0  0  0  0  2  0  0  0  0  0  0
  189.5890  177.0970  143.5900 O   0  0  0  0  0  0  0  0  0  0  0  0
  186.7450  178.0040  145.8320 C   0  0  0  0  0  3  0  0  0  0  0  0
  185.8400  178.5080  144.8930 C   0  0  0  0  0  0  0  0  0  0  0  0
  187.4270  178.0470  143.1230 C   0  0  0  0  0  3  0  0  0  0  0  0
  187.9910  177.5290  145.4150 C   0  0  0  0  0  3  0  0  0  0  0  0
  188.3400  177.5420  144.0550 C   0  0  0  0  0  0  0  0  0  0  0  0
  186.1800  178.5240  143.5380 C   0  0  0  0  0  3  0  0  0  0  0  0
  184.0670  178.2500  146.5010 N   0  0  0  0  0  1  0  0  0  0  0  0
  184.5050  178.9970  145.3350 C   0  0  0  0  0  2  0  0  0  0  0  0
  1  6  1  0  0  0  0
  2 11  1  0  0  0  0
  2 12  1  0  0  0  0
  3 10  1  0  0  0  0
  4  8  2  0  0  0  0
  5  1  2  0  0  0  0
  7  9  2  0  0  0  0
  7  4  1  0  0  0  0
  8  1  1  0  0  0  0
  9  5  1  0  0  0  0
 10 11  2  0  0  0  0
 11  7  1  0  0  0  0
 12 15  2  0  0  0  0
 13  2  2  0  0  0  0
 14  3  2  0  0  0  0
 14 13  1  0  0  0  0
 15  4  1  0  0  0  0
 16 17  1  6  0  0  0
 16  3  1  0  0  0  0
 18 16  1  0  0  0  0
 19 18  1  0  0  0  0
 20 21  1  6  0  0  0
 20 19  1  0  0  0  0
 22 20  1  1  0  0  0
 22 24  1  0  0  0  0
 23 26  1  0  0  0  0
 25 27  1  6  0  0  0
 25 22  1  0  0  0  0
 25 23  1  0  0  0  0
 26 24  1  0  0  0  0
 27 28  1  6  0  0  0
 29 30  1  6  0  0  0
 29 27  1  0  0  0  0
 31 32  2  0  0  0  0
 31 29  1  0  0  0  0
 33 34  1  0  0  0  0
 34 31  1  0  0  0  0
 35 13  1  0  0  0  0
 35 40  1  0  0  0  0
 37 43  1  0  0  0  0
 37 36  2  0  0  0  0
 38 41  2  0  0  0  0
 38 40  1  0  0  0  0
 39 36  1  0  0  0  0
 40 39  2  0  0  0  0
 41 37  1  0  0  0  0
 43 42  1  0  0  0  0
M  END
>  <MODEL>
8

>  <REMARK>
 VINA RESULT:      -6.8      2.629      6.847
  Name = 
  12 active torsions:
  status: ('A' for Active; 'I' for Inactive)
    1  A    between atoms: O_1  and  C_34
    2  A    between atoms: O_1  and  C_35
    3  A    between atoms: C_2  and  N_6
    4  A    between atoms: C_2  and  C_13
    5  A    between atoms: C_3  and  C_4
    6  A    between atoms: C_3  and  C_12
    7  A    between atoms: N_6  and  C_12
    8  A    between atoms: C_11  and  C_14
    9  A    between atoms: C_11  and  C_29
   10  A    between atoms: C_14  and  C_22
   11  A    between atoms: C_19  and  C_37
   12  A    between atoms: C_29  and  C_31
                            x       y       z     vdW  Elec       q    Type
                         _______ _______ _______ _____ _____    ______ ____

>  <TORSDO>
F 12

$$$$
=
 OpenBabel11052420423D

 43 47  0  0  1  0  0  0  0  0999 V2000
  196.5880  169.6300  146.1800 C   0  0  0  0  0  0  0  0  0  0  0  0
  192.6690  171.8880  143.9120 C   0  0  0  0  0  0  0  0  0  0  0  0
  193.2750  174.6020  143.9120 C   0  0  0  0  0  0  0  0  0  0  0  0
  194.4870  170.0810  145.0620 C   0  0  0  0  0  0  0  0  0  0  0  0
  196.8950  170.9940  146.1660 C   0  0  0  0  0  3  0  0  0  0  0  0
  197.4780  168.7260  146.7410 O   0  0  0  0  0  1  0  0  0  0  0  0
  194.7890  171.4640  145.0480 C   0  0  0  0  0  0  0  0  0  0  0  0
  195.3860  169.1740  145.6290 C   0  0  0  0  0  3  0  0  0  0  0  0
  196.0010  171.9080  145.6030 C   0  0  0  0  0  3  0  0  0  0  0  0
  194.1440  173.7050  144.4530 N   0  0  0  0  0  0  0  0  0  0  0  0
  193.8770  172.3690  144.4740 C   0  0  0  0  0  0  0  0  0  0  0  0
  192.3890  170.5160  143.9360 C   0  0  0  0  0  3  0  0  0  0  0  0
  191.7710  172.7940  143.3250 C   0  0  0  0  0  0  0  0  0  0  0  0
  192.0840  174.1610  143.3380 C   0  0  0  0  0  3  0  0  0  0  0  0
  193.2920  169.6180  144.5090 C   0  0  0  0  0  3  0  0  0  0  0  0
  193.6120  176.0540  143.8820 C   0  0  1  0  0  3  0  0  0  0  0  0
  194.7730  176.2590  143.1340 O   0  0  0  0  0  1  0  0  0  0  0  0
  192.5090  176.8010  143.3010 N   0  0  0  0  0  2  0  0  0  0  0  0
  192.0720  177.7670  144.2950 C   0  0  0  0  0  2  0  0  0  0  0  0
  190.5500  177.7690  144.4000 C   0  0  1  0  0  3  0  0  0  0  0  0
  189.9680  176.9590  143.2580 C   0  0  0  0  0  1  0  0  0  0  0  0
  190.0160  177.2450  145.7410 C   0  0  2  0  0  3  0  0  0  0  0  0
  188.8260  175.3090  146.6400 C   0  0  0  0  0  2  0  0  0  0  0  0
  191.0090  176.3420  146.4390 C   0  0  0  0  0  2  0  0  0  0  0  0
  188.7250  176.4460  145.6290 C   0  0  1  0  0  3  0  0  0  0  0  0
  190.1700  175.4530  147.3300 C   0  0  0  0  0  2  0  0  0  0  0  0
  187.5040  177.3410  145.8680 C   0  0  2  0  0  3  0  0  0  0  0  0
  187.2310  177.4480  147.2350 O   0  0  0  0  0  1  0  0  0  0  0  0
  186.2670  176.8380  145.1210 C   0  0  1  0  0  3  0  0  0  0  0  0
  185.2310  176.5890  146.0220 O   0  0  0  0  0  1  0  0  0  0  0  0
  185.8020  177.8120  144.0770 C   0  0  0  0  0  0  0  0  0  0  0  0
  186.5020  177.9340  142.9520 C   0  0  0  0  0  2  0  0  0  0  0  0
  184.5710  179.8250  144.2880 O   0  0  0  0  0  1  0  0  0  0  0  0
  184.4480  178.4400  144.1720 C   0  0  0  0  0  2  0  0  0  0  0  0
  190.5720  172.3130  142.7660 O   0  0  0  0  0  0  0  0  0  0  0  0
  188.7390  174.2690  140.1670 C   0  0  0  0  0  3  0  0  0  0  0  0
  188.9200  173.4380  139.0580 C   0  0  0  0  0  0  0  0  0  0  0  0
  190.1680  171.8820  140.4330 C   0  0  0  0  0  3  0  0  0  0  0  0
  189.2780  173.9080  141.4050 C   0  0  0  0  0  3  0  0  0  0  0  0
  189.9930  172.7070  141.5490 C   0  0  0  0  0  0  0  0  0  0  0  0
  189.6310  172.2430  139.1920 C   0  0  0  0  0  3  0  0  0  0  0  0
  187.4290  174.9390  137.9110 N   0  0  0  0  0  1  0  0  0  0  0  0
  188.3320  173.8130  137.7440 C   0  0  0  0  0  2  0  0  0  0  0  0
  1  6  1  0  0  0  0
  2 12  1  0  0  0  0
  2 11  1  0  0  0  0
  3 10  1  0  0  0  0
  4  8  1  0  0  0  0
  5  1  1  0  0  0  0
  7  4  2  0  0  0  0
  7  9  1  0  0  0  0
  8  1  2  0  0  0  0
  9  5  2  0  0  0  0
 10 11  2  0  0  0  0
 11  7  1  0  0  0  0
 12 15  2  0  0  0  0
 13 14  1  0  0  0  0
 13  2  2  0  0  0  0
 14  3  2  0  0  0  0
 15  4  1  0  0  0  0
 16 17  1  6  0  0  0
 16  3  1  0  0  0  0
 18 16  1  0  0  0  0
 18 19  1  0  0  0  0
 19 20  1  0  0  0  0
 20 21  1  6  0  0  0
 22 20  1  6  0  0  0
 22 24  1  0  0  0  0
 23 26  1  0  0  0  0
 24 26  1  0  0  0  0
 25 22  1  0  0  0  0
 25 27  1  1  0  0  0
 25 23  1  0  0  0  0
 27 28  1  1  0  0  0
 29 27  1  0  0  0  0
 29 30  1  1  0  0  0
 31 34  1  0  0  0  0
 31 29  1  0  0  0  0
 32 31  2  0  0  0  0
 34 33  1  0  0  0  0
 35 13  1  0  0  0  0
 36 39  1  0  0  0  0
 37 41  1  0  0  0  0
 37 36  2  0  0  0  0
 38 40  1  0  0  0  0
 39 40  2  0  0  0  0
 40 35  1  0  0  0  0
 41 38  2  0  0  0  0
 43 42  1  0  0  0  0
 43 37  1  0  0  0  0
M  END
>  <MODEL>
9

>  <REMARK>
 VINA RESULT:      -6.8      2.673      6.508
  Name = 
  12 active torsions:
  status: ('A' for Active; 'I' for Inactive)
    1  A    between atoms: O_1  and  C_34
    2  A    between atoms: O_1  and  C_35
    3  A    between atoms: C_2  and  N_6
    4  A    between atoms: C_2  and  C_13
    5  A    between atoms: C_3  and  C_4
    6  A    between atoms: C_3  and  C_12
    7  A    between atoms: N_6  and  C_12
    8  A    between atoms: C_11  and  C_14
    9  A    between atoms: C_11  and  C_29
   10  A    between atoms: C_14  and  C_22
   11  A    between atoms: C_19  and  C_37
   12  A    between atoms: C_29  and  C_31
                            x       y       z     vdW  Elec       q    Type
                         _______ _______ _______ _____ _____    ______ ____

>  <TORSDO>
F 12

$$$$
