=
 OpenBabel11052418143D

 28 32  0  0  1  0  0  0  0  0999 V2000
  190.6330  176.4570  144.4740 C   0  0  0  0  0  0  0  0  0  0  0  0
  186.5010  177.3050  141.4810 C   0  0  0  0  0  2  0  0  0  0  0  0
  187.0530  177.9800  147.5650 C   0  0  0  0  0  1  0  0  0  0  0  0
  184.8040  177.7280  143.2110 C   0  0  2  0  0  3  0  0  0  0  0  0
  187.1030  177.4830  143.9130 N   0  0  1  0  0  0  0  0  0  0  0  0
  184.1950  178.1020  140.8600 C   0  0  0  0  0  0  0  0  0  0  0  0
  186.2630  177.9870  142.8300 C   0  0  1  0  0  3  0  0  0  0  0  0
  185.4710  178.8360  145.2940 C   0  0  0  0  0  2  0  0  0  0  0  0
  183.8700  178.4860  142.2800 C   0  0  0  0  0  2  0  0  0  0  0  0
  188.9090  177.2440  146.0150 C   0  0  0  0  0  0  0  0  0  0  0  0
  188.5200  177.5310  143.5450 C   0  0  0  0  0  2  0  0  0  0  0  0
  184.5040  177.9510  144.6350 N   0  0  0  0  0  2  0  0  0  0  0  0
  190.9280  176.2050  146.8700 C   0  0  0  0  0  3  0  0  0  0  0  0
  187.6220  177.8610  146.2250 N   0  0  0  0  0  0  0  0  0  0  0  0
  189.6910  176.8110  147.0950 C   0  0  0  0  0  3  0  0  0  0  0  0
  183.2940  177.9670  140.0490 O   0  0  0  0  0  0  0  0  0  0  0  0
  185.6310  177.9800  140.4120 C   0  0  0  0  0  2  0  0  0  0  0  0
  186.9390  178.4060  145.0470 C   0  0  1  0  0  3  0  0  0  0  0  0
  191.3950  176.0290  145.5670 C   0  0  0  0  0  3  0  0  0  0  0  0
  189.3750  177.0500  144.6950 C   0  0  0  0  0  0  0  0  0  0  0  0
  191.1750  176.2620  143.0800 C   0  0  0  0  0  2  0  0  0  0  0  0
  191.1540  174.8630  142.6300 N   0  0  0  0  0  0  0  0  0  0  0  0
  190.3750  173.7870  140.7570 C   0  0  0  0  0  0  0  0  0  0  0  0
  192.2450  174.6380  141.8250 O   0  0  0  0  0  0  0  0  0  0  0  0
  188.9660  173.8060  142.7420 C   0  0  0  0  0  1  0  0  0  0  0  0
  189.9320  174.5970  141.8800 C   0  0  1  0  0  3  0  0  0  0  0  0
  189.7270  173.7520  139.6520 N   0  0  0  0  0  2  0  0  0  0  0  0
  191.8400  173.7730  140.7890 C   0  0  0  0  0  2  0  0  0  0  0  0
  1 20  2  0  0  0  0
  1 19  1  0  0  0  0
  4  9  1  6  0  0  0
  4 12  1  0  0  0  0
  5 11  1  6  0  0  0
  5 18  1  0  0  0  0
  6  9  1  0  0  0  0
  7  2  1  6  0  0  0
  7  4  1  0  0  0  0
  7  5  1  0  0  0  0
 10 14  1  0  0  0  0
 10 15  2  0  0  0  0
 11 20  1  0  0  0  0
 12  8  1  0  0  0  0
 13 15  1  0  0  0  0
 14  3  1  0  0  0  0
 16  6  2  0  0  0  0
 17  6  1  0  0  0  0
 17  2  1  0  0  0  0
 18  8  1  1  0  0  0
 18 14  1  0  0  0  0
 19 13  2  0  0  0  0
 20 10  1  0  0  0  0
 21  1  1  0  0  0  0
 22 21  1  0  0  0  0
 23 28  1  0  0  0  0
 23 26  1  0  0  0  0
 24 22  1  0  0  0  0
 26 22  1  0  0  0  0
 26 25  1  1  0  0  0
 27 23  2  0  0  0  0
 28 24  1  0  0  0  0
M  END
>  <MODEL>
1

>  <REMARK>
 VINA RESULT:      -7.6      0.000      0.000
  Name = 
  2 active torsions:
  status: ('A' for Active; 'I' for Inactive)
    1  A    between atoms: C_1  and  C_2
    2  A    between atoms: C_2  and  N_3
                            x       y       z     vdW  Elec       q    Type
                         _______ _______ _______ _____ _____    ______ ____

>  <TORSDO>
F 2

$$$$
=
 OpenBabel11052418143D

 28 32  0  0  1  0  0  0  0  0999 V2000
  186.8620  176.8170  144.8110 C   0  0  0  0  0  0  0  0  0  0  0  0
  190.5840  174.7850  141.8490 C   0  0  0  0  0  2  0  0  0  0  0  0
  190.8570  176.4910  147.7470 C   0  0  0  0  0  1  0  0  0  0  0  0
  192.5040  175.0070  143.3690 C   0  0  2  0  0  3  0  0  0  0  0  0
  190.3130  175.5620  144.2220 N   0  0  1  0  0  0  0  0  0  0  0  0
  192.8070  173.7500  141.2800 C   0  0  0  0  0  0  0  0  0  0  0  0
  191.0150  174.6620  143.3120 C   0  0  1  0  0  3  0  0  0  0  0  0
  192.1470  174.7930  145.7860 C   0  0  0  0  0  2  0  0  0  0  0  0
  193.3260  173.9270  142.6830 C   0  0  0  0  0  2  0  0  0  0  0  0
  188.7950  176.6310  146.2940 C   0  0  0  0  0  0  0  0  0  0  0  0
  188.8610  175.4150  144.0900 C   0  0  0  0  0  2  0  0  0  0  0  0
  192.9960  175.3350  144.7180 N   0  0  0  0  0  2  0  0  0  0  0  0
  186.8800  177.9700  146.9470 C   0  0  0  0  0  3  0  0  0  0  0  0
  190.1130  176.1060  146.5510 N   0  0  0  0  0  0  0  0  0  0  0  0
  188.1510  177.4630  147.2200 C   0  0  0  0  0  3  0  0  0  0  0  0
  193.5890  173.5430  140.3670 O   0  0  0  0  0  0  0  0  0  0  0  0
  191.3220  173.7310  141.0120 C   0  0  0  0  0  2  0  0  0  0  0  0
  190.6490  175.1360  145.5890 C   0  0  1  0  0  3  0  0  0  0  0  0
  186.2400  177.6490  145.7490 C   0  0  0  0  0  3  0  0  0  0  0  0
  188.1530  176.3190  145.0730 C   0  0  0  0  0  0  0  0  0  0  0  0
  186.1360  176.4820  143.5320 C   0  0  0  0  0  2  0  0  0  0  0  0
  186.1330  177.5750  142.5510 N   0  0  0  0  0  0  0  0  0  0  0  0
  186.2930  177.6850  140.2620 C   0  0  0  0  0  0  0  0  0  0  0  0
  184.8550  177.7460  142.0780 O   0  0  0  0  0  0  0  0  0  0  0  0
  188.3100  178.0510  141.5750 C   0  0  0  0  0  1  0  0  0  0  0  0
  187.0250  177.2550  141.4420 C   0  0  1  0  0  3  0  0  0  0  0  0
  186.5010  177.1640  139.1110 N   0  0  0  0  0  2  0  0  0  0  0  0
  184.9450  178.0560  140.7050 C   0  0  0  0  0  2  0  0  0  0  0  0
  1 20  2  0  0  0  0
  1 19  1  0  0  0  0
  4  9  1  1  0  0  0
  4 12  1  0  0  0  0
  5 11  1  1  0  0  0
  5 18  1  0  0  0  0
  6  9  1  0  0  0  0
  7  2  1  6  0  0  0
  7  4  1  0  0  0  0
  7  5  1  0  0  0  0
 10 14  1  0  0  0  0
 10 15  2  0  0  0  0
 11 20  1  0  0  0  0
 12  8  1  0  0  0  0
 13 15  1  0  0  0  0
 14  3  1  0  0  0  0
 16  6  2  0  0  0  0
 17  6  1  0  0  0  0
 17  2  1  0  0  0  0
 18  8  1  6  0  0  0
 18 14  1  0  0  0  0
 19 13  2  0  0  0  0
 20 10  1  0  0  0  0
 21  1  1  0  0  0  0
 22 21  1  0  0  0  0
 23 28  1  0  0  0  0
 23 26  1  0  0  0  0
 24 22  1  0  0  0  0
 26 25  1  1  0  0  0
 26 22  1  0  0  0  0
 27 23  2  0  0  0  0
 28 24  1  0  0  0  0
M  END
>  <MODEL>
2

>  <REMARK>
 VINA RESULT:      -7.4      1.854      6.155
  Name = 
  2 active torsions:
  status: ('A' for Active; 'I' for Inactive)
    1  A    between atoms: C_1  and  C_2
    2  A    between atoms: C_2  and  N_3
                            x       y       z     vdW  Elec       q    Type
                         _______ _______ _______ _____ _____    ______ ____

>  <TORSDO>
F 2

$$$$
=
 OpenBabel11052418143D

 28 32  0  0  1  0  0  0  0  0999 V2000
  188.8260  176.5540  145.7700 C   0  0  0  0  0  0  0  0  0  0  0  0
  188.8290  173.9950  141.2760 C   0  0  0  0  0  2  0  0  0  0  0  0
  193.1000  174.0240  145.6940 C   0  0  0  0  0  1  0  0  0  0  0  0
  191.1160  173.0900  141.3050 C   0  0  2  0  0  3  0  0  0  0  0  0
  190.3240  174.2350  143.2800 N   0  0  1  0  0  0  0  0  0  0  0  0
  189.5860  172.3430  139.5320 C   0  0  0  0  0  0  0  0  0  0  0  0
  189.8950  173.3740  142.1810 C   0  0  1  0  0  3  0  0  0  0  0  0
  192.1300  172.4700  143.4490 C   0  0  0  0  0  2  0  0  0  0  0  0
  190.8140  171.9710  140.3210 C   0  0  0  0  0  2  0  0  0  0  0  0
  190.9160  175.2900  145.7840 C   0  0  0  0  0  0  0  0  0  0  0  0
  189.1760  174.6980  144.0640 C   0  0  0  0  0  2  0  0  0  0  0  0
  192.3630  172.8750  142.0580 N   0  0  0  0  0  2  0  0  0  0  0  0
  190.5580  177.0730  147.3900 C   0  0  0  0  0  3  0  0  0  0  0  0
  191.7390  174.2500  145.2170 N   0  0  0  0  0  0  0  0  0  0  0  0
  191.3640  176.0630  146.8640 C   0  0  0  0  0  3  0  0  0  0  0  0
  189.5230  172.0700  138.3460 O   0  0  0  0  0  0  0  0  0  0  0  0
  188.3970  172.9660  140.2220 C   0  0  0  0  0  2  0  0  0  0  0  0
  191.1330  173.4030  144.1840 C   0  0  1  0  0  3  0  0  0  0  0  0
  189.2950  177.3160  146.8460 C   0  0  0  0  0  3  0  0  0  0  0  0
  189.6450  175.5480  145.2220 C   0  0  0  0  0  0  0  0  0  0  0  0
  187.4520  176.8380  145.2150 C   0  0  0  0  0  2  0  0  0  0  0  0
  187.3840  178.0620  144.4050 N   0  0  0  0  0  0  0  0  0  0  0  0
  186.2470  178.6750  142.5060 C   0  0  0  0  0  0  0  0  0  0  0  0
  186.3090  178.8100  144.8180 O   0  0  0  0  0  0  0  0  0  0  0  0
  188.5490  177.9190  142.2740 C   0  0  0  0  0  1  0  0  0  0  0  0
  187.2290  177.7210  142.9950 C   0  0  1  0  0  3  0  0  0  0  0  0
  185.5050  178.4200  141.4940 N   0  0  0  0  0  2  0  0  0  0  0  0
  185.7330  179.3980  143.6730 C   0  0  0  0  0  2  0  0  0  0  0  0
  1 19  1  0  0  0  0
  4  9  1  1  0  0  0
  4 12  1  0  0  0  0
  4  7  1  0  0  0  0
  5 11  1  1  0  0  0
  5 18  1  0  0  0  0
  6 17  1  0  0  0  0
  6  9  1  0  0  0  0
  7  2  1  6  0  0  0
  7  5  1  0  0  0  0
 10 15  2  0  0  0  0
 11 20  1  0  0  0  0
 12  8  1  0  0  0  0
 14  3  1  0  0  0  0
 14 10  1  0  0  0  0
 15 13  1  0  0  0  0
 16  6  2  0  0  0  0
 17  2  1  0  0  0  0
 18  8  1  6  0  0  0
 18 14  1  0  0  0  0
 19 13  2  0  0  0  0
 20  1  2  0  0  0  0
 20 10  1  0  0  0  0
 21  1  1  0  0  0  0
 22 24  1  0  0  0  0
 22 21  1  0  0  0  0
 23 26  1  0  0  0  0
 23 28  1  0  0  0  0
 26 25  1  6  0  0  0
 26 22  1  0  0  0  0
 27 23  2  0  0  0  0
 28 24  1  0  0  0  0
M  END
>  <MODEL>
3

>  <REMARK>
 VINA RESULT:      -7.3      2.268      6.159
  Name = 
  2 active torsions:
  status: ('A' for Active; 'I' for Inactive)
    1  A    between atoms: C_1  and  C_2
    2  A    between atoms: C_2  and  N_3
                            x       y       z     vdW  Elec       q    Type
                         _______ _______ _______ _____ _____    ______ ____

>  <TORSDO>
F 2

$$$$
=
 OpenBabel11052418143D

 28 32  0  0  1  0  0  0  0  0999 V2000
  191.8220  174.5950  143.3050 C   0  0  0  0  0  0  0  0  0  0  0  0
  187.3550  177.2010  143.3430 C   0  0  0  0  0  2  0  0  0  0  0  0
  191.2000  176.0820  148.0050 C   0  0  0  0  0  1  0  0  0  0  0  0
  187.0920  177.5570  145.7620 C   0  0  2  0  0  3  0  0  0  0  0  0
  189.1550  176.5740  144.9780 N   0  0  1  0  0  0  0  0  0  0  0  0
  185.5250  178.6800  144.2390 C   0  0  0  0  0  0  0  0  0  0  0  0
  188.1170  177.5380  144.6260 C   0  0  1  0  0  3  0  0  0  0  0  0
  189.0910  177.8740  147.1480 C   0  0  0  0  0  2  0  0  0  0  0  0
  186.1510  178.7420  145.6080 C   0  0  0  0  0  2  0  0  0  0  0  0
  191.5690  175.3470  145.6160 C   0  0  0  0  0  0  0  0  0  0  0  0
  190.0790  176.3650  143.8600 C   0  0  0  0  0  2  0  0  0  0  0  0
  187.6820  177.4630  147.1090 N   0  0  0  0  0  2  0  0  0  0  0  0
  193.2130  173.6520  145.0570 C   0  0  0  0  0  3  0  0  0  0  0  0
  190.8990  176.1850  146.5800 N   0  0  0  0  0  0  0  0  0  0  0  0
  192.5860  174.4640  146.0040 C   0  0  0  0  0  3  0  0  0  0  0  0
  184.3550  178.9920  144.0950 O   0  0  0  0  0  0  0  0  0  0  0  0
  186.3610  178.3280  143.0330 C   0  0  0  0  0  2  0  0  0  0  0  0
  189.9480  177.1740  146.0620 C   0  0  1  0  0  3  0  0  0  0  0  0
  192.8320  173.7180  143.7160 C   0  0  0  0  0  3  0  0  0  0  0  0
  191.1720  175.4010  144.2600 C   0  0  0  0  0  0  0  0  0  0  0  0
  191.4450  174.6470  141.8460 C   0  0  0  0  0  2  0  0  0  0  0  0
  190.5780  173.5400  141.4200 N   0  0  0  0  0  0  0  0  0  0  0  0
  189.0070  173.2690  139.7670 C   0  0  0  0  0  0  0  0  0  0  0  0
  191.1970  172.8570  140.4010 O   0  0  0  0  0  0  0  0  0  0  0  0
  188.2340  173.8180  142.0090 C   0  0  0  0  0  1  0  0  0  0  0  0
  189.2980  174.0580  140.9530 C   0  0  1  0  0  3  0  0  0  0  0  0
  188.2570  173.7120  138.8280 N   0  0  0  0  0  2  0  0  0  0  0  0
  190.2010  172.4670  139.4820 C   0  0  0  0  0  2  0  0  0  0  0  0
  1 19  2  0  0  0  0
  1 20  1  0  0  0  0
  4  9  1  1  0  0  0
  4 12  1  0  0  0  0
  5 11  1  6  0  0  0
  5 18  1  0  0  0  0
  6  9  1  0  0  0  0
  7  2  1  6  0  0  0
  7  5  1  0  0  0  0
  7  4  1  0  0  0  0
 10 15  1  0  0  0  0
 10 14  1  0  0  0  0
 11 20  1  0  0  0  0
 12  8  1  0  0  0  0
 13 15  2  0  0  0  0
 14  3  1  0  0  0  0
 16  6  2  0  0  0  0
 17  2  1  0  0  0  0
 17  6  1  0  0  0  0
 18 14  1  0  0  0  0
 18  8  1  1  0  0  0
 19 13  1  0  0  0  0
 20 10  2  0  0  0  0
 21  1  1  0  0  0  0
 22 21  1  0  0  0  0
 23 26  1  0  0  0  0
 24 22  1  0  0  0  0
 26 22  1  0  0  0  0
 26 25  1  1  0  0  0
 27 23  2  0  0  0  0
 28 23  1  0  0  0  0
 28 24  1  0  0  0  0
M  END
>  <MODEL>
4

>  <REMARK>
 VINA RESULT:      -7.1      1.939      3.059
  Name = 
  2 active torsions:
  status: ('A' for Active; 'I' for Inactive)
    1  A    between atoms: C_1  and  C_2
    2  A    between atoms: C_2  and  N_3
                            x       y       z     vdW  Elec       q    Type
                         _______ _______ _______ _____ _____    ______ ____

>  <TORSDO>
F 2

$$$$
=
 OpenBabel11052418143D

 28 32  0  0  1  0  0  0  0  0999 V2000
  189.8070  176.1050  146.8280 C   0  0  0  0  0  0  0  0  0  0  0  0
  188.4240  174.0980  142.2660 C   0  0  0  0  0  2  0  0  0  0  0  0
  194.0330  174.5380  144.7380 C   0  0  0  0  0  1  0  0  0  0  0  0
  190.6450  173.6900  141.2920 C   0  0  2  0  0  3  0  0  0  0  0  0
  190.5330  174.4270  143.5900 N   0  0  1  0  0  0  0  0  0  0  0  0
  188.6710  172.8360  140.1020 C   0  0  0  0  0  0  0  0  0  0  0  0
  189.8390  173.6180  142.5910 C   0  0  1  0  0  3  0  0  0  0  0  0
  192.5010  173.0670  142.7680 C   0  0  0  0  0  2  0  0  0  0  0  0
  190.1510  172.6430  140.3040 C   0  0  0  0  0  2  0  0  0  0  0  0
  191.8980  175.3070  145.8490 C   0  0  0  0  0  0  0  0  0  0  0  0
  189.7310  174.5550  144.8100 C   0  0  0  0  0  2  0  0  0  0  0  0
  192.1040  173.6580  141.4840 N   0  0  0  0  0  2  0  0  0  0  0  0
  191.9380  176.7950  147.7650 C   0  0  0  0  0  3  0  0  0  0  0  0
  192.5770  174.5280  144.8430 N   0  0  0  0  0  0  0  0  0  0  0  0
  192.6130  176.0360  146.8080 C   0  0  0  0  0  3  0  0  0  0  0  0
  188.1880  172.6840  138.9930 O   0  0  0  0  0  0  0  0  0  0  0  0
  187.7710  173.1210  141.2790 C   0  0  0  0  0  2  0  0  0  0  0  0
  191.7470  173.6890  143.9700 C   0  0  1  0  0  3  0  0  0  0  0  0
  190.5420  176.8280  147.7740 C   0  0  0  0  0  3  0  0  0  0  0  0
  190.4850  175.3550  145.8480 C   0  0  0  0  0  0  0  0  0  0  0  0
  188.3000  176.1550  146.8760 C   0  0  0  0  0  2  0  0  0  0  0  0
  187.7420  177.4700  146.5320 N   0  0  0  0  0  0  0  0  0  0  0  0
  185.7200  178.2000  145.7250 C   0  0  0  0  0  0  0  0  0  0  0  0
  187.0430  177.9540  147.6110 O   0  0  0  0  0  0  0  0  0  0  0  0
  187.5410  177.8790  144.1420 C   0  0  0  0  0  1  0  0  0  0  0  0
  186.8500  177.3500  145.3850 C   0  0  1  0  0  3  0  0  0  0  0  0
  184.5540  178.0020  145.2330 N   0  0  0  0  0  2  0  0  0  0  0  0
  185.9050  178.6240  147.1160 C   0  0  0  0  0  2  0  0  0  0  0  0
  1 21  1  0  0  0  0
  1 19  1  0  0  0  0
  3 14  1  0  0  0  0
  4  9  1  6  0  0  0
  4 12  1  0  0  0  0
  4  7  1  0  0  0  0
  5 18  1  0  0  0  0
  5 11  1  1  0  0  0
  6  9  1  0  0  0  0
  6 17  1  0  0  0  0
  7  2  1  6  0  0  0
  7  5  1  0  0  0  0
 10 15  2  0  0  0  0
 11 20  1  0  0  0  0
 12  8  1  0  0  0  0
 13 19  2  0  0  0  0
 14 10  1  0  0  0  0
 15 13  1  0  0  0  0
 16  6  2  0  0  0  0
 17  2  1  0  0  0  0
 18  8  1  6  0  0  0
 18 14  1  0  0  0  0
 20 10  1  0  0  0  0
 20  1  2  0  0  0  0
 22 21  1  0  0  0  0
 22 24  1  0  0  0  0
 23 28  1  0  0  0  0
 26 25  1  6  0  0  0
 26 23  1  0  0  0  0
 26 22  1  0  0  0  0
 27 23  2  0  0  0  0
 28 24  1  0  0  0  0
M  END
>  <MODEL>
5

>  <REMARK>
 VINA RESULT:      -7.1      2.696      6.352
  Name = 
  2 active torsions:
  status: ('A' for Active; 'I' for Inactive)
    1  A    between atoms: C_1  and  C_2
    2  A    between atoms: C_2  and  N_3
                            x       y       z     vdW  Elec       q    Type
                         _______ _______ _______ _____ _____    ______ ____

>  <TORSDO>
F 2

$$$$
=
 OpenBabel11052418143D

 28 32  0  0  1  0  0  0  0  0999 V2000
  189.9910  175.1630  144.8410 C   0  0  0  0  0  0  0  0  0  0  0  0
  186.3170  176.9300  141.6580 C   0  0  0  0  0  2  0  0  0  0  0  0
  186.7930  177.6150  147.7470 C   0  0  0  0  0  1  0  0  0  0  0  0
  184.7170  177.8100  143.3050 C   0  0  2  0  0  3  0  0  0  0  0  0
  186.8530  177.0200  144.1100 N   0  0  1  0  0  0  0  0  0  0  0  0
  184.3090  178.2590  140.9240 C   0  0  0  0  0  0  0  0  0  0  0  0
  186.2070  177.6860  142.9830 C   0  0  1  0  0  3  0  0  0  0  0  0
  185.5610  178.7750  145.3950 C   0  0  0  0  0  2  0  0  0  0  0  0
  184.0380  178.7500  142.3210 C   0  0  0  0  0  2  0  0  0  0  0  0
  188.4620  176.3970  146.2920 C   0  0  0  0  0  0  0  0  0  0  0  0
  188.2510  176.7030  143.8020 C   0  0  0  0  0  2  0  0  0  0  0  0
  184.4290  178.1410  144.7110 N   0  0  0  0  0  2  0  0  0  0  0  0
  190.1240  174.9120  147.2520 C   0  0  0  0  0  3  0  0  0  0  0  0
  187.3640  177.3210  146.4350 N   0  0  0  0  0  0  0  0  0  0  0  0
  189.0700  175.8130  147.4120 C   0  0  0  0  0  3  0  0  0  0  0  0
  183.4340  178.3290  140.0770 O   0  0  0  0  0  0  0  0  0  0  0  0
  185.6840  177.7690  140.5400 C   0  0  0  0  0  2  0  0  0  0  0  0
  186.8840  177.9860  145.2190 C   0  0  1  0  0  3  0  0  0  0  0  0
  190.5810  174.5890  145.9730 C   0  0  0  0  0  3  0  0  0  0  0  0
  188.9140  176.0570  144.9970 C   0  0  0  0  0  0  0  0  0  0  0  0
  190.5190  174.7990  143.4750 C   0  0  0  0  0  2  0  0  0  0  0  0
  191.7990  175.4420  143.1470 N   0  0  0  0  0  0  0  0  0  0  0  0
  193.4160  176.5250  144.3660 C   0  0  0  0  0  0  0  0  0  0  0  0
  192.8140  174.5370  143.3410 O   0  0  0  0  0  0  0  0  0  0  0  0
  191.7460  177.8730  143.2170 C   0  0  0  0  0  1  0  0  0  0  0  0
  192.0100  176.6030  144.0040 C   0  0  1  0  0  3  0  0  0  0  0  0
  193.8650  177.0510  145.4450 N   0  0  0  0  0  2  0  0  0  0  0  0
  193.9150  175.2380  143.8730 C   0  0  0  0  0  2  0  0  0  0  0  0
  1 20  2  0  0  0  0
  1 19  1  0  0  0  0
  4  9  1  6  0  0  0
  4 12  1  0  0  0  0
  5 11  1  6  0  0  0
  5 18  1  0  0  0  0
  6  9  1  0  0  0  0
  7  2  1  6  0  0  0
  7  4  1  0  0  0  0
  7  5  1  0  0  0  0
 10 14  1  0  0  0  0
 10 15  2  0  0  0  0
 11 20  1  0  0  0  0
 12  8  1  0  0  0  0
 13 15  1  0  0  0  0
 14  3  1  0  0  0  0
 16  6  2  0  0  0  0
 17  6  1  0  0  0  0
 17  2  1  0  0  0  0
 18  8  1  1  0  0  0
 18 14  1  0  0  0  0
 19 13  2  0  0  0  0
 20 10  1  0  0  0  0
 21  1  1  0  0  0  0
 22 24  1  0  0  0  0
 22 21  1  0  0  0  0
 22 26  1  0  0  0  0
 23 27  2  0  0  0  0
 24 28  1  0  0  0  0
 26 25  1  6  0  0  0
 26 23  1  0  0  0  0
 28 23  1  0  0  0  0
M  END
>  <MODEL>
6

>  <REMARK>
 VINA RESULT:      -7.1      1.512      2.428
  Name = 
  2 active torsions:
  status: ('A' for Active; 'I' for Inactive)
    1  A    between atoms: C_1  and  C_2
    2  A    between atoms: C_2  and  N_3
                            x       y       z     vdW  Elec       q    Type
                         _______ _______ _______ _____ _____    ______ ____

>  <TORSDO>
F 2

$$$$
=
 OpenBabel11052418143D

 28 32  0  0  1  0  0  0  0  0999 V2000
  191.1670  174.6670  143.1210 C   0  0  0  0  0  0  0  0  0  0  0  0
  186.9380  176.7510  140.9930 C   0  0  0  0  0  2  0  0  0  0  0  0
  188.7160  176.8090  146.8760 C   0  0  0  0  0  1  0  0  0  0  0  0
  185.7460  177.4580  143.0240 C   0  0  2  0  0  3  0  0  0  0  0  0
  187.9870  176.5900  143.2700 N   0  0  1  0  0  0  0  0  0  0  0  0
  184.8490  178.1480  140.8430 C   0  0  0  0  0  0  0  0  0  0  0  0
  187.1300  177.3680  142.3790 C   0  0  1  0  0  3  0  0  0  0  0  0
  187.0370  178.2040  144.9710 C   0  0  0  0  0  2  0  0  0  0  0  0
  184.8930  178.4940  142.3080 C   0  0  0  0  0  2  0  0  0  0  0  0
  190.0100  175.7470  144.9830 C   0  0  0  0  0  0  0  0  0  0  0  0
  189.2790  176.3060  142.6390 C   0  0  0  0  0  2  0  0  0  0  0  0
  185.7710  177.6430  144.4850 N   0  0  0  0  0  2  0  0  0  0  0  0
  191.8040  174.1710  145.4110 C   0  0  0  0  0  3  0  0  0  0  0  0
  188.9880  176.6500  145.4500 N   0  0  0  0  0  0  0  0  0  0  0  0
  190.8290  175.0510  145.8820 C   0  0  0  0  0  3  0  0  0  0  0  0
  183.8160  178.3060  140.2150 O   0  0  0  0  0  0  0  0  0  0  0  0
  186.1000  177.7010  140.1260 C   0  0  0  0  0  2  0  0  0  0  0  0
  188.2740  177.4370  144.4370 C   0  0  1  0  0  3  0  0  0  0  0  0
  191.9710  173.9810  144.0380 C   0  0  0  0  0  3  0  0  0  0  0  0
  190.1680  175.5410  143.5930 C   0  0  0  0  0  0  0  0  0  0  0  0
  191.3830  174.4460  141.6450 C   0  0  0  0  0  2  0  0  0  0  0  0
  190.8940  173.1460  141.1660 N   0  0  0  0  0  0  0  0  0  0  0  0
  189.3510  172.4850  139.5990 C   0  0  0  0  0  0  0  0  0  0  0  0
  191.6040  172.7890  140.0450 O   0  0  0  0  0  0  0  0  0  0  0  0
  188.6570  172.5720  141.9300 C   0  0  0  0  0  1  0  0  0  0  0  0
  189.4760  173.2350  140.8380 C   0  0  1  0  0  3  0  0  0  0  0  0
  188.4110  172.7170  138.7600 N   0  0  0  0  0  2  0  0  0  0  0  0
  190.7100  172.1560  139.1570 C   0  0  0  0  0  2  0  0  0  0  0  0
  1 20  2  0  0  0  0
  1 19  1  0  0  0  0
  4  9  1  6  0  0  0
  4 12  1  0  0  0  0
  5 11  1  6  0  0  0
  5 18  1  0  0  0  0
  6  9  1  0  0  0  0
  7  2  1  6  0  0  0
  7  4  1  0  0  0  0
  7  5  1  0  0  0  0
 10 14  1  0  0  0  0
 10 15  2  0  0  0  0
 11 20  1  0  0  0  0
 12  8  1  0  0  0  0
 13 15  1  0  0  0  0
 14  3  1  0  0  0  0
 16  6  2  0  0  0  0
 17  6  1  0  0  0  0
 17  2  1  0  0  0  0
 18  8  1  1  0  0  0
 18 14  1  0  0  0  0
 19 13  2  0  0  0  0
 20 10  1  0  0  0  0
 21  1  1  0  0  0  0
 22 21  1  0  0  0  0
 23 26  1  0  0  0  0
 24 22  1  0  0  0  0
 26 22  1  0  0  0  0
 26 25  1  1  0  0  0
 27 23  2  0  0  0  0
 28 23  1  0  0  0  0
 28 24  1  0  0  0  0
M  END
>  <MODEL>
7

>  <REMARK>
 VINA RESULT:      -6.9      1.504      1.866
  Name = 
  2 active torsions:
  status: ('A' for Active; 'I' for Inactive)
    1  A    between atoms: C_1  and  C_2
    2  A    between atoms: C_2  and  N_3
                            x       y       z     vdW  Elec       q    Type
                         _______ _______ _______ _____ _____    ______ ____

>  <TORSDO>
F 2

$$$$
=
 OpenBabel11052418143D

 28 32  0  0  1  0  0  0  0  0999 V2000
  189.7130  173.0230  142.5010 C   0  0  0  0  0  0  0  0  0  0  0  0
  185.9850  176.5110  143.3310 C   0  0  0  0  0  2  0  0  0  0  0  0
  191.1310  175.5380  146.5450 C   0  0  0  0  0  1  0  0  0  0  0  0
  186.7130  177.4020  145.5040 C   0  0  2  0  0  3  0  0  0  0  0  0
  188.1720  175.8450  144.3700 N   0  0  1  0  0  0  0  0  0  0  0  0
  184.8470  178.5110  144.3520 C   0  0  0  0  0  0  0  0  0  0  0  0
  187.2150  176.9240  144.1400 C   0  0  1  0  0  3  0  0  0  0  0  0
  189.1120  177.5410  145.9960 C   0  0  0  0  0  2  0  0  0  0  0  0
  185.9490  178.7090  145.3590 C   0  0  0  0  0  2  0  0  0  0  0  0
  190.4610  174.2680  144.4660 C   0  0  0  0  0  0  0  0  0  0  0  0
  188.5640  175.2120  143.1080 C   0  0  0  0  0  2  0  0  0  0  0  0
  187.7540  177.4550  146.5450 N   0  0  0  0  0  2  0  0  0  0  0  0
  191.5290  172.1720  143.8700 C   0  0  0  0  0  3  0  0  0  0  0  0
  190.3270  175.4120  145.3330 N   0  0  0  0  0  0  0  0  0  0  0  0
  191.4230  173.2780  144.7140 C   0  0  0  0  0  3  0  0  0  0  0  0
  183.7620  179.0390  144.5310 O   0  0  0  0  0  0  0  0  0  0  0  0
  185.1060  177.7430  143.0790 C   0  0  0  0  0  2  0  0  0  0  0  0
  189.3900  176.4620  144.9180 C   0  0  1  0  0  3  0  0  0  0  0  0
  190.6780  172.0460  142.7700 C   0  0  0  0  0  3  0  0  0  0  0  0
  189.5890  174.1310  143.3620 C   0  0  0  0  0  0  0  0  0  0  0  0
  188.8190  172.8590  141.2980 C   0  0  0  0  0  2  0  0  0  0  0  0
  189.2740  173.6090  140.1190 N   0  0  0  0  0  0  0  0  0  0  0  0
  189.3960  173.1550  137.8710 C   0  0  0  0  0  0  0  0  0  0  0  0
  188.1910  174.2230  139.5370 O   0  0  0  0  0  0  0  0  0  0  0  0
  191.4040  172.8600  139.2150 C   0  0  0  0  0  1  0  0  0  0  0  0
  189.8960  172.7040  139.1600 C   0  0  1  0  0  3  0  0  0  0  0  0
  189.3160  172.3670  136.8640 N   0  0  0  0  0  2  0  0  0  0  0  0
  188.3690  174.1660  138.1390 C   0  0  0  0  0  2  0  0  0  0  0  0
  1 19  2  0  0  0  0
  1 20  1  0  0  0  0
  4  9  1  6  0  0  0
  4 12  1  0  0  0  0
  5 11  1  6  0  0  0
  5 18  1  0  0  0  0
  6 16  2  0  0  0  0
  6  9  1  0  0  0  0
  7  2  1  6  0  0  0
  7  5  1  0  0  0  0
  7  4  1  0  0  0  0
  8 12  1  0  0  0  0
 10 15  1  0  0  0  0
 10 14  1  0  0  0  0
 11 20  1  0  0  0  0
 13 15  2  0  0  0  0
 14  3  1  0  0  0  0
 17  2  1  0  0  0  0
 17  6  1  0  0  0  0
 18 14  1  0  0  0  0
 18  8  1  1  0  0  0
 19 13  1  0  0  0  0
 20 10  2  0  0  0  0
 21  1  1  0  0  0  0
 22 21  1  0  0  0  0
 23 28  1  0  0  0  0
 23 26  1  0  0  0  0
 24 22  1  0  0  0  0
 26 25  1  6  0  0  0
 26 22  1  0  0  0  0
 27 23  2  0  0  0  0
 28 24  1  0  0  0  0
M  END
>  <MODEL>
8

>  <REMARK>
 VINA RESULT:      -6.9      2.240      3.750
  Name = 
  2 active torsions:
  status: ('A' for Active; 'I' for Inactive)
    1  A    between atoms: C_1  and  C_2
    2  A    between atoms: C_2  and  N_3
                            x       y       z     vdW  Elec       q    Type
                         _______ _______ _______ _____ _____    ______ ____

>  <TORSDO>
F 2

$$$$
=
 OpenBabel11052418143D

 28 32  0  0  1  0  0  0  0  0999 V2000
  189.3570  174.1360  142.4490 C   0  0  0  0  0  0  0  0  0  0  0  0
  187.5070  177.3270  146.0750 C   0  0  0  0  0  2  0  0  0  0  0  0
  186.2200  177.1650  140.0680 C   0  0  0  0  0  1  0  0  0  0  0  0
  186.2580  178.9010  144.6570 C   0  0  2  0  0  3  0  0  0  0  0  0
  187.2150  176.9460  143.6100 N   0  0  1  0  0  0  0  0  0  0  0  0
  186.0270  179.0890  147.0960 C   0  0  0  0  0  0  0  0  0  0  0  0
  186.6010  177.4220  144.8460 C   0  0  1  0  0  3  0  0  0  0  0  0
  185.1820  178.0760  142.6150 C   0  0  0  0  0  2  0  0  0  0  0  0
  185.3550  179.3840  145.7820 C   0  0  0  0  0  2  0  0  0  0  0  0
  187.7890  175.5800  141.2550 C   0  0  0  0  0  0  0  0  0  0  0  0
  187.7360  175.5860  143.7720 C   0  0  0  0  0  2  0  0  0  0  0  0
  185.7410  179.2350  143.3190 N   0  0  0  0  0  2  0  0  0  0  0  0
  189.3550  174.1970  140.0220 C   0  0  0  0  0  3  0  0  0  0  0  0
  186.7260  176.5540  141.2930 N   0  0  0  0  0  0  0  0  0  0  0  0
  188.3180  175.1300  140.0380 C   0  0  0  0  0  3  0  0  0  0  0  0
  185.9420  179.8900  148.0130 O   0  0  0  0  0  0  0  0  0  0  0  0
  186.7230  177.7680  147.3190 C   0  0  0  0  0  2  0  0  0  0  0  0
  186.1440  176.8610  142.6050 C   0  0  1  0  0  3  0  0  0  0  0  0
  189.8710  173.7030  141.2220 C   0  0  0  0  0  3  0  0  0  0  0  0
  188.3240  175.0930  142.4700 C   0  0  0  0  0  0  0  0  0  0  0  0
  189.9310  173.5730  143.7250 C   0  0  0  0  0  2  0  0  0  0  0  0
  191.2430  174.1320  144.0790 N   0  0  0  0  0  0  0  0  0  0  0  0
  192.1830  174.9280  146.0170 C   0  0  0  0  0  0  0  0  0  0  0  0
  192.0380  173.1250  144.5700 O   0  0  0  0  0  0  0  0  0  0  0  0
  191.2390  176.5360  144.4520 C   0  0  0  0  0  1  0  0  0  0  0  0
  191.0870  175.1690  145.0920 C   0  0  1  0  0  3  0  0  0  0  0  0
  192.1230  175.2910  147.2440 N   0  0  0  0  0  2  0  0  0  0  0  0
  192.8100  173.6640  145.6190 C   0  0  0  0  0  2  0  0  0  0  0  0
  1 20  1  0  0  0  0
  1 21  1  0  0  0  0
  2 17  1  0  0  0  0
  3 14  1  0  0  0  0
  4  7  1  0  0  0  0
  4  9  1  1  0  0  0
  5 11  1  1  0  0  0
  5  7  1  0  0  0  0
  6 17  1  0  0  0  0
  6 16  2  0  0  0  0
  7  2  1  1  0  0  0
  8 12  1  0  0  0  0
  9  6  1  0  0  0  0
 10 14  1  0  0  0  0
 10 20  2  0  0  0  0
 12  4  1  0  0  0  0
 13 15  2  0  0  0  0
 13 19  1  0  0  0  0
 14 18  1  0  0  0  0
 15 10  1  0  0  0  0
 18  8  1  6  0  0  0
 18  5  1  0  0  0  0
 19  1  2  0  0  0  0
 20 11  1  0  0  0  0
 21 22  1  0  0  0  0
 22 24  1  0  0  0  0
 22 26  1  0  0  0  0
 23 27  2  0  0  0  0
 24 28  1  0  0  0  0
 26 25  1  6  0  0  0
 26 23  1  0  0  0  0
 28 23  1  0  0  0  0
M  END
>  <MODEL>
9

>  <REMARK>
 VINA RESULT:      -6.9      2.433      4.922
  Name = 
  2 active torsions:
  status: ('A' for Active; 'I' for Inactive)
    1  A    between atoms: C_1  and  C_2
    2  A    between atoms: C_2  and  N_3
                            x       y       z     vdW  Elec       q    Type
                         _______ _______ _______ _____ _____    ______ ____

>  <TORSDO>
F 2

$$$$
