=
 OpenBabel11052417453D

 31 34  0  0  1  0  0  0  0  0999 V2000
  191.0240  175.8710  147.4370 C   0  0  0  0  0  0  0  0  0  0  0  0
  188.3630  176.2810  144.7880 C   0  0  0  0  0  0  0  0  0  0  0  0
  187.2590  176.9570  145.4200 C   0  0  0  0  0  0  0  0  0  0  0  0
  186.1830  177.2860  147.6950 C   0  0  0  0  0  2  0  0  0  0  0  0
  189.5910  175.9470  145.4530 C   0  0  0  0  0  0  0  0  0  0  0  0
  192.0390  175.2670  146.7000 C   0  0  0  0  0  3  0  0  0  0  0  0
  187.4020  177.5210  146.8180 C   0  0  0  0  0  2  0  0  0  0  0  0
  189.2840  175.2790  142.7220 C   0  0  0  0  0  0  0  0  0  0  0  0
  191.2060  176.1350  148.7530 F   0  0  0  0  0  0  0  0  0  0  0  0
  185.9910  176.8140  143.3390 C   0  0  0  0  0  3  0  0  0  0  0  0
  185.2230  178.4690  147.6010 C   0  0  0  0  0  2  0  0  0  0  0  0
  190.4700  174.9910  143.3910 C   0  0  0  0  0  3  0  0  0  0  0  0
  188.2360  175.9150  143.4120 C   0  0  0  0  0  0  0  0  0  0  0  0
  189.8180  176.2040  146.8180 C   0  0  0  0  0  3  0  0  0  0  0  0
  185.0300  178.9680  146.1700 C   0  0  0  0  0  2  0  0  0  0  0  0
  190.6330  175.3130  144.7290 C   0  0  0  0  0  0  0  0  0  0  0  0
  191.8430  174.9860  145.3490 C   0  0  0  0  0  3  0  0  0  0  0  0
  187.0560  176.1860  142.7200 C   0  0  0  0  0  3  0  0  0  0  0  0
  186.0720  177.2150  144.6660 C   0  0  0  0  0  0  0  0  0  0  0  0
  184.8000  177.8020  145.2220 C   0  0  0  0  0  2  0  0  0  0  0  0
  188.7080  172.6180  141.5730 O   0  0  0  0  0  0  0  0  0  0  0  0
  188.7820  173.6230  140.8190 C   0  0  0  0  0  0  0  0  0  0  0  0
  189.1160  174.9170  141.3400 N   0  0  0  0  0  2  0  0  0  0  0  0
  187.9100  172.2200  139.1210 O   0  0  0  0  0  1  0  0  0  0  0  0
  188.5090  173.4580  139.3610 C   0  0  2  0  0  3  0  0  0  0  0  0
  190.8380  174.2930  136.3530 C   0  0  0  0  0  0  0  0  0  0  0  0
  190.8510  173.1800  139.0720 O   0  0  0  0  0  0  0  0  0  0  0  0
  192.2090  173.8240  136.7040 C   0  0  0  0  0  1  0  0  0  0  0  0
  190.6500  174.8270  135.2300 O   0  0  0  0  0  0  0  0  0  0  0  0
  189.7690  173.5840  138.5690 C   0  0  0  0  0  0  0  0  0  0  0  0
  189.7310  174.1520  137.2520 N   0  0  0  0  0  2  0  0  0  0  0  0
  1  9  1  0  0  0  0
  2  3  1  0  0  0  0
  2  5  1  0  0  0  0
  3  7  1  0  0  0  0
  5 14  2  0  0  0  0
  6  1  2  0  0  0  0
  7  4  1  0  0  0  0
  8 12  2  0  0  0  0
  8 13  1  0  0  0  0
 10 19  1  0  0  0  0
 11  4  1  0  0  0  0
 12 16  1  0  0  0  0
 13  2  2  0  0  0  0
 14  1  1  0  0  0  0
 15 11  1  0  0  0  0
 16 17  2  0  0  0  0
 16  5  1  0  0  0  0
 17  6  1  0  0  0  0
 18 10  2  0  0  0  0
 18 13  1  0  0  0  0
 19 20  1  0  0  0  0
 19  3  2  0  0  0  0
 20 15  1  0  0  0  0
 22 23  1  0  0  0  0
 22 21  2  0  0  0  0
 23  8  1  0  0  0  0
 25 24  1  1  0  0  0
 25 22  1  0  0  0  0
 26 28  1  0  0  0  0
 26 31  1  0  0  0  0
 29 26  2  0  0  0  0
 30 27  2  0  0  0  0
 30 25  1  0  0  0  0
 31 30  1  0  0  0  0
M  END
>  <MODEL>
1

>  <REMARK>
 VINA RESULT:      -8.7      0.000      0.000
  Name = 
  3 active torsions:
  status: ('A' for Active; 'I' for Inactive)
    1  A    between atoms: C_9  and  C_22
    2  A    between atoms: C_15  and  N_23
    3  A    between atoms: C_19  and  C_22
                            x       y       z     vdW  Elec       q    Type
                         _______ _______ _______ _____ _____    ______ ____

>  <TORSDO>
F 3

$$$$
=
 OpenBabel11052417453D

 31 34  0  0  1  0  0  0  0  0999 V2000
  191.1980  176.4390  147.5900 C   0  0  0  0  0  0  0  0  0  0  0  0
  188.5690  176.3770  144.8790 C   0  0  0  0  0  0  0  0  0  0  0  0
  187.3980  177.0070  145.4320 C   0  0  0  0  0  0  0  0  0  0  0  0
  186.2490  177.4410  147.6530 C   0  0  0  0  0  2  0  0  0  0  0  0
  189.8070  176.2130  145.5880 C   0  0  0  0  0  0  0  0  0  0  0  0
  192.2770  175.8630  146.9250 C   0  0  0  0  0  3  0  0  0  0  0  0
  187.4620  177.7030  146.7750 C   0  0  0  0  0  2  0  0  0  0  0  0
  189.6170  175.2800  142.9250 C   0  0  0  0  0  0  0  0  0  0  0  0
  191.3290  176.8340  148.8790 F   0  0  0  0  0  0  0  0  0  0  0  0
  186.1920  176.5690  143.3550 C   0  0  0  0  0  3  0  0  0  0  0  0
  185.1930  178.5230  147.4400 C   0  0  0  0  0  2  0  0  0  0  0  0
  190.8090  175.1580  143.6330 C   0  0  0  0  0  3  0  0  0  0  0  0
  188.5040  175.8800  143.5400 C   0  0  0  0  0  0  0  0  0  0  0  0
  189.9810  176.6090  146.9270 C   0  0  0  0  0  3  0  0  0  0  0  0
  184.9890  178.8740  145.9670 C   0  0  0  0  0  2  0  0  0  0  0  0
  190.9150  175.6100  144.9390 C   0  0  0  0  0  0  0  0  0  0  0  0
  192.1340  175.4470  145.6020 C   0  0  0  0  0  3  0  0  0  0  0  0
  187.3200  175.9850  142.8110 C   0  0  0  0  0  3  0  0  0  0  0  0
  186.2090  177.0910  144.6420 C   0  0  0  0  0  0  0  0  0  0  0  0
  184.8800  177.6130  145.1250 C   0  0  0  0  0  2  0  0  0  0  0  0
  189.4050  172.4790  142.0080 O   0  0  0  0  0  0  0  0  0  0  0  0
  189.3530  173.4170  141.1710 C   0  0  0  0  0  0  0  0  0  0  0  0
  189.5100  174.7830  141.5790 N   0  0  0  0  0  2  0  0  0  0  0  0
  187.8380  172.5610  139.5630 O   0  0  0  0  0  1  0  0  0  0  0  0
  189.1170  173.0940  139.7320 C   0  0  2  0  0  3  0  0  0  0  0  0
  190.6050  169.8270  138.2220 C   0  0  0  0  0  0  0  0  0  0  0  0
  191.3630  172.4570  139.2890 O   0  0  0  0  0  0  0  0  0  0  0  0
  192.0900  169.9540  138.2560 C   0  0  0  0  0  1  0  0  0  0  0  0
  190.0980  168.7710  137.7650 O   0  0  0  0  0  0  0  0  0  0  0  0
  190.1460  172.1360  139.2290 C   0  0  0  0  0  0  0  0  0  0  0  0
  189.7400  170.8680  138.6930 N   0  0  0  0  0  2  0  0  0  0  0  0
  1  9  1  0  0  0  0
  2  3  1  0  0  0  0
  2  5  1  0  0  0  0
  3  7  1  0  0  0  0
  5 14  2  0  0  0  0
  6  1  2  0  0  0  0
  7  4  1  0  0  0  0
  8 13  1  0  0  0  0
  8 12  2  0  0  0  0
 10 19  1  0  0  0  0
 11  4  1  0  0  0  0
 12 16  1  0  0  0  0
 13  2  2  0  0  0  0
 14  1  1  0  0  0  0
 15 11  1  0  0  0  0
 16  5  1  0  0  0  0
 16 17  2  0  0  0  0
 17  6  1  0  0  0  0
 18 10  2  0  0  0  0
 18 13  1  0  0  0  0
 19 20  1  0  0  0  0
 19  3  2  0  0  0  0
 20 15  1  0  0  0  0
 22 23  1  0  0  0  0
 22 21  2  0  0  0  0
 23  8  1  0  0  0  0
 25 24  1  1  0  0  0
 25 22  1  0  0  0  0
 26 28  1  0  0  0  0
 26 31  1  0  0  0  0
 29 26  2  0  0  0  0
 30 27  2  0  0  0  0
 30 25  1  0  0  0  0
 31 30  1  0  0  0  0
M  END
>  <MODEL>
2

>  <REMARK>
 VINA RESULT:      -8.7      1.533      1.852
  Name = 
  3 active torsions:
  status: ('A' for Active; 'I' for Inactive)
    1  A    between atoms: C_9  and  C_22
    2  A    between atoms: C_15  and  N_23
    3  A    between atoms: C_19  and  C_22
                            x       y       z     vdW  Elec       q    Type
                         _______ _______ _______ _____ _____    ______ ____

>  <TORSDO>
F 3

$$$$
=
 OpenBabel11052417453D

 31 34  0  0  1  0  0  0  0  0999 V2000
  185.4730  177.9260  140.7260 C   0  0  0  0  0  0  0  0  0  0  0  0
  187.3050  176.7720  143.8200 C   0  0  0  0  0  0  0  0  0  0  0  0
  186.5550  177.2660  144.9460 C   0  0  0  0  0  0  0  0  0  0  0  0
  184.9770  179.1420  145.6020 C   0  0  0  0  0  2  0  0  0  0  0  0
  186.9330  176.9810  142.4490 C   0  0  0  0  0  0  0  0  0  0  0  0
  186.2520  177.3500  139.7270 C   0  0  0  0  0  3  0  0  0  0  0  0
  185.1990  177.9070  144.7440 C   0  0  0  0  0  2  0  0  0  0  0  0
  189.2660  175.4910  143.0240 C   0  0  0  0  0  0  0  0  0  0  0  0
  184.3860  178.6650  140.3960 F   0  0  0  0  0  0  0  0  0  0  0  0
  188.2170  176.3130  146.4600 C   0  0  0  0  0  3  0  0  0  0  0  0
  184.3070  178.7630  146.9200 C   0  0  0  0  0  2  0  0  0  0  0  0
  188.8640  175.6930  141.7070 C   0  0  0  0  0  3  0  0  0  0  0  0
  188.4990  176.0280  144.0740 C   0  0  0  0  0  0  0  0  0  0  0  0
  185.8130  177.7430  142.0670 C   0  0  0  0  0  3  0  0  0  0  0  0
  184.9080  177.5090  147.5540 C   0  0  0  0  0  2  0  0  0  0  0  0
  187.7220  176.4210  141.4120 C   0  0  0  0  0  0  0  0  0  0  0  0
  187.3760  176.6010  140.0700 C   0  0  0  0  0  3  0  0  0  0  0  0
  188.9290  175.8170  145.3840 C   0  0  0  0  0  3  0  0  0  0  0  0
  187.0370  177.0200  146.2700 C   0  0  0  0  0  0  0  0  0  0  0  0
  186.4260  177.5720  147.5330 C   0  0  0  0  0  2  0  0  0  0  0  0
  189.6010  172.5760  143.3780 O   0  0  0  0  0  0  0  0  0  0  0  0
  190.6050  173.3320  143.4300 C   0  0  0  0  0  0  0  0  0  0  0  0
  190.4670  174.7550  143.3190 N   0  0  0  0  0  2  0  0  0  0  0  0
  191.8530  171.4670  144.1920 O   0  0  0  0  0  1  0  0  0  0  0  0
  191.9600  172.7290  143.6030 C   0  0  2  0  0  3  0  0  0  0  0  0
  194.8260  175.2190  144.4720 C   0  0  0  0  0  0  0  0  0  0  0  0
  192.6330  173.6770  145.6750 O   0  0  0  0  0  0  0  0  0  0  0  0
  194.8290  175.3980  145.9520 C   0  0  0  0  0  1  0  0  0  0  0  0
  195.6840  175.8310  143.7860 O   0  0  0  0  0  0  0  0  0  0  0  0
  192.8310  173.6140  144.4330 C   0  0  0  0  0  0  0  0  0  0  0  0
  193.8800  174.3700  143.8100 N   0  0  0  0  0  2  0  0  0  0  0  0
  1 14  1  0  0  0  0
  2 13  2  0  0  0  0
  2  3  1  0  0  0  0
  3 19  2  0  0  0  0
  4 11  1  0  0  0  0
  5  2  1  0  0  0  0
  6 17  1  0  0  0  0
  6  1  2  0  0  0  0
  7  3  1  0  0  0  0
  7  4  1  0  0  0  0
  8 23  1  0  0  0  0
  8 13  1  0  0  0  0
  9  1  1  0  0  0  0
 11 15  1  0  0  0  0
 12  8  2  0  0  0  0
 13 18  1  0  0  0  0
 14  5  2  0  0  0  0
 16 12  1  0  0  0  0
 16  5  1  0  0  0  0
 17 16  2  0  0  0  0
 18 10  2  0  0  0  0
 19 10  1  0  0  0  0
 19 20  1  0  0  0  0
 20 15  1  0  0  0  0
 21 22  2  0  0  0  0
 22 25  1  0  0  0  0
 23 22  1  0  0  0  0
 25 24  1  1  0  0  0
 25 30  1  0  0  0  0
 26 28  1  0  0  0  0
 29 26  2  0  0  0  0
 30 27  2  0  0  0  0
 31 30  1  0  0  0  0
 31 26  1  0  0  0  0
M  END
>  <MODEL>
3

>  <REMARK>
 VINA RESULT:      -8.5      3.693      5.708
  Name = 
  3 active torsions:
  status: ('A' for Active; 'I' for Inactive)
    1  A    between atoms: C_9  and  C_22
    2  A    between atoms: C_15  and  N_23
    3  A    between atoms: C_19  and  C_22
                            x       y       z     vdW  Elec       q    Type
                         _______ _______ _______ _____ _____    ______ ____

>  <TORSDO>
F 3

$$$$
=
 OpenBabel11052417453D

 31 34  0  0  1  0  0  0  0  0999 V2000
  185.1940  178.0670  140.8380 C   0  0  0  0  0  0  0  0  0  0  0  0
  187.2550  176.8440  143.7570 C   0  0  0  0  0  0  0  0  0  0  0  0
  186.5740  177.2820  144.9490 C   0  0  0  0  0  0  0  0  0  0  0  0
  185.0120  179.1030  145.7770 C   0  0  0  0  0  2  0  0  0  0  0  0
  186.7850  177.0930  142.4230 C   0  0  0  0  0  0  0  0  0  0  0  0
  185.9130  177.5410  139.7680 C   0  0  0  0  0  3  0  0  0  0  0  0
  185.1960  177.9030  144.8620 C   0  0  0  0  0  2  0  0  0  0  0  0
  189.1790  175.6310  142.7850 C   0  0  0  0  0  0  0  0  0  0  0  0
  184.0740  178.7940  140.6100 F   0  0  0  0  0  0  0  0  0  0  0  0
  188.3530  176.3120  146.3110 C   0  0  0  0  0  3  0  0  0  0  0  0
  184.4410  178.6640  147.1240 C   0  0  0  0  0  2  0  0  0  0  0  0
  188.6830  175.8700  141.5060 C   0  0  0  0  0  3  0  0  0  0  0  0
  188.4760  176.1160  143.9020 C   0  0  0  0  0  0  0  0  0  0  0  0
  185.6280  177.8440  142.1460 C   0  0  0  0  0  3  0  0  0  0  0  0
  185.1060  177.4010  147.6700 C   0  0  0  0  0  2  0  0  0  0  0  0
  187.5110  176.5850  141.3150 C   0  0  0  0  0  0  0  0  0  0  0  0
  187.0710  176.8040  140.0070 C   0  0  0  0  0  3  0  0  0  0  0  0
  188.9980  175.8680  145.1720 C   0  0  0  0  0  3  0  0  0  0  0  0
  187.1500  177.0000  146.2270 C   0  0  0  0  0  0  0  0  0  0  0  0
  186.6180  177.4960  147.5480 C   0  0  0  0  0  2  0  0  0  0  0  0
  191.9450  176.6690  142.7390 O   0  0  0  0  0  0  0  0  0  0  0  0
  191.7370  175.4550  142.9960 C   0  0  0  0  0  0  0  0  0  0  0  0
  190.4100  174.9100  142.9700 N   0  0  0  0  0  2  0  0  0  0  0  0
  192.6920  173.9830  144.5880 O   0  0  0  0  0  1  0  0  0  0  0  0
  192.8930  174.5770  143.3410 C   0  0  2  0  0  3  0  0  0  0  0  0
  196.2180  176.1000  141.9990 C   0  0  0  0  0  0  0  0  0  0  0  0
  194.5360  175.9270  144.4020 O   0  0  0  0  0  0  0  0  0  0  0  0
  196.8860  176.7910  143.1380 C   0  0  0  0  0  1  0  0  0  0  0  0
  196.7840  176.0980  140.8760 O   0  0  0  0  0  0  0  0  0  0  0  0
  194.1680  175.3560  143.3410 C   0  0  0  0  0  0  0  0  0  0  0  0
  194.9550  175.4380  142.1440 N   0  0  0  0  0  2  0  0  0  0  0  0
  1 14  1  0  0  0  0
  2 13  2  0  0  0  0
  2  3  1  0  0  0  0
  3 19  2  0  0  0  0
  4 11  1  0  0  0  0
  5  2  1  0  0  0  0
  6 17  1  0  0  0  0
  6  1  2  0  0  0  0
  7  3  1  0  0  0  0
  7  4  1  0  0  0  0
  8 23  1  0  0  0  0
  8 13  1  0  0  0  0
  9  1  1  0  0  0  0
 11 15  1  0  0  0  0
 12  8  2  0  0  0  0
 13 18  1  0  0  0  0
 14  5  2  0  0  0  0
 16 12  1  0  0  0  0
 16  5  1  0  0  0  0
 17 16  2  0  0  0  0
 18 10  2  0  0  0  0
 19 10  1  0  0  0  0
 19 20  1  0  0  0  0
 20 15  1  0  0  0  0
 21 22  2  0  0  0  0
 22 25  1  0  0  0  0
 23 22  1  0  0  0  0
 25 24  1  1  0  0  0
 26 31  1  0  0  0  0
 26 28  1  0  0  0  0
 29 26  2  0  0  0  0
 30 25  1  0  0  0  0
 30 27  2  0  0  0  0
 31 30  1  0  0  0  0
M  END
>  <MODEL>
4

>  <REMARK>
 VINA RESULT:      -8.4      3.901      5.689
  Name = 
  3 active torsions:
  status: ('A' for Active; 'I' for Inactive)
    1  A    between atoms: C_9  and  C_22
    2  A    between atoms: C_15  and  N_23
    3  A    between atoms: C_19  and  C_22
                            x       y       z     vdW  Elec       q    Type
                         _______ _______ _______ _____ _____    ______ ____

>  <TORSDO>
F 3

$$$$
=
 OpenBabel11052417453D

 31 34  0  0  1  0  0  0  0  0999 V2000
  185.0720  178.2020  146.8530 C   0  0  0  0  0  0  0  0  0  0  0  0
  186.9990  177.0560  143.8130 C   0  0  0  0  0  0  0  0  0  0  0  0
  186.2050  177.4190  142.6670 C   0  0  0  0  0  0  0  0  0  0  0  0
  183.7970  177.8340  141.9800 C   0  0  0  0  0  2  0  0  0  0  0  0
  186.6250  177.3320  145.1720 C   0  0  0  0  0  0  0  0  0  0  0  0
  185.9520  177.8510  147.8720 C   0  0  0  0  0  3  0  0  0  0  0  0
  184.9760  178.2870  142.8270 C   0  0  0  0  0  2  0  0  0  0  0  0
  189.0780  176.0200  144.6640 C   0  0  0  0  0  0  0  0  0  0  0  0
  183.8900  178.7940  147.1520 F   0  0  0  0  0  0  0  0  0  0  0  0
  187.8640  176.3860  141.2040 C   0  0  0  0  0  3  0  0  0  0  0  0
  183.8030  178.5500  140.6320 C   0  0  0  0  0  2  0  0  0  0  0  0
  188.6950  176.3230  145.9670 C   0  0  0  0  0  3  0  0  0  0  0  0
  188.2370  176.3770  143.5940 C   0  0  0  0  0  0  0  0  0  0  0  0
  185.4070  177.9430  145.5230 C   0  0  0  0  0  3  0  0  0  0  0  0
  185.1940  178.6230  140.0030 C   0  0  0  0  0  2  0  0  0  0  0  0
  187.4960  176.9650  146.2300 C   0  0  0  0  0  0  0  0  0  0  0  0
  187.1610  177.2310  147.5610 C   0  0  0  0  0  3  0  0  0  0  0  0
  188.6410  176.0560  142.2980 C   0  0  0  0  0  3  0  0  0  0  0  0
  186.6650  177.0680  141.3590 C   0  0  0  0  0  0  0  0  0  0  0  0
  185.8900  177.2750  140.0820 C   0  0  0  0  0  2  0  0  0  0  0  0
  191.8250  177.1070  144.6350 O   0  0  0  0  0  0  0  0  0  0  0  0
  191.6370  175.8760  144.4520 C   0  0  0  0  0  0  0  0  0  0  0  0
  190.3130  175.3290  144.4040 N   0  0  0  0  0  2  0  0  0  0  0  0
  193.4810  174.8300  145.5110 O   0  0  0  0  0  1  0  0  0  0  0  0
  192.8180  174.9780  144.2910 C   0  0  2  0  0  3  0  0  0  0  0  0
  196.0800  176.4670  142.7690 C   0  0  0  0  0  0  0  0  0  0  0  0
  193.3520  175.6310  142.0690 O   0  0  0  0  0  0  0  0  0  0  0  0
  195.8110  176.7610  141.3330 C   0  0  0  0  0  1  0  0  0  0  0  0
  197.2160  176.7350  143.2390 O   0  0  0  0  0  0  0  0  0  0  0  0
  193.7540  175.5140  143.2570 C   0  0  0  0  0  0  0  0  0  0  0  0
  195.0880  175.8920  143.6290 N   0  0  0  0  0  2  0  0  0  0  0  0
  1  9  1  0  0  0  0
  1  6  1  0  0  0  0
  2  5  1  0  0  0  0
  3  7  1  0  0  0  0
  3  2  1  0  0  0  0
  4  7  1  0  0  0  0
  5 14  1  0  0  0  0
  5 16  2  0  0  0  0
  8 12  2  0  0  0  0
 10 19  1  0  0  0  0
 10 18  2  0  0  0  0
 11  4  1  0  0  0  0
 12 16  1  0  0  0  0
 13  2  2  0  0  0  0
 13  8  1  0  0  0  0
 14  1  2  0  0  0  0
 15 20  1  0  0  0  0
 15 11  1  0  0  0  0
 16 17  1  0  0  0  0
 17  6  2  0  0  0  0
 18 13  1  0  0  0  0
 19  3  2  0  0  0  0
 20 19  1  0  0  0  0
 22 21  2  0  0  0  0
 23 22  1  0  0  0  0
 23  8  1  0  0  0  0
 25 22  1  0  0  0  0
 25 24  1  1  0  0  0
 26 29  2  0  0  0  0
 26 31  1  0  0  0  0
 27 30  2  0  0  0  0
 28 26  1  0  0  0  0
 30 31  1  0  0  0  0
 30 25  1  0  0  0  0
M  END
>  <MODEL>
5

>  <REMARK>
 VINA RESULT:      -8.4      3.743      5.743
  Name = 
  3 active torsions:
  status: ('A' for Active; 'I' for Inactive)
    1  A    between atoms: C_9  and  C_22
    2  A    between atoms: C_15  and  N_23
    3  A    between atoms: C_19  and  C_22
                            x       y       z     vdW  Elec       q    Type
                         _______ _______ _______ _____ _____    ______ ____

>  <TORSDO>
F 3

$$$$
=
 OpenBabel11052417453D

 31 34  0  0  1  0  0  0  0  0999 V2000
  192.5530  174.9200  146.0360 C   0  0  0  0  0  0  0  0  0  0  0  0
  189.7940  175.4420  143.5090 C   0  0  0  0  0  0  0  0  0  0  0  0
  190.0460  174.5170  142.4340 C   0  0  0  0  0  0  0  0  0  0  0  0
  191.9450  173.2710  141.3020 C   0  0  0  0  0  2  0  0  0  0  0  0
  190.6110  175.5520  144.6850 C   0  0  0  0  0  0  0  0  0  0  0  0
  192.1720  175.8150  147.0320 C   0  0  0  0  0  3  0  0  0  0  0  0
  191.1210  173.4600  142.5660 C   0  0  0  0  0  2  0  0  0  0  0  0
  188.3400  177.2180  144.4320 C   0  0  0  0  0  0  0  0  0  0  0  0
  193.6720  174.1720  146.1880 F   0  0  0  0  0  0  0  0  0  0  0  0
  188.1100  175.3980  141.2360 C   0  0  0  0  0  3  0  0  0  0  0  0
  191.3410  172.1710  140.4320 C   0  0  0  0  0  2  0  0  0  0  0  0
  189.1400  177.2820  145.5690 C   0  0  0  0  0  3  0  0  0  0  0  0
  188.6640  176.3100  143.4070 C   0  0  0  0  0  0  0  0  0  0  0  0
  191.7800  174.7940  144.8800 C   0  0  0  0  0  3  0  0  0  0  0  0
  189.8190  172.2620  140.3280 C   0  0  0  0  0  2  0  0  0  0  0  0
  190.2550  176.4710  145.7060 C   0  0  0  0  0  0  0  0  0  0  0  0
  191.0260  176.5910  146.8650 C   0  0  0  0  0  3  0  0  0  0  0  0
  187.8500  176.2710  142.2750 C   0  0  0  0  0  3  0  0  0  0  0  0
  189.1800  174.5150  141.2970 C   0  0  0  0  0  0  0  0  0  0  0  0
  189.3850  173.6920  140.0500 C   0  0  0  0  0  2  0  0  0  0  0  0
  185.5760  176.7930  145.3880 O   0  0  0  0  0  0  0  0  0  0  0  0
  185.8810  177.8700  144.8140 C   0  0  0  0  0  0  0  0  0  0  0  0
  187.1990  178.0820  144.2890 N   0  0  0  0  0  2  0  0  0  0  0  0
  184.0210  178.9490  145.8110 O   0  0  0  0  0  1  0  0  0  0  0  0
  184.8500  178.9430  144.6880 C   0  0  2  0  0  3  0  0  0  0  0  0
  184.0490  178.1780  140.9530 C   0  0  0  0  0  0  0  0  0  0  0  0
  182.7960  178.9590  143.4940 O   0  0  0  0  0  0  0  0  0  0  0  0
  182.5940  178.4290  140.7470 C   0  0  0  0  0  1  0  0  0  0  0  0
  184.7440  177.8050  139.9740 O   0  0  0  0  0  0  0  0  0  0  0  0
  184.0380  178.7540  143.4480 C   0  0  0  0  0  0  0  0  0  0  0  0
  184.6790  178.3510  142.2290 N   0  0  0  0  0  2  0  0  0  0  0  0
  1  9  1  0  0  0  0
  1  6  1  0  0  0  0
  2  5  1  0  0  0  0
  3  7  1  0  0  0  0
  3  2  1  0  0  0  0
  4  7  1  0  0  0  0
  5 14  1  0  0  0  0
  5 16  2  0  0  0  0
  8 12  2  0  0  0  0
 10 19  1  0  0  0  0
 10 18  2  0  0  0  0
 11  4  1  0  0  0  0
 12 16  1  0  0  0  0
 13  2  2  0  0  0  0
 13  8  1  0  0  0  0
 14  1  2  0  0  0  0
 15 11  1  0  0  0  0
 16 17  1  0  0  0  0
 17  6  2  0  0  0  0
 18 13  1  0  0  0  0
 19  3  2  0  0  0  0
 20 15  1  0  0  0  0
 20 19  1  0  0  0  0
 22 21  2  0  0  0  0
 23  8  1  0  0  0  0
 23 22  1  0  0  0  0
 25 22  1  0  0  0  0
 25 24  1  1  0  0  0
 26 31  1  0  0  0  0
 28 26  1  0  0  0  0
 29 26  2  0  0  0  0
 30 27  2  0  0  0  0
 30 25  1  0  0  0  0
 31 30  1  0  0  0  0
M  END
>  <MODEL>
6

>  <REMARK>
 VINA RESULT:      -8.3      3.563      6.704
  Name = 
  3 active torsions:
  status: ('A' for Active; 'I' for Inactive)
    1  A    between atoms: C_9  and  C_22
    2  A    between atoms: C_15  and  N_23
    3  A    between atoms: C_19  and  C_22
                            x       y       z     vdW  Elec       q    Type
                         _______ _______ _______ _____ _____    ______ ____

>  <TORSDO>
F 3

$$$$
=
 OpenBabel11052417453D

 31 34  0  0  1  0  0  0  0  0999 V2000
  185.7970  178.1410  145.3220 C   0  0  0  0  0  0  0  0  0  0  0  0
  188.8530  176.1890  144.2660 C   0  0  0  0  0  0  0  0  0  0  0  0
  189.7520  176.1990  145.3910 C   0  0  0  0  0  0  0  0  0  0  0  0
  190.3520  177.5860  147.4300 C   0  0  0  0  0  2  0  0  0  0  0  0
  187.5590  176.8130  144.2620 C   0  0  0  0  0  0  0  0  0  0  0  0
  184.9970  178.0130  144.1910 C   0  0  0  0  0  3  0  0  0  0  0  0
  189.3000  176.7400  146.7310 C   0  0  0  0  0  2  0  0  0  0  0  0
  188.4280  175.4440  141.9450 C   0  0  0  0  0  0  0  0  0  0  0  0
  185.3500  178.8410  146.3930 F   0  0  0  0  0  0  0  0  0  0  0  0
  191.3920  174.9540  144.0790 C   0  0  0  0  0  3  0  0  0  0  0  0
  191.1990  176.7210  148.3620 C   0  0  0  0  0  2  0  0  0  0  0  0
  187.1710  176.0400  141.9840 C   0  0  0  0  0  3  0  0  0  0  0  0
  189.2660  175.5200  143.0720 C   0  0  0  0  0  0  0  0  0  0  0  0
  187.0610  177.5480  145.3530 C   0  0  0  0  0  3  0  0  0  0  0  0
  191.6060  175.3900  147.7320 C   0  0  0  0  0  2  0  0  0  0  0  0
  186.7330  176.7140  143.1130 C   0  0  0  0  0  0  0  0  0  0  0  0
  185.4660  177.3020  143.0870 C   0  0  0  0  0  3  0  0  0  0  0  0
  190.5240  174.9200  143.0050 C   0  0  0  0  0  3  0  0  0  0  0  0
  191.0290  175.5670  145.2710 C   0  0  0  0  0  0  0  0  0  0  0  0
  192.1160  175.6000  146.3160 C   0  0  0  0  0  2  0  0  0  0  0  0
  187.8470  172.6860  141.0570 O   0  0  0  0  0  0  0  0  0  0  0  0
  188.5370  173.4460  140.3290 C   0  0  0  0  0  0  0  0  0  0  0  0
  188.8830  174.7700  140.7590 N   0  0  0  0  0  2  0  0  0  0  0  0
  190.3510  172.6350  139.0370 O   0  0  0  0  0  1  0  0  0  0  0  0
  188.9920  172.9560  138.9940 C   0  0  2  0  0  3  0  0  0  0  0  0
  187.0640  175.6320  136.9230 C   0  0  0  0  0  0  0  0  0  0  0  0
  189.6380  174.2260  137.0930 O   0  0  0  0  0  0  0  0  0  0  0  0
  187.9390  176.0330  135.7850 C   0  0  0  0  0  1  0  0  0  0  0  0
  185.9270  176.1590  137.0280 O   0  0  0  0  0  0  0  0  0  0  0  0
  188.7370  173.9820  137.9390 C   0  0  0  0  0  0  0  0  0  0  0  0
  187.4770  174.6660  137.8980 N   0  0  0  0  0  2  0  0  0  0  0  0
  1 14  1  0  0  0  0
  1  9  1  0  0  0  0
  2  3  1  0  0  0  0
  3  7  1  0  0  0  0
  4 11  1  0  0  0  0
  5  2  1  0  0  0  0
  5 14  2  0  0  0  0
  6  1  2  0  0  0  0
  7  4  1  0  0  0  0
  8 12  2  0  0  0  0
  8 13  1  0  0  0  0
 10 19  1  0  0  0  0
 12 16  1  0  0  0  0
 13  2  2  0  0  0  0
 15 11  1  0  0  0  0
 16  5  1  0  0  0  0
 17 16  2  0  0  0  0
 17  6  1  0  0  0  0
 18 13  1  0  0  0  0
 18 10  2  0  0  0  0
 19  3  2  0  0  0  0
 19 20  1  0  0  0  0
 20 15  1  0  0  0  0
 22 23  1  0  0  0  0
 22 21  2  0  0  0  0
 23  8  1  0  0  0  0
 25 24  1  1  0  0  0
 25 22  1  0  0  0  0
 26 29  2  0  0  0  0
 26 31  1  0  0  0  0
 27 30  2  0  0  0  0
 28 26  1  0  0  0  0
 30 25  1  0  0  0  0
 31 30  1  0  0  0  0
M  END
>  <MODEL>
7

>  <REMARK>
 VINA RESULT:      -8.2      2.015      4.414
  Name = 
  3 active torsions:
  status: ('A' for Active; 'I' for Inactive)
    1  A    between atoms: C_9  and  C_22
    2  A    between atoms: C_15  and  N_23
    3  A    between atoms: C_19  and  C_22
                            x       y       z     vdW  Elec       q    Type
                         _______ _______ _______ _____ _____    ______ ____

>  <TORSDO>
F 3

$$$$
=
 OpenBabel11052417453D

 31 34  0  0  1  0  0  0  0  0999 V2000
  185.5560  178.3750  145.8210 C   0  0  0  0  0  0  0  0  0  0  0  0
  188.5230  176.5070  144.4150 C   0  0  0  0  0  0  0  0  0  0  0  0
  189.5090  176.4600  145.4630 C   0  0  0  0  0  0  0  0  0  0  0  0
  190.2670  177.7330  147.5240 C   0  0  0  0  0  2  0  0  0  0  0  0
  187.2320  177.1210  144.5500 C   0  0  0  0  0  0  0  0  0  0  0  0
  184.6690  178.3050  144.7520 C   0  0  0  0  0  3  0  0  0  0  0  0
  189.1650  176.9200  146.8630 C   0  0  0  0  0  2  0  0  0  0  0  0
  187.9160  175.8920  142.0970 C   0  0  0  0  0  0  0  0  0  0  0  0
  185.1950  179.0100  146.9620 F   0  0  0  0  0  0  0  0  0  0  0  0
  191.0420  175.3020  143.9560 C   0  0  0  0  0  3  0  0  0  0  0  0
  191.1880  176.8230  148.3340 C   0  0  0  0  0  2  0  0  0  0  0  0
  186.6640  176.4760  142.2700 C   0  0  0  0  0  3  0  0  0  0  0  0
  188.8410  175.9100  143.1560 C   0  0  0  0  0  0  0  0  0  0  0  0
  186.8200  177.7900  145.7170 C   0  0  0  0  0  3  0  0  0  0  0  0
  191.5460  175.5320  147.5990 C   0  0  0  0  0  2  0  0  0  0  0  0
  186.3160  177.0810  143.4670 C   0  0  0  0  0  0  0  0  0  0  0  0
  185.0490  177.6610  143.5750 C   0  0  0  0  0  3  0  0  0  0  0  0
  190.0900  175.3240  142.9540 C   0  0  0  0  0  3  0  0  0  0  0  0
  190.7740  175.8450  145.2060 C   0  0  0  0  0  0  0  0  0  0  0  0
  191.9410  175.8260  146.1610 C   0  0  0  0  0  2  0  0  0  0  0  0
  187.9210  173.0290  141.3620 O   0  0  0  0  0  0  0  0  0  0  0  0
  188.2140  173.8970  140.5000 C   0  0  0  0  0  0  0  0  0  0  0  0
  188.2760  175.2890  140.8410 N   0  0  0  0  0  2  0  0  0  0  0  0
  188.1570  172.1180  138.9350 O   0  0  0  0  0  1  0  0  0  0  0  0
  188.4950  173.4630  139.0990 C   0  0  2  0  0  3  0  0  0  0  0  0
  192.3500  173.7060  139.6000 C   0  0  0  0  0  0  0  0  0  0  0  0
  190.2360  174.0320  137.5850 O   0  0  0  0  0  0  0  0  0  0  0  0
  192.9380  174.1900  138.3180 C   0  0  0  0  0  1  0  0  0  0  0  0
  193.1160  173.4830  140.5720 O   0  0  0  0  0  0  0  0  0  0  0  0
  189.9320  173.6790  138.7560 C   0  0  0  0  0  0  0  0  0  0  0  0
  190.9420  173.4900  139.7580 N   0  0  0  0  0  2  0  0  0  0  0  0
  1  9  1  0  0  0  0
  2  5  1  0  0  0  0
  2  3  1  0  0  0  0
  3  7  1  0  0  0  0
  4 11  1  0  0  0  0
  5 14  2  0  0  0  0
  6  1  2  0  0  0  0
  7  4  1  0  0  0  0
  8 12  2  0  0  0  0
  8 13  1  0  0  0  0
 10 19  1  0  0  0  0
 12 16  1  0  0  0  0
 13  2  2  0  0  0  0
 14  1  1  0  0  0  0
 15 11  1  0  0  0  0
 16 17  2  0  0  0  0
 16  5  1  0  0  0  0
 17  6  1  0  0  0  0
 18 13  1  0  0  0  0
 18 10  2  0  0  0  0
 19  3  2  0  0  0  0
 19 20  1  0  0  0  0
 20 15  1  0  0  0  0
 22 23  1  0  0  0  0
 22 21  2  0  0  0  0
 23  8  1  0  0  0  0
 25 24  1  1  0  0  0
 25 22  1  0  0  0  0
 26 31  1  0  0  0  0
 26 29  2  0  0  0  0
 27 30  2  0  0  0  0
 28 26  1  0  0  0  0
 30 25  1  0  0  0  0
 30 31  1  0  0  0  0
M  END
>  <MODEL>
8

>  <REMARK>
 VINA RESULT:      -8.1      1.776      4.331
  Name = 
  3 active torsions:
  status: ('A' for Active; 'I' for Inactive)
    1  A    between atoms: C_9  and  C_22
    2  A    between atoms: C_15  and  N_23
    3  A    between atoms: C_19  and  C_22
                            x       y       z     vdW  Elec       q    Type
                         _______ _______ _______ _____ _____    ______ ____

>  <TORSDO>
F 3

$$$$
=
 OpenBabel11052417453D

 31 34  0  0  1  0  0  0  0  0999 V2000
  192.3450  172.9790  140.7230 C   0  0  0  0  0  0  0  0  0  0  0  0
  190.6650  175.0320  143.4110 C   0  0  0  0  0  0  0  0  0  0  0  0
  191.6630  175.2760  144.4200 C   0  0  0  0  0  0  0  0  0  0  0  0
  193.7860  174.2750  145.3860 C   0  0  0  0  0  2  0  0  0  0  0  0
  190.9050  174.2950  142.2020 C   0  0  0  0  0  0  0  0  0  0  0  0
  191.3120  172.8590  139.7970 C   0  0  0  0  0  3  0  0  0  0  0  0
  193.1090  174.9030  144.1780 C   0  0  0  0  0  2  0  0  0  0  0  0
  188.3330  175.3770  142.6610 C   0  0  0  0  0  0  0  0  0  0  0  0
  193.5480  172.4080  140.4730 F   0  0  0  0  0  0  0  0  0  0  0  0
  190.0020  176.4620  145.7620 C   0  0  0  0  0  3  0  0  0  0  0  0
  194.4790  175.3460  146.2250 C   0  0  0  0  0  2  0  0  0  0  0  0
  188.6060  174.6770  141.4890 C   0  0  0  0  0  3  0  0  0  0  0  0
  189.3490  175.5510  143.6170 C   0  0  0  0  0  0  0  0  0  0  0  0
  192.1400  173.6870  141.9080 C   0  0  0  0  0  3  0  0  0  0  0  0
  193.6270  176.6010  146.4110 C   0  0  0  0  0  2  0  0  0  0  0  0
  189.8630  174.1410  141.2520 C   0  0  0  0  0  0  0  0  0  0  0  0
  190.0720  173.4380  140.0630 C   0  0  0  0  0  3  0  0  0  0  0  0
  189.0470  176.2510  144.7850 C   0  0  0  0  0  3  0  0  0  0  0  0
  191.3020  176.0020  145.5990 C   0  0  0  0  0  0  0  0  0  0  0  0
  192.2010  176.2310  146.7870 C   0  0  0  0  0  2  0  0  0  0  0  0
  187.2450  178.0260  141.9290 O   0  0  0  0  0  0  0  0  0  0  0  0
  186.5040  177.1780  142.4900 C   0  0  0  0  0  0  0  0  0  0  0  0
  187.0180  175.9060  142.9080 N   0  0  0  0  0  2  0  0  0  0  0  0
  184.6570  178.5070  141.8290 O   0  0  0  0  0  1  0  0  0  0  0  0
  185.0650  177.5070  142.7140 C   0  0  2  0  0  3  0  0  0  0  0  0
  185.3240  177.5070  146.6010 C   0  0  0  0  0  0  0  0  0  0  0  0
  184.0650  178.9120  144.3480 O   0  0  0  0  0  0  0  0  0  0  0  0
  184.4110  178.5700  147.1100 C   0  0  0  0  0  1  0  0  0  0  0  0
  185.9740  176.8190  147.4290 O   0  0  0  0  0  0  0  0  0  0  0  0
  184.8350  177.9410  144.1250 C   0  0  0  0  0  0  0  0  0  0  0  0
  185.4830  177.2460  145.2000 N   0  0  0  0  0  2  0  0  0  0  0  0
  1 14  1  0  0  0  0
  2 13  2  0  0  0  0
  2  3  1  0  0  0  0
  3 19  2  0  0  0  0
  4 11  1  0  0  0  0
  5  2  1  0  0  0  0
  6 17  1  0  0  0  0
  6  1  2  0  0  0  0
  7  3  1  0  0  0  0
  7  4  1  0  0  0  0
  8 23  1  0  0  0  0
  8 13  1  0  0  0  0
  9  1  1  0  0  0  0
 11 15  1  0  0  0  0
 12  8  2  0  0  0  0
 13 18  1  0  0  0  0
 14  5  2  0  0  0  0
 15 20  1  0  0  0  0
 16 12  1  0  0  0  0
 16  5  1  0  0  0  0
 17 16  2  0  0  0  0
 18 10  2  0  0  0  0
 19 10  1  0  0  0  0
 19 20  1  0  0  0  0
 21 22  2  0  0  0  0
 22 25  1  0  0  0  0
 22 23  1  0  0  0  0
 25 24  1  6  0  0  0
 25 30  1  0  0  0  0
 26 28  1  0  0  0  0
 26 29  2  0  0  0  0
 30 27  2  0  0  0  0
 30 31  1  0  0  0  0
 31 26  1  0  0  0  0
M  END
>  <MODEL>
9

>  <REMARK>
 VINA RESULT:      -8.1      3.599      7.390
  Name = 
  3 active torsions:
  status: ('A' for Active; 'I' for Inactive)
    1  A    between atoms: C_9  and  C_22
    2  A    between atoms: C_15  and  N_23
    3  A    between atoms: C_19  and  C_22
                            x       y       z     vdW  Elec       q    Type
                         _______ _______ _______ _____ _____    ______ ____

>  <TORSDO>
F 3

$$$$
