=
 OpenBabel11052419593D

 37 44  0  0  1  0  0  0  0  0999 V2000
  190.9450  173.2180  141.4510 O   0  0  0  0  0  0  0  0  0  0  0  0
  194.4340  172.7770  144.6330 C   0  0  0  0  0  2  0  0  0  0  0  0
  191.6160  175.9520  144.8680 C   0  0  2  0  0  3  0  0  0  0  0  0
  190.9790  173.3340  140.0480 C   0  0  2  0  0  3  0  0  0  0  0  0
  188.1700  175.6480  143.3300 C   0  0  0  0  0  2  0  0  0  0  0  0
  193.5470  174.9300  145.6670 C   0  0  1  0  0  0  0  0  0  0  0  0
  190.6690  175.9110  143.9630 C   0  0  2  0  0  3  0  0  0  0  0  0
  192.9370  175.5410  144.4030 C   0  0  1  0  0  3  0  0  0  0  0  0
  189.2230  176.2040  144.2630 C   0  0  0  0  0  0  0  0  0  0  0  0
  193.8700  176.0130  146.6820 C   0  0  0  0  0  2  0  0  0  0  0  0
  189.5640  173.2340  139.4600 C   0  0  0  0  0  2  0  0  0  0  0  0
  192.5460  174.6450  143.2400 C   0  0  2  0  0  3  0  0  0  0  0  0
  194.3650  173.3050  142.1820 C   0  0  0  0  0  2  0  0  0  0  0  0
  190.8380  176.9790  146.8750 C   0  0  0  0  0  3  0  0  0  0  0  0
  192.6440  175.1310  146.8850 C   0  0  1  0  0  3  0  0  0  0  0  0
  193.6370  174.6430  142.1850 C   0  0  0  0  0  2  0  0  0  0  0  0
  188.5750  174.1430  140.2050 C   0  0  1  0  0  3  0  0  0  0  0  0
  188.3940  176.0730  141.8850 C   0  0  0  0  0  2  0  0  0  0  0  0
  191.3530  175.7180  146.2930 C   0  0  2  0  0  3  0  0  0  0  0  0
  191.2620  175.3160  142.7120 C   0  0  1  0  0  3  0  0  0  0  0  0
  194.6170  173.8390  145.7030 C   0  0  0  0  0  2  0  0  0  0  0  0
  188.8100  176.9430  145.3460 C   0  0  0  0  0  0  0  0  0  0  0  0
  195.2540  173.1450  143.4060 C   0  0  0  0  0  2  0  0  0  0  0  0
  189.3240  175.1200  141.1170 C   0  0  1  0  0  3  0  0  0  0  0  0
  190.2990  174.3440  142.0360 C   0  0  1  0  0  3  0  0  0  0  0  0
  189.6910  177.5020  146.4220 C   0  0  0  0  0  3  0  0  0  0  0  0
  186.5900  176.5420  146.4100 C   0  0  0  0  0  3  0  0  0  0  0  0
  187.3820  177.2800  145.5200 C   0  0  0  0  0  0  0  0  0  0  0  0
  186.7990  178.3180  144.7750 C   0  0  0  0  0  3  0  0  0  0  0  0
  184.8350  179.7240  144.1440 C   0  0  0  0  0  1  0  0  0  0  0  0
  184.6640  177.8890  145.8320 C   0  0  0  0  0  3  0  0  0  0  0  0
  185.4460  178.6230  144.9330 C   0  0  0  0  0  0  0  0  0  0  0  0
  185.2360  176.8480  146.5690 C   0  0  0  0  0  3  0  0  0  0  0  0
  187.7190  174.8900  139.1940 C   0  0  0  0  0  2  0  0  0  0  0  0
  188.0170  174.4580  137.9010 O   0  0  0  0  0  1  0  0  0  0  0  0
  192.1370  171.1480  140.0780 C   0  0  0  0  0  2  0  0  0  0  0  0
  191.8850  172.3000  139.4560 C   0  0  0  0  0  3  0  0  0  0  0  0
  1 25  1  0  0  0  0
  2 21  1  0  0  0  0
  3 19  1  0  0  0  0
  4  1  1  0  0  0  0
  5  9  1  0  0  0  0
  6 21  1  0  0  0  0
  6 10  1  0  0  0  0
  6 15  1  0  0  0  0
  7  9  1  0  0  0  0
  7  3  1  0  0  0  0
  8  3  1  0  0  0  0
  8  6  1  0  0  0  0
  9 22  2  0  0  0  0
 10 15  1  0  0  0  0
 11  4  1  0  0  0  0
 11 17  1  0  0  0  0
 12  8  1  0  0  0  0
 13 16  1  0  0  0  0
 13 23  1  0  0  0  0
 16 12  1  0  0  0  0
 17 24  1  0  0  0  0
 18  5  1  0  0  0  0
 19 14  1  0  0  0  0
 19 15  1  0  0  0  0
 20 12  1  0  0  0  0
 20  7  1  0  0  0  0
 22 28  1  0  0  0  0
 22 26  1  0  0  0  0
 23  2  1  0  0  0  0
 24 18  1  0  0  0  0
 24 25  1  0  0  0  0
 25 20  1  0  0  0  0
 26 14  2  0  0  0  0
 27 33  1  0  0  0  0
 28 27  2  0  0  0  0
 29 32  2  0  0  0  0
 29 28  1  0  0  0  0
 30 32  1  0  0  0  0
 31 33  2  0  0  0  0
 32 31  1  0  0  0  0
 34 17  1  0  0  0  0
 35 34  1  0  0  0  0
 37  4  1  0  0  0  0
 37 36  2  0  0  0  0
M  END
>  <MODEL>
1

>  <REMARK>
 VINA RESULT:      -9.2      0.000      0.000
  Name = 
  3 active torsions:
  status: ('A' for Active; 'I' for Inactive)
    1  A    between atoms: C_5  and  C_23
    2  A    between atoms: C_6  and  C_31
    3  A    between atoms: C_11  and  C_26
                            x       y       z     vdW  Elec       q    Type
                         _______ _______ _______ _____ _____    ______ ____

>  <TORSDO>
F 3

$$$$
=
 OpenBabel11052419593D

 37 44  0  0  1  0  0  0  0  0999 V2000
  190.6870  172.1650  141.4620 O   0  0  0  0  0  0  0  0  0  0  0  0
  193.8220  171.9000  145.0110 C   0  0  0  0  0  2  0  0  0  0  0  0
  191.5490  175.4270  144.3280 C   0  0  2  0  0  3  0  0  0  0  0  0
  190.8400  171.9770  140.0740 C   0  0  2  0  0  3  0  0  0  0  0  0
  188.2180  175.3090  142.5320 C   0  0  0  0  0  2  0  0  0  0  0  0
  193.2260  174.3280  145.5070 C   0  0  1  0  0  0  0  0  0  0  0  0
  190.6750  175.3350  143.3550 C   0  0  2  0  0  3  0  0  0  0  0  0
  192.8150  174.7420  144.0910 C   0  0  1  0  0  3  0  0  0  0  0  0
  189.2780  175.8900  143.4420 C   0  0  0  0  0  0  0  0  0  0  0  0
  193.6470  175.5410  146.3170 C   0  0  0  0  0  2  0  0  0  0  0  0
  189.4730  171.9630  139.3740 C   0  0  0  0  0  2  0  0  0  0  0  0
  192.3670  173.6880  143.0920 C   0  0  2  0  0  3  0  0  0  0  0  0
  194.0160  171.9080  142.5100 C   0  0  0  0  0  2  0  0  0  0  0  0
  190.8070  176.9530  146.0040 C   0  0  0  0  0  3  0  0  0  0  0  0
  192.2830  174.9070  146.5610 C   0  0  1  0  0  3  0  0  0  0  0  0
  193.5160  173.3060  142.1760 C   0  0  0  0  0  2  0  0  0  0  0  0
  188.5950  173.1410  139.8220 C   0  0  1  0  0  3  0  0  0  0  0  0
  188.6110  175.3860  141.0630 C   0  0  0  0  0  2  0  0  0  0  0  0
  191.1500  175.5370  145.7360 C   0  0  2  0  0  3  0  0  0  0  0  0
  191.2510  174.4120  142.3140 C   0  0  1  0  0  3  0  0  0  0  0  0
  194.0990  173.1250  145.8660 C   0  0  0  0  0  2  0  0  0  0  0  0
  188.9140  176.8920  144.3110 C   0  0  0  0  0  0  0  0  0  0  0  0
  194.7760  171.8810  143.8270 C   0  0  0  0  0  2  0  0  0  0  0  0
  189.4250  174.1680  140.5970 C   0  0  1  0  0  3  0  0  0  0  0  0
  190.1930  173.4690  141.7450 C   0  0  1  0  0  3  0  0  0  0  0  0
  189.7960  177.5310  145.3410 C   0  0  0  0  0  3  0  0  0  0  0  0
  187.1470  178.2300  143.1680 C   0  0  0  0  0  3  0  0  0  0  0  0
  187.5510  177.4610  144.2680 C   0  0  0  0  0  0  0  0  0  0  0  0
  186.6640  177.2640  145.3380 C   0  0  0  0  0  3  0  0  0  0  0  0
  184.4450  177.6030  146.4320 C   0  0  0  0  0  1  0  0  0  0  0  0
  184.9800  178.5730  144.1920 C   0  0  0  0  0  3  0  0  0  0  0  0
  185.3810  177.8160  145.2980 C   0  0  0  0  0  0  0  0  0  0  0  0
  185.8640  178.7810  143.1280 C   0  0  0  0  0  3  0  0  0  0  0  0
  187.9460  173.7750  138.6010 C   0  0  0  0  0  2  0  0  0  0  0  0
  188.9240  174.1750  137.6910 O   0  0  0  0  0  1  0  0  0  0  0  0
  191.6280  169.7060  140.6550 C   0  0  0  0  0  2  0  0  0  0  0  0
  191.6060  170.7230  139.7930 C   0  0  0  0  0  3  0  0  0  0  0  0
  1 25  1  0  0  0  0
  2 21  1  0  0  0  0
  3 19  1  0  0  0  0
  4  1  1  0  0  0  0
  5  9  1  0  0  0  0
  6 21  1  0  0  0  0
  6 10  1  0  0  0  0
  6 15  1  0  0  0  0
  7  9  1  0  0  0  0
  7  3  1  0  0  0  0
  8  3  1  0  0  0  0
  8  6  1  0  0  0  0
  9 22  2  0  0  0  0
 10 15  1  0  0  0  0
 11 17  1  0  0  0  0
 11  4  1  0  0  0  0
 12  8  1  0  0  0  0
 13 23  1  0  0  0  0
 16 13  1  0  0  0  0
 16 12  1  0  0  0  0
 17 24  1  0  0  0  0
 18  5  1  0  0  0  0
 19 14  1  0  0  0  0
 19 15  1  0  0  0  0
 20 12  1  0  0  0  0
 20  7  1  0  0  0  0
 22 26  1  0  0  0  0
 23  2  1  0  0  0  0
 24 18  1  0  0  0  0
 24 25  1  0  0  0  0
 25 20  1  0  0  0  0
 26 14  2  0  0  0  0
 27 28  1  0  0  0  0
 28 22  1  0  0  0  0
 28 29  2  0  0  0  0
 31 32  2  0  0  0  0
 32 29  1  0  0  0  0
 32 30  1  0  0  0  0
 33 27  2  0  0  0  0
 33 31  1  0  0  0  0
 34 17  1  0  0  0  0
 35 34  1  0  0  0  0
 37  4  1  0  0  0  0
 37 36  2  0  0  0  0
M  END
>  <MODEL>
2

>  <REMARK>
 VINA RESULT:      -8.7      1.034      1.487
  Name = 
  3 active torsions:
  status: ('A' for Active; 'I' for Inactive)
    1  A    between atoms: C_5  and  C_23
    2  A    between atoms: C_6  and  C_31
    3  A    between atoms: C_11  and  C_26
                            x       y       z     vdW  Elec       q    Type
                         _______ _______ _______ _____ _____    ______ ____

>  <TORSDO>
F 3

$$$$
=
 OpenBabel11052419593D

 37 44  0  0  1  0  0  0  0  0999 V2000
  193.0140  175.5800  145.0190 O   0  0  0  0  0  0  0  0  0  0  0  0
  193.1050  173.3410  140.8390 C   0  0  0  0  0  2  0  0  0  0  0  0
  189.4320  174.2950  142.7570 C   0  0  2  0  0  3  0  0  0  0  0  0
  193.5930  175.2500  146.2600 C   0  0  2  0  0  3  0  0  0  0  0  0
  189.1870  177.1390  145.2440 C   0  0  0  0  0  2  0  0  0  0  0  0
  190.5640  173.2580  141.0080 C   0  0  1  0  0  0  0  0  0  0  0  0
  189.5570  174.9720  143.8730 C   0  0  2  0  0  3  0  0  0  0  0  0
  190.4490  173.2720  142.5350 C   0  0  1  0  0  3  0  0  0  0  0  0
  188.6690  176.1300  144.2420 C   0  0  0  0  0  0  0  0  0  0  0  0
  189.3240  172.6410  140.3850 C   0  0  0  0  0  2  0  0  0  0  0  0
  193.4510  176.4140  147.2520 C   0  0  0  0  0  2  0  0  0  0  0  0
  191.5840  173.8330  143.3770 C   0  0  2  0  0  3  0  0  0  0  0  0
  193.8060  172.7200  143.1660 C   0  0  0  0  0  2  0  0  0  0  0  0
  187.3830  174.8260  141.6590 C   0  0  0  0  0  3  0  0  0  0  0  0
  189.5100  174.1530  140.3550 C   0  0  1  0  0  3  0  0  0  0  0  0
  192.4670  172.7100  143.8890 C   0  0  0  0  0  2  0  0  0  0  0  0
  192.0170  176.9620  147.2810 C   0  0  1  0  0  3  0  0  0  0  0  0
  189.6010  176.4900  146.5580 C   0  0  0  0  0  2  0  0  0  0  0  0
  188.8590  174.8820  141.5400 C   0  0  2  0  0  3  0  0  0  0  0  0
  190.8360  174.5260  144.5330 C   0  0  1  0  0  3  0  0  0  0  0  0
  191.8070  172.8640  140.2110 C   0  0  0  0  0  2  0  0  0  0  0  0
  187.4160  176.3230  143.7110 C   0  0  0  0  0  0  0  0  0  0  0  0
  193.6730  172.2450  141.7270 C   0  0  0  0  0  2  0  0  0  0  0  0
  191.0620  176.0110  146.5540 C   0  0  1  0  0  3  0  0  0  0  0  0
  191.6010  175.7010  145.1360 C   0  0  1  0  0  3  0  0  0  0  0  0
  186.7680  175.4840  142.6500 C   0  0  0  0  0  3  0  0  0  0  0  0
  186.3820  178.5730  143.4180 C   0  0  0  0  0  3  0  0  0  0  0  0
  186.5580  177.4220  144.1980 C   0  0  0  0  0  0  0  0  0  0  0  0
  185.9400  177.3380  145.4560 C   0  0  0  0  0  3  0  0  0  0  0  0
  184.4870  178.2920  147.2490 C   0  0  0  0  0  1  0  0  0  0  0  0
  184.9600  179.5280  145.1290 C   0  0  0  0  0  3  0  0  0  0  0  0
  185.1410  178.3870  145.9180 C   0  0  0  0  0  0  0  0  0  0  0  0
  185.5820  179.6210  143.8800 C   0  0  0  0  0  3  0  0  0  0  0  0
  191.5870  177.1660  148.7260 C   0  0  0  0  0  2  0  0  0  0  0  0
  190.9200  178.3830  148.8610 O   0  0  0  0  0  1  0  0  0  0  0  0
  195.7350  175.2440  145.0230 C   0  0  0  0  0  2  0  0  0  0  0  0
  195.0280  174.8600  146.0850 C   0  0  0  0  0  3  0  0  0  0  0  0
  1 25  1  0  0  0  0
  1  4  1  0  0  0  0
  2 23  1  0  0  0  0
  3  7  1  0  0  0  0
  4 11  1  0  0  0  0
  5 18  1  0  0  0  0
  6  8  1  0  0  0  0
  7  9  1  0  0  0  0
  7 20  1  0  0  0  0
  8  3  1  0  0  0  0
  8 12  1  0  0  0  0
  9  5  1  0  0  0  0
 10  6  1  0  0  0  0
 11 17  1  0  0  0  0
 12 16  1  0  0  0  0
 12 20  1  0  0  0  0
 13 16  1  0  0  0  0
 14 26  2  0  0  0  0
 15 10  1  0  0  0  0
 15  6  1  0  0  0  0
 15 19  1  0  0  0  0
 17 34  1  0  0  0  0
 19 14  1  0  0  0  0
 19  3  1  0  0  0  0
 20 25  1  0  0  0  0
 21  2  1  0  0  0  0
 21  6  1  0  0  0  0
 22 28  1  0  0  0  0
 22  9  2  0  0  0  0
 23 13  1  0  0  0  0
 24 18  1  0  0  0  0
 24 17  1  0  0  0  0
 25 24  1  0  0  0  0
 26 22  1  0  0  0  0
 27 33  2  0  0  0  0
 27 28  1  0  0  0  0
 28 29  2  0  0  0  0
 29 32  1  0  0  0  0
 31 32  2  0  0  0  0
 32 30  1  0  0  0  0
 33 31  1  0  0  0  0
 34 35  1  0  0  0  0
 36 37  2  0  0  0  0
 37  4  1  0  0  0  0
M  END
>  <MODEL>
3

>  <REMARK>
 VINA RESULT:      -8.7      2.064      5.434
  Name = 
  3 active torsions:
  status: ('A' for Active; 'I' for Inactive)
    1  A    between atoms: C_5  and  C_23
    2  A    between atoms: C_6  and  C_31
    3  A    between atoms: C_11  and  C_26
                            x       y       z     vdW  Elec       q    Type
                         _______ _______ _______ _____ _____    ______ ____

>  <TORSDO>
F 3

$$$$
=
 OpenBabel11052419593D

 37 44  0  0  1  0  0  0  0  0999 V2000
  189.6820  174.6700  140.7400 O   0  0  0  0  0  0  0  0  0  0  0  0
  187.4590  178.0890  143.1620 C   0  0  0  0  0  2  0  0  0  0  0  0
  190.0450  175.3290  145.1030 C   0  0  2  0  0  3  0  0  0  0  0  0
  189.1810  173.6430  139.9160 C   0  0  2  0  0  3  0  0  0  0  0  0
  192.8030  173.5480  143.2160 C   0  0  0  0  0  2  0  0  0  0  0  0
  188.5350  177.0930  145.2460 C   0  0  1  0  0  0  0  0  0  0  0  0
  190.6420  174.4810  144.3010 C   0  0  2  0  0  3  0  0  0  0  0  0
  188.6660  175.6500  144.7510 C   0  0  1  0  0  3  0  0  0  0  0  0
  192.0910  174.0940  144.4350 C   0  0  0  0  0  0  0  0  0  0  0  0
  188.5140  177.1380  146.7630 C   0  0  0  0  0  2  0  0  0  0  0  0
  190.3270  172.9250  139.1880 C   0  0  0  0  0  2  0  0  0  0  0  0
  188.6940  175.3580  143.2600 C   0  0  2  0  0  3  0  0  0  0  0  0
  186.6920  176.0400  141.9360 C   0  0  0  0  0  2  0  0  0  0  0  0
  191.3910  175.7900  147.0170 C   0  0  0  0  0  3  0  0  0  0  0  0
  189.7780  177.5410  146.0140 C   0  0  1  0  0  3  0  0  0  0  0  0
  187.3170  174.9360  142.7780 C   0  0  0  0  0  2  0  0  0  0  0  0
  191.4620  172.5480  140.1510 C   0  0  1  0  0  3  0  0  0  0  0  0
  192.0950  172.3350  142.6280 C   0  0  0  0  0  2  0  0  0  0  0  0
  190.7730  176.3890  145.8110 C   0  0  2  0  0  3  0  0  0  0  0  0
  189.6990  174.1930  143.1620 C   0  0  1  0  0  3  0  0  0  0  0  0
  187.5890  178.1490  144.6740 C   0  0  0  0  0  2  0  0  0  0  0  0
  192.8020  174.2190  145.6050 C   0  0  0  0  0  0  0  0  0  0  0  0
  186.2650  177.2260  142.7880 C   0  0  0  0  0  2  0  0  0  0  0  0
  191.0110  172.7110  141.6060 C   0  0  1  0  0  3  0  0  0  0  0  0
  190.4300  174.1300  141.8240 C   0  0  1  0  0  3  0  0  0  0  0  0
  192.2990  174.8140  146.8860 C   0  0  0  0  0  3  0  0  0  0  0  0
  195.2590  174.6260  145.7360 C   0  0  0  0  0  3  0  0  0  0  0  0
  194.1910  173.7210  145.6920 C   0  0  0  0  0  0  0  0  0  0  0  0
  194.4520  172.3410  145.7000 C   0  0  0  0  0  3  0  0  0  0  0  0
  196.0380  170.4140  145.7790 C   0  0  0  0  0  1  0  0  0  0  0  0
  196.8290  172.7850  145.8230 C   0  0  0  0  0  3  0  0  0  0  0  0
  195.7670  171.8750  145.7680 C   0  0  0  0  0  0  0  0  0  0  0  0
  196.5750  174.1600  145.8050 C   0  0  0  0  0  3  0  0  0  0  0  0
  191.9010  171.1180  139.8750 C   0  0  0  0  0  2  0  0  0  0  0  0
  190.8140  170.2520  139.9850 O   0  0  0  0  0  1  0  0  0  0  0  0
  188.3960  174.1650  137.6290 C   0  0  0  0  0  2  0  0  0  0  0  0
  188.1810  174.1880  138.9450 C   0  0  0  0  0  3  0  0  0  0  0  0
  1 25  1  0  0  0  0
  2 21  1  0  0  0  0
  3 19  1  0  0  0  0
  4  1  1  0  0  0  0
  5  9  1  0  0  0  0
  6 15  1  0  0  0  0
  6 10  1  0  0  0  0
  7  9  1  0  0  0  0
  7  3  1  0  0  0  0
  8  3  1  0  0  0  0
  8  6  1  0  0  0  0
  9 22  2  0  0  0  0
 11  4  1  0  0  0  0
 11 17  1  0  0  0  0
 12  8  1  0  0  0  0
 13 16  1  0  0  0  0
 13 23  1  0  0  0  0
 15 10  1  0  0  0  0
 16 12  1  0  0  0  0
 17 24  1  0  0  0  0
 18  5  1  0  0  0  0
 19 15  1  0  0  0  0
 19 14  1  0  0  0  0
 20 12  1  0  0  0  0
 20  7  1  0  0  0  0
 21  6  1  0  0  0  0
 22 28  1  0  0  0  0
 22 26  1  0  0  0  0
 23  2  1  0  0  0  0
 24 25  1  0  0  0  0
 24 18  1  0  0  0  0
 25 20  1  0  0  0  0
 26 14  2  0  0  0  0
 27 33  1  0  0  0  0
 28 29  1  0  0  0  0
 28 27  2  0  0  0  0
 29 32  2  0  0  0  0
 32 30  1  0  0  0  0
 32 31  1  0  0  0  0
 33 31  2  0  0  0  0
 34 35  1  0  0  0  0
 34 17  1  0  0  0  0
 36 37  2  0  0  0  0
 37  4  1  0  0  0  0
M  END
>  <MODEL>
4

>  <REMARK>
 VINA RESULT:      -8.7      1.644      6.629
  Name = 
  3 active torsions:
  status: ('A' for Active; 'I' for Inactive)
    1  A    between atoms: C_5  and  C_23
    2  A    between atoms: C_6  and  C_31
    3  A    between atoms: C_11  and  C_26
                            x       y       z     vdW  Elec       q    Type
                         _______ _______ _______ _____ _____    ______ ____

>  <TORSDO>
F 3

$$$$
=
 OpenBabel11052419593D

 37 44  0  0  1  0  0  0  0  0999 V2000
  193.8890  175.7380  142.0620 O   0  0  0  0  0  0  0  0  0  0  0  0
  192.2490  173.8460  138.0350 C   0  0  0  0  0  2  0  0  0  0  0  0
  189.8070  174.1160  141.5050 C   0  0  2  0  0  3  0  0  0  0  0  0
  195.0050  175.4060  142.8560 C   0  0  2  0  0  3  0  0  0  0  0  0
  190.4700  176.7070  144.1850 C   0  0  0  0  0  2  0  0  0  0  0  0
  190.0950  173.3840  139.3150 C   0  0  1  0  0  0  0  0  0  0  0  0
  190.3690  174.7210  142.5230 C   0  0  2  0  0  3  0  0  0  0  0  0
  190.6980  173.2700  140.7180 C   0  0  1  0  0  3  0  0  0  0  0  0
  189.6470  175.7090  143.4000 C   0  0  0  0  0  0  0  0  0  0  0  0
  188.7720  172.6420  139.2400 C   0  0  0  0  0  2  0  0  0  0  0  0
  195.2270  176.4620  143.9490 C   0  0  0  0  0  2  0  0  0  0  0  0
  192.0340  173.9270  141.0250 C   0  0  2  0  0  3  0  0  0  0  0  0
  194.0020  173.1650  139.6940 C   0  0  0  0  0  2  0  0  0  0  0  0
  187.4430  174.4240  141.5240 C   0  0  0  0  0  3  0  0  0  0  0  0
  188.7790  174.1630  139.3280 C   0  0  1  0  0  3  0  0  0  0  0  0
  193.1570  172.9090  140.9340 C   0  0  0  0  0  2  0  0  0  0  0  0
  193.9240  176.7930  144.6900 C   0  0  1  0  0  3  0  0  0  0  0  0
  191.5050  176.0310  145.0750 C   0  0  0  0  0  2  0  0  0  0  0  0
  188.6840  174.7020  140.7640 C   0  0  2  0  0  3  0  0  0  0  0  0
  191.8440  174.4180  142.4730 C   0  0  1  0  0  3  0  0  0  0  0  0
  190.8600  173.2330  138.0000 C   0  0  0  0  0  2  0  0  0  0  0  0
  188.2780  175.7560  143.5190 C   0  0  0  0  0  0  0  0  0  0  0  0
  193.2650  172.7820  138.4200 C   0  0  0  0  0  2  0  0  0  0  0  0
  192.8360  175.7690  144.3520 C   0  0  1  0  0  3  0  0  0  0  0  0
  192.6850  175.6450  142.8170 C   0  0  1  0  0  3  0  0  0  0  0  0
  187.2960  174.9130  142.7620 C   0  0  0  0  0  3  0  0  0  0  0  0
  187.7300  176.4340  145.8560 C   0  0  0  0  0  3  0  0  0  0  0  0
  187.6420  176.6820  144.4790 C   0  0  0  0  0  0  0  0  0  0  0  0
  186.9200  177.7950  144.0230 C   0  0  0  0  0  3  0  0  0  0  0  0
  185.5470  179.8380  144.4450 C   0  0  0  0  0  1  0  0  0  0  0  0
  186.4100  178.4120  146.3080 C   0  0  0  0  0  3  0  0  0  0  0  0
  186.3080  178.6590  144.9340 C   0  0  0  0  0  0  0  0  0  0  0  0
  187.1200  177.2990  146.7670 C   0  0  0  0  0  3  0  0  0  0  0  0
  194.1930  176.8270  146.1870 C   0  0  0  0  0  2  0  0  0  0  0  0
  194.8470  175.6610  146.5840 O   0  0  0  0  0  1  0  0  0  0  0  0
  196.3710  175.8940  140.8530 C   0  0  0  0  0  2  0  0  0  0  0  0
  196.2250  175.2410  142.0060 C   0  0  0  0  0  3  0  0  0  0  0  0
  1 25  1  0  0  0  0
  1  4  1  0  0  0  0
  2 23  1  0  0  0  0
  3  7  1  0  0  0  0
  4 11  1  0  0  0  0
  5 18  1  0  0  0  0
  6 15  1  0  0  0  0
  6  8  1  0  0  0  0
  7  9  1  0  0  0  0
  8 12  1  0  0  0  0
  8  3  1  0  0  0  0
  9 22  2  0  0  0  0
  9  5  1  0  0  0  0
 10  6  1  0  0  0  0
 10 15  1  0  0  0  0
 11 17  1  0  0  0  0
 12 20  1  0  0  0  0
 13 16  1  0  0  0  0
 14 26  2  0  0  0  0
 15 19  1  0  0  0  0
 16 12  1  0  0  0  0
 17 34  1  0  0  0  0
 19  3  1  0  0  0  0
 19 14  1  0  0  0  0
 20  7  1  0  0  0  0
 20 25  1  0  0  0  0
 21  2  1  0  0  0  0
 21  6  1  0  0  0  0
 22 28  1  0  0  0  0
 23 13  1  0  0  0  0
 24 17  1  0  0  0  0
 24 18  1  0  0  0  0
 25 24  1  0  0  0  0
 26 22  1  0  0  0  0
 27 33  1  0  0  0  0
 28 27  2  0  0  0  0
 29 28  1  0  0  0  0
 29 32  2  0  0  0  0
 30 32  1  0  0  0  0
 31 33  2  0  0  0  0
 32 31  1  0  0  0  0
 34 35  1  0  0  0  0
 36 37  2  0  0  0  0
 37  4  1  0  0  0  0
M  END
>  <MODEL>
5

>  <REMARK>
 VINA RESULT:      -8.3      2.027      5.402
  Name = 
  3 active torsions:
  status: ('A' for Active; 'I' for Inactive)
    1  A    between atoms: C_5  and  C_23
    2  A    between atoms: C_6  and  C_31
    3  A    between atoms: C_11  and  C_26
                            x       y       z     vdW  Elec       q    Type
                         _______ _______ _______ _____ _____    ______ ____

>  <TORSDO>
F 3

$$$$
=
 OpenBabel11052419593D

 37 44  0  0  1  0  0  0  0  0999 V2000
  192.4400  172.2870  140.3920 O   0  0  0  0  0  0  0  0  0  0  0  0
  196.9290  173.1780  141.6360 C   0  0  0  0  0  2  0  0  0  0  0  0
  193.7370  175.6570  142.9540 C   0  0  2  0  0  3  0  0  0  0  0  0
  191.8380  172.1600  139.1250 C   0  0  2  0  0  3  0  0  0  0  0  0
  190.1920  174.3480  143.1900 C   0  0  0  0  0  2  0  0  0  0  0  0
  196.0220  175.2350  142.8360 C   0  0  1  0  0  0  0  0  0  0  0  0
  192.5450  175.2540  142.5890 C   0  0  2  0  0  3  0  0  0  0  0  0
  194.7880  175.4680  141.9600 C   0  0  1  0  0  3  0  0  0  0  0  0
  191.3470  175.2740  143.5020 C   0  0  0  0  0  0  0  0  0  0  0  0
  196.4390  176.5220  143.5240 C   0  0  0  0  0  2  0  0  0  0  0  0
  190.3940  171.6540  139.2600 C   0  0  0  0  0  2  0  0  0  0  0  0
  194.1970  174.3180  141.1600 C   0  0  2  0  0  3  0  0  0  0  0  0
  195.6770  173.2410  139.4650 C   0  0  0  0  0  2  0  0  0  0  0  0
  193.6460  176.8260  145.0310 C   0  0  0  0  0  3  0  0  0  0  0  0
  195.7100  175.4450  144.3180 C   0  0  1  0  0  3  0  0  0  0  0  0
  194.6860  174.3670  139.7240 C   0  0  0  0  0  2  0  0  0  0  0  0
  189.6140  172.4430  140.3220 C   0  0  1  0  0  3  0  0  0  0  0  0
  189.6510  174.5520  141.7820 C   0  0  0  0  0  2  0  0  0  0  0  0
  194.1840  175.6240  144.3520 C   0  0  2  0  0  3  0  0  0  0  0  0
  192.6820  174.5920  141.2420 C   0  0  1  0  0  3  0  0  0  0  0  0
  197.2570  174.4240  142.4400 C   0  0  0  0  0  2  0  0  0  0  0  0
  191.2540  176.0840  144.6090 C   0  0  0  0  0  0  0  0  0  0  0  0
  197.0100  173.4940  140.1520 C   0  0  0  0  0  2  0  0  0  0  0  0
  190.3830  173.7030  140.7300 C   0  0  1  0  0  3  0  0  0  0  0  0
  191.8280  173.3310  141.1420 C   0  0  1  0  0  3  0  0  0  0  0  0
  192.3220  177.0010  145.1260 C   0  0  0  0  0  3  0  0  0  0  0  0
  189.8360  175.2650  146.4900 C   0  0  0  0  0  3  0  0  0  0  0  0
  190.0060  176.1280  145.3990 C   0  0  0  0  0  0  0  0  0  0  0  0
  188.9710  177.0090  145.0460 C   0  0  0  0  0  3  0  0  0  0  0  0
  186.6970  177.9740  145.4120 C   0  0  0  0  0  1  0  0  0  0  0  0
  187.6300  176.1810  146.8840 C   0  0  0  0  0  3  0  0  0  0  0  0
  187.7880  177.0370  145.7880 C   0  0  0  0  0  0  0  0  0  0  0  0
  188.6530  175.2950  147.2330 C   0  0  0  0  0  3  0  0  0  0  0  0
  188.2390  172.7980  139.7740 C   0  0  0  0  0  2  0  0  0  0  0  0
  188.3160  173.0390  138.4030 O   0  0  0  0  0  1  0  0  0  0  0  0
  193.4970  170.3640  138.7490 C   0  0  0  0  0  2  0  0  0  0  0  0
  192.6470  171.2590  138.2450 C   0  0  0  0  0  3  0  0  0  0  0  0
  1 25  1  0  0  0  0
  2 21  1  0  0  0  0
  3 19  1  0  0  0  0
  4 11  1  0  0  0  0
  4  1  1  0  0  0  0
  5  9  1  0  0  0  0
  6 10  1  0  0  0  0
  6 15  1  0  0  0  0
  7  3  1  0  0  0  0
  7  9  1  0  0  0  0
  8  6  1  0  0  0  0
  8  3  1  0  0  0  0
  9 22  2  0  0  0  0
 10 15  1  0  0  0  0
 11 17  1  0  0  0  0
 12 20  1  0  0  0  0
 12  8  1  0  0  0  0
 13 16  1  0  0  0  0
 13 23  1  0  0  0  0
 14 26  2  0  0  0  0
 15 19  1  0  0  0  0
 16 12  1  0  0  0  0
 17 24  1  0  0  0  0
 18  5  1  0  0  0  0
 19 14  1  0  0  0  0
 20  7  1  0  0  0  0
 21  6  1  0  0  0  0
 22 26  1  0  0  0  0
 22 28  1  0  0  0  0
 23  2  1  0  0  0  0
 24 25  1  0  0  0  0
 24 18  1  0  0  0  0
 25 20  1  0  0  0  0
 27 33  1  0  0  0  0
 28 27  2  0  0  0  0
 29 28  1  0  0  0  0
 29 32  2  0  0  0  0
 30 32  1  0  0  0  0
 31 33  2  0  0  0  0
 32 31  1  0  0  0  0
 34 17  1  0  0  0  0
 35 34  1  0  0  0  0
 37 36  2  0  0  0  0
 37  4  1  0  0  0  0
M  END
>  <MODEL>
6

>  <REMARK>
 VINA RESULT:      -7.7      1.773      2.888
  Name = 
  3 active torsions:
  status: ('A' for Active; 'I' for Inactive)
    1  A    between atoms: C_5  and  C_23
    2  A    between atoms: C_6  and  C_31
    3  A    between atoms: C_11  and  C_26
                            x       y       z     vdW  Elec       q    Type
                         _______ _______ _______ _____ _____    ______ ____

>  <TORSDO>
F 3

$$$$
=
 OpenBabel11052419593D

 37 44  0  0  1  0  0  0  0  0999 V2000
  188.3210  176.0680  141.0810 O   0  0  0  0  0  0  0  0  0  0  0  0
  186.1110  179.0880  143.9940 C   0  0  0  0  0  2  0  0  0  0  0  0
  188.7320  176.0940  145.4890 C   0  0  2  0  0  3  0  0  0  0  0  0
  187.8160  175.1680  140.1220 C   0  0  2  0  0  3  0  0  0  0  0  0
  191.4770  174.6220  143.3350 C   0  0  0  0  0  2  0  0  0  0  0  0
  187.2160  177.8090  145.9010 C   0  0  1  0  0  0  0  0  0  0  0  0
  189.3240  175.3740  144.5660 C   0  0  2  0  0  3  0  0  0  0  0  0
  187.3480  176.4530  145.2020 C   0  0  1  0  0  3  0  0  0  0  0  0
  190.7770  174.9820  144.6270 C   0  0  0  0  0  0  0  0  0  0  0  0
  187.2130  177.6350  147.4090 C   0  0  0  0  0  2  0  0  0  0  0  0
  188.9570  174.5690  139.2860 C   0  0  0  0  0  2  0  0  0  0  0  0
  187.3590  176.3790  143.6840 C   0  0  2  0  0  3  0  0  0  0  0  0
  185.3390  177.2320  142.4940 C   0  0  0  0  0  2  0  0  0  0  0  0
  190.0990  176.2830  147.4340 C   0  0  0  0  0  3  0  0  0  0  0  0
  188.4660  178.1500  146.7120 C   0  0  1  0  0  3  0  0  0  0  0  0
  185.9790  176.0220  143.1620 C   0  0  0  0  0  2  0  0  0  0  0  0
  190.1050  174.0650  140.1720 C   0  0  1  0  0  3  0  0  0  0  0  0
  190.7680  173.5010  142.5860 C   0  0  0  0  0  2  0  0  0  0  0  0
  189.4640  177.0450  146.3340 C   0  0  2  0  0  3  0  0  0  0  0  0
  188.3690  175.2480  143.4080 C   0  0  1  0  0  3  0  0  0  0  0  0
  186.2580  178.9300  145.4970 C   0  0  0  0  0  2  0  0  0  0  0  0
  191.5010  174.9410  145.7940 C   0  0  0  0  0  0  0  0  0  0  0  0
  184.9160  178.2800  143.5130 C   0  0  0  0  0  2  0  0  0  0  0  0
  189.6700  174.0140  141.6400 C   0  0  1  0  0  3  0  0  0  0  0  0
  189.0850  175.3820  142.0670 C   0  0  1  0  0  3  0  0  0  0  0  0
  191.0100  175.3420  147.1540 C   0  0  0  0  0  3  0  0  0  0  0  0
  193.9580  175.3420  145.9460 C   0  0  0  0  0  3  0  0  0  0  0  0
  192.8930  174.4450  145.7940 C   0  0  0  0  0  0  0  0  0  0  0  0
  193.1610  173.0790  145.6090 C   0  0  0  0  0  3  0  0  0  0  0  0
  194.7570  171.1690  145.4020 C   0  0  0  0  0  1  0  0  0  0  0  0
  195.5370  173.5170  145.7600 C   0  0  0  0  0  3  0  0  0  0  0  0
  194.4790  172.6160  145.5950 C   0  0  0  0  0  0  0  0  0  0  0  0
  195.2760  174.8790  145.9330 C   0  0  0  0  0  3  0  0  0  0  0  0
  190.5480  172.6920  139.6880 C   0  0  0  0  0  2  0  0  0  0  0  0
  189.4350  171.8890  139.4400 O   0  0  0  0  0  1  0  0  0  0  0  0
  186.6940  177.1670  139.1940 C   0  0  0  0  0  2  0  0  0  0  0  0
  186.8010  175.8400  139.2510 C   0  0  0  0  0  3  0  0  0  0  0  0
  1 25  1  0  0  0  0
  2 21  1  0  0  0  0
  3 19  1  0  0  0  0
  4  1  1  0  0  0  0
  5  9  1  0  0  0  0
  6 15  1  0  0  0  0
  6 10  1  0  0  0  0
  7  9  1  0  0  0  0
  7  3  1  0  0  0  0
  8  3  1  0  0  0  0
  8  6  1  0  0  0  0
  9 22  2  0  0  0  0
 11  4  1  0  0  0  0
 11 17  1  0  0  0  0
 12  8  1  0  0  0  0
 13 16  1  0  0  0  0
 13 23  1  0  0  0  0
 15 10  1  0  0  0  0
 16 12  1  0  0  0  0
 17 24  1  0  0  0  0
 18  5  1  0  0  0  0
 19 15  1  0  0  0  0
 19 14  1  0  0  0  0
 20 12  1  0  0  0  0
 20  7  1  0  0  0  0
 21  6  1  0  0  0  0
 22 26  1  0  0  0  0
 23  2  1  0  0  0  0
 24 25  1  0  0  0  0
 24 18  1  0  0  0  0
 25 20  1  0  0  0  0
 26 14  2  0  0  0  0
 28 22  1  0  0  0  0
 28 27  2  0  0  0  0
 29 28  1  0  0  0  0
 30 32  1  0  0  0  0
 31 33  2  0  0  0  0
 32 29  2  0  0  0  0
 32 31  1  0  0  0  0
 33 27  1  0  0  0  0
 34 17  1  0  0  0  0
 35 34  1  0  0  0  0
 36 37  2  0  0  0  0
 37  4  1  0  0  0  0
M  END
>  <MODEL>
7

>  <REMARK>
 VINA RESULT:      -7.7      1.554      6.616
  Name = 
  3 active torsions:
  status: ('A' for Active; 'I' for Inactive)
    1  A    between atoms: C_5  and  C_23
    2  A    between atoms: C_6  and  C_31
    3  A    between atoms: C_11  and  C_26
                            x       y       z     vdW  Elec       q    Type
                         _______ _______ _______ _____ _____    ______ ____

>  <TORSDO>
F 3

$$$$
=
 OpenBabel11052419593D

 37 44  0  0  1  0  0  0  0  0999 V2000
  191.9210  171.7220  141.5460 O   0  0  0  0  0  0  0  0  0  0  0  0
  196.0190  172.0450  143.9110 C   0  0  0  0  0  2  0  0  0  0  0  0
  193.1250  175.1560  144.0680 C   0  0  2  0  0  3  0  0  0  0  0  0
  191.6540  171.5230  140.1780 C   0  0  2  0  0  3  0  0  0  0  0  0
  189.4580  174.4720  143.4180 C   0  0  0  0  0  2  0  0  0  0  0  0
  195.2400  174.3630  144.6280 C   0  0  1  0  0  0  0  0  0  0  0  0
  192.0140  174.9020  143.4210 C   0  0  2  0  0  3  0  0  0  0  0  0
  194.3420  174.6700  143.4260 C   0  0  1  0  0  3  0  0  0  0  0  0
  190.6480  175.2360  143.9590 C   0  0  0  0  0  0  0  0  0  0  0  0
  195.7010  175.6490  145.2920 C   0  0  0  0  0  2  0  0  0  0  0  0
  190.1550  171.2770  139.9470 C   0  0  0  0  0  2  0  0  0  0  0  0
  193.7710  173.5320  142.5950 C   0  0  2  0  0  3  0  0  0  0  0  0
  195.4070  172.0140  141.4790 C   0  0  0  0  0  2  0  0  0  0  0  0
  192.7230  176.5930  145.9280 C   0  0  0  0  0  3  0  0  0  0  0  0
  194.6010  174.8180  145.9400 C   0  0  1  0  0  3  0  0  0  0  0  0
  194.6150  173.3090  141.3530 C   0  0  0  0  0  2  0  0  0  0  0  0
  189.2910  172.3150  140.6770 C   0  0  1  0  0  3  0  0  0  0  0  0
  189.3490  174.5690  141.9020 C   0  0  0  0  0  2  0  0  0  0  0  0
  193.1810  175.2410  145.5320 C   0  0  2  0  0  3  0  0  0  0  0  0
  192.3670  174.0520  142.2280 C   0  0  1  0  0  3  0  0  0  0  0  0
  196.3580  173.3210  144.6630 C   0  0  0  0  0  2  0  0  0  0  0  0
  190.4260  176.1920  144.9220 C   0  0  0  0  0  0  0  0  0  0  0  0
  196.5400  172.1420  142.4860 C   0  0  0  0  0  2  0  0  0  0  0  0
  190.1540  173.4800  141.1740 C   0  0  1  0  0  3  0  0  0  0  0  0
  191.3450  172.9410  142.0020 C   0  0  1  0  0  3  0  0  0  0  0  0
  191.4780  176.9880  145.6350 C   0  0  0  0  0  3  0  0  0  0  0  0
  188.4570  175.9020  146.4250 C   0  0  0  0  0  3  0  0  0  0  0  0
  189.0490  176.5400  145.3260 C   0  0  0  0  0  0  0  0  0  0  0  0
  188.3110  177.4860  144.5970 C   0  0  0  0  0  3  0  0  0  0  0  0
  186.2280  178.8060  144.2010 C   0  0  0  0  0  1  0  0  0  0  0  0
  186.4240  177.1700  146.0800 C   0  0  0  0  0  3  0  0  0  0  0  0
  187.0030  177.8020  144.9750 C   0  0  0  0  0  0  0  0  0  0  0  0
  187.1500  176.2190  146.8030 C   0  0  0  0  0  3  0  0  0  0  0  0
  188.1990  172.8080  139.7400 C   0  0  0  0  0  2  0  0  0  0  0  0
  188.7640  173.3460  138.5850 O   0  0  0  0  0  1  0  0  0  0  0  0
  193.3740  170.5820  138.6700 C   0  0  0  0  0  2  0  0  0  0  0  0
  192.4770  170.3950  139.6380 C   0  0  0  0  0  3  0  0  0  0  0  0
  1 25  1  0  0  0  0
  2 21  1  0  0  0  0
  3 19  1  0  0  0  0
  4  1  1  0  0  0  0
  5  9  1  0  0  0  0
  6 21  1  0  0  0  0
  6 10  1  0  0  0  0
  6 15  1  0  0  0  0
  7  9  1  0  0  0  0
  7  3  1  0  0  0  0
  8  3  1  0  0  0  0
  8  6  1  0  0  0  0
  9 22  2  0  0  0  0
 10 15  1  0  0  0  0
 11  4  1  0  0  0  0
 11 17  1  0  0  0  0
 12  8  1  0  0  0  0
 13 23  1  0  0  0  0
 16 13  1  0  0  0  0
 16 12  1  0  0  0  0
 17 24  1  0  0  0  0
 18  5  1  0  0  0  0
 19 14  1  0  0  0  0
 19 15  1  0  0  0  0
 20 12  1  0  0  0  0
 20  7  1  0  0  0  0
 22 28  1  0  0  0  0
 22 26  1  0  0  0  0
 23  2  1  0  0  0  0
 24 18  1  0  0  0  0
 24 25  1  0  0  0  0
 25 20  1  0  0  0  0
 26 14  2  0  0  0  0
 27 33  1  0  0  0  0
 28 27  2  0  0  0  0
 29 32  2  0  0  0  0
 29 28  1  0  0  0  0
 30 32  1  0  0  0  0
 31 33  2  0  0  0  0
 32 31  1  0  0  0  0
 34 17  1  0  0  0  0
 35 34  1  0  0  0  0
 36 37  2  0  0  0  0
 37  4  1  0  0  0  0
M  END
>  <MODEL>
8

>  <REMARK>
 VINA RESULT:      -7.7      1.309      1.914
  Name = 
  3 active torsions:
  status: ('A' for Active; 'I' for Inactive)
    1  A    between atoms: C_5  and  C_23
    2  A    between atoms: C_6  and  C_31
    3  A    between atoms: C_11  and  C_26
                            x       y       z     vdW  Elec       q    Type
                         _______ _______ _______ _____ _____    ______ ____

>  <TORSDO>
F 3

$$$$
=
 OpenBabel11052419593D

 37 44  0  0  1  0  0  0  0  0999 V2000
  192.5580  171.7590  142.1120 O   0  0  0  0  0  0  0  0  0  0  0  0
  195.5030  173.4120  145.4420 C   0  0  0  0  0  2  0  0  0  0  0  0
  192.5370  175.8980  143.6820 C   0  0  2  0  0  3  0  0  0  0  0  0
  192.8140  171.1560  140.8650 C   0  0  2  0  0  3  0  0  0  0  0  0
  189.4040  174.4380  142.1370 C   0  0  0  0  0  2  0  0  0  0  0  0
  194.3600  175.6650  145.1090 C   0  0  1  0  0  0  0  0  0  0  0  0
  191.7520  175.2910  142.8260 C   0  0  2  0  0  3  0  0  0  0  0  0
  193.9340  175.4770  143.6510 C   0  0  1  0  0  3  0  0  0  0  0  0
  190.2640  175.5140  142.7640 C   0  0  0  0  0  0  0  0  0  0  0  0
  194.4620  177.1410  145.4500 C   0  0  0  0  0  2  0  0  0  0  0  0
  191.5190  170.6010  140.2550 C   0  0  0  0  0  2  0  0  0  0  0  0
  193.7790  174.0760  143.0800 C   0  0  2  0  0  3  0  0  0  0  0  0
  195.8070  172.6240  143.0810 C   0  0  0  0  0  2  0  0  0  0  0  0
  191.3960  177.6890  144.7680 C   0  0  0  0  0  3  0  0  0  0  0  0
  193.2620  176.3370  145.9360 C   0  0  1  0  0  3  0  0  0  0  0  0
  195.0250  173.6790  142.3100 C   0  0  0  0  0  2  0  0  0  0  0  0
  190.3810  171.6300  140.3060 C   0  0  1  0  0  3  0  0  0  0  0  0
  189.8390  174.1040  140.7160 C   0  0  0  0  0  2  0  0  0  0  0  0
  192.0580  176.3810  144.9830 C   0  0  2  0  0  3  0  0  0  0  0  0
  192.5680  174.2270  142.1390 C   0  0  1  0  0  3  0  0  0  0  0  0
  195.4600  174.8810  145.8250 C   0  0  0  0  0  2  0  0  0  0  0  0
  189.6470  176.6390  143.2550 C   0  0  0  0  0  0  0  0  0  0  0  0
  196.4920  173.2120  144.3050 C   0  0  0  0  0  2  0  0  0  0  0  0
  190.9250  173.0170  140.6630 C   0  0  1  0  0  3  0  0  0  0  0  0
  191.7740  172.9360  141.9550 C   0  0  1  0  0  3  0  0  0  0  0  0
  190.3150  177.7680  143.9820 C   0  0  0  0  0  3  0  0  0  0  0  0
  187.3020  176.5190  144.0970 C   0  0  0  0  0  3  0  0  0  0  0  0
  188.1950  176.8390  143.0650 C   0  0  0  0  0  0  0  0  0  0  0  0
  187.6960  177.3180  141.8440 C   0  0  0  0  0  3  0  0  0  0  0  0
  185.7990  178.0010  140.3700 C   0  0  0  0  0  1  0  0  0  0  0  0
  185.4370  177.1810  142.7030 C   0  0  0  0  0  3  0  0  0  0  0  0
  186.3220  177.4910  141.6640 C   0  0  0  0  0  0  0  0  0  0  0  0
  185.9280  176.6930  143.9180 C   0  0  0  0  0  3  0  0  0  0  0  0
  189.6660  171.6550  138.9640 C   0  0  0  0  0  2  0  0  0  0  0  0
  189.5480  170.3610  138.4580 O   0  0  0  0  0  1  0  0  0  0  0  0
  193.5620  168.8000  140.8020 C   0  0  0  0  0  2  0  0  0  0  0  0
  193.8520  170.0860  141.0000 C   0  0  0  0  0  3  0  0  0  0  0  0
  2 21  1  0  0  0  0
  3 19  1  0  0  0  0
  4 37  1  0  0  0  0
  4  1  1  0  0  0  0
  5  9  1  0  0  0  0
  6 10  1  0  0  0  0
  6 21  1  0  0  0  0
  6 15  1  0  0  0  0
  7  3  1  0  0  0  0
  8  3  1  0  0  0  0
  8  6  1  0  0  0  0
  9  7  1  0  0  0  0
  9 22  2  0  0  0  0
 10 15  1  0  0  0  0
 11 17  1  0  0  0  0
 11  4  1  0  0  0  0
 12  8  1  0  0  0  0
 13 23  1  0  0  0  0
 14 19  1  0  0  0  0
 16 12  1  0  0  0  0
 16 13  1  0  0  0  0
 17 24  1  0  0  0  0
 18  5  1  0  0  0  0
 19 15  1  0  0  0  0
 20  7  1  0  0  0  0
 20 12  1  0  0  0  0
 22 26  1  0  0  0  0
 23  2  1  0  0  0  0
 24 18  1  0  0  0  0
 24 25  1  0  0  0  0
 25  1  1  0  0  0  0
 25 20  1  0  0  0  0
 26 14  2  0  0  0  0
 28 22  1  0  0  0  0
 28 27  2  0  0  0  0
 29 28  1  0  0  0  0
 30 32  1  0  0  0  0
 31 33  2  0  0  0  0
 32 29  2  0  0  0  0
 32 31  1  0  0  0  0
 33 27  1  0  0  0  0
 34 17  1  0  0  0  0
 35 34  1  0  0  0  0
 36 37  2  0  0  0  0
M  END
>  <MODEL>
9

>  <REMARK>
 VINA RESULT:      -7.7      1.809      2.539
  Name = 
  3 active torsions:
  status: ('A' for Active; 'I' for Inactive)
    1  A    between atoms: C_5  and  C_23
    2  A    between atoms: C_6  and  C_31
    3  A    between atoms: C_11  and  C_26
                            x       y       z     vdW  Elec       q    Type
                         _______ _______ _______ _____ _____    ______ ____

>  <TORSDO>
F 3

$$$$
