=
 OpenBabel11052418093D

 28 32  0  0  1  0  0  0  0  0999 V2000
  189.1380  173.6410  141.9150 N   0  0  0  0  0  0  0  0  0  0  0  0
  187.5120  176.7610  145.6040 C   0  0  0  0  0  3  0  0  0  0  0  0
  186.7690  177.1960  139.1390 S   0  0  0  0  0  0  0  0  0  0  0  0
  186.2090  178.4360  144.4170 C   0  0  0  0  0  0  0  0  0  0  0  0
  187.4510  176.7150  143.0990 C   0  0  0  0  0  0  0  0  0  0  0  0
  186.2830  178.4410  146.8410 C   0  0  0  0  0  0  0  0  0  0  0  0
  187.0700  177.3180  144.3940 C   0  0  0  0  0  0  0  0  0  0  0  0
  185.7220  178.0960  141.9750 C   0  0  0  0  0  2  0  0  0  0  0  0
  185.8320  178.9970  145.6420 C   0  0  0  0  0  3  0  0  0  0  0  0
  187.9860  175.3350  140.6680 C   0  0  0  0  0  0  0  0  0  0  0  0
  188.0730  175.5730  143.0670 N   0  0  0  0  0  0  0  0  0  0  0  0
  185.7320  179.0820  143.1440 C   0  0  0  0  0  2  0  0  0  0  0  0
  188.9990  173.5140  139.4700 C   0  0  0  0  0  3  0  0  0  0  0  0
  187.2060  176.5860  140.6000 C   0  0  0  0  0  0  0  0  0  0  0  0
  188.2430  174.5710  139.4780 N   0  0  0  0  0  0  0  0  0  0  0  0
  185.8740  179.0390  148.1380 C   0  0  0  0  0  1  0  0  0  0  0  0
  187.1210  177.3220  146.8220 C   0  0  0  0  0  3  0  0  0  0  0  0
  187.1040  177.4570  141.8270 C   0  0  2  0  0  3  0  0  0  0  0  0
  189.7170  173.0520  140.7070 C   0  0  0  0  0  2  0  0  0  0  0  0
  188.4120  174.8800  141.8550 C   0  0  0  0  0  0  0  0  0  0  0  0
  189.4940  173.0520  143.1970 C   0  0  0  0  0  2  0  0  0  0  0  0
  190.9370  172.9050  143.2920 N   0  0  0  0  0  0  0  0  0  0  0  0
  193.4110  172.6260  144.7080 C   0  0  0  0  0  0  0  0  0  0  0  0
  191.4490  174.1100  143.9430 C   0  0  0  0  0  2  0  0  0  0  0  0
  191.1870  171.7610  144.1680 C   0  0  0  0  0  2  0  0  0  0  0  0
  192.6770  171.4280  144.2110 C   0  0  0  0  0  2  0  0  0  0  0  0
  194.0110  172.5910  145.7700 O   0  0  0  0  0  0  0  0  0  0  0  0
  193.2660  174.1590  143.7950 S   0  0  0  0  0  0  0  0  0  0  0  0
  1 21  1  0  0  0  0
  2 17  1  0  0  0  0
  3 14  2  0  0  0  0
  4  9  2  0  0  0  0
  5  7  1  0  0  0  0
  6 16  1  0  0  0  0
  7  4  1  0  0  0  0
  7  2  2  0  0  0  0
  8 12  1  0  0  0  0
  9  6  1  0  0  0  0
 10 20  2  0  0  0  0
 11  5  2  0  0  0  0
 12  4  1  0  0  0  0
 13 15  2  0  0  0  0
 13 19  1  0  0  0  0
 14 10  1  0  0  0  0
 14 18  1  0  0  0  0
 15 10  1  0  0  0  0
 17  6  2  0  0  0  0
 18  8  1  1  0  0  0
 18  5  1  0  0  0  0
 19  1  1  0  0  0  0
 20  1  1  0  0  0  0
 20 11  1  0  0  0  0
 21 22  1  0  0  0  0
 22 24  1  0  0  0  0
 22 25  1  0  0  0  0
 23 27  2  0  0  0  0
 25 26  1  0  0  0  0
 26 23  1  0  0  0  0
 28 24  1  0  0  0  0
 28 23  1  0  0  0  0
M  END
>  <MODEL>
1

>  <REMARK>
 VINA RESULT:      -7.6      0.000      0.000
  Name = 
  2 active torsions:
  status: ('A' for Active; 'I' for Inactive)
    1  A    between atoms: N_1  and  C_2
    2  A    between atoms: C_2  and  N_3
                            x       y       z     vdW  Elec       q    Type
                         _______ _______ _______ _____ _____    ______ ____

>  <TORSDO>
F 2

$$$$
=
 OpenBabel11052418093D

 28 32  0  0  1  0  0  0  0  0999 V2000
  186.4140  177.4220  141.2320 N   0  0  0  0  0  0  0  0  0  0  0  0
  190.2610  176.9230  144.5390 C   0  0  0  0  0  3  0  0  0  0  0  0
  184.0710  178.6960  145.5730 S   0  0  0  0  0  0  0  0  0  0  0  0
  189.2300  177.3470  146.7000 C   0  0  0  0  0  0  0  0  0  0  0  0
  187.8640  177.6480  144.6300 C   0  0  0  0  0  0  0  0  0  0  0  0
  191.5440  176.6340  146.5720 C   0  0  0  0  0  0  0  0  0  0  0  0
  189.1440  177.3170  145.2910 C   0  0  0  0  0  0  0  0  0  0  0  0
  186.7300  177.5640  146.8360 C   0  0  0  0  0  2  0  0  0  0  0  0
  190.4350  177.0170  147.3290 C   0  0  0  0  0  3  0  0  0  0  0  0
  185.3630  177.9880  143.3120 C   0  0  0  0  0  0  0  0  0  0  0  0
  187.7110  177.4310  143.3560 N   0  0  0  0  0  0  0  0  0  0  0  0
  188.0660  177.7900  147.5450 C   0  0  0  0  0  2  0  0  0  0  0  0
  184.0370  178.0220  141.3090 C   0  0  0  0  0  3  0  0  0  0  0  0
  185.4120  178.1860  144.7750 C   0  0  0  0  0  0  0  0  0  0  0  0
  184.1180  178.0970  142.6040 N   0  0  0  0  0  0  0  0  0  0  0  0
  192.8190  176.2780  147.2480 C   0  0  0  0  0  1  0  0  0  0  0  0
  191.4570  176.5840  145.1780 C   0  0  0  0  0  3  0  0  0  0  0  0
  186.7510  178.2420  145.4660 C   0  0  2  0  0  3  0  0  0  0  0  0
  185.2630  177.8790  140.4520 C   0  0  0  0  0  2  0  0  0  0  0  0
  186.4790  177.6500  142.6500 C   0  0  0  0  0  0  0  0  0  0  0  0
  187.5730  176.9220  140.5080 C   0  0  0  0  0  2  0  0  0  0  0  0
  187.7730  175.5140  140.8050 N   0  0  0  0  0  0  0  0  0  0  0  0
  189.3250  173.1130  140.9780 C   0  0  0  0  0  0  0  0  0  0  0  0
  188.0750  174.8460  139.5400 C   0  0  0  0  0  2  0  0  0  0  0  0
  188.9510  175.4300  141.6680 C   0  0  0  0  0  2  0  0  0  0  0  0
  189.1580  174.0000  142.1640 C   0  0  0  0  0  2  0  0  0  0  0  0
  190.3790  172.5310  140.7810 O   0  0  0  0  0  0  0  0  0  0  0  0
  188.0040  173.0390  139.7710 S   0  0  0  0  0  0  0  0  0  0  0  0
  1 20  1  0  0  0  0
  2 17  2  0  0  0  0
  2  7  1  0  0  0  0
  4  9  1  0  0  0  0
  4 12  1  0  0  0  0
  5  7  1  0  0  0  0
  5 18  1  0  0  0  0
  6 16  1  0  0  0  0
  6  9  2  0  0  0  0
  7  4  2  0  0  0  0
  8 12  1  0  0  0  0
 10 14  1  0  0  0  0
 11  5  2  0  0  0  0
 13 15  2  0  0  0  0
 14 18  1  0  0  0  0
 14  3  2  0  0  0  0
 15 10  1  0  0  0  0
 17  6  1  0  0  0  0
 18  8  1  1  0  0  0
 19  1  1  0  0  0  0
 19 13  1  0  0  0  0
 20 10  2  0  0  0  0
 20 11  1  0  0  0  0
 21 22  1  0  0  0  0
 21  1  1  0  0  0  0
 22 25  1  0  0  0  0
 23 26  1  0  0  0  0
 24 28  1  0  0  0  0
 24 22  1  0  0  0  0
 25 26  1  0  0  0  0
 27 23  2  0  0  0  0
 28 23  1  0  0  0  0
M  END
>  <MODEL>
2

>  <REMARK>
 VINA RESULT:      -7.2      2.865      5.147
  Name = 
  2 active torsions:
  status: ('A' for Active; 'I' for Inactive)
    1  A    between atoms: N_1  and  C_2
    2  A    between atoms: C_2  and  N_3
                            x       y       z     vdW  Elec       q    Type
                         _______ _______ _______ _____ _____    ______ ____

>  <TORSDO>
F 2

$$$$
=
 OpenBabel11052418093D

 28 32  0  0  1  0  0  0  0  0999 V2000
  193.7510  176.1600  143.7990 N   0  0  0  0  0  0  0  0  0  0  0  0
  189.0120  177.4010  142.3870 C   0  0  0  0  0  3  0  0  0  0  0  0
  191.4150  176.1880  148.3270 S   0  0  0  0  0  0  0  0  0  0  0  0
  187.8130  177.6120  144.4910 C   0  0  0  0  0  0  0  0  0  0  0  0
  190.1800  176.8100  144.5240 C   0  0  0  0  0  0  0  0  0  0  0  0
  186.7220  178.1840  142.4040 C   0  0  0  0  0  0  0  0  0  0  0  0
  188.9840  177.2630  143.7820 C   0  0  0  0  0  0  0  0  0  0  0  0
  189.1070  177.5260  146.6440 C   0  0  0  0  0  2  0  0  0  0  0  0
  186.6860  178.0580  143.7940 C   0  0  0  0  0  3  0  0  0  0  0  0
  192.5990  176.2140  145.9020 C   0  0  0  0  0  0  0  0  0  0  0  0
  191.3200  176.6810  143.9100 N   0  0  0  0  0  0  0  0  0  0  0  0
  187.7290  177.4540  145.9860 C   0  0  0  0  0  2  0  0  0  0  0  0
  194.9430  175.6860  145.8890 C   0  0  0  0  0  3  0  0  0  0  0  0
  191.3730  176.4160  146.7010 C   0  0  0  0  0  0  0  0  0  0  0  0
  193.8570  175.9600  146.5480 N   0  0  0  0  0  0  0  0  0  0  0  0
  185.5220  178.6650  141.6700 C   0  0  0  0  0  1  0  0  0  0  0  0
  187.8850  177.8580  141.7000 C   0  0  0  0  0  3  0  0  0  0  0  0
  190.0420  176.5030  145.9990 C   0  0  2  0  0  3  0  0  0  0  0  0
  194.9410  175.5500  144.3930 C   0  0  0  0  0  2  0  0  0  0  0  0
  192.5460  176.3220  144.5660 C   0  0  0  0  0  0  0  0  0  0  0  0
  193.7550  176.4060  142.3650 C   0  0  0  0  0  2  0  0  0  0  0  0
  194.8520  175.6850  141.7420 N   0  0  0  0  0  0  0  0  0  0  0  0
  196.6790  175.1150  139.6110 C   0  0  0  0  0  0  0  0  0  0  0  0
  194.3000  174.9750  140.5890 C   0  0  0  0  0  2  0  0  0  0  0  0
  195.7960  176.6930  141.2590 C   0  0  0  0  0  2  0  0  0  0  0  0
  197.0640  176.0320  140.7210 C   0  0  0  0  0  2  0  0  0  0  0  0
  197.0570  175.3270  138.4710 O   0  0  0  0  0  0  0  0  0  0  0  0
  195.5300  173.7860  139.9580 S   0  0  0  0  0  0  0  0  0  0  0  0
  1 19  1  0  0  0  0
  1 20  1  0  0  0  0
  2  7  1  0  0  0  0
  4 12  1  0  0  0  0
  5 18  1  0  0  0  0
  6  9  2  0  0  0  0
  7  4  2  0  0  0  0
  7  5  1  0  0  0  0
  9  4  1  0  0  0  0
 10 15  1  0  0  0  0
 10 14  1  0  0  0  0
 11  5  2  0  0  0  0
 11 20  1  0  0  0  0
 12  8  1  0  0  0  0
 13 15  2  0  0  0  0
 14  3  2  0  0  0  0
 16  6  1  0  0  0  0
 17  2  2  0  0  0  0
 17  6  1  0  0  0  0
 18  8  1  1  0  0  0
 18 14  1  0  0  0  0
 19 13  1  0  0  0  0
 20 10  2  0  0  0  0
 21  1  1  0  0  0  0
 22 21  1  0  0  0  0
 23 28  1  0  0  0  0
 23 26  1  0  0  0  0
 24 22  1  0  0  0  0
 25 22  1  0  0  0  0
 26 25  1  0  0  0  0
 27 23  2  0  0  0  0
 28 24  1  0  0  0  0
M  END
>  <MODEL>
3

>  <REMARK>
 VINA RESULT:      -7.1      3.945      5.999
  Name = 
  2 active torsions:
  status: ('A' for Active; 'I' for Inactive)
    1  A    between atoms: N_1  and  C_2
    2  A    between atoms: C_2  and  N_3
                            x       y       z     vdW  Elec       q    Type
                         _______ _______ _______ _____ _____    ______ ____

>  <TORSDO>
F 2

$$$$
=
 OpenBabel11052418093D

 28 32  0  0  1  0  0  0  0  0999 V2000
  192.0050  172.9090  143.2350 N   0  0  0  0  0  0  0  0  0  0  0  0
  189.0930  176.1540  145.8770 C   0  0  0  0  0  3  0  0  0  0  0  0
  188.5270  174.1080  139.7100 S   0  0  0  0  0  0  0  0  0  0  0  0
  187.2780  176.6850  144.3480 C   0  0  0  0  0  0  0  0  0  0  0  0
  189.1680  175.2670  143.5340 C   0  0  0  0  0  0  0  0  0  0  0  0
  187.2370  177.5160  146.6260 C   0  0  0  0  0  0  0  0  0  0  0  0
  188.5190  176.0590  144.6010 C   0  0  0  0  0  0  0  0  0  0  0  0
  187.0800  175.3980  142.1990 C   0  0  0  0  0  2  0  0  0  0  0  0
  186.6530  177.4200  145.3610 C   0  0  0  0  0  3  0  0  0  0  0  0
  190.3240  173.4960  141.6290 C   0  0  0  0  0  0  0  0  0  0  0  0
  190.2000  174.5230  143.8080 N   0  0  0  0  0  0  0  0  0  0  0  0
  186.6380  176.6320  142.9870 C   0  0  0  0  0  2  0  0  0  0  0  0
  192.0380  171.9410  140.9820 C   0  0  0  0  0  3  0  0  0  0  0  0
  189.1070  174.2380  141.2410 C   0  0  0  0  0  0  0  0  0  0  0  0
  190.9200  172.5510  140.7250 N   0  0  0  0  0  0  0  0  0  0  0  0
  186.5630  178.2930  147.6980 C   0  0  0  0  0  1  0  0  0  0  0  0
  188.4550  176.8810  146.8840 C   0  0  0  0  0  3  0  0  0  0  0  0
  188.6070  175.3470  142.1310 C   0  0  2  0  0  3  0  0  0  0  0  0
  192.8250  172.2360  142.2280 C   0  0  0  0  0  2  0  0  0  0  0  0
  190.8430  173.6650  142.8530 C   0  0  0  0  0  0  0  0  0  0  0  0
  192.5120  172.9670  144.5980 C   0  0  0  0  0  2  0  0  0  0  0  0
  193.9620  173.0560  144.5850 N   0  0  0  0  0  0  0  0  0  0  0  0
  196.5340  173.3850  145.8010 C   0  0  0  0  0  0  0  0  0  0  0  0
  194.3120  174.4140  145.0010 C   0  0  0  0  0  2  0  0  0  0  0  0
  194.4500  172.1190  145.5960 C   0  0  0  0  0  2  0  0  0  0  0  0
  195.9740  172.0250  145.5560 C   0  0  0  0  0  2  0  0  0  0  0  0
  197.2000  173.6120  146.7980 O   0  0  0  0  0  0  0  0  0  0  0  0
  196.0840  174.7110  144.6850 S   0  0  0  0  0  0  0  0  0  0  0  0
  1 21  1  0  0  0  0
  2 17  1  0  0  0  0
  3 14  2  0  0  0  0
  4  7  1  0  0  0  0
  4  9  2  0  0  0  0
  5 11  2  0  0  0  0
  5  7  1  0  0  0  0
  6 17  2  0  0  0  0
  6 16  1  0  0  0  0
  7  2  2  0  0  0  0
  8 12  1  0  0  0  0
  9  6  1  0  0  0  0
 10 20  2  0  0  0  0
 12  4  1  0  0  0  0
 13 19  1  0  0  0  0
 14 10  1  0  0  0  0
 14 18  1  0  0  0  0
 15 13  2  0  0  0  0
 15 10  1  0  0  0  0
 18  8  1  1  0  0  0
 18  5  1  0  0  0  0
 19  1  1  0  0  0  0
 20  1  1  0  0  0  0
 20 11  1  0  0  0  0
 22 21  1  0  0  0  0
 22 24  1  0  0  0  0
 22 25  1  0  0  0  0
 23 27  2  0  0  0  0
 26 25  1  0  0  0  0
 26 23  1  0  0  0  0
 28 24  1  0  0  0  0
 28 23  1  0  0  0  0
M  END
>  <MODEL>
4

>  <REMARK>
 VINA RESULT:      -7.1      2.019      2.891
  Name = 
  2 active torsions:
  status: ('A' for Active; 'I' for Inactive)
    1  A    between atoms: N_1  and  C_2
    2  A    between atoms: C_2  and  N_3
                            x       y       z     vdW  Elec       q    Type
                         _______ _______ _______ _____ _____    ______ ____

>  <TORSDO>
F 2

$$$$
=
 OpenBabel11052418093D

 28 32  0  0  1  0  0  0  0  0999 V2000
  190.1280  176.5160  144.4940 N   0  0  0  0  0  0  0  0  0  0  0  0
  185.7070  177.3780  142.1050 C   0  0  0  0  0  3  0  0  0  0  0  0
  187.3320  178.3310  148.3490 S   0  0  0  0  0  0  0  0  0  0  0  0
  184.3150  178.4110  143.8100 C   0  0  0  0  0  0  0  0  0  0  0  0
  186.5770  177.5630  144.4480 C   0  0  0  0  0  0  0  0  0  0  0  0
  183.5130  178.2230  141.5290 C   0  0  0  0  0  0  0  0  0  0  0  0
  185.5160  177.7670  143.4390 C   0  0  0  0  0  0  0  0  0  0  0  0
  185.3560  179.0640  146.0020 C   0  0  0  0  0  2  0  0  0  0  0  0
  183.3170  178.6220  142.8530 C   0  0  0  0  0  3  0  0  0  0  0  0
  188.7670  177.4000  146.2600 C   0  0  0  0  0  0  0  0  0  0  0  0
  187.7590  177.1600  144.0810 N   0  0  0  0  0  0  0  0  0  0  0  0
  184.0560  178.8210  145.2340 C   0  0  0  0  0  2  0  0  0  0  0  0
  191.0380  176.7910  146.7550 C   0  0  0  0  0  3  0  0  0  0  0  0
  187.4880  177.9440  146.7600 C   0  0  0  0  0  0  0  0  0  0  0  0
  189.9180  177.3420  147.1170 N   0  0  0  0  0  0  0  0  0  0  0  0
  182.4500  178.4560  140.5180 C   0  0  0  0  0  1  0  0  0  0  0  0
  184.7090  177.6030  141.1550 C   0  0  0  0  0  3  0  0  0  0  0  0
  186.2540  177.8300  145.9010 C   0  0  2  0  0  3  0  0  0  0  0  0
  191.1830  176.1110  145.4220 C   0  0  0  0  0  2  0  0  0  0  0  0
  188.8680  177.0090  144.9820 C   0  0  0  0  0  0  0  0  0  0  0  0
  190.3080  176.2130  143.0820 C   0  0  0  0  0  2  0  0  0  0  0  0
  190.0090  174.8130  142.8340 N   0  0  0  0  0  0  0  0  0  0  0  0
  189.8170  172.4710  141.1970 C   0  0  0  0  0  0  0  0  0  0  0  0
  188.8930  174.7730  141.8900 C   0  0  0  0  0  2  0  0  0  0  0  0
  191.1880  174.2400  142.1850 C   0  0  0  0  0  2  0  0  0  0  0  0
  191.0340  172.7300  142.0190 C   0  0  0  0  0  2  0  0  0  0  0  0
  189.9100  171.9520  140.0970 O   0  0  0  0  0  0  0  0  0  0  0  0
  188.2390  173.0740  141.7900 S   0  0  0  0  0  0  0  0  0  0  0  0
  1 20  1  0  0  0  0
  1 19  1  0  0  0  0
  2  7  1  0  0  0  0
  4 12  1  0  0  0  0
  5 18  1  0  0  0  0
  6  9  2  0  0  0  0
  7  4  2  0  0  0  0
  7  5  1  0  0  0  0
  9  4  1  0  0  0  0
 10 14  1  0  0  0  0
 10 15  1  0  0  0  0
 11  5  2  0  0  0  0
 11 20  1  0  0  0  0
 12  8  1  0  0  0  0
 13 15  2  0  0  0  0
 14  3  2  0  0  0  0
 16  6  1  0  0  0  0
 17  6  1  0  0  0  0
 17  2  2  0  0  0  0
 18  8  1  6  0  0  0
 18 14  1  0  0  0  0
 19 13  1  0  0  0  0
 20 10  2  0  0  0  0
 21  1  1  0  0  0  0
 22 21  1  0  0  0  0
 23 28  1  0  0  0  0
 23 26  1  0  0  0  0
 24 22  1  0  0  0  0
 25 22  1  0  0  0  0
 26 25  1  0  0  0  0
 27 23  2  0  0  0  0
 28 24  1  0  0  0  0
M  END
>  <MODEL>
5

>  <REMARK>
 VINA RESULT:      -7.1      3.057      5.158
  Name = 
  2 active torsions:
  status: ('A' for Active; 'I' for Inactive)
    1  A    between atoms: N_1  and  C_2
    2  A    between atoms: C_2  and  N_3
                            x       y       z     vdW  Elec       q    Type
                         _______ _______ _______ _____ _____    ______ ____

>  <TORSDO>
F 2

$$$$
=
 OpenBabel11052418093D

 28 32  0  0  1  0  0  0  0  0999 V2000
  192.1060  174.7160  143.0750 N   0  0  0  0  0  0  0  0  0  0  0  0
  187.3420  176.5000  142.7290 C   0  0  0  0  0  3  0  0  0  0  0  0
  191.0710  175.5470  147.9940 S   0  0  0  0  0  0  0  0  0  0  0  0
  186.7760  177.0980  145.0170 C   0  0  0  0  0  0  0  0  0  0  0  0
  188.9550  175.9600  144.5690 C   0  0  0  0  0  0  0  0  0  0  0  0
  185.2460  177.6130  143.2080 C   0  0  0  0  0  0  0  0  0  0  0  0
  187.6680  176.5090  144.0940 C   0  0  0  0  0  0  0  0  0  0  0  0
  188.5750  177.0380  146.7720 C   0  0  0  0  0  2  0  0  0  0  0  0
  185.5660  177.6340  144.5680 C   0  0  0  0  0  3  0  0  0  0  0  0
  191.5650  175.1520  145.3710 C   0  0  0  0  0  0  0  0  0  0  0  0
  189.8690  175.6010  143.7150 N   0  0  0  0  0  0  0  0  0  0  0  0
  187.0730  177.1060  146.4930 C   0  0  0  0  0  2  0  0  0  0  0  0
  193.7430  174.2830  144.8480 C   0  0  0  0  0  3  0  0  0  0  0  0
  190.6280  175.6140  146.4140 C   0  0  0  0  0  0  0  0  0  0  0  0
  192.9100  174.7800  145.7120 N   0  0  0  0  0  0  0  0  0  0  0  0
  183.9610  178.1910  142.7380 C   0  0  0  0  0  1  0  0  0  0  0  0
  186.1350  177.0480  142.2890 C   0  0  0  0  0  3  0  0  0  0  0  0
  189.1780  175.8270  146.0600 C   0  0  2  0  0  3  0  0  0  0  0  0
  193.3290  173.9980  143.4320 C   0  0  0  0  0  2  0  0  0  0  0  0
  191.1740  175.1310  144.0880 C   0  0  0  0  0  0  0  0  0  0  0  0
  191.7580  174.8120  141.6650 C   0  0  0  0  0  2  0  0  0  0  0  0
  190.9970  173.6420  141.2620 N   0  0  0  0  0  0  0  0  0  0  0  0
  189.7660  171.9040  139.3460 C   0  0  0  0  0  0  0  0  0  0  0  0
  189.7580  174.1250  140.6510 C   0  0  0  0  0  2  0  0  0  0  0  0
  191.7860  172.9610  140.2360 C   0  0  0  0  0  2  0  0  0  0  0  0
  191.1410  171.6300  139.8530 C   0  0  0  0  0  2  0  0  0  0  0  0
  189.4720  171.6650  138.1870 O   0  0  0  0  0  0  0  0  0  0  0  0
  188.6040  172.7310  140.4280 S   0  0  0  0  0  0  0  0  0  0  0  0
  1 19  1  0  0  0  0
  1 20  1  0  0  0  0
  2  7  1  0  0  0  0
  4 12  1  0  0  0  0
  5 18  1  0  0  0  0
  6  9  2  0  0  0  0
  7  5  1  0  0  0  0
  7  4  2  0  0  0  0
  9  4  1  0  0  0  0
 10 15  1  0  0  0  0
 10 14  1  0  0  0  0
 11 20  1  0  0  0  0
 11  5  2  0  0  0  0
 12  8  1  0  0  0  0
 13 15  2  0  0  0  0
 14  3  2  0  0  0  0
 16  6  1  0  0  0  0
 17  2  2  0  0  0  0
 17  6  1  0  0  0  0
 18 14  1  0  0  0  0
 18  8  1  1  0  0  0
 19 13  1  0  0  0  0
 20 10  2  0  0  0  0
 21  1  1  0  0  0  0
 22 21  1  0  0  0  0
 23 26  1  0  0  0  0
 23 28  1  0  0  0  0
 24 22  1  0  0  0  0
 25 22  1  0  0  0  0
 26 25  1  0  0  0  0
 27 23  2  0  0  0  0
 28 24  1  0  0  0  0
M  END
>  <MODEL>
6

>  <REMARK>
 VINA RESULT:      -7.0      2.799      5.110
  Name = 
  2 active torsions:
  status: ('A' for Active; 'I' for Inactive)
    1  A    between atoms: N_1  and  C_2
    2  A    between atoms: C_2  and  N_3
                            x       y       z     vdW  Elec       q    Type
                         _______ _______ _______ _____ _____    ______ ____

>  <TORSDO>
F 2

$$$$
=
 OpenBabel11052418093D

 28 32  0  0  1  0  0  0  0  0999 V2000
  190.5870  172.2140  142.8440 N   0  0  0  0  0  0  0  0  0  0  0  0
  187.0060  175.8380  143.0410 C   0  0  0  0  0  3  0  0  0  0  0  0
  192.4870  175.1920  146.5160 S   0  0  0  0  0  0  0  0  0  0  0  0
  187.8780  177.4310  144.6580 C   0  0  0  0  0  0  0  0  0  0  0  0
  189.1180  175.2960  144.2750 C   0  0  0  0  0  0  0  0  0  0  0  0
  185.8420  177.9240  143.4360 C   0  0  0  0  0  0  0  0  0  0  0  0
  187.9730  176.1880  143.9950 C   0  0  0  0  0  0  0  0  0  0  0  0
  190.2270  177.1460  145.5040 C   0  0  0  0  0  2  0  0  0  0  0  0
  186.8050  178.2840  144.3810 C   0  0  0  0  0  3  0  0  0  0  0  0
  191.4390  173.6700  144.5490 C   0  0  0  0  0  0  0  0  0  0  0  0
  189.3290  174.2490  143.5320 N   0  0  0  0  0  0  0  0  0  0  0  0
  188.8770  177.8360  145.7080 C   0  0  0  0  0  2  0  0  0  0  0  0
  192.7130  171.7200  143.9600 C   0  0  0  0  0  3  0  0  0  0  0  0
  191.3340  174.8800  145.3880 C   0  0  0  0  0  0  0  0  0  0  0  0
  192.6110  172.8410  144.6090 N   0  0  0  0  0  0  0  0  0  0  0  0
  184.7080  178.8380  143.1430 C   0  0  0  0  0  1  0  0  0  0  0  0
  185.9440  176.7020  142.7640 C   0  0  0  0  0  3  0  0  0  0  0  0
  190.0280  175.6310  145.4370 C   0  0  2  0  0  3  0  0  0  0  0  0
  191.5740  171.1770  143.1450 C   0  0  0  0  0  2  0  0  0  0  0  0
  190.4580  173.3740  143.6840 C   0  0  0  0  0  0  0  0  0  0  0  0
  189.6070  171.9410  141.8030 C   0  0  0  0  0  2  0  0  0  0  0  0
  189.8060  172.8500  140.6860 N   0  0  0  0  0  0  0  0  0  0  0  0
  189.5080  173.6900  137.9640 C   0  0  0  0  0  0  0  0  0  0  0  0
  190.6210  172.1450  139.6980 C   0  0  0  0  0  2  0  0  0  0  0  0
  188.4860  173.0990  140.1070 C   0  0  0  0  0  2  0  0  0  0  0  0
  188.5660  174.1660  139.0170 C   0  0  0  0  0  2  0  0  0  0  0  0
  189.1110  173.4580  136.8340 O   0  0  0  0  0  0  0  0  0  0  0  0
  191.1970  173.3210  138.4300 S   0  0  0  0  0  0  0  0  0  0  0  0
  1 19  1  0  0  0  0
  1 20  1  0  0  0  0
  2  7  1  0  0  0  0
  4 12  1  0  0  0  0
  5 18  1  0  0  0  0
  6  9  2  0  0  0  0
  7  5  1  0  0  0  0
  7  4  2  0  0  0  0
  8 12  1  0  0  0  0
  9  4  1  0  0  0  0
 10 15  1  0  0  0  0
 10 14  1  0  0  0  0
 11 20  1  0  0  0  0
 11  5  2  0  0  0  0
 13 15  2  0  0  0  0
 14 18  1  0  0  0  0
 14  3  2  0  0  0  0
 16  6  1  0  0  0  0
 17  2  2  0  0  0  0
 17  6  1  0  0  0  0
 18  8  1  6  0  0  0
 19 13  1  0  0  0  0
 20 10  2  0  0  0  0
 21  1  1  0  0  0  0
 22 21  1  0  0  0  0
 23 28  1  0  0  0  0
 23 26  1  0  0  0  0
 24 22  1  0  0  0  0
 25 22  1  0  0  0  0
 26 25  1  0  0  0  0
 27 23  2  0  0  0  0
 28 24  1  0  0  0  0
M  END
>  <MODEL>
7

>  <REMARK>
 VINA RESULT:      -7.0      2.834      5.168
  Name = 
  2 active torsions:
  status: ('A' for Active; 'I' for Inactive)
    1  A    between atoms: N_1  and  C_2
    2  A    between atoms: C_2  and  N_3
                            x       y       z     vdW  Elec       q    Type
                         _______ _______ _______ _____ _____    ______ ____

>  <TORSDO>
F 2

$$$$
=
 OpenBabel11052418093D

 28 32  0  0  1  0  0  0  0  0999 V2000
  189.7220  176.2160  146.5580 N   0  0  0  0  0  0  0  0  0  0  0  0
  188.9010  174.3420  141.8890 C   0  0  0  0  0  3  0  0  0  0  0  0
  194.5020  175.9580  144.8130 S   0  0  0  0  0  0  0  0  0  0  0  0
  191.1370  174.0110  140.9930 C   0  0  0  0  0  0  0  0  0  0  0  0
  190.8790  175.1160  143.2180 C   0  0  0  0  0  0  0  0  0  0  0  0
  189.1990  173.2660  139.7410 C   0  0  0  0  0  0  0  0  0  0  0  0
  190.2890  174.4980  142.0120 C   0  0  0  0  0  0  0  0  0  0  0  0
  193.1150  174.3010  142.5160 C   0  0  0  0  0  2  0  0  0  0  0  0
  190.5830  173.4090  139.8580 C   0  0  0  0  0  3  0  0  0  0  0  0
  191.9500  176.0470  145.6870 C   0  0  0  0  0  0  0  0  0  0  0  0
  190.1290  175.3830  144.2480 N   0  0  0  0  0  0  0  0  0  0  0  0
  192.6300  174.1800  141.0700 C   0  0  0  0  0  2  0  0  0  0  0  0
  191.6500  176.8770  147.9210 C   0  0  0  0  0  3  0  0  0  0  0  0
  192.8930  175.6990  144.6050 C   0  0  0  0  0  0  0  0  0  0  0  0
  192.4360  176.4740  146.9690 N   0  0  0  0  0  0  0  0  0  0  0  0
  188.6180  172.6200  138.5350 C   0  0  0  0  0  1  0  0  0  0  0  0
  188.3580  173.7300  140.7570 C   0  0  0  0  0  3  0  0  0  0  0  0
  192.3590  175.4270  143.2220 C   0  0  2  0  0  3  0  0  0  0  0  0
  190.1650  176.9870  147.7200 C   0  0  0  0  0  2  0  0  0  0  0  0
  190.6310  175.9110  145.4870 C   0  0  0  0  0  0  0  0  0  0  0  0
  188.2970  175.9500  146.4200 C   0  0  0  0  0  2  0  0  0  0  0  0
  187.5760  177.1970  146.2340 N   0  0  0  0  0  0  0  0  0  0  0  0
  185.2110  178.7890  145.9600 C   0  0  0  0  0  0  0  0  0  0  0  0
  186.8770  177.1030  144.9530 C   0  0  0  0  0  2  0  0  0  0  0  0
  186.5800  177.2700  147.3030 C   0  0  0  0  0  2  0  0  0  0  0  0
  185.8680  178.6210  147.2870 C   0  0  0  0  0  2  0  0  0  0  0  0
  183.9950  178.8520  145.8720 O   0  0  0  0  0  0  0  0  0  0  0  0
  186.2290  178.7430  144.4880 S   0  0  0  0  0  0  0  0  0  0  0  0
  1 19  1  0  0  0  0
  2  7  1  0  0  0  0
  4 12  1  0  0  0  0
  4  7  2  0  0  0  0
  5 18  1  0  0  0  0
  5 11  2  0  0  0  0
  6  9  2  0  0  0  0
  6 17  1  0  0  0  0
  7  5  1  0  0  0  0
  9  4  1  0  0  0  0
 10 15  1  0  0  0  0
 11 20  1  0  0  0  0
 12  8  1  0  0  0  0
 14  3  2  0  0  0  0
 14 10  1  0  0  0  0
 15 13  2  0  0  0  0
 16  6  1  0  0  0  0
 17  2  2  0  0  0  0
 18  8  1  1  0  0  0
 18 14  1  0  0  0  0
 19 13  1  0  0  0  0
 20 10  2  0  0  0  0
 20  1  1  0  0  0  0
 21  1  1  0  0  0  0
 22 21  1  0  0  0  0
 22 25  1  0  0  0  0
 23 26  1  0  0  0  0
 24 22  1  0  0  0  0
 26 25  1  0  0  0  0
 27 23  2  0  0  0  0
 28 24  1  0  0  0  0
 28 23  1  0  0  0  0
M  END
>  <MODEL>
8

>  <REMARK>
 VINA RESULT:      -7.0      3.411      7.803
  Name = 
  2 active torsions:
  status: ('A' for Active; 'I' for Inactive)
    1  A    between atoms: N_1  and  C_2
    2  A    between atoms: C_2  and  N_3
                            x       y       z     vdW  Elec       q    Type
                         _______ _______ _______ _____ _____    ______ ____

>  <TORSDO>
F 2

$$$$
=
 OpenBabel11052418093D

 28 32  0  0  1  0  0  0  0  0999 V2000
  187.4050  176.9080  142.3200 N   0  0  0  0  0  0  0  0  0  0  0  0
  192.0620  176.1390  144.2480 C   0  0  0  0  0  3  0  0  0  0  0  0
  186.5380  177.8830  147.2460 S   0  0  0  0  0  0  0  0  0  0  0  0
  191.7530  176.4140  146.6440 C   0  0  0  0  0  0  0  0  0  0  0  0
  189.8300  176.8760  145.1170 C   0  0  0  0  0  0  0  0  0  0  0  0
  193.8940  175.6930  145.7650 C   0  0  0  0  0  0  0  0  0  0  0  0
  191.2400  176.4870  145.3300 C   0  0  0  0  0  0  0  0  0  0  0  0
  189.4210  176.6410  147.5540 C   0  0  0  0  0  2  0  0  0  0  0  0
  193.0810  176.0290  146.8500 C   0  0  0  0  0  3  0  0  0  0  0  0
  187.0570  177.3300  144.6550 C   0  0  0  0  0  0  0  0  0  0  0  0
  189.2880  176.7520  143.9400 N   0  0  0  0  0  0  0  0  0  0  0  0
  190.9150  176.8040  147.8330 C   0  0  0  0  0  2  0  0  0  0  0  0
  185.1850  177.5200  143.1620 C   0  0  0  0  0  3  0  0  0  0  0  0
  187.5560  177.4210  146.0420 C   0  0  0  0  0  0  0  0  0  0  0  0
  185.6590  177.5010  144.3710 N   0  0  0  0  0  0  0  0  0  0  0  0
  195.3030  175.2790  145.9930 C   0  0  0  0  0  1  0  0  0  0  0  0
  193.3840  175.7460  144.4650 C   0  0  0  0  0  3  0  0  0  0  0  0
  189.0430  177.4160  146.2910 C   0  0  2  0  0  3  0  0  0  0  0  0
  186.0860  177.4300  141.9630 C   0  0  0  0  0  2  0  0  0  0  0  0
  187.9070  177.0320  143.6620 C   0  0  0  0  0  0  0  0  0  0  0  0
  188.2720  176.4530  141.2440 C   0  0  0  0  0  2  0  0  0  0  0  0
  188.3810  175.0040  141.2750 N   0  0  0  0  0  0  0  0  0  0  0  0
  189.6470  172.5020  140.6910 C   0  0  0  0  0  0  0  0  0  0  0  0
  188.2830  174.5360  139.8930 C   0  0  0  0  0  2  0  0  0  0  0  0
  189.7190  174.6930  141.7780 C   0  0  0  0  0  2  0  0  0  0  0  0
  189.8800  173.1900  141.9930 C   0  0  0  0  0  2  0  0  0  0  0  0
  190.5480  171.8870  140.1440 O   0  0  0  0  0  0  0  0  0  0  0  0
  188.0700  172.7260  139.8740 S   0  0  0  0  0  0  0  0  0  0  0  0
  1 20  1  0  0  0  0
  2 17  2  0  0  0  0
  2  7  1  0  0  0  0
  4  9  1  0  0  0  0
  4 12  1  0  0  0  0
  5  7  1  0  0  0  0
  5 18  1  0  0  0  0
  6 16  1  0  0  0  0
  6  9  2  0  0  0  0
  7  4  2  0  0  0  0
  8 12  1  0  0  0  0
 10 14  1  0  0  0  0
 11  5  2  0  0  0  0
 13 15  2  0  0  0  0
 14 18  1  0  0  0  0
 14  3  2  0  0  0  0
 15 10  1  0  0  0  0
 17  6  1  0  0  0  0
 18  8  1  1  0  0  0
 19  1  1  0  0  0  0
 19 13  1  0  0  0  0
 20 11  1  0  0  0  0
 20 10  2  0  0  0  0
 21 22  1  0  0  0  0
 21  1  1  0  0  0  0
 22 25  1  0  0  0  0
 23 26  1  0  0  0  0
 24 22  1  0  0  0  0
 25 26  1  0  0  0  0
 27 23  2  0  0  0  0
 28 24  1  0  0  0  0
 28 23  1  0  0  0  0
M  END
>  <MODEL>
9

>  <REMARK>
 VINA RESULT:      -6.9      3.070      5.887
  Name = 
  2 active torsions:
  status: ('A' for Active; 'I' for Inactive)
    1  A    between atoms: N_1  and  C_2
    2  A    between atoms: C_2  and  N_3
                            x       y       z     vdW  Elec       q    Type
                         _______ _______ _______ _____ _____    ______ ____

>  <TORSDO>
F 2

$$$$
