=
 OpenBabel11052417423D

 31 35  0  0  1  0  0  0  0  0999 V2000
  185.3200  177.8820  146.9140 C   0  0  2  0  0  3  0  0  0  0  0  0
  188.3860  177.3380  144.6940 N   0  0  0  0  0  0  0  0  0  0  0  0
  189.3970  176.6840  145.5040 C   0  0  0  0  0  0  0  0  0  0  0  0
  189.7510  175.1120  147.4880 C   0  0  0  0  0  3  0  0  0  0  0  0
  186.9670  177.3850  145.1060 C   0  0  1  0  0  3  0  0  0  0  0  0
  184.4310  178.6200  145.9100 C   0  0  0  0  0  2  0  0  0  0  0  0
  188.9940  175.9030  146.5140 C   0  0  0  0  0  3  0  0  0  0  0  0
  187.7110  178.2870  142.4040 C   0  0  1  0  0  3  0  0  0  0  0  0
  185.1460  178.4610  148.2330 N   0  0  0  0  0  1  0  0  0  0  0  0
  191.0680  177.4620  143.9320 C   0  0  0  0  0  3  0  0  0  0  0  0
  191.0610  175.0670  147.6930 C   0  0  0  0  0  3  0  0  0  0  0  0
  186.3860  177.7940  142.7780 N   0  0  0  0  0  2  0  0  0  0  0  0
  188.7640  177.7930  143.3730 C   0  0  0  0  0  0  0  0  0  0  0  0
  186.7910  177.9730  146.5080 C   0  0  0  0  0  2  0  0  0  0  0  0
  192.1140  175.7920  146.9850 C   0  0  0  0  0  3  0  0  0  0  0  0
  186.1320  178.2280  144.1400 C   0  0  1  0  0  3  0  0  0  0  0  0
  184.6570  178.0950  144.4920 C   0  0  0  0  0  2  0  0  0  0  0  0
  190.0200  177.8800  143.0520 N   0  0  0  0  0  0  0  0  0  0  0  0
  190.8180  176.8740  145.1040 C   0  0  0  0  0  0  0  0  0  0  0  0
  192.0070  176.5450  145.8970 C   0  0  0  0  0  3  0  0  0  0  0  0
  188.0320  177.8520  140.9790 C   0  0  0  0  0  2  0  0  0  0  0  0
  186.4180  177.0170  139.3010 C   0  0  0  0  0  1  0  0  0  0  0  0
  187.1760  176.6660  140.5670 C   0  0  1  0  0  3  0  0  0  0  0  0
  188.0030  175.5300  140.3320 O   0  0  0  0  0  0  0  0  0  0  0  0
  190.8540  174.1340  142.2690 C   0  0  0  0  0  0  0  0  0  0  0  0
  188.7890  173.7600  143.4770 C   0  0  0  0  0  3  0  0  0  0  0  0
  192.2330  174.0040  142.1750 O   0  0  0  0  0  1  0  0  0  0  0  0
  190.1410  174.7690  141.2480 C   0  0  0  0  0  3  0  0  0  0  0  0
  188.0770  174.3960  142.4550 C   0  0  0  0  0  3  0  0  0  0  0  0
  188.7460  174.9040  141.3380 C   0  0  0  0  0  0  0  0  0  0  0  0
  190.1780  173.6300  143.3830 C   0  0  0  0  0  3  0  0  0  0  0  0
  1  9  1  1  0  0  0
  2  5  1  0  0  0  0
  2  3  1  0  0  0  0
  3  7  2  0  0  0  0
  4 11  2  0  0  0  0
  5 14  1  1  0  0  0
  6  1  1  0  0  0  0
  7  4  1  0  0  0  0
  8 21  1  6  0  0  0
  8 12  1  0  0  0  0
  8 13  1  0  0  0  0
 10 19  2  0  0  0  0
 12 16  1  0  0  0  0
 13  2  1  0  0  0  0
 14  1  1  0  0  0  0
 15 11  1  0  0  0  0
 16 17  1  1  0  0  0
 16  5  1  0  0  0  0
 17  6  1  0  0  0  0
 18 13  2  0  0  0  0
 18 10  1  0  0  0  0
 19  3  1  0  0  0  0
 19 20  1  0  0  0  0
 20 15  2  0  0  0  0
 23 22  1  6  0  0  0
 23 21  1  0  0  0  0
 24 23  1  0  0  0  0
 24 30  1  0  0  0  0
 25 31  1  0  0  0  0
 27 25  1  0  0  0  0
 28 30  1  0  0  0  0
 28 25  2  0  0  0  0
 29 26  1  0  0  0  0
 30 29  2  0  0  0  0
 31 26  2  0  0  0  0
M  END
>  <MODEL>
1

>  <REMARK>
 VINA RESULT:      -7.5      0.000      0.000
  Name = 
  4 active torsions:
  status: ('A' for Active; 'I' for Inactive)
    1  A    between atoms: O_3  and  C_9
    2  A    between atoms: O_3  and  C_22
    3  A    between atoms: C_9  and  C_23
    4  A    between atoms: C_15  and  C_23
                            x       y       z     vdW  Elec       q    Type
                         _______ _______ _______ _____ _____    ______ ____

>  <TORSDO>
F 4

$$$$
=
 OpenBabel11052417423D

 31 35  0  0  1  0  0  0  0  0999 V2000
  190.2670  172.2850  141.1420 C   0  0  2  0  0  3  0  0  0  0  0  0
  190.0060  175.5390  143.1350 N   0  0  0  0  0  0  0  0  0  0  0  0
  191.1410  175.5860  144.0370 C   0  0  0  0  0  0  0  0  0  0  0  0
  193.5650  174.8360  144.3440 C   0  0  0  0  0  3  0  0  0  0  0  0
  189.9660  174.6170  141.9800 C   0  0  1  0  0  3  0  0  0  0  0  0
  188.9770  172.4050  140.3260 C   0  0  0  0  0  2  0  0  0  0  0  0
  192.2680  174.9600  143.6740 C   0  0  0  0  0  3  0  0  0  0  0  0
  187.8850  176.6810  142.2440 C   0  0  1  0  0  3  0  0  0  0  0  0
  190.4690  170.9020  141.5300 N   0  0  0  0  0  1  0  0  0  0  0  0
  189.9140  177.1730  145.3950 C   0  0  0  0  0  3  0  0  0  0  0  0
  193.9180  175.2180  145.5650 C   0  0  0  0  0  3  0  0  0  0  0  0
  188.2860  176.0670  140.9790 N   0  0  0  0  0  2  0  0  0  0  0  0
  188.9790  176.5470  143.2820 C   0  0  0  0  0  0  0  0  0  0  0  0
  190.2040  173.1620  142.3920 C   0  0  0  0  0  2  0  0  0  0  0  0
  193.1000  175.8880  146.5750 C   0  0  0  0  0  3  0  0  0  0  0  0
  188.6180  174.6810  141.2590 C   0  0  1  0  0  3  0  0  0  0  0  0
  188.6870  173.8650  139.9760 C   0  0  0  0  0  2  0  0  0  0  0  0
  188.9310  177.2720  144.3590 N   0  0  0  0  0  0  0  0  0  0  0  0
  190.9910  176.3940  145.2780 C   0  0  0  0  0  0  0  0  0  0  0  0
  191.8760  176.3840  146.4480 C   0  0  0  0  0  3  0  0  0  0  0  0
  187.5300  178.1450  142.0080 C   0  0  0  0  0  2  0  0  0  0  0  0
  185.4220  178.2170  140.7170 C   0  0  0  0  0  1  0  0  0  0  0  0
  186.0290  178.3620  142.1000 C   0  0  1  0  0  3  0  0  0  0  0  0
  185.4540  177.4000  142.9790 O   0  0  0  0  0  0  0  0  0  0  0  0
  185.4890  177.2480  146.6950 C   0  0  0  0  0  0  0  0  0  0  0  0
  183.9250  178.9450  145.9660 C   0  0  0  0  0  3  0  0  0  0  0  0
  186.1120  176.5460  147.7180 O   0  0  0  0  0  1  0  0  0  0  0  0
  185.7980  176.9600  145.3630 C   0  0  0  0  0  3  0  0  0  0  0  0
  184.2340  178.6570  144.6330 C   0  0  0  0  0  3  0  0  0  0  0  0
  185.1710  177.6660  144.3230 C   0  0  0  0  0  0  0  0  0  0  0  0
  184.5520  178.2400  146.9960 C   0  0  0  0  0  3  0  0  0  0  0  0
  1  9  1  1  0  0  0
  1 14  1  0  0  0  0
  2 13  1  0  0  0  0
  2  3  1  0  0  0  0
  3 19  1  0  0  0  0
  4 11  2  0  0  0  0
  5 14  1  1  0  0  0
  5  2  1  0  0  0  0
  6  1  1  0  0  0  0
  7  3  2  0  0  0  0
  7  4  1  0  0  0  0
  8 21  1  6  0  0  0
  8 13  1  0  0  0  0
 11 15  1  0  0  0  0
 12 16  1  0  0  0  0
 12  8  1  0  0  0  0
 13 18  2  0  0  0  0
 16 17  1  6  0  0  0
 16  5  1  0  0  0  0
 17  6  1  0  0  0  0
 18 10  1  0  0  0  0
 19 10  2  0  0  0  0
 19 20  1  0  0  0  0
 20 15  2  0  0  0  0
 21 23  1  0  0  0  0
 23 22  1  6  0  0  0
 23 24  1  0  0  0  0
 24 30  1  0  0  0  0
 25 31  1  0  0  0  0
 25 27  1  0  0  0  0
 26 31  2  0  0  0  0
 28 25  2  0  0  0  0
 29 26  1  0  0  0  0
 30 29  2  0  0  0  0
 30 28  1  0  0  0  0
M  END
>  <MODEL>
2

>  <REMARK>
 VINA RESULT:      -7.4      2.536      5.554
  Name = 
  4 active torsions:
  status: ('A' for Active; 'I' for Inactive)
    1  A    between atoms: O_3  and  C_9
    2  A    between atoms: O_3  and  C_22
    3  A    between atoms: C_9  and  C_23
    4  A    between atoms: C_15  and  C_23
                            x       y       z     vdW  Elec       q    Type
                         _______ _______ _______ _____ _____    ______ ____

>  <TORSDO>
F 4

$$$$
=
 OpenBabel11052417423D

 31 35  0  0  1  0  0  0  0  0999 V2000
  186.0100  177.6560  143.2670 C   0  0  2  0  0  3  0  0  0  0  0  0
  188.7070  175.1180  144.2250 N   0  0  0  0  0  0  0  0  0  0  0  0
  189.0470  174.3740  143.0270 C   0  0  0  0  0  0  0  0  0  0  0  0
  189.1700  174.5140  140.4770 C   0  0  0  0  0  3  0  0  0  0  0  0
  187.9710  176.3990  144.1650 C   0  0  1  0  0  3  0  0  0  0  0  0
  185.7610  178.2670  144.6480 C   0  0  0  0  0  2  0  0  0  0  0  0
  188.9060  174.9810  141.8410 C   0  0  0  0  0  3  0  0  0  0  0  0
  189.1220  175.5200  146.7270 C   0  0  1  0  0  3  0  0  0  0  0  0
  184.7520  177.5390  142.5530 N   0  0  0  0  0  1  0  0  0  0  0  0
  189.9290  172.6190  144.4440 C   0  0  0  0  0  3  0  0  0  0  0  0
  189.5080  173.3020  140.0570 C   0  0  0  0  0  3  0  0  0  0  0  0
  188.8400  176.9130  146.3800 N   0  0  0  0  0  2  0  0  0  0  0  0
  189.2630  174.6700  145.4830 C   0  0  0  0  0  0  0  0  0  0  0  0
  186.6570  176.2760  143.3900 C   0  0  0  0  0  2  0  0  0  0  0  0
  189.7240  172.0960  140.8550 C   0  0  0  0  0  3  0  0  0  0  0  0
  187.6380  176.9200  145.5650 C   0  0  1  0  0  3  0  0  0  0  0  0
  187.0540  178.3220  145.4620 C   0  0  0  0  0  2  0  0  0  0  0  0
  189.7930  173.4880  145.5740 N   0  0  0  0  0  0  0  0  0  0  0  0
  189.6000  173.0050  143.2090 C   0  0  0  0  0  0  0  0  0  0  0  0
  189.7660  171.9770  142.1760 C   0  0  0  0  0  3  0  0  0  0  0  0
  190.3820  175.4550  147.5820 C   0  0  0  0  0  2  0  0  0  0  0  0
  191.5970  177.2660  148.7480 C   0  0  0  0  0  1  0  0  0  0  0  0
  191.2340  176.6980  147.3890 C   0  0  1  0  0  3  0  0  0  0  0  0
  192.4220  176.3660  146.6750 O   0  0  0  0  0  0  0  0  0  0  0  0
  192.9610  174.6730  143.4080 C   0  0  0  0  0  0  0  0  0  0  0  0
  191.9440  176.8390  143.0430 C   0  0  0  0  0  3  0  0  0  0  0  0
  193.4710  173.4830  142.9060 O   0  0  0  0  0  1  0  0  0  0  0  0
  192.9540  174.9020  144.7870 C   0  0  0  0  0  3  0  0  0  0  0  0
  191.9380  177.0680  144.4230 C   0  0  0  0  0  3  0  0  0  0  0  0
  192.4400  176.1030  145.3020 C   0  0  0  0  0  0  0  0  0  0  0  0
  192.4570  175.6410  142.5370 C   0  0  0  0  0  3  0  0  0  0  0  0
  1  9  1  1  0  0  0
  1 14  1  0  0  0  0
  1  6  1  0  0  0  0
  2 13  1  0  0  0  0
  3 19  1  0  0  0  0
  3  2  1  0  0  0  0
  4  7  1  0  0  0  0
  5 14  1  6  0  0  0
  5  2  1  0  0  0  0
  5 16  1  0  0  0  0
  6 17  1  0  0  0  0
  7  3  2  0  0  0  0
  8 21  1  6  0  0  0
 10 18  1  0  0  0  0
 11  4  2  0  0  0  0
 11 15  1  0  0  0  0
 12  8  1  0  0  0  0
 13 18  2  0  0  0  0
 13  8  1  0  0  0  0
 15 20  2  0  0  0  0
 16 17  1  6  0  0  0
 16 12  1  0  0  0  0
 19 10  2  0  0  0  0
 20 19  1  0  0  0  0
 23 21  1  0  0  0  0
 23 22  1  1  0  0  0
 24 23  1  0  0  0  0
 25 28  1  0  0  0  0
 26 29  2  0  0  0  0
 27 25  1  0  0  0  0
 28 30  2  0  0  0  0
 29 30  1  0  0  0  0
 30 24  1  0  0  0  0
 31 26  1  0  0  0  0
 31 25  2  0  0  0  0
M  END
>  <MODEL>
3

>  <REMARK>
 VINA RESULT:      -7.1      2.193      5.302
  Name = 
  4 active torsions:
  status: ('A' for Active; 'I' for Inactive)
    1  A    between atoms: O_3  and  C_9
    2  A    between atoms: O_3  and  C_22
    3  A    between atoms: C_9  and  C_23
    4  A    between atoms: C_15  and  C_23
                            x       y       z     vdW  Elec       q    Type
                         _______ _______ _______ _____ _____    ______ ____

>  <TORSDO>
F 4

$$$$
=
 OpenBabel11052417423D

 31 35  0  0  1  0  0  0  0  0999 V2000
  190.1450  174.0970  141.1930 C   0  0  2  0  0  3  0  0  0  0  0  0
  190.1240  176.0440  144.4840 N   0  0  0  0  0  0  0  0  0  0  0  0
  191.5010  176.1680  144.9230 C   0  0  0  0  0  0  0  0  0  0  0  0
  193.9210  176.3040  144.1110 C   0  0  0  0  0  3  0  0  0  0  0  0
  189.7780  175.6680  143.0970 C   0  0  1  0  0  3  0  0  0  0  0  0
  188.6350  174.0260  140.9520 C   0  0  0  0  0  2  0  0  0  0  0  0
  192.4650  176.1810  143.9940 C   0  0  0  0  0  3  0  0  0  0  0  0
  187.6470  176.5700  144.9160 C   0  0  1  0  0  3  0  0  0  0  0  0
  190.7600  172.8450  140.7890 N   0  0  0  0  0  1  0  0  0  0  0  0
  190.6820  176.5730  147.1670 C   0  0  0  0  0  3  0  0  0  0  0  0
  194.6760  176.3100  145.2020 C   0  0  0  0  0  3  0  0  0  0  0  0
  187.5840  176.6590  143.4570 N   0  0  0  0  0  2  0  0  0  0  0  0
  189.0810  176.4740  145.3910 C   0  0  0  0  0  0  0  0  0  0  0  0
  190.4490  174.3610  142.6680 C   0  0  0  0  0  2  0  0  0  0  0  0
  194.2520  176.2090  146.5970 C   0  0  0  0  0  3  0  0  0  0  0  0
  188.2680  175.4940  142.9240 C   0  0  1  0  0  3  0  0  0  0  0  0
  187.9440  175.2960  141.4500 C   0  0  0  0  0  2  0  0  0  0  0  0
  189.3540  176.6780  146.6440 N   0  0  0  0  0  0  0  0  0  0  0  0
  191.7370  176.3460  146.3820 C   0  0  0  0  0  0  0  0  0  0  0  0
  193.0190  176.2300  147.0870 C   0  0  0  0  0  3  0  0  0  0  0  0
  186.9460  177.7770  145.5290 C   0  0  0  0  0  2  0  0  0  0  0  0
  184.6360  178.0740  146.3600 C   0  0  0  0  0  1  0  0  0  0  0  0
  185.4810  177.8160  145.1270 C   0  0  1  0  0  3  0  0  0  0  0  0
  185.2680  178.8530  144.1740 O   0  0  0  0  0  0  0  0  0  0  0  0
  182.7430  178.2220  141.5170 C   0  0  0  0  0  0  0  0  0  0  0  0
  184.9460  178.3720  140.5250 C   0  0  0  0  0  3  0  0  0  0  0  0
  181.3740  178.0350  141.3840 O   0  0  0  0  0  1  0  0  0  0  0  0
  183.2970  178.4440  142.7810 C   0  0  0  0  0  3  0  0  0  0  0  0
  185.5000  178.5940  141.7900 C   0  0  0  0  0  3  0  0  0  0  0  0
  184.6810  178.6330  142.9230 C   0  0  0  0  0  0  0  0  0  0  0  0
  183.5680  178.1850  140.3900 C   0  0  0  0  0  3  0  0  0  0  0  0
  1  9  1  1  0  0  0
  1 14  1  0  0  0  0
  2  3  1  0  0  0  0
  2 13  1  0  0  0  0
  3 19  1  0  0  0  0
  4 11  2  0  0  0  0
  5 14  1  1  0  0  0
  5  2  1  0  0  0  0
  6  1  1  0  0  0  0
  6 17  1  0  0  0  0
  7  4  1  0  0  0  0
  7  3  2  0  0  0  0
  8 13  1  0  0  0  0
  8 21  1  1  0  0  0
 11 15  1  0  0  0  0
 12  8  1  0  0  0  0
 13 18  2  0  0  0  0
 15 20  2  0  0  0  0
 16 17  1  6  0  0  0
 16  5  1  0  0  0  0
 16 12  1  0  0  0  0
 18 10  1  0  0  0  0
 19 20  1  0  0  0  0
 19 10  2  0  0  0  0
 23 21  1  0  0  0  0
 23 22  1  1  0  0  0
 24 23  1  0  0  0  0
 25 28  1  0  0  0  0
 26 29  2  0  0  0  0
 27 25  1  0  0  0  0
 28 30  2  0  0  0  0
 29 30  1  0  0  0  0
 30 24  1  0  0  0  0
 31 26  1  0  0  0  0
 31 25  2  0  0  0  0
M  END
>  <MODEL>
4

>  <REMARK>
 VINA RESULT:      -7.1      2.600      5.887
  Name = 
  4 active torsions:
  status: ('A' for Active; 'I' for Inactive)
    1  A    between atoms: O_3  and  C_9
    2  A    between atoms: O_3  and  C_22
    3  A    between atoms: C_9  and  C_23
    4  A    between atoms: C_15  and  C_23
                            x       y       z     vdW  Elec       q    Type
                         _______ _______ _______ _____ _____    ______ ____

>  <TORSDO>
F 4

$$$$
=
 OpenBabel11052417423D

 31 35  0  0  1  0  0  0  0  0999 V2000
  185.0450  178.7760  145.7490 C   0  0  2  0  0  3  0  0  0  0  0  0
  187.8900  176.4300  144.7350 N   0  0  0  0  0  0  0  0  0  0  0  0
  187.8650  176.3180  143.2890 C   0  0  0  0  0  0  0  0  0  0  0  0
  187.2460  177.5480  141.1350 C   0  0  0  0  0  3  0  0  0  0  0  0
  187.1750  177.5110  145.4460 C   0  0  1  0  0  3  0  0  0  0  0  0
  185.2090  178.7020  147.2690 C   0  0  0  0  0  2  0  0  0  0  0  0
  187.3900  177.3510  142.5800 C   0  0  0  0  0  3  0  0  0  0  0  0
  189.0140  175.7720  146.9490 C   0  0  1  0  0  3  0  0  0  0  0  0
  183.6340  178.8200  145.4150 N   0  0  0  0  0  1  0  0  0  0  0  0
  189.1100  174.2500  143.4910 C   0  0  0  0  0  3  0  0  0  0  0  0
  187.4420  176.6840  140.1480 C   0  0  0  0  0  3  0  0  0  0  0  0
  188.6510  177.1320  147.3450 N   0  0  0  0  0  2  0  0  0  0  0  0
  188.7840  175.5600  145.4680 C   0  0  0  0  0  0  0  0  0  0  0  0
  185.6930  177.5680  145.0720 C   0  0  0  0  0  2  0  0  0  0  0  0
  187.8720  175.2900  140.2370 C   0  0  0  0  0  3  0  0  0  0  0  0
  187.2650  177.3370  146.9640 C   0  0  1  0  0  3  0  0  0  0  0  0
  186.6830  178.5640  147.6520 C   0  0  0  0  0  2  0  0  0  0  0  0
  189.3120  174.5280  144.8800 N   0  0  0  0  0  0  0  0  0  0  0  0
  188.4400  175.0830  142.6910 C   0  0  0  0  0  0  0  0  0  0  0  0
  188.2950  174.6250  141.3050 C   0  0  0  0  0  3  0  0  0  0  0  0
  190.4680  175.5050  147.3220 C   0  0  0  0  0  2  0  0  0  0  0  0
  191.6830  177.1290  148.7360 C   0  0  0  0  0  1  0  0  0  0  0  0
  191.2750  176.7910  147.3140 C   0  0  1  0  0  3  0  0  0  0  0  0
  192.4380  176.6290  146.5070 O   0  0  0  0  0  0  0  0  0  0  0  0
  192.8990  174.9190  143.2370 C   0  0  0  0  0  0  0  0  0  0  0  0
  191.6730  176.9810  142.9100 C   0  0  0  0  0  3  0  0  0  0  0  0
  193.4760  173.7680  142.7180 O   0  0  0  0  0  1  0  0  0  0  0  0
  192.9670  175.1760  144.6090 C   0  0  0  0  0  3  0  0  0  0  0  0
  191.7410  177.2380  144.2840 C   0  0  0  0  0  3  0  0  0  0  0  0
  192.3850  176.3390  145.1400 C   0  0  0  0  0  0  0  0  0  0  0  0
  192.2530  175.8210  142.3880 C   0  0  0  0  0  3  0  0  0  0  0  0
  1  9  1  1  0  0  0
  1  6  1  0  0  0  0
  2  5  1  0  0  0  0
  2 13  1  0  0  0  0
  3  2  1  0  0  0  0
  4  7  1  0  0  0  0
  5 14  1  6  0  0  0
  5 16  1  0  0  0  0
  6 17  1  0  0  0  0
  7  3  2  0  0  0  0
  8 21  1  6  0  0  0
  8 12  1  0  0  0  0
 10 18  1  0  0  0  0
 11 15  1  0  0  0  0
 11  4  2  0  0  0  0
 13  8  1  0  0  0  0
 14  1  1  0  0  0  0
 15 20  2  0  0  0  0
 16 12  1  0  0  0  0
 16 17  1  1  0  0  0
 18 13  2  0  0  0  0
 19  3  1  0  0  0  0
 19 10  2  0  0  0  0
 20 19  1  0  0  0  0
 23 21  1  0  0  0  0
 23 22  1  1  0  0  0
 24 23  1  0  0  0  0
 25 28  1  0  0  0  0
 26 29  2  0  0  0  0
 27 25  1  0  0  0  0
 28 30  2  0  0  0  0
 29 30  1  0  0  0  0
 30 24  1  0  0  0  0
 31 26  1  0  0  0  0
 31 25  2  0  0  0  0
M  END
>  <MODEL>
5

>  <REMARK>
 VINA RESULT:      -7.0      1.800      5.106
  Name = 
  4 active torsions:
  status: ('A' for Active; 'I' for Inactive)
    1  A    between atoms: O_3  and  C_9
    2  A    between atoms: O_3  and  C_22
    3  A    between atoms: C_9  and  C_23
    4  A    between atoms: C_15  and  C_23
                            x       y       z     vdW  Elec       q    Type
                         _______ _______ _______ _____ _____    ______ ____

>  <TORSDO>
F 4

$$$$
=
 OpenBabel11052417423D

 31 35  0  0  1  0  0  0  0  0999 V2000
  187.6700  177.3000  141.4980 C   0  0  2  0  0  3  0  0  0  0  0  0
  189.4330  174.6180  143.5780 N   0  0  0  0  0  0  0  0  0  0  0  0
  190.0280  173.6730  142.6520 C   0  0  0  0  0  0  0  0  0  0  0  0
  191.0210  173.4280  140.3090 C   0  0  0  0  0  3  0  0  0  0  0  0
  188.9810  175.9570  143.1430 C   0  0  1  0  0  3  0  0  0  0  0  0
  187.0750  178.1290  142.6390 C   0  0  0  0  0  2  0  0  0  0  0  0
  190.3950  174.1150  141.4420 C   0  0  0  0  0  3  0  0  0  0  0  0
  189.0450  175.3240  146.0170 C   0  0  1  0  0  3  0  0  0  0  0  0
  186.7220  177.2350  140.4010 N   0  0  0  0  0  1  0  0  0  0  0  0
  190.0830  172.0470  144.4460 C   0  0  0  0  0  3  0  0  0  0  0  0
  191.2760  172.1350  140.1500 C   0  0  0  0  0  3  0  0  0  0  0  0
  189.1280  176.6750  145.4650 N   0  0  0  0  0  2  0  0  0  0  0  0
  189.4530  174.2920  144.9870 C   0  0  0  0  0  0  0  0  0  0  0  0
  188.0010  175.8840  141.9700 C   0  0  0  0  0  2  0  0  0  0  0  0
  191.0110  171.0400  141.0810 C   0  0  0  0  0  3  0  0  0  0  0  0
  188.2880  176.7100  144.2800 C   0  0  1  0  0  3  0  0  0  0  0  0
  188.0110  178.1430  143.8480 C   0  0  0  0  0  2  0  0  0  0  0  0
  189.7210  173.0790  145.3690 N   0  0  0  0  0  0  0  0  0  0  0  0
  190.2550  172.2880  143.1440 C   0  0  0  0  0  0  0  0  0  0  0  0
  190.5880  171.1090  142.3370 C   0  0  0  0  0  3  0  0  0  0  0  0
  189.9170  175.2290  147.2630 C   0  0  0  0  0  2  0  0  0  0  0  0
  191.4200  176.8650  148.3480 C   0  0  0  0  0  1  0  0  0  0  0  0
  191.1910  176.0400  147.0970 C   0  0  1  0  0  3  0  0  0  0  0  0
  192.2980  175.1660  146.8900 O   0  0  0  0  0  0  0  0  0  0  0  0
  193.2760  175.4180  143.3110 C   0  0  0  0  0  0  0  0  0  0  0  0
  193.7920  173.2030  144.1400 C   0  0  0  0  0  3  0  0  0  0  0  0
  193.2650  176.3420  142.2750 O   0  0  0  0  0  1  0  0  0  0  0  0
  192.7810  175.7740  144.5680 C   0  0  0  0  0  3  0  0  0  0  0  0
  193.2960  173.5590  145.3990 C   0  0  0  0  0  3  0  0  0  0  0  0
  192.7900  174.8440  145.6210 C   0  0  0  0  0  0  0  0  0  0  0  0
  193.7810  174.1340  143.0970 C   0  0  0  0  0  3  0  0  0  0  0  0
  1  9  1  6  0  0  0
  1 14  1  0  0  0  0
  1  6  1  0  0  0  0
  2 13  1  0  0  0  0
  3 19  1  0  0  0  0
  3  2  1  0  0  0  0
  4  7  1  0  0  0  0
  5 14  1  6  0  0  0
  5  2  1  0  0  0  0
  5 16  1  0  0  0  0
  6 17  1  0  0  0  0
  7  3  2  0  0  0  0
  8 21  1  1  0  0  0
 10 18  1  0  0  0  0
 11  4  2  0  0  0  0
 11 15  1  0  0  0  0
 12  8  1  0  0  0  0
 13 18  2  0  0  0  0
 13  8  1  0  0  0  0
 15 20  2  0  0  0  0
 16 17  1  6  0  0  0
 16 12  1  0  0  0  0
 19 10  2  0  0  0  0
 20 19  1  0  0  0  0
 23 21  1  0  0  0  0
 23 22  1  1  0  0  0
 24 23  1  0  0  0  0
 25 28  1  0  0  0  0
 26 29  2  0  0  0  0
 27 25  1  0  0  0  0
 28 30  2  0  0  0  0
 29 30  1  0  0  0  0
 30 24  1  0  0  0  0
 31 25  2  0  0  0  0
 31 26  1  0  0  0  0
M  END
>  <MODEL>
6

>  <REMARK>
 VINA RESULT:      -6.9      2.384      5.729
  Name = 
  4 active torsions:
  status: ('A' for Active; 'I' for Inactive)
    1  A    between atoms: O_3  and  C_9
    2  A    between atoms: O_3  and  C_22
    3  A    between atoms: C_9  and  C_23
    4  A    between atoms: C_15  and  C_23
                            x       y       z     vdW  Elec       q    Type
                         _______ _______ _______ _____ _____    ______ ____

>  <TORSDO>
F 4

$$$$
=
 OpenBabel11052417423D

 31 35  0  0  1  0  0  0  0  0999 V2000
  186.3820  177.0710  140.9530 C   0  0  2  0  0  3  0  0  0  0  0  0
  187.6780  176.3900  144.4860 N   0  0  0  0  0  0  0  0  0  0  0  0
  186.8160  177.1050  145.4080 C   0  0  0  0  0  0  0  0  0  0  0  0
  184.4410  177.9850  145.7520 C   0  0  0  0  0  3  0  0  0  0  0  0
  187.2790  176.1350  143.0850 C   0  0  1  0  0  3  0  0  0  0  0  0
  187.4420  176.3010  140.1610 C   0  0  0  0  0  2  0  0  0  0  0  0
  185.5440  177.3190  145.0520 C   0  0  0  0  0  3  0  0  0  0  0  0
  189.6940  174.8340  144.1530 C   0  0  1  0  0  3  0  0  0  0  0  0
  186.0380  178.2900  140.2440 N   0  0  0  0  0  1  0  0  0  0  0  0
  188.5910  176.9900  147.0540 C   0  0  0  0  0  3  0  0  0  0  0  0
  184.4620  178.6660  146.8910 C   0  0  0  0  0  3  0  0  0  0  0  0
  188.9020  174.3210  143.0350 N   0  0  0  0  0  2  0  0  0  0  0  0
  188.8720  175.7670  145.0150 C   0  0  0  0  0  0  0  0  0  0  0  0
  186.8940  177.4210  142.3500 C   0  0  0  0  0  2  0  0  0  0  0  0
  185.6000  178.9250  147.7700 C   0  0  0  0  0  3  0  0  0  0  0  0
  188.4070  175.4680  142.2950 C   0  0  1  0  0  3  0  0  0  0  0  0
  187.8930  175.0550  140.9230 C   0  0  0  0  0  2  0  0  0  0  0  0
  189.3010  176.0890  146.1980 N   0  0  0  0  0  0  0  0  0  0  0  0
  187.3970  177.4870  146.7240 C   0  0  0  0  0  0  0  0  0  0  0  0
  186.8270  178.4250  147.6990 C   0  0  0  0  0  3  0  0  0  0  0  0
  190.2350  173.6660  144.9700 C   0  0  0  0  0  2  0  0  0  0  0  0
  191.8420  172.1970  143.7990 C   0  0  0  0  0  1  0  0  0  0  0  0
  191.7050  173.4290  144.6720 C   0  0  1  0  0  3  0  0  0  0  0  0
  192.2510  174.5590  143.9960 O   0  0  0  0  0  0  0  0  0  0  0  0
  195.2060  176.7480  144.5520 C   0  0  0  0  0  0  0  0  0  0  0  0
  193.7890  176.7820  146.5140 C   0  0  0  0  0  3  0  0  0  0  0  0
  196.3510  177.1650  143.8880 O   0  0  0  0  0  1  0  0  0  0  0  0
  194.3180  175.8680  143.9260 C   0  0  0  0  0  3  0  0  0  0  0  0
  192.9000  175.9020  145.8870 C   0  0  0  0  0  3  0  0  0  0  0  0
  193.1580  175.4420  144.5920 C   0  0  0  0  0  0  0  0  0  0  0  0
  194.9420  177.2040  145.8450 C   0  0  0  0  0  3  0  0  0  0  0  0
  1  9  1  6  0  0  0
  1 14  1  0  0  0  0
  2 13  1  0  0  0  0
  2  3  1  0  0  0  0
  3 19  1  0  0  0  0
  4 11  2  0  0  0  0
  5 14  1  6  0  0  0
  5  2  1  0  0  0  0
  6 17  1  0  0  0  0
  6  1  1  0  0  0  0
  7  3  2  0  0  0  0
  7  4  1  0  0  0  0
  8 21  1  1  0  0  0
  8 13  1  0  0  0  0
 11 15  1  0  0  0  0
 12  8  1  0  0  0  0
 13 18  2  0  0  0  0
 16 17  1  6  0  0  0
 16 12  1  0  0  0  0
 16  5  1  0  0  0  0
 18 10  1  0  0  0  0
 19 10  2  0  0  0  0
 19 20  1  0  0  0  0
 20 15  2  0  0  0  0
 23 22  1  6  0  0  0
 23 21  1  0  0  0  0
 24 30  1  0  0  0  0
 24 23  1  0  0  0  0
 25 31  1  0  0  0  0
 27 25  1  0  0  0  0
 28 25  2  0  0  0  0
 28 30  1  0  0  0  0
 29 26  1  0  0  0  0
 30 29  2  0  0  0  0
 31 26  2  0  0  0  0
M  END
>  <MODEL>
7

>  <REMARK>
 VINA RESULT:      -6.8      2.171      5.530
  Name = 
  4 active torsions:
  status: ('A' for Active; 'I' for Inactive)
    1  A    between atoms: O_3  and  C_9
    2  A    between atoms: O_3  and  C_22
    3  A    between atoms: C_9  and  C_23
    4  A    between atoms: C_15  and  C_23
                            x       y       z     vdW  Elec       q    Type
                         _______ _______ _______ _____ _____    ______ ____

>  <TORSDO>
F 4

$$$$
=
 OpenBabel11052417423D

 31 35  0  0  1  0  0  0  0  0999 V2000
  191.1790  173.3460  140.0340 C   0  0  2  0  0  3  0  0  0  0  0  0
  192.3940  175.3620  143.0480 N   0  0  0  0  0  0  0  0  0  0  0  0
  193.7580  175.7740  142.7730 C   0  0  0  0  0  0  0  0  0  0  0  0
  195.3970  176.3630  140.9010 C   0  0  0  0  0  3  0  0  0  0  0  0
  191.4950  174.8770  141.9800 C   0  0  1  0  0  3  0  0  0  0  0  0
  189.7890  172.9670  140.5490 C   0  0  0  0  0  2  0  0  0  0  0  0
  194.1230  175.9480  141.4960 C   0  0  0  0  0  3  0  0  0  0  0  0
  190.3940  175.3960  144.6600 C   0  0  1  0  0  3  0  0  0  0  0  0
  191.7450  172.2310  139.2980 N   0  0  0  0  0  1  0  0  0  0  0  0
  194.0780  176.0840  145.1540 C   0  0  0  0  0  3  0  0  0  0  0  0
  196.5710  176.5570  141.4880 C   0  0  0  0  0  3  0  0  0  0  0  0
  189.6130  175.4210  143.4240 N   0  0  0  0  0  2  0  0  0  0  0  0
  191.8660  175.6050  144.3730 C   0  0  0  0  0  0  0  0  0  0  0  0
  192.1070  173.7170  141.1910 C   0  0  0  0  0  2  0  0  0  0  0  0
  196.9090  176.4220  142.9030 C   0  0  0  0  0  3  0  0  0  0  0  0
  190.1580  174.3990  142.5480 C   0  0  1  0  0  3  0  0  0  0  0  0
  189.2000  174.0890  141.4060 C   0  0  0  0  0  2  0  0  0  0  0  0
  192.6710  175.9030  145.3480 N   0  0  0  0  0  0  0  0  0  0  0  0
  194.6370  176.0450  143.9420 C   0  0  0  0  0  0  0  0  0  0  0  0
  196.0940  176.2120  143.9290 C   0  0  0  0  0  3  0  0  0  0  0  0
  189.8660  176.4590  145.6160 C   0  0  0  0  0  2  0  0  0  0  0  0
  188.8740  174.9210  147.2790 C   0  0  0  0  0  1  0  0  0  0  0  0
  188.5690  176.0070  146.2660 C   0  0  1  0  0  3  0  0  0  0  0  0
  187.9450  177.1100  146.9190 O   0  0  0  0  0  0  0  0  0  0  0  0
  185.4700  178.8670  144.7700 C   0  0  0  0  0  0  0  0  0  0  0  0
  184.4410  178.2780  146.8800 C   0  0  0  0  0  3  0  0  0  0  0  0
  185.3870  179.4480  143.5120 O   0  0  0  0  0  1  0  0  0  0  0  0
  186.6690  178.2860  145.1920 C   0  0  0  0  0  3  0  0  0  0  0  0
  185.6410  177.6970  147.3030 C   0  0  0  0  0  3  0  0  0  0  0  0
  186.7590  177.6960  146.4630 C   0  0  0  0  0  0  0  0  0  0  0  0
  184.3570  178.8630  145.6140 C   0  0  0  0  0  3  0  0  0  0  0  0
  1  9  1  1  0  0  0
  1  6  1  0  0  0  0
  1 14  1  0  0  0  0
  2 13  1  0  0  0  0
  3  2  1  0  0  0  0
  3 19  1  0  0  0  0
  4 11  2  0  0  0  0
  4  7  1  0  0  0  0
  5 14  1  1  0  0  0
  5 16  1  0  0  0  0
  5  2  1  0  0  0  0
  6 17  1  0  0  0  0
  7  3  2  0  0  0  0
  8 21  1  1  0  0  0
 10 18  1  0  0  0  0
 11 15  1  0  0  0  0
 12  8  1  0  0  0  0
 13  8  1  0  0  0  0
 13 18  2  0  0  0  0
 15 20  2  0  0  0  0
 16 17  1  6  0  0  0
 16 12  1  0  0  0  0
 19 10  2  0  0  0  0
 20 19  1  0  0  0  0
 21 23  1  0  0  0  0
 23 24  1  0  0  0  0
 23 22  1  1  0  0  0
 25 28  2  0  0  0  0
 25 31  1  0  0  0  0
 26 29  1  0  0  0  0
 27 25  1  0  0  0  0
 28 30  1  0  0  0  0
 30 24  1  0  0  0  0
 30 29  2  0  0  0  0
 31 26  2  0  0  0  0
M  END
>  <MODEL>
8

>  <REMARK>
 VINA RESULT:      -6.8      3.344      6.969
  Name = 
  4 active torsions:
  status: ('A' for Active; 'I' for Inactive)
    1  A    between atoms: O_3  and  C_9
    2  A    between atoms: O_3  and  C_22
    3  A    between atoms: C_9  and  C_23
    4  A    between atoms: C_15  and  C_23
                            x       y       z     vdW  Elec       q    Type
                         _______ _______ _______ _____ _____    ______ ____

>  <TORSDO>
F 4

$$$$
=
 OpenBabel11052417423D

 31 35  0  0  1  0  0  0  0  0999 V2000
  185.9580  177.4120  141.0880 C   0  0  2  0  0  3  0  0  0  0  0  0
  187.7900  176.8710  144.4020 N   0  0  0  0  0  0  0  0  0  0  0  0
  186.9180  177.3420  145.4610 C   0  0  0  0  0  0  0  0  0  0  0  0
  184.4710  177.6740  146.1240 C   0  0  0  0  0  3  0  0  0  0  0  0
  187.2850  176.5990  143.0390 C   0  0  1  0  0  3  0  0  0  0  0  0
  187.0510  176.9240  140.1330 C   0  0  0  0  0  2  0  0  0  0  0  0
  185.5940  177.2930  145.2630 C   0  0  0  0  0  3  0  0  0  0  0  0
  190.0310  175.8030  143.7420 C   0  0  1  0  0  3  0  0  0  0  0  0
  185.2830  178.5590  140.5080 N   0  0  0  0  0  1  0  0  0  0  0  0
  188.8640  177.5400  146.8890 C   0  0  0  0  0  3  0  0  0  0  0  0
  184.4880  178.2920  147.2980 C   0  0  0  0  0  3  0  0  0  0  0  0
  189.2330  175.1810  142.6860 N   0  0  0  0  0  2  0  0  0  0  0  0
  189.1440  176.4980  144.7520 C   0  0  0  0  0  0  0  0  0  0  0  0
  186.5530  177.8020  142.4420 C   0  0  0  0  0  2  0  0  0  0  0  0
  185.6460  178.7520  148.0620 C   0  0  0  0  0  3  0  0  0  0  0  0
  188.4220  176.2260  142.0850 C   0  0  1  0  0  3  0  0  0  0  0  0
  187.8420  175.7720  140.7530 C   0  0  0  0  0  2  0  0  0  0  0  0
  189.6380  176.8520  145.9000 N   0  0  0  0  0  0  0  0  0  0  0  0
  187.5620  177.7820  146.7280 C   0  0  0  0  0  0  0  0  0  0  0  0
  186.9330  178.5310  147.8220 C   0  0  0  0  0  3  0  0  0  0  0  0
  190.8990  174.7440  144.4120 C   0  0  0  0  0  2  0  0  0  0  0  0
  192.5330  176.2910  143.3860 C   0  0  0  0  0  1  0  0  0  0  0  0
  192.3650  174.9460  144.0670 C   0  0  1  0  0  3  0  0  0  0  0  0
  193.1520  174.9080  145.2540 O   0  0  0  0  0  0  0  0  0  0  0  0
  195.2610  171.8500  145.4160 C   0  0  0  0  0  0  0  0  0  0  0  0
  196.6070  173.7930  145.9360 C   0  0  0  0  0  3  0  0  0  0  0  0
  195.1460  170.4770  145.2450 O   0  0  0  0  0  1  0  0  0  0  0  0
  194.1430  172.6700  145.2430 C   0  0  0  0  0  3  0  0  0  0  0  0
  195.4870  174.6140  145.7630 C   0  0  0  0  0  3  0  0  0  0  0  0
  194.2520  174.0600  145.4150 C   0  0  0  0  0  0  0  0  0  0  0  0
  196.4920  172.4110  145.7620 C   0  0  0  0  0  3  0  0  0  0  0  0
  1  9  1  6  0  0  0
  1 14  1  0  0  0  0
  2 13  1  0  0  0  0
  2  3  1  0  0  0  0
  3 19  1  0  0  0  0
  4 11  2  0  0  0  0
  5 14  1  6  0  0  0
  5  2  1  0  0  0  0
  6 17  1  0  0  0  0
  6  1  1  0  0  0  0
  7  3  2  0  0  0  0
  7  4  1  0  0  0  0
  8 21  1  1  0  0  0
  8 13  1  0  0  0  0
 11 15  1  0  0  0  0
 12  8  1  0  0  0  0
 13 18  2  0  0  0  0
 16 17  1  6  0  0  0
 16 12  1  0  0  0  0
 16  5  1  0  0  0  0
 18 10  1  0  0  0  0
 19 10  2  0  0  0  0
 19 20  1  0  0  0  0
 20 15  2  0  0  0  0
 23 22  1  1  0  0  0
 23 21  1  0  0  0  0
 23 24  1  0  0  0  0
 24 30  1  0  0  0  0
 25 31  1  0  0  0  0
 27 25  1  0  0  0  0
 28 30  1  0  0  0  0
 28 25  2  0  0  0  0
 29 26  1  0  0  0  0
 30 29  2  0  0  0  0
 31 26  2  0  0  0  0
M  END
>  <MODEL>
9

>  <REMARK>
 VINA RESULT:      -6.7      2.705      5.608
  Name = 
  4 active torsions:
  status: ('A' for Active; 'I' for Inactive)
    1  A    between atoms: O_3  and  C_9
    2  A    between atoms: O_3  and  C_22
    3  A    between atoms: C_9  and  C_23
    4  A    between atoms: C_15  and  C_23
                            x       y       z     vdW  Elec       q    Type
                         _______ _______ _______ _____ _____    ______ ____

>  <TORSDO>
F 4

$$$$
