=
 OpenBabel11052418263D

 27 28  0  0  1  0  0  0  0  0999 V2000
  188.2000  177.0670  144.3770 C   0  0  1  0  0  3  0  0  0  0  0  0
  190.5410  175.5420  147.6500 C   0  0  0  0  0  3  0  0  0  0  0  0
  189.0200  176.5590  145.5280 C   0  0  0  0  0  0  0  0  0  0  0  0
  190.1670  177.2380  145.9650 C   0  0  0  0  0  3  0  0  0  0  0  0
  190.9250  176.7300  147.0240 C   0  0  0  0  0  3  0  0  0  0  0  0
  189.3990  174.8610  147.2170 C   0  0  0  0  0  3  0  0  0  0  0  0
  188.6410  175.3680  146.1590 C   0  0  0  0  0  3  0  0  0  0  0  0
  188.8650  176.9290  143.0780 N   0  0  0  0  0  0  0  0  0  0  0  0
  188.7110  177.9300  142.1070 N   0  0  0  0  0  1  0  0  0  0  0  0
  192.1750  175.8800  142.5610 O   0  0  0  0  0  0  0  0  0  0  0  0
  189.6350  175.7550  142.7630 C   0  0  0  0  0  0  0  0  0  0  0  0
  190.9430  175.8190  142.6590 C   0  0  0  0  0  0  0  0  0  0  0  0
  189.9310  172.1790  142.4380 C   0  0  0  0  0  3  0  0  0  0  0  0
  189.6980  172.0060  139.9850 C   0  0  0  0  0  2  0  0  0  0  0  0
  189.0290  174.0100  141.1640 N   0  0  0  0  0  0  0  0  0  0  0  0
  188.3580  174.6820  140.0620 C   0  0  0  0  0  1  0  0  0  0  0  0
  189.5880  172.7120  141.1040 C   0  0  0  0  0  0  0  0  0  0  0  0
  188.9310  174.4410  142.5460 C   0  0  1  0  0  3  0  0  0  0  0  0
  189.5610  173.3210  143.3910 C   0  0  0  0  0  3  0  0  0  0  0  0
  186.7040  176.6950  144.3460 C   0  0  0  0  0  2  0  0  0  0  0  0
  185.7250  177.5710  145.1420 C   0  0  2  0  0  3  0  0  0  0  0  0
  185.2070  176.8500  146.3810 C   0  0  0  0  0  2  0  0  0  0  0  0
  186.3840  178.7320  147.5180 C   0  0  0  0  0  1  0  0  0  0  0  0
  185.9560  177.2800  147.6310 C   0  0  0  0  0  2  0  0  0  0  0  0
  184.6320  178.0550  144.3140 N   0  0  0  0  0  2  0  0  0  0  0  0
  185.5780  180.1720  144.1700 O   0  0  0  0  0  1  0  0  0  0  0  0
  185.1840  179.0630  143.4250 C   0  0  0  0  0  2  0  0  0  0  0  0
  1 20  1  6  0  0  0
  1  3  1  0  0  0  0
  3  4  2  0  0  0  0
  3  7  1  0  0  0  0
  4  5  1  0  0  0  0
  5  2  2  0  0  0  0
  6  2  1  0  0  0  0
  7  6  2  0  0  0  0
  8  1  1  0  0  0  0
  9  8  1  0  0  0  0
 10 12  2  0  0  0  0
 11  8  1  0  0  0  0
 12 11  2  0  0  0  0
 13 19  2  0  0  0  0
 14 17  2  0  0  0  0
 15 18  1  0  0  0  0
 16 15  1  0  0  0  0
 17 15  1  0  0  0  0
 17 13  1  0  0  0  0
 18 11  1  6  0  0  0
 18 19  1  0  0  0  0
 21 20  1  6  0  0  0
 21 22  1  0  0  0  0
 22 24  1  0  0  0  0
 23 24  1  0  0  0  0
 25 21  1  0  0  0  0
 27 26  1  0  0  0  0
 27 25  1  0  0  0  0
M  END
>  <MODEL>
1

>  <REMARK>
 VINA RESULT:      -6.2      0.000      0.000
  Name = 
  10 active torsions:
  status: ('A' for Active; 'I' for Inactive)
    1  A    between atoms: C_1  and  C_15
    2  A    between atoms: C_1  and  C_18
    3  A    between atoms: N_2  and  C_14
    4  A    between atoms: N_2  and  C_15
    5  A    between atoms: C_9  and  C_15
    6  A    between atoms: C_14  and  C_17
    7  A    between atoms: C_18  and  C_24
    8  A    between atoms: C_18  and  N_26
    9  A    between atoms: C_20  and  N_26
   10  A    between atoms: C_22  and  C_24
                            x       y       z     vdW  Elec       q    Type
                         _______ _______ _______ _____ _____    ______ ____

>  <TORSDO>
F 10

$$$$
=
 OpenBabel11052418263D

 27 28  0  0  1  0  0  0  0  0999 V2000
  188.4410  177.0620  144.6000 C   0  0  1  0  0  3  0  0  0  0  0  0
  190.8060  175.3670  147.7710 C   0  0  0  0  0  3  0  0  0  0  0  0
  189.2590  176.4470  145.7000 C   0  0  0  0  0  0  0  0  0  0  0  0
  188.7820  175.3590  146.4460 C   0  0  0  0  0  3  0  0  0  0  0  0
  189.5550  174.8210  147.4780 C   0  0  0  0  0  3  0  0  0  0  0  0
  191.2860  176.4530  147.0310 C   0  0  0  0  0  3  0  0  0  0  0  0
  190.5130  176.9910  145.9990 C   0  0  0  0  0  3  0  0  0  0  0  0
  189.1530  177.1540  143.3220 N   0  0  0  0  0  0  0  0  0  0  0  0
  190.0850  178.1820  143.1170 N   0  0  0  0  0  1  0  0  0  0  0  0
  187.1290  176.7940  140.4770 O   0  0  0  0  0  0  0  0  0  0  0  0
  188.8720  176.2340  142.2520 C   0  0  0  0  0  0  0  0  0  0  0  0
  187.9740  176.5220  141.3370 C   0  0  0  0  0  0  0  0  0  0  0  0
  189.7310  173.1510  143.9070 C   0  0  0  0  0  3  0  0  0  0  0  0
  192.0370  173.7190  144.5840 C   0  0  0  0  0  2  0  0  0  0  0  0
  190.8840  174.9990  142.8860 N   0  0  0  0  0  0  0  0  0  0  0  0
  192.0120  175.7940  142.4260 C   0  0  0  0  0  1  0  0  0  0  0  0
  190.9550  173.9770  143.8610 C   0  0  0  0  0  0  0  0  0  0  0  0
  189.6150  174.9240  142.1840 C   0  0  1  0  0  3  0  0  0  0  0  0
  188.8200  173.7930  142.8560 C   0  0  0  0  0  3  0  0  0  0  0  0
  186.9750  176.6040  144.4580 C   0  0  0  0  0  2  0  0  0  0  0  0
  185.8720  177.5440  144.9660 C   0  0  2  0  0  3  0  0  0  0  0  0
  185.1630  176.9700  146.1870 C   0  0  0  0  0  2  0  0  0  0  0  0
  186.2980  178.6840  147.5990 C   0  0  0  0  0  1  0  0  0  0  0  0
  185.9580  177.2120  147.4590 C   0  0  0  0  0  2  0  0  0  0  0  0
  184.9260  177.8890  143.9160 N   0  0  0  0  0  2  0  0  0  0  0  0
  185.5370  180.1190  144.1490 O   0  0  0  0  0  1  0  0  0  0  0  0
  185.4480  179.0660  143.2410 C   0  0  0  0  0  2  0  0  0  0  0  0
  1 20  1  6  0  0  0
  1  3  1  0  0  0  0
  3  7  2  0  0  0  0
  3  4  1  0  0  0  0
  4  5  2  0  0  0  0
  5  2  1  0  0  0  0
  6  2  2  0  0  0  0
  7  6  1  0  0  0  0
  8  1  1  0  0  0  0
  9  8  1  0  0  0  0
 10 12  2  0  0  0  0
 11  8  1  0  0  0  0
 12 11  2  0  0  0  0
 15 17  1  0  0  0  0
 16 15  1  0  0  0  0
 17 13  1  0  0  0  0
 17 14  2  0  0  0  0
 18 11  1  1  0  0  0
 18 19  1  0  0  0  0
 18 15  1  0  0  0  0
 19 13  2  0  0  0  0
 21 20  1  6  0  0  0
 21 22  1  0  0  0  0
 22 24  1  0  0  0  0
 24 23  1  0  0  0  0
 25 21  1  0  0  0  0
 27 25  1  0  0  0  0
 27 26  1  0  0  0  0
M  END
>  <MODEL>
2

>  <REMARK>
 VINA RESULT:      -6.2      1.615      2.308
  Name = 
  10 active torsions:
  status: ('A' for Active; 'I' for Inactive)
    1  A    between atoms: C_1  and  C_15
    2  A    between atoms: C_1  and  C_18
    3  A    between atoms: N_2  and  C_14
    4  A    between atoms: N_2  and  C_15
    5  A    between atoms: C_9  and  C_15
    6  A    between atoms: C_14  and  C_17
    7  A    between atoms: C_18  and  C_24
    8  A    between atoms: C_18  and  N_26
    9  A    between atoms: C_20  and  N_26
   10  A    between atoms: C_22  and  C_24
                            x       y       z     vdW  Elec       q    Type
                         _______ _______ _______ _____ _____    ______ ____

>  <TORSDO>
F 10

$$$$
=
 OpenBabel11052418263D

 27 28  0  0  1  0  0  0  0  0999 V2000
  188.4740  176.5120  145.6660 C   0  0  1  0  0  3  0  0  0  0  0  0
  184.9900  178.3150  147.4350 C   0  0  0  0  0  3  0  0  0  0  0  0
  187.2470  177.1180  146.2850 C   0  0  0  0  0  0  0  0  0  0  0  0
  185.9600  176.6900  145.9280 C   0  0  0  0  0  3  0  0  0  0  0  0
  184.8340  177.2870  146.5030 C   0  0  0  0  0  3  0  0  0  0  0  0
  186.2710  178.7470  147.7930 C   0  0  0  0  0  3  0  0  0  0  0  0
  187.3960  178.1510  147.2180 C   0  0  0  0  0  3  0  0  0  0  0  0
  189.2860  175.7400  146.6120 N   0  0  0  0  0  0  0  0  0  0  0  0
  188.6820  174.7500  147.4010 N   0  0  0  0  0  1  0  0  0  0  0  0
  191.5110  177.4000  148.7610 O   0  0  0  0  0  0  0  0  0  0  0  0
  190.6870  176.0180  146.7810 C   0  0  0  0  0  0  0  0  0  0  0  0
  191.1120  176.7290  147.8010 C   0  0  0  0  0  0  0  0  0  0  0  0
  194.0980  175.0850  146.0900 C   0  0  0  0  0  3  0  0  0  0  0  0
  194.7740  177.0740  144.7900 C   0  0  0  0  0  2  0  0  0  0  0  0
  192.4390  176.5640  145.1680 N   0  0  0  0  0  0  0  0  0  0  0  0
  191.8650  177.5440  144.2580 C   0  0  0  0  0  1  0  0  0  0  0  0
  193.8240  176.3260  145.3360 C   0  0  0  0  0  0  0  0  0  0  0  0
  191.6760  175.4890  145.7750 C   0  0  1  0  0  3  0  0  0  0  0  0
  192.7030  174.5540  146.4350 C   0  0  0  0  0  3  0  0  0  0  0  0
  188.3210  175.8350  144.2890 C   0  0  0  0  0  2  0  0  0  0  0  0
  188.3640  176.7250  143.0380 C   0  0  2  0  0  3  0  0  0  0  0  0
  186.9710  176.9450  142.4580 C   0  0  0  0  0  2  0  0  0  0  0  0
  185.9990  179.0870  143.2880 C   0  0  0  0  0  1  0  0  0  0  0  0
  186.7250  178.4110  142.1400 C   0  0  0  0  0  2  0  0  0  0  0  0
  189.2800  176.2070  142.0350 N   0  0  0  0  0  2  0  0  0  0  0  0
  191.0980  174.7690  142.1980 O   0  0  0  0  0  1  0  0  0  0  0  0
  189.7480  174.9160  142.5100 C   0  0  0  0  0  2  0  0  0  0  0  0
  1 20  1  6  0  0  0
  1  3  1  0  0  0  0
  1  8  1  0  0  0  0
  2  6  1  0  0  0  0
  3  7  1  0  0  0  0
  4  3  2  0  0  0  0
  4  5  1  0  0  0  0
  5  2  2  0  0  0  0
  7  6  2  0  0  0  0
  8 11  1  0  0  0  0
  8  9  1  0  0  0  0
 11 12  2  0  0  0  0
 12 10  2  0  0  0  0
 13 19  2  0  0  0  0
 14 17  2  0  0  0  0
 15 17  1  0  0  0  0
 15 18  1  0  0  0  0
 16 15  1  0  0  0  0
 17 13  1  0  0  0  0
 18 19  1  0  0  0  0
 18 11  1  1  0  0  0
 21 22  1  6  0  0  0
 21 20  1  0  0  0  0
 24 22  1  0  0  0  0
 24 23  1  0  0  0  0
 25 27  1  0  0  0  0
 25 21  1  0  0  0  0
 26 27  1  0  0  0  0
M  END
>  <MODEL>
3

>  <REMARK>
 VINA RESULT:      -6.1      2.617      5.324
  Name = 
  10 active torsions:
  status: ('A' for Active; 'I' for Inactive)
    1  A    between atoms: C_1  and  C_15
    2  A    between atoms: C_1  and  C_18
    3  A    between atoms: N_2  and  C_14
    4  A    between atoms: N_2  and  C_15
    5  A    between atoms: C_9  and  C_15
    6  A    between atoms: C_14  and  C_17
    7  A    between atoms: C_18  and  C_24
    8  A    between atoms: C_18  and  N_26
    9  A    between atoms: C_20  and  N_26
   10  A    between atoms: C_22  and  C_24
                            x       y       z     vdW  Elec       q    Type
                         _______ _______ _______ _____ _____    ______ ____

>  <TORSDO>
F 10

$$$$
=
 OpenBabel11052418263D

 27 28  0  0  1  0  0  0  0  0999 V2000
  188.3610  176.5530  144.9140 C   0  0  1  0  0  3  0  0  0  0  0  0
  185.2240  178.0440  147.4550 C   0  0  0  0  0  3  0  0  0  0  0  0
  187.2540  177.0510  145.7990 C   0  0  0  0  0  0  0  0  0  0  0  0
  185.9150  176.7110  145.5580 C   0  0  0  0  0  3  0  0  0  0  0  0
  184.9030  177.2060  146.3850 C   0  0  0  0  0  3  0  0  0  0  0  0
  186.5580  178.3870  147.6990 C   0  0  0  0  0  3  0  0  0  0  0  0
  187.5700  177.8920  146.8720 C   0  0  0  0  0  3  0  0  0  0  0  0
  189.4170  175.8420  145.6400 N   0  0  0  0  0  0  0  0  0  0  0  0
  189.0760  174.8240  146.5420 N   0  0  0  0  0  1  0  0  0  0  0  0
  191.4740  178.0910  143.8980 O   0  0  0  0  0  0  0  0  0  0  0  0
  190.7990  176.2070  145.4800 C   0  0  0  0  0  0  0  0  0  0  0  0
  191.1470  177.1770  144.6650 C   0  0  0  0  0  0  0  0  0  0  0  0
  194.2780  175.9670  146.3860 C   0  0  0  0  0  3  0  0  0  0  0  0
  194.9230  174.1000  144.9030 C   0  0  0  0  0  2  0  0  0  0  0  0
  192.5990  174.5560  145.3960 N   0  0  0  0  0  0  0  0  0  0  0  0
  192.0250  173.3560  144.8070 C   0  0  0  0  0  1  0  0  0  0  0  0
  193.9830  174.8350  145.4830 C   0  0  0  0  0  0  0  0  0  0  0  0
  191.8580  175.4640  146.2530 C   0  0  1  0  0  3  0  0  0  0  0  0
  192.8940  176.4280  146.8540 C   0  0  0  0  0  3  0  0  0  0  0  0
  187.9650  175.8790  143.5850 C   0  0  0  0  0  2  0  0  0  0  0  0
  188.3140  176.6020  142.2760 C   0  0  2  0  0  3  0  0  0  0  0  0
  187.9900  178.0900  142.3520 C   0  0  0  0  0  2  0  0  0  0  0  0
  185.9230  179.2660  143.1030 C   0  0  0  0  0  1  0  0  0  0  0  0
  186.5260  178.3580  142.0470 C   0  0  0  0  0  2  0  0  0  0  0  0
  187.6790  175.9790  141.1250 N   0  0  0  0  0  2  0  0  0  0  0  0
  188.2850  174.5030  139.4350 O   0  0  0  0  0  1  0  0  0  0  0  0
  188.4710  174.8110  140.7810 C   0  0  0  0  0  2  0  0  0  0  0  0
  1 20  1  6  0  0  0
  1  8  1  0  0  0  0
  1  3  1  0  0  0  0
  2  6  1  0  0  0  0
  3  7  1  0  0  0  0
  4  3  2  0  0  0  0
  4  5  1  0  0  0  0
  5  2  2  0  0  0  0
  7  6  2  0  0  0  0
  8  9  1  0  0  0  0
 10 12  2  0  0  0  0
 11  8  1  0  0  0  0
 12 11  2  0  0  0  0
 13 19  2  0  0  0  0
 14 17  2  0  0  0  0
 15 17  1  0  0  0  0
 15 18  1  0  0  0  0
 16 15  1  0  0  0  0
 17 13  1  0  0  0  0
 18 11  1  6  0  0  0
 18 19  1  0  0  0  0
 21 22  1  1  0  0  0
 21 20  1  0  0  0  0
 24 22  1  0  0  0  0
 24 23  1  0  0  0  0
 25 21  1  0  0  0  0
 26 27  1  0  0  0  0
 27 25  1  0  0  0  0
M  END
>  <MODEL>
4

>  <REMARK>
 VINA RESULT:      -6.1      2.608      4.993
  Name = 
  10 active torsions:
  status: ('A' for Active; 'I' for Inactive)
    1  A    between atoms: C_1  and  C_15
    2  A    between atoms: C_1  and  C_18
    3  A    between atoms: N_2  and  C_14
    4  A    between atoms: N_2  and  C_15
    5  A    between atoms: C_9  and  C_15
    6  A    between atoms: C_14  and  C_17
    7  A    between atoms: C_18  and  C_24
    8  A    between atoms: C_18  and  N_26
    9  A    between atoms: C_20  and  N_26
   10  A    between atoms: C_22  and  C_24
                            x       y       z     vdW  Elec       q    Type
                         _______ _______ _______ _____ _____    ______ ____

>  <TORSDO>
F 10

$$$$
=
 OpenBabel11052418263D

 27 28  0  0  1  0  0  0  0  0999 V2000
  188.3930  176.9190  144.5470 C   0  0  1  0  0  3  0  0  0  0  0  0
  190.8230  175.3780  147.7470 C   0  0  0  0  0  3  0  0  0  0  0  0
  189.2490  176.4050  145.6690 C   0  0  0  0  0  0  0  0  0  0  0  0
  190.5160  176.9460  145.9300 C   0  0  0  0  0  3  0  0  0  0  0  0
  191.3010  176.4340  146.9670 C   0  0  0  0  0  3  0  0  0  0  0  0
  189.5600  174.8340  147.4910 C   0  0  0  0  0  3  0  0  0  0  0  0
  188.7760  175.3460  146.4540 C   0  0  0  0  0  3  0  0  0  0  0  0
  189.1120  177.0490  143.2760 N   0  0  0  0  0  0  0  0  0  0  0  0
  190.0060  178.1130  143.0870 N   0  0  0  0  0  1  0  0  0  0  0  0
  187.1790  176.6720  140.3700 O   0  0  0  0  0  0  0  0  0  0  0  0
  188.8760  176.1290  142.1950 C   0  0  0  0  0  0  0  0  0  0  0  0
  188.0020  176.4080  141.2550 C   0  0  0  0  0  0  0  0  0  0  0  0
  189.7470  173.0660  143.8810 C   0  0  0  0  0  3  0  0  0  0  0  0
  192.0350  173.6680  144.5920 C   0  0  0  0  0  2  0  0  0  0  0  0
  190.8920  174.9240  142.8690 N   0  0  0  0  0  0  0  0  0  0  0  0
  192.0180  175.7310  142.4220 C   0  0  0  0  0  1  0  0  0  0  0  0
  190.9610  173.9080  143.8500 C   0  0  0  0  0  0  0  0  0  0  0  0
  189.6370  174.8290  142.1470 C   0  0  1  0  0  3  0  0  0  0  0  0
  188.8450  173.6910  142.8110 C   0  0  0  0  0  3  0  0  0  0  0  0
  186.9780  176.3260  144.3970 C   0  0  0  0  0  2  0  0  0  0  0  0
  185.7780  177.2300  144.7130 C   0  0  2  0  0  3  0  0  0  0  0  0
  186.1100  178.7020  144.4890 C   0  0  0  0  0  2  0  0  0  0  0  0
  184.6590  178.3830  142.4860 C   0  0  0  0  0  1  0  0  0  0  0  0
  185.8630  179.1150  143.0480 C   0  0  0  0  0  2  0  0  0  0  0  0
  185.2640  177.0010  146.0540 N   0  0  0  0  0  2  0  0  0  0  0  0
  184.6530  178.5750  147.6500 O   0  0  0  0  0  1  0  0  0  0  0  0
  184.3770  178.1080  146.3670 C   0  0  0  0  0  2  0  0  0  0  0  0
  1 20  1  6  0  0  0
  1  3  1  0  0  0  0
  3  4  2  0  0  0  0
  3  7  1  0  0  0  0
  4  5  1  0  0  0  0
  5  2  2  0  0  0  0
  6  2  1  0  0  0  0
  7  6  2  0  0  0  0
  8  1  1  0  0  0  0
  9  8  1  0  0  0  0
 10 12  2  0  0  0  0
 11  8  1  0  0  0  0
 12 11  2  0  0  0  0
 15 17  1  0  0  0  0
 16 15  1  0  0  0  0
 17 13  1  0  0  0  0
 17 14  2  0  0  0  0
 18 11  1  1  0  0  0
 18 19  1  0  0  0  0
 18 15  1  0  0  0  0
 19 13  2  0  0  0  0
 21 20  1  1  0  0  0
 21 25  1  0  0  0  0
 22 21  1  0  0  0  0
 23 24  1  0  0  0  0
 24 22  1  0  0  0  0
 25 27  1  0  0  0  0
 27 26  1  0  0  0  0
M  END
>  <MODEL>
5

>  <REMARK>
 VINA RESULT:      -5.9      1.940      2.788
  Name = 
  10 active torsions:
  status: ('A' for Active; 'I' for Inactive)
    1  A    between atoms: C_1  and  C_15
    2  A    between atoms: C_1  and  C_18
    3  A    between atoms: N_2  and  C_14
    4  A    between atoms: N_2  and  C_15
    5  A    between atoms: C_9  and  C_15
    6  A    between atoms: C_14  and  C_17
    7  A    between atoms: C_18  and  C_24
    8  A    between atoms: C_18  and  N_26
    9  A    between atoms: C_20  and  N_26
   10  A    between atoms: C_22  and  C_24
                            x       y       z     vdW  Elec       q    Type
                         _______ _______ _______ _____ _____    ______ ____

>  <TORSDO>
F 10

$$$$
=
 OpenBabel11052418263D

 27 28  0  0  1  0  0  0  0  0999 V2000
  187.4570  176.9180  145.1510 C   0  0  1  0  0  3  0  0  0  0  0  0
  190.7660  175.7860  147.6580 C   0  0  0  0  0  3  0  0  0  0  0  0
  188.6130  176.5470  146.0350 C   0  0  0  0  0  0  0  0  0  0  0  0
  189.6900  177.4230  146.2370 C   0  0  0  0  0  3  0  0  0  0  0  0
  190.7640  177.0420  147.0470 C   0  0  0  0  0  3  0  0  0  0  0  0
  189.6950  174.9090  147.4590 C   0  0  0  0  0  3  0  0  0  0  0  0
  188.6220  175.2890  146.6490 C   0  0  0  0  0  3  0  0  0  0  0  0
  187.5400  176.3400  143.8060 N   0  0  0  0  0  0  0  0  0  0  0  0
  186.3670  175.9470  143.1440 N   0  0  0  0  0  1  0  0  0  0  0  0
  190.2330  178.0880  142.3870 O   0  0  0  0  0  0  0  0  0  0  0  0
  188.8130  176.1200  143.1730 C   0  0  0  0  0  0  0  0  0  0  0  0
  189.5450  177.1330  142.7680 C   0  0  0  0  0  0  0  0  0  0  0  0
  191.6470  173.9440  142.7100 C   0  0  0  0  0  3  0  0  0  0  0  0
  191.4350  173.5660  140.2780 C   0  0  0  0  0  2  0  0  0  0  0  0
  189.5890  174.4470  141.5690 N   0  0  0  0  0  0  0  0  0  0  0  0
  188.5600  174.3550  140.5460 C   0  0  0  0  0  1  0  0  0  0  0  0
  190.9220  173.9950  141.4240 C   0  0  0  0  0  0  0  0  0  0  0  0
  189.3080  174.7120  142.9690 C   0  0  1  0  0  3  0  0  0  0  0  0
  190.6240  174.4650  143.7250 C   0  0  0  0  0  3  0  0  0  0  0  0
  186.0420  176.8600  145.7610 C   0  0  0  0  0  2  0  0  0  0  0  0
  185.2160  178.1540  145.7940 C   0  0  2  0  0  3  0  0  0  0  0  0
  185.9070  179.2810  145.0330 C   0  0  0  0  0  2  0  0  0  0  0  0
  184.0370  178.6890  143.4920 C   0  0  0  0  0  1  0  0  0  0  0  0
  185.3650  179.4120  143.6200 C   0  0  0  0  0  2  0  0  0  0  0  0
  184.8890  178.5550  147.1540 N   0  0  0  0  0  2  0  0  0  0  0  0
  186.7930  179.0600  148.3860 O   0  0  0  0  0  1  0  0  0  0  0  0
  185.9330  178.0280  148.0170 C   0  0  0  0  0  2  0  0  0  0  0  0
  1 20  1  1  0  0  0
  1  3  1  0  0  0  0
  3  4  2  0  0  0  0
  3  7  1  0  0  0  0
  4  5  1  0  0  0  0
  5  2  2  0  0  0  0
  6  2  1  0  0  0  0
  7  6  2  0  0  0  0
  8  1  1  0  0  0  0
  9  8  1  0  0  0  0
 10 12  2  0  0  0  0
 11  8  1  0  0  0  0
 12 11  2  0  0  0  0
 13 19  2  0  0  0  0
 14 17  2  0  0  0  0
 15 18  1  0  0  0  0
 16 15  1  0  0  0  0
 17 15  1  0  0  0  0
 17 13  1  0  0  0  0
 18 11  1  6  0  0  0
 18 19  1  0  0  0  0
 20 21  1  0  0  0  0
 21 22  1  1  0  0  0
 21 25  1  0  0  0  0
 23 24  1  0  0  0  0
 24 22  1  0  0  0  0
 25 27  1  0  0  0  0
 27 26  1  0  0  0  0
M  END
>  <MODEL>
6

>  <REMARK>
 VINA RESULT:      -5.8      1.686      2.390
  Name = 
  10 active torsions:
  status: ('A' for Active; 'I' for Inactive)
    1  A    between atoms: C_1  and  C_15
    2  A    between atoms: C_1  and  C_18
    3  A    between atoms: N_2  and  C_14
    4  A    between atoms: N_2  and  C_15
    5  A    between atoms: C_9  and  C_15
    6  A    between atoms: C_14  and  C_17
    7  A    between atoms: C_18  and  C_24
    8  A    between atoms: C_18  and  N_26
    9  A    between atoms: C_20  and  N_26
   10  A    between atoms: C_22  and  C_24
                            x       y       z     vdW  Elec       q    Type
                         _______ _______ _______ _____ _____    ______ ____

>  <TORSDO>
F 10

$$$$
=
 OpenBabel11052418263D

 27 28  0  0  1  0  0  0  0  0999 V2000
  187.8760  176.7450  145.1230 C   0  0  1  0  0  3  0  0  0  0  0  0
  184.7370  178.5130  147.4770 C   0  0  0  0  0  3  0  0  0  0  0  0
  186.7920  177.3850  145.9430 C   0  0  0  0  0  0  0  0  0  0  0  0
  187.0840  178.3560  146.9120 C   0  0  0  0  0  3  0  0  0  0  0  0
  186.0580  178.9190  147.6760 C   0  0  0  0  0  3  0  0  0  0  0  0
  184.4400  177.5440  146.5130 C   0  0  0  0  0  3  0  0  0  0  0  0
  185.4660  176.9810  145.7490 C   0  0  0  0  0  3  0  0  0  0  0  0
  188.7210  175.8230  145.8880 N   0  0  0  0  0  0  0  0  0  0  0  0
  188.2630  175.3110  147.1110 N   0  0  0  0  0  1  0  0  0  0  0  0
  190.6180  173.0610  144.8420 O   0  0  0  0  0  0  0  0  0  0  0  0
  190.0390  175.4750  145.4280 C   0  0  0  0  0  0  0  0  0  0  0  0
  190.3380  174.2320  145.1260 C   0  0  0  0  0  0  0  0  0  0  0  0
  193.3180  176.3760  144.2360 C   0  0  0  0  0  3  0  0  0  0  0  0
  194.5280  176.3170  146.3890 C   0  0  0  0  0  2  0  0  0  0  0  0
  192.1120  176.4160  146.3180 N   0  0  0  0  0  0  0  0  0  0  0  0
  191.8750  176.6610  147.7320 C   0  0  0  0  0  1  0  0  0  0  0  0
  193.3870  176.3310  145.7110 C   0  0  0  0  0  0  0  0  0  0  0  0
  191.0880  176.5490  145.2970 C   0  0  1  0  0  3  0  0  0  0  0  0
  191.8160  176.4600  143.9460 C   0  0  0  0  0  3  0  0  0  0  0  0
  187.4980  176.2180  143.7250 C   0  0  0  0  0  2  0  0  0  0  0  0
  188.0750  176.9420  142.4990 C   0  0  2  0  0  3  0  0  0  0  0  0
  186.9790  177.5960  141.6660 C   0  0  0  0  0  2  0  0  0  0  0  0
  184.7490  178.3920  142.4510 C   0  0  0  0  0  1  0  0  0  0  0  0
  186.2420  178.6650  142.4550 C   0  0  0  0  0  2  0  0  0  0  0  0
  188.9040  176.0630  141.6900 N   0  0  0  0  0  2  0  0  0  0  0  0
  188.7630  173.9180  140.8080 O   0  0  0  0  0  1  0  0  0  0  0  0
  188.4270  174.7080  141.9050 C   0  0  0  0  0  2  0  0  0  0  0  0
  1 20  1  6  0  0  0
  1  8  1  0  0  0  0
  1  3  1  0  0  0  0
  2  5  1  0  0  0  0
  3  4  1  0  0  0  0
  4  5  2  0  0  0  0
  6  2  2  0  0  0  0
  7  3  2  0  0  0  0
  7  6  1  0  0  0  0
  8  9  1  0  0  0  0
 10 12  2  0  0  0  0
 11  8  1  0  0  0  0
 12 11  2  0  0  0  0
 13 17  1  0  0  0  0
 15 16  1  0  0  0  0
 17 15  1  0  0  0  0
 17 14  2  0  0  0  0
 18 11  1  6  0  0  0
 18 15  1  0  0  0  0
 19 13  2  0  0  0  0
 19 18  1  0  0  0  0
 21 22  1  6  0  0  0
 21 20  1  0  0  0  0
 22 24  1  0  0  0  0
 23 24  1  0  0  0  0
 25 27  1  0  0  0  0
 25 21  1  0  0  0  0
 26 27  1  0  0  0  0
M  END
>  <MODEL>
7

>  <REMARK>
 VINA RESULT:      -5.8      2.549      5.234
  Name = 
  10 active torsions:
  status: ('A' for Active; 'I' for Inactive)
    1  A    between atoms: C_1  and  C_15
    2  A    between atoms: C_1  and  C_18
    3  A    between atoms: N_2  and  C_14
    4  A    between atoms: N_2  and  C_15
    5  A    between atoms: C_9  and  C_15
    6  A    between atoms: C_14  and  C_17
    7  A    between atoms: C_18  and  C_24
    8  A    between atoms: C_18  and  N_26
    9  A    between atoms: C_20  and  N_26
   10  A    between atoms: C_22  and  C_24
                            x       y       z     vdW  Elec       q    Type
                         _______ _______ _______ _____ _____    ______ ____

>  <TORSDO>
F 10

$$$$
=
 OpenBabel11052418263D

 27 28  0  0  1  0  0  0  0  0999 V2000
  188.0710  177.0920  144.3630 C   0  0  1  0  0  3  0  0  0  0  0  0
  184.4010  178.4940  146.1200 C   0  0  0  0  0  3  0  0  0  0  0  0
  186.7980  177.5720  144.9990 C   0  0  0  0  0  0  0  0  0  0  0  0
  186.1190  176.7980  145.9510 C   0  0  0  0  0  3  0  0  0  0  0  0
  184.9230  177.2590  146.5110 C   0  0  0  0  0  3  0  0  0  0  0  0
  185.0730  179.2690  145.1690 C   0  0  0  0  0  3  0  0  0  0  0  0
  186.2680  178.8080  144.6100 C   0  0  0  0  0  3  0  0  0  0  0  0
  189.1490  176.8470  145.3250 N   0  0  0  0  0  0  0  0  0  0  0  0
  189.7300  177.9250  146.0090 N   0  0  0  0  0  1  0  0  0  0  0  0
  188.9410  174.1670  147.5820 O   0  0  0  0  0  0  0  0  0  0  0  0
  189.6590  175.5190  145.5420 C   0  0  0  0  0  0  0  0  0  0  0  0
  189.2890  174.8220  146.5930 C   0  0  0  0  0  0  0  0  0  0  0  0
  191.7160  172.7030  144.6380 C   0  0  0  0  0  3  0  0  0  0  0  0
  193.9110  173.6100  145.3170 C   0  0  0  0  0  2  0  0  0  0  0  0
  192.0010  175.0620  145.0140 N   0  0  0  0  0  0  0  0  0  0  0  0
  192.6960  176.3370  145.1040 C   0  0  0  0  0  1  0  0  0  0  0  0
  192.6250  173.7930  145.0480 C   0  0  0  0  0  0  0  0  0  0  0  0
  190.6300  174.9260  144.5550 C   0  0  1  0  0  3  0  0  0  0  0  0
  190.3890  173.4190  144.3680 C   0  0  0  0  0  3  0  0  0  0  0  0
  187.9610  176.0090  143.2710 C   0  0  0  0  0  2  0  0  0  0  0  0
  188.3320  176.3940  141.8320 C   0  0  2  0  0  3  0  0  0  0  0  0
  187.7360  177.7420  141.4400 C   0  0  0  0  0  2  0  0  0  0  0  0
  185.2960  178.1560  141.1330 C   0  0  0  0  0  1  0  0  0  0  0  0
  186.5500  177.5760  140.5050 C   0  0  0  0  0  2  0  0  0  0  0  0
  187.9670  175.3560  140.8800 N   0  0  0  0  0  2  0  0  0  0  0  0
  189.7140  173.8260  140.9580 O   0  0  0  0  0  1  0  0  0  0  0  0
  188.4300  174.0930  141.4290 C   0  0  0  0  0  2  0  0  0  0  0  0
  1 20  1  1  0  0  0
  1  3  1  0  0  0  0
  1  8  1  0  0  0  0
  2  5  1  0  0  0  0
  3  4  1  0  0  0  0
  4  5  2  0  0  0  0
  6  2  2  0  0  0  0
  7  3  2  0  0  0  0
  7  6  1  0  0  0  0
  8 11  1  0  0  0  0
  8  9  1  0  0  0  0
 11 12  2  0  0  0  0
 12 10  2  0  0  0  0
 13 17  1  0  0  0  0
 15 17  1  0  0  0  0
 15 16  1  0  0  0  0
 17 14  2  0  0  0  0
 18 15  1  0  0  0  0
 18 11  1  1  0  0  0
 19 18  1  0  0  0  0
 19 13  2  0  0  0  0
 21 22  1  6  0  0  0
 21 20  1  0  0  0  0
 24 23  1  0  0  0  0
 24 22  1  0  0  0  0
 25 27  1  0  0  0  0
 25 21  1  0  0  0  0
 26 27  1  0  0  0  0
M  END
>  <MODEL>
8

>  <REMARK>
 VINA RESULT:      -5.7      2.630      5.112
  Name = 
  10 active torsions:
  status: ('A' for Active; 'I' for Inactive)
    1  A    between atoms: C_1  and  C_15
    2  A    between atoms: C_1  and  C_18
    3  A    between atoms: N_2  and  C_14
    4  A    between atoms: N_2  and  C_15
    5  A    between atoms: C_9  and  C_15
    6  A    between atoms: C_14  and  C_17
    7  A    between atoms: C_18  and  C_24
    8  A    between atoms: C_18  and  N_26
    9  A    between atoms: C_20  and  N_26
   10  A    between atoms: C_22  and  C_24
                            x       y       z     vdW  Elec       q    Type
                         _______ _______ _______ _____ _____    ______ ____

>  <TORSDO>
F 10

$$$$
=
 OpenBabel11052418263D

 27 28  0  0  1  0  0  0  0  0999 V2000
  188.2010  176.5670  143.9020 C   0  0  1  0  0  3  0  0  0  0  0  0
  184.6600  178.8620  143.0570 C   0  0  0  0  0  3  0  0  0  0  0  0
  186.9800  177.3890  143.6020 C   0  0  0  0  0  0  0  0  0  0  0  0
  186.8820  178.7290  144.0050 C   0  0  0  0  0  3  0  0  0  0  0  0
  185.7240  179.4630  143.7330 C   0  0  0  0  0  3  0  0  0  0  0  0
  184.7520  177.5260  142.6530 C   0  0  0  0  0  3  0  0  0  0  0  0
  185.9090  176.7920  142.9270 C   0  0  0  0  0  3  0  0  0  0  0  0
  189.1300  176.4650  142.7730 N   0  0  0  0  0  0  0  0  0  0  0  0
  189.9150  177.5710  142.4160 N   0  0  0  0  0  1  0  0  0  0  0  0
  187.9230  175.0430  139.7980 O   0  0  0  0  0  0  0  0  0  0  0  0
  189.2110  175.2610  141.9890 C   0  0  0  0  0  0  0  0  0  0  0  0
  188.5480  175.1480  140.8610 C   0  0  0  0  0  0  0  0  0  0  0  0
  190.4300  173.3730  144.8060 C   0  0  0  0  0  3  0  0  0  0  0  0
  192.7090  174.3160  144.9300 C   0  0  0  0  0  2  0  0  0  0  0  0
  191.3560  174.5820  142.9420 N   0  0  0  0  0  0  0  0  0  0  0  0
  192.3830  175.1250  142.0660 C   0  0  0  0  0  1  0  0  0  0  0  0
  191.5710  174.1440  144.2710 C   0  0  0  0  0  0  0  0  0  0  0  0
  190.0640  174.1170  142.4730 C   0  0  1  0  0  3  0  0  0  0  0  0
  189.4100  173.3940  143.6620 C   0  0  0  0  0  3  0  0  0  0  0  0
  188.9010  176.7950  145.2570 C   0  0  0  0  0  2  0  0  0  0  0  0
  188.2830  176.1500  146.5060 C   0  0  2  0  0  3  0  0  0  0  0  0
  187.3710  177.1210  147.2480 C   0  0  0  0  0  2  0  0  0  0  0  0
  185.0670  178.0690  147.1270 C   0  0  0  0  0  1  0  0  0  0  0  0
  185.9050  176.8100  146.9970 C   0  0  0  0  0  2  0  0  0  0  0  0
  189.2980  175.5960  147.3890 N   0  0  0  0  0  2  0  0  0  0  0  0
  191.1780  176.5790  148.3390 O   0  0  0  0  0  1  0  0  0  0  0  0
  190.5300  176.3230  147.1320 C   0  0  0  0  0  2  0  0  0  0  0  0
  1 20  1  1  0  0  0
  2  5  1  0  0  0  0
  3  1  1  0  0  0  0
  3  4  1  0  0  0  0
  5  4  2  0  0  0  0
  6  7  1  0  0  0  0
  6  2  2  0  0  0  0
  7  3  2  0  0  0  0
  8  1  1  0  0  0  0
  9  8  1  0  0  0  0
 10 12  2  0  0  0  0
 11  8  1  0  0  0  0
 12 11  2  0  0  0  0
 15 17  1  0  0  0  0
 16 15  1  0  0  0  0
 17 13  1  0  0  0  0
 17 14  2  0  0  0  0
 18 11  1  1  0  0  0
 18 15  1  0  0  0  0
 18 19  1  0  0  0  0
 19 13  2  0  0  0  0
 21 20  1  6  0  0  0
 21 22  1  0  0  0  0
 21 25  1  0  0  0  0
 24 23  1  0  0  0  0
 24 22  1  0  0  0  0
 27 25  1  0  0  0  0
 27 26  1  0  0  0  0
M  END
>  <MODEL>
9

>  <REMARK>
 VINA RESULT:      -5.6      2.396      4.357
  Name = 
  10 active torsions:
  status: ('A' for Active; 'I' for Inactive)
    1  A    between atoms: C_1  and  C_15
    2  A    between atoms: C_1  and  C_18
    3  A    between atoms: N_2  and  C_14
    4  A    between atoms: N_2  and  C_15
    5  A    between atoms: C_9  and  C_15
    6  A    between atoms: C_14  and  C_17
    7  A    between atoms: C_18  and  C_24
    8  A    between atoms: C_18  and  N_26
    9  A    between atoms: C_20  and  N_26
   10  A    between atoms: C_22  and  C_24
                            x       y       z     vdW  Elec       q    Type
                         _______ _______ _______ _____ _____    ______ ____

>  <TORSDO>
F 10

$$$$
