=
 OpenBabel11052417333D

 25 29  0  0  0  0  0  0  0  0999 V2000
  185.7880  178.0440  143.7930 C   0  0  0  0  0  0  0  0  0  0  0  0
  186.6370  177.9120  144.9080 C   0  0  0  0  0  0  0  0  0  0  0  0
  183.9700  178.7220  145.2500 C   0  0  0  0  0  3  0  0  0  0  0  0
  186.0760  177.8190  142.4330 C   0  0  0  0  0  0  0  0  0  0  0  0
  186.2640  177.4800  139.6650 C   0  0  0  0  0  3  0  0  0  0  0  0
  184.8000  178.5920  146.3230 N   0  0  0  0  0  0  0  0  0  0  0  0
  184.9790  178.0530  141.6050 C   0  0  0  0  0  0  0  0  0  0  0  0
  185.0460  177.8910  140.2240 C   0  0  0  0  0  3  0  0  0  0  0  0
  186.9190  178.0790  147.3240 C   0  0  0  0  0  0  0  0  0  0  0  0
  186.4140  178.3560  148.5900 O   0  0  0  0  0  1  0  0  0  0  0  0
  187.9740  177.5110  144.7920 C   0  0  0  0  0  3  0  0  0  0  0  0
  187.3810  177.2390  140.4860 C   0  0  0  0  0  3  0  0  0  0  0  0
  184.4690  178.4470  143.9840 C   0  0  0  0  0  0  0  0  0  0  0  0
  183.6450  178.5340  142.5160 S   0  0  0  0  0  0  0  0  0  0  0  0
  188.2500  177.6780  147.1870 C   0  0  0  0  0  3  0  0  0  0  0  0
  187.2920  177.4080  141.8770 C   0  0  0  0  0  3  0  0  0  0  0  0
  188.7920  177.3900  145.9250 C   0  0  0  0  0  0  0  0  0  0  0  0
  186.1030  178.1990  146.1910 C   0  0  0  0  0  0  0  0  0  0  0  0
  192.1630  176.5460  144.4030 C   0  0  0  0  0  0  0  0  0  0  0  0
  190.2050  176.9650  145.7890 C   0  0  0  0  0  0  0  0  0  0  0  0
  190.8300  176.9460  144.5310 C   0  0  0  0  0  3  0  0  0  0  0  0
  192.7820  176.5320  143.1220 N   0  0  0  0  0  1  0  0  0  0  0  0
  190.9460  176.5720  146.9180 C   0  0  0  0  0  3  0  0  0  0  0  0
  192.8870  176.1580  145.5330 C   0  0  0  0  0  3  0  0  0  0  0  0
  192.2780  176.1720  146.7900 C   0  0  0  0  0  3  0  0  0  0  0  0
  1 13  1  0  0  0  0
  1  2  2  0  0  0  0
  2 18  1  0  0  0  0
  3  6  1  0  0  0  0
  4  1  1  0  0  0  0
  5  8  2  0  0  0  0
  5 12  1  0  0  0  0
  7  4  2  0  0  0  0
  7 14  1  0  0  0  0
  8  7  1  0  0  0  0
  9 10  1  0  0  0  0
 11  2  1  0  0  0  0
 11 17  2  0  0  0  0
 12 16  2  0  0  0  0
 13  3  2  0  0  0  0
 14 13  1  0  0  0  0
 15  9  2  0  0  0  0
 16  4  1  0  0  0  0
 17 15  1  0  0  0  0
 18  6  2  0  0  0  0
 18  9  1  0  0  0  0
 19 21  2  0  0  0  0
 19 24  1  0  0  0  0
 20 17  1  0  0  0  0
 20 23  2  0  0  0  0
 21 20  1  0  0  0  0
 22 19  1  0  0  0  0
 24 25  2  0  0  0  0
 25 23  1  0  0  0  0
M  END
>  <MODEL>
1

>  <REMARK>
 VINA RESULT:      -8.5      0.000      0.000
  Name = 
  1 active torsions:
  status: ('A' for Active; 'I' for Inactive)
    1  A    between atoms: C_6  and  C_23
                            x       y       z     vdW  Elec       q    Type
                         _______ _______ _______ _____ _____    ______ ____

>  <TORSDO>
F 1

$$$$
=
 OpenBabel11052417333D

 25 29  0  0  0  0  0  0  0  0999 V2000
  186.4840  177.7520  143.7960 C   0  0  0  0  0  0  0  0  0  0  0  0
  185.7320  177.8220  142.6080 C   0  0  0  0  0  0  0  0  0  0  0  0
  188.4950  177.3270  142.5070 C   0  0  0  0  0  3  0  0  0  0  0  0
  186.0460  177.9000  145.1270 C   0  0  0  0  0  0  0  0  0  0  0  0
  185.5640  178.1310  147.8700 C   0  0  0  0  0  3  0  0  0  0  0  0
  187.7590  177.3970  141.3620 N   0  0  0  0  0  0  0  0  0  0  0  0
  187.0820  177.7650  146.0510 C   0  0  0  0  0  0  0  0  0  0  0  0
  186.8680  177.8760  147.4220 C   0  0  0  0  0  3  0  0  0  0  0  0
  185.6970  177.6980  140.1730 C   0  0  0  0  0  0  0  0  0  0  0  0
  186.3460  177.5190  138.9560 O   0  0  0  0  0  1  0  0  0  0  0  0
  184.3530  178.0650  142.6030 C   0  0  0  0  0  3  0  0  0  0  0  0
  184.5080  178.2690  146.9510 C   0  0  0  0  0  3  0  0  0  0  0  0
  187.8520  177.5060  143.7240 C   0  0  0  0  0  0  0  0  0  0  0  0
  188.5400  177.4650  145.2630 S   0  0  0  0  0  0  0  0  0  0  0  0
  184.3220  177.9430  140.1890 C   0  0  0  0  0  3  0  0  0  0  0  0
  184.7450  178.1540  145.5720 C   0  0  0  0  0  3  0  0  0  0  0  0
  183.6360  178.1280  141.4000 C   0  0  0  0  0  0  0  0  0  0  0  0
  186.4130  177.6360  141.3760 C   0  0  0  0  0  0  0  0  0  0  0  0
  179.9870  178.1790  140.3620 C   0  0  0  0  0  0  0  0  0  0  0  0
  182.1760  178.3870  141.4080 C   0  0  0  0  0  0  0  0  0  0  0  0
  181.3640  177.9350  140.3540 C   0  0  0  0  0  3  0  0  0  0  0  0
  179.1770  177.7160  139.2880 N   0  0  0  0  0  1  0  0  0  0  0  0
  181.5790  179.0900  142.4690 C   0  0  0  0  0  3  0  0  0  0  0  0
  179.4070  178.8790  141.4220 C   0  0  0  0  0  3  0  0  0  0  0  0
  180.2040  179.3330  142.4760 C   0  0  0  0  0  3  0  0  0  0  0  0
  1  4  1  0  0  0  0
  2  1  1  0  0  0  0
  3 13  1  0  0  0  0
  4 16  2  0  0  0  0
  4  7  1  0  0  0  0
  6 18  1  0  0  0  0
  6  3  2  0  0  0  0
  7  8  2  0  0  0  0
  8  5  1  0  0  0  0
  9 15  2  0  0  0  0
  9 18  1  0  0  0  0
 10  9  1  0  0  0  0
 11  2  1  0  0  0  0
 12  5  2  0  0  0  0
 13  1  2  0  0  0  0
 13 14  1  0  0  0  0
 14  7  1  0  0  0  0
 15 17  1  0  0  0  0
 16 12  1  0  0  0  0
 17 20  1  0  0  0  0
 17 11  2  0  0  0  0
 18  2  2  0  0  0  0
 19 24  1  0  0  0  0
 20 23  2  0  0  0  0
 21 19  2  0  0  0  0
 21 20  1  0  0  0  0
 22 19  1  0  0  0  0
 23 25  1  0  0  0  0
 24 25  2  0  0  0  0
M  END
>  <MODEL>
2

>  <REMARK>
 VINA RESULT:      -8.4      3.823      8.246
  Name = 
  1 active torsions:
  status: ('A' for Active; 'I' for Inactive)
    1  A    between atoms: C_6  and  C_23
                            x       y       z     vdW  Elec       q    Type
                         _______ _______ _______ _____ _____    ______ ____

>  <TORSDO>
F 1

$$$$
=
 OpenBabel11052417333D

 25 29  0  0  0  0  0  0  0  0999 V2000
  190.5820  175.1830  143.7300 C   0  0  0  0  0  0  0  0  0  0  0  0
  190.0280  175.9080  144.8020 C   0  0  0  0  0  0  0  0  0  0  0  0
  192.6780  174.9860  144.9380 C   0  0  0  0  0  3  0  0  0  0  0  0
  189.9830  174.8160  142.5100 C   0  0  0  0  0  0  0  0  0  0  0  0
  189.1470  173.9120  140.0000 C   0  0  0  0  0  3  0  0  0  0  0  0
  192.1320  175.6890  145.9710 N   0  0  0  0  0  0  0  0  0  0  0  0
  190.8440  174.0950  141.6830 C   0  0  0  0  0  0  0  0  0  0  0  0
  190.4530  173.6340  140.4300 C   0  0  0  0  0  3  0  0  0  0  0  0
  190.3280  176.8710  147.0220 C   0  0  0  0  0  0  0  0  0  0  0  0
  191.1130  177.1200  148.1420 O   0  0  0  0  0  1  0  0  0  0  0  0
  188.7130  176.3890  144.7840 C   0  0  0  0  0  3  0  0  0  0  0  0
  188.2660  174.6380  140.8220 C   0  0  0  0  0  3  0  0  0  0  0  0
  191.8970  174.7350  143.8170 C   0  0  0  0  0  0  0  0  0  0  0  0
  192.3430  173.8950  142.4250 S   0  0  0  0  0  0  0  0  0  0  0  0
  189.0130  177.3420  146.9850 C   0  0  0  0  0  3  0  0  0  0  0  0
  188.6800  175.0950  142.0830 C   0  0  0  0  0  3  0  0  0  0  0  0
  188.1930  177.1090  145.8700 C   0  0  0  0  0  0  0  0  0  0  0  0
  190.8460  176.1520  145.9360 C   0  0  0  0  0  0  0  0  0  0  0  0
  184.8030  178.2320  144.5910 C   0  0  0  0  0  0  0  0  0  0  0  0
  186.8000  177.6130  145.8400 C   0  0  0  0  0  0  0  0  0  0  0  0
  186.1170  177.7560  144.6200 C   0  0  0  0  0  3  0  0  0  0  0  0
  184.1240  178.3720  143.3490 N   0  0  0  0  0  1  0  0  0  0  0  0
  186.1370  177.9580  147.0310 C   0  0  0  0  0  3  0  0  0  0  0  0
  184.1570  178.5710  145.7820 C   0  0  0  0  0  3  0  0  0  0  0  0
  184.8240  178.4340  147.0020 C   0  0  0  0  0  3  0  0  0  0  0  0
  1 13  1  0  0  0  0
  1  2  2  0  0  0  0
  2 18  1  0  0  0  0
  3  6  1  0  0  0  0
  4  1  1  0  0  0  0
  5  8  2  0  0  0  0
  5 12  1  0  0  0  0
  7 14  1  0  0  0  0
  7  4  2  0  0  0  0
  8  7  1  0  0  0  0
  9 10  1  0  0  0  0
 11  2  1  0  0  0  0
 11 17  2  0  0  0  0
 12 16  2  0  0  0  0
 13  3  2  0  0  0  0
 14 13  1  0  0  0  0
 15  9  2  0  0  0  0
 16  4  1  0  0  0  0
 17 15  1  0  0  0  0
 18  6  2  0  0  0  0
 18  9  1  0  0  0  0
 19 21  2  0  0  0  0
 19 24  1  0  0  0  0
 20 17  1  0  0  0  0
 20 23  2  0  0  0  0
 21 20  1  0  0  0  0
 22 19  1  0  0  0  0
 24 25  2  0  0  0  0
 25 23  1  0  0  0  0
M  END
>  <MODEL>
3

>  <REMARK>
 VINA RESULT:      -8.1      3.078      6.092
  Name = 
  1 active torsions:
  status: ('A' for Active; 'I' for Inactive)
    1  A    between atoms: C_6  and  C_23
                            x       y       z     vdW  Elec       q    Type
                         _______ _______ _______ _____ _____    ______ ____

>  <TORSDO>
F 1

$$$$
=
 OpenBabel11052417333D

 25 29  0  0  0  0  0  0  0  0999 V2000
  186.1560  177.5460  143.6240 C   0  0  0  0  0  0  0  0  0  0  0  0
  186.8840  176.6900  142.7760 C   0  0  0  0  0  0  0  0  0  0  0  0
  185.1910  178.6500  141.6890 C   0  0  0  0  0  3  0  0  0  0  0  0
  186.1350  177.5860  145.0310 C   0  0  0  0  0  0  0  0  0  0  0  0
  185.8290  177.9700  147.7830 C   0  0  0  0  0  3  0  0  0  0  0  0
  185.9000  177.8150  140.8780 N   0  0  0  0  0  0  0  0  0  0  0  0
  185.2890  178.5770  145.5280 C   0  0  0  0  0  0  0  0  0  0  0  0
  185.1190  178.7890  146.8930 C   0  0  0  0  0  3  0  0  0  0  0  0
  187.4420  176.0160  140.5010 C   0  0  0  0  0  0  0  0  0  0  0  0
  187.3070  176.1590  139.1240 O   0  0  0  0  0  1  0  0  0  0  0  0
  187.7410  175.6970  143.2670 C   0  0  0  0  0  3  0  0  0  0  0  0
  186.6870  176.9660  147.2980 C   0  0  0  0  0  3  0  0  0  0  0  0
  185.3230  178.5110  143.0650 C   0  0  0  0  0  0  0  0  0  0  0  0
  184.5570  179.4160  144.2640 S   0  0  0  0  0  0  0  0  0  0  0  0
  188.2920  175.0310  141.0100 C   0  0  0  0  0  3  0  0  0  0  0  0
  186.8440  176.7690  145.9170 C   0  0  0  0  0  3  0  0  0  0  0  0
  188.4510  174.8600  142.3940 C   0  0  0  0  0  0  0  0  0  0  0  0
  186.7320  176.8510  141.3740 C   0  0  0  0  0  0  0  0  0  0  0  0
  190.3940  171.6190  142.7300 C   0  0  0  0  0  0  0  0  0  0  0  0
  189.3550  173.8130  142.9250 C   0  0  0  0  0  0  0  0  0  0  0  0
  189.5410  172.6070  142.2280 C   0  0  0  0  0  3  0  0  0  0  0  0
  190.5730  170.4040  142.0130 N   0  0  0  0  0  1  0  0  0  0  0  0
  190.0410  174.0070  144.1370 C   0  0  0  0  0  3  0  0  0  0  0  0
  191.0700  171.8250  143.9340 C   0  0  0  0  0  3  0  0  0  0  0  0
  190.8940  173.0190  144.6380 C   0  0  0  0  0  3  0  0  0  0  0  0
  1  4  1  0  0  0  0
  2 11  1  0  0  0  0
  2  1  1  0  0  0  0
  3 13  1  0  0  0  0
  4  7  2  0  0  0  0
  4 16  1  0  0  0  0
  6 18  1  0  0  0  0
  6  3  2  0  0  0  0
  7  8  1  0  0  0  0
  8  5  2  0  0  0  0
  9 15  2  0  0  0  0
  9 18  1  0  0  0  0
 10  9  1  0  0  0  0
 12  5  1  0  0  0  0
 13  1  2  0  0  0  0
 13 14  1  0  0  0  0
 14  7  1  0  0  0  0
 15 17  1  0  0  0  0
 16 12  2  0  0  0  0
 17 20  1  0  0  0  0
 17 11  2  0  0  0  0
 18  2  2  0  0  0  0
 19 24  1  0  0  0  0
 20 23  2  0  0  0  0
 21 19  2  0  0  0  0
 21 20  1  0  0  0  0
 22 19  1  0  0  0  0
 23 25  1  0  0  0  0
 24 25  2  0  0  0  0
M  END
>  <MODEL>
4

>  <REMARK>
 VINA RESULT:      -7.9      3.612      5.188
  Name = 
  1 active torsions:
  status: ('A' for Active; 'I' for Inactive)
    1  A    between atoms: C_6  and  C_23
                            x       y       z     vdW  Elec       q    Type
                         _______ _______ _______ _____ _____    ______ ____

>  <TORSDO>
F 1

$$$$
=
 OpenBabel11052417333D

 25 29  0  0  0  0  0  0  0  0999 V2000
  185.9630  177.4810  143.8880 C   0  0  0  0  0  0  0  0  0  0  0  0
  186.8570  176.7350  143.0980 C   0  0  0  0  0  0  0  0  0  0  0  0
  184.8400  178.2670  141.8850 C   0  0  0  0  0  3  0  0  0  0  0  0
  185.9090  177.5950  145.2910 C   0  0  0  0  0  0  0  0  0  0  0  0
  185.4850  178.0670  148.0130 C   0  0  0  0  0  3  0  0  0  0  0  0
  185.7110  177.5410  141.1290 N   0  0  0  0  0  0  0  0  0  0  0  0
  184.8790  178.4310  145.7220 C   0  0  0  0  0  0  0  0  0  0  0  0
  184.6470  178.6820  147.0710 C   0  0  0  0  0  3  0  0  0  0  0  0
  187.5760  176.0550  140.8700 C   0  0  0  0  0  0  0  0  0  0  0  0
  187.4420  176.0910  139.4860 O   0  0  0  0  0  1  0  0  0  0  0  0
  187.8800  175.9550  143.6520 C   0  0  0  0  0  3  0  0  0  0  0  0
  186.5280  177.2220  147.5940 C   0  0  0  0  0  3  0  0  0  0  0  0
  184.9700  178.2340  143.2680 C   0  0  0  0  0  0  0  0  0  0  0  0
  184.0230  179.0410  144.4060 S   0  0  0  0  0  0  0  0  0  0  0  0
  188.5900  175.2820  141.4420 C   0  0  0  0  0  3  0  0  0  0  0  0
  186.7460  176.9810  146.2280 C   0  0  0  0  0  3  0  0  0  0  0  0
  188.7540  175.2230  142.8350 C   0  0  0  0  0  0  0  0  0  0  0  0
  186.7040  176.7850  141.6880 C   0  0  0  0  0  0  0  0  0  0  0  0
  192.0360  174.2250  144.4540 C   0  0  0  0  0  0  0  0  0  0  0  0
  189.8320  174.4010  143.4330 C   0  0  0  0  0  0  0  0  0  0  0  0
  191.0190  175.0000  143.8890 C   0  0  0  0  0  3  0  0  0  0  0  0
  193.2320  174.8440  144.9110 N   0  0  0  0  0  1  0  0  0  0  0  0
  189.6870  173.0080  143.5550 C   0  0  0  0  0  3  0  0  0  0  0  0
  191.8780  172.8420  144.5680 C   0  0  0  0  0  3  0  0  0  0  0  0
  190.7040  172.2340  144.1190 C   0  0  0  0  0  3  0  0  0  0  0  0
  1  4  1  0  0  0  0
  2 11  1  0  0  0  0
  2  1  1  0  0  0  0
  3 13  1  0  0  0  0
  4  7  2  0  0  0  0
  4 16  1  0  0  0  0
  6 18  1  0  0  0  0
  6  3  2  0  0  0  0
  7  8  1  0  0  0  0
  8  5  2  0  0  0  0
  9 15  2  0  0  0  0
  9 18  1  0  0  0  0
 10  9  1  0  0  0  0
 12  5  1  0  0  0  0
 13  1  2  0  0  0  0
 13 14  1  0  0  0  0
 14  7  1  0  0  0  0
 15 17  1  0  0  0  0
 16 12  2  0  0  0  0
 17 20  1  0  0  0  0
 17 11  2  0  0  0  0
 18  2  2  0  0  0  0
 19 24  1  0  0  0  0
 19 22  1  0  0  0  0
 20 23  2  0  0  0  0
 20 21  1  0  0  0  0
 21 19  2  0  0  0  0
 23 25  1  0  0  0  0
 25 24  2  0  0  0  0
M  END
>  <MODEL>
5

>  <REMARK>
 VINA RESULT:      -7.8      3.045      4.783
  Name = 
  1 active torsions:
  status: ('A' for Active; 'I' for Inactive)
    1  A    between atoms: C_6  and  C_23
                            x       y       z     vdW  Elec       q    Type
                         _______ _______ _______ _____ _____    ______ ____

>  <TORSDO>
F 1

$$$$
=
 OpenBabel11052417333D

 25 29  0  0  0  0  0  0  0  0999 V2000
  190.5590  175.5510  144.0340 C   0  0  0  0  0  0  0  0  0  0  0  0
  189.3480  175.8550  143.3840 C   0  0  0  0  0  0  0  0  0  0  0  0
  191.3530  174.4200  142.0390 C   0  0  0  0  0  3  0  0  0  0  0  0
  190.9620  175.8700  145.3450 C   0  0  0  0  0  0  0  0  0  0  0  0
  192.1050  176.3120  147.8580 C   0  0  0  0  0  3  0  0  0  0  0  0
  190.1770  174.7210  141.4180 N   0  0  0  0  0  0  0  0  0  0  0  0
  192.2400  175.3990  145.6450 C   0  0  0  0  0  0  0  0  0  0  0  0
  192.8320  175.6060  146.8880 C   0  0  0  0  0  3  0  0  0  0  0  0
  187.9890  175.7030  141.3660 C   0  0  0  0  0  0  0  0  0  0  0  0
  187.8060  175.2820  140.0540 O   0  0  0  0  0  1  0  0  0  0  0  0
  188.3180  176.5680  144.0100 C   0  0  0  0  0  3  0  0  0  0  0  0
  190.8140  176.7930  147.5710 C   0  0  0  0  0  3  0  0  0  0  0  0
  191.5400  174.8390  143.3500 C   0  0  0  0  0  0  0  0  0  0  0  0
  192.8950  174.5900  144.3210 S   0  0  0  0  0  0  0  0  0  0  0  0
  186.9720  176.4150  142.0080 C   0  0  0  0  0  3  0  0  0  0  0  0
  190.2350  176.5740  146.3110 C   0  0  0  0  0  3  0  0  0  0  0  0
  187.1240  176.8550  143.3320 C   0  0  0  0  0  0  0  0  0  0  0  0
  189.1810  175.4170  142.0450 C   0  0  0  0  0  0  0  0  0  0  0  0
  184.9800  178.4240  146.0410 C   0  0  0  0  0  0  0  0  0  0  0  0
  186.0400  177.6090  144.0050 C   0  0  0  0  0  0  0  0  0  0  0  0
  186.0020  177.7120  145.4060 C   0  0  0  0  0  3  0  0  0  0  0  0
  184.9550  178.5200  147.4600 N   0  0  0  0  0  1  0  0  0  0  0  0
  185.0300  178.2350  143.2540 C   0  0  0  0  0  3  0  0  0  0  0  0
  183.9830  179.0410  145.2810 C   0  0  0  0  0  3  0  0  0  0  0  0
  184.0080  178.9460  143.8880 C   0  0  0  0  0  3  0  0  0  0  0  0
  1  4  1  0  0  0  0
  2 11  1  0  0  0  0
  2  1  1  0  0  0  0
  3 13  1  0  0  0  0
  4  7  2  0  0  0  0
  4 16  1  0  0  0  0
  6  3  2  0  0  0  0
  6 18  1  0  0  0  0
  7  8  1  0  0  0  0
  8  5  2  0  0  0  0
  9 15  2  0  0  0  0
  9 18  1  0  0  0  0
 10  9  1  0  0  0  0
 12  5  1  0  0  0  0
 13  1  2  0  0  0  0
 13 14  1  0  0  0  0
 14  7  1  0  0  0  0
 15 17  1  0  0  0  0
 16 12  2  0  0  0  0
 17 20  1  0  0  0  0
 17 11  2  0  0  0  0
 18  2  2  0  0  0  0
 19 22  1  0  0  0  0
 20 21  2  0  0  0  0
 21 19  1  0  0  0  0
 23 25  2  0  0  0  0
 23 20  1  0  0  0  0
 24 19  2  0  0  0  0
 25 24  1  0  0  0  0
M  END
>  <MODEL>
6

>  <REMARK>
 VINA RESULT:      -7.7      3.180      7.460
  Name = 
  1 active torsions:
  status: ('A' for Active; 'I' for Inactive)
    1  A    between atoms: C_6  and  C_23
                            x       y       z     vdW  Elec       q    Type
                         _______ _______ _______ _____ _____    ______ ____

>  <TORSDO>
F 1

$$$$
=
 OpenBabel11052417333D

 25 29  0  0  0  0  0  0  0  0999 V2000
  186.3490  177.2290  144.9280 C   0  0  0  0  0  0  0  0  0  0  0  0
  187.4970  176.4180  144.8430 C   0  0  0  0  0  0  0  0  0  0  0  0
  186.6640  177.4350  147.3260 C   0  0  0  0  0  3  0  0  0  0  0  0
  185.4850  177.6450  143.8970 C   0  0  0  0  0  0  0  0  0  0  0  0
  183.5650  178.6660  142.1410 C   0  0  0  0  0  3  0  0  0  0  0  0
  187.7740  176.6490  147.2330 N   0  0  0  0  0  0  0  0  0  0  0  0
  184.4440  178.4490  144.3610 C   0  0  0  0  0  0  0  0  0  0  0  0
  183.4750  178.9700  143.5080 C   0  0  0  0  0  3  0  0  0  0  0  0
  189.3530  175.3340  145.9940 C   0  0  0  0  0  0  0  0  0  0  0  0
  190.0620  175.0480  147.1560 O   0  0  0  0  0  1  0  0  0  0  0  0
  187.9540  175.8860  143.6310 C   0  0  0  0  0  3  0  0  0  0  0  0
  184.6080  177.8570  141.6580 C   0  0  0  0  0  3  0  0  0  0  0  0
  185.9530  177.7230  146.1680 C   0  0  0  0  0  0  0  0  0  0  0  0
  184.5610  178.6630  146.0280 S   0  0  0  0  0  0  0  0  0  0  0  0
  189.7930  174.8140  144.7750 C   0  0  0  0  0  3  0  0  0  0  0  0
  185.5760  177.3410  142.5350 C   0  0  0  0  0  3  0  0  0  0  0  0
  189.1020  175.0820  143.5830 C   0  0  0  0  0  0  0  0  0  0  0  0
  188.2060  176.1380  146.0400 C   0  0  0  0  0  0  0  0  0  0  0  0
  189.1190  173.7440  140.0330 C   0  0  0  0  0  0  0  0  0  0  0  0
  189.5760  174.5250  142.2940 C   0  0  0  0  0  0  0  0  0  0  0  0
  188.6720  174.2700  141.2490 C   0  0  0  0  0  3  0  0  0  0  0  0
  188.1930  173.4910  138.9840 N   0  0  0  0  0  1  0  0  0  0  0  0
  190.9380  174.2410  142.0950 C   0  0  0  0  0  3  0  0  0  0  0  0
  190.4760  173.4670  139.8490 C   0  0  0  0  0  3  0  0  0  0  0  0
  191.3850  173.7160  140.8790 C   0  0  0  0  0  3  0  0  0  0  0  0
  1 13  1  0  0  0  0
  2  1  2  0  0  0  0
  2 18  1  0  0  0  0
  4  7  1  0  0  0  0
  4  1  1  0  0  0  0
  5  8  1  0  0  0  0
  6  3  1  0  0  0  0
  7 14  1  0  0  0  0
  8  7  2  0  0  0  0
  9 18  1  0  0  0  0
  9 10  1  0  0  0  0
 11  2  1  0  0  0  0
 12  5  2  0  0  0  0
 12 16  1  0  0  0  0
 13  3  2  0  0  0  0
 14 13  1  0  0  0  0
 15  9  2  0  0  0  0
 16  4  2  0  0  0  0
 17 11  2  0  0  0  0
 17 15  1  0  0  0  0
 18  6  2  0  0  0  0
 19 21  1  0  0  0  0
 20 17  1  0  0  0  0
 21 20  2  0  0  0  0
 22 19  1  0  0  0  0
 23 20  1  0  0  0  0
 24 19  2  0  0  0  0
 24 25  1  0  0  0  0
 25 23  2  0  0  0  0
M  END
>  <MODEL>
7

>  <REMARK>
 VINA RESULT:      -7.5      3.013      4.135
  Name = 
  1 active torsions:
  status: ('A' for Active; 'I' for Inactive)
    1  A    between atoms: C_6  and  C_23
                            x       y       z     vdW  Elec       q    Type
                         _______ _______ _______ _____ _____    ______ ____

>  <TORSDO>
F 1

$$$$
=
 OpenBabel11052417333D

 25 29  0  0  0  0  0  0  0  0999 V2000
  187.2730  176.9130  144.8690 C   0  0  0  0  0  0  0  0  0  0  0  0
  188.2190  175.9950  144.3750 C   0  0  0  0  0  0  0  0  0  0  0  0
  188.4760  177.0280  146.9740 C   0  0  0  0  0  3  0  0  0  0  0  0
  186.1350  177.4380  144.2280 C   0  0  0  0  0  0  0  0  0  0  0  0
  183.8130  178.6860  143.2970 C   0  0  0  0  0  3  0  0  0  0  0  0
  189.3860  176.1390  146.4860 N   0  0  0  0  0  0  0  0  0  0  0  0
  185.4270  178.3290  145.0340 C   0  0  0  0  0  0  0  0  0  0  0  0
  184.2690  178.9640  144.5950 C   0  0  0  0  0  3  0  0  0  0  0  0
  190.2500  174.7050  144.7690 C   0  0  0  0  0  0  0  0  0  0  0  0
  191.3070  174.3220  145.5870 O   0  0  0  0  0  1  0  0  0  0  0  0
  188.1370  175.4500  143.0880 C   0  0  0  0  0  3  0  0  0  0  0  0
  184.5160  177.7890  142.4720 C   0  0  0  0  0  3  0  0  0  0  0  0
  187.4180  177.4130  146.1600 C   0  0  0  0  0  0  0  0  0  0  0  0
  186.1760  178.4900  146.5340 S   0  0  0  0  0  0  0  0  0  0  0  0
  190.1520  174.1730  143.4800 C   0  0  0  0  0  3  0  0  0  0  0  0
  185.6820  177.1590  142.9340 C   0  0  0  0  0  3  0  0  0  0  0  0
  189.0980  174.5370  142.6280 C   0  0  0  0  0  0  0  0  0  0  0  0
  189.2900  175.6170  145.2270 C   0  0  0  0  0  0  0  0  0  0  0  0
  188.3100  174.1620  138.9350 C   0  0  0  0  0  0  0  0  0  0  0  0
  189.0000  173.9680  141.2630 C   0  0  0  0  0  0  0  0  0  0  0  0
  188.4020  174.6990  140.2230 C   0  0  0  0  0  3  0  0  0  0  0  0
  187.7020  174.9140  137.8930 N   0  0  0  0  0  1  0  0  0  0  0  0
  189.5040  172.6850  140.9850 C   0  0  0  0  0  3  0  0  0  0  0  0
  188.8150  172.8860  138.6740 C   0  0  0  0  0  3  0  0  0  0  0  0
  189.4120  172.1480  139.6980 C   0  0  0  0  0  3  0  0  0  0  0  0
  1 13  1  0  0  0  0
  2  1  2  0  0  0  0
  2 18  1  0  0  0  0
  4  1  1  0  0  0  0
  4  7  1  0  0  0  0
  5  8  1  0  0  0  0
  6  3  1  0  0  0  0
  7 14  1  0  0  0  0
  8  7  2  0  0  0  0
  9 18  1  0  0  0  0
  9 10  1  0  0  0  0
 11  2  1  0  0  0  0
 12 16  1  0  0  0  0
 12  5  2  0  0  0  0
 13 14  1  0  0  0  0
 13  3  2  0  0  0  0
 15  9  2  0  0  0  0
 16  4  2  0  0  0  0
 17 11  2  0  0  0  0
 17 15  1  0  0  0  0
 18  6  2  0  0  0  0
 19 21  1  0  0  0  0
 20 17  1  0  0  0  0
 21 20  2  0  0  0  0
 22 19  1  0  0  0  0
 23 20  1  0  0  0  0
 24 19  2  0  0  0  0
 24 25  1  0  0  0  0
 25 23  2  0  0  0  0
M  END
>  <MODEL>
8

>  <REMARK>
 VINA RESULT:      -7.5      3.535      5.271
  Name = 
  1 active torsions:
  status: ('A' for Active; 'I' for Inactive)
    1  A    between atoms: C_6  and  C_23
                            x       y       z     vdW  Elec       q    Type
                         _______ _______ _______ _____ _____    ______ ____

>  <TORSDO>
F 1

$$$$
=
 OpenBabel11052417333D

 25 29  0  0  0  0  0  0  0  0999 V2000
  187.7980  177.5410  144.5770 C   0  0  0  0  0  0  0  0  0  0  0  0
  189.0780  177.1780  145.0340 C   0  0  0  0  0  0  0  0  0  0  0  0
  187.0610  177.8510  146.8680 C   0  0  0  0  0  3  0  0  0  0  0  0
  187.3250  177.6290  143.2530 C   0  0  0  0  0  0  0  0  0  0  0  0
  186.0350  177.9160  140.7900 C   0  0  0  0  0  3  0  0  0  0  0  0
  188.3050  177.4980  147.3010 N   0  0  0  0  0  0  0  0  0  0  0  0
  185.9900  178.0230  143.1840 C   0  0  0  0  0  0  0  0  0  0  0  0
  185.3240  178.1730  141.9710 C   0  0  0  0  0  3  0  0  0  0  0  0
  190.5710  176.8080  146.9260 C   0  0  0  0  0  0  0  0  0  0  0  0
  190.8170  176.7890  148.2940 O   0  0  0  0  0  1  0  0  0  0  0  0
  190.1190  176.8340  144.1620 C   0  0  0  0  0  3  0  0  0  0  0  0
  187.3830  177.5170  140.8420 C   0  0  0  0  0  3  0  0  0  0  0  0
  186.8120  177.8710  145.5020 C   0  0  0  0  0  0  0  0  0  0  0  0
  185.3670  178.2700  144.7300 S   0  0  0  0  0  0  0  0  0  0  0  0
  191.5960  176.4690  146.0390 C   0  0  0  0  0  3  0  0  0  0  0  0
  188.0360  177.3710  142.0760 C   0  0  0  0  0  3  0  0  0  0  0  0
  191.3840  176.4770  144.6520 C   0  0  0  0  0  0  0  0  0  0  0  0
  189.3080  177.1650  146.4340 C   0  0  0  0  0  0  0  0  0  0  0  0
  194.8470  176.0410  143.1670 C   0  0  0  0  0  0  0  0  0  0  0  0
  192.4770  176.1150  143.7190 C   0  0  0  0  0  0  0  0  0  0  0  0
  193.8160  176.3820  144.0470 C   0  0  0  0  0  3  0  0  0  0  0  0
  196.1990  176.3170  143.5130 N   0  0  0  0  0  1  0  0  0  0  0  0
  192.1920  175.4990  142.4870 C   0  0  0  0  0  3  0  0  0  0  0  0
  194.5500  175.4290  141.9470 C   0  0  0  0  0  3  0  0  0  0  0  0
  193.2230  175.1570  141.6080 C   0  0  0  0  0  3  0  0  0  0  0  0
  1  2  2  0  0  0  0
  1 13  1  0  0  0  0
  2 18  1  0  0  0  0
  3  6  1  0  0  0  0
  4  1  1  0  0  0  0
  5 12  2  0  0  0  0
  5  8  1  0  0  0  0
  7  4  1  0  0  0  0
  7 14  1  0  0  0  0
  8  7  2  0  0  0  0
  9 10  1  0  0  0  0
 11 17  2  0  0  0  0
 11  2  1  0  0  0  0
 12 16  1  0  0  0  0
 13  3  2  0  0  0  0
 14 13  1  0  0  0  0
 15  9  2  0  0  0  0
 16  4  2  0  0  0  0
 17 15  1  0  0  0  0
 18  9  1  0  0  0  0
 18  6  2  0  0  0  0
 19 22  1  0  0  0  0
 19 21  1  0  0  0  0
 20 21  2  0  0  0  0
 20 17  1  0  0  0  0
 23 20  1  0  0  0  0
 24 19  2  0  0  0  0
 25 24  1  0  0  0  0
 25 23  2  0  0  0  0
M  END
>  <MODEL>
9

>  <REMARK>
 VINA RESULT:      -7.5      2.068      3.168
  Name = 
  1 active torsions:
  status: ('A' for Active; 'I' for Inactive)
    1  A    between atoms: C_6  and  C_23
                            x       y       z     vdW  Elec       q    Type
                         _______ _______ _______ _____ _____    ______ ____

>  <TORSDO>
F 1

$$$$
