=
 OpenBabel11052417303D

 25 28  0  0  1  0  0  0  0  0999 V2000
  185.9510  177.9190  143.9180 C   0  0  0  0  0  0  0  0  0  0  0  0
  186.7580  177.4340  142.8690 C   0  0  0  0  0  0  0  0  0  0  0  0
  184.1690  178.3880  142.3390 C   0  0  0  0  0  3  0  0  0  0  0  0
  186.2510  178.0320  145.2910 C   0  0  0  0  0  0  0  0  0  0  0  0
  186.4740  178.4140  148.0530 C   0  0  0  0  0  3  0  0  0  0  0  0
  184.9460  177.8890  141.3400 N   0  0  0  0  0  0  0  0  0  0  0  0
  185.2050  178.5860  146.0270 C   0  0  0  0  0  0  0  0  0  0  0  0
  185.2900  178.7880  147.4020 C   0  0  0  0  0  3  0  0  0  0  0  0
  186.9530  176.7700  140.4550 C   0  0  0  0  0  0  0  0  0  0  0  0
  186.6040  177.0940  139.0430 C   0  0  0  0  0  1  0  0  0  0  0  0
  188.4690  176.9200  143.1170 S   0  0  0  0  0  0  0  0  0  0  0  0
  187.5390  177.8510  147.3270 C   0  0  0  0  0  3  0  0  0  0  0  0
  184.6720  178.3910  143.6320 C   0  0  0  0  0  0  0  0  0  0  0  0
  183.9010  178.9460  145.0250 S   0  0  0  0  0  0  0  0  0  0  0  0
  187.9000  175.9090  140.6850 N   0  0  0  0  0  0  0  0  0  0  0  0
  187.4320  177.6570  145.9420 C   0  0  0  0  0  3  0  0  0  0  0  0
  188.2660  175.4730  142.0310 C   0  0  1  0  0  3  0  0  0  0  0  0
  186.2060  177.4040  141.5650 C   0  0  0  0  0  0  0  0  0  0  0  0
  189.5430  174.6440  141.9910 C   0  0  0  0  0  2  0  0  0  0  0  0
  189.4190  173.5060  142.7910 O   0  0  0  0  0  0  0  0  0  0  0  0
  190.4310  173.6340  143.7440 C   0  0  0  0  0  2  0  0  0  0  0  0
  189.8520  173.5150  145.1580 C   0  0  0  0  0  2  0  0  0  0  0  0
  189.6570  174.8000  145.8460 N   0  0  0  0  0  0  0  0  0  0  0  0
  189.2200  174.5700  147.2160 C   0  0  0  0  0  1  0  0  0  0  0  0
  190.9030  175.5550  145.8820 C   0  0  0  0  0  1  0  0  0  0  0  0
  1  4  1  0  0  0  0
  2 11  1  0  0  0  0
  2  1  1  0  0  0  0
  3 13  1  0  0  0  0
  4 16  2  0  0  0  0
  4  7  1  0  0  0  0
  6 18  1  0  0  0  0
  6  3  2  0  0  0  0
  7  8  2  0  0  0  0
  8  5  1  0  0  0  0
  9 15  2  0  0  0  0
  9 18  1  0  0  0  0
 10  9  1  0  0  0  0
 12  5  2  0  0  0  0
 13  1  2  0  0  0  0
 13 14  1  0  0  0  0
 14  7  1  0  0  0  0
 15 17  1  0  0  0  0
 16 12  1  0  0  0  0
 17 19  1  6  0  0  0
 17 11  1  0  0  0  0
 18  2  2  0  0  0  0
 19 20  1  0  0  0  0
 20 21  1  0  0  0  0
 21 22  1  0  0  0  0
 22 23  1  0  0  0  0
 23 25  1  0  0  0  0
 23 24  1  0  0  0  0
M  END
>  <MODEL>
1

>  <REMARK>
 VINA RESULT:      -6.6      0.000      0.000
  Name = 
  5 active torsions:
  status: ('A' for Active; 'I' for Inactive)
    1  A    between atoms: N_2  and  C_21
    2  A    between atoms: C_6  and  O_15
    3  A    between atoms: C_6  and  C_23
    4  A    between atoms: O_15  and  C_25
    5  A    between atoms: C_21  and  C_25
                            x       y       z     vdW  Elec       q    Type
                         _______ _______ _______ _____ _____    ______ ____

>  <TORSDO>
F 5

$$$$
=
 OpenBabel11052417303D

 25 28  0  0  1  0  0  0  0  0999 V2000
  186.8500  177.6730  144.7040 C   0  0  0  0  0  0  0  0  0  0  0  0
  188.1940  177.2640  144.8240 C   0  0  0  0  0  0  0  0  0  0  0  0
  186.6980  177.8950  147.1160 C   0  0  0  0  0  3  0  0  0  0  0  0
  186.0630  177.8120  143.5440 C   0  0  0  0  0  0  0  0  0  0  0  0
  184.2010  178.1980  141.4910 C   0  0  0  0  0  3  0  0  0  0  0  0
  188.0050  177.5290  147.2160 N   0  0  0  0  0  0  0  0  0  0  0  0
  184.7580  178.2170  143.8230 C   0  0  0  0  0  0  0  0  0  0  0  0
  183.8120  178.4140  142.8210 C   0  0  0  0  0  3  0  0  0  0  0  0
  190.2100  176.9500  146.2880 C   0  0  0  0  0  0  0  0  0  0  0  0
  190.7320  176.4960  147.6070 C   0  0  0  0  0  1  0  0  0  0  0  0
  189.1760  176.7290  143.4090 S   0  0  0  0  0  0  0  0  0  0  0  0
  185.5140  177.7920  141.1900 C   0  0  0  0  0  3  0  0  0  0  0  0
  186.1250  177.9760  145.8550 C   0  0  0  0  0  0  0  0  0  0  0  0
  184.5400  178.4110  145.4810 S   0  0  0  0  0  0  0  0  0  0  0  0
  191.0480  177.1180  145.3070 N   0  0  0  0  0  0  0  0  0  0  0  0
  186.4520  177.5980  142.2170 C   0  0  0  0  0  3  0  0  0  0  0  0
  190.6450  177.6280  143.9980 C   0  0  1  0  0  3  0  0  0  0  0  0
  188.7660  177.2280  146.1190 C   0  0  0  0  0  0  0  0  0  0  0  0
  191.7910  177.5000  143.0030 C   0  0  0  0  0  2  0  0  0  0  0  0
  192.0590  176.1570  142.7260 O   0  0  0  0  0  0  0  0  0  0  0  0
  193.4520  176.0710  142.7240 C   0  0  0  0  0  2  0  0  0  0  0  0
  193.9440  175.3400  143.9790 C   0  0  0  0  0  2  0  0  0  0  0  0
  195.0820  175.9840  144.6510 N   0  0  0  0  0  0  0  0  0  0  0  0
  196.0270  176.4830  143.6630 C   0  0  0  0  0  1  0  0  0  0  0  0
  194.6290  177.1060  145.4620 C   0  0  0  0  0  1  0  0  0  0  0  0
  1  2  2  0  0  0  0
  1 13  1  0  0  0  0
  2 18  1  0  0  0  0
  3  6  1  0  0  0  0
  4  7  1  0  0  0  0
  4  1  1  0  0  0  0
  5  8  1  0  0  0  0
  7 14  1  0  0  0  0
  8  7  2  0  0  0  0
  9 10  1  0  0  0  0
 11 17  1  0  0  0  0
 11  2  1  0  0  0  0
 12  5  2  0  0  0  0
 12 16  1  0  0  0  0
 13  3  2  0  0  0  0
 14 13  1  0  0  0  0
 15  9  2  0  0  0  0
 16  4  2  0  0  0  0
 17 19  1  6  0  0  0
 17 15  1  0  0  0  0
 18  9  1  0  0  0  0
 18  6  2  0  0  0  0
 20 19  1  0  0  0  0
 21 20  1  0  0  0  0
 21 22  1  0  0  0  0
 22 23  1  0  0  0  0
 23 25  1  0  0  0  0
 24 23  1  0  0  0  0
M  END
>  <MODEL>
2

>  <REMARK>
 VINA RESULT:      -6.5      2.689      4.951
  Name = 
  5 active torsions:
  status: ('A' for Active; 'I' for Inactive)
    1  A    between atoms: N_2  and  C_21
    2  A    between atoms: C_6  and  O_15
    3  A    between atoms: C_6  and  C_23
    4  A    between atoms: O_15  and  C_25
    5  A    between atoms: C_21  and  C_25
                            x       y       z     vdW  Elec       q    Type
                         _______ _______ _______ _____ _____    ______ ____

>  <TORSDO>
F 5

$$$$
=
 OpenBabel11052417303D

 25 28  0  0  1  0  0  0  0  0999 V2000
  186.7640  177.7200  144.6830 C   0  0  0  0  0  0  0  0  0  0  0  0
  188.0980  177.2840  144.8130 C   0  0  0  0  0  0  0  0  0  0  0  0
  186.6160  178.0060  147.0880 C   0  0  0  0  0  3  0  0  0  0  0  0
  185.9800  177.8480  143.5180 C   0  0  0  0  0  0  0  0  0  0  0  0
  184.1280  178.2240  141.4560 C   0  0  0  0  0  3  0  0  0  0  0  0
  187.9140  177.6140  147.1980 N   0  0  0  0  0  0  0  0  0  0  0  0
  184.6850  178.2890  143.7860 C   0  0  0  0  0  0  0  0  0  0  0  0
  183.7440  178.4820  142.7790 C   0  0  0  0  0  3  0  0  0  0  0  0
  190.1060  176.9620  146.2870 C   0  0  0  0  0  0  0  0  0  0  0  0
  190.6170  176.5300  147.6170 C   0  0  0  0  0  1  0  0  0  0  0  0
  189.0680  176.6920  143.4130 S   0  0  0  0  0  0  0  0  0  0  0  0
  185.4320  177.7820  141.1660 C   0  0  0  0  0  3  0  0  0  0  0  0
  186.0460  178.0690  145.8250 C   0  0  0  0  0  0  0  0  0  0  0  0
  184.4710  178.5290  145.4390 S   0  0  0  0  0  0  0  0  0  0  0  0
  190.9480  177.0860  145.3020 N   0  0  0  0  0  0  0  0  0  0  0  0
  186.3640  177.5930  142.1970 C   0  0  0  0  0  3  0  0  0  0  0  0
  190.5570  177.5720  143.9800 C   0  0  1  0  0  3  0  0  0  0  0  0
  188.6690  177.2680  146.1100 C   0  0  0  0  0  0  0  0  0  0  0  0
  191.7000  177.3940  142.9910 C   0  0  0  0  0  2  0  0  0  0  0  0
  192.7120  176.6030  143.5400 O   0  0  0  0  0  0  0  0  0  0  0  0
  192.9460  175.6160  142.5810 C   0  0  0  0  0  2  0  0  0  0  0  0
  192.1520  174.3490  142.9140 C   0  0  0  0  0  2  0  0  0  0  0  0
  192.1850  173.9630  144.3330 N   0  0  0  0  0  0  0  0  0  0  0  0
  190.8630  173.5340  144.7630 C   0  0  0  0  0  1  0  0  0  0  0  0
  193.1160  172.8620  144.5410 C   0  0  0  0  0  1  0  0  0  0  0  0
  1  2  2  0  0  0  0
  1 13  1  0  0  0  0
  2 18  1  0  0  0  0
  3  6  1  0  0  0  0
  4  7  1  0  0  0  0
  4  1  1  0  0  0  0
  5  8  1  0  0  0  0
  7 14  1  0  0  0  0
  8  7  2  0  0  0  0
  9 10  1  0  0  0  0
 11 17  1  0  0  0  0
 11  2  1  0  0  0  0
 12  5  2  0  0  0  0
 12 16  1  0  0  0  0
 13  3  2  0  0  0  0
 14 13  1  0  0  0  0
 15  9  2  0  0  0  0
 16  4  2  0  0  0  0
 17 19  1  6  0  0  0
 17 15  1  0  0  0  0
 18  9  1  0  0  0  0
 18  6  2  0  0  0  0
 19 20  1  0  0  0  0
 21 22  1  0  0  0  0
 21 20  1  0  0  0  0
 22 23  1  0  0  0  0
 23 25  1  0  0  0  0
 23 24  1  0  0  0  0
M  END
>  <MODEL>
3

>  <REMARK>
 VINA RESULT:      -6.3      2.458      4.569
  Name = 
  5 active torsions:
  status: ('A' for Active; 'I' for Inactive)
    1  A    between atoms: N_2  and  C_21
    2  A    between atoms: C_6  and  O_15
    3  A    between atoms: C_6  and  C_23
    4  A    between atoms: O_15  and  C_25
    5  A    between atoms: C_21  and  C_25
                            x       y       z     vdW  Elec       q    Type
                         _______ _______ _______ _____ _____    ______ ____

>  <TORSDO>
F 5

$$$$
=
 OpenBabel11052417303D

 25 28  0  0  1  0  0  0  0  0999 V2000
  187.0790  177.5740  144.6870 C   0  0  0  0  0  0  0  0  0  0  0  0
  188.4020  177.1060  144.8140 C   0  0  0  0  0  0  0  0  0  0  0  0
  186.9470  177.8740  147.0920 C   0  0  0  0  0  3  0  0  0  0  0  0
  186.2940  177.7170  143.5250 C   0  0  0  0  0  0  0  0  0  0  0  0
  184.4440  178.1310  141.4670 C   0  0  0  0  0  3  0  0  0  0  0  0
  188.2360  177.4500  147.1980 N   0  0  0  0  0  0  0  0  0  0  0  0
  185.0110  178.1910  143.7960 C   0  0  0  0  0  0  0  0  0  0  0  0
  184.0710  178.4040  142.7910 C   0  0  0  0  0  3  0  0  0  0  0  0
  190.4080  176.7400  146.2810 C   0  0  0  0  0  0  0  0  0  0  0  0
  190.9130  176.3010  147.6110 C   0  0  0  0  0  1  0  0  0  0  0  0
  189.3520  176.4850  143.4120 S   0  0  0  0  0  0  0  0  0  0  0  0
  185.7350  177.6550  141.1750 C   0  0  0  0  0  3  0  0  0  0  0  0
  186.3740  177.9460  145.8300 C   0  0  0  0  0  0  0  0  0  0  0  0
  184.8090  178.4440  145.4480 S   0  0  0  0  0  0  0  0  0  0  0  0
  191.2480  176.8390  145.2930 N   0  0  0  0  0  0  0  0  0  0  0  0
  186.6670  177.4470  142.2030 C   0  0  0  0  0  3  0  0  0  0  0  0
  190.8640  177.3290  143.9710 C   0  0  1  0  0  3  0  0  0  0  0  0
  188.9770  177.0810  146.1080 C   0  0  0  0  0  0  0  0  0  0  0  0
  191.9990  177.1190  142.9770 C   0  0  0  0  0  2  0  0  0  0  0  0
  192.6640  175.9170  143.2320 O   0  0  0  0  0  0  0  0  0  0  0  0
  193.8510  176.0120  142.5050 C   0  0  0  0  0  2  0  0  0  0  0  0
  195.0560  176.0620  143.4520 C   0  0  0  0  0  2  0  0  0  0  0  0
  196.2670  176.6540  142.8650 N   0  0  0  0  0  0  0  0  0  0  0  0
  197.4200  175.8130  143.1500 C   0  0  0  0  0  1  0  0  0  0  0  0
  196.1300  176.7710  141.4200 C   0  0  0  0  0  1  0  0  0  0  0  0
  1  2  2  0  0  0  0
  1 13  1  0  0  0  0
  2 18  1  0  0  0  0
  3  6  1  0  0  0  0
  4  7  1  0  0  0  0
  4  1  1  0  0  0  0
  5  8  1  0  0  0  0
  7 14  1  0  0  0  0
  8  7  2  0  0  0  0
  9 10  1  0  0  0  0
 11 17  1  0  0  0  0
 11  2  1  0  0  0  0
 12  5  2  0  0  0  0
 12 16  1  0  0  0  0
 13  3  2  0  0  0  0
 14 13  1  0  0  0  0
 15  9  2  0  0  0  0
 16  4  2  0  0  0  0
 17 19  1  6  0  0  0
 17 15  1  0  0  0  0
 18  9  1  0  0  0  0
 18  6  2  0  0  0  0
 19 20  1  0  0  0  0
 21 20  1  0  0  0  0
 21 22  1  0  0  0  0
 23 24  1  0  0  0  0
 23 22  1  0  0  0  0
 25 23  1  0  0  0  0
M  END
>  <MODEL>
4

>  <REMARK>
 VINA RESULT:      -6.3      3.267      5.361
  Name = 
  5 active torsions:
  status: ('A' for Active; 'I' for Inactive)
    1  A    between atoms: N_2  and  C_21
    2  A    between atoms: C_6  and  O_15
    3  A    between atoms: C_6  and  C_23
    4  A    between atoms: O_15  and  C_25
    5  A    between atoms: C_21  and  C_25
                            x       y       z     vdW  Elec       q    Type
                         _______ _______ _______ _____ _____    ______ ____

>  <TORSDO>
F 5

$$$$
=
 OpenBabel11052417303D

 25 28  0  0  1  0  0  0  0  0999 V2000
  186.9190  177.0600  143.4010 C   0  0  0  0  0  0  0  0  0  0  0  0
  188.1690  176.4610  143.6540 C   0  0  0  0  0  0  0  0  0  0  0  0
  187.1180  176.4940  141.0490 C   0  0  0  0  0  3  0  0  0  0  0  0
  186.0480  177.7120  144.2960 C   0  0  0  0  0  0  0  0  0  0  0  0
  184.0810  179.0690  145.7510 C   0  0  0  0  0  3  0  0  0  0  0  0
  188.3090  175.8900  141.3120 N   0  0  0  0  0  0  0  0  0  0  0  0
  184.9040  178.2070  143.6710 C   0  0  0  0  0  0  0  0  0  0  0  0
  183.9110  178.8870  144.3720 C   0  0  0  0  0  3  0  0  0  0  0  0
  190.0850  175.0730  142.8090 C   0  0  0  0  0  0  0  0  0  0  0  0
  191.0130  174.7910  141.6790 C   0  0  0  0  0  1  0  0  0  0  0  0
  188.9590  176.5080  145.2750 S   0  0  0  0  0  0  0  0  0  0  0  0
  185.2270  178.5750  146.3990 C   0  0  0  0  0  3  0  0  0  0  0  0
  186.4190  177.0690  142.1000 C   0  0  0  0  0  0  0  0  0  0  0  0
  184.9320  177.8610  142.0240 S   0  0  0  0  0  0  0  0  0  0  0  0
  190.3750  174.6110  143.9890 N   0  0  0  0  0  0  0  0  0  0  0  0
  186.2160  177.8930  145.6740 C   0  0  0  0  0  3  0  0  0  0  0  0
  189.4940  174.7740  145.1440 C   0  0  1  0  0  3  0  0  0  0  0  0
  188.8430  175.8440  142.5710 C   0  0  0  0  0  0  0  0  0  0  0  0
  190.2020  174.3290  146.4170 C   0  0  0  0  0  2  0  0  0  0  0  0
  190.0490  175.2820  147.4270 O   0  0  0  0  0  0  0  0  0  0  0  0
  191.3340  175.4570  147.9420 C   0  0  0  0  0  2  0  0  0  0  0  0
  192.3860  175.0800  146.8930 C   0  0  0  0  0  2  0  0  0  0  0  0
  193.2820  176.1790  146.5060 N   0  0  0  0  0  0  0  0  0  0  0  0
  194.6380  175.6790  146.3310 C   0  0  0  0  0  1  0  0  0  0  0  0
  192.8460  176.7750  145.2500 C   0  0  0  0  0  1  0  0  0  0  0  0
  1  2  1  0  0  0  0
  1  4  1  0  0  0  0
  2 11  1  0  0  0  0
  3  6  2  0  0  0  0
  3 13  1  0  0  0  0
  4 16  1  0  0  0  0
  5 12  1  0  0  0  0
  6 18  1  0  0  0  0
  7  4  2  0  0  0  0
  7  8  1  0  0  0  0
  8  5  2  0  0  0  0
  9 15  2  0  0  0  0
 10  9  1  0  0  0  0
 13  1  2  0  0  0  0
 14 13  1  0  0  0  0
 14  7  1  0  0  0  0
 15 17  1  0  0  0  0
 16 12  2  0  0  0  0
 17 11  1  0  0  0  0
 17 19  1  1  0  0  0
 18  9  1  0  0  0  0
 18  2  2  0  0  0  0
 19 20  1  0  0  0  0
 20 21  1  0  0  0  0
 22 21  1  0  0  0  0
 23 22  1  0  0  0  0
 24 23  1  0  0  0  0
 25 23  1  0  0  0  0
M  END
>  <MODEL>
5

>  <REMARK>
 VINA RESULT:      -6.2      2.051      3.567
  Name = 
  5 active torsions:
  status: ('A' for Active; 'I' for Inactive)
    1  A    between atoms: N_2  and  C_21
    2  A    between atoms: C_6  and  O_15
    3  A    between atoms: C_6  and  C_23
    4  A    between atoms: O_15  and  C_25
    5  A    between atoms: C_21  and  C_25
                            x       y       z     vdW  Elec       q    Type
                         _______ _______ _______ _____ _____    ______ ____

>  <TORSDO>
F 5

$$$$
=
 OpenBabel11052417303D

 25 28  0  0  1  0  0  0  0  0999 V2000
  185.9350  177.8950  143.8360 C   0  0  0  0  0  0  0  0  0  0  0  0
  186.7320  177.3920  142.7880 C   0  0  0  0  0  0  0  0  0  0  0  0
  184.1910  178.4600  142.2450 C   0  0  0  0  0  3  0  0  0  0  0  0
  186.2240  177.9770  145.2120 C   0  0  0  0  0  0  0  0  0  0  0  0
  186.4330  178.3120  147.9820 C   0  0  0  0  0  3  0  0  0  0  0  0
  184.9580  177.9430  141.2470 N   0  0  0  0  0  0  0  0  0  0  0  0
  185.1940  178.5640  145.9460 C   0  0  0  0  0  0  0  0  0  0  0  0
  185.2730  178.7440  147.3240 C   0  0  0  0  0  3  0  0  0  0  0  0
  186.9260  176.7540  140.3670 C   0  0  0  0  0  0  0  0  0  0  0  0
  186.6060  177.1100  138.9560 C   0  0  0  0  0  1  0  0  0  0  0  0
  188.4170  176.8030  143.0460 S   0  0  0  0  0  0  0  0  0  0  0  0
  187.4810  177.7150  147.2600 C   0  0  0  0  0  3  0  0  0  0  0  0
  184.6800  178.4250  143.5430 C   0  0  0  0  0  0  0  0  0  0  0  0
  183.9170  178.9930  144.9350 S   0  0  0  0  0  0  0  0  0  0  0  0
  187.8340  175.8510  140.5950 N   0  0  0  0  0  0  0  0  0  0  0  0
  187.3810  177.5440  145.8700 C   0  0  0  0  0  3  0  0  0  0  0  0
  188.1670  175.3810  141.9380 C   0  0  1  0  0  3  0  0  0  0  0  0
  186.1940  177.4030  141.4780 C   0  0  0  0  0  0  0  0  0  0  0  0
  189.4080  174.5000  141.9000 C   0  0  0  0  0  2  0  0  0  0  0  0
  189.4790  173.6950  143.0390 O   0  0  0  0  0  0  0  0  0  0  0  0
  190.8170  173.7560  143.4300 C   0  0  0  0  0  2  0  0  0  0  0  0
  191.6230  174.6120  142.4460 C   0  0  0  0  0  2  0  0  0  0  0  0
  192.6650  175.4410  143.0700 N   0  0  0  0  0  0  0  0  0  0  0  0
  192.3110  176.8480  142.9630 C   0  0  0  0  0  1  0  0  0  0  0  0
  192.8040  175.1080  144.4810 C   0  0  0  0  0  1  0  0  0  0  0  0
  1  4  1  0  0  0  0
  2 11  1  0  0  0  0
  2  1  1  0  0  0  0
  3 13  1  0  0  0  0
  4 16  2  0  0  0  0
  4  7  1  0  0  0  0
  6 18  1  0  0  0  0
  6  3  2  0  0  0  0
  7  8  2  0  0  0  0
  8  5  1  0  0  0  0
  9 15  2  0  0  0  0
  9 18  1  0  0  0  0
 10  9  1  0  0  0  0
 12  5  2  0  0  0  0
 13  1  2  0  0  0  0
 13 14  1  0  0  0  0
 14  7  1  0  0  0  0
 15 17  1  0  0  0  0
 16 12  1  0  0  0  0
 17 19  1  6  0  0  0
 17 11  1  0  0  0  0
 18  2  2  0  0  0  0
 19 20  1  0  0  0  0
 20 21  1  0  0  0  0
 22 23  1  0  0  0  0
 22 21  1  0  0  0  0
 23 25  1  0  0  0  0
 24 23  1  0  0  0  0
M  END
>  <MODEL>
6

>  <REMARK>
 VINA RESULT:      -6.1      1.273      1.651
  Name = 
  5 active torsions:
  status: ('A' for Active; 'I' for Inactive)
    1  A    between atoms: N_2  and  C_21
    2  A    between atoms: C_6  and  O_15
    3  A    between atoms: C_6  and  C_23
    4  A    between atoms: O_15  and  C_25
    5  A    between atoms: C_21  and  C_25
                            x       y       z     vdW  Elec       q    Type
                         _______ _______ _______ _____ _____    ______ ____

>  <TORSDO>
F 5

$$$$
=
 OpenBabel11052417303D

 25 28  0  0  1  0  0  0  0  0999 V2000
  192.4010  176.3330  144.8490 C   0  0  0  0  0  0  0  0  0  0  0  0
  191.0160  176.4580  144.6190 C   0  0  0  0  0  0  0  0  0  0  0  0
  192.0180  176.4220  147.2440 C   0  0  0  0  0  3  0  0  0  0  0  0
  193.4510  176.2340  143.9140 C   0  0  0  0  0  0  0  0  0  0  0  0
  195.7830  176.0250  142.3820 C   0  0  0  0  0  3  0  0  0  0  0  0
  190.6810  176.5100  147.0100 N   0  0  0  0  0  0  0  0  0  0  0  0
  194.7050  176.1510  144.5190 C   0  0  0  0  0  0  0  0  0  0  0  0
  195.8800  176.0480  143.7800 C   0  0  0  0  0  3  0  0  0  0  0  0
  188.6890  176.4980  145.5630 C   0  0  0  0  0  0  0  0  0  0  0  0
  187.7970  176.9760  146.6560 C   0  0  0  0  0  1  0  0  0  0  0  0
  190.3150  176.6080  142.9640 S   0  0  0  0  0  0  0  0  0  0  0  0
  194.5270  176.1050  141.7540 C   0  0  0  0  0  3  0  0  0  0  0  0
  192.8770  176.3220  146.1580 C   0  0  0  0  0  0  0  0  0  0  0  0
  194.5580  176.1950  146.1960 S   0  0  0  0  0  0  0  0  0  0  0  0
  188.1510  176.0470  144.4680 N   0  0  0  0  0  0  0  0  0  0  0  0
  193.3550  176.2100  142.5180 C   0  0  0  0  0  3  0  0  0  0  0  0
  188.9370  175.4900  143.3690 C   0  0  1  0  0  3  0  0  0  0  0  0
  190.1580  176.5160  145.7450 C   0  0  0  0  0  0  0  0  0  0  0  0
  188.0540  175.2580  142.1500 C   0  0  0  0  0  2  0  0  0  0  0  0
  186.8730  175.9990  142.2460 O   0  0  0  0  0  0  0  0  0  0  0  0
  187.0280  177.0270  141.3140 C   0  0  0  0  0  2  0  0  0  0  0  0
  185.7990  177.9440  141.3220 C   0  0  0  0  0  2  0  0  0  0  0  0
  185.1090  178.0260  142.6170 N   0  0  0  0  0  0  0  0  0  0  0  0
  185.6680  179.1100  143.4110 C   0  0  0  0  0  1  0  0  0  0  0  0
  183.6880  178.2850  142.4230 C   0  0  0  0  0  1  0  0  0  0  0  0
  1 13  1  0  0  0  0
  2  1  2  0  0  0  0
  2 18  1  0  0  0  0
  4  7  1  0  0  0  0
  4  1  1  0  0  0  0
  5  8  1  0  0  0  0
  6  3  1  0  0  0  0
  7 14  1  0  0  0  0
  8  7  2  0  0  0  0
  9 18  1  0  0  0  0
  9 10  1  0  0  0  0
 11 17  1  0  0  0  0
 11  2  1  0  0  0  0
 12  5  2  0  0  0  0
 12 16  1  0  0  0  0
 13 14  1  0  0  0  0
 13  3  2  0  0  0  0
 15  9  2  0  0  0  0
 16  4  2  0  0  0  0
 17 19  1  6  0  0  0
 17 15  1  0  0  0  0
 18  6  2  0  0  0  0
 19 20  1  0  0  0  0
 21 22  1  0  0  0  0
 21 20  1  0  0  0  0
 22 23  1  0  0  0  0
 23 24  1  0  0  0  0
 25 23  1  0  0  0  0
M  END
>  <MODEL>
7

>  <REMARK>
 VINA RESULT:      -5.9      3.091      7.395
  Name = 
  5 active torsions:
  status: ('A' for Active; 'I' for Inactive)
    1  A    between atoms: N_2  and  C_21
    2  A    between atoms: C_6  and  O_15
    3  A    between atoms: C_6  and  C_23
    4  A    between atoms: O_15  and  C_25
    5  A    between atoms: C_21  and  C_25
                            x       y       z     vdW  Elec       q    Type
                         _______ _______ _______ _____ _____    ______ ____

>  <TORSDO>
F 5

$$$$
=
 OpenBabel11052417303D

 25 28  0  0  1  0  0  0  0  0999 V2000
  186.0200  177.8560  143.8050 C   0  0  0  0  0  0  0  0  0  0  0  0
  186.7980  177.3250  142.7560 C   0  0  0  0  0  0  0  0  0  0  0  0
  184.3210  178.5340  142.2090 C   0  0  0  0  0  3  0  0  0  0  0  0
  186.3020  177.9030  145.1850 C   0  0  0  0  0  0  0  0  0  0  0  0
  186.5060  178.1880  147.9600 C   0  0  0  0  0  3  0  0  0  0  0  0
  185.0670  177.9910  141.2100 N   0  0  0  0  0  0  0  0  0  0  0  0
  185.2990  178.5340  145.9190 C   0  0  0  0  0  0  0  0  0  0  0  0
  185.3760  178.6900  147.3000 C   0  0  0  0  0  3  0  0  0  0  0  0
  186.9760  176.7110  140.3270 C   0  0  0  0  0  0  0  0  0  0  0  0
  186.6880  177.1030  138.9200 C   0  0  0  0  0  1  0  0  0  0  0  0
  188.4470  176.6450  143.0180 S   0  0  0  0  0  0  0  0  0  0  0  0
  187.5270  177.5460  147.2370 C   0  0  0  0  0  3  0  0  0  0  0  0
  184.7970  178.4550  143.5100 C   0  0  0  0  0  0  0  0  0  0  0  0
  184.0540  179.0430  144.9050 S   0  0  0  0  0  0  0  0  0  0  0  0
  187.8340  175.7580  140.5490 N   0  0  0  0  0  0  0  0  0  0  0  0
  187.4290  177.4000  145.8450 C   0  0  0  0  0  3  0  0  0  0  0  0
  188.1300  175.2530  141.8880 C   0  0  1  0  0  3  0  0  0  0  0  0
  186.2710  177.3830  141.4420 C   0  0  0  0  0  0  0  0  0  0  0  0
  189.3240  174.3080  141.8460 C   0  0  0  0  0  2  0  0  0  0  0  0
  188.9000  172.9790  141.7690 O   0  0  0  0  0  0  0  0  0  0  0  0
  189.9620  172.3070  141.1620 C   0  0  0  0  0  2  0  0  0  0  0  0
  190.7820  173.2720  140.2990 C   0  0  0  0  0  2  0  0  0  0  0  0
  190.8380  172.9160  138.8730 N   0  0  0  0  0  0  0  0  0  0  0  0
  189.5900  173.2810  138.2200 C   0  0  0  0  0  1  0  0  0  0  0  0
  191.9260  173.6240  138.2120 C   0  0  0  0  0  1  0  0  0  0  0  0
  1  4  1  0  0  0  0
  2 11  1  0  0  0  0
  2  1  1  0  0  0  0
  3 13  1  0  0  0  0
  4 16  2  0  0  0  0
  4  7  1  0  0  0  0
  6 18  1  0  0  0  0
  6  3  2  0  0  0  0
  7  8  2  0  0  0  0
  8  5  1  0  0  0  0
  9 15  2  0  0  0  0
  9 18  1  0  0  0  0
 10  9  1  0  0  0  0
 12  5  2  0  0  0  0
 13  1  2  0  0  0  0
 13 14  1  0  0  0  0
 14  7  1  0  0  0  0
 15 17  1  0  0  0  0
 16 12  1  0  0  0  0
 17 19  1  6  0  0  0
 17 11  1  0  0  0  0
 18  2  2  0  0  0  0
 20 19  1  0  0  0  0
 21 20  1  0  0  0  0
 22 21  1  0  0  0  0
 23 22  1  0  0  0  0
 24 23  1  0  0  0  0
 25 23  1  0  0  0  0
M  END
>  <MODEL>
8

>  <REMARK>
 VINA RESULT:      -5.8      1.781      3.070
  Name = 
  5 active torsions:
  status: ('A' for Active; 'I' for Inactive)
    1  A    between atoms: N_2  and  C_21
    2  A    between atoms: C_6  and  O_15
    3  A    between atoms: C_6  and  C_23
    4  A    between atoms: O_15  and  C_25
    5  A    between atoms: C_21  and  C_25
                            x       y       z     vdW  Elec       q    Type
                         _______ _______ _______ _____ _____    ______ ____

>  <TORSDO>
F 5

$$$$
=
 OpenBabel11052417303D

 25 28  0  0  1  0  0  0  0  0999 V2000
  186.7750  176.9960  144.0480 C   0  0  0  0  0  0  0  0  0  0  0  0
  187.9690  176.3100  144.3440 C   0  0  0  0  0  0  0  0  0  0  0  0
  186.2720  177.1540  146.4170 C   0  0  0  0  0  3  0  0  0  0  0  0
  186.2360  177.3430  142.7920 C   0  0  0  0  0  0  0  0  0  0  0  0
  184.8580  178.1890  140.5090 C   0  0  0  0  0  3  0  0  0  0  0  0
  187.4430  176.5180  146.6910 N   0  0  0  0  0  0  0  0  0  0  0  0
  185.0120  178.0020  142.8940 C   0  0  0  0  0  0  0  0  0  0  0  0
  184.3050  178.4320  141.7740 C   0  0  0  0  0  3  0  0  0  0  0  0
  189.6090  175.5230  146.0760 C   0  0  0  0  0  0  0  0  0  0  0  0
  189.8020  174.9200  147.4240 C   0  0  0  0  0  1  0  0  0  0  0  0
  189.0450  175.6340  143.0630 S   0  0  0  0  0  0  0  0  0  0  0  0
  186.0940  177.5280  140.3870 C   0  0  0  0  0  3  0  0  0  0  0  0
  185.9450  177.4020  145.0910 C   0  0  0  0  0  0  0  0  0  0  0  0
  184.5650  178.1750  144.5080 S   0  0  0  0  0  0  0  0  0  0  0  0
  190.6150  175.5480  145.2510 N   0  0  0  0  0  0  0  0  0  0  0  0
  186.7890  177.1020  141.5290 C   0  0  0  0  0  3  0  0  0  0  0  0
  190.5460  176.1800  143.9350 C   0  0  1  0  0  3  0  0  0  0  0  0
  188.2990  176.1050  145.7070 C   0  0  0  0  0  0  0  0  0  0  0  0
  191.7920  175.8520  143.1240 C   0  0  0  0  0  2  0  0  0  0  0  0
  191.4550  175.1680  141.9530 O   0  0  0  0  0  0  0  0  0  0  0  0
  192.2860  174.0470  141.9510 C   0  0  0  0  0  2  0  0  0  0  0  0
  191.5060  172.8050  141.5050 C   0  0  0  0  0  2  0  0  0  0  0  0
  190.6990  172.1800  142.5630 N   0  0  0  0  0  0  0  0  0  0  0  0
  190.4110  170.7950  142.2170 C   0  0  0  0  0  1  0  0  0  0  0  0
  191.4170  172.1970  143.8300 C   0  0  0  0  0  1  0  0  0  0  0  0
  1  2  2  0  0  0  0
  1 13  1  0  0  0  0
  2 18  1  0  0  0  0
  3  6  1  0  0  0  0
  4  7  1  0  0  0  0
  4  1  1  0  0  0  0
  5  8  1  0  0  0  0
  7 14  1  0  0  0  0
  8  7  2  0  0  0  0
  9 10  1  0  0  0  0
 11 17  1  0  0  0  0
 11  2  1  0  0  0  0
 12  5  2  0  0  0  0
 12 16  1  0  0  0  0
 13  3  2  0  0  0  0
 14 13  1  0  0  0  0
 15  9  2  0  0  0  0
 16  4  2  0  0  0  0
 17 19  1  6  0  0  0
 17 15  1  0  0  0  0
 18  9  1  0  0  0  0
 18  6  2  0  0  0  0
 20 19  1  0  0  0  0
 21 20  1  0  0  0  0
 22 21  1  0  0  0  0
 22 23  1  0  0  0  0
 23 25  1  0  0  0  0
 24 23  1  0  0  0  0
M  END
>  <MODEL>
9

>  <REMARK>
 VINA RESULT:      -5.8      2.201      4.707
  Name = 
  5 active torsions:
  status: ('A' for Active; 'I' for Inactive)
    1  A    between atoms: N_2  and  C_21
    2  A    between atoms: C_6  and  O_15
    3  A    between atoms: C_6  and  C_23
    4  A    between atoms: O_15  and  C_25
    5  A    between atoms: C_21  and  C_25
                            x       y       z     vdW  Elec       q    Type
                         _______ _______ _______ _____ _____    ______ ____

>  <TORSDO>
F 5

$$$$
