=
 OpenBabel11052418083D

 28 31  0  0  1  0  0  0  0  0999 V2000
  190.2820  173.7680  144.0910 C   0  0  0  0  0  0  0  0  0  0  0  0
  187.4080  176.9940  146.2760 C   0  0  0  0  0  2  0  0  0  0  0  0
  187.3460  174.2770  142.1220 O   0  0  0  0  0  1  0  0  0  0  0  0
  185.4920  178.5260  144.3340 C   0  0  0  0  0  3  0  0  0  0  0  0
  188.2250  176.1080  144.1120 C   0  0  2  0  0  3  0  0  0  0  0  0
  185.8480  178.9010  146.7950 C   0  0  0  0  0  0  0  0  0  0  0  0
  187.4290  177.0450  144.9450 C   0  0  1  0  0  3  0  0  0  0  0  0
  186.5400  177.0360  142.7910 O   0  0  0  0  0  0  0  0  0  0  0  0
  185.4090  179.2890  145.5960 C   0  0  0  0  0  3  0  0  0  0  0  0
  189.6580  175.0560  141.9210 C   0  0  2  0  0  3  0  0  0  0  0  0
  189.6710  176.1740  144.2390 N   0  0  0  0  0  2  0  0  0  0  0  0
  186.3780  177.5630  144.0670 C   0  0  0  0  0  0  0  0  0  0  0  0
  189.6420  172.5460  141.9970 C   0  0  0  0  0  2  0  0  0  0  0  0
  188.1410  175.3740  141.7750 C   0  0  2  0  0  3  0  0  0  0  0  0
  190.0830  173.7740  141.2030 C   0  0  0  0  0  2  0  0  0  0  0  0
  185.7310  179.7650  147.8320 F   0  0  0  0  0  0  0  0  0  0  0  0
  186.2680  177.4990  147.1000 C   0  0  0  0  0  2  0  0  0  0  0  0
  187.8610  176.5270  142.7080 C   0  0  2  0  0  3  0  0  0  0  0  0
  190.0900  172.6130  143.4310 C   0  0  0  0  0  3  0  0  0  0  0  0
  190.2410  175.1080  143.3820 C   0  0  1  0  0  3  0  0  0  0  0  0
  190.7880  173.7030  145.5010 C   0  0  0  0  0  2  0  0  0  0  0  0
  192.2410  174.1600  145.5830 C   0  0  0  0  0  2  0  0  0  0  0  0
  192.4420  175.1160  146.7550 C   0  0  2  0  0  3  0  0  0  0  0  0
  190.8330  176.7590  147.7280 C   0  0  0  0  0  1  0  0  0  0  0  0
  191.1450  175.2850  147.5320 C   0  0  0  0  0  2  0  0  0  0  0  0
  192.9080  176.4730  146.2500 C   0  0  0  0  0  2  0  0  0  0  0  0
  194.2320  176.7050  146.6330 O   0  0  0  0  0  0  0  0  0  0  0  0
  194.8480  177.2300  145.4950 C   0  0  0  0  0  1  0  0  0  0  0  0
  1 21  1  0  0  0  0
  2 17  1  0  0  0  0
  4  9  1  0  0  0  0
  5 11  1  6  0  0  0
  5  7  1  0  0  0  0
  6 17  1  0  0  0  0
  6 16  1  0  0  0  0
  7  2  1  1  0  0  0
  8 12  1  0  0  0  0
  9  6  2  0  0  0  0
 10 15  1  1  0  0  0
 10 20  1  0  0  0  0
 12  4  2  0  0  0  0
 12  7  1  0  0  0  0
 13 19  1  0  0  0  0
 14 10  1  0  0  0  0
 14  3  1  1  0  0  0
 14 18  1  0  0  0  0
 15 13  1  0  0  0  0
 18  8  1  1  0  0  0
 18  5  1  0  0  0  0
 19  1  2  0  0  0  0
 20  1  1  1  0  0  0
 20 11  1  0  0  0  0
 21 22  1  0  0  0  0
 23 22  1  6  0  0  0
 23 25  1  0  0  0  0
 25 24  1  0  0  0  0
 26 27  1  0  0  0  0
 26 23  1  0  0  0  0
 28 27  1  0  0  0  0
M  END
>  <MODEL>
1

>  <REMARK>
 VINA RESULT:      -7.2      0.000      0.000
  Name = 
  6 active torsions:
  status: ('A' for Active; 'I' for Inactive)
    1  A    between atoms: C_1  and  C_2
    2  A    between atoms: C_2  and  C_3
    3  A    between atoms: C_3  and  C_7
    4  A    between atoms: O_6  and  C_28
    5  A    between atoms: C_7  and  C_11
    6  A    between atoms: C_7  and  C_28
                            x       y       z     vdW  Elec       q    Type
                         _______ _______ _______ _____ _____    ______ ____

>  <TORSDO>
F 6

$$$$
=
 OpenBabel11052418083D

 28 31  0  0  1  0  0  0  0  0999 V2000
  187.0400  177.0240  146.6780 C   0  0  0  0  0  0  0  0  0  0  0  0
  187.1760  176.6720  141.8510 C   0  0  0  0  0  2  0  0  0  0  0  0
  185.5300  179.9180  145.2270 O   0  0  0  0  0  1  0  0  0  0  0  0
  184.9510  178.3110  140.3830 C   0  0  0  0  0  3  0  0  0  0  0  0
  185.8990  177.4780  143.8150 C   0  0  2  0  0  3  0  0  0  0  0  0
  186.6290  176.7200  139.3930 C   0  0  0  0  0  0  0  0  0  0  0  0
  186.0900  177.2540  142.3580 C   0  0  1  0  0  3  0  0  0  0  0  0
  184.5000  178.9330  142.6430 O   0  0  0  0  0  0  0  0  0  0  0  0
  185.5010  177.4310  139.3320 C   0  0  0  0  0  3  0  0  0  0  0  0
  184.6260  177.9090  146.2940 C   0  0  2  0  0  3  0  0  0  0  0  0
  185.7860  176.2990  144.6570 N   0  0  0  0  0  2  0  0  0  0  0  0
  185.2110  178.2150  141.6890 C   0  0  0  0  0  0  0  0  0  0  0  0
  186.1940  179.0500  147.8890 C   0  0  0  0  0  2  0  0  0  0  0  0
  184.5020  178.9720  145.1640 C   0  0  2  0  0  3  0  0  0  0  0  0
  184.7760  178.5190  147.6900 C   0  0  0  0  0  2  0  0  0  0  0  0
  186.9450  175.9240  138.3440 F   0  0  0  0  0  0  0  0  0  0  0  0
  187.6620  176.9120  140.4570 C   0  0  0  0  0  2  0  0  0  0  0  0
  184.5810  178.2120  143.8620 C   0  0  2  0  0  3  0  0  0  0  0  0
  187.2340  178.0130  147.5670 C   0  0  0  0  0  3  0  0  0  0  0  0
  185.6790  176.7640  146.0590 C   0  0  1  0  0  3  0  0  0  0  0  0
  188.1330  176.0150  146.4890 C   0  0  0  0  0  2  0  0  0  0  0  0
  189.5060  176.6600  146.6430 C   0  0  0  0  0  2  0  0  0  0  0  0
  190.2470  176.6810  145.3100 C   0  0  2  0  0  3  0  0  0  0  0  0
  190.4580  177.8220  143.0990 C   0  0  0  0  0  1  0  0  0  0  0  0
  189.7640  177.8400  144.4500 C   0  0  0  0  0  2  0  0  0  0  0  0
  190.0240  175.3730  144.5660 C   0  0  0  0  0  2  0  0  0  0  0  0
  190.7940  174.3540  145.1330 O   0  0  0  0  0  0  0  0  0  0  0  0
  190.0710  173.1830  144.8960 C   0  0  0  0  0  1  0  0  0  0  0  0
  1 19  2  0  0  0  0
  4 12  2  0  0  0  0
  5 18  1  0  0  0  0
  5 11  1  1  0  0  0
  6 17  1  0  0  0  0
  7  2  1  6  0  0  0
  7  5  1  0  0  0  0
  9  6  2  0  0  0  0
  9  4  1  0  0  0  0
 10 15  1  1  0  0  0
 12  7  1  0  0  0  0
 12  8  1  0  0  0  0
 14  3  1  6  0  0  0
 14 10  1  0  0  0  0
 15 13  1  0  0  0  0
 16  6  1  0  0  0  0
 17  2  1  0  0  0  0
 18  8  1  6  0  0  0
 18 14  1  0  0  0  0
 19 13  1  0  0  0  0
 20 11  1  6  0  0  0
 20 10  1  0  0  0  0
 20  1  1  0  0  0  0
 21 22  1  0  0  0  0
 21  1  1  0  0  0  0
 23 25  1  6  0  0  0
 23 22  1  0  0  0  0
 24 25  1  0  0  0  0
 26 27  1  0  0  0  0
 26 23  1  0  0  0  0
 28 27  1  0  0  0  0
M  END
>  <MODEL>
2

>  <REMARK>
 VINA RESULT:      -7.1      3.138      5.769
  Name = 
  6 active torsions:
  status: ('A' for Active; 'I' for Inactive)
    1  A    between atoms: C_1  and  C_2
    2  A    between atoms: C_2  and  C_3
    3  A    between atoms: C_3  and  C_7
    4  A    between atoms: O_6  and  C_28
    5  A    between atoms: C_7  and  C_11
    6  A    between atoms: C_7  and  C_28
                            x       y       z     vdW  Elec       q    Type
                         _______ _______ _______ _____ _____    ______ ____

>  <TORSDO>
F 6

$$$$
=
 OpenBabel11052418083D

 28 31  0  0  1  0  0  0  0  0999 V2000
  190.7480  175.7840  144.0110 C   0  0  0  0  0  0  0  0  0  0  0  0
  186.4650  178.0360  143.8340 C   0  0  0  0  0  2  0  0  0  0  0  0
  190.2030  177.5560  147.0650 O   0  0  0  0  0  1  0  0  0  0  0  0
  185.1900  178.5880  146.6370 C   0  0  0  0  0  3  0  0  0  0  0  0
  188.1100  176.8650  145.2690 C   0  0  2  0  0  3  0  0  0  0  0  0
  184.1920  178.9840  144.3630 C   0  0  0  0  0  0  0  0  0  0  0  0
  186.8160  177.5520  145.0250 C   0  0  1  0  0  3  0  0  0  0  0  0
  187.2630  177.6140  147.3100 O   0  0  0  0  0  0  0  0  0  0  0  0
  184.0900  178.8430  145.6860 C   0  0  0  0  0  3  0  0  0  0  0  0
  190.0530  175.1930  146.4460 C   0  0  2  0  0  3  0  0  0  0  0  0
  188.3330  175.6060  144.5780 N   0  0  0  0  0  2  0  0  0  0  0  0
  186.3610  178.0200  146.3350 C   0  0  0  0  0  0  0  0  0  0  0  0
  192.3590  176.0340  145.9160 C   0  0  0  0  0  2  0  0  0  0  0  0
  189.4640  176.3850  147.2550 C   0  0  2  0  0  3  0  0  0  0  0  0
  191.5510  174.9830  146.6750 C   0  0  0  0  0  2  0  0  0  0  0  0
  183.0580  179.1620  143.6450 F   0  0  0  0  0  0  0  0  0  0  0  0
  185.4990  179.1630  143.6570 C   0  0  0  0  0  2  0  0  0  0  0  0
  188.0540  176.5790  146.7500 C   0  0  2  0  0  3  0  0  0  0  0  0
  191.9730  176.1000  144.4640 C   0  0  0  0  0  3  0  0  0  0  0  0
  189.7030  175.1530  144.9120 C   0  0  1  0  0  3  0  0  0  0  0  0
  190.5040  175.8330  142.5320 C   0  0  0  0  0  2  0  0  0  0  0  0
  190.4440  174.4280  141.9410 C   0  0  0  0  0  2  0  0  0  0  0  0
  189.1670  174.2380  141.1280 C   0  0  2  0  0  3  0  0  0  0  0  0
  188.9610  172.2870  142.6730 C   0  0  0  0  0  1  0  0  0  0  0  0
  188.2000  173.3230  141.8640 C   0  0  0  0  0  2  0  0  0  0  0  0
  189.4950  173.6380  139.7690 C   0  0  0  0  0  2  0  0  0  0  0  0
  188.3230  173.2580  139.1100 O   0  0  0  0  0  0  0  0  0  0  0  0
  188.1790  174.1810  138.0720 C   0  0  0  0  0  1  0  0  0  0  0  0
  1 19  2  0  0  0  0
  5 11  1  6  0  0  0
  5 18  1  0  0  0  0
  6  9  2  0  0  0  0
  7  2  1  6  0  0  0
  7  5  1  0  0  0  0
  7 12  1  0  0  0  0
  9  4  1  0  0  0  0
 10 15  1  6  0  0  0
 10 14  1  0  0  0  0
 11 20  1  0  0  0  0
 12  4  2  0  0  0  0
 12  8  1  0  0  0  0
 13 15  1  0  0  0  0
 14  3  1  6  0  0  0
 16  6  1  0  0  0  0
 17  2  1  0  0  0  0
 17  6  1  0  0  0  0
 18 14  1  0  0  0  0
 18  8  1  1  0  0  0
 19 13  1  0  0  0  0
 20  1  1  6  0  0  0
 20 10  1  0  0  0  0
 21  1  1  0  0  0  0
 22 21  1  0  0  0  0
 23 26  1  6  0  0  0
 23 25  1  0  0  0  0
 23 22  1  0  0  0  0
 25 24  1  0  0  0  0
 27 26  1  0  0  0  0
 28 27  1  0  0  0  0
M  END
>  <MODEL>
3

>  <REMARK>
 VINA RESULT:      -7.0      2.090      5.147
  Name = 
  6 active torsions:
  status: ('A' for Active; 'I' for Inactive)
    1  A    between atoms: C_1  and  C_2
    2  A    between atoms: C_2  and  C_3
    3  A    between atoms: C_3  and  C_7
    4  A    between atoms: O_6  and  C_28
    5  A    between atoms: C_7  and  C_11
    6  A    between atoms: C_7  and  C_28
                            x       y       z     vdW  Elec       q    Type
                         _______ _______ _______ _____ _____    ______ ____

>  <TORSDO>
F 6

$$$$
=
 OpenBabel11052418083D

 28 31  0  0  1  0  0  0  0  0999 V2000
  190.9290  176.0440  144.2320 C   0  0  0  0  0  0  0  0  0  0  0  0
  186.5810  178.1450  143.8940 C   0  0  0  0  0  2  0  0  0  0  0  0
  190.1420  177.6620  147.3180 O   0  0  0  0  0  1  0  0  0  0  0  0
  185.1250  178.5300  146.6370 C   0  0  0  0  0  3  0  0  0  0  0  0
  188.1840  176.9740  145.3740 C   0  0  2  0  0  3  0  0  0  0  0  0
  184.2460  178.9870  144.3250 C   0  0  0  0  0  0  0  0  0  0  0  0
  186.8800  177.6240  145.0820 C   0  0  1  0  0  3  0  0  0  0  0  0
  187.1920  177.6030  147.3910 O   0  0  0  0  0  0  0  0  0  0  0  0
  184.0730  178.7860  145.6330 C   0  0  0  0  0  3  0  0  0  0  0  0
  190.1190  175.3230  146.5950 C   0  0  2  0  0  3  0  0  0  0  0  0
  188.4950  175.7550  144.6470 N   0  0  0  0  0  2  0  0  0  0  0  0
  186.3330  178.0180  146.3820 C   0  0  0  0  0  0  0  0  0  0  0  0
  192.4170  176.2690  146.2380 C   0  0  0  0  0  2  0  0  0  0  0  0
  189.4380  176.4570  147.4150 C   0  0  2  0  0  3  0  0  0  0  0  0
  191.6080  175.1580  146.9040 C   0  0  0  0  0  2  0  0  0  0  0  0
  183.1490  179.1550  143.5490 F   0  0  0  0  0  0  0  0  0  0  0  0
  185.5830  179.2440  143.7060 C   0  0  0  0  0  2  0  0  0  0  0  0
  188.0540  176.6220  146.8370 C   0  0  2  0  0  3  0  0  0  0  0  0
  192.1130  176.3840  144.7700 C   0  0  0  0  0  3  0  0  0  0  0  0
  189.8590  175.3370  145.0430 C   0  0  1  0  0  3  0  0  0  0  0  0
  190.7690  176.1470  142.7440 C   0  0  0  0  0  2  0  0  0  0  0  0
  191.5380  175.0390  142.0320 C   0  0  0  0  0  2  0  0  0  0  0  0
  190.5820  173.9800  141.4910 C   0  0  2  0  0  3  0  0  0  0  0  0
  188.1400  173.5690  141.8030 C   0  0  0  0  0  1  0  0  0  0  0  0
  189.1860  174.5600  141.3220 C   0  0  0  0  0  2  0  0  0  0  0  0
  190.5250  172.7920  142.4390 C   0  0  0  0  0  2  0  0  0  0  0  0
  191.6840  172.7340  143.2170 O   0  0  0  0  0  0  0  0  0  0  0  0
  191.4840  171.6550  144.0800 C   0  0  0  0  0  1  0  0  0  0  0  0
  1 19  2  0  0  0  0
  5 11  1  6  0  0  0
  5 18  1  0  0  0  0
  6  9  2  0  0  0  0
  7  2  1  6  0  0  0
  7  5  1  0  0  0  0
  7 12  1  0  0  0  0
  9  4  1  0  0  0  0
 10 15  1  6  0  0  0
 10 14  1  0  0  0  0
 11 20  1  0  0  0  0
 12  4  2  0  0  0  0
 12  8  1  0  0  0  0
 13 15  1  0  0  0  0
 14  3  1  6  0  0  0
 16  6  1  0  0  0  0
 17  2  1  0  0  0  0
 17  6  1  0  0  0  0
 18  8  1  1  0  0  0
 18 14  1  0  0  0  0
 19 13  1  0  0  0  0
 20  1  1  6  0  0  0
 20 10  1  0  0  0  0
 21  1  1  0  0  0  0
 22 21  1  0  0  0  0
 23 25  1  1  0  0  0
 23 22  1  0  0  0  0
 23 26  1  0  0  0  0
 25 24  1  0  0  0  0
 26 27  1  0  0  0  0
 27 28  1  0  0  0  0
M  END
>  <MODEL>
4

>  <REMARK>
 VINA RESULT:      -6.9      2.174      4.587
  Name = 
  6 active torsions:
  status: ('A' for Active; 'I' for Inactive)
    1  A    between atoms: C_1  and  C_2
    2  A    between atoms: C_2  and  C_3
    3  A    between atoms: C_3  and  C_7
    4  A    between atoms: O_6  and  C_28
    5  A    between atoms: C_7  and  C_11
    6  A    between atoms: C_7  and  C_28
                            x       y       z     vdW  Elec       q    Type
                         _______ _______ _______ _____ _____    ______ ____

>  <TORSDO>
F 6

$$$$
=
 OpenBabel11052418083D

 28 31  0  0  1  0  0  0  0  0999 V2000
  190.6100  174.0580  143.9680 C   0  0  0  0  0  0  0  0  0  0  0  0
  187.2350  176.7190  146.1980 C   0  0  0  0  0  2  0  0  0  0  0  0
  187.5320  173.8370  142.1670 O   0  0  0  0  0  1  0  0  0  0  0  0
  184.9360  177.7110  144.3220 C   0  0  0  0  0  3  0  0  0  0  0  0
  188.1060  175.9120  144.0240 C   0  0  2  0  0  3  0  0  0  0  0  0
  185.3340  178.2800  146.7390 C   0  0  0  0  0  0  0  0  0  0  0  0
  187.1730  176.7030  144.8680 C   0  0  1  0  0  3  0  0  0  0  0  0
  186.1950  176.3960  142.7760 O   0  0  0  0  0  0  0  0  0  0  0  0
  184.7600  178.5040  145.5540 C   0  0  0  0  0  3  0  0  0  0  0  0
  189.6110  175.0720  141.7920 C   0  0  2  0  0  3  0  0  0  0  0  0
  189.5100  176.2870  144.0580 N   0  0  0  0  0  2  0  0  0  0  0  0
  185.9910  176.9430  144.0370 C   0  0  0  0  0  0  0  0  0  0  0  0
  190.1330  172.6220  141.9670 C   0  0  0  0  0  2  0  0  0  0  0  0
  188.0560  175.0560  141.7280 C   0  0  2  0  0  3  0  0  0  0  0  0
  190.2610  173.8730  141.0990 C   0  0  0  0  0  2  0  0  0  0  0  0
  185.0910  179.1530  147.7460 F   0  0  0  0  0  0  0  0  0  0  0  0
  186.0580  177.0150  147.0720 C   0  0  0  0  0  2  0  0  0  0  0  0
  187.5880  176.1720  142.6310 C   0  0  2  0  0  3  0  0  0  0  0  0
  190.6320  172.8560  143.3670 C   0  0  0  0  0  3  0  0  0  0  0  0
  190.2470  175.3210  143.2090 C   0  0  1  0  0  3  0  0  0  0  0  0
  191.1920  174.1750  145.3450 C   0  0  0  0  0  2  0  0  0  0  0  0
  192.6460  173.7140  145.3650 C   0  0  0  0  0  2  0  0  0  0  0  0
  193.5570  174.7750  144.7550 C   0  0  2  0  0  3  0  0  0  0  0  0
  193.8850  175.1680  142.3110 C   0  0  0  0  0  1  0  0  0  0  0  0
  194.2040  174.2530  143.4810 C   0  0  0  0  0  2  0  0  0  0  0  0
  194.6400  175.1680  145.7470 C   0  0  0  0  0  2  0  0  0  0  0  0
  194.1950  176.2080  146.5670 O   0  0  0  0  0  0  0  0  0  0  0  0
  194.6420  177.3750  145.9440 C   0  0  0  0  0  1  0  0  0  0  0  0
  1 21  1  0  0  0  0
  2 17  1  0  0  0  0
  4  9  1  0  0  0  0
  5 11  1  6  0  0  0
  5  7  1  0  0  0  0
  6 17  1  0  0  0  0
  6 16  1  0  0  0  0
  7  2  1  1  0  0  0
  8 12  1  0  0  0  0
  9  6  2  0  0  0  0
 10 15  1  1  0  0  0
 10 20  1  0  0  0  0
 12  4  2  0  0  0  0
 12  7  1  0  0  0  0
 13 19  1  0  0  0  0
 14 10  1  0  0  0  0
 14  3  1  1  0  0  0
 14 18  1  0  0  0  0
 15 13  1  0  0  0  0
 18  8  1  1  0  0  0
 18  5  1  0  0  0  0
 19  1  2  0  0  0  0
 20  1  1  1  0  0  0
 20 11  1  0  0  0  0
 21 22  1  0  0  0  0
 23 25  1  6  0  0  0
 23 22  1  0  0  0  0
 23 26  1  0  0  0  0
 24 25  1  0  0  0  0
 26 27  1  0  0  0  0
 28 27  1  0  0  0  0
M  END
>  <MODEL>
5

>  <REMARK>
 VINA RESULT:      -6.6      1.164      1.757
  Name = 
  6 active torsions:
  status: ('A' for Active; 'I' for Inactive)
    1  A    between atoms: C_1  and  C_2
    2  A    between atoms: C_2  and  C_3
    3  A    between atoms: C_3  and  C_7
    4  A    between atoms: O_6  and  C_28
    5  A    between atoms: C_7  and  C_11
    6  A    between atoms: C_7  and  C_28
                            x       y       z     vdW  Elec       q    Type
                         _______ _______ _______ _____ _____    ______ ____

>  <TORSDO>
F 6

$$$$
=
 OpenBabel11052418083D

 28 31  0  0  1  0  0  0  0  0999 V2000
  188.6530  176.4870  145.1850 C   0  0  0  0  0  0  0  0  0  0  0  0
  188.8140  174.6080  140.7260 C   0  0  0  0  0  2  0  0  0  0  0  0
  189.6990  173.0760  145.3640 O   0  0  0  0  0  1  0  0  0  0  0  0
  190.7840  172.1960  140.4210 C   0  0  0  0  0  3  0  0  0  0  0  0
  189.8330  174.6250  142.9840 C   0  0  2  0  0  3  0  0  0  0  0  0
  189.4620  173.3680  138.6310 C   0  0  0  0  0  0  0  0  0  0  0  0
  189.7550  174.1820  141.5680 C   0  0  1  0  0  3  0  0  0  0  0  0
  191.0100  172.6220  142.7600 O   0  0  0  0  0  0  0  0  0  0  0  0
  190.4490  172.5640  139.0310 C   0  0  0  0  0  3  0  0  0  0  0  0
  190.8890  175.2080  145.5330 C   0  0  2  0  0  3  0  0  0  0  0  0
  190.1110  176.0310  143.2230 N   0  0  0  0  0  2  0  0  0  0  0  0
  190.4820  172.9120  141.5070 C   0  0  0  0  0  0  0  0  0  0  0  0
  189.0700  175.1460  147.2630 C   0  0  0  0  0  2  0  0  0  0  0  0
  190.8790  173.7400  145.0160 C   0  0  2  0  0  3  0  0  0  0  0  0
  190.5670  175.3300  147.0240 C   0  0  0  0  0  2  0  0  0  0  0  0
  189.3420  173.6310  137.3080 F   0  0  0  0  0  0  0  0  0  0  0  0
  188.3620  173.8250  139.5350 C   0  0  0  0  0  2  0  0  0  0  0  0
  190.9980  173.8240  143.5130 C   0  0  2  0  0  3  0  0  0  0  0  0
  188.2450  176.0510  146.3890 C   0  0  0  0  0  3  0  0  0  0  0  0
  190.0660  176.2490  144.6880 C   0  0  1  0  0  3  0  0  0  0  0  0
  187.7650  177.4350  144.4360 C   0  0  0  0  0  2  0  0  0  0  0  0
  186.3100  177.2810  144.8700 C   0  0  0  0  0  2  0  0  0  0  0  0
  185.6680  178.6460  145.0980 C   0  0  2  0  0  3  0  0  0  0  0  0
  185.5190  178.3260  147.5700 C   0  0  0  0  0  1  0  0  0  0  0  0
  184.7350  178.6010  146.2990 C   0  0  0  0  0  2  0  0  0  0  0  0
  184.8850  179.0700  143.8650 C   0  0  0  0  0  2  0  0  0  0  0  0
  184.4630  177.9470  143.1470 O   0  0  0  0  0  0  0  0  0  0  0  0
  184.6650  178.2820  141.8060 C   0  0  0  0  0  1  0  0  0  0  0  0
  1 19  2  0  0  0  0
  4 12  2  0  0  0  0
  5 11  1  6  0  0  0
  5 18  1  0  0  0  0
  6  9  2  0  0  0  0
  6 17  1  0  0  0  0
  7  2  1  1  0  0  0
  7  5  1  0  0  0  0
  9  4  1  0  0  0  0
 10 15  1  1  0  0  0
 12  7  1  0  0  0  0
 12  8  1  0  0  0  0
 14  3  1  6  0  0  0
 14 10  1  0  0  0  0
 15 13  1  0  0  0  0
 16  6  1  0  0  0  0
 17  2  1  0  0  0  0
 18  8  1  6  0  0  0
 18 14  1  0  0  0  0
 19 13  1  0  0  0  0
 20 11  1  6  0  0  0
 20  1  1  0  0  0  0
 20 10  1  0  0  0  0
 21 22  1  0  0  0  0
 21  1  1  0  0  0  0
 22 23  1  0  0  0  0
 23 26  1  6  0  0  0
 23 25  1  0  0  0  0
 25 24  1  0  0  0  0
 27 26  1  0  0  0  0
 28 27  1  0  0  0  0
M  END
>  <MODEL>
6

>  <REMARK>
 VINA RESULT:      -6.6      3.137      7.068
  Name = 
  6 active torsions:
  status: ('A' for Active; 'I' for Inactive)
    1  A    between atoms: C_1  and  C_2
    2  A    between atoms: C_2  and  C_3
    3  A    between atoms: C_3  and  C_7
    4  A    between atoms: O_6  and  C_28
    5  A    between atoms: C_7  and  C_11
    6  A    between atoms: C_7  and  C_28
                            x       y       z     vdW  Elec       q    Type
                         _______ _______ _______ _____ _____    ______ ____

>  <TORSDO>
F 6

$$$$
=
 OpenBabel11052418083D

 28 31  0  0  1  0  0  0  0  0999 V2000
  187.5520  176.6750  143.0030 C   0  0  0  0  0  0  0  0  0  0  0  0
  192.1690  175.7910  144.1610 C   0  0  0  0  0  2  0  0  0  0  0  0
  187.7860  175.9260  146.4880 O   0  0  0  0  0  1  0  0  0  0  0  0
  192.8630  176.3250  147.1650 C   0  0  0  0  0  3  0  0  0  0  0  0
  190.0100  176.7430  144.9150 C   0  0  2  0  0  3  0  0  0  0  0  0
  194.4180  175.7010  145.2900 C   0  0  0  0  0  0  0  0  0  0  0  0
  191.4510  176.4240  145.0870 C   0  0  1  0  0  3  0  0  0  0  0  0
  190.5200  176.7860  147.1920 O   0  0  0  0  0  0  0  0  0  0  0  0
  194.1790  176.1790  146.5130 C   0  0  0  0  0  3  0  0  0  0  0  0
  187.5100  178.0100  145.2330 C   0  0  2  0  0  3  0  0  0  0  0  0
  189.6600  177.6770  143.8590 N   0  0  0  0  0  2  0  0  0  0  0  0
  191.6920  176.4380  146.5320 C   0  0  0  0  0  0  0  0  0  0  0  0
  185.6530  176.4330  144.6240 C   0  0  0  0  0  2  0  0  0  0  0  0
  188.1640  177.2720  146.4380 C   0  0  2  0  0  3  0  0  0  0  0  0
  185.9940  177.8240  145.1560 C   0  0  0  0  0  2  0  0  0  0  0  0
  195.6970  175.6930  144.8410 F   0  0  0  0  0  0  0  0  0  0  0  0
  193.3890  174.9860  144.4750 C   0  0  0  0  0  2  0  0  0  0  0  0
  189.6560  177.3800  146.2370 C   0  0  2  0  0  3  0  0  0  0  0  0
  186.3660  176.1350  143.3330 C   0  0  0  0  0  3  0  0  0  0  0  0
  188.1820  177.7800  143.8290 C   0  0  1  0  0  3  0  0  0  0  0  0
  188.1320  176.3440  141.6600 C   0  0  0  0  0  2  0  0  0  0  0  0
  189.0540  175.1320  141.7450 C   0  0  0  0  0  2  0  0  0  0  0  0
  188.3070  173.8580  141.3660 C   0  0  2  0  0  3  0  0  0  0  0  0
  189.4200  173.2940  143.5280 C   0  0  0  0  0  1  0  0  0  0  0  0
  188.5700  172.7620  142.3870 C   0  0  0  0  0  2  0  0  0  0  0  0
  188.7480  173.3820  139.9900 C   0  0  0  0  0  2  0  0  0  0  0  0
  188.1930  174.1900  138.9950 O   0  0  0  0  0  0  0  0  0  0  0  0
  188.5680  173.5880  137.7920 C   0  0  0  0  0  1  0  0  0  0  0  0
  1 19  2  0  0  0  0
  2 17  1  0  0  0  0
  5 11  1  6  0  0  0
  5  7  1  0  0  0  0
  5 18  1  0  0  0  0
  6  9  2  0  0  0  0
  7  2  1  1  0  0  0
  7 12  1  0  0  0  0
  9  4  1  0  0  0  0
 10 15  1  6  0  0  0
 10 14  1  0  0  0  0
 12  4  2  0  0  0  0
 12  8  1  0  0  0  0
 13 15  1  0  0  0  0
 14  3  1  6  0  0  0
 16  6  1  0  0  0  0
 17  6  1  0  0  0  0
 18 14  1  0  0  0  0
 18  8  1  1  0  0  0
 19 13  1  0  0  0  0
 20  1  1  1  0  0  0
 20 11  1  0  0  0  0
 20 10  1  0  0  0  0
 21 22  1  0  0  0  0
 21  1  1  0  0  0  0
 23 26  1  6  0  0  0
 23 22  1  0  0  0  0
 23 25  1  0  0  0  0
 25 24  1  0  0  0  0
 27 26  1  0  0  0  0
 28 27  1  0  0  0  0
M  END
>  <MODEL>
7

>  <REMARK>
 VINA RESULT:      -6.5      2.857      6.640
  Name = 
  6 active torsions:
  status: ('A' for Active; 'I' for Inactive)
    1  A    between atoms: C_1  and  C_2
    2  A    between atoms: C_2  and  C_3
    3  A    between atoms: C_3  and  C_7
    4  A    between atoms: O_6  and  C_28
    5  A    between atoms: C_7  and  C_11
    6  A    between atoms: C_7  and  C_28
                            x       y       z     vdW  Elec       q    Type
                         _______ _______ _______ _____ _____    ______ ____

>  <TORSDO>
F 6

$$$$
=
 OpenBabel11052418083D

 28 31  0  0  1  0  0  0  0  0999 V2000
  187.3620  176.8900  143.4090 C   0  0  0  0  0  0  0  0  0  0  0  0
  192.0980  176.0390  143.9440 C   0  0  0  0  0  2  0  0  0  0  0  0
  188.0070  175.7870  146.7450 O   0  0  0  0  0  1  0  0  0  0  0  0
  193.1180  176.2770  146.8920 C   0  0  0  0  0  3  0  0  0  0  0  0
  190.0200  176.8360  145.0320 C   0  0  2  0  0  3  0  0  0  0  0  0
  194.4630  175.9030  144.8000 C   0  0  0  0  0  0  0  0  0  0  0  0
  191.4780  176.5470  145.0080 C   0  0  1  0  0  3  0  0  0  0  0  0
  190.7850  176.6560  147.2300 O   0  0  0  0  0  0  0  0  0  0  0  0
  194.3550  176.2430  146.0870 C   0  0  0  0  0  3  0  0  0  0  0  0
  187.5480  177.9810  145.7610 C   0  0  2  0  0  3  0  0  0  0  0  0
  189.5330  177.8640  144.1290 N   0  0  0  0  0  2  0  0  0  0  0  0
  191.8810  176.4170  146.4090 C   0  0  0  0  0  0  0  0  0  0  0  0
  185.6660  176.4180  145.1950 C   0  0  0  0  0  2  0  0  0  0  0  0
  188.3490  177.1420  146.7990 C   0  0  2  0  0  3  0  0  0  0  0  0
  186.0360  177.7550  145.8330 C   0  0  0  0  0  2  0  0  0  0  0  0
  195.6810  175.9840  144.2140 F   0  0  0  0  0  0  0  0  0  0  0  0
  193.3620  175.2450  144.0320 C   0  0  0  0  0  2  0  0  0  0  0  0
  189.8060  177.3190  146.4460 C   0  0  2  0  0  3  0  0  0  0  0  0
  186.2330  176.2800  143.8090 C   0  0  0  0  0  3  0  0  0  0  0  0
  188.0600  177.9210  144.2750 C   0  0  1  0  0  3  0  0  0  0  0  0
  187.7920  176.7210  141.9820 C   0  0  0  0  0  2  0  0  0  0  0  0
  187.8640  175.2460  141.6030 C   0  0  0  0  0  2  0  0  0  0  0  0
  189.2460  174.6770  141.9050 C   0  0  2  0  0  3  0  0  0  0  0  0
  188.5670  173.2550  139.9680 C   0  0  0  0  0  1  0  0  0  0  0  0
  189.7410  173.8320  140.7410 C   0  0  0  0  0  2  0  0  0  0  0  0
  189.1990  173.8240  143.1630 C   0  0  0  0  0  2  0  0  0  0  0  0
  190.3560  173.0480  143.2690 O   0  0  0  0  0  0  0  0  0  0  0  0
  190.4270  172.6910  144.6170 C   0  0  0  0  0  1  0  0  0  0  0  0
  1 19  2  0  0  0  0
  2 17  1  0  0  0  0
  5 11  1  6  0  0  0
  5 18  1  0  0  0  0
  6  9  2  0  0  0  0
  7  2  1  6  0  0  0
  7  5  1  0  0  0  0
  7 12  1  0  0  0  0
  9  4  1  0  0  0  0
 10 15  1  6  0  0  0
 10 14  1  0  0  0  0
 11 20  1  0  0  0  0
 12  4  2  0  0  0  0
 12  8  1  0  0  0  0
 13 15  1  0  0  0  0
 14  3  1  6  0  0  0
 16  6  1  0  0  0  0
 17  6  1  0  0  0  0
 18 14  1  0  0  0  0
 18  8  1  1  0  0  0
 19 13  1  0  0  0  0
 20  1  1  1  0  0  0
 20 10  1  0  0  0  0
 21  1  1  0  0  0  0
 22 23  1  0  0  0  0
 22 21  1  0  0  0  0
 23 25  1  6  0  0  0
 23 26  1  0  0  0  0
 24 25  1  0  0  0  0
 26 27  1  0  0  0  0
 27 28  1  0  0  0  0
M  END
>  <MODEL>
8

>  <REMARK>
 VINA RESULT:      -6.5      2.799      6.432
  Name = 
  6 active torsions:
  status: ('A' for Active; 'I' for Inactive)
    1  A    between atoms: C_1  and  C_2
    2  A    between atoms: C_2  and  C_3
    3  A    between atoms: C_3  and  C_7
    4  A    between atoms: O_6  and  C_28
    5  A    between atoms: C_7  and  C_11
    6  A    between atoms: C_7  and  C_28
                            x       y       z     vdW  Elec       q    Type
                         _______ _______ _______ _____ _____    ______ ____

>  <TORSDO>
F 6

$$$$
=
 OpenBabel11052418083D

 28 31  0  0  1  0  0  0  0  0999 V2000
  189.6780  175.8840  146.2030 C   0  0  0  0  0  0  0  0  0  0  0  0
  188.6300  174.0640  141.8410 C   0  0  0  0  0  2  0  0  0  0  0  0
  192.4170  173.9020  145.0460 O   0  0  0  0  0  1  0  0  0  0  0  0
  191.1380  173.3830  140.0990 C   0  0  0  0  0  3  0  0  0  0  0  0
  190.4080  174.9430  143.3240 C   0  0  2  0  0  3  0  0  0  0  0  0
  188.7110  173.2870  139.4460 C   0  0  0  0  0  0  0  0  0  0  0  0
  189.9030  174.4040  142.0350 C   0  0  1  0  0  3  0  0  0  0  0  0
  192.2110  174.0950  142.1090 O   0  0  0  0  0  0  0  0  0  0  0  0
  190.0120  173.3170  139.1470 C   0  0  0  0  0  3  0  0  0  0  0  0
  192.0290  176.3150  145.1800 C   0  0  2  0  0  3  0  0  0  0  0  0
  189.8920  176.2330  143.7510 N   0  0  0  0  0  2  0  0  0  0  0  0
  191.0750  173.8640  141.3430 C   0  0  0  0  0  0  0  0  0  0  0  0
  191.7670  175.3150  147.4690 C   0  0  0  0  0  2  0  0  0  0  0  0
  192.6130  175.1150  144.3790 C   0  0  2  0  0  3  0  0  0  0  0  0
  192.5010  176.3640  146.6350 C   0  0  0  0  0  2  0  0  0  0  0  0
  187.8170  173.2810  138.4290 F   0  0  0  0  0  0  0  0  0  0  0  0
  188.1950  173.0520  140.8300 C   0  0  0  0  0  2  0  0  0  0  0  0
  191.8860  175.0980  143.0570 C   0  0  2  0  0  3  0  0  0  0  0  0
  190.2750  175.4150  147.3130 C   0  0  0  0  0  3  0  0  0  0  0  0
  190.4730  176.5250  145.0810 C   0  0  1  0  0  3  0  0  0  0  0  0
  188.1830  175.9910  146.1930 C   0  0  0  0  0  2  0  0  0  0  0  0
  187.7380  177.4470  146.2850 C   0  0  0  0  0  2  0  0  0  0  0  0
  186.5050  177.6910  145.4210 C   0  0  2  0  0  3  0  0  0  0  0  0
  185.9450  176.5130  143.2910 C   0  0  0  0  0  1  0  0  0  0  0  0
  186.8500  177.5430  143.9470 C   0  0  0  0  0  2  0  0  0  0  0  0
  185.9550  179.0860  145.6730 C   0  0  0  0  0  2  0  0  0  0  0  0
  184.5700  179.1030  145.4950 O   0  0  0  0  0  0  0  0  0  0  0  0
  184.0660  178.2890  146.5120 C   0  0  0  0  0  1  0  0  0  0  0  0
  1 19  2  0  0  0  0
  4 12  2  0  0  0  0
  5 11  1  6  0  0  0
  6 17  1  0  0  0  0
  7  2  1  1  0  0  0
  7  5  1  0  0  0  0
  9  6  2  0  0  0  0
  9  4  1  0  0  0  0
 10 15  1  1  0  0  0
 12  7  1  0  0  0  0
 12  8  1  0  0  0  0
 14  3  1  1  0  0  0
 14 10  1  0  0  0  0
 15 13  1  0  0  0  0
 16  6  1  0  0  0  0
 17  2  1  0  0  0  0
 18  8  1  6  0  0  0
 18  5  1  0  0  0  0
 18 14  1  0  0  0  0
 19 13  1  0  0  0  0
 20 11  1  6  0  0  0
 20 10  1  0  0  0  0
 20  1  1  0  0  0  0
 21  1  1  0  0  0  0
 21 22  1  0  0  0  0
 23 25  1  6  0  0  0
 23 26  1  0  0  0  0
 23 22  1  0  0  0  0
 24 25  1  0  0  0  0
 27 26  1  0  0  0  0
 27 28  1  0  0  0  0
M  END
>  <MODEL>
9

>  <REMARK>
 VINA RESULT:      -6.5      2.921      6.734
  Name = 
  6 active torsions:
  status: ('A' for Active; 'I' for Inactive)
    1  A    between atoms: C_1  and  C_2
    2  A    between atoms: C_2  and  C_3
    3  A    between atoms: C_3  and  C_7
    4  A    between atoms: O_6  and  C_28
    5  A    between atoms: C_7  and  C_11
    6  A    between atoms: C_7  and  C_28
                            x       y       z     vdW  Elec       q    Type
                         _______ _______ _______ _____ _____    ______ ____

>  <TORSDO>
F 6

$$$$
