=
 OpenBabel11052418293D

 27 30  0  0  1  0  0  0  0  0999 V2000
  190.7550  175.0920  142.7780 N   0  0  0  0  0  0  0  0  0  0  0  0
  188.4380  175.7660  142.2350 C   0  0  0  0  0  0  0  0  0  0  0  0
  188.5810  175.7720  144.7170 O   0  0  0  0  0  0  0  0  0  0  0  0
  187.7990  176.2250  141.1230 N   0  0  0  0  0  0  0  0  0  0  0  0
  190.1070  175.2010  147.2140 C   0  0  0  0  0  2  0  0  0  0  0  0
  191.6090  175.3900  147.1650 C   0  0  0  0  0  2  0  0  0  0  0  0
  186.9610  177.1820  143.5830 C   0  0  0  0  0  0  0  0  0  0  0  0
  189.5660  174.8710  142.0570 N   0  0  0  0  0  0  0  0  0  0  0  0
  186.3350  177.5960  142.4000 C   0  0  0  0  0  0  0  0  0  0  0  0
  190.7810  175.0750  144.0710 C   0  0  0  0  0  0  0  0  0  0  0  0
  188.0150  176.2340  143.5170 C   0  0  0  0  0  0  0  0  0  0  0  0
  189.6750  174.1550  146.2040 C   0  0  0  0  0  2  0  0  0  0  0  0
  186.7740  177.1080  141.1760 C   0  0  0  0  0  3  0  0  0  0  0  0
  191.9930  176.2550  145.9810 C   0  0  0  0  0  2  0  0  0  0  0  0
  191.9750  175.4940  144.7400 N   0  0  0  0  0  2  0  0  0  0  0  0
  189.5190  174.7160  144.7930 C   0  0  1  0  0  3  0  0  0  0  0  0
  189.6030  172.1790  138.7980 C   0  0  0  0  0  3  0  0  0  0  0  0
  189.6020  173.9380  140.9570 C   0  0  0  0  0  0  0  0  0  0  0  0
  190.7490  173.7980  140.1600 C   0  0  0  0  0  3  0  0  0  0  0  0
  190.7540  172.9150  139.0810 C   0  0  0  0  0  3  0  0  0  0  0  0
  188.4920  172.3290  139.5680 N   0  0  0  0  0  0  0  0  0  0  0  0
  188.4670  173.1860  140.6240 C   0  0  0  0  0  3  0  0  0  0  0  0
  186.4890  177.7310  144.7910 O   0  0  0  0  0  0  0  0  0  0  0  0
  185.5860  177.0960  145.6850 C   0  0  0  0  0  1  0  0  0  0  0  0
  185.2260  178.5940  142.4210 C   0  0  0  0  0  2  0  0  0  0  0  0
  183.2960  178.2160  141.4240 C   0  0  0  0  0  1  0  0  0  0  0  0
  184.0050  177.9410  142.5910 O   0  0  0  0  0  0  0  0  0  0  0  0
  1 10  2  0  0  0  0
  2 11  1  0  0  0  0
  3 16  1  0  0  0  0
  4 13  1  0  0  0  0
  4  2  2  0  0  0  0
  6  5  1  0  0  0  0
  7 23  1  0  0  0  0
  8  2  1  0  0  0  0
  8  1  1  0  0  0  0
  9 25  1  0  0  0  0
  9  7  1  0  0  0  0
 10 15  1  0  0  0  0
 10 16  1  0  0  0  0
 11  7  2  0  0  0  0
 11  3  1  0  0  0  0
 12  5  1  0  0  0  0
 13  9  2  0  0  0  0
 14  6  1  0  0  0  0
 15 14  1  0  0  0  0
 16 12  1  1  0  0  0
 17 20  2  0  0  0  0
 17 21  1  0  0  0  0
 18  8  1  0  0  0  0
 19 18  2  0  0  0  0
 20 19  1  0  0  0  0
 21 22  2  0  0  0  0
 22 18  1  0  0  0  0
 23 24  1  0  0  0  0
 25 27  1  0  0  0  0
 26 27  1  0  0  0  0
M  END
>  <MODEL>
1

>  <REMARK>
 VINA RESULT:      -6.6      0.000      0.000
  Name = 
  4 active torsions:
  status: ('A' for Active; 'I' for Inactive)
    1  A    between atoms: C_4  and  O_16
    2  A    between atoms: C_4  and  C_17
    3  A    between atoms: O_8  and  C_14
    4  A    between atoms: C_9  and  N_15
                            x       y       z     vdW  Elec       q    Type
                         _______ _______ _______ _____ _____    ______ ____

>  <TORSDO>
F 4

$$$$
=
 OpenBabel11052418293D

 27 30  0  0  1  0  0  0  0  0999 V2000
  187.6530  176.5150  142.1890 N   0  0  0  0  0  0  0  0  0  0  0  0
  188.7740  176.4280  144.3920 C   0  0  0  0  0  0  0  0  0  0  0  0
  189.1820  174.2140  143.3360 O   0  0  0  0  0  0  0  0  0  0  0  0
  189.1720  177.3490  145.3120 N   0  0  0  0  0  0  0  0  0  0  0  0
  188.7010  172.2900  141.1100 C   0  0  0  0  0  2  0  0  0  0  0  0
  188.4990  172.8700  139.7250 C   0  0  0  0  0  2  0  0  0  0  0  0
  190.7260  175.0780  145.0000 C   0  0  0  0  0  0  0  0  0  0  0  0
  187.6100  176.7300  143.5800 N   0  0  0  0  0  0  0  0  0  0  0  0
  191.0670  176.0580  145.9420 C   0  0  0  0  0  0  0  0  0  0  0  0
  187.8580  175.3420  141.6860 C   0  0  0  0  0  0  0  0  0  0  0  0
  189.5510  175.2400  144.2220 C   0  0  0  0  0  0  0  0  0  0  0  0
  187.6330  172.8050  142.0570 C   0  0  0  0  0  2  0  0  0  0  0  0
  190.2770  177.1910  146.0800 C   0  0  0  0  0  3  0  0  0  0  0  0
  189.0190  174.2930  139.6710 C   0  0  0  0  0  2  0  0  0  0  0  0
  188.0800  175.2260  140.2770 N   0  0  0  0  0  2  0  0  0  0  0  0
  187.9560  174.1820  142.6290 C   0  0  1  0  0  3  0  0  0  0  0  0
  184.4460  178.9990  145.2240 C   0  0  0  0  0  3  0  0  0  0  0  0
  186.5180  177.5070  144.1140 C   0  0  0  0  0  0  0  0  0  0  0  0
  186.2630  178.8100  143.6580 C   0  0  0  0  0  3  0  0  0  0  0  0
  185.2230  179.5580  144.2090 C   0  0  0  0  0  3  0  0  0  0  0  0
  184.7070  177.7410  145.6690 N   0  0  0  0  0  0  0  0  0  0  0  0
  185.7170  176.9960  145.1440 C   0  0  0  0  0  3  0  0  0  0  0  0
  191.5790  173.9630  144.8880 O   0  0  0  0  0  0  0  0  0  0  0  0
  192.5480  173.7690  143.8670 C   0  0  0  0  0  1  0  0  0  0  0  0
  192.2960  175.9310  146.7780 C   0  0  0  0  0  2  0  0  0  0  0  0
  194.4560  175.8950  146.3310 C   0  0  0  0  0  1  0  0  0  0  0  0
  193.3230  176.6990  146.2280 O   0  0  0  0  0  0  0  0  0  0  0  0
  1  8  1  0  0  0  0
  2  4  1  0  0  0  0
  3 11  1  0  0  0  0
  4 13  2  0  0  0  0
  5 12  1  0  0  0  0
  6  5  1  0  0  0  0
  7  9  2  0  0  0  0
  8 18  1  0  0  0  0
  8  2  1  0  0  0  0
  9 13  1  0  0  0  0
  9 25  1  0  0  0  0
 10  1  2  0  0  0  0
 10 16  1  0  0  0  0
 11  2  2  0  0  0  0
 11  7  1  0  0  0  0
 14  6  1  0  0  0  0
 14 15  1  0  0  0  0
 15 10  1  0  0  0  0
 16 12  1  6  0  0  0
 16  3  1  0  0  0  0
 17 21  1  0  0  0  0
 18 22  1  0  0  0  0
 19 18  2  0  0  0  0
 19 20  1  0  0  0  0
 20 17  2  0  0  0  0
 22 21  2  0  0  0  0
 23  7  1  0  0  0  0
 24 23  1  0  0  0  0
 27 26  1  0  0  0  0
 27 25  1  0  0  0  0
M  END
>  <MODEL>
2

>  <REMARK>
 VINA RESULT:      -6.6      2.418      6.845
  Name = 
  4 active torsions:
  status: ('A' for Active; 'I' for Inactive)
    1  A    between atoms: C_4  and  O_16
    2  A    between atoms: C_4  and  C_17
    3  A    between atoms: O_8  and  C_14
    4  A    between atoms: C_9  and  N_15
                            x       y       z     vdW  Elec       q    Type
                         _______ _______ _______ _____ _____    ______ ____

>  <TORSDO>
F 4

$$$$
=
 OpenBabel11052418293D

 27 30  0  0  1  0  0  0  0  0999 V2000
  188.9290  176.1660  145.7720 N   0  0  0  0  0  0  0  0  0  0  0  0
  188.3920  175.6300  143.4190 C   0  0  0  0  0  0  0  0  0  0  0  0
  190.8610  175.9030  143.5040 O   0  0  0  0  0  0  0  0  0  0  0  0
  187.3200  175.1000  142.7670 N   0  0  0  0  0  0  0  0  0  0  0  0
  193.3250  176.6330  145.0170 C   0  0  0  0  0  2  0  0  0  0  0  0
  193.3470  176.3140  146.4980 C   0  0  0  0  0  2  0  0  0  0  0  0
  189.8450  174.5120  141.7930 C   0  0  0  0  0  0  0  0  0  0  0  0
  188.1490  176.4000  144.6240 N   0  0  0  0  0  0  0  0  0  0  0  0
  188.6970  174.0160  141.1600 C   0  0  0  0  0  0  0  0  0  0  0  0
  190.2110  176.3320  145.7710 C   0  0  0  0  0  0  0  0  0  0  0  0
  189.7050  175.3530  142.9270 C   0  0  0  0  0  0  0  0  0  0  0  0
  192.1870  177.5860  144.7020 C   0  0  0  0  0  2  0  0  0  0  0  0
  187.4400  174.3190  141.6670 C   0  0  0  0  0  3  0  0  0  0  0  0
  192.2830  175.2870  146.8310 C   0  0  0  0  0  2  0  0  0  0  0  0
  190.9620  175.8960  146.9090 N   0  0  0  0  0  2  0  0  0  0  0  0
  190.8460  176.8790  144.5290 C   0  0  1  0  0  3  0  0  0  0  0  0
  184.6540  178.7240  145.1270 C   0  0  0  0  0  3  0  0  0  0  0  0
  186.9510  177.1910  144.7660 C   0  0  0  0  0  0  0  0  0  0  0  0
  186.7890  178.3980  144.0680 C   0  0  0  0  0  3  0  0  0  0  0  0
  185.6380  179.1660  144.2430 C   0  0  0  0  0  3  0  0  0  0  0  0
  184.8230  177.5600  145.8100 N   0  0  0  0  0  0  0  0  0  0  0  0
  185.9390  176.7970  145.6520 C   0  0  0  0  0  3  0  0  0  0  0  0
  191.0910  174.1500  141.2480 O   0  0  0  0  0  0  0  0  0  0  0  0
  191.9490  173.1390  141.7590 C   0  0  0  0  0  1  0  0  0  0  0  0
  188.7960  173.1240  139.9680 C   0  0  0  0  0  2  0  0  0  0  0  0
  189.1970  173.7980  137.9070 C   0  0  0  0  0  1  0  0  0  0  0  0
  188.1910  173.7340  138.8690 O   0  0  0  0  0  0  0  0  0  0  0  0
  2  8  1  0  0  0  0
  3 16  1  0  0  0  0
  4  2  2  0  0  0  0
  5  6  1  0  0  0  0
  6 14  1  0  0  0  0
  7 11  2  0  0  0  0
  8 18  1  0  0  0  0
  8  1  1  0  0  0  0
  9 13  2  0  0  0  0
  9  7  1  0  0  0  0
 10  1  2  0  0  0  0
 10 15  1  0  0  0  0
 11  2  1  0  0  0  0
 11  3  1  0  0  0  0
 12  5  1  0  0  0  0
 13  4  1  0  0  0  0
 14 15  1  0  0  0  0
 16 12  1  1  0  0  0
 16 10  1  0  0  0  0
 17 21  1  0  0  0  0
 18 22  1  0  0  0  0
 19 20  1  0  0  0  0
 19 18  2  0  0  0  0
 20 17  2  0  0  0  0
 22 21  2  0  0  0  0
 23 24  1  0  0  0  0
 23  7  1  0  0  0  0
 25  9  1  0  0  0  0
 26 27  1  0  0  0  0
 27 25  1  0  0  0  0
M  END
>  <MODEL>
3

>  <REMARK>
 VINA RESULT:      -6.5      2.658      5.575
  Name = 
  4 active torsions:
  status: ('A' for Active; 'I' for Inactive)
    1  A    between atoms: C_4  and  O_16
    2  A    between atoms: C_4  and  C_17
    3  A    between atoms: O_8  and  C_14
    4  A    between atoms: C_9  and  N_15
                            x       y       z     vdW  Elec       q    Type
                         _______ _______ _______ _____ _____    ______ ____

>  <TORSDO>
F 4

$$$$
=
 OpenBabel11052418293D

 27 30  0  0  1  0  0  0  0  0999 V2000
  191.8970  175.1690  142.7420 N   0  0  0  0  0  0  0  0  0  0  0  0
  189.4300  175.3210  142.8300 C   0  0  0  0  0  0  0  0  0  0  0  0
  190.2260  175.9140  145.1090 O   0  0  0  0  0  0  0  0  0  0  0  0
  188.4320  175.4060  141.9070 N   0  0  0  0  0  0  0  0  0  0  0  0
  192.4510  176.1790  147.0760 C   0  0  0  0  0  2  0  0  0  0  0  0
  193.8060  176.5900  146.5370 C   0  0  0  0  0  2  0  0  0  0  0  0
  188.0930  176.7500  144.3040 C   0  0  0  0  0  0  0  0  0  0  0  0
  190.6360  174.6020  142.4690 N   0  0  0  0  0  0  0  0  0  0  0  0
  187.0980  176.7790  143.3180 C   0  0  0  0  0  0  0  0  0  0  0  0
  192.2710  175.4510  143.9470 C   0  0  0  0  0  0  0  0  0  0  0  0
  189.2720  175.9940  144.0800 C   0  0  0  0  0  0  0  0  0  0  0  0
  192.0060  174.8750  146.4410 C   0  0  0  0  0  2  0  0  0  0  0  0
  187.2890  176.1010  142.1200 C   0  0  0  0  0  3  0  0  0  0  0  0
  193.6590  177.2130  145.1630 C   0  0  0  0  0  2  0  0  0  0  0  0
  193.4780  176.1970  144.1350 N   0  0  0  0  0  2  0  0  0  0  0  0
  191.3590  175.0670  145.0720 C   0  0  1  0  0  3  0  0  0  0  0  0
  190.5600  171.2750  139.8630 C   0  0  0  0  0  3  0  0  0  0  0  0
  190.5820  173.4620  141.5870 C   0  0  0  0  0  0  0  0  0  0  0  0
  190.2610  172.1840  142.0710 C   0  0  0  0  0  3  0  0  0  0  0  0
  190.2450  171.0870  141.2080 C   0  0  0  0  0  3  0  0  0  0  0  0
  190.8810  172.5140  139.4040 N   0  0  0  0  0  0  0  0  0  0  0  0
  190.9020  173.5960  140.2290 C   0  0  0  0  0  3  0  0  0  0  0  0
  187.8520  177.4760  145.4860 O   0  0  0  0  0  0  0  0  0  0  0  0
  187.3390  176.9330  146.6950 C   0  0  0  0  0  1  0  0  0  0  0  0
  185.8430  177.5640  143.5080 C   0  0  0  0  0  2  0  0  0  0  0  0
  185.4660  179.6780  144.0100 C   0  0  0  0  0  1  0  0  0  0  0  0
  186.0210  178.8620  143.0270 O   0  0  0  0  0  0  0  0  0  0  0  0
  1 10  2  0  0  0  0
  2 11  1  0  0  0  0
  4 13  1  0  0  0  0
  4  2  2  0  0  0  0
  6  5  1  0  0  0  0
  7 23  1  0  0  0  0
  8  1  1  0  0  0  0
  8  2  1  0  0  0  0
  9 25  1  0  0  0  0
  9  7  1  0  0  0  0
 10 15  1  0  0  0  0
 10 16  1  0  0  0  0
 11  7  2  0  0  0  0
 11  3  1  0  0  0  0
 12  5  1  0  0  0  0
 13  9  2  0  0  0  0
 14  6  1  0  0  0  0
 15 14  1  0  0  0  0
 16  3  1  0  0  0  0
 16 12  1  1  0  0  0
 17 20  1  0  0  0  0
 18 19  1  0  0  0  0
 18  8  1  0  0  0  0
 20 19  2  0  0  0  0
 21 17  2  0  0  0  0
 21 22  1  0  0  0  0
 22 18  2  0  0  0  0
 23 24  1  0  0  0  0
 27 25  1  0  0  0  0
 27 26  1  0  0  0  0
M  END
>  <MODEL>
4

>  <REMARK>
 VINA RESULT:      -6.4      1.654      2.004
  Name = 
  4 active torsions:
  status: ('A' for Active; 'I' for Inactive)
    1  A    between atoms: C_4  and  O_16
    2  A    between atoms: C_4  and  C_17
    3  A    between atoms: O_8  and  C_14
    4  A    between atoms: C_9  and  N_15
                            x       y       z     vdW  Elec       q    Type
                         _______ _______ _______ _____ _____    ______ ____

>  <TORSDO>
F 4

$$$$
=
 OpenBabel11052418293D

 27 30  0  0  1  0  0  0  0  0999 V2000
  188.4780  176.0570  142.9930 N   0  0  0  0  0  0  0  0  0  0  0  0
  190.1720  176.0070  144.7940 C   0  0  0  0  0  0  0  0  0  0  0  0
  190.4660  173.8880  143.5280 O   0  0  0  0  0  0  0  0  0  0  0  0
  190.7270  176.9310  145.6260 N   0  0  0  0  0  0  0  0  0  0  0  0
  189.5570  172.0060  141.4020 C   0  0  0  0  0  2  0  0  0  0  0  0
  188.9250  172.6120  140.1650 C   0  0  0  0  0  2  0  0  0  0  0  0
  192.3300  174.8460  144.7560 C   0  0  0  0  0  0  0  0  0  0  0  0
  188.8060  176.2160  144.3540 N   0  0  0  0  0  0  0  0  0  0  0  0
  192.8310  175.8220  145.6290 C   0  0  0  0  0  0  0  0  0  0  0  0
  188.6390  174.9310  142.3800 C   0  0  0  0  0  0  0  0  0  0  0  0
  190.9740  174.9140  144.3420 C   0  0  0  0  0  0  0  0  0  0  0  0
  188.7540  172.3730  142.6360 C   0  0  0  0  0  2  0  0  0  0  0  0
  192.0120  176.8610  146.0500 C   0  0  0  0  0  3  0  0  0  0  0  0
  189.2790  174.0820  140.0610 C   0  0  0  0  0  2  0  0  0  0  0  0
  188.4670  174.8900  140.9600 N   0  0  0  0  0  2  0  0  0  0  0  0
  189.1000  173.7540  143.1840 C   0  0  1  0  0  3  0  0  0  0  0  0
  185.9200  178.0860  146.8120 C   0  0  0  0  0  3  0  0  0  0  0  0
  187.8410  176.8560  145.2150 C   0  0  0  0  0  0  0  0  0  0  0  0
  187.4920  176.2990  146.4550 C   0  0  0  0  0  3  0  0  0  0  0  0
  186.5330  176.9160  147.2590 C   0  0  0  0  0  3  0  0  0  0  0  0
  186.2550  178.6120  145.6040 N   0  0  0  0  0  0  0  0  0  0  0  0
  187.1870  178.0260  144.8050 C   0  0  0  0  0  3  0  0  0  0  0  0
  193.2140  173.8320  144.3440 O   0  0  0  0  0  0  0  0  0  0  0  0
  193.3710  172.5700  144.9790 C   0  0  0  0  0  1  0  0  0  0  0  0
  194.2510  175.7930  146.0850 C   0  0  0  0  0  2  0  0  0  0  0  0
  195.6130  176.3500  144.4420 C   0  0  0  0  0  1  0  0  0  0  0  0
  194.9430  176.8770  145.5450 O   0  0  0  0  0  0  0  0  0  0  0  0
  1  8  1  0  0  0  0
  2  4  1  0  0  0  0
  3 11  1  0  0  0  0
  4 13  2  0  0  0  0
  5 12  1  0  0  0  0
  6  5  1  0  0  0  0
  7  9  2  0  0  0  0
  8  2  1  0  0  0  0
  8 18  1  0  0  0  0
  9 13  1  0  0  0  0
  9 25  1  0  0  0  0
 10  1  2  0  0  0  0
 10 16  1  0  0  0  0
 11  7  1  0  0  0  0
 11  2  2  0  0  0  0
 14  6  1  0  0  0  0
 14 15  1  0  0  0  0
 15 10  1  0  0  0  0
 16 12  1  6  0  0  0
 16  3  1  0  0  0  0
 17 20  1  0  0  0  0
 18 19  1  0  0  0  0
 19 20  2  0  0  0  0
 21 17  2  0  0  0  0
 22 18  2  0  0  0  0
 22 21  1  0  0  0  0
 23  7  1  0  0  0  0
 23 24  1  0  0  0  0
 26 27  1  0  0  0  0
 27 25  1  0  0  0  0
M  END
>  <MODEL>
5

>  <REMARK>
 VINA RESULT:      -6.4      2.817      7.168
  Name = 
  4 active torsions:
  status: ('A' for Active; 'I' for Inactive)
    1  A    between atoms: C_4  and  O_16
    2  A    between atoms: C_4  and  C_17
    3  A    between atoms: O_8  and  C_14
    4  A    between atoms: C_9  and  N_15
                            x       y       z     vdW  Elec       q    Type
                         _______ _______ _______ _____ _____    ______ ____

>  <TORSDO>
F 4

$$$$
=
 OpenBabel11052418293D

 27 30  0  0  1  0  0  0  0  0999 V2000
  188.2750  176.0490  144.9140 N   0  0  0  0  0  0  0  0  0  0  0  0
  188.6980  174.8140  142.8140 C   0  0  0  0  0  0  0  0  0  0  0  0
  190.9120  175.0480  143.9200 O   0  0  0  0  0  0  0  0  0  0  0  0
  187.9300  174.1300  141.9220 N   0  0  0  0  0  0  0  0  0  0  0  0
  192.5940  176.1620  146.1160 C   0  0  0  0  0  2  0  0  0  0  0  0
  191.9410  176.3230  147.4730 C   0  0  0  0  0  2  0  0  0  0  0  0
  190.5010  173.2120  142.3840 C   0  0  0  0  0  0  0  0  0  0  0  0
  188.0970  175.9280  143.5220 N   0  0  0  0  0  0  0  0  0  0  0  0
  189.6630  172.5670  141.4650 C   0  0  0  0  0  0  0  0  0  0  0  0
  189.4470  176.1790  145.4430 C   0  0  0  0  0  0  0  0  0  0  0  0
  190.0340  174.3690  143.0590 C   0  0  0  0  0  0  0  0  0  0  0  0
  191.8610  176.9920  145.0780 C   0  0  0  0  0  2  0  0  0  0  0  0
  188.3750  173.0410  141.2510 C   0  0  0  0  0  3  0  0  0  0  0  0
  190.6870  175.4750  147.5580 C   0  0  0  0  0  2  0  0  0  0  0  0
  189.5720  176.1060  146.8670 N   0  0  0  0  0  2  0  0  0  0  0  0
  190.6230  176.2950  144.5220 C   0  0  1  0  0  3  0  0  0  0  0  0
  185.1660  178.2910  141.6000 C   0  0  0  0  0  3  0  0  0  0  0  0
  187.0930  176.7500  142.8920 C   0  0  0  0  0  0  0  0  0  0  0  0
  185.7830  176.8080  143.3910 C   0  0  0  0  0  3  0  0  0  0  0  0
  184.8160  177.5820  142.7490 C   0  0  0  0  0  3  0  0  0  0  0  0
  186.4350  178.2200  141.1140 N   0  0  0  0  0  0  0  0  0  0  0  0
  187.3910  177.4700  141.7260 C   0  0  0  0  0  3  0  0  0  0  0  0
  191.7860  172.6710  142.5770 O   0  0  0  0  0  0  0  0  0  0  0  0
  192.1720  171.8350  143.6600 C   0  0  0  0  0  1  0  0  0  0  0  0
  190.1100  171.3440  140.7360 C   0  0  0  0  0  2  0  0  0  0  0  0
  189.8130  170.7590  138.6310 C   0  0  0  0  0  1  0  0  0  0  0  0
  190.4830  171.6800  139.4340 O   0  0  0  0  0  0  0  0  0  0  0  0
  1 10  2  0  0  0  0
  2 11  1  0  0  0  0
  2  8  1  0  0  0  0
  3 16  1  0  0  0  0
  4  2  2  0  0  0  0
  5  6  1  0  0  0  0
  6 14  1  0  0  0  0
  7 23  1  0  0  0  0
  7 11  2  0  0  0  0
  8  1  1  0  0  0  0
  9  7  1  0  0  0  0
 10 15  1  0  0  0  0
 11  3  1  0  0  0  0
 12  5  1  0  0  0  0
 13  9  2  0  0  0  0
 13  4  1  0  0  0  0
 15 14  1  0  0  0  0
 16 12  1  1  0  0  0
 16 10  1  0  0  0  0
 17 20  1  0  0  0  0
 18 19  1  0  0  0  0
 18  8  1  0  0  0  0
 20 19  2  0  0  0  0
 21 17  2  0  0  0  0
 21 22  1  0  0  0  0
 22 18  2  0  0  0  0
 23 24  1  0  0  0  0
 25  9  1  0  0  0  0
 26 27  1  0  0  0  0
 27 25  1  0  0  0  0
M  END
>  <MODEL>
6

>  <REMARK>
 VINA RESULT:      -6.2      2.505      5.581
  Name = 
  4 active torsions:
  status: ('A' for Active; 'I' for Inactive)
    1  A    between atoms: C_4  and  O_16
    2  A    between atoms: C_4  and  C_17
    3  A    between atoms: O_8  and  C_14
    4  A    between atoms: C_9  and  N_15
                            x       y       z     vdW  Elec       q    Type
                         _______ _______ _______ _____ _____    ______ ____

>  <TORSDO>
F 4

$$$$
=
 OpenBabel11052418293D

 27 30  0  0  1  0  0  0  0  0999 V2000
  191.3530  173.8080  144.1980 N   0  0  0  0  0  0  0  0  0  0  0  0
  189.9930  175.8730  144.2760 C   0  0  0  0  0  0  0  0  0  0  0  0
  189.5330  174.8420  142.0610 O   0  0  0  0  0  0  0  0  0  0  0  0
  189.5680  176.7150  145.2580 N   0  0  0  0  0  0  0  0  0  0  0  0
  190.1060  172.7410  140.0250 C   0  0  0  0  0  2  0  0  0  0  0  0
  190.5040  171.3710  140.5370 C   0  0  0  0  0  2  0  0  0  0  0  0
  187.8870  176.2950  143.0980 C   0  0  0  0  0  0  0  0  0  0  0  0
  191.2590  175.1890  144.4610 N   0  0  0  0  0  0  0  0  0  0  0  0
  187.5210  177.1640  144.1350 C   0  0  0  0  0  0  0  0  0  0  0  0
  191.1140  173.3200  143.0250 C   0  0  0  0  0  0  0  0  0  0  0  0
  189.1500  175.6500  143.1440 C   0  0  0  0  0  0  0  0  0  0  0  0
  191.1000  173.7860  140.4950 C   0  0  0  0  0  2  0  0  0  0  0  0
  188.3770  177.3570  145.2110 C   0  0  0  0  0  3  0  0  0  0  0  0
  190.1050  171.2170  141.9910 C   0  0  0  0  0  2  0  0  0  0  0  0
  191.0420  171.8990  142.8740 N   0  0  0  0  0  2  0  0  0  0  0  0
  190.8230  174.2790  141.9120 C   0  0  1  0  0  3  0  0  0  0  0  0
  194.4110  177.1150  146.5160 C   0  0  0  0  0  3  0  0  0  0  0  0
  192.3420  175.8200  145.1750 C   0  0  0  0  0  0  0  0  0  0  0  0
  192.4140  175.7740  146.5750 C   0  0  0  0  0  3  0  0  0  0  0  0
  193.4520  176.4180  147.2500 C   0  0  0  0  0  3  0  0  0  0  0  0
  194.3290  177.1650  145.1590 N   0  0  0  0  0  0  0  0  0  0  0  0
  193.3240  176.5440  144.4840 C   0  0  0  0  0  3  0  0  0  0  0  0
  186.9680  176.1200  142.0460 O   0  0  0  0  0  0  0  0  0  0  0  0
  187.0120  176.7920  140.7950 C   0  0  0  0  0  1  0  0  0  0  0  0
  186.2010  177.8590  144.1310 C   0  0  0  0  0  2  0  0  0  0  0  0
  185.5630  179.9670  144.2580 C   0  0  0  0  0  1  0  0  0  0  0  0
  186.3160  179.0890  143.4810 O   0  0  0  0  0  0  0  0  0  0  0  0
  1  8  1  0  0  0  0
  2  8  1  0  0  0  0
  2  4  1  0  0  0  0
  3 11  1  0  0  0  0
  5 12  1  0  0  0  0
  5  6  1  0  0  0  0
  6 14  1  0  0  0  0
  7 11  1  0  0  0  0
  7  9  2  0  0  0  0
  8 18  1  0  0  0  0
  9 13  1  0  0  0  0
 10  1  2  0  0  0  0
 11  2  2  0  0  0  0
 13  4  2  0  0  0  0
 14 15  1  0  0  0  0
 15 10  1  0  0  0  0
 16 12  1  6  0  0  0
 16  3  1  0  0  0  0
 16 10  1  0  0  0  0
 17 20  1  0  0  0  0
 18 19  1  0  0  0  0
 19 20  2  0  0  0  0
 21 17  2  0  0  0  0
 22 21  1  0  0  0  0
 22 18  2  0  0  0  0
 23  7  1  0  0  0  0
 24 23  1  0  0  0  0
 25  9  1  0  0  0  0
 27 25  1  0  0  0  0
 27 26  1  0  0  0  0
M  END
>  <MODEL>
7

>  <REMARK>
 VINA RESULT:      -6.1      2.168      5.372
  Name = 
  4 active torsions:
  status: ('A' for Active; 'I' for Inactive)
    1  A    between atoms: C_4  and  O_16
    2  A    between atoms: C_4  and  C_17
    3  A    between atoms: O_8  and  C_14
    4  A    between atoms: C_9  and  N_15
                            x       y       z     vdW  Elec       q    Type
                         _______ _______ _______ _____ _____    ______ ____

>  <TORSDO>
F 4

$$$$
=
 OpenBabel11052418293D

 27 30  0  0  1  0  0  0  0  0999 V2000
  188.9360  175.7330  142.3420 N   0  0  0  0  0  0  0  0  0  0  0  0
  190.7920  175.8720  143.9710 C   0  0  0  0  0  0  0  0  0  0  0  0
  191.1020  173.7160  142.7720 O   0  0  0  0  0  0  0  0  0  0  0  0
  191.3620  176.8660  144.7060 N   0  0  0  0  0  0  0  0  0  0  0  0
  190.1210  171.6830  140.8240 C   0  0  0  0  0  2  0  0  0  0  0  0
  189.3370  172.1900  139.6310 C   0  0  0  0  0  2  0  0  0  0  0  0
  193.0070  174.8430  143.7720 C   0  0  0  0  0  0  0  0  0  0  0  0
  189.3800  175.9760  143.6570 N   0  0  0  0  0  0  0  0  0  0  0  0
  193.5240  175.8870  144.5500 C   0  0  0  0  0  0  0  0  0  0  0  0
  189.1110  174.5900  141.7640 C   0  0  0  0  0  0  0  0  0  0  0  0
  191.6170  174.8090  143.4890 C   0  0  0  0  0  0  0  0  0  0  0  0
  189.4160  172.0590  142.1140 C   0  0  0  0  0  2  0  0  0  0  0  0
  192.6830  176.8950  145.0050 C   0  0  0  0  0  3  0  0  0  0  0  0
  189.5840  173.6720  139.4310 C   0  0  0  0  0  2  0  0  0  0  0  0
  188.8090  174.4710  140.3700 N   0  0  0  0  0  2  0  0  0  0  0  0
  189.7210  173.4840  142.5680 C   0  0  1  0  0  3  0  0  0  0  0  0
  186.6240  177.7860  146.3020 C   0  0  0  0  0  3  0  0  0  0  0  0
  188.4610  176.5970  144.5800 C   0  0  0  0  0  0  0  0  0  0  0  0
  188.2360  176.0560  145.8550 C   0  0  0  0  0  3  0  0  0  0  0  0
  187.3200  176.6520  146.7220 C   0  0  0  0  0  3  0  0  0  0  0  0
  186.8390  178.2970  145.0600 N   0  0  0  0  0  0  0  0  0  0  0  0
  187.7280  177.7300  144.2000 C   0  0  0  0  0  3  0  0  0  0  0  0
  193.9120  173.8650  143.3180 O   0  0  0  0  0  0  0  0  0  0  0  0
  194.4640  173.7990  142.0110 C   0  0  0  0  0  1  0  0  0  0  0  0
  194.9800  175.9670  144.8680 C   0  0  0  0  0  2  0  0  0  0  0  0
  196.1820  174.3720  145.8020 C   0  0  0  0  0  1  0  0  0  0  0  0
  195.2310  175.3480  146.0920 O   0  0  0  0  0  0  0  0  0  0  0  0
  1  8  1  0  0  0  0
  2  4  1  0  0  0  0
  3 11  1  0  0  0  0
  4 13  2  0  0  0  0
  5 12  1  0  0  0  0
  6  5  1  0  0  0  0
  7  9  2  0  0  0  0
  8  2  1  0  0  0  0
  8 18  1  0  0  0  0
  9 25  1  0  0  0  0
  9 13  1  0  0  0  0
 10  1  2  0  0  0  0
 10 16  1  0  0  0  0
 11  7  1  0  0  0  0
 11  2  2  0  0  0  0
 14  6  1  0  0  0  0
 14 15  1  0  0  0  0
 15 10  1  0  0  0  0
 16 12  1  6  0  0  0
 16  3  1  0  0  0  0
 17 20  1  0  0  0  0
 18 19  1  0  0  0  0
 19 20  2  0  0  0  0
 21 17  2  0  0  0  0
 22 18  2  0  0  0  0
 22 21  1  0  0  0  0
 23  7  1  0  0  0  0
 24 23  1  0  0  0  0
 25 27  1  0  0  0  0
 26 27  1  0  0  0  0
M  END
>  <MODEL>
8

>  <REMARK>
 VINA RESULT:      -6.1      2.946      7.319
  Name = 
  4 active torsions:
  status: ('A' for Active; 'I' for Inactive)
    1  A    between atoms: C_4  and  O_16
    2  A    between atoms: C_4  and  C_17
    3  A    between atoms: O_8  and  C_14
    4  A    between atoms: C_9  and  N_15
                            x       y       z     vdW  Elec       q    Type
                         _______ _______ _______ _____ _____    ______ ____

>  <TORSDO>
F 4

$$$$
=
 OpenBabel11052418293D

 27 30  0  0  1  0  0  0  0  0999 V2000
  190.7320  177.0670  142.9950 N   0  0  0  0  0  0  0  0  0  0  0  0
  191.1670  174.6360  142.8660 C   0  0  0  0  0  0  0  0  0  0  0  0
  188.7160  174.9030  142.5450 O   0  0  0  0  0  0  0  0  0  0  0  0
  192.2690  173.8590  142.6770 N   0  0  0  0  0  0  0  0  0  0  0  0
  186.2940  176.6420  142.5070 C   0  0  0  0  0  2  0  0  0  0  0  0
  186.4740  178.0680  142.0280 C   0  0  0  0  0  2  0  0  0  0  0  0
  189.8640  172.9690  141.6300 C   0  0  0  0  0  0  0  0  0  0  0  0
  191.3360  175.9140  143.5320 N   0  0  0  0  0  0  0  0  0  0  0  0
  191.0340  172.2100  141.4880 C   0  0  0  0  0  0  0  0  0  0  0  0
  189.4500  177.1640  142.8570 C   0  0  0  0  0  0  0  0  0  0  0  0
  189.9110  174.1920  142.3480 C   0  0  0  0  0  0  0  0  0  0  0  0
  187.1570  176.3850  143.7280 C   0  0  0  0  0  2  0  0  0  0  0  0
  192.2310  172.6770  142.0170 C   0  0  0  0  0  3  0  0  0  0  0  0
  187.7660  178.2020  141.2470 C   0  0  0  0  0  2  0  0  0  0  0  0
  188.9180  178.2780  142.1340 N   0  0  0  0  0  2  0  0  0  0  0  0
  188.6030  176.0430  143.3760 C   0  0  1  0  0  3  0  0  0  0  0  0
  194.2750  176.4990  146.5130 C   0  0  0  0  0  3  0  0  0  0  0  0
  192.3340  176.0850  144.5590 C   0  0  0  0  0  0  0  0  0  0  0  0
  192.0160  175.9220  145.9160 C   0  0  0  0  0  3  0  0  0  0  0  0
  192.9870  176.1240  146.8970 C   0  0  0  0  0  3  0  0  0  0  0  0
  194.5720  176.6670  145.1970 N   0  0  0  0  0  0  0  0  0  0  0  0
  193.6390  176.4750  144.2260 C   0  0  0  0  0  3  0  0  0  0  0  0
  188.6880  172.4580  141.0510 O   0  0  0  0  0  0  0  0  0  0  0  0
  188.1910  172.7960  139.7630 C   0  0  0  0  0  1  0  0  0  0  0  0
  191.0330  170.9210  140.7370 C   0  0  0  0  0  2  0  0  0  0  0  0
  191.6090  171.2030  138.6270 C   0  0  0  0  0  1  0  0  0  0  0  0
  192.1300  170.8750  139.8770 O   0  0  0  0  0  0  0  0  0  0  0  0
  1  8  1  0  0  0  0
  2  8  1  0  0  0  0
  3 16  1  0  0  0  0
  4  2  1  0  0  0  0
  5 12  1  0  0  0  0
  6  5  1  0  0  0  0
  7 11  1  0  0  0  0
  8 18  1  0  0  0  0
  9  7  2  0  0  0  0
  9 13  1  0  0  0  0
 10  1  2  0  0  0  0
 10 16  1  0  0  0  0
 11  3  1  0  0  0  0
 11  2  2  0  0  0  0
 13  4  2  0  0  0  0
 14  6  1  0  0  0  0
 14 15  1  0  0  0  0
 15 10  1  0  0  0  0
 16 12  1  6  0  0  0
 17 20  1  0  0  0  0
 18 19  1  0  0  0  0
 19 20  2  0  0  0  0
 21 17  2  0  0  0  0
 22 18  2  0  0  0  0
 22 21  1  0  0  0  0
 23  7  1  0  0  0  0
 24 23  1  0  0  0  0
 25  9  1  0  0  0  0
 26 27  1  0  0  0  0
 27 25  1  0  0  0  0
M  END
>  <MODEL>
9

>  <REMARK>
 VINA RESULT:      -5.8      2.478      6.725
  Name = 
  4 active torsions:
  status: ('A' for Active; 'I' for Inactive)
    1  A    between atoms: C_4  and  O_16
    2  A    between atoms: C_4  and  C_17
    3  A    between atoms: O_8  and  C_14
    4  A    between atoms: C_9  and  N_15
                            x       y       z     vdW  Elec       q    Type
                         _______ _______ _______ _____ _____    ______ ____

>  <TORSDO>
F 4

$$$$
