=
 OpenBabel11052418223D

 27 31  0  0  1  0  0  0  0  0999 V2000
  187.6860  177.9080  143.6750 C   0  0  2  0  0  3  0  0  0  0  0  0
  188.0650  176.3220  145.9900 C   0  0  2  0  0  3  0  0  0  0  0  0
  188.4280  176.5780  143.4300 C   0  0  1  0  0  3  0  0  0  0  0  0
  192.3460  176.4670  146.1100 C   0  0  0  0  0  3  0  0  0  0  0  0
  194.5410  175.8150  145.2620 N   0  0  0  0  0  1  0  0  0  0  0  0
  188.7630  177.5120  146.6530 C   0  0  0  0  0  2  0  0  0  0  0  0
  184.3670  178.6570  146.7810 O   0  0  0  0  0  0  0  0  0  0  0  0
  191.1180  175.1940  143.9480 C   0  0  0  0  0  3  0  0  0  0  0  0
  186.4530  177.7740  144.5910 C   0  0  1  0  0  3  0  0  0  0  0  0
  187.8790  174.8900  140.2730 O   0  0  0  0  0  1  0  0  0  0  0  0
  185.7450  176.7220  146.9150 C   0  0  0  0  0  2  0  0  0  0  0  0
  192.5100  175.1860  144.0640 C   0  0  0  0  0  3  0  0  0  0  0  0
  187.2320  177.6410  139.4380 F   0  0  0  0  0  0  0  0  0  0  0  0
  188.8280  175.8570  144.7300 C   0  0  1  0  0  3  0  0  0  0  0  0
  186.6070  176.6420  145.6480 C   0  0  2  0  0  3  0  0  0  0  0  0
  193.1230  175.8270  145.1420 C   0  0  0  0  0  0  0  0  0  0  0  0
  190.9520  176.4900  145.9970 C   0  0  0  0  0  0  0  0  0  0  0  0
  187.3810  178.6750  142.3830 C   0  0  0  0  0  2  0  0  0  0  0  0
  190.3280  175.8410  144.9070 C   0  0  0  0  0  0  0  0  0  0  0  0
  187.8540  176.0290  141.0770 C   0  0  1  0  0  3  0  0  0  0  0  0
  190.1560  177.1050  147.1090 C   0  0  0  0  0  2  0  0  0  0  0  0
  186.7730  176.9870  140.5660 C   0  0  1  0  0  3  0  0  0  0  0  0
  184.3490  177.2650  146.6430 C   0  0  0  0  0  2  0  0  0  0  0  0
  186.2630  178.0100  141.5840 C   0  0  0  0  0  2  0  0  0  0  0  0
  184.6040  179.1780  145.5040 C   0  0  0  0  0  2  0  0  0  0  0  0
  187.6580  175.6200  142.5290 C   0  0  0  0  0  2  0  0  0  0  0  0
  186.0920  179.1370  145.1790 C   0  0  0  0  0  2  0  0  0  0  0  0
  1 18  1  6  0  0  0
  1  9  1  0  0  0  0
  2  6  1  6  0  0  0
  3 26  1  6  0  0  0
  3  1  1  0  0  0  0
  3 14  1  0  0  0  0
  6 21  1  0  0  0  0
  8 12  2  0  0  0  0
  8 19  1  0  0  0  0
  9 27  1  1  0  0  0
  9 15  1  0  0  0  0
 12 16  1  0  0  0  0
 14 19  1  1  0  0  0
 14  2  1  0  0  0  0
 15  2  1  0  0  0  0
 15 11  1  1  0  0  0
 16  5  1  0  0  0  0
 16  4  2  0  0  0  0
 17  4  1  0  0  0  0
 17 21  1  0  0  0  0
 19 17  2  0  0  0  0
 20 10  1  6  0  0  0
 20 26  1  0  0  0  0
 22 13  1  6  0  0  0
 22 20  1  0  0  0  0
 22 24  1  0  0  0  0
 23  7  1  0  0  0  0
 23 11  1  0  0  0  0
 24 18  1  0  0  0  0
 25  7  1  0  0  0  0
 27 25  1  0  0  0  0
M  END
>  <MODEL>
1

>  <REMARK>
 VINA RESULT:      -9.3      0.000      0.000
  Name = 
  0 active torsions:
  status: ('A' for Active; 'I' for Inactive)
                            x       y       z     vdW  Elec       q    Type
                         _______ _______ _______ _____ _____    ______ ____

>  <TORSDO>
F 0

$$$$
=
 OpenBabel11052418223D

 27 31  0  0  1  0  0  0  0  0999 V2000
  189.8700  174.6320  144.0860 C   0  0  2  0  0  3  0  0  0  0  0  0
  190.5110  177.1970  145.0980 C   0  0  2  0  0  3  0  0  0  0  0  0
  188.9860  175.7750  143.5480 C   0  0  1  0  0  3  0  0  0  0  0  0
  186.8490  177.9380  147.1960 C   0  0  0  0  0  3  0  0  0  0  0  0
  184.4690  178.4800  147.2350 N   0  0  0  0  0  1  0  0  0  0  0  0
  190.3280  176.6500  146.5140 C   0  0  0  0  0  2  0  0  0  0  0  0
  194.3260  174.9190  145.2190 O   0  0  0  0  0  0  0  0  0  0  0  0
  186.7650  177.7100  144.4130 C   0  0  0  0  0  3  0  0  0  0  0  0
  191.3730  174.9700  144.1190 C   0  0  1  0  0  3  0  0  0  0  0  0
  187.7930  175.5320  140.1370 O   0  0  0  0  0  1  0  0  0  0  0  0
  193.0150  176.8830  144.9250 C   0  0  0  0  0  2  0  0  0  0  0  0
  185.6070  178.0360  145.1220 C   0  0  0  0  0  3  0  0  0  0  0  0
  188.2010  172.6660  140.6830 F   0  0  0  0  0  0  0  0  0  0  0  0
  189.1980  177.1080  144.2890 C   0  0  1  0  0  3  0  0  0  0  0  0
  191.6460  176.4830  144.3590 C   0  0  2  0  0  3  0  0  0  0  0  0
  185.6480  178.1440  146.5130 C   0  0  0  0  0  0  0  0  0  0  0  0
  188.0120  177.6000  146.4960 C   0  0  0  0  0  0  0  0  0  0  0  0
  189.5810  173.2820  143.4170 C   0  0  0  0  0  2  0  0  0  0  0  0
  187.9740  177.4910  145.0870 C   0  0  0  0  0  0  0  0  0  0  0  0
  188.3030  174.9630  141.3020 C   0  0  1  0  0  3  0  0  0  0  0  0
  189.2970  177.4840  147.2610 C   0  0  0  0  0  2  0  0  0  0  0  0
  189.0860  173.6940  140.9470 C   0  0  1  0  0  3  0  0  0  0  0  0
  194.1500  176.0260  144.3820 C   0  0  0  0  0  2  0  0  0  0  0  0
  190.1120  173.2380  141.9860 C   0  0  0  0  0  2  0  0  0  0  0  0
  193.5500  173.8870  144.6770 C   0  0  0  0  0  2  0  0  0  0  0  0
  189.1370  175.9950  142.0470 C   0  0  0  0  0  2  0  0  0  0  0  0
  192.0930  174.0400  145.0940 C   0  0  0  0  0  2  0  0  0  0  0  0
  1 18  1  6  0  0  0
  1  9  1  0  0  0  0
  2  6  1  1  0  0  0
  3 26  1  6  0  0  0
  3  1  1  0  0  0  0
  3 14  1  0  0  0  0
  6 21  1  0  0  0  0
  8 19  2  0  0  0  0
  8 12  1  0  0  0  0
  9 15  1  0  0  0  0
  9 27  1  1  0  0  0
 12 16  2  0  0  0  0
 14 19  1  1  0  0  0
 14  2  1  0  0  0  0
 15 11  1  1  0  0  0
 15  2  1  0  0  0  0
 16  4  1  0  0  0  0
 16  5  1  0  0  0  0
 17  4  2  0  0  0  0
 17 21  1  0  0  0  0
 19 17  1  0  0  0  0
 20 10  1  6  0  0  0
 20 26  1  0  0  0  0
 22 13  1  1  0  0  0
 22 20  1  0  0  0  0
 22 24  1  0  0  0  0
 23 11  1  0  0  0  0
 23  7  1  0  0  0  0
 24 18  1  0  0  0  0
 25 27  1  0  0  0  0
 25  7  1  0  0  0  0
M  END
>  <MODEL>
2

>  <REMARK>
 VINA RESULT:      -8.6      3.097      5.982
  Name = 
  0 active torsions:
  status: ('A' for Active; 'I' for Inactive)
                            x       y       z     vdW  Elec       q    Type
                         _______ _______ _______ _____ _____    ______ ____

>  <TORSDO>
F 0

$$$$
=
 OpenBabel11052418223D

 27 31  0  0  1  0  0  0  0  0999 V2000
  190.4780  174.3080  144.9360 C   0  0  2  0  0  3  0  0  0  0  0  0
  190.6730  177.1140  145.2590 C   0  0  2  0  0  3  0  0  0  0  0  0
  189.4660  175.1230  144.1060 C   0  0  1  0  0  3  0  0  0  0  0  0
  186.8280  177.7740  147.0320 C   0  0  0  0  0  3  0  0  0  0  0  0
  184.3960  177.9250  146.8880 N   0  0  0  0  0  1  0  0  0  0  0  0
  190.4930  176.9220  146.7660 C   0  0  0  0  0  2  0  0  0  0  0  0
  194.7700  175.5730  146.0320 O   0  0  0  0  0  0  0  0  0  0  0  0
  186.9380  176.8380  144.4010 C   0  0  0  0  0  3  0  0  0  0  0  0
  191.9110  174.8760  144.9060 C   0  0  1  0  0  3  0  0  0  0  0  0
  188.5200  173.8380  140.8540 O   0  0  0  0  0  1  0  0  0  0  0  0
  193.2020  177.1660  145.2160 C   0  0  0  0  0  2  0  0  0  0  0  0
  185.7060  177.1450  144.9820 C   0  0  0  0  0  3  0  0  0  0  0  0
  189.3160  171.3050  142.1320 F   0  0  0  0  0  0  0  0  0  0  0  0
  189.4360  176.6160  144.4790 C   0  0  1  0  0  3  0  0  0  0  0  0
  191.9420  176.4240  144.7500 C   0  0  2  0  0  3  0  0  0  0  0  0
  185.6510  177.6080  146.2980 C   0  0  0  0  0  0  0  0  0  0  0  0
  188.0660  177.4580  146.4620 C   0  0  0  0  0  0  0  0  0  0  0  0
  190.4310  172.8040  144.6360 C   0  0  0  0  0  2  0  0  0  0  0  0
  188.1250  176.9910  145.1300 C   0  0  0  0  0  0  0  0  0  0  0  0
  189.0420  173.6710  142.1360 C   0  0  1  0  0  3  0  0  0  0  0  0
  189.3080  177.7430  147.2530 C   0  0  0  0  0  2  0  0  0  0  0  0
  190.0220  172.4930  142.1350 C   0  0  1  0  0  3  0  0  0  0  0  0
  194.4800  176.3890  144.9330 C   0  0  0  0  0  2  0  0  0  0  0  0
  191.0440  172.4840  143.2740 C   0  0  0  0  0  2  0  0  0  0  0  0
  194.1890  174.3280  145.7630 C   0  0  0  0  0  2  0  0  0  0  0  0
  189.6690  174.9760  142.6020 C   0  0  0  0  0  2  0  0  0  0  0  0
  192.7030  174.3490  146.1010 C   0  0  0  0  0  2  0  0  0  0  0  0
  1 18  1  6  0  0  0
  2  6  1  1  0  0  0
  3 26  1  6  0  0  0
  3 14  1  0  0  0  0
  3  1  1  0  0  0  0
  6 21  1  0  0  0  0
  8 12  2  0  0  0  0
  8 19  1  0  0  0  0
  9  1  1  0  0  0  0
  9 27  1  1  0  0  0
 12 16  1  0  0  0  0
 14 19  1  1  0  0  0
 14  2  1  0  0  0  0
 15  9  1  0  0  0  0
 15 11  1  1  0  0  0
 15  2  1  0  0  0  0
 16  5  1  0  0  0  0
 16  4  2  0  0  0  0
 17  4  1  0  0  0  0
 17 21  1  0  0  0  0
 19 17  2  0  0  0  0
 20 10  1  6  0  0  0
 20 26  1  0  0  0  0
 22 13  1  1  0  0  0
 22 20  1  0  0  0  0
 22 24  1  0  0  0  0
 23 11  1  0  0  0  0
 23  7  1  0  0  0  0
 24 18  1  0  0  0  0
 25  7  1  0  0  0  0
 25 27  1  0  0  0  0
M  END
>  <MODEL>
3

>  <REMARK>
 VINA RESULT:      -8.6      3.404      6.290
  Name = 
  0 active torsions:
  status: ('A' for Active; 'I' for Inactive)
                            x       y       z     vdW  Elec       q    Type
                         _______ _______ _______ _____ _____    ______ ____

>  <TORSDO>
F 0

$$$$
=
 OpenBabel11052418223D

 27 31  0  0  1  0  0  0  0  0999 V2000
  189.2980  176.2340  143.7630 C   0  0  2  0  0  3  0  0  0  0  0  0
  189.6970  175.5310  146.4760 C   0  0  2  0  0  3  0  0  0  0  0  0
  189.9900  174.8730  143.9800 C   0  0  1  0  0  3  0  0  0  0  0  0
  193.9830  175.5340  146.4640 C   0  0  0  0  0  3  0  0  0  0  0  0
  196.1280  174.5400  145.8550 N   0  0  0  0  0  1  0  0  0  0  0  0
  190.4520  176.8460  146.6740 C   0  0  0  0  0  2  0  0  0  0  0  0
  186.1020  178.1440  146.4750 O   0  0  0  0  0  0  0  0  0  0  0  0
  192.6480  173.6430  144.8970 C   0  0  0  0  0  3  0  0  0  0  0  0
  188.0900  176.4750  144.6900 C   0  0  1  0  0  3  0  0  0  0  0  0
  189.2910  172.2230  141.6120 O   0  0  0  0  0  1  0  0  0  0  0  0
  187.4200  176.3190  147.2460 C   0  0  0  0  0  2  0  0  0  0  0  0
  194.0420  173.6200  144.9840 C   0  0  0  0  0  3  0  0  0  0  0  0
  188.7080  174.5400  139.8880 F   0  0  0  0  0  0  0  0  0  0  0  0
  190.4060  174.6280  145.4420 C   0  0  1  0  0  3  0  0  0  0  0  0
  188.2410  175.7720  146.0700 C   0  0  2  0  0  3  0  0  0  0  0  0
  194.7090  174.5680  145.7630 C   0  0  0  0  0  0  0  0  0  0  0  0
  192.5870  175.5720  146.3740 C   0  0  0  0  0  0  0  0  0  0  0  0
  188.9800  176.5200  142.2900 C   0  0  0  0  0  2  0  0  0  0  0  0
  191.9090  174.6140  145.5870 C   0  0  0  0  0  0  0  0  0  0  0  0
  189.3270  173.5690  141.9720 C   0  0  1  0  0  3  0  0  0  0  0  0
  191.8450  176.5650  147.2190 C   0  0  0  0  0  2  0  0  0  0  0  0
  188.2620  174.3350  141.1800 C   0  0  1  0  0  3  0  0  0  0  0  0
  186.0350  176.7910  146.8270 C   0  0  0  0  0  2  0  0  0  0  0  0
  187.8170  175.6660  141.7900 C   0  0  0  0  0  2  0  0  0  0  0  0
  186.3160  178.1810  145.0930 C   0  0  0  0  0  2  0  0  0  0  0  0
  189.1620  173.6940  143.4800 C   0  0  0  0  0  2  0  0  0  0  0  0
  187.7920  177.9700  144.7760 C   0  0  0  0  0  2  0  0  0  0  0  0
  1 18  1  6  0  0  0
  1  3  1  0  0  0  0
  1  9  1  0  0  0  0
  2  6  1  6  0  0  0
  3 26  1  1  0  0  0
  3 14  1  0  0  0  0
  6 21  1  0  0  0  0
  7 23  1  0  0  0  0
  8 12  2  0  0  0  0
  8 19  1  0  0  0  0
  9 27  1  1  0  0  0
  9 15  1  0  0  0  0
 12 16  1  0  0  0  0
 14 19  1  6  0  0  0
 14  2  1  0  0  0  0
 15  2  1  0  0  0  0
 15 11  1  1  0  0  0
 16  5  1  0  0  0  0
 16  4  2  0  0  0  0
 17  4  1  0  0  0  0
 17 21  1  0  0  0  0
 19 17  2  0  0  0  0
 20 10  1  1  0  0  0
 20 26  1  0  0  0  0
 22 13  1  6  0  0  0
 22 24  1  0  0  0  0
 22 20  1  0  0  0  0
 23 11  1  0  0  0  0
 24 18  1  0  0  0  0
 25  7  1  0  0  0  0
 27 25  1  0  0  0  0
M  END
>  <MODEL>
4

>  <REMARK>
 VINA RESULT:      -8.5      1.754      2.335
  Name = 
  0 active torsions:
  status: ('A' for Active; 'I' for Inactive)
                            x       y       z     vdW  Elec       q    Type
                         _______ _______ _______ _____ _____    ______ ____

>  <TORSDO>
F 0

$$$$
=
 OpenBabel11052418223D

 27 31  0  0  1  0  0  0  0  0999 V2000
  188.5670  175.8360  145.3780 C   0  0  2  0  0  3  0  0  0  0  0  0
  188.0810  176.9580  142.8240 C   0  0  2  0  0  3  0  0  0  0  0  0
  189.8220  176.0020  144.4990 C   0  0  1  0  0  3  0  0  0  0  0  0
  189.2290  173.5710  140.4630 C   0  0  0  0  0  3  0  0  0  0  0  0
  190.9220  172.0830  139.5250 N   0  0  0  0  0  1  0  0  0  0  0  0
  187.0680  175.8430  142.5600 C   0  0  0  0  0  2  0  0  0  0  0  0
  184.8810  178.6000  145.4360 O   0  0  0  0  0  0  0  0  0  0  0  0
  191.1820  174.8440  142.0030 C   0  0  0  0  0  3  0  0  0  0  0  0
  187.6290  177.0600  145.3630 C   0  0  1  0  0  3  0  0  0  0  0  0
  192.9500  176.7910  146.1470 O   0  0  0  0  0  1  0  0  0  0  0  0
  186.4590  178.7110  143.6570 C   0  0  0  0  0  2  0  0  0  0  0  0
  191.5370  173.7910  141.1560 C   0  0  0  0  0  3  0  0  0  0  0  0
  191.5660  175.4830  148.3960 F   0  0  0  0  0  0  0  0  0  0  0  0
  189.4990  176.3860  143.0430 C   0  0  1  0  0  3  0  0  0  0  0  0
  187.6640  177.8300  144.0120 C   0  0  2  0  0  3  0  0  0  0  0  0
  190.5600  173.1520  140.3910 C   0  0  0  0  0  0  0  0  0  0  0  0
  188.8630  174.6170  141.3160 C   0  0  0  0  0  0  0  0  0  0  0  0
  188.8850  175.3510  146.7980 C   0  0  0  0  0  2  0  0  0  0  0  0
  189.8500  175.2670  142.0920 C   0  0  0  0  0  0  0  0  0  0  0  0
  191.6470  176.2950  146.1580 C   0  0  1  0  0  3  0  0  0  0  0  0
  187.4410  175.0960  141.2880 C   0  0  0  0  0  2  0  0  0  0  0  0
  191.0540  176.4590  147.5620 C   0  0  1  0  0  3  0  0  0  0  0  0
  185.8680  179.4160  144.8700 C   0  0  0  0  0  2  0  0  0  0  0  0
  189.5260  176.4540  147.6380 C   0  0  0  0  0  2  0  0  0  0  0  0
  185.5150  177.8450  146.4290 C   0  0  0  0  0  2  0  0  0  0  0  0
  190.8320  176.9880  145.0760 C   0  0  0  0  0  2  0  0  0  0  0  0
  186.2300  176.6480  145.8150 C   0  0  0  0  0  2  0  0  0  0  0  0
  1 18  1  1  0  0  0
  2  6  1  1  0  0  0
  2 14  1  0  0  0  0
  2 15  1  0  0  0  0
  3 26  1  1  0  0  0
  3  1  1  0  0  0  0
  4 17  1  0  0  0  0
  5 16  1  0  0  0  0
  7 25  1  0  0  0  0
  8 19  1  0  0  0  0
  9  1  1  0  0  0  0
  9 27  1  6  0  0  0
 11 23  1  0  0  0  0
 12  8  2  0  0  0  0
 14 19  1  6  0  0  0
 14  3  1  0  0  0  0
 15 11  1  6  0  0  0
 15  9  1  0  0  0  0
 16  4  2  0  0  0  0
 16 12  1  0  0  0  0
 17 19  2  0  0  0  0
 18 24  1  0  0  0  0
 20 10  1  1  0  0  0
 20 22  1  0  0  0  0
 21 17  1  0  0  0  0
 21  6  1  0  0  0  0
 22 24  1  0  0  0  0
 22 13  1  1  0  0  0
 23  7  1  0  0  0  0
 26 20  1  0  0  0  0
 27 25  1  0  0  0  0
M  END
>  <MODEL>
5

>  <REMARK>
 VINA RESULT:      -8.1      3.286      5.143
  Name = 
  0 active torsions:
  status: ('A' for Active; 'I' for Inactive)
                            x       y       z     vdW  Elec       q    Type
                         _______ _______ _______ _____ _____    ______ ____

>  <TORSDO>
F 0

$$$$
=
 OpenBabel11052418223D

 27 31  0  0  1  0  0  0  0  0999 V2000
  191.3070  176.0840  143.8400 C   0  0  2  0  0  3  0  0  0  0  0  0
  188.9410  174.7240  143.0830 C   0  0  2  0  0  3  0  0  0  0  0  0
  190.1950  176.0830  144.9080 C   0  0  1  0  0  3  0  0  0  0  0  0
  186.2930  178.0930  143.0940 C   0  0  0  0  0  3  0  0  0  0  0  0
  184.9850  179.7900  144.2630 N   0  0  0  0  0  1  0  0  0  0  0  0
  188.8570  175.6220  141.8480 C   0  0  0  0  0  2  0  0  0  0  0  0
  192.2010  172.7220  140.8190 O   0  0  0  0  0  0  0  0  0  0  0  0
  187.4400  177.2930  145.5140 C   0  0  0  0  0  3  0  0  0  0  0  0
  191.5210  174.7150  143.1630 C   0  0  1  0  0  3  0  0  0  0  0  0
  191.1910  175.9730  148.3890 O   0  0  0  0  0  1  0  0  0  0  0  0
  190.1420  172.7720  142.0110 C   0  0  0  0  0  2  0  0  0  0  0  0
  186.5070  178.3320  145.4930 C   0  0  0  0  0  3  0  0  0  0  0  0
  193.6350  177.1640  147.2520 F   0  0  0  0  0  0  0  0  0  0  0  0
  188.8480  175.5510  144.3840 C   0  0  1  0  0  3  0  0  0  0  0  0
  190.2150  173.8740  143.0760 C   0  0  2  0  0  3  0  0  0  0  0  0
  185.9380  178.7350  144.2830 C   0  0  0  0  0  0  0  0  0  0  0  0
  187.2350  177.0580  143.1040 C   0  0  0  0  0  0  0  0  0  0  0  0
  192.6160  176.7120  144.3330 C   0  0  0  0  0  2  0  0  0  0  0  0
  187.8120  176.6470  144.3270 C   0  0  0  0  0  0  0  0  0  0  0  0
  191.4540  176.2300  147.0440 C   0  0  1  0  0  3  0  0  0  0  0  0
  187.5130  176.3350  141.8190 C   0  0  0  0  0  2  0  0  0  0  0  0
  192.9540  176.0590  146.7780 C   0  0  1  0  0  3  0  0  0  0  0  0
  191.4700  172.0580  141.8110 C   0  0  0  0  0  2  0  0  0  0  0  0
  193.3400  175.7990  145.3200 C   0  0  0  0  0  2  0  0  0  0  0  0
  193.0200  173.6420  141.4830 C   0  0  0  0  0  2  0  0  0  0  0  0
  190.5830  175.3330  146.1770 C   0  0  0  0  0  2  0  0  0  0  0  0
  192.2370  174.9030  141.8270 C   0  0  0  0  0  2  0  0  0  0  0  0
  1 18  1  1  0  0  0
  1  3  1  0  0  0  0
  2  6  1  6  0  0  0
  2 14  1  0  0  0  0
  3 26  1  1  0  0  0
  4 17  2  0  0  0  0
  4 16  1  0  0  0  0
  5 16  1  0  0  0  0
  7 25  1  0  0  0  0
  7 23  1  0  0  0  0
  9 27  1  6  0  0  0
  9  1  1  0  0  0  0
 12  8  1  0  0  0  0
 14 19  1  6  0  0  0
 14  3  1  0  0  0  0
 15 11  1  6  0  0  0
 15  2  1  0  0  0  0
 15  9  1  0  0  0  0
 16 12  2  0  0  0  0
 17 19  1  0  0  0  0
 18 24  1  0  0  0  0
 19  8  2  0  0  0  0
 20 10  1  1  0  0  0
 21  6  1  0  0  0  0
 21 17  1  0  0  0  0
 22 20  1  0  0  0  0
 22 13  1  6  0  0  0
 23 11  1  0  0  0  0
 24 22  1  0  0  0  0
 25 27  1  0  0  0  0
 26 20  1  0  0  0  0
M  END
>  <MODEL>
6

>  <REMARK>
 VINA RESULT:      -8.1      3.621      7.163
  Name = 
  0 active torsions:
  status: ('A' for Active; 'I' for Inactive)
                            x       y       z     vdW  Elec       q    Type
                         _______ _______ _______ _____ _____    ______ ____

>  <TORSDO>
F 0

$$$$
=
 OpenBabel11052418223D

 27 31  0  0  1  0  0  0  0  0999 V2000
  189.0430  174.7140  144.1300 C   0  0  2  0  0  3  0  0  0  0  0  0
  189.1020  177.5370  144.3300 C   0  0  2  0  0  3  0  0  0  0  0  0
  189.1150  175.4530  142.7790 C   0  0  1  0  0  3  0  0  0  0  0  0
  185.3690  178.3450  142.3860 C   0  0  0  0  0  3  0  0  0  0  0  0
  183.9760  178.4810  140.3860 N   0  0  0  0  0  1  0  0  0  0  0  0
  187.8020  177.4770  145.1340 C   0  0  0  0  0  2  0  0  0  0  0  0
  190.9480  176.0730  148.0990 O   0  0  0  0  0  0  0  0  0  0  0  0
  187.4250  177.1850  140.8910 C   0  0  0  0  0  3  0  0  0  0  0  0
  189.9970  175.2780  145.2020 C   0  0  1  0  0  3  0  0  0  0  0  0
  190.9730  173.8900  140.0910 O   0  0  0  0  0  1  0  0  0  0  0  0
  190.7140  177.5870  146.2790 C   0  0  0  0  0  2  0  0  0  0  0  0
  186.2250  177.5410  140.2710 C   0  0  0  0  0  3  0  0  0  0  0  0
  190.3030  171.4780  141.6460 F   0  0  0  0  0  0  0  0  0  0  0  0
  188.9050  176.9730  142.9060 C   0  0  1  0  0  3  0  0  0  0  0  0
  190.2420  176.8070  145.0440 C   0  0  2  0  0  3  0  0  0  0  0  0
  185.1960  178.1150  141.0190 C   0  0  0  0  0  0  0  0  0  0  0  0
  186.5630  177.9830  143.0180 C   0  0  0  0  0  0  0  0  0  0  0  0
  189.1470  173.1900  143.9900 C   0  0  0  0  0  2  0  0  0  0  0  0
  187.6070  177.4010  142.2640 C   0  0  0  0  0  0  0  0  0  0  0  0
  190.2870  173.8350  141.3040 C   0  0  1  0  0  3  0  0  0  0  0  0
  186.7400  178.3370  144.4650 C   0  0  0  0  0  2  0  0  0  0  0  0
  190.8200  172.6630  142.1350 C   0  0  1  0  0  3  0  0  0  0  0  0
  191.6780  176.7910  147.1450 C   0  0  0  0  0  2  0  0  0  0  0  0
  190.5680  172.7530  143.6420 C   0  0  0  0  0  2  0  0  0  0  0  0
  190.7110  174.8090  147.5450 C   0  0  0  0  0  2  0  0  0  0  0  0
  190.4040  175.1760  142.0130 C   0  0  0  0  0  2  0  0  0  0  0  0
  189.5230  174.8580  146.5920 C   0  0  0  0  0  2  0  0  0  0  0  0
  1 18  1  6  0  0  0
  1  9  1  0  0  0  0
  2 15  1  0  0  0  0
  2  6  1  1  0  0  0
  3 26  1  1  0  0  0
  3 14  1  0  0  0  0
  3  1  1  0  0  0  0
  4 17  1  0  0  0  0
  5 16  1  0  0  0  0
  8 19  1  0  0  0  0
  9 27  1  1  0  0  0
 11 23  1  0  0  0  0
 12  8  2  0  0  0  0
 12 16  1  0  0  0  0
 14 19  1  1  0  0  0
 14  2  1  0  0  0  0
 15  9  1  0  0  0  0
 15 11  1  1  0  0  0
 16  4  2  0  0  0  0
 17 21  1  0  0  0  0
 19 17  2  0  0  0  0
 20 10  1  6  0  0  0
 20 26  1  0  0  0  0
 20 22  1  0  0  0  0
 21  6  1  0  0  0  0
 22 13  1  6  0  0  0
 22 24  1  0  0  0  0
 23  7  1  0  0  0  0
 24 18  1  0  0  0  0
 25  7  1  0  0  0  0
 27 25  1  0  0  0  0
M  END
>  <MODEL>
7

>  <REMARK>
 VINA RESULT:      -7.6      3.477      5.893
  Name = 
  0 active torsions:
  status: ('A' for Active; 'I' for Inactive)
                            x       y       z     vdW  Elec       q    Type
                         _______ _______ _______ _____ _____    ______ ____

>  <TORSDO>
F 0

$$$$
=
 OpenBabel11052418223D

 27 31  0  0  1  0  0  0  0  0999 V2000
  187.8650  175.1290  142.5620 C   0  0  2  0  0  3  0  0  0  0  0  0
  187.9060  177.9110  143.0860 C   0  0  2  0  0  3  0  0  0  0  0  0
  187.3110  176.0060  141.4220 C   0  0  1  0  0  3  0  0  0  0  0  0
  183.6730  178.5790  143.0640 C   0  0  0  0  0  3  0  0  0  0  0  0
  181.5400  178.7950  141.8950 N   0  0  0  0  0  1  0  0  0  0  0  0
  187.0940  177.6530  144.3560 C   0  0  0  0  0  2  0  0  0  0  0  0
  191.2680  176.2370  145.4630 O   0  0  0  0  0  0  0  0  0  0  0  0
  184.9050  177.7650  140.6910 C   0  0  0  0  0  3  0  0  0  0  0  0
  189.1710  175.6630  143.1820 C   0  0  1  0  0  3  0  0  0  0  0  0
  187.8570  174.8990  138.0170 O   0  0  0  0  0  1  0  0  0  0  0  0
  190.2070  177.9040  144.1370 C   0  0  0  0  0  2  0  0  0  0  0  0
  183.5430  178.0750  140.7010 C   0  0  0  0  0  3  0  0  0  0  0  0
  188.0210  172.2900  139.3770 F   0  0  0  0  0  0  0  0  0  0  0  0
  187.1250  177.4800  141.8250 C   0  0  1  0  0  3  0  0  0  0  0  0
  189.2690  177.2150  143.1370 C   0  0  2  0  0  3  0  0  0  0  0  0
  182.9260  178.4760  141.8870 C   0  0  0  0  0  0  0  0  0  0  0  0
  185.0350  178.2610  143.0670 C   0  0  0  0  0  0  0  0  0  0  0  0
  187.9510  173.6430  142.1920 C   0  0  0  0  0  2  0  0  0  0  0  0
  185.6620  177.8550  141.8670 C   0  0  0  0  0  0  0  0  0  0  0  0
  187.7750  174.6590  139.3870 C   0  0  1  0  0  3  0  0  0  0  0  0
  185.8160  178.4790  144.3290 C   0  0  0  0  0  2  0  0  0  0  0  0
  188.6590  173.4590  139.7460 C   0  0  1  0  0  3  0  0  0  0  0  0
  191.4810  177.1120  144.3910 C   0  0  0  0  0  2  0  0  0  0  0  0
  189.0890  173.3720  141.2120 C   0  0  0  0  0  2  0  0  0  0  0  0
  190.8570  175.0210  144.9050 C   0  0  0  0  0  2  0  0  0  0  0  0
  188.1420  175.9250  140.1460 C   0  0  0  0  0  2  0  0  0  0  0  0
  189.3710  175.0620  144.5720 C   0  0  0  0  0  2  0  0  0  0  0  0
  1 18  1  6  0  0  0
  1  9  1  0  0  0  0
  2 15  1  0  0  0  0
  2  6  1  1  0  0  0
  3 26  1  6  0  0  0
  3 14  1  0  0  0  0
  3  1  1  0  0  0  0
  4 17  1  0  0  0  0
  8 12  2  0  0  0  0
  8 19  1  0  0  0  0
  9 27  1  1  0  0  0
 11 23  1  0  0  0  0
 12 16  1  0  0  0  0
 14 19  1  1  0  0  0
 14  2  1  0  0  0  0
 15  9  1  0  0  0  0
 15 11  1  1  0  0  0
 16  5  1  0  0  0  0
 16  4  2  0  0  0  0
 17 21  1  0  0  0  0
 19 17  2  0  0  0  0
 20 10  1  6  0  0  0
 20 22  1  0  0  0  0
 20 26  1  0  0  0  0
 21  6  1  0  0  0  0
 22 13  1  1  0  0  0
 22 24  1  0  0  0  0
 23  7  1  0  0  0  0
 24 18  1  0  0  0  0
 25  7  1  0  0  0  0
 27 25  1  0  0  0  0
M  END
>  <MODEL>
8

>  <REMARK>
 VINA RESULT:      -7.5      3.612      6.333
  Name = 
  0 active torsions:
  status: ('A' for Active; 'I' for Inactive)
                            x       y       z     vdW  Elec       q    Type
                         _______ _______ _______ _____ _____    ______ ____

>  <TORSDO>
F 0

$$$$
=
 OpenBabel11052418223D

 27 31  0  0  1  0  0  0  0  0999 V2000
  189.9520  176.2530  143.2320 C   0  0  2  0  0  3  0  0  0  0  0  0
  191.4500  175.3640  145.4640 C   0  0  2  0  0  3  0  0  0  0  0  0
  190.9100  175.0800  142.9390 C   0  0  1  0  0  3  0  0  0  0  0  0
  195.3470  176.3910  144.0080 C   0  0  0  0  0  3  0  0  0  0  0  0
  197.2560  176.0130  142.5340 N   0  0  0  0  0  1  0  0  0  0  0  0
  191.9720  176.7900  145.6430 C   0  0  0  0  0  2  0  0  0  0  0  0
  187.6990  177.0260  147.1750 O   0  0  0  0  0  0  0  0  0  0  0  0
  193.8950  174.4260  142.6530 C   0  0  0  0  0  3  0  0  0  0  0  0
  189.1520  176.0920  144.5400 C   0  0  1  0  0  3  0  0  0  0  0  0
  189.8780  172.6250  140.4850 O   0  0  0  0  0  1  0  0  0  0  0  0
  189.5180  175.4940  147.0920 C   0  0  0  0  0  2  0  0  0  0  0  0
  195.2010  174.7250  142.2590 C   0  0  0  0  0  3  0  0  0  0  0  0
  188.2860  174.9150  139.5350 F   0  0  0  0  0  0  0  0  0  0  0  0
  191.8760  174.7790  144.0990 C   0  0  1  0  0  3  0  0  0  0  0  0
  189.9290  175.2950  145.6270 C   0  0  2  0  0  3  0  0  0  0  0  0
  195.9240  175.7110  142.9330 C   0  0  0  0  0  0  0  0  0  0  0  0
  194.0360  176.1050  144.4030 C   0  0  0  0  0  0  0  0  0  0  0  0
  189.0640  176.6190  142.0360 C   0  0  0  0  0  2  0  0  0  0  0  0
  193.3010  175.1070  143.7240 C   0  0  0  0  0  0  0  0  0  0  0  0
  189.8000  173.8910  141.0620 C   0  0  1  0  0  3  0  0  0  0  0  0
  193.4930  176.7900  145.6220 C   0  0  0  0  0  2  0  0  0  0  0  0
  188.3970  174.4650  140.8370 C   0  0  1  0  0  3  0  0  0  0  0  0
  188.0160  175.6660  147.2640 C   0  0  0  0  0  2  0  0  0  0  0  0
  187.9750  175.5740  141.8040 C   0  0  0  0  0  2  0  0  0  0  0  0
  187.3760  177.2700  145.8350 C   0  0  0  0  0  2  0  0  0  0  0  0
  190.1850  173.8020  142.5310 C   0  0  0  0  0  2  0  0  0  0  0  0
  188.6400  177.4540  145.0060 C   0  0  0  0  0  2  0  0  0  0  0  0
  1 18  1  6  0  0  0
  1  9  1  0  0  0  0
  2 15  1  0  0  0  0
  2  6  1  6  0  0  0
  3 26  1  1  0  0  0
  3  1  1  0  0  0  0
  3 14  1  0  0  0  0
  4 17  1  0  0  0  0
  5 16  1  0  0  0  0
  7 23  1  0  0  0  0
  8 19  1  0  0  0  0
  9 27  1  1  0  0  0
  9 15  1  0  0  0  0
 11 23  1  0  0  0  0
 12  8  2  0  0  0  0
 12 16  1  0  0  0  0
 14 19  1  6  0  0  0
 14  2  1  0  0  0  0
 15 11  1  1  0  0  0
 16  4  2  0  0  0  0
 17 21  1  0  0  0  0
 19 17  2  0  0  0  0
 20 10  1  1  0  0  0
 20 26  1  0  0  0  0
 21  6  1  0  0  0  0
 22 13  1  6  0  0  0
 22 20  1  0  0  0  0
 22 24  1  0  0  0  0
 24 18  1  0  0  0  0
 25  7  1  0  0  0  0
 27 25  1  0  0  0  0
M  END
>  <MODEL>
9

>  <REMARK>
 VINA RESULT:      -7.2      2.117      3.339
  Name = 
  0 active torsions:
  status: ('A' for Active; 'I' for Inactive)
                            x       y       z     vdW  Elec       q    Type
                         _______ _______ _______ _____ _____    ______ ____

>  <TORSDO>
F 0

$$$$
