=
 OpenBabel11052421383D

 32 36  0  0  1  0  0  0  0  0999 V2000
  185.0650  179.1610  143.1750 N   0  0  0  0  0  0  0  0  0  0  0  0
  188.6710  175.6290  143.7640 C   0  0  0  0  0  0  0  0  0  0  0  0
  191.2710  177.0590  147.6740 O   0  0  0  0  0  0  0  0  0  0  0  0
  191.3330  175.7250  148.1270 C   0  0  0  0  0  2  0  0  0  0  0  0
  189.5140  173.5370  142.5730 C   0  0  0  0  0  0  0  0  0  0  0  0
  190.3190  172.3860  142.5560 C   0  0  2  0  0  3  0  0  0  0  0  0
  186.8750  176.9520  142.9210 C   0  0  0  0  0  0  0  0  0  0  0  0
  188.1650  177.7640  144.7890 C   0  0  0  0  0  3  0  0  0  0  0  0
  186.3370  179.2280  143.9060 C   0  0  0  0  0  2  0  0  0  0  0  0
  190.0580  177.2080  146.9690 C   0  0  0  0  0  2  0  0  0  0  0  0
  188.9360  176.5950  144.7570 C   0  0  0  0  0  0  0  0  0  0  0  0
  190.1270  176.4100  145.6630 C   0  0  2  0  0  3  0  0  0  0  0  0
  190.3420  174.0770  144.7840 C   0  0  0  0  0  0  0  0  0  0  0  0
  185.2390  178.5210  141.8620 C   0  0  0  0  0  2  0  0  0  0  0  0
  187.1160  177.9390  143.8900 C   0  0  0  0  0  0  0  0  0  0  0  0
  185.7220  177.0720  141.9760 C   0  0  0  0  0  2  0  0  0  0  0  0
  191.4990  174.7640  146.9470 C   0  0  0  0  0  2  0  0  0  0  0  0
  190.2930  174.9320  146.0240 C   0  0  1  0  0  3  0  0  0  0  0  0
  191.1020  172.9520  144.7540 N   0  0  0  0  0  0  0  0  0  0  0  0
  187.6440  175.8310  142.8910 N   0  0  0  0  0  0  0  0  0  0  0  0
  188.8030  173.7980  141.5650 O   0  0  0  0  0  0  0  0  0  0  0  0
  189.5080  174.3930  143.6940 C   0  0  0  0  0  0  0  0  0  0  0  0
  191.1270  172.1090  143.6900 C   0  0  0  0  0  0  0  0  0  0  0  0
  192.0520  170.9410  143.7630 C   0  0  0  0  0  2  0  0  0  0  0  0
  193.3170  171.3260  144.5080 C   0  0  0  0  0  1  0  0  0  0  0  0
  191.1630  171.6540  140.3000 C   0  0  0  0  0  1  0  0  0  0  0  0
  190.2690  171.5820  141.4020 O   0  0  0  0  0  0  0  0  0  0  0  0
  184.0760  178.4490  143.9780 C   0  0  0  0  0  2  0  0  0  0  0  0
  184.5160  178.0620  146.4280 C   0  0  0  0  0  0  0  0  0  0  0  0
  184.1320  178.9190  145.3540 N   0  0  0  0  0  2  0  0  0  0  0  0
  184.8030  176.8540  146.2150 O   0  0  0  0  0  0  0  0  0  0  0  0
  184.5770  178.5660  147.7200 O   0  0  0  0  0  1  0  0  0  0  0  0
  1  9  1  0  0  0  0
  1 28  1  0  0  0  0
  2 11  1  0  0  0  0
  3  4  1  0  0  0  0
  5 22  1  0  0  0  0
  6 27  1  6  0  0  0
  6  5  1  0  0  0  0
  6 23  1  0  0  0  0
  7 15  2  0  0  0  0
 10  3  1  0  0  0  0
 11  8  2  0  0  0  0
 11 12  1  0  0  0  0
 12 18  1  0  0  0  0
 12 10  1  1  0  0  0
 13 18  1  0  0  0  0
 14 16  1  0  0  0  0
 14  1  1  0  0  0  0
 15  9  1  0  0  0  0
 15  8  1  0  0  0  0
 16  7  1  0  0  0  0
 17  4  1  0  0  0  0
 18 17  1  6  0  0  0
 19 13  1  0  0  0  0
 20  7  1  0  0  0  0
 20  2  2  0  0  0  0
 21  5  2  0  0  0  0
 22  2  1  0  0  0  0
 22 13  2  0  0  0  0
 23 24  1  0  0  0  0
 23 19  2  0  0  0  0
 24 25  1  0  0  0  0
 26 27  1  0  0  0  0
 28 30  1  0  0  0  0
 29 32  1  0  0  0  0
 30 29  1  0  0  0  0
 31 29  2  0  0  0  0
M  END
>  <MODEL>
1

>  <REMARK>
 VINA RESULT:      -7.7      0.000      0.000
  Name = 
  4 active torsions:
  status: ('A' for Active; 'I' for Inactive)
    1  A    between atoms: N_2  and  C_24
    2  A    between atoms: C_7  and  O_22
    3  A    between atoms: N_10  and  C_24
    4  A    between atoms: C_11  and  C_32
                            x       y       z     vdW  Elec       q    Type
                         _______ _______ _______ _____ _____    ______ ____

>  <TORSDO>
F 4

$$$$
=
 OpenBabel11052421383D

 32 36  0  0  1  0  0  0  0  0999 V2000
  192.7290  174.5770  145.8970 N   0  0  0  0  0  0  0  0  0  0  0  0
  188.4610  176.4260  143.8480 C   0  0  0  0  0  0  0  0  0  0  0  0
  185.8440  178.1530  147.6250 O   0  0  0  0  0  0  0  0  0  0  0  0
  185.4800  179.2830  146.8630 C   0  0  0  0  0  2  0  0  0  0  0  0
  187.3360  176.5600  141.5630 C   0  0  0  0  0  0  0  0  0  0  0  0
  186.3270  177.0710  140.7310 C   0  0  2  0  0  3  0  0  0  0  0  0
  190.5510  175.3310  144.1900 C   0  0  0  0  0  0  0  0  0  0  0  0
  189.2790  176.0710  146.1000 C   0  0  0  0  0  3  0  0  0  0  0  0
  191.4320  174.8670  146.5240 C   0  0  0  0  0  2  0  0  0  0  0  0
  187.1210  177.7460  147.1890 C   0  0  0  0  0  2  0  0  0  0  0  0
  188.3000  176.5860  145.2410 C   0  0  0  0  0  0  0  0  0  0  0  0
  187.0180  177.1770  145.7700 C   0  0  2  0  0  3  0  0  0  0  0  0
  186.4310  177.8200  143.4240 C   0  0  0  0  0  0  0  0  0  0  0  0
  192.5540  173.8900  144.6080 C   0  0  0  0  0  2  0  0  0  0  0  0
  190.4200  175.4640  145.5810 C   0  0  0  0  0  0  0  0  0  0  0  0
  191.7870  174.7400  143.5900 C   0  0  0  0  0  2  0  0  0  0  0  0
  185.2370  178.8900  145.4030 C   0  0  0  0  0  2  0  0  0  0  0  0
  186.5320  178.2990  144.8490 C   0  0  1  0  0  3  0  0  0  0  0  0
  185.4710  178.3130  142.5990 N   0  0  0  0  0  0  0  0  0  0  0  0
  189.5830  175.8200  143.3690 N   0  0  0  0  0  0  0  0  0  0  0  0
  188.1740  175.7530  141.0790 O   0  0  0  0  0  0  0  0  0  0  0  0
  187.4080  176.9380  142.9200 C   0  0  0  0  0  0  0  0  0  0  0  0
  185.3790  177.9690  141.2890 C   0  0  0  0  0  0  0  0  0  0  0  0
  184.2400  178.5360  140.5100 C   0  0  0  0  0  2  0  0  0  0  0  0
  182.9290  178.2280  141.2090 C   0  0  0  0  0  1  0  0  0  0  0  0
  187.0110  177.2800  138.3170 C   0  0  0  0  0  1  0  0  0  0  0  0
  186.3240  176.6480  139.3880 O   0  0  0  0  0  0  0  0  0  0  0  0
  193.4810  175.8180  145.7320 C   0  0  0  0  0  2  0  0  0  0  0  0
  195.5290  175.7990  144.2660 C   0  0  0  0  0  0  0  0  0  0  0  0
  194.8850  175.5130  145.5070 N   0  0  0  0  0  2  0  0  0  0  0  0
  194.8860  176.3120  143.3130 O   0  0  0  0  0  0  0  0  0  0  0  0
  196.8780  175.5110  144.1110 O   0  0  0  0  0  1  0  0  0  0  0  0
  1  9  1  0  0  0  0
  2 11  1  0  0  0  0
  4  3  1  0  0  0  0
  5 22  1  0  0  0  0
  6 27  1  1  0  0  0
  6 23  1  0  0  0  0
  6  5  1  0  0  0  0
  7 15  2  0  0  0  0
 10  3  1  0  0  0  0
 11 12  1  0  0  0  0
 11  8  2  0  0  0  0
 12 10  1  1  0  0  0
 13 18  1  0  0  0  0
 14  1  1  0  0  0  0
 15  8  1  0  0  0  0
 15  9  1  0  0  0  0
 16  7  1  0  0  0  0
 16 14  1  0  0  0  0
 17  4  1  0  0  0  0
 18 17  1  1  0  0  0
 18 12  1  0  0  0  0
 19 13  1  0  0  0  0
 20  2  2  0  0  0  0
 20  7  1  0  0  0  0
 21  5  2  0  0  0  0
 22 13  2  0  0  0  0
 22  2  1  0  0  0  0
 23 19  2  0  0  0  0
 24 25  1  0  0  0  0
 24 23  1  0  0  0  0
 26 27  1  0  0  0  0
 28  1  1  0  0  0  0
 29 30  1  0  0  0  0
 30 28  1  0  0  0  0
 31 29  2  0  0  0  0
 32 29  1  0  0  0  0
M  END
>  <MODEL>
2

>  <REMARK>
 VINA RESULT:      -7.5      2.668      7.448
  Name = 
  4 active torsions:
  status: ('A' for Active; 'I' for Inactive)
    1  A    between atoms: N_2  and  C_24
    2  A    between atoms: C_7  and  O_22
    3  A    between atoms: N_10  and  C_24
    4  A    between atoms: C_11  and  C_32
                            x       y       z     vdW  Elec       q    Type
                         _______ _______ _______ _____ _____    ______ ____

>  <TORSDO>
F 4

$$$$
=
 OpenBabel11052421383D

 32 36  0  0  1  0  0  0  0  0999 V2000
  190.4680  172.5240  139.6910 N   0  0  0  0  0  0  0  0  0  0  0  0
  188.6440  175.3170  143.5250 C   0  0  0  0  0  0  0  0  0  0  0  0
  191.9920  174.9720  147.0980 O   0  0  0  0  0  0  0  0  0  0  0  0
  191.8390  176.3450  147.3820 C   0  0  0  0  0  2  0  0  0  0  0  0
  186.5400  176.6400  144.0970 C   0  0  0  0  0  0  0  0  0  0  0  0
  185.8570  177.5400  144.9310 C   0  0  2  0  0  3  0  0  0  0  0  0
  188.8940  174.1230  141.4760 C   0  0  0  0  0  0  0  0  0  0  0  0
  190.5340  173.8330  143.2200 C   0  0  0  0  0  3  0  0  0  0  0  0
  190.8130  172.5010  141.1190 C   0  0  0  0  0  2  0  0  0  0  0  0
  191.7420  174.7970  145.7210 C   0  0  0  0  0  2  0  0  0  0  0  0
  189.8380  174.7490  144.0180 C   0  0  0  0  0  0  0  0  0  0  0  0
  190.2560  175.0360  145.4380 C   0  0  2  0  0  3  0  0  0  0  0  0
  188.4900  176.8070  145.5250 C   0  0  0  0  0  0  0  0  0  0  0  0
  189.0120  172.5970  139.4960 C   0  0  0  0  0  2  0  0  0  0  0  0
  190.0810  173.5330  141.9370 C   0  0  0  0  0  0  0  0  0  0  0  0
  188.4070  173.8760  140.0840 C   0  0  0  0  0  2  0  0  0  0  0  0
  190.3720  176.7620  147.2410 C   0  0  0  0  0  2  0  0  0  0  0  0
  189.9360  176.4880  145.8020 C   0  0  1  0  0  3  0  0  0  0  0  0
  187.8170  177.6870  146.3100 N   0  0  0  0  0  0  0  0  0  0  0  0
  188.2210  174.9980  142.2690 N   0  0  0  0  0  0  0  0  0  0  0  0
  185.9410  176.1610  143.0970 O   0  0  0  0  0  0  0  0  0  0  0  0
  187.8720  176.2700  144.3780 C   0  0  0  0  0  0  0  0  0  0  0  0
  186.5360  178.0630  146.0630 C   0  0  0  0  0  0  0  0  0  0  0  0
  185.8940  178.9900  147.0400 C   0  0  0  0  0  2  0  0  0  0  0  0
  186.7500  179.1040  148.2880 C   0  0  0  0  0  1  0  0  0  0  0  0
  184.1220  178.9980  143.8330 C   0  0  0  0  0  1  0  0  0  0  0  0
  184.5320  177.8620  144.5820 O   0  0  0  0  0  0  0  0  0  0  0  0
  191.1420  173.6460  139.0430 C   0  0  0  0  0  2  0  0  0  0  0  0
  190.9820  173.6530  136.5300 C   0  0  0  0  0  0  0  0  0  0  0  0
  191.6250  173.2380  137.7340 N   0  0  0  0  0  2  0  0  0  0  0  0
  189.9540  174.3800  136.5690 O   0  0  0  0  0  1  0  0  0  0  0  0
  191.4970  173.2550  135.3040 O   0  0  0  0  0  0  0  0  0  0  0  0
  1  9  1  0  0  0  0
  2 11  1  0  0  0  0
  2 22  1  0  0  0  0
  3  4  1  0  0  0  0
  5 22  1  0  0  0  0
  5  6  1  0  0  0  0
  6 27  1  1  0  0  0
  6 23  1  0  0  0  0
  7 15  2  0  0  0  0
  7 20  1  0  0  0  0
  8 11  2  0  0  0  0
  9 15  1  0  0  0  0
 10  3  1  0  0  0  0
 11 12  1  0  0  0  0
 12 10  1  6  0  0  0
 12 18  1  0  0  0  0
 13 18  1  0  0  0  0
 13 19  1  0  0  0  0
 14  1  1  0  0  0  0
 14 16  1  0  0  0  0
 15  8  1  0  0  0  0
 16  7  1  0  0  0  0
 17  4  1  0  0  0  0
 18 17  1  1  0  0  0
 20  2  2  0  0  0  0
 21  5  2  0  0  0  0
 22 13  2  0  0  0  0
 23 19  2  0  0  0  0
 23 24  1  0  0  0  0
 24 25  1  0  0  0  0
 26 27  1  0  0  0  0
 28  1  1  0  0  0  0
 29 31  1  0  0  0  0
 29 30  1  0  0  0  0
 30 28  1  0  0  0  0
 32 29  2  0  0  0  0
M  END
>  <MODEL>
3

>  <REMARK>
 VINA RESULT:      -7.3      2.804      7.354
  Name = 
  4 active torsions:
  status: ('A' for Active; 'I' for Inactive)
    1  A    between atoms: N_2  and  C_24
    2  A    between atoms: C_7  and  O_22
    3  A    between atoms: N_10  and  C_24
    4  A    between atoms: C_11  and  C_32
                            x       y       z     vdW  Elec       q    Type
                         _______ _______ _______ _____ _____    ______ ____

>  <TORSDO>
F 4

$$$$
=
 OpenBabel11052421383D

 32 36  0  0  1  0  0  0  0  0999 V2000
  185.1580  177.8760  146.8580 N   0  0  0  0  0  0  0  0  0  0  0  0
  189.5290  176.2580  144.8350 C   0  0  0  0  0  0  0  0  0  0  0  0
  188.2390  173.3040  141.1330 O   0  0  0  0  0  0  0  0  0  0  0  0
  189.2610  173.8530  140.3310 C   0  0  0  0  0  2  0  0  0  0  0  0
  192.0330  176.4480  145.2850 C   0  0  0  0  0  0  0  0  0  0  0  0
  193.3620  176.2500  144.8760 C   0  0  2  0  0  3  0  0  0  0  0  0
  187.8910  177.2590  146.2470 C   0  0  0  0  0  0  0  0  0  0  0  0
  187.1850  175.7470  144.5070 C   0  0  0  0  0  3  0  0  0  0  0  0
  185.4240  176.7130  146.0000 C   0  0  0  0  0  2  0  0  0  0  0  0
  187.8070  174.3160  142.0150 C   0  0  0  0  0  2  0  0  0  0  0  0
  188.5190  175.5880  144.1130 C   0  0  0  0  0  0  0  0  0  0  0  0
  188.9120  174.6120  143.0330 C   0  0  2  0  0  3  0  0  0  0  0  0
  191.2560  175.4720  143.2080 C   0  0  0  0  0  0  0  0  0  0  0  0
  186.1770  178.0070  147.9100 C   0  0  0  0  0  2  0  0  0  0  0  0
  186.8600  176.6010  145.5580 C   0  0  0  0  0  0  0  0  0  0  0  0
  187.5810  178.2310  147.3410 C   0  0  0  0  0  2  0  0  0  0  0  0
  190.5100  174.1350  141.1720 C   0  0  0  0  0  2  0  0  0  0  0  0
  190.1310  175.1320  142.2650 C   0  0  1  0  0  3  0  0  0  0  0  0
  192.5480  175.3020  142.8260 N   0  0  0  0  0  0  0  0  0  0  0  0
  189.1830  177.0810  145.8640 N   0  0  0  0  0  0  0  0  0  0  0  0
  191.8130  176.9610  146.4150 O   0  0  0  0  0  0  0  0  0  0  0  0
  190.9610  176.0700  144.4490 C   0  0  0  0  0  0  0  0  0  0  0  0
  193.5990  175.6580  143.6080 C   0  0  0  0  0  0  0  0  0  0  0  0
  194.9680  175.3610  143.0920 C   0  0  0  0  0  2  0  0  0  0  0  0
  195.2780  176.2470  141.9000 C   0  0  0  0  0  1  0  0  0  0  0  0
  195.0050  177.9290  145.7830 C   0  0  0  0  0  1  0  0  0  0  0  0
  194.3760  176.6550  145.7650 O   0  0  0  0  0  0  0  0  0  0  0  0
  185.0930  179.0830  146.0380 C   0  0  0  0  0  2  0  0  0  0  0  0
  184.5010  178.8730  143.5990 C   0  0  0  0  0  0  0  0  0  0  0  0
  184.1190  178.9000  144.9730 N   0  0  0  0  0  2  0  0  0  0  0  0
  185.7050  179.0260  143.2640 O   0  0  0  0  0  1  0  0  0  0  0  0
  183.5360  178.6720  142.6220 O   0  0  0  0  0  0  0  0  0  0  0  0
  1 14  1  0  0  0  0
  2 20  1  0  0  0  0
  3 10  1  0  0  0  0
  4  3  1  0  0  0  0
  4 17  1  0  0  0  0
  5 21  2  0  0  0  0
  6  5  1  0  0  0  0
  6 27  1  1  0  0  0
  7 16  1  0  0  0  0
  8 15  2  0  0  0  0
  9  1  1  0  0  0  0
 11  8  1  0  0  0  0
 11  2  2  0  0  0  0
 12 10  1  6  0  0  0
 12 11  1  0  0  0  0
 13 22  2  0  0  0  0
 15  9  1  0  0  0  0
 15  7  1  0  0  0  0
 16 14  1  0  0  0  0
 18 17  1  6  0  0  0
 18 12  1  0  0  0  0
 18 13  1  0  0  0  0
 19 13  1  0  0  0  0
 19 23  2  0  0  0  0
 20  7  2  0  0  0  0
 22  2  1  0  0  0  0
 22  5  1  0  0  0  0
 23  6  1  0  0  0  0
 24 23  1  0  0  0  0
 25 24  1  0  0  0  0
 27 26  1  0  0  0  0
 28  1  1  0  0  0  0
 29 30  1  0  0  0  0
 30 28  1  0  0  0  0
 31 29  1  0  0  0  0
 32 29  2  0  0  0  0
M  END
>  <MODEL>
4

>  <REMARK>
 VINA RESULT:      -7.2      2.703      4.905
  Name = 
  4 active torsions:
  status: ('A' for Active; 'I' for Inactive)
    1  A    between atoms: N_2  and  C_24
    2  A    between atoms: C_7  and  O_22
    3  A    between atoms: N_10  and  C_24
    4  A    between atoms: C_11  and  C_32
                            x       y       z     vdW  Elec       q    Type
                         _______ _______ _______ _____ _____    ______ ____

>  <TORSDO>
F 4

$$$$
=
 OpenBabel11052421383D

 32 36  0  0  1  0  0  0  0  0999 V2000
  192.2300  172.1420  140.9630 N   0  0  0  0  0  0  0  0  0  0  0  0
  189.2240  175.2330  143.6530 C   0  0  0  0  0  0  0  0  0  0  0  0
  191.4380  175.7430  148.0040 O   0  0  0  0  0  0  0  0  0  0  0  0
  191.1250  177.1190  148.0080 C   0  0  0  0  0  2  0  0  0  0  0  0
  186.9660  176.3940  143.4120 C   0  0  0  0  0  0  0  0  0  0  0  0
  186.0200  177.3240  143.8720 C   0  0  0  0  0  0  0  0  0  0  0  0
  190.1180  173.7990  141.9710 C   0  0  0  0  0  0  0  0  0  0  0  0
  191.2120  173.9280  144.1160 C   0  0  0  0  0  3  0  0  0  0  0  0
  192.1570  172.3550  142.4150 C   0  0  0  0  0  2  0  0  0  0  0  0
  191.6000  175.3530  146.6590 C   0  0  0  0  0  2  0  0  0  0  0  0
  190.2630  174.8690  144.5360 C   0  0  0  0  0  0  0  0  0  0  0  0
  190.2430  175.3920  145.9500 C   0  0  2  0  0  3  0  0  0  0  0  0
  188.4170  176.9620  145.2660 C   0  0  0  0  0  0  0  0  0  0  0  0
  190.8880  172.0340  140.3730 C   0  0  0  0  0  2  0  0  0  0  0  0
  191.1600  173.4070  142.8260 C   0  0  0  0  0  0  0  0  0  0  0  0
  190.0620  173.3110  140.5590 C   0  0  0  0  0  2  0  0  0  0  0  0
  189.7350  177.3550  147.4110 C   0  0  0  0  0  2  0  0  0  0  0  0
  189.7430  176.8390  145.9730 C   0  0  1  0  0  3  0  0  0  0  0  0
  187.4960  177.8670  145.6870 N   0  0  0  0  0  0  0  0  0  0  0  0
  189.1950  174.7000  142.3990 N   0  0  0  0  0  0  0  0  0  0  0  0
  186.7060  175.7200  142.3790 O   0  0  0  0  0  0  0  0  0  0  0  0
  188.1840  176.2090  144.0990 C   0  0  1  0  0  3  0  0  0  0  0  0
  186.3160  178.0680  145.0440 C   0  0  0  0  0  0  0  0  0  0  0  0
  185.3670  179.0490  145.6470 C   0  0  0  0  0  2  0  0  0  0  0  0
  184.3530  178.3260  146.5130 C   0  0  0  0  0  1  0  0  0  0  0  0
  184.6290  178.3240  142.0270 C   0  0  0  0  0  1  0  0  0  0  0  0
  184.8300  177.4530  143.1310 O   0  0  0  0  0  0  0  0  0  0  0  0
  192.9880  173.2280  140.3470 C   0  0  0  0  0  2  0  0  0  0  0  0
  194.5750  174.7080  141.6260 C   0  0  0  0  0  0  0  0  0  0  0  0
  194.2270  173.4370  141.0790 N   0  0  0  0  0  2  0  0  0  0  0  0
  193.8170  175.7010  141.4740 O   0  0  0  0  0  0  0  0  0  0  0  0
  195.7590  174.8490  142.3370 O   0  0  0  0  0  1  0  0  0  0  0  0
  1  9  1  0  0  0  0
  2 22  1  0  0  0  0
  2 11  1  0  0  0  0
  3  4  1  0  0  0  0
  5  6  1  0  0  0  0
  6 23  2  0  0  0  0
  7 20  1  0  0  0  0
  7 15  2  0  0  0  0
  8 11  2  0  0  0  0
  9 15  1  0  0  0  0
 10  3  1  0  0  0  0
 11 12  1  0  0  0  0
 12 18  1  0  0  0  0
 12 10  1  6  0  0  0
 13 19  2  0  0  0  0
 13 18  1  0  0  0  0
 14 16  1  0  0  0  0
 14  1  1  0  0  0  0
 15  8  1  0  0  0  0
 16  7  1  0  0  0  0
 17  4  1  0  0  0  0
 18 17  1  1  0  0  0
 20  2  2  0  0  0  0
 21  5  2  0  0  0  0
 22  5  1  1  0  0  0
 22 13  1  0  0  0  0
 23 24  1  0  0  0  0
 23 19  1  0  0  0  0
 24 25  1  0  0  0  0
 26 27  1  0  0  0  0
 27  6  1  0  0  0  0
 28  1  1  0  0  0  0
 28 30  1  0  0  0  0
 29 32  1  0  0  0  0
 30 29  1  0  0  0  0
 31 29  2  0  0  0  0
M  END
>  <MODEL>
5

>  <REMARK>
 VINA RESULT:      -7.1      2.485      7.258
  Name = 
  4 active torsions:
  status: ('A' for Active; 'I' for Inactive)
    1  A    between atoms: N_2  and  C_24
    2  A    between atoms: C_7  and  O_22
    3  A    between atoms: N_10  and  C_24
    4  A    between atoms: C_11  and  C_32
                            x       y       z     vdW  Elec       q    Type
                         _______ _______ _______ _____ _____    ______ ____

>  <TORSDO>
F 4

$$$$
=
 OpenBabel11052421383D

 32 36  0  0  1  0  0  0  0  0999 V2000
  185.6660  178.5700  141.8660 N   0  0  0  0  0  0  0  0  0  0  0  0
  189.6300  175.6680  143.1660 C   0  0  0  0  0  0  0  0  0  0  0  0
  190.9210  177.1610  147.6600 O   0  0  0  0  0  0  0  0  0  0  0  0
  191.1240  175.8220  148.0530 C   0  0  0  0  0  2  0  0  0  0  0  0
  191.1080  173.8680  142.1250 C   0  0  0  0  0  0  0  0  0  0  0  0
  192.0950  172.8780  142.2560 C   0  0  2  0  0  3  0  0  0  0  0  0
  187.8680  176.7350  141.9660 C   0  0  0  0  0  0  0  0  0  0  0  0
  188.5060  177.5830  144.1320 C   0  0  0  0  0  3  0  0  0  0  0  0
  186.6950  178.7870  142.8920 C   0  0  0  0  0  2  0  0  0  0  0  0
  189.9030  177.1640  146.6840 C   0  0  0  0  0  2  0  0  0  0  0  0
  189.4680  176.5710  144.2370 C   0  0  0  0  0  0  0  0  0  0  0  0
  190.4250  176.5110  145.4010 C   0  0  2  0  0  3  0  0  0  0  0  0
  191.2750  174.3380  144.4960 C   0  0  0  0  0  0  0  0  0  0  0  0
  186.2610  178.0900  140.6090 C   0  0  0  0  0  2  0  0  0  0  0  0
  187.6840  177.6560  143.0090 C   0  0  0  0  0  0  0  0  0  0  0  0
  186.9670  176.7410  140.7720 C   0  0  0  0  0  2  0  0  0  0  0  0
  191.7420  175.0140  146.9070 C   0  0  0  0  0  2  0  0  0  0  0  0
  190.7770  175.0560  145.7230 C   0  0  1  0  0  3  0  0  0  0  0  0
  192.2190  173.3670  144.6030 N   0  0  0  0  0  0  0  0  0  0  0  0
  188.8180  175.7690  142.0770 N   0  0  0  0  0  0  0  0  0  0  0  0
  190.6180  174.0930  140.9860 O   0  0  0  0  0  0  0  0  0  0  0  0
  190.6770  174.6040  143.2490 C   0  0  0  0  0  0  0  0  0  0  0  0
  192.6510  172.6410  143.5400 C   0  0  0  0  0  0  0  0  0  0  0  0
  193.7360  171.6470  143.7870 C   0  0  0  0  0  2  0  0  0  0  0  0
  194.8370  172.2750  144.6210 C   0  0  0  0  0  1  0  0  0  0  0  0
  192.0880  170.8580  140.7510 C   0  0  0  0  0  1  0  0  0  0  0  0
  192.4700  172.1840  141.0890 O   0  0  0  0  0  0  0  0  0  0  0  0
  184.6680  177.6290  142.3660 C   0  0  0  0  0  2  0  0  0  0  0  0
  182.4560  178.2900  141.3590 C   0  0  0  0  0  0  0  0  0  0  0  0
  183.3740  178.2870  142.4510 N   0  0  0  0  0  2  0  0  0  0  0  0
  182.7520  177.7310  140.2700 O   0  0  0  0  0  0  0  0  0  0  0  0
  181.2230  178.9120  141.4990 O   0  0  0  0  0  1  0  0  0  0  0  0
  1 28  1  0  0  0  0
  1  9  1  0  0  0  0
  2 22  1  0  0  0  0
  2 11  1  0  0  0  0
  3  4  1  0  0  0  0
  5  6  1  0  0  0  0
  5 22  1  0  0  0  0
  6 27  1  6  0  0  0
  6 23  1  0  0  0  0
  7 20  1  0  0  0  0
  7 15  2  0  0  0  0
  8 11  2  0  0  0  0
  9 15  1  0  0  0  0
 10  3  1  0  0  0  0
 11 12  1  0  0  0  0
 12 18  1  0  0  0  0
 12 10  1  1  0  0  0
 13 19  1  0  0  0  0
 13 18  1  0  0  0  0
 14 16  1  0  0  0  0
 14  1  1  0  0  0  0
 15  8  1  0  0  0  0
 16  7  1  0  0  0  0
 17  4  1  0  0  0  0
 18 17  1  1  0  0  0
 20  2  2  0  0  0  0
 21  5  2  0  0  0  0
 22 13  2  0  0  0  0
 23 24  1  0  0  0  0
 23 19  2  0  0  0  0
 24 25  1  0  0  0  0
 26 27  1  0  0  0  0
 28 30  1  0  0  0  0
 29 32  1  0  0  0  0
 29 30  1  0  0  0  0
 31 29  2  0  0  0  0
M  END
>  <MODEL>
6

>  <REMARK>
 VINA RESULT:      -7.0      2.187      2.384
  Name = 
  4 active torsions:
  status: ('A' for Active; 'I' for Inactive)
    1  A    between atoms: N_2  and  C_24
    2  A    between atoms: C_7  and  O_22
    3  A    between atoms: N_10  and  C_24
    4  A    between atoms: C_11  and  C_32
                            x       y       z     vdW  Elec       q    Type
                         _______ _______ _______ _____ _____    ______ ____

>  <TORSDO>
F 4

$$$$
=
 OpenBabel11052421383D

 32 36  0  0  1  0  0  0  0  0999 V2000
  186.3730  178.4720  143.5780 N   0  0  0  0  0  0  0  0  0  0  0  0
  188.7840  174.6610  141.2370 C   0  0  0  0  0  0  0  0  0  0  0  0
  191.8970  172.8440  144.5700 O   0  0  0  0  0  0  0  0  0  0  0  0
  191.5810  171.5330  144.1580 C   0  0  0  0  0  2  0  0  0  0  0  0
  188.9000  173.6060  138.9180 C   0  0  0  0  0  0  0  0  0  0  0  0
  189.3220  172.5670  138.0720 C   0  0  2  0  0  3  0  0  0  0  0  0
  187.4240  176.5580  141.7200 C   0  0  0  0  0  0  0  0  0  0  0  0
  188.9950  175.7790  143.3750 C   0  0  0  0  0  3  0  0  0  0  0  0
  187.6440  177.8160  143.9130 C   0  0  0  0  0  2  0  0  0  0  0  0
  190.7480  173.6370  144.3660 C   0  0  0  0  0  2  0  0  0  0  0  0
  189.3790  174.7430  142.5140 C   0  0  0  0  0  0  0  0  0  0  0  0
  190.5060  173.8050  142.8630 C   0  0  2  0  0  3  0  0  0  0  0  0
  189.9670  172.5050  140.7930 C   0  0  0  0  0  0  0  0  0  0  0  0
  186.2770  178.7430  142.1360 C   0  0  0  0  0  2  0  0  0  0  0  0
  188.0000  176.6760  142.9940 C   0  0  0  0  0  0  0  0  0  0  0  0
  186.3110  177.4630  141.2960 C   0  0  0  0  0  2  0  0  0  0  0  0
  191.3900  171.4790  142.6390 C   0  0  0  0  0  2  0  0  0  0  0  0
  190.2420  172.4170  142.2720 C   0  0  1  0  0  3  0  0  0  0  0  0
  190.3540  171.5030  139.9610 N   0  0  0  0  0  0  0  0  0  0  0  0
  187.8200  175.5580  140.8890 N   0  0  0  0  0  0  0  0  0  0  0  0
  188.2470  174.5650  138.4250 O   0  0  0  0  0  0  0  0  0  0  0  0
  189.2090  173.5820  140.2940 C   0  0  0  0  0  0  0  0  0  0  0  0
  190.0690  171.4990  138.6330 C   0  0  0  0  0  0  0  0  0  0  0  0
  190.6060  170.3670  137.8220 C   0  0  0  0  0  2  0  0  0  0  0  0
  190.0880  169.0480  138.3640 C   0  0  0  0  0  1  0  0  0  0  0  0
  189.7230  173.3290  135.7060 C   0  0  0  0  0  1  0  0  0  0  0  0
  188.9730  172.6620  136.7110 O   0  0  0  0  0  0  0  0  0  0  0  0
  185.2600  177.6420  144.0310 C   0  0  0  0  0  2  0  0  0  0  0  0
  185.0020  177.7490  146.5340 C   0  0  0  0  0  0  0  0  0  0  0  0
  184.6720  178.2210  145.2280 N   0  0  0  0  0  2  0  0  0  0  0  0
  185.8090  176.7940  146.6860 O   0  0  0  0  0  0  0  0  0  0  0  0
  184.4310  178.3520  147.6460 O   0  0  0  0  0  1  0  0  0  0  0  0
  1  9  1  0  0  0  0
  1 28  1  0  0  0  0
  2 11  1  0  0  0  0
  4  3  1  0  0  0  0
  5 22  1  0  0  0  0
  6 27  1  6  0  0  0
  6 23  1  0  0  0  0
  6  5  1  0  0  0  0
  7 15  2  0  0  0  0
 10  3  1  0  0  0  0
 11 12  1  0  0  0  0
 11  8  2  0  0  0  0
 12 10  1  1  0  0  0
 13 18  1  0  0  0  0
 14  1  1  0  0  0  0
 15  8  1  0  0  0  0
 15  9  1  0  0  0  0
 16  7  1  0  0  0  0
 16 14  1  0  0  0  0
 17  4  1  0  0  0  0
 18 17  1  6  0  0  0
 18 12  1  0  0  0  0
 19 13  1  0  0  0  0
 20  2  2  0  0  0  0
 20  7  1  0  0  0  0
 21  5  2  0  0  0  0
 22 13  2  0  0  0  0
 22  2  1  0  0  0  0
 23 19  2  0  0  0  0
 24 25  1  0  0  0  0
 24 23  1  0  0  0  0
 26 27  1  0  0  0  0
 28 30  1  0  0  0  0
 29 31  2  0  0  0  0
 29 32  1  0  0  0  0
 30 29  1  0  0  0  0
M  END
>  <MODEL>
7

>  <REMARK>
 VINA RESULT:      -6.9      2.366      3.797
  Name = 
  4 active torsions:
  status: ('A' for Active; 'I' for Inactive)
    1  A    between atoms: N_2  and  C_24
    2  A    between atoms: C_7  and  O_22
    3  A    between atoms: N_10  and  C_24
    4  A    between atoms: C_11  and  C_32
                            x       y       z     vdW  Elec       q    Type
                         _______ _______ _______ _____ _____    ______ ____

>  <TORSDO>
F 4

$$$$
=
 OpenBabel11052421383D

 32 36  0  0  1  0  0  0  0  0999 V2000
  192.3430  171.6560  140.4680 N   0  0  0  0  0  0  0  0  0  0  0  0
  189.2210  175.1560  142.4230 C   0  0  0  0  0  0  0  0  0  0  0  0
  189.8160  174.8620  147.2870 O   0  0  0  0  0  0  0  0  0  0  0  0
  189.7860  176.2690  147.3810 C   0  0  0  0  0  2  0  0  0  0  0  0
  187.4530  176.8090  141.6180 C   0  0  0  0  0  0  0  0  0  0  0  0
  186.5990  177.8950  141.8670 C   0  0  2  0  0  3  0  0  0  0  0  0
  190.3630  173.6740  140.9460 C   0  0  0  0  0  0  0  0  0  0  0  0
  190.6350  173.4100  143.3270 C   0  0  0  0  0  3  0  0  0  0  0  0
  191.8060  171.7810  141.8290 C   0  0  0  0  0  2  0  0  0  0  0  0
  190.3650  174.5370  146.0290 C   0  0  0  0  0  2  0  0  0  0  0  0
  189.7940  174.5090  143.5390 C   0  0  0  0  0  0  0  0  0  0  0  0
  189.3770  174.9280  144.9260 C   0  0  2  0  0  3  0  0  0  0  0  0
  188.2390  176.9100  143.9070 C   0  0  0  0  0  0  0  0  0  0  0  0
  191.2990  171.8920  139.4590 C   0  0  0  0  0  2  0  0  0  0  0  0
  190.9450  173.0010  142.0320 C   0  0  0  0  0  0  0  0  0  0  0  0
  190.7170  173.3060  139.5400 C   0  0  0  0  0  2  0  0  0  0  0  0
  188.7660  176.8510  146.3980 C   0  0  0  0  0  2  0  0  0  0  0  0
  189.1820  176.4450  144.9860 C   0  0  1  0  0  3  0  0  0  0  0  0
  187.4160  177.9690  144.1230 N   0  0  0  0  0  0  0  0  0  0  0  0
  189.5350  174.7290  141.1680 N   0  0  0  0  0  0  0  0  0  0  0  0
  187.4510  176.2820  140.4730 O   0  0  0  0  0  0  0  0  0  0  0  0
  188.2940  176.3090  142.6340 C   0  0  0  0  0  0  0  0  0  0  0  0
  186.5980  178.4720  143.1630 C   0  0  0  0  0  0  0  0  0  0  0  0
  185.7000  179.5990  143.5520 C   0  0  0  0  0  2  0  0  0  0  0  0
  185.3380  179.4930  145.0210 C   0  0  0  0  0  1  0  0  0  0  0  0
  184.3940  178.1210  140.6710 C   0  0  0  0  0  1  0  0  0  0  0  0
  185.7930  178.3380  140.8000 O   0  0  0  0  0  0  0  0  0  0  0  0
  193.4590  172.5820  140.2950 C   0  0  0  0  0  2  0  0  0  0  0  0
  194.9610  173.1920  142.2230 C   0  0  0  0  0  0  0  0  0  0  0  0
  194.5150  172.2580  141.2410 N   0  0  0  0  0  2  0  0  0  0  0  0
  194.4570  174.3440  142.2880 O   0  0  0  0  0  0  0  0  0  0  0  0
  195.9560  172.8250  143.1180 O   0  0  0  0  0  1  0  0  0  0  0  0
  1  9  1  0  0  0  0
  2 22  1  0  0  0  0
  2 11  1  0  0  0  0
  3  4  1  0  0  0  0
  5  6  1  0  0  0  0
  5 22  1  0  0  0  0
  6 27  1  1  0  0  0
  6 23  1  0  0  0  0
  7 20  1  0  0  0  0
  7 15  2  0  0  0  0
  8 11  2  0  0  0  0
  9 15  1  0  0  0  0
 10  3  1  0  0  0  0
 11 12  1  0  0  0  0
 12 18  1  0  0  0  0
 12 10  1  1  0  0  0
 13 19  1  0  0  0  0
 13 18  1  0  0  0  0
 14 16  1  0  0  0  0
 14  1  1  0  0  0  0
 15  8  1  0  0  0  0
 16  7  1  0  0  0  0
 17  4  1  0  0  0  0
 18 17  1  1  0  0  0
 20  2  2  0  0  0  0
 21  5  2  0  0  0  0
 22 13  2  0  0  0  0
 23 24  1  0  0  0  0
 23 19  2  0  0  0  0
 24 25  1  0  0  0  0
 26 27  1  0  0  0  0
 28  1  1  0  0  0  0
 28 30  1  0  0  0  0
 29 31  2  0  0  0  0
 29 32  1  0  0  0  0
 30 29  1  0  0  0  0
M  END
>  <MODEL>
8

>  <REMARK>
 VINA RESULT:      -6.9      2.626      7.568
  Name = 
  4 active torsions:
  status: ('A' for Active; 'I' for Inactive)
    1  A    between atoms: N_2  and  C_24
    2  A    between atoms: C_7  and  O_22
    3  A    between atoms: N_10  and  C_24
    4  A    between atoms: C_11  and  C_32
                            x       y       z     vdW  Elec       q    Type
                         _______ _______ _______ _____ _____    ______ ____

>  <TORSDO>
F 4

$$$$
=
 OpenBabel11052421383D

 32 36  0  0  1  0  0  0  0  0999 V2000
  185.5040  177.3480  144.1340 N   0  0  0  0  0  0  0  0  0  0  0  0
  190.3110  175.8370  143.4790 C   0  0  0  0  0  0  0  0  0  0  0  0
  190.1690  172.5930  139.7980 O   0  0  0  0  0  0  0  0  0  0  0  0
  191.3500  173.1430  139.2600 C   0  0  0  0  0  2  0  0  0  0  0  0
  192.5930  176.1840  144.5660 C   0  0  0  0  0  0  0  0  0  0  0  0
  193.9880  176.0310  144.5430 C   0  0  2  0  0  3  0  0  0  0  0  0
  188.3200  176.8370  144.3240 C   0  0  0  0  0  0  0  0  0  0  0  0
  188.1610  175.1840  142.5760 C   0  0  0  0  0  3  0  0  0  0  0  0
  186.0310  176.1490  143.4690 C   0  0  0  0  0  2  0  0  0  0  0  0
  189.4810  173.6340  140.4540 C   0  0  0  0  0  2  0  0  0  0  0  0
  189.5570  175.0710  142.5660 C   0  0  0  0  0  0  0  0  0  0  0  0
  190.2590  174.0510  141.7050 C   0  0  2  0  0  3  0  0  0  0  0  0
  192.4380  175.0410  142.4360 C   0  0  0  0  0  0  0  0  0  0  0  0
  186.1960  177.5970  145.4080 C   0  0  0  0  0  2  0  0  0  0  0  0
  187.5360  176.0850  143.4350 C   0  0  0  0  0  0  0  0  0  0  0  0
  187.6940  177.8580  145.2200 C   0  0  0  0  0  2  0  0  0  0  0  0
  192.3150  173.5420  140.3800 C   0  0  0  0  0  2  0  0  0  0  0  0
  191.6220  174.5850  141.2550 C   0  0  1  0  0  3  0  0  0  0  0  0
  193.7910  174.9150  142.4260 N   0  0  0  0  0  0  0  0  0  0  0  0
  189.6720  176.7030  144.3140 N   0  0  0  0  0  0  0  0  0  0  0  0
  192.0590  176.7550  145.5550 O   0  0  0  0  0  0  0  0  0  0  0  0
  191.8000  175.7000  143.5050 C   0  0  0  0  0  0  0  0  0  0  0  0
  194.5790  175.3740  143.4320 C   0  0  0  0  0  0  0  0  0  0  0  0
  196.0450  175.1160  143.3240 C   0  0  0  0  0  2  0  0  0  0  0  0
  196.7520  176.3490  142.7910 C   0  0  0  0  0  1  0  0  0  0  0  0
  195.1140  177.8950  145.8080 C   0  0  0  0  0  1  0  0  0  0  0  0
  194.7110  176.5430  145.6380 O   0  0  0  0  0  0  0  0  0  0  0  0
  185.6230  178.4960  143.2400 C   0  0  0  0  0  2  0  0  0  0  0  0
  184.6010  178.2670  140.9490 C   0  0  0  0  0  0  0  0  0  0  0  0
  184.4780  178.5400  142.3440 N   0  0  0  0  0  2  0  0  0  0  0  0
  185.7220  177.9940  140.4450 O   0  0  0  0  0  1  0  0  0  0  0  0
  183.4730  178.2990  140.1410 O   0  0  0  0  0  0  0  0  0  0  0  0
  1 14  1  0  0  0  0
  2 22  1  0  0  0  0
  2 20  1  0  0  0  0
  3 10  1  0  0  0  0
  4  3  1  0  0  0  0
  4 17  1  0  0  0  0
  5 21  2  0  0  0  0
  6  5  1  0  0  0  0
  6 27  1  1  0  0  0
  7 16  1  0  0  0  0
  8 15  2  0  0  0  0
  9  1  1  0  0  0  0
 11  8  1  0  0  0  0
 11  2  2  0  0  0  0
 12 10  1  6  0  0  0
 12 11  1  0  0  0  0
 13 22  2  0  0  0  0
 15  9  1  0  0  0  0
 15  7  1  0  0  0  0
 16 14  1  0  0  0  0
 18 17  1  1  0  0  0
 18 12  1  0  0  0  0
 18 13  1  0  0  0  0
 19 13  1  0  0  0  0
 19 23  2  0  0  0  0
 20  7  2  0  0  0  0
 22  5  1  0  0  0  0
 23  6  1  0  0  0  0
 24 23  1  0  0  0  0
 25 24  1  0  0  0  0
 27 26  1  0  0  0  0
 28  1  1  0  0  0  0
 29 30  1  0  0  0  0
 30 28  1  0  0  0  0
 31 29  1  0  0  0  0
 32 29  2  0  0  0  0
M  END
>  <MODEL>
9

>  <REMARK>
 VINA RESULT:      -6.9      3.092      5.292
  Name = 
  4 active torsions:
  status: ('A' for Active; 'I' for Inactive)
    1  A    between atoms: N_2  and  C_24
    2  A    between atoms: C_7  and  O_22
    3  A    between atoms: N_10  and  C_24
    4  A    between atoms: C_11  and  C_32
                            x       y       z     vdW  Elec       q    Type
                         _______ _______ _______ _____ _____    ______ ____

>  <TORSDO>
F 4

$$$$
