=
 OpenBabel11052420233D

 34 37  0  0  1  0  0  0  0  0999 V2000
  194.0190  173.3150  145.7850 C   0  0  0  0  0  2  0  0  0  0  0  0
  194.3790  172.6840  143.3740 C   0  0  0  0  0  1  0  0  0  0  0  0
  194.5660  174.7400  145.7210 C   0  0  0  0  0  2  0  0  0  0  0  0
  193.6150  175.7140  145.0200 C   0  0  2  0  0  3  0  0  0  0  0  0
  193.3480  172.9110  144.4650 C   0  0  2  0  0  3  0  0  0  0  0  0
  192.2240  175.0860  144.7950 C   0  0  2  0  0  3  0  0  0  0  0  0
  192.3070  173.8490  143.9930 N   0  0  0  0  0  0  0  0  0  0  0  0
  190.7850  173.0100  144.1010 S   0  0  0  0  0  0  0  0  0  0  0  0
  191.0270  171.5510  144.3780 O   0  0  0  0  0  0  0  0  0  0  0  0
  189.9560  173.5850  145.2150 O   0  0  0  0  0  0  0  0  0  0  0  0
  188.6260  172.6130  142.4530 C   0  0  0  0  0  3  0  0  0  0  0  0
  188.5020  173.4490  140.1840 C   0  0  0  0  0  3  0  0  0  0  0  0
  187.9300  172.7450  141.2480 C   0  0  0  0  0  3  0  0  0  0  0  0
  190.4660  173.8890  141.5300 C   0  0  0  0  0  3  0  0  0  0  0  0
  189.8950  173.1860  142.5970 C   0  0  0  0  0  0  0  0  0  0  0  0
  189.7700  174.0210  140.3250 C   0  0  0  0  0  3  0  0  0  0  0  0
  191.3670  176.0080  144.1840 O   0  0  0  0  0  0  0  0  0  0  0  0
  191.0090  176.8980  145.2010 C   0  0  0  0  0  2  0  0  0  0  0  0
  189.9970  177.9080  144.6840 C   0  0  0  0  0  2  0  0  0  0  0  0
  188.1920  177.2060  142.3530 C   0  0  0  0  0  2  0  0  0  0  0  0
  185.6810  176.9430  145.9800 C   0  0  0  0  0  0  0  0  0  0  0  0
  185.4660  177.8430  144.8230 C   0  0  0  0  0  0  0  0  0  0  0  0
  186.4290  178.0840  143.8410 O   0  0  0  0  0  0  0  0  0  0  0  0
  184.5790  176.4500  146.5980 F   0  0  0  0  0  0  0  0  0  0  0  0
  187.6410  177.3590  143.7530 C   0  0  0  0  0  0  0  0  0  0  0  0
  184.3430  178.3980  144.7010 O   0  0  0  0  0  0  0  0  0  0  0  0
  188.2140  177.0980  146.1320 C   0  0  0  0  0  3  0  0  0  0  0  0
  188.5950  177.4310  144.8990 C   0  0  0  0  0  0  0  0  0  0  0  0
  186.8640  176.6740  146.5500 C   0  0  0  0  0  3  0  0  0  0  0  0
  187.5280  176.0230  143.0550 C   0  0  0  0  0  2  0  0  0  0  0  0
  194.2570  176.1860  143.7180 C   0  0  0  0  0  2  0  0  0  0  0  0
  195.7600  176.3630  143.8680 C   0  0  0  0  0  2  0  0  0  0  0  0
  196.5640  176.3570  142.2380 S   0  0  0  0  0  0  0  0  0  0  0  0
  194.9700  176.3820  141.3750 C   0  0  0  0  0  1  0  0  0  0  0  0
  3  1  1  0  0  0  0
  4 31  1  6  0  0  0
  4  3  1  0  0  0  0
  5  2  1  6  0  0  0
  5  1  1  0  0  0  0
  6 17  1  6  0  0  0
  6  4  1  0  0  0  0
  7  8  1  0  0  0  0
  7  5  1  0  0  0  0
  7  6  1  0  0  0  0
  8  9  2  0  0  0  0
  8 10  2  0  0  0  0
 11 15  1  0  0  0  0
 12 16  2  0  0  0  0
 12 13  1  0  0  0  0
 13 11  2  0  0  0  0
 14 15  2  0  0  0  0
 15  8  1  0  0  0  0
 16 14  1  0  0  0  0
 17 18  1  0  0  0  0
 19 28  1  0  0  0  0
 19 18  1  0  0  0  0
 20 30  1  0  0  0  0
 20 25  1  0  0  0  0
 21 29  2  0  0  0  0
 21 24  1  0  0  0  0
 22 21  1  0  0  0  0
 23 22  1  0  0  0  0
 25 23  1  0  0  0  0
 25 28  1  0  0  0  0
 26 22  2  0  0  0  0
 27 29  1  0  0  0  0
 28 27  2  0  0  0  0
 30 25  1  0  0  0  0
 31 32  1  0  0  0  0
 33 32  1  0  0  0  0
 34 33  1  0  0  0  0
M  END
>  <MODEL>
1

>  <REMARK>
 VINA RESULT:      -7.0      0.000      0.000
  Name = 
  9 active torsions:
  status: ('A' for Active; 'I' for Inactive)
    1  A    between atoms: S_1  and  C_20
    2  A    between atoms: S_1  and  N_34
    3  A    between atoms: S_3  and  C_13
    4  A    between atoms: C_6  and  O_18
    5  A    between atoms: C_6  and  C_30
    6  A    between atoms: C_13  and  C_27
    7  A    between atoms: O_18  and  C_33
    8  A    between atoms: C_25  and  C_27
    9  A    between atoms: C_28  and  C_30
                            x       y       z     vdW  Elec       q    Type
                         _______ _______ _______ _____ _____    ______ ____

>  <TORSDO>
F 9

$$$$
=
 OpenBabel11052420233D

 34 37  0  0  1  0  0  0  0  0999 V2000
  193.4300  174.9640  141.9240 C   0  0  0  0  0  2  0  0  0  0  0  0
  193.4090  173.3060  143.8180 C   0  0  0  0  0  1  0  0  0  0  0  0
  192.5180  174.2050  140.9610 C   0  0  0  0  0  2  0  0  0  0  0  0
  191.0450  174.2520  141.3720 C   0  0  2  0  0  3  0  0  0  0  0  0
  193.0360  174.7130  143.3860 C   0  0  2  0  0  3  0  0  0  0  0  0
  190.8010  175.2780  142.4980 C   0  0  2  0  0  3  0  0  0  0  0  0
  191.6150  174.9790  143.6930 N   0  0  0  0  0  0  0  0  0  0  0  0
  191.5780  176.3600  144.7540 S   0  0  0  0  0  0  0  0  0  0  0  0
  192.7950  176.3540  145.6400 O   0  0  0  0  0  0  0  0  0  0  0  0
  191.5690  177.6300  143.9500 O   0  0  0  0  0  0  0  0  0  0  0  0
  189.3390  177.4630  145.8960 C   0  0  0  0  0  3  0  0  0  0  0  0
  187.8360  176.2410  147.3490 C   0  0  0  0  0  3  0  0  0  0  0  0
  188.1940  177.4250  146.6960 C   0  0  0  0  0  3  0  0  0  0  0  0
  189.7690  175.1340  146.3990 C   0  0  0  0  0  3  0  0  0  0  0  0
  190.1280  176.3170  145.7440 C   0  0  0  0  0  0  0  0  0  0  0  0
  188.6230  175.0950  147.2000 C   0  0  0  0  0  3  0  0  0  0  0  0
  189.4430  175.3230  142.8310 O   0  0  0  0  0  0  0  0  0  0  0  0
  188.9020  176.3120  142.0040 C   0  0  0  0  0  2  0  0  0  0  0  0
  187.4740  175.9540  141.6210 C   0  0  0  0  0  2  0  0  0  0  0  0
  185.7160  178.0770  140.3600 C   0  0  0  0  0  2  0  0  0  0  0  0
  184.9700  178.2820  144.7110 C   0  0  0  0  0  0  0  0  0  0  0  0
  185.5010  179.3690  143.8560 C   0  0  0  0  0  0  0  0  0  0  0  0
  185.9750  179.1710  142.5580 O   0  0  0  0  0  0  0  0  0  0  0  0
  184.1560  178.6380  145.7360 F   0  0  0  0  0  0  0  0  0  0  0  0
  185.8340  177.9460  141.8620 C   0  0  0  0  0  0  0  0  0  0  0  0
  185.4960  180.5420  144.3130 O   0  0  0  0  0  0  0  0  0  0  0  0
  186.2150  176.3240  143.6730 C   0  0  0  0  0  3  0  0  0  0  0  0
  186.4830  176.7290  142.4320 C   0  0  0  0  0  0  0  0  0  0  0  0
  185.3240  176.9920  144.6410 C   0  0  0  0  0  3  0  0  0  0  0  0
  184.4870  177.7460  141.2050 C   0  0  0  0  0  2  0  0  0  0  0  0
  190.5910  172.8470  141.7590 C   0  0  0  0  0  2  0  0  0  0  0  0
  189.2920  172.4690  141.0670 C   0  0  0  0  0  2  0  0  0  0  0  0
  189.1860  173.2720  139.4390 S   0  0  0  0  0  0  0  0  0  0  0  0
  189.9930  171.8710  138.6190 C   0  0  0  0  0  1  0  0  0  0  0  0
  1  5  1  0  0  0  0
  3  4  1  0  0  0  0
  3  1  1  0  0  0  0
  4 31  1  1  0  0  0
  4  6  1  0  0  0  0
  5  7  1  0  0  0  0
  5  2  1  6  0  0  0
  6 17  1  1  0  0  0
  6  7  1  0  0  0  0
  7  8  1  0  0  0  0
  8  9  2  0  0  0  0
  8 15  1  0  0  0  0
 10  8  2  0  0  0  0
 11 13  1  0  0  0  0
 13 12  2  0  0  0  0
 14 16  2  0  0  0  0
 15 11  2  0  0  0  0
 15 14  1  0  0  0  0
 16 12  1  0  0  0  0
 18 17  1  0  0  0  0
 19 18  1  0  0  0  0
 19 28  1  0  0  0  0
 20 30  1  0  0  0  0
 20 25  1  0  0  0  0
 21 24  1  0  0  0  0
 22 26  2  0  0  0  0
 22 21  1  0  0  0  0
 23 22  1  0  0  0  0
 25 28  1  0  0  0  0
 25 23  1  0  0  0  0
 27 29  1  0  0  0  0
 28 27  2  0  0  0  0
 29 21  2  0  0  0  0
 30 25  1  0  0  0  0
 32 31  1  0  0  0  0
 33 32  1  0  0  0  0
 34 33  1  0  0  0  0
M  END
>  <MODEL>
2

>  <REMARK>
 VINA RESULT:      -6.8      2.151      4.625
  Name = 
  9 active torsions:
  status: ('A' for Active; 'I' for Inactive)
    1  A    between atoms: S_1  and  C_20
    2  A    between atoms: S_1  and  N_34
    3  A    between atoms: S_3  and  C_13
    4  A    between atoms: C_6  and  O_18
    5  A    between atoms: C_6  and  C_30
    6  A    between atoms: C_13  and  C_27
    7  A    between atoms: O_18  and  C_33
    8  A    between atoms: C_25  and  C_27
    9  A    between atoms: C_28  and  C_30
                            x       y       z     vdW  Elec       q    Type
                         _______ _______ _______ _____ _____    ______ ____

>  <TORSDO>
F 9

$$$$
=
 OpenBabel11052420233D

 34 37  0  0  1  0  0  0  0  0999 V2000
  190.6110  174.9010  147.5420 C   0  0  0  0  0  2  0  0  0  0  0  0
  191.1110  177.3440  147.8880 C   0  0  0  0  0  1  0  0  0  0  0  0
  189.1000  175.0150  147.3450 C   0  0  0  0  0  2  0  0  0  0  0  0
  188.7180  175.5870  145.9770 C   0  0  2  0  0  3  0  0  0  0  0  0
  191.3420  176.1360  146.9980 C   0  0  2  0  0  3  0  0  0  0  0  0
  189.9320  175.6520  145.0290 C   0  0  2  0  0  3  0  0  0  0  0  0
  191.0230  176.4700  145.5950 N   0  0  0  0  0  0  0  0  0  0  0  0
  192.4700  176.1910  144.6670 S   0  0  0  0  0  0  0  0  0  0  0  0
  192.2070  176.4830  143.2140 O   0  0  0  0  0  0  0  0  0  0  0  0
  193.5760  177.0860  145.1510 O   0  0  0  0  0  0  0  0  0  0  0  0
  194.2070  174.2190  145.4590 C   0  0  0  0  0  3  0  0  0  0  0  0
  193.8070  171.8580  145.1020 C   0  0  0  0  0  3  0  0  0  0  0  0
  194.6170  172.8890  145.5880 C   0  0  0  0  0  3  0  0  0  0  0  0
  192.1770  173.4880  144.3610 C   0  0  0  0  0  3  0  0  0  0  0  0
  192.9860  174.5210  144.8480 C   0  0  0  0  0  0  0  0  0  0  0  0
  192.5860  172.1570  144.4890 C   0  0  0  0  0  3  0  0  0  0  0  0
  189.5480  176.1460  143.7780 O   0  0  0  0  0  0  0  0  0  0  0  0
  188.8670  175.0900  143.1660 C   0  0  0  0  0  2  0  0  0  0  0  0
  188.0980  175.5920  141.9530 C   0  0  0  0  0  2  0  0  0  0  0  0
  187.1940  177.9020  140.2120 C   0  0  0  0  0  2  0  0  0  0  0  0
  184.8580  178.1870  143.9530 C   0  0  0  0  0  0  0  0  0  0  0  0
  185.7880  179.2070  143.4150 C   0  0  0  0  0  0  0  0  0  0  0  0
  186.7010  178.9570  142.3890 O   0  0  0  0  0  0  0  0  0  0  0  0
  183.7550  178.6320  144.6050 F   0  0  0  0  0  0  0  0  0  0  0  0
  186.7110  177.7570  141.6380 C   0  0  0  0  0  0  0  0  0  0  0  0
  185.7310  180.3730  143.8870 O   0  0  0  0  0  0  0  0  0  0  0  0
  186.1940  176.1010  143.3830 C   0  0  0  0  0  3  0  0  0  0  0  0
  186.9590  176.4740  142.3580 C   0  0  0  0  0  0  0  0  0  0  0  0
  185.0750  176.8650  143.9670 C   0  0  0  0  0  3  0  0  0  0  0  0
  185.7070  177.7130  140.5080 C   0  0  0  0  0  2  0  0  0  0  0  0
  188.0620  176.9510  146.1750 C   0  0  0  0  0  2  0  0  0  0  0  0
  186.9550  176.8930  147.2160 C   0  0  0  0  0  2  0  0  0  0  0  0
  186.5720  178.5620  147.8250 S   0  0  0  0  0  0  0  0  0  0  0  0
  184.7950  178.3300  147.5510 C   0  0  0  0  0  1  0  0  0  0  0  0
  3  1  1  0  0  0  0
  4 31  1  1  0  0  0
  4  3  1  0  0  0  0
  5  1  1  0  0  0  0
  5  2  1  1  0  0  0
  6 17  1  6  0  0  0
  6  7  1  0  0  0  0
  6  4  1  0  0  0  0
  7  5  1  0  0  0  0
  8 15  1  0  0  0  0
  8 10  2  0  0  0  0
  8  7  1  0  0  0  0
  9  8  2  0  0  0  0
 11 13  1  0  0  0  0
 12 13  2  0  0  0  0
 14 16  2  0  0  0  0
 14 15  1  0  0  0  0
 15 11  2  0  0  0  0
 16 12  1  0  0  0  0
 18 17  1  0  0  0  0
 19 28  1  0  0  0  0
 19 18  1  0  0  0  0
 20 30  1  0  0  0  0
 20 25  1  0  0  0  0
 21 29  2  0  0  0  0
 21 24  1  0  0  0  0
 22 26  2  0  0  0  0
 22 21  1  0  0  0  0
 23 22  1  0  0  0  0
 25 28  1  0  0  0  0
 25 23  1  0  0  0  0
 27 29  1  0  0  0  0
 28 27  2  0  0  0  0
 30 25  1  0  0  0  0
 31 32  1  0  0  0  0
 32 33  1  0  0  0  0
 34 33  1  0  0  0  0
M  END
>  <MODEL>
3

>  <REMARK>
 VINA RESULT:      -6.5      2.473      5.373
  Name = 
  9 active torsions:
  status: ('A' for Active; 'I' for Inactive)
    1  A    between atoms: S_1  and  C_20
    2  A    between atoms: S_1  and  N_34
    3  A    between atoms: S_3  and  C_13
    4  A    between atoms: C_6  and  O_18
    5  A    between atoms: C_6  and  C_30
    6  A    between atoms: C_13  and  C_27
    7  A    between atoms: O_18  and  C_33
    8  A    between atoms: C_25  and  C_27
    9  A    between atoms: C_28  and  C_30
                            x       y       z     vdW  Elec       q    Type
                         _______ _______ _______ _____ _____    ______ ____

>  <TORSDO>
F 9

$$$$
=
 OpenBabel11052420233D

 34 37  0  0  1  0  0  0  0  0999 V2000
  193.6040  172.5330  145.2560 C   0  0  0  0  0  2  0  0  0  0  0  0
  194.4580  172.7890  142.9010 C   0  0  0  0  0  1  0  0  0  0  0  0
  193.8620  173.9600  145.7370 C   0  0  0  0  0  2  0  0  0  0  0  0
  192.8610  174.9700  145.1730 C   0  0  2  0  0  3  0  0  0  0  0  0
  193.2430  172.5000  143.7650 C   0  0  2  0  0  3  0  0  0  0  0  0
  191.6750  174.2690  144.4800 C   0  0  2  0  0  3  0  0  0  0  0  0
  192.1260  173.3890  143.3830 N   0  0  0  0  0  0  0  0  0  0  0  0
  190.8020  172.3630  142.9100 S   0  0  0  0  0  0  0  0  0  0  0  0
  191.2970  170.9570  142.7010 O   0  0  0  0  0  0  0  0  0  0  0  0
  189.7470  172.3520  143.9800 O   0  0  0  0  0  0  0  0  0  0  0  0
  188.9060  173.7200  141.4610 C   0  0  0  0  0  3  0  0  0  0  0  0
  188.9280  173.8810  139.0450 C   0  0  0  0  0  3  0  0  0  0  0  0
  188.3310  174.1820  140.2730 C   0  0  0  0  0  3  0  0  0  0  0  0
  190.6760  172.6590  140.1930 C   0  0  0  0  0  3  0  0  0  0  0  0
  190.0810  172.9600  141.4240 C   0  0  0  0  0  0  0  0  0  0  0  0
  190.1010  173.1200  139.0050 C   0  0  0  0  0  3  0  0  0  0  0  0
  190.7600  175.2140  144.0040 O   0  0  0  0  0  0  0  0  0  0  0  0
  189.9640  175.5350  145.1070 C   0  0  0  0  0  2  0  0  0  0  0  0
  189.5510  176.9980  145.0520 C   0  0  0  0  0  2  0  0  0  0  0  0
  187.8750  177.1200  142.5290 C   0  0  0  0  0  2  0  0  0  0  0  0
  185.1110  177.9060  145.8870 C   0  0  0  0  0  0  0  0  0  0  0  0
  185.4100  178.8190  144.7600 C   0  0  0  0  0  0  0  0  0  0  0  0
  186.4850  178.6430  143.8860 O   0  0  0  0  0  0  0  0  0  0  0  0
  183.8450  177.9120  146.3740 F   0  0  0  0  0  0  0  0  0  0  0  0
  187.2920  177.4810  143.8780 C   0  0  0  0  0  0  0  0  0  0  0  0
  184.6360  179.7910  144.5600 O   0  0  0  0  0  0  0  0  0  0  0  0
  187.4500  176.9950  146.2850 C   0  0  0  0  0  3  0  0  0  0  0  0
  188.0630  177.1450  145.1110 C   0  0  0  0  0  0  0  0  0  0  0  0
  186.0100  177.1670  146.5520 C   0  0  0  0  0  3  0  0  0  0  0  0
  186.7120  176.3160  143.1080 C   0  0  0  0  0  2  0  0  0  0  0  0
  193.5950  175.9290  144.2380 C   0  0  0  0  0  2  0  0  0  0  0  0
  194.9290  176.3650  144.8220 C   0  0  0  0  0  2  0  0  0  0  0  0
  196.2090  176.3830  143.5310 S   0  0  0  0  0  0  0  0  0  0  0  0
  197.0380  174.9330  144.2360 C   0  0  0  0  0  1  0  0  0  0  0  0
  1  3  1  0  0  0  0
  4 31  1  6  0  0  0
  4  3  1  0  0  0  0
  5  2  1  6  0  0  0
  5  1  1  0  0  0  0
  6 17  1  6  0  0  0
  6  4  1  0  0  0  0
  7  5  1  0  0  0  0
  7  6  1  0  0  0  0
  8  7  1  0  0  0  0
  8 10  2  0  0  0  0
  9  8  2  0  0  0  0
 12 13  1  0  0  0  0
 13 11  2  0  0  0  0
 14 15  2  0  0  0  0
 15 11  1  0  0  0  0
 15  8  1  0  0  0  0
 16 12  2  0  0  0  0
 16 14  1  0  0  0  0
 17 18  1  0  0  0  0
 19 18  1  0  0  0  0
 19 28  1  0  0  0  0
 20 30  1  0  0  0  0
 20 25  1  0  0  0  0
 21 24  1  0  0  0  0
 21 29  2  0  0  0  0
 22 21  1  0  0  0  0
 23 22  1  0  0  0  0
 25 23  1  0  0  0  0
 25 28  1  0  0  0  0
 26 22  2  0  0  0  0
 27 29  1  0  0  0  0
 28 27  2  0  0  0  0
 30 25  1  0  0  0  0
 31 32  1  0  0  0  0
 33 34  1  0  0  0  0
 33 32  1  0  0  0  0
M  END
>  <MODEL>
4

>  <REMARK>
 VINA RESULT:      -6.4      1.201      1.360
  Name = 
  9 active torsions:
  status: ('A' for Active; 'I' for Inactive)
    1  A    between atoms: S_1  and  C_20
    2  A    between atoms: S_1  and  N_34
    3  A    between atoms: S_3  and  C_13
    4  A    between atoms: C_6  and  O_18
    5  A    between atoms: C_6  and  C_30
    6  A    between atoms: C_13  and  C_27
    7  A    between atoms: O_18  and  C_33
    8  A    between atoms: C_25  and  C_27
    9  A    between atoms: C_28  and  C_30
                            x       y       z     vdW  Elec       q    Type
                         _______ _______ _______ _____ _____    ______ ____

>  <TORSDO>
F 9

$$$$
=
 OpenBabel11052420233D

 34 37  0  0  1  0  0  0  0  0999 V2000
  195.9940  175.9650  142.9260 C   0  0  0  0  0  2  0  0  0  0  0  0
  195.5390  173.5330  143.3910 C   0  0  0  0  0  1  0  0  0  0  0  0
  195.3440  176.0480  141.5450 C   0  0  0  0  0  2  0  0  0  0  0  0
  193.8140  176.0440  141.6040 C   0  0  2  0  0  3  0  0  0  0  0  0
  195.2660  174.9610  143.8300 C   0  0  2  0  0  3  0  0  0  0  0  0
  193.3010  176.2360  143.0460 C   0  0  2  0  0  3  0  0  0  0  0  0
  193.8100  175.1860  143.9510 N   0  0  0  0  0  0  0  0  0  0  0  0
  193.5090  175.6720  145.5950 S   0  0  0  0  0  0  0  0  0  0  0  0
  194.5170  175.0280  146.5090 O   0  0  0  0  0  0  0  0  0  0  0  0
  193.6220  177.1650  145.7230 O   0  0  0  0  0  0  0  0  0  0  0  0
  191.3240  175.6860  147.2570 C   0  0  0  0  0  3  0  0  0  0  0  0
  189.3170  174.3980  146.8420 C   0  0  0  0  0  3  0  0  0  0  0  0
  190.0390  175.2910  147.6390 C   0  0  0  0  0  3  0  0  0  0  0  0
  191.1640  174.2980  145.2800 C   0  0  0  0  0  3  0  0  0  0  0  0
  191.8880  175.1930  146.0760 C   0  0  0  0  0  0  0  0  0  0  0  0
  189.8790  173.9020  145.6620 C   0  0  0  0  0  3  0  0  0  0  0  0
  191.9020  176.2610  143.0660 O   0  0  0  0  0  0  0  0  0  0  0  0
  191.5680  177.6060  143.2480 C   0  0  0  0  0  2  0  0  0  0  0  0
  190.2410  177.9160  142.5730 C   0  0  0  0  0  2  0  0  0  0  0  0
  188.1370  176.0350  141.4660 C   0  0  0  0  0  2  0  0  0  0  0  0
  186.7230  177.2480  145.4740 C   0  0  0  0  0  0  0  0  0  0  0  0
  186.0270  177.4800  144.1870 C   0  0  0  0  0  0  0  0  0  0  0  0
  186.6360  177.3280  142.9400 O   0  0  0  0  0  0  0  0  0  0  0  0
  185.9530  176.9950  146.5610 F   0  0  0  0  0  0  0  0  0  0  0  0
  187.9260  176.7690  142.7720 C   0  0  0  0  0  0  0  0  0  0  0  0
  184.8100  177.8010  144.2180 O   0  0  0  0  0  0  0  0  0  0  0  0
  189.1070  177.7040  144.7180 C   0  0  0  0  0  3  0  0  0  0  0  0
  189.0860  177.4590  143.4080 C   0  0  0  0  0  0  0  0  0  0  0  0
  188.0380  177.3930  145.6860 C   0  0  0  0  0  3  0  0  0  0  0  0
  187.9610  175.2570  142.7690 C   0  0  0  0  0  2  0  0  0  0  0  0
  193.2950  174.7560  140.9690 C   0  0  0  0  0  2  0  0  0  0  0  0
  194.2280  174.2570  139.8780 C   0  0  0  0  0  2  0  0  0  0  0  0
  193.4890  174.5320  138.2400 S   0  0  0  0  0  0  0  0  0  0  0  0
  191.9560  173.6880  138.7130 C   0  0  0  0  0  1  0  0  0  0  0  0
  1  5  1  0  0  0  0
  3  4  1  0  0  0  0
  3  1  1  0  0  0  0
  4 31  1  1  0  0  0
  4  6  1  0  0  0  0
  5  2  1  6  0  0  0
  5  7  1  0  0  0  0
  6 17  1  6  0  0  0
  6  7  1  0  0  0  0
  7  8  1  0  0  0  0
  8 10  2  0  0  0  0
  8 15  1  0  0  0  0
  8  9  2  0  0  0  0
 11 13  1  0  0  0  0
 12 13  2  0  0  0  0
 14 16  2  0  0  0  0
 14 15  1  0  0  0  0
 15 11  2  0  0  0  0
 16 12  1  0  0  0  0
 17 18  1  0  0  0  0
 19 18  1  0  0  0  0
 19 28  1  0  0  0  0
 20 30  1  0  0  0  0
 20 25  1  0  0  0  0
 21 29  2  0  0  0  0
 21 24  1  0  0  0  0
 22 26  2  0  0  0  0
 22 21  1  0  0  0  0
 23 22  1  0  0  0  0
 25 23  1  0  0  0  0
 25 28  1  0  0  0  0
 27 29  1  0  0  0  0
 28 27  2  0  0  0  0
 30 25  1  0  0  0  0
 32 31  1  0  0  0  0
 33 34  1  0  0  0  0
 33 32  1  0  0  0  0
M  END
>  <MODEL>
5

>  <REMARK>
 VINA RESULT:      -6.3      2.295      3.674
  Name = 
  9 active torsions:
  status: ('A' for Active; 'I' for Inactive)
    1  A    between atoms: S_1  and  C_20
    2  A    between atoms: S_1  and  N_34
    3  A    between atoms: S_3  and  C_13
    4  A    between atoms: C_6  and  O_18
    5  A    between atoms: C_6  and  C_30
    6  A    between atoms: C_13  and  C_27
    7  A    between atoms: O_18  and  C_33
    8  A    between atoms: C_25  and  C_27
    9  A    between atoms: C_28  and  C_30
                            x       y       z     vdW  Elec       q    Type
                         _______ _______ _______ _____ _____    ______ ____

>  <TORSDO>
F 9

$$$$
=
 OpenBabel11052420233D

 34 37  0  0  1  0  0  0  0  0999 V2000
  189.7300  173.7920  145.2880 C   0  0  0  0  0  2  0  0  0  0  0  0
  188.8720  174.4360  143.0100 C   0  0  0  0  0  1  0  0  0  0  0  0
  191.0530  173.1630  144.8510 C   0  0  0  0  0  2  0  0  0  0  0  0
  192.0970  174.2000  144.4300 C   0  0  2  0  0  3  0  0  0  0  0  0
  189.3280  174.9500  144.3640 C   0  0  2  0  0  3  0  0  0  0  0  0
  191.6600  175.6310  144.8060 C   0  0  2  0  0  3  0  0  0  0  0  0
  190.3660  175.9870  144.1910 N   0  0  0  0  0  0  0  0  0  0  0  0
  189.7660  177.4350  144.9490 S   0  0  0  0  0  0  0  0  0  0  0  0
  190.1430  177.4400  146.4060 O   0  0  0  0  0  0  0  0  0  0  0  0
  190.3590  178.6480  144.2890 O   0  0  0  0  0  0  0  0  0  0  0  0
  187.4320  177.9150  143.5870 C   0  0  0  0  0  3  0  0  0  0  0  0
  185.2330  177.6630  144.5680 C   0  0  0  0  0  3  0  0  0  0  0  0
  186.0400  177.9880  143.4740 C   0  0  0  0  0  3  0  0  0  0  0  0
  187.2080  177.1900  145.8860 C   0  0  0  0  0  3  0  0  0  0  0  0
  188.0180  177.5140  144.7920 C   0  0  0  0  0  0  0  0  0  0  0  0
  185.8160  177.2640  145.7740 C   0  0  0  0  0  3  0  0  0  0  0  0
  192.6460  176.5540  144.4390 O   0  0  0  0  0  0  0  0  0  0  0  0
  193.5090  176.6160  145.5380 C   0  0  0  0  0  2  0  0  0  0  0  0
  194.9410  176.8310  145.0710 C   0  0  0  0  0  2  0  0  0  0  0  0
  196.5820  176.4190  142.5560 C   0  0  0  0  0  2  0  0  0  0  0  0
  196.3990  172.4890  144.5700 C   0  0  0  0  0  0  0  0  0  0  0  0
  195.8970  172.8080  143.2140 C   0  0  0  0  0  0  0  0  0  0  0  0
  195.7280  174.1090  142.7380 O   0  0  0  0  0  0  0  0  0  0  0  0
  196.9290  171.2550  144.7630 F   0  0  0  0  0  0  0  0  0  0  0  0
  196.1850  175.2530  143.4350 C   0  0  0  0  0  0  0  0  0  0  0  0
  195.6360  171.8530  142.4350 O   0  0  0  0  0  0  0  0  0  0  0  0
  195.6930  174.6200  145.7610 C   0  0  0  0  0  3  0  0  0  0  0  0
  195.6220  175.5290  144.7890 C   0  0  0  0  0  0  0  0  0  0  0  0
  196.2620  173.2630  145.6550 C   0  0  0  0  0  3  0  0  0  0  0  0
  197.6510  175.5670  143.2380 C   0  0  0  0  0  2  0  0  0  0  0  0
  192.3700  174.0510  142.9350 C   0  0  0  0  0  2  0  0  0  0  0  0
  192.1200  172.6290  142.4610 C   0  0  0  0  0  2  0  0  0  0  0  0
  191.4780  172.6320  140.7610 S   0  0  0  0  0  0  0  0  0  0  0  0
  192.7690  173.7750  140.2020 C   0  0  0  0  0  1  0  0  0  0  0  0
  3  1  1  0  0  0  0
  4 31  1  6  0  0  0
  4  6  1  0  0  0  0
  4  3  1  0  0  0  0
  5  2  1  6  0  0  0
  5  1  1  0  0  0  0
  6 17  1  6  0  0  0
  7  5  1  0  0  0  0
  7  6  1  0  0  0  0
  7  8  1  0  0  0  0
  8  9  2  0  0  0  0
 10  8  2  0  0  0  0
 11 15  1  0  0  0  0
 12 16  2  0  0  0  0
 13 11  2  0  0  0  0
 13 12  1  0  0  0  0
 15  8  1  0  0  0  0
 15 14  2  0  0  0  0
 16 14  1  0  0  0  0
 17 18  1  0  0  0  0
 19 18  1  0  0  0  0
 20 30  1  0  0  0  0
 20 25  1  0  0  0  0
 21 24  1  0  0  0  0
 21 29  2  0  0  0  0
 22 21  1  0  0  0  0
 23 22  1  0  0  0  0
 23 25  1  0  0  0  0
 25 28  1  0  0  0  0
 26 22  2  0  0  0  0
 28 19  1  0  0  0  0
 28 27  2  0  0  0  0
 29 27  1  0  0  0  0
 30 25  1  0  0  0  0
 32 31  1  0  0  0  0
 33 32  1  0  0  0  0
 34 33  1  0  0  0  0
M  END
>  <MODEL>
6

>  <REMARK>
 VINA RESULT:      -6.2      3.487      7.189
  Name = 
  9 active torsions:
  status: ('A' for Active; 'I' for Inactive)
    1  A    between atoms: S_1  and  C_20
    2  A    between atoms: S_1  and  N_34
    3  A    between atoms: S_3  and  C_13
    4  A    between atoms: C_6  and  O_18
    5  A    between atoms: C_6  and  C_30
    6  A    between atoms: C_13  and  C_27
    7  A    between atoms: O_18  and  C_33
    8  A    between atoms: C_25  and  C_27
    9  A    between atoms: C_28  and  C_30
                            x       y       z     vdW  Elec       q    Type
                         _______ _______ _______ _____ _____    ______ ____

>  <TORSDO>
F 9

$$$$
=
 OpenBabel11052420233D

 34 37  0  0  1  0  0  0  0  0999 V2000
  194.7500  174.1450  144.3610 C   0  0  0  0  0  2  0  0  0  0  0  0
  194.5180  172.5860  142.3990 C   0  0  0  0  0  1  0  0  0  0  0  0
  195.1140  175.4120  143.5900 C   0  0  0  0  0  2  0  0  0  0  0  0
  193.9180  176.0340  142.8650 C   0  0  2  0  0  3  0  0  0  0  0  0
  193.7960  173.2520  143.5560 C   0  0  2  0  0  3  0  0  0  0  0  0
  192.5880  175.3920  143.3090 C   0  0  2  0  0  3  0  0  0  0  0  0
  192.5790  173.9350  143.0710 N   0  0  0  0  0  0  0  0  0  0  0  0
  191.2330  173.2370  143.9270 S   0  0  0  0  0  0  0  0  0  0  0  0
  189.9900  173.3270  143.0820 O   0  0  0  0  0  0  0  0  0  0  0  0
  191.5080  171.7930  144.2360 O   0  0  0  0  0  0  0  0  0  0  0  0
  189.6970  174.1710  146.0030 C   0  0  0  0  0  3  0  0  0  0  0  0
  190.5800  175.4780  147.8390 C   0  0  0  0  0  3  0  0  0  0  0  0
  189.4990  174.8630  147.2010 C   0  0  0  0  0  3  0  0  0  0  0  0
  192.0570  174.7080  146.0820 C   0  0  0  0  0  3  0  0  0  0  0  0
  190.9770  174.0910  145.4410 C   0  0  0  0  0  0  0  0  0  0  0  0
  191.8600  175.4010  147.2800 C   0  0  0  0  0  3  0  0  0  0  0  0
  191.5100  176.0010  142.6560 O   0  0  0  0  0  0  0  0  0  0  0  0
  191.1830  177.1030  143.4510 C   0  0  0  0  0  2  0  0  0  0  0  0
  190.0770  177.9160  142.7950 C   0  0  0  0  0  2  0  0  0  0  0  0
  187.5220  177.3490  141.2660 C   0  0  0  0  0  2  0  0  0  0  0  0
  186.3390  177.8820  145.4910 C   0  0  0  0  0  0  0  0  0  0  0  0
  185.8870  178.6970  144.3400 C   0  0  0  0  0  0  0  0  0  0  0  0
  186.4960  178.6670  143.0840 O   0  0  0  0  0  0  0  0  0  0  0  0
  185.4440  177.6580  146.4850 F   0  0  0  0  0  0  0  0  0  0  0  0
  187.4930  177.7270  142.7300 C   0  0  0  0  0  0  0  0  0  0  0  0
  184.8790  179.4360  144.4930 O   0  0  0  0  0  0  0  0  0  0  0  0
  188.7740  177.5820  144.8260 C   0  0  0  0  0  3  0  0  0  0  0  0
  188.7710  177.7260  143.5010 C   0  0  0  0  0  0  0  0  0  0  0  0
  187.5910  177.4530  145.6980 C   0  0  0  0  0  3  0  0  0  0  0  0
  186.9630  176.3770  142.3030 C   0  0  0  0  0  2  0  0  0  0  0  0
  194.1390  175.9270  141.3580 C   0  0  0  0  0  2  0  0  0  0  0  0
  195.5970  176.1540  140.9910 C   0  0  0  0  0  2  0  0  0  0  0  0
  196.1870  174.8270  139.8970 S   0  0  0  0  0  0  0  0  0  0  0  0
  197.7820  175.6500  139.6440 C   0  0  0  0  0  1  0  0  0  0  0  0
  3  1  1  0  0  0  0
  4 31  1  6  0  0  0
  4  6  1  0  0  0  0
  4  3  1  0  0  0  0
  5  2  1  6  0  0  0
  5  1  1  0  0  0  0
  6 17  1  6  0  0  0
  7  6  1  0  0  0  0
  7  5  1  0  0  0  0
  7  8  1  0  0  0  0
  8 10  2  0  0  0  0
  8 15  1  0  0  0  0
  9  8  2  0  0  0  0
 11 13  1  0  0  0  0
 13 12  2  0  0  0  0
 14 16  2  0  0  0  0
 15 11  2  0  0  0  0
 15 14  1  0  0  0  0
 16 12  1  0  0  0  0
 17 18  1  0  0  0  0
 19 18  1  0  0  0  0
 19 28  1  0  0  0  0
 20 30  1  0  0  0  0
 20 25  1  0  0  0  0
 21 29  2  0  0  0  0
 21 24  1  0  0  0  0
 22 26  2  0  0  0  0
 22 21  1  0  0  0  0
 23 22  1  0  0  0  0
 25 23  1  0  0  0  0
 25 28  1  0  0  0  0
 27 29  1  0  0  0  0
 28 27  2  0  0  0  0
 30 25  1  0  0  0  0
 32 31  1  0  0  0  0
 33 32  1  0  0  0  0
 34 33  1  0  0  0  0
M  END
>  <MODEL>
7

>  <REMARK>
 VINA RESULT:      -6.2      1.986      2.998
  Name = 
  9 active torsions:
  status: ('A' for Active; 'I' for Inactive)
    1  A    between atoms: S_1  and  C_20
    2  A    between atoms: S_1  and  N_34
    3  A    between atoms: S_3  and  C_13
    4  A    between atoms: C_6  and  O_18
    5  A    between atoms: C_6  and  C_30
    6  A    between atoms: C_13  and  C_27
    7  A    between atoms: O_18  and  C_33
    8  A    between atoms: C_25  and  C_27
    9  A    between atoms: C_28  and  C_30
                            x       y       z     vdW  Elec       q    Type
                         _______ _______ _______ _____ _____    ______ ____

>  <TORSDO>
F 9

$$$$
=
 OpenBabel11052420233D

 34 37  0  0  1  0  0  0  0  0999 V2000
  190.9220  177.9690  144.1010 C   0  0  0  0  0  2  0  0  0  0  0  0
  189.6950  177.4760  146.2430 C   0  0  0  0  0  1  0  0  0  0  0  0
  191.9450  176.8360  144.1710 C   0  0  0  0  0  2  0  0  0  0  0  0
  191.3420  175.4660  143.8530 C   0  0  2  0  0  3  0  0  0  0  0  0
  189.5840  177.5570  144.7310 C   0  0  2  0  0  3  0  0  0  0  0  0
  189.9190  175.5920  143.2720 C   0  0  2  0  0  3  0  0  0  0  0  0
  189.0130  176.3030  144.1960 N   0  0  0  0  0  0  0  0  0  0  0  0
  187.5630  176.7360  143.3350 S   0  0  0  0  0  0  0  0  0  0  0  0
  187.9000  177.6830  142.2150 O   0  0  0  0  0  0  0  0  0  0  0  0
  186.9190  175.5080  142.7560 O   0  0  0  0  0  0  0  0  0  0  0  0
  185.9130  176.7990  145.5280 C   0  0  0  0  0  3  0  0  0  0  0  0
  184.5790  178.7230  146.1460 C   0  0  0  0  0  3  0  0  0  0  0  0
  184.9950  177.4100  146.3870 C   0  0  0  0  0  3  0  0  0  0  0  0
  186.0020  178.8140  144.1890 C   0  0  0  0  0  3  0  0  0  0  0  0
  186.4210  177.5010  144.4290 C   0  0  0  0  0  0  0  0  0  0  0  0
  185.0830  179.4250  145.0470 C   0  0  0  0  0  3  0  0  0  0  0  0
  189.4050  174.3290  142.9600 O   0  0  0  0  0  0  0  0  0  0  0  0
  189.9420  174.0200  141.7060 C   0  0  0  0  0  2  0  0  0  0  0  0
  189.0440  173.0310  140.9780 C   0  0  0  0  0  2  0  0  0  0  0  0
  190.7140  171.2320  139.2000 C   0  0  0  0  0  2  0  0  0  0  0  0
  189.1590  174.4440  136.5930 C   0  0  0  0  0  0  0  0  0  0  0  0
  190.5830  174.1380  136.8610 C   0  0  0  0  0  0  0  0  0  0  0  0
  191.0150  173.3050  137.8940 O   0  0  0  0  0  0  0  0  0  0  0  0
  188.8380  174.8790  135.3490 F   0  0  0  0  0  0  0  0  0  0  0  0
  190.1320  172.5280  138.6810 C   0  0  0  0  0  0  0  0  0  0  0  0
  191.4520  174.6330  136.0950 O   0  0  0  0  0  0  0  0  0  0  0  0
  188.2330  174.0730  138.9310 C   0  0  0  0  0  3  0  0  0  0  0  0
  189.1010  173.2340  139.4970 C   0  0  0  0  0  0  0  0  0  0  0  0
  188.1780  174.4510  137.5060 C   0  0  0  0  0  3  0  0  0  0  0  0
  189.7100  171.2200  138.0490 C   0  0  0  0  0  2  0  0  0  0  0  0
  191.3800  174.6010  145.1110 C   0  0  0  0  0  2  0  0  0  0  0  0
  192.6100  174.8980  145.9540 C   0  0  0  0  0  2  0  0  0  0  0  0
  193.9970  173.8400  145.4440 S   0  0  0  0  0  0  0  0  0  0  0  0
  195.1810  175.2060  145.5870 C   0  0  0  0  0  1  0  0  0  0  0  0
  1  3  1  0  0  0  0
  1  5  1  0  0  0  0
  4  3  1  0  0  0  0
  4 31  1  1  0  0  0
  5  2  1  1  0  0  0
  6 17  1  1  0  0  0
  6  4  1  0  0  0  0
  6  7  1  0  0  0  0
  7  5  1  0  0  0  0
  8  7  1  0  0  0  0
  8 15  1  0  0  0  0
  9  8  2  0  0  0  0
 10  8  2  0  0  0  0
 11 13  1  0  0  0  0
 12 13  2  0  0  0  0
 14 15  1  0  0  0  0
 14 16  2  0  0  0  0
 15 11  2  0  0  0  0
 16 12  1  0  0  0  0
 18 17  1  0  0  0  0
 19 18  1  0  0  0  0
 21 22  1  0  0  0  0
 21 29  2  0  0  0  0
 22 23  1  0  0  0  0
 23 25  1  0  0  0  0
 24 21  1  0  0  0  0
 25 20  1  0  0  0  0
 25 28  1  0  0  0  0
 26 22  2  0  0  0  0
 27 28  2  0  0  0  0
 28 19  1  0  0  0  0
 29 27  1  0  0  0  0
 30 25  1  0  0  0  0
 30 20  1  0  0  0  0
 31 32  1  0  0  0  0
 33 34  1  0  0  0  0
 33 32  1  0  0  0  0
M  END
>  <MODEL>
8

>  <REMARK>
 VINA RESULT:      -6.2      3.537      6.996
  Name = 
  9 active torsions:
  status: ('A' for Active; 'I' for Inactive)
    1  A    between atoms: S_1  and  C_20
    2  A    between atoms: S_1  and  N_34
    3  A    between atoms: S_3  and  C_13
    4  A    between atoms: C_6  and  O_18
    5  A    between atoms: C_6  and  C_30
    6  A    between atoms: C_13  and  C_27
    7  A    between atoms: O_18  and  C_33
    8  A    between atoms: C_25  and  C_27
    9  A    between atoms: C_28  and  C_30
                            x       y       z     vdW  Elec       q    Type
                         _______ _______ _______ _____ _____    ______ ____

>  <TORSDO>
F 9

$$$$
=
 OpenBabel11052420233D

 34 37  0  0  1  0  0  0  0  0999 V2000
  192.8760  175.6060  146.5910 C   0  0  0  0  0  2  0  0  0  0  0  0
  193.3630  173.4790  145.3350 C   0  0  0  0  0  1  0  0  0  0  0  0
  193.6270  176.5740  145.6770 C   0  0  0  0  0  2  0  0  0  0  0  0
  192.8950  176.8400  144.3590 C   0  0  2  0  0  3  0  0  0  0  0  0
  192.2790  174.4350  145.7980 C   0  0  2  0  0  3  0  0  0  0  0  0
  191.4560  176.2880  144.3870 C   0  0  2  0  0  3  0  0  0  0  0  0
  191.4330  174.8360  144.6540 N   0  0  0  0  0  0  0  0  0  0  0  0
  189.8020  174.3650  145.0410 S   0  0  0  0  0  0  0  0  0  0  0  0
  189.0740  173.9710  143.7840 O   0  0  0  0  0  0  0  0  0  0  0  0
  189.8120  173.1950  145.9840 O   0  0  0  0  0  0  0  0  0  0  0  0
  189.6260  176.5190  146.7340 C   0  0  0  0  0  3  0  0  0  0  0  0
  187.5980  177.7990  147.0650 C   0  0  0  0  0  3  0  0  0  0  0  0
  188.9460  177.5690  147.3560 C   0  0  0  0  0  3  0  0  0  0  0  0
  187.6110  175.9290  145.5270 C   0  0  0  0  0  3  0  0  0  0  0  0
  188.9600  175.6970  145.8160 C   0  0  0  0  0  0  0  0  0  0  0  0
  186.9300  176.9800  146.1500 C   0  0  0  0  0  3  0  0  0  0  0  0
  190.8010  176.5730  143.1830 O   0  0  0  0  0  0  0  0  0  0  0  0
  190.0510  177.7240  143.4450 C   0  0  0  0  0  2  0  0  0  0  0  0
  189.3470  178.1920  142.1800 C   0  0  0  0  0  2  0  0  0  0  0  0
  187.9300  175.7980  140.9760 C   0  0  0  0  0  2  0  0  0  0  0  0
  184.7570  178.4900  142.4670 C   0  0  0  0  0  0  0  0  0  0  0  0
  184.9550  178.0530  141.0650 C   0  0  0  0  0  0  0  0  0  0  0  0
  186.1190  177.4350  140.6050 O   0  0  0  0  0  0  0  0  0  0  0  0
  183.4800  178.6590  142.8910 F   0  0  0  0  0  0  0  0  0  0  0  0
  187.1580  177.0040  141.4640 C   0  0  0  0  0  0  0  0  0  0  0  0
  184.0100  178.2200  140.2510 O   0  0  0  0  0  0  0  0  0  0  0  0
  187.1910  178.8240  143.1200 C   0  0  0  0  0  3  0  0  0  0  0  0
  187.8640  178.0270  142.2910 C   0  0  0  0  0  0  0  0  0  0  0  0
  185.7280  178.8560  143.3140 C   0  0  0  0  0  3  0  0  0  0  0  0
  186.9200  175.6600  142.1140 C   0  0  0  0  0  2  0  0  0  0  0  0
  193.7170  176.2620  143.2090 C   0  0  0  0  0  2  0  0  0  0  0  0
  195.2080  176.3200  143.5040 C   0  0  0  0  0  2  0  0  0  0  0  0
  196.1630  175.8660  142.0260 S   0  0  0  0  0  0  0  0  0  0  0  0
  197.6590  175.5570  143.0030 C   0  0  0  0  0  1  0  0  0  0  0  0
  3  1  1  0  0  0  0
  4 31  1  6  0  0  0
  4  6  1  0  0  0  0
  4  3  1  0  0  0  0
  5  2  1  6  0  0  0
  5  1  1  0  0  0  0
  6 17  1  6  0  0  0
  6  7  1  0  0  0  0
  7  8  1  0  0  0  0
  7  5  1  0  0  0  0
  8 15  1  0  0  0  0
  8 10  2  0  0  0  0
  9  8  2  0  0  0  0
 11 13  1  0  0  0  0
 12 13  2  0  0  0  0
 14 15  1  0  0  0  0
 14 16  2  0  0  0  0
 15 11  2  0  0  0  0
 16 12  1  0  0  0  0
 17 18  1  0  0  0  0
 19 28  1  0  0  0  0
 19 18  1  0  0  0  0
 20 25  1  0  0  0  0
 20 30  1  0  0  0  0
 21 24  1  0  0  0  0
 21 29  2  0  0  0  0
 22 21  1  0  0  0  0
 23 22  1  0  0  0  0
 23 25  1  0  0  0  0
 25 30  1  0  0  0  0
 25 28  1  0  0  0  0
 26 22  2  0  0  0  0
 27 29  1  0  0  0  0
 28 27  2  0  0  0  0
 31 32  1  0  0  0  0
 33 34  1  0  0  0  0
 33 32  1  0  0  0  0
M  END
>  <MODEL>
9

>  <REMARK>
 VINA RESULT:      -6.1      2.182      3.667
  Name = 
  9 active torsions:
  status: ('A' for Active; 'I' for Inactive)
    1  A    between atoms: S_1  and  C_20
    2  A    between atoms: S_1  and  N_34
    3  A    between atoms: S_3  and  C_13
    4  A    between atoms: C_6  and  O_18
    5  A    between atoms: C_6  and  C_30
    6  A    between atoms: C_13  and  C_27
    7  A    between atoms: O_18  and  C_33
    8  A    between atoms: C_25  and  C_27
    9  A    between atoms: C_28  and  C_30
                            x       y       z     vdW  Elec       q    Type
                         _______ _______ _______ _____ _____    ______ ____

>  <TORSDO>
F 9

$$$$
