=
 OpenBabel11052419453D

 55 61  0  0  1  0  0  0  0  0999 V2000
  188.3130  174.2250  139.9920 C   0  0  0  0  0  3  0  0  0  0  0  0
  189.9970  171.9700  140.3160 C   0  0  1  0  0  3  0  0  0  0  0  0
  189.9660  172.9950  141.4480 C   0  0  0  0  0  2  0  0  0  0  0  0
  188.8150  173.6580  138.8910 C   0  0  0  0  0  3  0  0  0  0  0  0
  188.8150  173.8790  141.2940 N   0  0  0  0  0  0  0  0  0  0  0  0
  189.9590  172.6850  138.9620 C   0  0  0  0  0  2  0  0  0  0  0  0
  191.2120  171.0520  140.4400 C   0  0  0  0  0  2  0  0  0  0  0  0
  191.3480  170.4500  141.8330 C   0  0  0  0  0  2  0  0  0  0  0  0
  192.8080  170.4230  142.2650 C   0  0  0  0  0  2  0  0  0  0  0  0
  192.9600  169.9250  143.6960 C   0  0  0  0  0  2  0  0  0  0  0  0
  193.9590  170.7760  144.4560 C   0  0  0  0  0  2  0  0  0  0  0  0
  194.9070  171.3610  143.5140 N   0  0  0  0  0  2  0  0  0  0  0  0
  196.5470  175.0900  142.9120 C   0  0  2  0  0  0  0  0  0  0  0  0
  194.8900  175.7440  140.5220 O   0  0  0  0  0  1  0  0  0  0  0  0
  194.7910  173.7550  142.7580 C   0  0  2  0  0  0  0  0  0  0  0  0
  194.6100  173.0910  145.0720 F   0  0  0  0  0  0  0  0  0  0  0  0
  195.8580  172.2220  141.0370 O   0  0  0  0  0  1  0  0  0  0  0  0
  195.5230  173.5250  141.4240 C   0  0  2  0  0  0  0  0  0  0  0  0
  195.2240  172.7500  143.8730 C   0  0  1  0  0  0  0  0  0  0  0  0
  197.2760  174.2970  144.0140 C   0  0  0  0  0  2  0  0  0  0  0  0
  196.7340  174.4510  141.5330 C   0  0  1  0  0  0  0  0  0  0  0  0
  197.0300  176.5290  142.9050 C   0  0  0  0  0  1  0  0  0  0  0  0
  195.7320  174.6320  140.3990 C   0  0  2  0  0  0  0  0  0  0  0  0
  196.7490  172.8490  144.0870 C   0  0  0  0  0  2  0  0  0  0  0  0
  193.4100  173.7190  142.5570 O   0  0  0  0  0  1  0  0  0  0  0  0
  197.9410  173.8020  141.2440 O   0  0  0  0  0  1  0  0  0  0  0  0
  195.1680  175.0420  143.1940 O   0  0  0  0  0  0  0  0  0  0  0  0
  196.1890  174.2440  138.9990 C   0  0  0  0  0  2  0  0  0  0  0  0
  195.4830  174.9840  138.0480 O   0  0  0  0  0  1  0  0  0  0  0  0
  188.1840  174.4150  142.4900 C   0  0  0  0  0  2  0  0  0  0  0  0
  188.4270  175.9130  142.5850 C   0  0  0  0  0  2  0  0  0  0  0  0
  184.7450  178.0670  145.1600 C   0  0  0  0  0  2  0  0  0  0  0  0
  190.9420  176.4700  144.0050 C   0  0  0  0  0  2  0  0  0  0  0  0
  184.9640  178.4180  147.6330 C   0  0  0  0  0  2  0  0  0  0  0  0
  186.6240  176.8860  146.4080 C   0  0  1  0  0  3  0  0  0  0  0  0
  186.4050  177.8980  147.5360 C   0  0  0  0  0  2  0  0  0  0  0  0
  184.0530  177.9270  146.5130 C   0  0  0  0  0  2  0  0  0  0  0  0
  186.0350  177.3670  145.1470 N   0  0  0  0  0  0  0  0  0  0  0  0
  188.6480  176.4080  145.1260 C   0  0  0  0  0  0  0  0  0  0  0  0
  190.7930  175.7880  146.3180 C   0  0  0  0  0  2  0  0  0  0  0  0
  188.0580  176.6420  146.2620 N   0  0  0  0  0  0  0  0  0  0  0  0
  192.2490  175.6960  145.9090 C   0  0  1  0  0  3  0  0  0  0  0  0
  186.6020  176.9420  143.8920 C   0  0  0  0  0  0  0  0  0  0  0  0
  192.3560  176.3580  144.5400 C   0  0  0  0  0  2  0  0  0  0  0  0
  187.8560  176.4500  143.8640 C   0  0  0  0  0  0  0  0  0  0  0  0
  190.0660  176.1640  145.1200 N   0  0  0  0  0  0  0  0  0  0  0  0
  185.7830  177.0360  142.6310 C   0  0  0  0  0  2  0  0  0  0  0  0
  186.2130  179.3790  142.4760 O   0  0  0  0  0  1  0  0  0  0  0  0
  186.2490  178.1890  141.7510 C   0  0  2  0  0  3  0  0  0  0  0  0
  185.3850  178.3190  140.5030 C   0  0  0  0  0  2  0  0  0  0  0  0
  184.0860  177.9200  140.7630 F   0  0  0  0  0  0  0  0  0  0  0  0
  193.1160  176.4200  146.9280 C   0  0  0  0  0  2  0  0  0  0  0  0
  194.4980  176.6150  146.4030 C   0  0  0  0  0  0  0  0  0  0  0  0
  195.2810  175.6320  146.3010 O   0  0  0  0  0  1  0  0  0  0  0  0
  194.9140  177.8760  145.9960 O   0  0  0  0  0  0  0  0  0  0  0  0
  1  5  1  0  0  0  0
  2  7  1  6  0  0  0
  2  3  1  0  0  0  0
  4  6  1  0  0  0  0
  4  1  2  0  0  0  0
  5  3  1  0  0  0  0
  5 30  1  0  0  0  0
  6  2  1  0  0  0  0
  7  8  1  0  0  0  0
  8  9  1  0  0  0  0
  9 10  1  0  0  0  0
 10 11  1  0  0  0  0
 12 19  1  0  0  0  0
 12 11  1  0  0  0  0
 13 22  1  6  0  0  0
 13 27  1  0  0  0  0
 13 20  1  0  0  0  0
 15 25  1  6  0  0  0
 15 27  1  0  0  0  0
 15 19  1  0  0  0  0
 18 17  1  6  0  0  0
 18 21  1  0  0  0  0
 18 15  1  0  0  0  0
 19 24  1  0  0  0  0
 19 16  1  1  0  0  0
 20 24  1  0  0  0  0
 21 26  1  6  0  0  0
 21 13  1  0  0  0  0
 23 14  1  1  0  0  0
 23 18  1  0  0  0  0
 23 21  1  0  0  0  0
 28 23  1  0  0  0  0
 29 28  1  0  0  0  0
 30 31  1  0  0  0  0
 31 45  1  0  0  0  0
 32 37  1  0  0  0  0
 33 44  1  0  0  0  0
 33 46  1  0  0  0  0
 35 36  1  1  0  0  0
 36 34  1  0  0  0  0
 37 34  1  0  0  0  0
 38 32  1  0  0  0  0
 38 35  1  0  0  0  0
 39 41  2  0  0  0  0
 41 35  1  0  0  0  0
 42 40  1  0  0  0  0
 42 52  1  1  0  0  0
 43 38  1  0  0  0  0
 44 42  1  0  0  0  0
 45 43  2  0  0  0  0
 45 39  1  0  0  0  0
 46 39  1  0  0  0  0
 46 40  1  0  0  0  0
 47 43  1  0  0  0  0
 49 48  1  1  0  0  0
 49 47  1  0  0  0  0
 50 51  1  0  0  0  0
 50 49  1  0  0  0  0
 53 52  1  0  0  0  0
 54 53  1  0  0  0  0
 55 53  2  0  0  0  0
M  END
>  <MODEL>
1

>  <REMARK>
 VINA RESULT:      -7.3      0.000      0.000
  Name = 
  16 active torsions:
  status: ('A' for Active; 'I' for Inactive)
    1  A    between atoms: C_2  and  C_28
    2  A    between atoms: C_2  and  N_44
    3  A    between atoms: C_4  and  C_40
    4  A    between atoms: C_8  and  N_22
    5  A    between atoms: C_8  and  C_43
    6  A    between atoms: C_10  and  C_32
    7  A    between atoms: C_11  and  C_38
    8  A    between atoms: C_19  and  C_40
    9  A    between atoms: C_19  and  C_45
   10  A    between atoms: C_20  and  N_22
   11  A    between atoms: C_27  and  C_54
   12  A    between atoms: C_28  and  C_49
   13  A    between atoms: C_32  and  C_39
   14  A    between atoms: C_35  and  C_43
   15  A    between atoms: C_35  and  C_51
   16  A    between atoms: C_51  and  C_54
                            x       y       z     vdW  Elec       q    Type
                         _______ _______ _______ _____ _____    ______ ____

>  <TORSDO>
F 16

$$$$
=
 OpenBabel11052419453D

 55 61  0  0  1  0  0  0  0  0999 V2000
  188.3910  174.3730  139.9960 C   0  0  0  0  0  3  0  0  0  0  0  0
  189.8060  171.9220  140.1070 C   0  0  1  0  0  3  0  0  0  0  0  0
  189.9250  172.8590  141.3070 C   0  0  0  0  0  2  0  0  0  0  0  0
  188.7930  173.8330  138.8430 C   0  0  0  0  0  3  0  0  0  0  0  0
  188.8830  173.8790  141.2540 N   0  0  0  0  0  0  0  0  0  0  0  0
  189.8160  172.7320  138.8070 C   0  0  0  0  0  2  0  0  0  0  0  0
  190.9060  170.8620  140.1260 C   0  0  0  0  0  2  0  0  0  0  0  0
  191.0020  170.0970  138.8110 C   0  0  0  0  0  2  0  0  0  0  0  0
  192.4520  169.9830  138.3610 C   0  0  0  0  0  2  0  0  0  0  0  0
  192.9290  171.2570  137.6780 C   0  0  0  0  0  2  0  0  0  0  0  0
  194.3850  171.5280  138.0040 C   0  0  0  0  0  2  0  0  0  0  0  0
  194.5170  171.7890  139.4340 N   0  0  0  0  0  2  0  0  0  0  0  0
  195.2720  175.0760  141.7950 C   0  0  2  0  0  0  0  0  0  0  0  0
  197.9410  174.1410  142.7360 O   0  0  0  0  0  1  0  0  0  0  0  0
  196.0570  173.4570  140.5110 C   0  0  2  0  0  0  0  0  0  0  0  0
  194.8080  173.9220  138.4990 F   0  0  0  0  0  0  0  0  0  0  0  0
  195.3520  171.5940  142.0880 O   0  0  0  0  0  1  0  0  0  0  0  0
  196.0230  172.8110  141.9080 C   0  0  2  0  0  0  0  0  0  0  0  0
  194.7470  173.2150  139.6950 C   0  0  1  0  0  0  0  0  0  0  0  0
  193.8420  175.0790  141.2210 C   0  0  0  0  0  2  0  0  0  0  0  0
  195.4830  173.9330  142.7920 C   0  0  1  0  0  0  0  0  0  0  0  0
  195.5710  176.4140  142.4460 C   0  0  0  0  0  1  0  0  0  0  0  0
  196.8530  173.3290  143.0750 C   0  0  2  0  0  0  0  0  0  0  0  0
  193.5410  173.7530  140.4920 C   0  0  0  0  0  2  0  0  0  0  0  0
  197.1790  173.0120  139.8080 O   0  0  0  0  0  1  0  0  0  0  0  0
  194.4080  173.5240  143.5930 O   0  0  0  0  0  1  0  0  0  0  0  0
  196.1590  174.8460  140.7270 O   0  0  0  0  0  0  0  0  0  0  0  0
  196.9840  172.4530  144.3130 C   0  0  0  0  0  2  0  0  0  0  0  0
  197.5670  173.1830  145.3510 O   0  0  0  0  0  1  0  0  0  0  0  0
  188.3510  174.3970  142.5040 C   0  0  0  0  0  2  0  0  0  0  0  0
  188.3930  175.9170  142.5030 C   0  0  0  0  0  2  0  0  0  0  0  0
  184.7730  178.0610  145.1710 C   0  0  0  0  0  2  0  0  0  0  0  0
  190.9420  176.4760  143.8590 C   0  0  0  0  0  2  0  0  0  0  0  0
  185.0530  178.4100  147.6390 C   0  0  0  0  0  2  0  0  0  0  0  0
  186.6840  176.8820  146.3700 C   0  0  1  0  0  3  0  0  0  0  0  0
  186.4920  177.8920  147.5050 C   0  0  0  0  0  2  0  0  0  0  0  0
  184.1150  177.9190  146.5410 C   0  0  0  0  0  2  0  0  0  0  0  0
  186.0630  177.3630  145.1250 N   0  0  0  0  0  0  0  0  0  0  0  0
  188.6760  176.4090  145.0370 C   0  0  0  0  0  0  0  0  0  0  0  0
  190.8510  175.7910  146.1750 C   0  0  0  0  0  2  0  0  0  0  0  0
  188.1140  176.6400  146.1880 N   0  0  0  0  0  0  0  0  0  0  0  0
  192.2970  175.7020  145.7290 C   0  0  1  0  0  3  0  0  0  0  0  0
  186.5990  176.9420  143.8560 C   0  0  0  0  0  0  0  0  0  0  0  0
  192.3690  176.3660  144.3590 C   0  0  0  0  0  2  0  0  0  0  0  0
  187.8530  176.4520  143.7960 C   0  0  0  0  0  0  0  0  0  0  0  0
  190.0950  176.1680  144.9960 N   0  0  0  0  0  0  0  0  0  0  0  0
  185.7490  177.0360  142.6160 C   0  0  0  0  0  2  0  0  0  0  0  0
  186.3120  179.3540  142.5220 O   0  0  0  0  0  1  0  0  0  0  0  0
  186.1730  178.2080  141.7400 C   0  0  2  0  0  3  0  0  0  0  0  0
  185.1650  178.4620  140.6270 C   0  0  0  0  0  2  0  0  0  0  0  0
  185.1790  177.4290  139.7070 F   0  0  0  0  0  0  0  0  0  0  0  0
  193.1880  176.4260  146.7270 C   0  0  0  0  0  2  0  0  0  0  0  0
  194.5450  176.6570  146.1540 C   0  0  0  0  0  0  0  0  0  0  0  0
  194.9420  177.8310  145.9220 O   0  0  0  0  0  1  0  0  0  0  0  0
  195.3860  175.5810  145.9050 O   0  0  0  0  0  0  0  0  0  0  0  0
  1  5  1  0  0  0  0
  2  7  1  6  0  0  0
  2  3  1  0  0  0  0
  4  1  2  0  0  0  0
  5  3  1  0  0  0  0
  5 30  1  0  0  0  0
  6  4  1  0  0  0  0
  6  2  1  0  0  0  0
  8  7  1  0  0  0  0
  9  8  1  0  0  0  0
 10 11  1  0  0  0  0
 10  9  1  0  0  0  0
 11 12  1  0  0  0  0
 12 19  1  0  0  0  0
 13 22  1  1  0  0  0
 13 21  1  0  0  0  0
 15 25  1  6  0  0  0
 15 27  1  0  0  0  0
 15 18  1  0  0  0  0
 18 17  1  1  0  0  0
 18 21  1  0  0  0  0
 18 23  1  0  0  0  0
 19 16  1  6  0  0  0
 19 24  1  0  0  0  0
 19 15  1  0  0  0  0
 20 13  1  0  0  0  0
 21 23  1  0  0  0  0
 21 26  1  1  0  0  0
 23 14  1  6  0  0  0
 23 28  1  0  0  0  0
 24 20  1  0  0  0  0
 27 13  1  0  0  0  0
 28 29  1  0  0  0  0
 31 30  1  0  0  0  0
 31 45  1  0  0  0  0
 32 37  1  0  0  0  0
 33 44  1  0  0  0  0
 33 46  1  0  0  0  0
 35 36  1  1  0  0  0
 36 34  1  0  0  0  0
 37 34  1  0  0  0  0
 38 32  1  0  0  0  0
 38 35  1  0  0  0  0
 39 41  2  0  0  0  0
 41 35  1  0  0  0  0
 42 40  1  0  0  0  0
 42 52  1  1  0  0  0
 43 38  1  0  0  0  0
 44 42  1  0  0  0  0
 45 43  2  0  0  0  0
 45 39  1  0  0  0  0
 46 39  1  0  0  0  0
 46 40  1  0  0  0  0
 47 43  1  0  0  0  0
 49 48  1  1  0  0  0
 49 47  1  0  0  0  0
 50 49  1  0  0  0  0
 51 50  1  0  0  0  0
 53 52  1  0  0  0  0
 54 53  1  0  0  0  0
 55 53  2  0  0  0  0
M  END
>  <MODEL>
2

>  <REMARK>
 VINA RESULT:      -7.2      1.616      2.789
  Name = 
  16 active torsions:
  status: ('A' for Active; 'I' for Inactive)
    1  A    between atoms: C_2  and  C_28
    2  A    between atoms: C_2  and  N_44
    3  A    between atoms: C_4  and  C_40
    4  A    between atoms: C_8  and  N_22
    5  A    between atoms: C_8  and  C_43
    6  A    between atoms: C_10  and  C_32
    7  A    between atoms: C_11  and  C_38
    8  A    between atoms: C_19  and  C_40
    9  A    between atoms: C_19  and  C_45
   10  A    between atoms: C_20  and  N_22
   11  A    between atoms: C_27  and  C_54
   12  A    between atoms: C_28  and  C_49
   13  A    between atoms: C_32  and  C_39
   14  A    between atoms: C_35  and  C_43
   15  A    between atoms: C_35  and  C_51
   16  A    between atoms: C_51  and  C_54
                            x       y       z     vdW  Elec       q    Type
                         _______ _______ _______ _____ _____    ______ ____

>  <TORSDO>
F 16

$$$$
=
 OpenBabel11052419453D

 55 61  0  0  1  0  0  0  0  0999 V2000
  188.2310  174.3220  139.4830 C   0  0  0  0  0  3  0  0  0  0  0  0
  189.6370  171.8670  139.3330 C   0  0  1  0  0  3  0  0  0  0  0  0
  189.9440  172.7840  140.5160 C   0  0  0  0  0  2  0  0  0  0  0  0
  188.4480  173.8010  138.2730 C   0  0  0  0  0  3  0  0  0  0  0  0
  188.9090  173.8060  140.6410 N   0  0  0  0  0  0  0  0  0  0  0  0
  189.4490  172.6990  138.0620 C   0  0  0  0  0  2  0  0  0  0  0  0
  190.7230  170.8070  139.1640 C   0  0  0  0  0  2  0  0  0  0  0  0
  190.7030  169.7680  140.2800 C   0  0  0  0  0  2  0  0  0  0  0  0
  192.0590  169.6940  140.9690 C   0  0  0  0  0  2  0  0  0  0  0  0
  191.9560  169.0370  142.3380 C   0  0  0  0  0  2  0  0  0  0  0  0
  192.5030  169.9540  143.4150 C   0  0  0  0  0  2  0  0  0  0  0  0
  192.7410  171.2760  142.8460 N   0  0  0  0  0  2  0  0  0  0  0  0
  196.2440  172.6770  144.4940 C   0  0  2  0  0  0  0  0  0  0  0  0
  197.3090  173.8260  141.9580 O   0  0  0  0  0  1  0  0  0  0  0  0
  194.6500  172.9050  142.9800 C   0  0  2  0  0  0  0  0  0  0  0  0
  192.7360  172.9900  144.4480 F   0  0  0  0  0  0  0  0  0  0  0  0
  195.2500  170.7730  141.7360 O   0  0  0  0  0  1  0  0  0  0  0  0
  195.6720  171.9950  142.2770 C   0  0  2  0  0  0  0  0  0  0  0  0
  193.5480  172.1060  143.7480 C   0  0  1  0  0  0  0  0  0  0  0  0
  195.4270  171.8230  145.4840 C   0  0  0  0  0  2  0  0  0  0  0  0
  196.7730  171.8410  143.3240 C   0  0  1  0  0  0  0  0  0  0  0  0
  197.3870  173.3610  145.2220 C   0  0  0  0  0  1  0  0  0  0  0  0
  197.0930  172.4430  141.9610 C   0  0  2  0  0  0  0  0  0  0  0  0
  194.2180  171.1740  144.7800 C   0  0  0  0  0  2  0  0  0  0  0  0
  194.0820  173.7860  142.0580 O   0  0  0  0  0  1  0  0  0  0  0  0
  197.1260  170.5040  143.5500 O   0  0  0  0  0  1  0  0  0  0  0  0
  195.3760  173.6360  143.9420 O   0  0  0  0  0  0  0  0  0  0  0  0
  197.9220  171.5970  141.0050 C   0  0  0  0  0  2  0  0  0  0  0  0
  197.5290  171.8460  139.6890 O   0  0  0  0  0  1  0  0  0  0  0  0
  188.5790  174.3030  141.9680 C   0  0  0  0  0  2  0  0  0  0  0  0
  188.4990  175.8220  141.9530 C   0  0  0  0  0  2  0  0  0  0  0  0
  185.2440  177.6090  145.2760 C   0  0  0  0  0  2  0  0  0  0  0  0
  191.1760  176.7390  142.7550 C   0  0  0  0  0  2  0  0  0  0  0  0
  185.9670  178.0830  147.6290 C   0  0  0  0  0  2  0  0  0  0  0  0
  187.4910  176.7190  146.0750 C   0  0  1  0  0  3  0  0  0  0  0  0
  187.4030  177.7400  147.2120 C   0  0  0  0  0  2  0  0  0  0  0  0
  184.8980  177.4400  146.7520 C   0  0  0  0  0  2  0  0  0  0  0  0
  186.5770  177.0720  144.9770 N   0  0  0  0  0  0  0  0  0  0  0  0
  189.2190  176.4420  144.3710 C   0  0  0  0  0  0  0  0  0  0  0  0
  191.6390  176.1370  145.0500 C   0  0  0  0  0  2  0  0  0  0  0  0
  188.8750  176.6460  145.6090 N   0  0  0  0  0  0  0  0  0  0  0  0
  192.9650  176.2080  144.3200 C   0  0  1  0  0  3  0  0  0  0  0  0
  186.8970  176.6710  143.6310 C   0  0  0  0  0  0  0  0  0  0  0  0
  192.6760  176.8230  142.9550 C   0  0  0  0  0  2  0  0  0  0  0  0
  188.1650  176.3360  143.3230 C   0  0  0  0  0  0  0  0  0  0  0  0
  190.6190  176.3730  144.0450 N   0  0  0  0  0  0  0  0  0  0  0  0
  185.8110  176.6130  142.5880 C   0  0  0  0  0  2  0  0  0  0  0  0
  184.4140  178.4890  142.1110 O   0  0  0  0  0  1  0  0  0  0  0  0
  185.6720  177.9420  141.8570 C   0  0  2  0  0  3  0  0  0  0  0  0
  185.8660  177.7730  140.3560 C   0  0  0  0  0  2  0  0  0  0  0  0
  187.2040  177.8860  140.0190 F   0  0  0  0  0  0  0  0  0  0  0  0
  193.9390  177.0730  145.1060 C   0  0  0  0  0  2  0  0  0  0  0  0
  194.1380  176.5290  146.4810 C   0  0  0  0  0  0  0  0  0  0  0  0
  193.4710  176.9900  147.4460 O   0  0  0  0  0  1  0  0  0  0  0  0
  195.0360  175.4920  146.6930 O   0  0  0  0  0  0  0  0  0  0  0  0
  1  5  1  0  0  0  0
  2  7  1  6  0  0  0
  2  3  1  0  0  0  0
  3  5  1  0  0  0  0
  4  1  2  0  0  0  0
  5 30  1  0  0  0  0
  6  4  1  0  0  0  0
  6  2  1  0  0  0  0
  7  8  1  0  0  0  0
  8  9  1  0  0  0  0
  9 10  1  0  0  0  0
 10 11  1  0  0  0  0
 12 11  1  0  0  0  0
 12 19  1  0  0  0  0
 13 22  1  1  0  0  0
 13 20  1  0  0  0  0
 15 25  1  6  0  0  0
 15 19  1  0  0  0  0
 15 27  1  0  0  0  0
 18 17  1  6  0  0  0
 18 15  1  0  0  0  0
 18 21  1  0  0  0  0
 19 16  1  1  0  0  0
 19 24  1  0  0  0  0
 21 26  1  1  0  0  0
 21 13  1  0  0  0  0
 23 14  1  6  0  0  0
 23 18  1  0  0  0  0
 23 21  1  0  0  0  0
 24 20  1  0  0  0  0
 27 13  1  0  0  0  0
 28 23  1  0  0  0  0
 29 28  1  0  0  0  0
 31 30  1  0  0  0  0
 31 45  1  0  0  0  0
 32 37  1  0  0  0  0
 33 44  1  0  0  0  0
 33 46  1  0  0  0  0
 35 36  1  1  0  0  0
 36 34  1  0  0  0  0
 37 34  1  0  0  0  0
 38 32  1  0  0  0  0
 38 35  1  0  0  0  0
 39 41  2  0  0  0  0
 41 35  1  0  0  0  0
 42 40  1  0  0  0  0
 42 52  1  1  0  0  0
 43 38  1  0  0  0  0
 44 42  1  0  0  0  0
 45 43  2  0  0  0  0
 45 39  1  0  0  0  0
 46 39  1  0  0  0  0
 46 40  1  0  0  0  0
 47 43  1  0  0  0  0
 49 48  1  6  0  0  0
 49 47  1  0  0  0  0
 50 49  1  0  0  0  0
 51 50  1  0  0  0  0
 52 53  1  0  0  0  0
 53 55  2  0  0  0  0
 53 54  1  0  0  0  0
M  END
>  <MODEL>
3

>  <REMARK>
 VINA RESULT:      -6.8      1.617      1.995
  Name = 
  16 active torsions:
  status: ('A' for Active; 'I' for Inactive)
    1  A    between atoms: C_2  and  C_28
    2  A    between atoms: C_2  and  N_44
    3  A    between atoms: C_4  and  C_40
    4  A    between atoms: C_8  and  N_22
    5  A    between atoms: C_8  and  C_43
    6  A    between atoms: C_10  and  C_32
    7  A    between atoms: C_11  and  C_38
    8  A    between atoms: C_19  and  C_40
    9  A    between atoms: C_19  and  C_45
   10  A    between atoms: C_20  and  N_22
   11  A    between atoms: C_27  and  C_54
   12  A    between atoms: C_28  and  C_49
   13  A    between atoms: C_32  and  C_39
   14  A    between atoms: C_35  and  C_43
   15  A    between atoms: C_35  and  C_51
   16  A    between atoms: C_51  and  C_54
                            x       y       z     vdW  Elec       q    Type
                         _______ _______ _______ _____ _____    ______ ____

>  <TORSDO>
F 16

$$$$
=
 OpenBabel11052419453D

 55 61  0  0  1  0  0  0  0  0999 V2000
  188.2340  173.7200  139.6060 C   0  0  0  0  0  3  0  0  0  0  0  0
  190.5020  172.0300  139.4490 C   0  0  1  0  0  3  0  0  0  0  0  0
  190.7410  173.5000  139.7890 C   0  0  0  0  0  2  0  0  0  0  0  0
  188.1700  172.6660  138.7890 C   0  0  0  0  0  3  0  0  0  0  0  0
  189.4860  174.1370  140.1780 N   0  0  0  0  0  0  0  0  0  0  0  0
  189.4060  171.9110  138.3860 C   0  0  0  0  0  2  0  0  0  0  0  0
  191.7980  171.3510  139.0090 C   0  0  0  0  0  2  0  0  0  0  0  0
  192.0160  170.0090  139.6980 C   0  0  0  0  0  2  0  0  0  0  0  0
  193.0260  169.1690  138.9290 C   0  0  0  0  0  2  0  0  0  0  0  0
  194.3040  168.9580  139.7290 C   0  0  0  0  0  2  0  0  0  0  0  0
  195.2190  170.1610  139.6060 C   0  0  0  0  0  2  0  0  0  0  0  0
  195.4740  170.7100  140.9340 N   0  0  0  0  0  2  0  0  0  0  0  0
  195.1890  174.4420  142.6490 C   0  0  2  0  0  0  0  0  0  0  0  0
  197.7410  174.2450  144.1780 O   0  0  0  0  0  1  0  0  0  0  0  0
  196.4710  172.8170  141.8730 C   0  0  2  0  0  0  0  0  0  0  0  0
  195.5800  172.6610  139.6350 F   0  0  0  0  0  0  0  0  0  0  0  0
  195.7920  171.1540  143.6700 O   0  0  0  0  0  1  0  0  0  0  0  0
  196.2720  172.4300  143.3490 C   0  0  2  0  0  0  0  0  0  0  0  0
  195.4060  172.1760  140.9260 C   0  0  1  0  0  0  0  0  0  0  0  0
  193.9190  174.0550  141.8660 C   0  0  0  0  0  2  0  0  0  0  0  0
  195.3890  173.5570  143.8830 C   0  0  1  0  0  0  0  0  0  0  0  0
  195.1260  175.9060  143.0460 C   0  0  0  0  0  1  0  0  0  0  0  0
  196.7590  173.3020  144.5010 C   0  0  2  0  0  0  0  0  0  0  0  0
  193.9940  172.5890  141.3910 C   0  0  0  0  0  2  0  0  0  0  0  0
  197.7670  172.4930  141.4660 O   0  0  0  0  0  1  0  0  0  0  0  0
  194.2620  173.0850  144.5690 O   0  0  0  0  0  1  0  0  0  0  0  0
  196.2940  174.2140  141.8080 O   0  0  0  0  0  0  0  0  0  0  0  0
  196.7890  172.7000  145.8990 C   0  0  0  0  0  2  0  0  0  0  0  0
  197.2200  173.6590  146.8180 O   0  0  0  0  0  1  0  0  0  0  0  0
  189.5250  175.2120  141.1560 C   0  0  0  0  0  2  0  0  0  0  0  0
  188.4940  174.9660  142.2470 C   0  0  0  0  0  2  0  0  0  0  0  0
  191.5490  174.5970  146.1650 C   0  0  0  0  0  2  0  0  0  0  0  0
  186.1250  176.4800  143.1120 C   0  0  0  0  0  2  0  0  0  0  0  0
  191.5260  176.3470  147.9600 C   0  0  0  0  0  2  0  0  0  0  0  0
  190.3250  176.7860  145.7320 C   0  0  1  0  0  3  0  0  0  0  0  0
  190.3350  177.0010  147.2480 C   0  0  0  0  0  2  0  0  0  0  0  0
  192.4060  175.5030  147.0450 C   0  0  0  0  0  2  0  0  0  0  0  0
  190.5690  175.3730  145.3980 N   0  0  0  0  0  0  0  0  0  0  0  0
  188.4300  176.6860  144.1930 C   0  0  0  0  0  0  0  0  0  0  0  0
  186.7660  178.5910  144.0970 C   0  0  0  0  0  2  0  0  0  0  0  0
  189.0440  177.2430  145.1960 N   0  0  0  0  0  0  0  0  0  0  0  0
  185.3820  178.7660  143.5050 C   0  0  1  0  0  3  0  0  0  0  0  0
  190.0250  174.8280  144.1800 C   0  0  0  0  0  0  0  0  0  0  0  0
  184.9010  177.3740  143.1120 C   0  0  0  0  0  2  0  0  0  0  0  0
  189.0070  175.4640  143.5660 C   0  0  0  0  0  0  0  0  0  0  0  0
  187.1800  177.2450  143.7500 N   0  0  0  0  0  0  0  0  0  0  0  0
  190.6100  173.5690  143.5970 C   0  0  0  0  0  2  0  0  0  0  0  0
  189.5180  172.0460  145.0760 O   0  0  0  0  0  1  0  0  0  0  0  0
  189.6480  172.3950  143.7320 C   0  0  2  0  0  3  0  0  0  0  0  0
  190.1250  171.1910  142.9310 C   0  0  0  0  0  2  0  0  0  0  0  0
  191.5030  171.0730  142.9960 F   0  0  0  0  0  0  0  0  0  0  0  0
  184.4550  179.3860  144.5390 C   0  0  0  0  0  2  0  0  0  0  0  0
  184.7710  178.8780  145.9050 C   0  0  0  0  0  0  0  0  0  0  0  0
  185.6180  179.4760  146.6220 O   0  0  0  0  0  1  0  0  0  0  0  0
  184.1090  177.7630  146.4000 O   0  0  0  0  0  0  0  0  0  0  0  0
  1  5  1  0  0  0  0
  2  7  1  6  0  0  0
  2  3  1  0  0  0  0
  3  5  1  0  0  0  0
  4  1  2  0  0  0  0
  5 30  1  0  0  0  0
  6  4  1  0  0  0  0
  6  2  1  0  0  0  0
  7  8  1  0  0  0  0
  9  8  1  0  0  0  0
  9 10  1  0  0  0  0
 11 10  1  0  0  0  0
 11 12  1  0  0  0  0
 13 22  1  1  0  0  0
 13 21  1  0  0  0  0
 15 25  1  6  0  0  0
 15 18  1  0  0  0  0
 18 17  1  1  0  0  0
 18 21  1  0  0  0  0
 18 23  1  0  0  0  0
 19 16  1  6  0  0  0
 19 12  1  0  0  0  0
 19 24  1  0  0  0  0
 19 15  1  0  0  0  0
 20 13  1  0  0  0  0
 21 23  1  0  0  0  0
 21 26  1  1  0  0  0
 23 14  1  6  0  0  0
 23 28  1  0  0  0  0
 24 20  1  0  0  0  0
 27 15  1  0  0  0  0
 27 13  1  0  0  0  0
 28 29  1  0  0  0  0
 30 31  1  0  0  0  0
 31 45  1  0  0  0  0
 32 37  1  0  0  0  0
 33 46  1  0  0  0  0
 35 36  1  1  0  0  0
 36 34  1  0  0  0  0
 37 34  1  0  0  0  0
 38 35  1  0  0  0  0
 38 32  1  0  0  0  0
 39 41  2  0  0  0  0
 41 35  1  0  0  0  0
 42 40  1  0  0  0  0
 42 52  1  1  0  0  0
 43 38  1  0  0  0  0
 44 33  1  0  0  0  0
 44 42  1  0  0  0  0
 45 43  2  0  0  0  0
 45 39  1  0  0  0  0
 46 40  1  0  0  0  0
 46 39  1  0  0  0  0
 47 49  1  0  0  0  0
 47 43  1  0  0  0  0
 49 48  1  1  0  0  0
 50 51  1  0  0  0  0
 50 49  1  0  0  0  0
 52 53  1  0  0  0  0
 53 55  2  0  0  0  0
 53 54  1  0  0  0  0
M  END
>  <MODEL>
4

>  <REMARK>
 VINA RESULT:      -6.5      2.520      5.425
  Name = 
  16 active torsions:
  status: ('A' for Active; 'I' for Inactive)
    1  A    between atoms: C_2  and  C_28
    2  A    between atoms: C_2  and  N_44
    3  A    between atoms: C_4  and  C_40
    4  A    between atoms: C_8  and  N_22
    5  A    between atoms: C_8  and  C_43
    6  A    between atoms: C_10  and  C_32
    7  A    between atoms: C_11  and  C_38
    8  A    between atoms: C_19  and  C_40
    9  A    between atoms: C_19  and  C_45
   10  A    between atoms: C_20  and  N_22
   11  A    between atoms: C_27  and  C_54
   12  A    between atoms: C_28  and  C_49
   13  A    between atoms: C_32  and  C_39
   14  A    between atoms: C_35  and  C_43
   15  A    between atoms: C_35  and  C_51
   16  A    between atoms: C_51  and  C_54
                            x       y       z     vdW  Elec       q    Type
                         _______ _______ _______ _____ _____    ______ ____

>  <TORSDO>
F 16

$$$$
=
 OpenBabel11052419453D

 55 61  0  0  1  0  0  0  0  0999 V2000
  188.4980  173.2200  141.6460 C   0  0  0  0  0  3  0  0  0  0  0  0
  188.8050  175.9940  142.1300 C   0  0  1  0  0  3  0  0  0  0  0  0
  190.0170  175.0980  142.3740 C   0  0  0  0  0  2  0  0  0  0  0  0
  187.4160  173.9120  142.0120 C   0  0  0  0  0  3  0  0  0  0  0  0
  189.8120  173.7940  141.7520 N   0  0  0  0  0  0  0  0  0  0  0  0
  187.5300  175.2900  142.6030 C   0  0  0  0  0  2  0  0  0  0  0  0
  188.9840  177.3560  142.7980 C   0  0  0  0  0  2  0  0  0  0  0  0
  190.4310  177.8340  142.7660 C   0  0  0  0  0  2  0  0  0  0  0  0
  190.8990  178.2190  144.1630 C   0  0  0  0  0  2  0  0  0  0  0  0
  190.1360  177.4600  145.2400 C   0  0  0  0  0  2  0  0  0  0  0  0
  191.0640  176.5380  146.0060 C   0  0  0  0  0  2  0  0  0  0  0  0
  191.8520  175.7540  145.0610 N   0  0  0  0  0  2  0  0  0  0  0  0
  195.7800  174.5240  144.9640 C   0  0  2  0  0  0  0  0  0  0  0  0
  196.8130  176.9840  143.6350 O   0  0  0  0  0  1  0  0  0  0  0  0
  194.3270  176.1840  145.1010 C   0  0  2  0  0  0  0  0  0  0  0  0
  193.0840  175.4490  147.0350 F   0  0  0  0  0  0  0  0  0  0  0  0
  193.4170  175.8450  142.7540 O   0  0  0  0  0  1  0  0  0  0  0  0
  194.5310  176.0220  143.5840 C   0  0  2  0  0  0  0  0  0  0  0  0
  193.1320  175.3410  145.6500 C   0  0  1  0  0  0  0  0  0  0  0  0
  194.8270  173.4150  145.4520 C   0  0  0  0  0  2  0  0  0  0  0  0
  195.5370  174.8760  143.4930 C   0  0  1  0  0  0  0  0  0  0  0  0
  197.2210  174.1000  145.1810 C   0  0  0  0  0  1  0  0  0  0  0  0
  195.8780  176.2410  142.9060 C   0  0  2  0  0  0  0  0  0  0  0  0
  193.3560  173.8530  145.3070 C   0  0  0  0  0  2  0  0  0  0  0  0
  194.1790  177.5360  145.4200 O   0  0  0  0  0  1  0  0  0  0  0  0
  195.1320  173.8650  142.6120 O   0  0  0  0  0  1  0  0  0  0  0  0
  195.4980  175.6850  145.7070 O   0  0  0  0  0  0  0  0  0  0  0  0
  195.9120  176.3550  141.3880 C   0  0  0  0  0  2  0  0  0  0  0  0
  197.1470  175.9130  140.9080 O   0  0  0  0  0  1  0  0  0  0  0  0
  190.9700  173.0750  141.2430 C   0  0  0  0  0  2  0  0  0  0  0  0
  190.6720  171.5860  141.1680 C   0  0  0  0  0  2  0  0  0  0  0  0
  191.4920  169.7130  136.6250 C   0  0  0  0  0  2  0  0  0  0  0  0
  192.5660  170.2960  143.0120 C   0  0  0  0  0  2  0  0  0  0  0  0
  193.7620  168.8520  135.9990 C   0  0  0  0  0  2  0  0  0  0  0  0
  193.4690  170.2490  138.1360 C   0  0  1  0  0  3  0  0  0  0  0  0
  194.2070  169.0980  137.4470 C   0  0  0  0  0  2  0  0  0  0  0  0
  192.5840  169.7150  135.5590 C   0  0  0  0  0  2  0  0  0  0  0  0
  192.0150  170.1440  137.9260 N   0  0  0  0  0  0  0  0  0  0  0  0
  192.9710  170.5740  140.5050 C   0  0  0  0  0  0  0  0  0  0  0  0
  194.8360  170.5310  142.2150 C   0  0  0  0  0  2  0  0  0  0  0  0
  193.8000  170.2400  139.5590 N   0  0  0  0  0  0  0  0  0  0  0  0
  194.8920  170.4220  143.7260 C   0  0  1  0  0  3  0  0  0  0  0  0
  191.1160  170.6880  138.9110 C   0  0  0  0  0  0  0  0  0  0  0  0
  193.4910  170.0310  144.1840 C   0  0  0  0  0  2  0  0  0  0  0  0
  191.5660  170.9290  140.1580 C   0  0  0  0  0  0  0  0  0  0  0  0
  193.4270  170.5400  141.8690 N   0  0  0  0  0  0  0  0  0  0  0  0
  189.6920  170.9990  138.5330 C   0  0  0  0  0  2  0  0  0  0  0  0
  190.7720  173.0160  137.8500 O   0  0  0  0  0  1  0  0  0  0  0  0
  189.6030  172.2710  137.6980 C   0  0  2  0  0  3  0  0  0  0  0  0
  188.3990  173.1140  138.0970 C   0  0  0  0  0  2  0  0  0  0  0  0
  188.5800  174.4340  137.7230 F   0  0  0  0  0  0  0  0  0  0  0  0
  195.9060  169.3630  144.1280 C   0  0  0  0  0  2  0  0  0  0  0  0
  196.7590  169.8460  145.2520 C   0  0  0  0  0  0  0  0  0  0  0  0
  197.9410  170.2250  145.0310 O   0  0  0  0  0  0  0  0  0  0  0  0
  196.2410  169.9090  146.5380 O   0  0  0  0  0  1  0  0  0  0  0  0
  1  5  1  0  0  0  0
  1  4  2  0  0  0  0
  2  3  1  0  0  0  0
  2  6  1  0  0  0  0
  2  7  1  1  0  0  0
  4  6  1  0  0  0  0
  5  3  1  0  0  0  0
  8  7  1  0  0  0  0
  8  9  1  0  0  0  0
  9 10  1  0  0  0  0
 10 11  1  0  0  0  0
 12 19  1  0  0  0  0
 12 11  1  0  0  0  0
 13 22  1  1  0  0  0
 13 20  1  0  0  0  0
 13 27  1  0  0  0  0
 15 25  1  1  0  0  0
 15 19  1  0  0  0  0
 15 27  1  0  0  0  0
 18 17  1  6  0  0  0
 18 15  1  0  0  0  0
 19 16  1  1  0  0  0
 21 26  1  6  0  0  0
 21 18  1  0  0  0  0
 21 13  1  0  0  0  0
 23 21  1  0  0  0  0
 23 18  1  0  0  0  0
 23 14  1  1  0  0  0
 24 20  1  0  0  0  0
 24 19  1  0  0  0  0
 28 23  1  0  0  0  0
 29 28  1  0  0  0  0
 30  5  1  0  0  0  0
 31 30  1  0  0  0  0
 32 38  1  0  0  0  0
 33 44  1  0  0  0  0
 34 36  1  0  0  0  0
 35 36  1  6  0  0  0
 35 41  1  0  0  0  0
 37 34  1  0  0  0  0
 37 32  1  0  0  0  0
 38 35  1  0  0  0  0
 38 43  1  0  0  0  0
 39 46  1  0  0  0  0
 40 42  1  0  0  0  0
 41 39  2  0  0  0  0
 42 52  1  6  0  0  0
 42 44  1  0  0  0  0
 43 45  2  0  0  0  0
 45 39  1  0  0  0  0
 45 31  1  0  0  0  0
 46 40  1  0  0  0  0
 46 33  1  0  0  0  0
 47 43  1  0  0  0  0
 49 48  1  1  0  0  0
 49 50  1  0  0  0  0
 49 47  1  0  0  0  0
 51 50  1  0  0  0  0
 52 53  1  0  0  0  0
 53 55  1  0  0  0  0
 54 53  2  0  0  0  0
M  END
>  <MODEL>
5

>  <REMARK>
 VINA RESULT:      -6.4      2.854      7.394
  Name = 
  16 active torsions:
  status: ('A' for Active; 'I' for Inactive)
    1  A    between atoms: C_2  and  C_28
    2  A    between atoms: C_2  and  N_44
    3  A    between atoms: C_4  and  C_40
    4  A    between atoms: C_8  and  N_22
    5  A    between atoms: C_8  and  C_43
    6  A    between atoms: C_10  and  C_32
    7  A    between atoms: C_11  and  C_38
    8  A    between atoms: C_19  and  C_40
    9  A    between atoms: C_19  and  C_45
   10  A    between atoms: C_20  and  N_22
   11  A    between atoms: C_27  and  C_54
   12  A    between atoms: C_28  and  C_49
   13  A    between atoms: C_32  and  C_39
   14  A    between atoms: C_35  and  C_43
   15  A    between atoms: C_35  and  C_51
   16  A    between atoms: C_51  and  C_54
                            x       y       z     vdW  Elec       q    Type
                         _______ _______ _______ _____ _____    ______ ____

>  <TORSDO>
F 16

$$$$
=
 OpenBabel11052419453D

 55 61  0  0  1  0  0  0  0  0999 V2000
  191.3570  169.4000  142.0100 C   0  0  0  0  0  3  0  0  0  0  0  0
  192.8070  170.6930  144.0720 C   0  0  1  0  0  3  0  0  0  0  0  0
  192.3870  171.5360  142.8700 C   0  0  0  0  0  2  0  0  0  0  0  0
  192.2090  168.6640  142.7290 C   0  0  0  0  0  3  0  0  0  0  0  0
  191.3690  170.8350  142.0940 N   0  0  0  0  0  0  0  0  0  0  0  0
  193.2490  169.3030  143.6070 C   0  0  0  0  0  2  0  0  0  0  0  0
  193.8950  171.3950  144.8820 C   0  0  0  0  0  2  0  0  0  0  0  0
  195.2440  170.6930  144.7780 C   0  0  0  0  0  2  0  0  0  0  0  0
  196.3510  171.6970  144.4870 C   0  0  0  0  0  2  0  0  0  0  0  0
  196.6810  172.5380  145.7130 C   0  0  0  0  0  2  0  0  0  0  0  0
  196.7610  174.0080  145.3500 C   0  0  0  0  0  2  0  0  0  0  0  0
  195.6690  174.7240  145.9990 N   0  0  0  0  0  2  0  0  0  0  0  0
  192.5900  176.5300  143.9460 C   0  0  2  0  0  0  0  0  0  0  0  0
  191.0740  177.3520  146.3770 O   0  0  0  0  0  1  0  0  0  0  0  0
  193.8610  176.4520  145.7530 C   0  0  2  0  0  0  0  0  0  0  0  0
  196.0280  176.6500  144.7080 F   0  0  0  0  0  0  0  0  0  0  0  0
  192.9790  174.1960  146.5190 O   0  0  0  0  0  1  0  0  0  0  0  0
  192.7000  175.5040  146.1010 C   0  0  2  0  0  0  0  0  0  0  0  0
  195.0740  175.7170  145.0960 C   0  0  1  0  0  0  0  0  0  0  0  0
  193.5660  175.7870  143.0120 C   0  0  0  0  0  2  0  0  0  0  0  0
  191.8230  175.5620  144.8520 C   0  0  1  0  0  0  0  0  0  0  0  0
  191.6290  177.3710  143.1270 C   0  0  0  0  0  1  0  0  0  0  0  0
  191.2550  175.9750  146.2050 C   0  0  2  0  0  0  0  0  0  0  0  0
  194.5990  174.9810  143.8260 C   0  0  0  0  0  2  0  0  0  0  0  0
  194.2560  177.1590  146.8910 O   0  0  0  0  0  1  0  0  0  0  0  0
  191.4910  174.2920  144.3620 O   0  0  0  0  0  1  0  0  0  0  0  0
  193.3550  177.3520  144.7940 O   0  0  0  0  0  0  0  0  0  0  0  0
  190.2350  175.0430  146.8440 C   0  0  0  0  0  2  0  0  0  0  0  0
  189.0080  175.6970  146.9690 O   0  0  0  0  0  1  0  0  0  0  0  0
  190.3620  171.6190  141.3970 C   0  0  0  0  0  2  0  0  0  0  0  0
  190.9150  172.9930  141.0490 C   0  0  0  0  0  2  0  0  0  0  0  0
  190.7170  173.7150  136.1230 C   0  0  0  0  0  2  0  0  0  0  0  0
  189.3010  175.0990  142.3170 C   0  0  0  0  0  2  0  0  0  0  0  0
  188.7300  174.8380  135.0850 C   0  0  0  0  0  2  0  0  0  0  0  0
  188.6150  174.0330  137.5230 C   0  0  1  0  0  3  0  0  0  0  0  0
  188.1870  175.0880  136.4990 C   0  0  0  0  0  2  0  0  0  0  0  0
  189.6930  173.6600  134.9930 C   0  0  0  0  0  2  0  0  0  0  0  0
  190.0600  173.7680  137.4340 N   0  0  0  0  0  0  0  0  0  0  0  0
  188.9370  174.2550  139.9340 C   0  0  0  0  0  0  0  0  0  0  0  0
  187.0700  175.1470  141.3910 C   0  0  0  0  0  2  0  0  0  0  0  0
  188.2420  174.4920  138.8600 N   0  0  0  0  0  0  0  0  0  0  0  0
  186.9850  175.6650  142.8130 C   0  0  1  0  0  3  0  0  0  0  0  0
  190.7730  173.3280  138.6060 C   0  0  0  0  0  0  0  0  0  0  0  0
  188.4200  175.8570  143.2900 C   0  0  0  0  0  2  0  0  0  0  0  0
  190.2350  173.5300  139.8250 C   0  0  0  0  0  0  0  0  0  0  0  0
  188.4510  174.7480  141.1960 N   0  0  0  0  0  0  0  0  0  0  0  0
  192.1010  172.6330  138.4570 C   0  0  0  0  0  2  0  0  0  0  0  0
  190.5900  170.8170  138.1190 O   0  0  0  0  0  1  0  0  0  0  0  0
  191.9260  171.1940  137.9890 C   0  0  2  0  0  3  0  0  0  0  0  0
  192.8100  170.2400  138.7800 C   0  0  0  0  0  2  0  0  0  0  0  0
  193.5360  170.9260  139.7380 F   0  0  0  0  0  0  0  0  0  0  0  0
  186.2260  176.9830  142.8360 C   0  0  0  0  0  2  0  0  0  0  0  0
  185.5360  177.1740  144.1440 C   0  0  0  0  0  0  0  0  0  0  0  0
  184.5800  177.9900  144.2410 O   0  0  0  0  0  0  0  0  0  0  0  0
  185.9250  176.4290  145.2490 O   0  0  0  0  0  1  0  0  0  0  0  0
  1  5  1  0  0  0  0
  1  4  2  0  0  0  0
  2  7  1  6  0  0  0
  3  2  1  0  0  0  0
  4  6  1  0  0  0  0
  5  3  1  0  0  0  0
  6  2  1  0  0  0  0
  8  7  1  0  0  0  0
  9  8  1  0  0  0  0
  9 10  1  0  0  0  0
 11 10  1  0  0  0  0
 11 12  1  0  0  0  0
 13 22  1  6  0  0  0
 13 27  1  0  0  0  0
 13 21  1  0  0  0  0
 15 18  1  0  0  0  0
 15 25  1  1  0  0  0
 18 23  1  0  0  0  0
 18 17  1  1  0  0  0
 19 16  1  6  0  0  0
 19 15  1  0  0  0  0
 19 12  1  0  0  0  0
 20 24  1  0  0  0  0
 20 13  1  0  0  0  0
 21 26  1  6  0  0  0
 21 18  1  0  0  0  0
 21 23  1  0  0  0  0
 23 14  1  1  0  0  0
 23 28  1  0  0  0  0
 24 19  1  0  0  0  0
 27 15  1  0  0  0  0
 28 29  1  0  0  0  0
 30  5  1  0  0  0  0
 31 30  1  0  0  0  0
 32 38  1  0  0  0  0
 33 44  1  0  0  0  0
 34 36  1  0  0  0  0
 35 36  1  6  0  0  0
 35 41  1  0  0  0  0
 37 34  1  0  0  0  0
 37 32  1  0  0  0  0
 38 35  1  0  0  0  0
 38 43  1  0  0  0  0
 39 46  1  0  0  0  0
 40 42  1  0  0  0  0
 41 39  2  0  0  0  0
 42 52  1  6  0  0  0
 42 44  1  0  0  0  0
 43 45  2  0  0  0  0
 45 39  1  0  0  0  0
 45 31  1  0  0  0  0
 46 40  1  0  0  0  0
 46 33  1  0  0  0  0
 47 43  1  0  0  0  0
 49 48  1  1  0  0  0
 49 47  1  0  0  0  0
 49 50  1  0  0  0  0
 50 51  1  0  0  0  0
 52 53  1  0  0  0  0
 53 54  2  0  0  0  0
 53 55  1  0  0  0  0
M  END
>  <MODEL>
6

>  <REMARK>
 VINA RESULT:      -6.3      3.244      7.405
  Name = 
  16 active torsions:
  status: ('A' for Active; 'I' for Inactive)
    1  A    between atoms: C_2  and  C_28
    2  A    between atoms: C_2  and  N_44
    3  A    between atoms: C_4  and  C_40
    4  A    between atoms: C_8  and  N_22
    5  A    between atoms: C_8  and  C_43
    6  A    between atoms: C_10  and  C_32
    7  A    between atoms: C_11  and  C_38
    8  A    between atoms: C_19  and  C_40
    9  A    between atoms: C_19  and  C_45
   10  A    between atoms: C_20  and  N_22
   11  A    between atoms: C_27  and  C_54
   12  A    between atoms: C_28  and  C_49
   13  A    between atoms: C_32  and  C_39
   14  A    between atoms: C_35  and  C_43
   15  A    between atoms: C_35  and  C_51
   16  A    between atoms: C_51  and  C_54
                            x       y       z     vdW  Elec       q    Type
                         _______ _______ _______ _____ _____    ______ ____

>  <TORSDO>
F 16

$$$$
=
 OpenBabel11052419453D

 55 61  0  0  1  0  0  0  0  0999 V2000
  191.7370  174.3720  144.6620 C   0  0  0  0  0  3  0  0  0  0  0  0
  194.1560  175.8460  144.6340 C   0  0  1  0  0  3  0  0  0  0  0  0
  193.1220  176.1690  143.5570 C   0  0  0  0  0  2  0  0  0  0  0  0
  192.8330  173.7800  145.1430 C   0  0  0  0  0  3  0  0  0  0  0  0
  191.8270  175.5990  143.9160 N   0  0  0  0  0  0  0  0  0  0  0  0
  194.2050  174.3350  144.8770 C   0  0  0  0  0  2  0  0  0  0  0  0
  195.5270  176.4080  144.2640 C   0  0  0  0  0  2  0  0  0  0  0  0
  196.5980  175.3260  144.1820 C   0  0  0  0  0  2  0  0  0  0  0  0
  196.9050  174.9850  142.7300 C   0  0  0  0  0  2  0  0  0  0  0  0
  196.6320  176.1640  141.8070 C   0  0  0  0  0  2  0  0  0  0  0  0
  196.7970  175.7580  140.3550 C   0  0  0  0  0  2  0  0  0  0  0  0
  195.4820  175.6670  139.7300 N   0  0  0  0  0  2  0  0  0  0  0  0
  194.0520  172.1670  138.0990 C   0  0  2  0  0  0  0  0  0  0  0  0
  191.3110  173.2060  137.5600 O   0  0  0  0  0  1  0  0  0  0  0  0
  194.0000  174.3760  138.1630 C   0  0  2  0  0  0  0  0  0  0  0  0
  196.3270  174.8280  137.7080 F   0  0  0  0  0  0  0  0  0  0  0  0
  193.0850  174.4840  140.5300 O   0  0  0  0  0  1  0  0  0  0  0  0
  192.9700  173.9710  139.2330 C   0  0  2  0  0  0  0  0  0  0  0  0
  195.4360  174.5780  138.7450 C   0  0  1  0  0  0  0  0  0  0  0  0
  195.4650  172.0060  138.6940 C   0  0  0  0  0  2  0  0  0  0  0  0
  193.0060  172.4440  139.1830 C   0  0  1  0  0  0  0  0  0  0  0  0
  193.6810  170.9280  137.3040 C   0  0  0  0  0  1  0  0  0  0  0  0
  191.7060  173.1880  138.9020 C   0  0  2  0  0  0  0  0  0  0  0  0
  195.8910  173.2820  139.4480 C   0  0  0  0  0  2  0  0  0  0  0  0
  193.5640  175.5180  137.4890 O   0  0  0  0  0  1  0  0  0  0  0  0
  193.1700  171.8640  140.4480 O   0  0  0  0  0  1  0  0  0  0  0  0
  194.0700  173.2960  137.2600 O   0  0  0  0  0  0  0  0  0  0  0  0
  190.6130  173.1010  139.9590 C   0  0  0  0  0  2  0  0  0  0  0  0
  189.8170  171.9770  139.7260 O   0  0  0  0  0  1  0  0  0  0  0  0
  190.6200  176.2940  143.4980 C   0  0  0  0  0  2  0  0  0  0  0  0
  189.4120  175.3810  143.6440 C   0  0  0  0  0  2  0  0  0  0  0  0
  186.3150  177.1350  147.1300 C   0  0  0  0  0  2  0  0  0  0  0  0
  187.9300  175.2970  141.1050 C   0  0  0  0  0  2  0  0  0  0  0  0
  184.4350  178.6710  146.4990 C   0  0  0  0  0  2  0  0  0  0  0  0
  186.3000  178.1700  144.8040 C   0  0  1  0  0  3  0  0  0  0  0  0
  184.8140  178.4590  145.0270 C   0  0  0  0  0  2  0  0  0  0  0  0
  185.5840  178.4310  147.4730 C   0  0  0  0  0  2  0  0  0  0  0  0
  186.7840  177.1410  145.7400 N   0  0  0  0  0  0  0  0  0  0  0  0
  187.3800  176.8800  143.0330 C   0  0  0  0  0  0  0  0  0  0  0  0
  186.9610  177.4540  140.6040 C   0  0  0  0  0  2  0  0  0  0  0  0
  186.5010  177.7600  143.4160 N   0  0  0  0  0  0  0  0  0  0  0  0
  187.2140  176.7500  139.2850 C   0  0  1  0  0  3  0  0  0  0  0  0
  187.8860  176.2960  145.3560 C   0  0  0  0  0  0  0  0  0  0  0  0
  187.5900  175.3130  139.6270 C   0  0  0  0  0  2  0  0  0  0  0  0
  188.2080  176.1770  144.0530 C   0  0  0  0  0  0  0  0  0  0  0  0
  187.4900  176.5760  141.6310 N   0  0  0  0  0  0  0  0  0  0  0  0
  188.6760  175.5720  146.4140 C   0  0  0  0  0  2  0  0  0  0  0  0
  189.9130  177.6130  146.3760 O   0  0  0  0  0  1  0  0  0  0  0  0
  189.5810  176.5260  147.1840 C   0  0  2  0  0  3  0  0  0  0  0  0
  190.8490  175.8290  147.6570 C   0  0  0  0  0  2  0  0  0  0  0  0
  191.7780  176.7520  148.1040 F   0  0  0  0  0  0  0  0  0  0  0  0
  185.9560  176.7910  138.4310 C   0  0  0  0  0  2  0  0  0  0  0  0
  186.2510  176.3600  137.0340 C   0  0  0  0  0  0  0  0  0  0  0  0
  185.4110  175.6720  136.3940 O   0  0  0  0  0  0  0  0  0  0  0  0
  187.4390  176.7450  136.4260 O   0  0  0  0  0  1  0  0  0  0  0  0
  1  4  2  0  0  0  0
  2  7  1  6  0  0  0
  2  6  1  0  0  0  0
  3  5  1  0  0  0  0
  3  2  1  0  0  0  0
  5  1  1  0  0  0  0
  6  4  1  0  0  0  0
  8  7  1  0  0  0  0
  9  8  1  0  0  0  0
 10  9  1  0  0  0  0
 11 10  1  0  0  0  0
 12 11  1  0  0  0  0
 13 22  1  6  0  0  0
 13 20  1  0  0  0  0
 13 21  1  0  0  0  0
 15 25  1  6  0  0  0
 15 19  1  0  0  0  0
 15 18  1  0  0  0  0
 18 17  1  1  0  0  0
 19 16  1  6  0  0  0
 19 24  1  0  0  0  0
 19 12  1  0  0  0  0
 20 24  1  0  0  0  0
 21 18  1  0  0  0  0
 21 26  1  1  0  0  0
 23 14  1  6  0  0  0
 23 21  1  0  0  0  0
 23 18  1  0  0  0  0
 23 28  1  0  0  0  0
 27 13  1  0  0  0  0
 27 15  1  0  0  0  0
 29 28  1  0  0  0  0
 30 31  1  0  0  0  0
 30  5  1  0  0  0  0
 31 45  1  0  0  0  0
 32 37  1  0  0  0  0
 33 46  1  0  0  0  0
 34 37  1  0  0  0  0
 35 36  1  6  0  0  0
 35 38  1  0  0  0  0
 36 34  1  0  0  0  0
 38 32  1  0  0  0  0
 39 41  2  0  0  0  0
 39 45  1  0  0  0  0
 40 46  1  0  0  0  0
 41 35  1  0  0  0  0
 42 52  1  6  0  0  0
 42 44  1  0  0  0  0
 42 40  1  0  0  0  0
 43 38  1  0  0  0  0
 43 47  1  0  0  0  0
 44 33  1  0  0  0  0
 45 43  2  0  0  0  0
 46 39  1  0  0  0  0
 47 49  1  0  0  0  0
 49 48  1  6  0  0  0
 49 50  1  0  0  0  0
 50 51  1  0  0  0  0
 53 52  1  0  0  0  0
 54 53  2  0  0  0  0
 55 53  1  0  0  0  0
M  END
>  <MODEL>
7

>  <REMARK>
 VINA RESULT:      -6.3      2.930      6.440
  Name = 
  16 active torsions:
  status: ('A' for Active; 'I' for Inactive)
    1  A    between atoms: C_2  and  C_28
    2  A    between atoms: C_2  and  N_44
    3  A    between atoms: C_4  and  C_40
    4  A    between atoms: C_8  and  N_22
    5  A    between atoms: C_8  and  C_43
    6  A    between atoms: C_10  and  C_32
    7  A    between atoms: C_11  and  C_38
    8  A    between atoms: C_19  and  C_40
    9  A    between atoms: C_19  and  C_45
   10  A    between atoms: C_20  and  N_22
   11  A    between atoms: C_27  and  C_54
   12  A    between atoms: C_28  and  C_49
   13  A    between atoms: C_32  and  C_39
   14  A    between atoms: C_35  and  C_43
   15  A    between atoms: C_35  and  C_51
   16  A    between atoms: C_51  and  C_54
                            x       y       z     vdW  Elec       q    Type
                         _______ _______ _______ _____ _____    ______ ____

>  <TORSDO>
F 16

$$$$
=
 OpenBabel11052419453D

 55 61  0  0  1  0  0  0  0  0999 V2000
  191.1500  171.4710  140.3520 C   0  0  0  0  0  3  0  0  0  0  0  0
  189.9480  173.1250  138.3910 C   0  0  1  0  0  3  0  0  0  0  0  0
  189.6380  173.4280  139.8550 C   0  0  0  0  0  2  0  0  0  0  0  0
  190.9050  170.9380  139.1520 C   0  0  0  0  0  3  0  0  0  0  0  0
  190.5880  172.7410  140.7240 N   0  0  0  0  0  0  0  0  0  0  0  0
  189.9890  171.6110  138.1670 C   0  0  0  0  0  2  0  0  0  0  0  0
  188.9470  173.8100  137.4640 C   0  0  0  0  0  2  0  0  0  0  0  0
  187.8490  174.5410  138.2290 C   0  0  0  0  0  2  0  0  0  0  0  0
  187.0510  175.4400  137.2940 C   0  0  0  0  0  2  0  0  0  0  0  0
  186.2590  176.4880  138.0640 C   0  0  0  0  0  2  0  0  0  0  0  0
  187.1170  177.1240  139.1400 C   0  0  0  0  0  2  0  0  0  0  0  0
  186.5200  176.8660  140.4470 N   0  0  0  0  0  2  0  0  0  0  0  0
  188.2130  177.6290  144.1220 C   0  0  2  0  0  0  0  0  0  0  0  0
  186.0070  176.4020  145.7080 O   0  0  0  0  0  1  0  0  0  0  0  0
  186.9420  176.3270  142.8640 C   0  0  2  0  0  0  0  0  0  0  0  0
  188.5210  175.8330  141.1060 F   0  0  0  0  0  0  0  0  0  0  0  0
  185.1280  178.0750  142.5400 O   0  0  0  0  0  1  0  0  0  0  0  0
  185.9440  177.3570  143.4230 C   0  0  2  0  0  0  0  0  0  0  0  0
  187.5490  176.7500  141.4880 C   0  0  1  0  0  0  0  0  0  0  0  0
  188.9940  178.2820  142.9660 C   0  0  0  0  0  2  0  0  0  0  0  0
  186.8240  178.2520  144.2930 C   0  0  1  0  0  0  0  0  0  0  0  0
  189.0080  177.7340  145.4100 C   0  0  0  0  0  1  0  0  0  0  0  0
  185.6530  177.4970  144.9120 C   0  0  2  0  0  0  0  0  0  0  0  0
  188.2360  178.1240  141.6320 C   0  0  0  0  0  2  0  0  0  0  0  0
  186.3380  175.0710  142.7840 O   0  0  0  0  0  1  0  0  0  0  0  0
  186.6530  179.6150  144.0170 O   0  0  0  0  0  1  0  0  0  0  0  0
  188.0070  176.2770  143.7860 O   0  0  0  0  0  0  0  0  0  0  0  0
  184.4440  178.3190  145.3370 C   0  0  0  0  0  2  0  0  0  0  0  0
  184.0090  177.9040  146.5980 O   0  0  0  0  0  1  0  0  0  0  0  0
  190.9550  173.3640  141.9860 C   0  0  0  0  0  2  0  0  0  0  0  0
  191.8340  174.5790  141.7350 C   0  0  0  0  0  2  0  0  0  0  0  0
  195.1140  175.1440  145.4410 C   0  0  0  0  0  2  0  0  0  0  0  0
  193.3630  174.2010  139.2500 C   0  0  0  0  0  2  0  0  0  0  0  0
  197.3930  174.1080  145.2880 C   0  0  0  0  0  2  0  0  0  0  0  0
  195.5580  173.4150  143.6270 C   0  0  1  0  0  3  0  0  0  0  0  0
  197.0500  173.6710  143.8570 C   0  0  0  0  0  2  0  0  0  0  0  0
  196.1730  174.3260  146.1760 C   0  0  0  0  0  2  0  0  0  0  0  0
  194.7440  174.5160  144.1680 N   0  0  0  0  0  0  0  0  0  0  0  0
  194.2460  173.6280  141.5770 C   0  0  0  0  0  0  0  0  0  0  0  0
  194.9470  172.3910  139.4830 C   0  0  0  0  0  2  0  0  0  0  0  0
  195.3230  173.2370  142.1960 N   0  0  0  0  0  0  0  0  0  0  0  0
  194.5710  172.4830  138.0180 C   0  0  1  0  0  3  0  0  0  0  0  0
  193.4650  174.8110  143.5740 C   0  0  0  0  0  0  0  0  0  0  0  0
  193.7720  173.7710  137.8560 C   0  0  0  0  0  2  0  0  0  0  0  0
  193.1940  174.3670  142.3310 C   0  0  0  0  0  0  0  0  0  0  0  0
  194.1290  173.3760  140.1660 N   0  0  0  0  0  0  0  0  0  0  0  0
  192.4410  175.5940  144.3530 C   0  0  0  0  0  2  0  0  0  0  0  0
  190.6180  174.2250  145.0610 O   0  0  0  0  0  1  0  0  0  0  0  0
  191.8380  174.7580  145.4750 C   0  0  2  0  0  3  0  0  0  0  0  0
  191.6380  175.5860  146.7380 C   0  0  0  0  0  2  0  0  0  0  0  0
  192.2950  175.0100  147.8110 F   0  0  0  0  0  0  0  0  0  0  0  0
  195.8300  172.5170  137.1660 C   0  0  0  0  0  2  0  0  0  0  0  0
  195.4950  172.7860  135.7370 C   0  0  0  0  0  0  0  0  0  0  0  0
  196.0510  173.7380  135.1260 O   0  0  0  0  0  1  0  0  0  0  0  0
  194.5930  171.9690  135.0710 O   0  0  0  0  0  0  0  0  0  0  0  0
  1  5  1  0  0  0  0
  2  7  1  6  0  0  0
  2  3  1  0  0  0  0
  3  5  1  0  0  0  0
  4  1  2  0  0  0  0
  5 30  1  0  0  0  0
  6  2  1  0  0  0  0
  6  4  1  0  0  0  0
  7  8  1  0  0  0  0
  9 10  1  0  0  0  0
  9  8  1  0  0  0  0
 10 11  1  0  0  0  0
 11 12  1  0  0  0  0
 12 19  1  0  0  0  0
 13 21  1  0  0  0  0
 13 22  1  1  0  0  0
 15 25  1  6  0  0  0
 15 18  1  0  0  0  0
 15 27  1  0  0  0  0
 18 17  1  6  0  0  0
 18 21  1  0  0  0  0
 18 23  1  0  0  0  0
 19 16  1  6  0  0  0
 19 24  1  0  0  0  0
 19 15  1  0  0  0  0
 20 13  1  0  0  0  0
 21 26  1  6  0  0  0
 21 23  1  0  0  0  0
 23 28  1  0  0  0  0
 23 14  1  1  0  0  0
 24 20  1  0  0  0  0
 27 13  1  0  0  0  0
 28 29  1  0  0  0  0
 31 30  1  0  0  0  0
 31 45  1  0  0  0  0
 32 37  1  0  0  0  0
 33 46  1  0  0  0  0
 34 37  1  0  0  0  0
 35 36  1  6  0  0  0
 35 38  1  0  0  0  0
 36 34  1  0  0  0  0
 38 32  1  0  0  0  0
 39 41  2  0  0  0  0
 39 45  1  0  0  0  0
 40 46  1  0  0  0  0
 41 35  1  0  0  0  0
 42 52  1  6  0  0  0
 42 40  1  0  0  0  0
 43 38  1  0  0  0  0
 43 47  1  0  0  0  0
 44 42  1  0  0  0  0
 44 33  1  0  0  0  0
 45 43  2  0  0  0  0
 46 39  1  0  0  0  0
 47 49  1  0  0  0  0
 49 48  1  6  0  0  0
 49 50  1  0  0  0  0
 50 51  1  0  0  0  0
 53 52  1  0  0  0  0
 54 53  1  0  0  0  0
 55 53  2  0  0  0  0
M  END
>  <MODEL>
8

>  <REMARK>
 VINA RESULT:      -6.1      2.986      9.147
  Name = 
  16 active torsions:
  status: ('A' for Active; 'I' for Inactive)
    1  A    between atoms: C_2  and  C_28
    2  A    between atoms: C_2  and  N_44
    3  A    between atoms: C_4  and  C_40
    4  A    between atoms: C_8  and  N_22
    5  A    between atoms: C_8  and  C_43
    6  A    between atoms: C_10  and  C_32
    7  A    between atoms: C_11  and  C_38
    8  A    between atoms: C_19  and  C_40
    9  A    between atoms: C_19  and  C_45
   10  A    between atoms: C_20  and  N_22
   11  A    between atoms: C_27  and  C_54
   12  A    between atoms: C_28  and  C_49
   13  A    between atoms: C_32  and  C_39
   14  A    between atoms: C_35  and  C_43
   15  A    between atoms: C_35  and  C_51
   16  A    between atoms: C_51  and  C_54
                            x       y       z     vdW  Elec       q    Type
                         _______ _______ _______ _____ _____    ______ ____

>  <TORSDO>
F 16

$$$$
=
 OpenBabel11052419453D

 55 61  0  0  1  0  0  0  0  0999 V2000
  189.0290  172.8770  141.5160 C   0  0  0  0  0  3  0  0  0  0  0  0
  187.8230  175.4280  141.2660 C   0  0  1  0  0  3  0  0  0  0  0  0
  189.3450  175.3560  141.1700 C   0  0  0  0  0  2  0  0  0  0  0  0
  187.8680  173.0810  142.1430 C   0  0  0  0  0  3  0  0  0  0  0  0
  189.7720  173.9760  140.9610 N   0  0  0  0  0  0  0  0  0  0  0  0
  187.3200  174.4670  142.3470 C   0  0  0  0  0  2  0  0  0  0  0  0
  187.3550  176.8600  141.5150 C   0  0  0  0  0  2  0  0  0  0  0  0
  186.4370  177.3750  140.4120 C   0  0  0  0  0  2  0  0  0  0  0  0
  185.5460  178.4940  140.9350 C   0  0  0  0  0  2  0  0  0  0  0  0
  184.1250  178.0090  141.1840 C   0  0  0  0  0  2  0  0  0  0  0  0
  183.6570  178.4070  142.5700 C   0  0  0  0  0  2  0  0  0  0  0  0
  184.4770  177.7280  143.5680 N   0  0  0  0  0  2  0  0  0  0  0  0
  186.2020  178.7280  147.1700 C   0  0  2  0  0  0  0  0  0  0  0  0
  188.9800  178.0090  146.3620 O   0  0  0  0  0  1  0  0  0  0  0  0
  186.3850  178.5630  144.9730 C   0  0  2  0  0  0  0  0  0  0  0  0
  184.5170  179.9480  144.3270 F   0  0  0  0  0  0  0  0  0  0  0  0
  186.2060  176.0300  144.9490 O   0  0  0  0  0  1  0  0  0  0  0  0
  186.8260  177.1740  145.4660 C   0  0  2  0  0  0  0  0  0  0  0  0
  184.8580  178.6410  144.6530 C   0  0  1  0  0  0  0  0  0  0  0  0
  184.6630  178.7980  147.2140 C   0  0  0  0  0  2  0  0  0  0  0  0
  186.7010  177.2920  146.9840 C   0  0  1  0  0  0  0  0  0  0  0  0
  186.7840  179.3370  148.4330 C   0  0  0  0  0  1  0  0  0  0  0  0
  188.0490  176.9640  146.3510 C   0  0  2  0  0  0  0  0  0  0  0  0
  184.0520  178.2490  145.9090 C   0  0  0  0  0  2  0  0  0  0  0  0
  187.1510  178.9430  143.8690 O   0  0  0  0  0  1  0  0  0  0  0  0
  185.9700  176.2410  147.5520 O   0  0  0  0  0  1  0  0  0  0  0  0
  186.6290  179.4510  146.0410 O   0  0  0  0  0  0  0  0  0  0  0  0
  188.5750  175.5470  146.5320 C   0  0  0  0  0  2  0  0  0  0  0  0
  189.4320  175.4970  147.6330 O   0  0  0  0  0  1  0  0  0  0  0  0
  190.9740  173.7290  140.1800 C   0  0  0  0  0  2  0  0  0  0  0  0
  192.0090  173.0050  141.0260 C   0  0  0  0  0  2  0  0  0  0  0  0
  196.4720  173.8990  139.0020 C   0  0  0  0  0  2  0  0  0  0  0  0
  192.1400  173.8150  143.8510 C   0  0  0  0  0  2  0  0  0  0  0  0
  197.9410  175.7120  139.9210 C   0  0  0  0  0  2  0  0  0  0  0  0
  195.4760  175.5800  140.6330 C   0  0  1  0  0  3  0  0  0  0  0  0
  196.9120  175.9180  141.0410 C   0  0  0  0  0  2  0  0  0  0  0  0
  197.3600  175.0910  138.6550 C   0  0  0  0  0  2  0  0  0  0  0  0
  195.4150  174.2800  139.9450 N   0  0  0  0  0  0  0  0  0  0  0  0
  193.6190  174.7890  142.0100 C   0  0  0  0  0  0  0  0  0  0  0  0
  192.9040  176.0990  144.0550 C   0  0  0  0  0  2  0  0  0  0  0  0
  194.6300  175.5880  141.8250 N   0  0  0  0  0  0  0  0  0  0  0  0
  192.0250  175.8030  145.2540 C   0  0  1  0  0  3  0  0  0  0  0  0
  194.2090  173.4950  140.0170 C   0  0  0  0  0  0  0  0  0  0  0  0
  191.7580  174.3020  145.2350 C   0  0  0  0  0  2  0  0  0  0  0  0
  193.3140  173.7440  140.9940 C   0  0  0  0  0  0  0  0  0  0  0  0
  192.8540  174.9110  143.2230 N   0  0  0  0  0  0  0  0  0  0  0  0
  193.9530  172.4210  138.9940 C   0  0  0  0  0  2  0  0  0  0  0  0
  195.0260  171.1940  140.7380 O   0  0  0  0  0  1  0  0  0  0  0  0
  194.4910  171.0720  139.4560 C   0  0  2  0  0  3  0  0  0  0  0  0
  195.5540  170.5420  138.5030 C   0  0  0  0  0  2  0  0  0  0  0  0
  196.7750  170.4300  139.1440 F   0  0  0  0  0  0  0  0  0  0  0  0
  192.7450  176.2070  146.5310 C   0  0  0  0  0  2  0  0  0  0  0  0
  194.2100  176.3510  146.2890 C   0  0  0  0  0  0  0  0  0  0  0  0
  194.7340  177.4960  146.2450 O   0  0  0  0  0  1  0  0  0  0  0  0
  195.0030  175.2210  146.1440 O   0  0  0  0  0  0  0  0  0  0  0  0
  1  4  2  0  0  0  0
  2  7  1  1  0  0  0
  2  6  1  0  0  0  0
  3  2  1  0  0  0  0
  4  6  1  0  0  0  0
  5  3  1  0  0  0  0
  5  1  1  0  0  0  0
  8  9  1  0  0  0  0
  8  7  1  0  0  0  0
  9 10  1  0  0  0  0
 10 11  1  0  0  0  0
 11 12  1  0  0  0  0
 12 19  1  0  0  0  0
 13 20  1  0  0  0  0
 13 22  1  1  0  0  0
 15 25  1  6  0  0  0
 15 18  1  0  0  0  0
 15 27  1  0  0  0  0
 18 17  1  6  0  0  0
 18 23  1  0  0  0  0
 18 21  1  0  0  0  0
 19 16  1  6  0  0  0
 19 15  1  0  0  0  0
 19 24  1  0  0  0  0
 21 13  1  0  0  0  0
 21 26  1  1  0  0  0
 23 14  1  6  0  0  0
 23 28  1  0  0  0  0
 23 21  1  0  0  0  0
 24 20  1  0  0  0  0
 27 13  1  0  0  0  0
 28 29  1  0  0  0  0
 30  5  1  0  0  0  0
 30 31  1  0  0  0  0
 32 38  1  0  0  0  0
 33 44  1  0  0  0  0
 34 36  1  0  0  0  0
 35 36  1  1  0  0  0
 35 41  1  0  0  0  0
 37 32  1  0  0  0  0
 37 34  1  0  0  0  0
 38 43  1  0  0  0  0
 38 35  1  0  0  0  0
 39 46  1  0  0  0  0
 40 42  1  0  0  0  0
 41 39  2  0  0  0  0
 42 52  1  1  0  0  0
 43 45  2  0  0  0  0
 44 42  1  0  0  0  0
 45 31  1  0  0  0  0
 45 39  1  0  0  0  0
 46 33  1  0  0  0  0
 46 40  1  0  0  0  0
 47 49  1  0  0  0  0
 47 43  1  0  0  0  0
 49 48  1  1  0  0  0
 50 51  1  0  0  0  0
 50 49  1  0  0  0  0
 53 52  1  0  0  0  0
 54 53  1  0  0  0  0
 55 53  2  0  0  0  0
M  END
>  <MODEL>
9

>  <REMARK>
 VINA RESULT:      -6.0      2.595      9.648
  Name = 
  16 active torsions:
  status: ('A' for Active; 'I' for Inactive)
    1  A    between atoms: C_2  and  C_28
    2  A    between atoms: C_2  and  N_44
    3  A    between atoms: C_4  and  C_40
    4  A    between atoms: C_8  and  N_22
    5  A    between atoms: C_8  and  C_43
    6  A    between atoms: C_10  and  C_32
    7  A    between atoms: C_11  and  C_38
    8  A    between atoms: C_19  and  C_40
    9  A    between atoms: C_19  and  C_45
   10  A    between atoms: C_20  and  N_22
   11  A    between atoms: C_27  and  C_54
   12  A    between atoms: C_28  and  C_49
   13  A    between atoms: C_32  and  C_39
   14  A    between atoms: C_35  and  C_43
   15  A    between atoms: C_35  and  C_51
   16  A    between atoms: C_51  and  C_54
                            x       y       z     vdW  Elec       q    Type
                         _______ _______ _______ _____ _____    ______ ____

>  <TORSDO>
F 16

$$$$
