=
 OpenBabel11052421253D

 32 34  0  0  1  0  0  0  0  0999 V2000
  189.2690  175.9630  143.8100 N   0  0  2  0  0  0  0  0  0  0  0  0
  189.4120  173.1090  139.8060 C   0  0  0  0  0  2  0  0  0  0  0  0
  190.9360  173.1630  139.9890 C   0  0  0  0  0  2  0  0  0  0  0  0
  187.2440  177.1550  144.5530 C   0  0  2  0  0  3  0  0  0  0  0  0
  187.3370  176.1510  142.2310 C   0  0  0  0  0  2  0  0  0  0  0  0
  185.2750  176.4930  143.3740 F   0  0  0  0  0  0  0  0  0  0  0  0
  188.7860  174.3860  140.3680 C   0  0  0  0  0  2  0  0  0  0  0  0
  188.8630  175.9480  142.3920 C   0  0  2  0  0  3  0  0  0  0  0  0
  189.3100  174.6270  141.7850 C   0  0  2  0  0  3  0  0  0  0  0  0
  191.4840  175.0930  142.9760 C   0  0  0  0  0  0  0  0  0  0  0  0
  186.6040  176.1680  143.5710 C   0  0  2  0  0  3  0  0  0  0  0  0
  191.2650  173.3250  141.3510 O   0  0  0  0  0  0  0  0  0  0  0  0
  190.8310  174.6140  141.7090 C   0  0  1  0  0  3  0  0  0  0  0  0
  192.7920  175.1010  143.0160 C   0  0  0  0  0  0  0  0  0  0  0  0
  188.7690  177.2060  144.3960 C   0  0  0  0  0  2  0  0  0  0  0  0
  190.7350  175.9410  143.9920 C   0  0  2  0  0  3  0  0  0  0  0  0
  194.0940  175.1090  143.0650 C   0  0  0  0  0  3  0  0  0  0  0  0
  185.9410  177.2290  147.9820 O   0  0  0  0  0  0  0  0  0  0  0  0
  186.1950  177.6310  146.8170 C   0  0  0  0  0  0  0  0  0  0  0  0
  186.8960  176.7710  145.9140 N   0  0  0  0  0  2  0  0  0  0  0  0
  185.7260  178.9840  146.3930 C   0  0  0  0  0  2  0  0  0  0  0  0
  184.3270  178.8890  145.8150 C   0  0  0  0  0  2  0  0  0  0  0  0
  184.3340  179.3600  144.4050 C   0  0  0  0  0  0  0  0  0  0  0  0
  185.3690  180.1640  143.9450 O   0  0  0  0  0  1  0  0  0  0  0  0
  183.4190  179.0030  143.6180 O   0  0  0  0  0  0  0  0  0  0  0  0
  194.3700  174.2360  145.7470 O   0  0  0  0  0  1  0  0  0  0  0  0
  194.9240  175.3750  144.6240 P   0  0  1  0  0  0  0  0  0  0  0  0
  196.4130  175.2070  144.4250 O   0  0  0  0  0  0  0  0  0  0  0  0
  194.5870  176.9460  145.1670 O   0  0  0  0  0  0  0  0  0  0  0  0
  194.2820  176.8140  146.5230 C   0  0  0  0  0  1  0  0  0  0  0  0
  191.0590  175.4360  145.3980 C   0  0  0  0  0  2  0  0  0  0  0  0
  190.2190  174.2190  145.7350 C   0  0  0  0  0  1  0  0  0  0  0  0
  1 16  1  0  0  0  0
  1 15  1  6  0  0  0
  2  3  1  0  0  0  0
  2  7  1  0  0  0  0
  3 12  1  0  0  0  0
  4 20  1  1  0  0  0
  5 11  1  0  0  0  0
  8  5  1  1  0  0  0
  8  1  1  0  0  0  0
  9  7  1  6  0  0  0
  9  8  1  0  0  0  0
 10 14  2  0  0  0  0
 10 16  1  0  0  0  0
 11  6  1  6  0  0  0
 11  4  1  0  0  0  0
 13 12  1  1  0  0  0
 13  9  1  0  0  0  0
 13 10  1  0  0  0  0
 14 17  2  0  0  0  0
 15  4  1  0  0  0  0
 16 31  1  1  0  0  0
 17 27  1  0  0  0  0
 19 18  2  0  0  0  0
 20 19  1  0  0  0  0
 21 19  1  0  0  0  0
 22 21  1  0  0  0  0
 23 22  1  0  0  0  0
 24 23  1  0  0  0  0
 25 23  2  0  0  0  0
 27 28  2  6  0  0  0
 27 29  1  0  0  0  0
 27 26  1  0  0  0  0
 29 30  1  0  0  0  0
 31 32  1  0  0  0  0
M  END
>  <MODEL>
1

>  <REMARK>
 VINA RESULT:      -7.1      0.000      0.000
  Name = 
  7 active torsions:
  status: ('A' for Active; 'I' for Inactive)
    1  A    between atoms: C_1  and  C_10
    2  A    between atoms: C_6  and  C_31
    3  A    between atoms: C_8  and  N_23
    4  A    between atoms: C_10  and  C_24
    5  A    between atoms: P_11  and  O_18
    6  A    between atoms: P_11  and  C_32
    7  A    between atoms: C_19  and  C_24
                            x       y       z     vdW  Elec       q    Type
                         _______ _______ _______ _____ _____    ______ ____

>  <TORSDO>
F 7

$$$$
=
 OpenBabel11052421253D

 32 34  0  0  1  0  0  0  0  0999 V2000
  189.2390  175.1590  143.5750 N   0  0  2  0  0  0  0  0  0  0  0  0
  188.9780  172.7710  139.2820 C   0  0  0  0  0  2  0  0  0  0  0  0
  190.4490  172.4190  139.5440 C   0  0  0  0  0  2  0  0  0  0  0  0
  187.5200  176.7460  144.3490 C   0  0  2  0  0  3  0  0  0  0  0  0
  187.5390  175.9860  141.9340 C   0  0  0  0  0  2  0  0  0  0  0  0
  185.5440  176.7250  143.0070 F   0  0  0  0  0  0  0  0  0  0  0  0
  188.6450  174.1030  139.9550 C   0  0  0  0  0  2  0  0  0  0  0  0
  188.9510  175.3870  142.1460 C   0  0  2  0  0  3  0  0  0  0  0  0
  189.1030  174.0630  141.4140 C   0  0  2  0  0  3  0  0  0  0  0  0
  191.2280  173.8430  142.7550 C   0  0  0  0  0  0  0  0  0  0  0  0
  186.7330  176.0560  143.2300 C   0  0  2  0  0  3  0  0  0  0  0  0
  190.7040  172.3560  140.9300 O   0  0  0  0  0  0  0  0  0  0  0  0
  190.5750  173.6720  141.4120 C   0  0  1  0  0  3  0  0  0  0  0  0
  192.4910  173.5140  142.8600 C   0  0  0  0  0  0  0  0  0  0  0  0
  189.0180  176.4250  144.2740 C   0  0  0  0  0  2  0  0  0  0  0  0
  190.6360  174.7480  143.8240 C   0  0  2  0  0  3  0  0  0  0  0  0
  193.7460  173.1870  142.9730 C   0  0  0  0  0  3  0  0  0  0  0  0
  185.9210  176.7960  147.6510 O   0  0  0  0  0  0  0  0  0  0  0  0
  186.3470  177.2310  146.5500 C   0  0  0  0  0  0  0  0  0  0  0  0
  186.9860  176.3320  145.6380 N   0  0  0  0  0  2  0  0  0  0  0  0
  186.1440  178.6690  146.2050 C   0  0  0  0  0  2  0  0  0  0  0  0
  184.6890  178.9160  145.8540 C   0  0  0  0  0  2  0  0  0  0  0  0
  184.5860  179.4070  144.4540 C   0  0  0  0  0  0  0  0  0  0  0  0
  183.5160  179.0220  143.6580 O   0  0  0  0  0  0  0  0  0  0  0  0
  185.4530  180.1990  144.0010 O   0  0  0  0  0  1  0  0  0  0  0  0
  194.3600  174.5800  145.3650 O   0  0  0  0  0  0  0  0  0  0  0  0
  194.4950  173.0790  144.5910 P   0  0  1  0  0  0  0  0  0  0  0  0
  193.7720  172.0260  145.4000 O   0  0  0  0  0  1  0  0  0  0  0  0
  196.1270  172.6550  144.4170 O   0  0  0  0  0  0  0  0  0  0  0  0
  196.6510  172.6470  145.7110 C   0  0  0  0  0  1  0  0  0  0  0  0
  190.7180  174.0420  145.1780 C   0  0  0  0  0  2  0  0  0  0  0  0
  189.8310  172.8110  145.1910 C   0  0  0  0  0  1  0  0  0  0  0  0
  1 16  1  0  0  0  0
  1 15  1  1  0  0  0
  2  3  1  0  0  0  0
  2  7  1  0  0  0  0
  3 12  1  0  0  0  0
  4 20  1  1  0  0  0
  5 11  1  0  0  0  0
  8  5  1  1  0  0  0
  8  1  1  0  0  0  0
  9  7  1  6  0  0  0
  9  8  1  0  0  0  0
 10 14  2  0  0  0  0
 10 16  1  0  0  0  0
 11  6  1  6  0  0  0
 11  4  1  0  0  0  0
 13 12  1  1  0  0  0
 13  9  1  0  0  0  0
 13 10  1  0  0  0  0
 14 17  2  0  0  0  0
 15  4  1  0  0  0  0
 16 31  1  1  0  0  0
 17 27  1  0  0  0  0
 19 18  2  0  0  0  0
 20 19  1  0  0  0  0
 21 19  1  0  0  0  0
 22 21  1  0  0  0  0
 23 22  1  0  0  0  0
 24 23  2  0  0  0  0
 25 23  1  0  0  0  0
 27 26  2  1  0  0  0
 27 28  1  0  0  0  0
 29 27  1  0  0  0  0
 29 30  1  0  0  0  0
 31 32  1  0  0  0  0
M  END
>  <MODEL>
2

>  <REMARK>
 VINA RESULT:      -6.6      1.370      1.787
  Name = 
  7 active torsions:
  status: ('A' for Active; 'I' for Inactive)
    1  A    between atoms: C_1  and  C_10
    2  A    between atoms: C_6  and  C_31
    3  A    between atoms: C_8  and  N_23
    4  A    between atoms: C_10  and  C_24
    5  A    between atoms: P_11  and  O_18
    6  A    between atoms: P_11  and  C_32
    7  A    between atoms: C_19  and  C_24
                            x       y       z     vdW  Elec       q    Type
                         _______ _______ _______ _____ _____    ______ ____

>  <TORSDO>
F 7

$$$$
=
 OpenBabel11052421253D

 32 34  0  0  1  0  0  0  0  0999 V2000
  190.0480  175.7250  144.4910 N   0  0  2  0  0  0  0  0  0  0  0  0
  194.6830  175.6020  146.1350 C   0  0  0  0  0  2  0  0  0  0  0  0
  194.8780  174.4910  145.0940 C   0  0  0  0  0  2  0  0  0  0  0  0
  188.2280  176.9080  145.6570 C   0  0  2  0  0  3  0  0  0  0  0  0
  190.4220  176.4840  146.8460 C   0  0  0  0  0  2  0  0  0  0  0  0
  188.9980  178.3000  147.4390 F   0  0  0  0  0  0  0  0  0  0  0  0
  193.2270  175.6130  146.6020 C   0  0  0  0  0  2  0  0  0  0  0  0
  190.8270  175.4990  145.7240 C   0  0  2  0  0  3  0  0  0  0  0  0
  192.3030  175.6300  145.3820 C   0  0  2  0  0  3  0  0  0  0  0  0
  191.7220  174.1910  143.3930 C   0  0  0  0  0  0  0  0  0  0  0  0
  189.4290  177.5410  146.3670 C   0  0  2  0  0  3  0  0  0  0  0  0
  194.0050  174.6750  144.0030 O   0  0  0  0  0  0  0  0  0  0  0  0
  192.7060  174.4560  144.4990 C   0  0  1  0  0  3  0  0  0  0  0  0
  191.9910  173.2130  142.5660 C   0  0  0  0  0  0  0  0  0  0  0  0
  188.6320  175.6670  144.8520 C   0  0  0  0  0  2  0  0  0  0  0  0
  190.2890  174.6960  143.4580 C   0  0  2  0  0  3  0  0  0  0  0  0
  192.2520  172.2420  141.7380 C   0  0  0  0  0  3  0  0  0  0  0  0
  185.7490  178.9440  143.8760 O   0  0  0  0  0  0  0  0  0  0  0  0
  186.2010  178.0770  144.6680 C   0  0  0  0  0  0  0  0  0  0  0  0
  187.6150  177.8950  144.7780 N   0  0  0  0  0  2  0  0  0  0  0  0
  185.2490  177.2820  145.5000 C   0  0  0  0  0  2  0  0  0  0  0  0
  184.5840  178.1800  146.5250 C   0  0  0  0  0  2  0  0  0  0  0  0
  185.5380  178.4800  147.6250 C   0  0  0  0  0  0  0  0  0  0  0  0
  185.9500  179.7870  147.8510 O   0  0  0  0  0  0  0  0  0  0  0  0
  185.9470  177.5540  148.3730 O   0  0  0  0  0  1  0  0  0  0  0  0
  191.9700  170.8420  139.2900 O   0  0  0  0  0  0  0  0  0  0  0  0
  191.2930  172.0680  140.2410 P   0  0  1  0  0  0  0  0  0  0  0  0
  189.8720  171.7000  140.6060 O   0  0  0  0  0  1  0  0  0  0  0  0
  191.3110  173.5400  139.3990 O   0  0  0  0  0  0  0  0  0  0  0  0
  190.2860  173.4430  138.4570 C   0  0  0  0  0  1  0  0  0  0  0  0
  189.8950  175.2560  142.0910 C   0  0  0  0  0  2  0  0  0  0  0  0
  188.5860  174.6490  141.6230 C   0  0  0  0  0  1  0  0  0  0  0  0
  1 15  1  1  0  0  0
  1  8  1  0  0  0  0
  2  7  1  0  0  0  0
  3  2  1  0  0  0  0
  4 20  1  6  0  0  0
  4 11  1  0  0  0  0
  8  5  1  1  0  0  0
  9  8  1  0  0  0  0
  9  7  1  1  0  0  0
 10 16  1  0  0  0  0
 11  5  1  0  0  0  0
 11  6  1  1  0  0  0
 12 13  1  0  0  0  0
 12  3  1  0  0  0  0
 13 10  1  6  0  0  0
 13  9  1  0  0  0  0
 14 10  2  0  0  0  0
 15  4  1  0  0  0  0
 16 31  1  6  0  0  0
 16  1  1  0  0  0  0
 17 14  2  0  0  0  0
 18 19  2  0  0  0  0
 19 20  1  0  0  0  0
 19 21  1  0  0  0  0
 21 22  1  0  0  0  0
 22 23  1  0  0  0  0
 23 24  2  0  0  0  0
 23 25  1  0  0  0  0
 27 26  2  6  0  0  0
 27 28  1  0  0  0  0
 27 17  1  0  0  0  0
 29 27  1  0  0  0  0
 30 29  1  0  0  0  0
 32 31  1  0  0  0  0
M  END
>  <MODEL>
3

>  <REMARK>
 VINA RESULT:      -6.5      2.260      4.989
  Name = 
  7 active torsions:
  status: ('A' for Active; 'I' for Inactive)
    1  A    between atoms: C_1  and  C_10
    2  A    between atoms: C_6  and  C_31
    3  A    between atoms: C_8  and  N_23
    4  A    between atoms: C_10  and  C_24
    5  A    between atoms: P_11  and  O_18
    6  A    between atoms: P_11  and  C_32
    7  A    between atoms: C_19  and  C_24
                            x       y       z     vdW  Elec       q    Type
                         _______ _______ _______ _____ _____    ______ ____

>  <TORSDO>
F 7

$$$$
=
 OpenBabel11052421253D

 32 34  0  0  1  0  0  0  0  0999 V2000
  187.6440  176.3860  143.9020 N   0  0  2  0  0  0  0  0  0  0  0  0
  190.4550  177.7420  147.7040 C   0  0  0  0  0  2  0  0  0  0  0  0
  191.2020  176.4260  147.4450 C   0  0  0  0  0  2  0  0  0  0  0  0
  185.5030  177.4720  143.3440 C   0  0  2  0  0  3  0  0  0  0  0  0
  186.5900  177.9030  145.5900 C   0  0  0  0  0  2  0  0  0  0  0  0
  185.1140  179.4780  144.5800 F   0  0  0  0  0  0  0  0  0  0  0  0
  188.9990  177.5970  147.2570 C   0  0  0  0  0  2  0  0  0  0  0  0
  187.5570  176.7220  145.3350 C   0  0  2  0  0  3  0  0  0  0  0  0
  188.9580  177.0410  145.8330 C   0  0  2  0  0  3  0  0  0  0  0  0
  189.6210  174.9650  144.5620 C   0  0  0  0  0  0  0  0  0  0  0  0
  186.0760  178.5290  144.2930 C   0  0  2  0  0  3  0  0  0  0  0  0
  191.1300  176.0760  146.0800 O   0  0  0  0  0  0  0  0  0  0  0  0
  189.7820  175.7600  145.8280 C   0  0  1  0  0  3  0  0  0  0  0  0
  190.3050  173.8550  144.4530 C   0  0  0  0  0  0  0  0  0  0  0  0
  186.2810  176.1520  143.4230 C   0  0  0  0  0  2  0  0  0  0  0  0
  188.4250  175.1580  143.6420 C   0  0  2  0  0  3  0  0  0  0  0  0
  190.9850  172.7500  144.3360 C   0  0  0  0  0  3  0  0  0  0  0  0
  184.4600  178.7600  140.0700 O   0  0  0  0  0  0  0  0  0  0  0  0
  184.3520  178.3330  141.2490 C   0  0  0  0  0  0  0  0  0  0  0  0
  185.5310  177.9850  141.9810 N   0  0  0  0  0  2  0  0  0  0  0  0
  182.9970  178.2320  141.8680 C   0  0  0  0  0  2  0  0  0  0  0  0
  181.9310  178.2960  140.7910 C   0  0  0  0  0  2  0  0  0  0  0  0
  180.8360  179.2050  141.2210 C   0  0  0  0  0  0  0  0  0  0  0  0
  180.3930  180.2110  140.3730 O   0  0  0  0  0  0  0  0  0  0  0  0
  180.2890  179.0430  142.3430 O   0  0  0  0  0  1  0  0  0  0  0  0
  192.1670  170.6360  142.8650 O   0  0  0  0  0  1  0  0  0  0  0  0
  191.0720  171.9230  142.7560 P   0  0  1  0  0  0  0  0  0  0  0  0
  189.7020  171.3930  142.3990 O   0  0  0  0  0  0  0  0  0  0  0  0
  191.5870  173.0310  141.5800 O   0  0  0  0  0  0  0  0  0  0  0  0
  191.2370  172.4640  140.3540 C   0  0  0  0  0  1  0  0  0  0  0  0
  188.9080  175.1690  142.1910 C   0  0  0  0  0  2  0  0  0  0  0  0
  188.1250  174.1700  141.3610 C   0  0  0  0  0  1  0  0  0  0  0  0
  1 15  1  1  0  0  0
  1  8  1  0  0  0  0
  3  2  1  0  0  0  0
  4 20  1  6  0  0  0
  4 15  1  0  0  0  0
  4 11  1  0  0  0  0
  7  2  1  0  0  0  0
  8  5  1  6  0  0  0
  8  9  1  0  0  0  0
  9  7  1  1  0  0  0
 11  6  1  1  0  0  0
 11  5  1  0  0  0  0
 12  3  1  0  0  0  0
 13 10  1  6  0  0  0
 13  9  1  0  0  0  0
 13 12  1  0  0  0  0
 14 10  2  0  0  0  0
 16 31  1  6  0  0  0
 16  1  1  0  0  0  0
 16 10  1  0  0  0  0
 17 14  2  0  0  0  0
 18 19  2  0  0  0  0
 19 21  1  0  0  0  0
 19 20  1  0  0  0  0
 22 23  1  0  0  0  0
 22 21  1  0  0  0  0
 23 25  1  0  0  0  0
 24 23  2  0  0  0  0
 27 28  2  6  0  0  0
 27 26  1  0  0  0  0
 27 17  1  0  0  0  0
 29 27  1  0  0  0  0
 30 29  1  0  0  0  0
 32 31  1  0  0  0  0
M  END
>  <MODEL>
4

>  <REMARK>
 VINA RESULT:      -6.4      2.818      5.279
  Name = 
  7 active torsions:
  status: ('A' for Active; 'I' for Inactive)
    1  A    between atoms: C_1  and  C_10
    2  A    between atoms: C_6  and  C_31
    3  A    between atoms: C_8  and  N_23
    4  A    between atoms: C_10  and  C_24
    5  A    between atoms: P_11  and  O_18
    6  A    between atoms: P_11  and  C_32
    7  A    between atoms: C_19  and  C_24
                            x       y       z     vdW  Elec       q    Type
                         _______ _______ _______ _____ _____    ______ ____

>  <TORSDO>
F 7

$$$$
=
 OpenBabel11052421253D

 32 34  0  0  1  0  0  0  0  0999 V2000
  190.7020  175.1070  143.0670 N   0  0  2  0  0  0  0  0  0  0  0  0
  190.8500  170.5620  141.1930 C   0  0  0  0  0  2  0  0  0  0  0  0
  192.3740  170.7150  141.2980 C   0  0  0  0  0  2  0  0  0  0  0  0
  188.6690  176.4980  143.0890 C   0  0  2  0  0  3  0  0  0  0  0  0
  188.7560  174.4140  141.6560 C   0  0  0  0  0  2  0  0  0  0  0  0
  186.6980  175.2980  142.4700 F   0  0  0  0  0  0  0  0  0  0  0  0
  190.2120  171.9380  140.9980 C   0  0  0  0  0  2  0  0  0  0  0  0
  190.2850  174.3380  141.8800 C   0  0  2  0  0  3  0  0  0  0  0  0
  190.7440  172.8990  142.0620 C   0  0  2  0  0  3  0  0  0  0  0  0
  192.9220  173.9420  142.7930 C   0  0  0  0  0  0  0  0  0  0  0  0
  188.0330  175.1370  142.7910 C   0  0  2  0  0  3  0  0  0  0  0  0
  192.7120  171.5780  142.3610 O   0  0  0  0  0  0  0  0  0  0  0  0
  192.2650  172.8580  141.9830 C   0  0  1  0  0  3  0  0  0  0  0  0
  194.2300  173.9780  142.8050 C   0  0  0  0  0  0  0  0  0  0  0  0
  190.1910  176.4690  142.9080 C   0  0  0  0  0  2  0  0  0  0  0  0
  192.1700  175.1950  143.2120 C   0  0  2  0  0  3  0  0  0  0  0  0
  195.5320  174.0190  142.8240 C   0  0  0  0  0  3  0  0  0  0  0  0
  187.0540  178.0980  145.9700 O   0  0  0  0  0  0  0  0  0  0  0  0
  187.2700  177.7960  144.7680 C   0  0  0  0  0  0  0  0  0  0  0  0
  188.3360  176.8960  144.4500 N   0  0  0  0  0  2  0  0  0  0  0  0
  186.3860  178.3560  143.7040 C   0  0  0  0  0  2  0  0  0  0  0  0
  185.5640  179.5010  144.2640 C   0  0  0  0  0  2  0  0  0  0  0  0
  184.1650  179.0520  144.4900 C   0  0  0  0  0  0  0  0  0  0  0  0
  183.7500  178.6790  145.7620 O   0  0  0  0  0  1  0  0  0  0  0  0
  183.3460  179.0400  143.5330 O   0  0  0  0  0  0  0  0  0  0  0  0
  195.7720  174.7750  145.5460 O   0  0  0  0  0  1  0  0  0  0  0  0
  196.3710  175.0790  143.9910 P   0  0  1  0  0  0  0  0  0  0  0  0
  197.8530  174.7810  143.9530 O   0  0  0  0  0  0  0  0  0  0  0  0
  196.0960  176.6970  143.5640 O   0  0  0  0  0  0  0  0  0  0  0  0
  196.4410  176.7910  142.2150 C   0  0  0  0  0  1  0  0  0  0  0  0
  192.5120  175.5180  144.6670 C   0  0  0  0  0  2  0  0  0  0  0  0
  191.8540  174.5220  145.6030 C   0  0  0  0  0  1  0  0  0  0  0  0
  1 15  1  6  0  0  0
  1 16  1  0  0  0  0
  2  3  1  0  0  0  0
  3 12  1  0  0  0  0
  4 20  1  1  0  0  0
  5 11  1  0  0  0  0
  7  2  1  0  0  0  0
  8  5  1  1  0  0  0
  8  9  1  0  0  0  0
  8  1  1  0  0  0  0
  9  7  1  6  0  0  0
 10 14  2  0  0  0  0
 10 16  1  0  0  0  0
 11  6  1  6  0  0  0
 11  4  1  0  0  0  0
 13  9  1  0  0  0  0
 13 12  1  1  0  0  0
 13 10  1  0  0  0  0
 14 17  2  0  0  0  0
 15  4  1  0  0  0  0
 16 31  1  1  0  0  0
 17 27  1  0  0  0  0
 19 18  2  0  0  0  0
 20 19  1  0  0  0  0
 21 22  1  0  0  0  0
 21 19  1  0  0  0  0
 22 23  1  0  0  0  0
 23 24  1  0  0  0  0
 25 23  2  0  0  0  0
 27 28  2  6  0  0  0
 27 26  1  0  0  0  0
 29 27  1  0  0  0  0
 30 29  1  0  0  0  0
 31 32  1  0  0  0  0
M  END
>  <MODEL>
5

>  <REMARK>
 VINA RESULT:      -6.2      1.730      2.282
  Name = 
  7 active torsions:
  status: ('A' for Active; 'I' for Inactive)
    1  A    between atoms: C_1  and  C_10
    2  A    between atoms: C_6  and  C_31
    3  A    between atoms: C_8  and  N_23
    4  A    between atoms: C_10  and  C_24
    5  A    between atoms: P_11  and  O_18
    6  A    between atoms: P_11  and  C_32
    7  A    between atoms: C_19  and  C_24
                            x       y       z     vdW  Elec       q    Type
                         _______ _______ _______ _____ _____    ______ ____

>  <TORSDO>
F 7

$$$$
=
 OpenBabel11052421253D

 32 34  0  0  1  0  0  0  0  0999 V2000
  190.5180  175.3100  144.8300 N   0  0  2  0  0  0  0  0  0  0  0  0
  189.8970  172.3430  140.9550 C   0  0  0  0  0  2  0  0  0  0  0  0
  188.5450  173.0530  140.8010 C   0  0  0  0  0  2  0  0  0  0  0  0
  192.2900  174.9900  146.5110 C   0  0  2  0  0  3  0  0  0  0  0  0
  191.7520  173.1340  144.8760 C   0  0  0  0  0  2  0  0  0  0  0  0
  193.9030  173.3450  145.8800 F   0  0  0  0  0  0  0  0  0  0  0  0
  190.3120  172.3510  142.4270 C   0  0  0  0  0  2  0  0  0  0  0  0
  190.4580  173.8800  144.4730 C   0  0  2  0  0  3  0  0  0  0  0  0
  190.2050  173.7750  142.9770 C   0  0  2  0  0  3  0  0  0  0  0  0
  188.4590  175.5470  143.3930 C   0  0  0  0  0  0  0  0  0  0  0  0
  192.8310  174.0770  145.4060 C   0  0  2  0  0  3  0  0  0  0  0  0
  188.6190  174.3730  141.2920 O   0  0  0  0  0  0  0  0  0  0  0  0
  188.7920  174.2630  142.6850 C   0  0  1  0  0  3  0  0  0  0  0  0
  187.2720  176.0590  143.1890 C   0  0  0  0  0  0  0  0  0  0  0  0
  190.8330  175.3930  146.2560 C   0  0  0  0  0  2  0  0  0  0  0  0
  189.2370  176.0140  144.6130 C   0  0  2  0  0  3  0  0  0  0  0  0
  186.0930  176.5770  142.9900 C   0  0  0  0  0  3  0  0  0  0  0  0
  194.5780  177.7310  145.6660 O   0  0  0  0  0  0  0  0  0  0  0  0
  193.8690  176.7050  145.5010 C   0  0  0  0  0  0  0  0  0  0  0  0
  193.1270  176.1780  146.6050 N   0  0  0  0  0  2  0  0  0  0  0  0
  193.7910  176.0820  144.1460 C   0  0  0  0  0  2  0  0  0  0  0  0
  195.1350  176.1890  143.4500 C   0  0  0  0  0  2  0  0  0  0  0  0
  195.9050  174.9330  143.6490 C   0  0  0  0  0  0  0  0  0  0  0  0
  196.7270  174.7900  144.7600 O   0  0  0  0  0  1  0  0  0  0  0  0
  195.7880  173.9860  142.8280 O   0  0  0  0  0  0  0  0  0  0  0  0
  186.2280  178.3860  145.1680 O   0  0  0  0  0  1  0  0  0  0  0  0
  185.7430  178.2350  143.5530 P   0  0  1  0  0  0  0  0  0  0  0  0
  186.5130  179.2180  142.7000 O   0  0  0  0  0  0  0  0  0  0  0  0
  184.0790  178.5260  143.4120 O   0  0  0  0  0  0  0  0  0  0  0  0
  183.7450  178.1580  142.1080 C   0  0  0  0  0  1  0  0  0  0  0  0
  189.5030  177.5150  144.4910 C   0  0  0  0  0  2  0  0  0  0  0  0
  190.5850  177.7820  143.4620 C   0  0  0  0  0  1  0  0  0  0  0  0
  1 15  1  1  0  0  0
  2  7  1  0  0  0  0
  3  2  1  0  0  0  0
  3 12  1  0  0  0  0
  4 20  1  6  0  0  0
  5 11  1  0  0  0  0
  8  1  1  0  0  0  0
  8  5  1  6  0  0  0
  9  7  1  1  0  0  0
  9  8  1  0  0  0  0
 10 16  1  0  0  0  0
 11  6  1  1  0  0  0
 11  4  1  0  0  0  0
 13 12  1  6  0  0  0
 13  9  1  0  0  0  0
 13 10  1  0  0  0  0
 14 10  2  0  0  0  0
 15  4  1  0  0  0  0
 16 31  1  6  0  0  0
 16  1  1  0  0  0  0
 17 14  2  0  0  0  0
 17 27  1  0  0  0  0
 19 18  2  0  0  0  0
 19 20  1  0  0  0  0
 21 19  1  0  0  0  0
 22 23  1  0  0  0  0
 22 21  1  0  0  0  0
 23 24  1  0  0  0  0
 25 23  2  0  0  0  0
 27 28  2  6  0  0  0
 27 26  1  0  0  0  0
 29 27  1  0  0  0  0
 30 29  1  0  0  0  0
 32 31  1  0  0  0  0
M  END
>  <MODEL>
6

>  <REMARK>
 VINA RESULT:      -6.1      3.166      7.555
  Name = 
  7 active torsions:
  status: ('A' for Active; 'I' for Inactive)
    1  A    between atoms: C_1  and  C_10
    2  A    between atoms: C_6  and  C_31
    3  A    between atoms: C_8  and  N_23
    4  A    between atoms: C_10  and  C_24
    5  A    between atoms: P_11  and  O_18
    6  A    between atoms: P_11  and  C_32
    7  A    between atoms: C_19  and  C_24
                            x       y       z     vdW  Elec       q    Type
                         _______ _______ _______ _____ _____    ______ ____

>  <TORSDO>
F 7

$$$$
=
 OpenBabel11052421253D

 32 34  0  0  1  0  0  0  0  0999 V2000
  190.5080  174.9590  143.3220 N   0  0  2  0  0  0  0  0  0  0  0  0
  189.3850  173.5220  138.7540 C   0  0  0  0  0  2  0  0  0  0  0  0
  188.0360  174.2070  139.0160 C   0  0  0  0  0  2  0  0  0  0  0  0
  192.4590  174.1150  144.5670 C   0  0  2  0  0  3  0  0  0  0  0  0
  191.7010  172.9360  142.4600 C   0  0  0  0  0  2  0  0  0  0  0  0
  193.9580  172.8350  143.2170 F   0  0  0  0  0  0  0  0  0  0  0  0
  189.9700  173.0240  140.0770 C   0  0  0  0  0  2  0  0  0  0  0  0
  190.3810  173.7440  142.4960 C   0  0  2  0  0  3  0  0  0  0  0  0
  189.9530  174.1630  141.0990 C   0  0  2  0  0  3  0  0  0  0  0  0
  188.2990  175.6340  142.3090 C   0  0  0  0  0  0  0  0  0  0  0  0
  192.8510  173.6600  143.1570 C   0  0  2  0  0  3  0  0  0  0  0  0
  188.1910  175.2730  139.9270 O   0  0  0  0  0  0  0  0  0  0  0  0
  188.5240  174.6870  141.1620 C   0  0  1  0  0  3  0  0  0  0  0  0
  187.1050  176.1550  142.4370 C   0  0  0  0  0  0  0  0  0  0  0  0
  190.9890  174.5460  144.6400 C   0  0  0  0  0  2  0  0  0  0  0  0
  189.2230  175.6630  143.5160 C   0  0  2  0  0  3  0  0  0  0  0  0
  185.9210  176.6800  142.5700 C   0  0  0  0  0  3  0  0  0  0  0  0
  194.0320  176.7840  146.5340 O   0  0  0  0  0  0  0  0  0  0  0  0
  193.2590  175.8290  146.2640 C   0  0  0  0  0  0  0  0  0  0  0  0
  193.3220  175.2160  144.9730 N   0  0  0  0  0  2  0  0  0  0  0  0
  192.3160  175.3340  147.3110 C   0  0  0  0  0  2  0  0  0  0  0  0
  191.5870  176.5030  147.9450 C   0  0  0  0  0  2  0  0  0  0  0  0
  190.1550  176.4780  147.5460 C   0  0  0  0  0  0  0  0  0  0  0  0
  189.4620  175.2740  147.5180 O   0  0  0  0  0  1  0  0  0  0  0  0
  189.5610  177.5510  147.2640 O   0  0  0  0  0  0  0  0  0  0  0  0
  186.3240  179.4430  143.0560 O   0  0  0  0  0  0  0  0  0  0  0  0
  185.6690  178.0270  143.7150 P   0  0  1  0  0  0  0  0  0  0  0  0
  184.1850  178.2130  143.9380 O   0  0  0  0  0  1  0  0  0  0  0  0
  186.4330  177.6560  145.1820 O   0  0  0  0  0  0  0  0  0  0  0  0
  185.5630  176.7890  145.8470 C   0  0  0  0  0  1  0  0  0  0  0  0
  189.5000  177.1170  143.8970 C   0  0  0  0  0  2  0  0  0  0  0  0
  190.4580  177.7550  142.9100 C   0  0  0  0  0  1  0  0  0  0  0  0
  1 16  1  0  0  0  0
  1 15  1  1  0  0  0
  2  3  1  0  0  0  0
  2  7  1  0  0  0  0
  3 12  1  0  0  0  0
  4 15  1  0  0  0  0
  4 20  1  6  0  0  0
  5 11  1  0  0  0  0
  8  5  1  6  0  0  0
  8  1  1  0  0  0  0
  9  7  1  6  0  0  0
  9 13  1  0  0  0  0
  9  8  1  0  0  0  0
 10 14  2  0  0  0  0
 10 16  1  0  0  0  0
 11  6  1  1  0  0  0
 11  4  1  0  0  0  0
 13 12  1  6  0  0  0
 13 10  1  0  0  0  0
 14 17  2  0  0  0  0
 16 31  1  6  0  0  0
 17 27  1  0  0  0  0
 19 18  2  0  0  0  0
 19 21  1  0  0  0  0
 20 19  1  0  0  0  0
 21 22  1  0  0  0  0
 23 22  1  0  0  0  0
 24 23  1  0  0  0  0
 25 23  2  0  0  0  0
 27 26  2  6  0  0  0
 27 28  1  0  0  0  0
 27 29  1  0  0  0  0
 29 30  1  0  0  0  0
 32 31  1  0  0  0  0
M  END
>  <MODEL>
7

>  <REMARK>
 VINA RESULT:      -6.0      3.134      6.481
  Name = 
  7 active torsions:
  status: ('A' for Active; 'I' for Inactive)
    1  A    between atoms: C_1  and  C_10
    2  A    between atoms: C_6  and  C_31
    3  A    between atoms: C_8  and  N_23
    4  A    between atoms: C_10  and  C_24
    5  A    between atoms: P_11  and  O_18
    6  A    between atoms: P_11  and  C_32
    7  A    between atoms: C_19  and  C_24
                            x       y       z     vdW  Elec       q    Type
                         _______ _______ _______ _____ _____    ______ ____

>  <TORSDO>
F 7

$$$$
=
 OpenBabel11052421253D

 32 34  0  0  1  0  0  0  0  0999 V2000
  188.8990  176.3840  142.9970 N   0  0  2  0  0  0  0  0  0  0  0  0
  184.8240  178.4790  144.7850 C   0  0  0  0  0  2  0  0  0  0  0  0
  184.3930  178.5770  143.3150 C   0  0  0  0  0  2  0  0  0  0  0  0
  190.9330  176.0150  144.3380 C   0  0  2  0  0  3  0  0  0  0  0  0
  189.1120  177.5470  145.2020 C   0  0  0  0  0  2  0  0  0  0  0  0
  190.6110  176.4150  146.6700 F   0  0  0  0  0  0  0  0  0  0  0  0
  186.3500  178.5180  144.8730 C   0  0  0  0  0  2  0  0  0  0  0  0
  188.4560  177.5380  143.8010 C   0  0  2  0  0  3  0  0  0  0  0  0
  186.9390  177.4910  143.9040 C   0  0  2  0  0  3  0  0  0  0  0  0
  187.0280  177.0170  141.4280 C   0  0  0  0  0  0  0  0  0  0  0  0
  189.9380  176.2890  145.4700 C   0  0  2  0  0  3  0  0  0  0  0  0
  184.9630  177.5300  142.5620 O   0  0  0  0  0  0  0  0  0  0  0  0
  186.3470  177.7790  142.5300 C   0  0  1  0  0  3  0  0  0  0  0  0
  186.5780  177.1820  140.2100 C   0  0  0  0  0  0  0  0  0  0  0  0
  190.3610  176.4050  142.9690 C   0  0  0  0  0  2  0  0  0  0  0  0
  188.4240  176.4370  141.5990 C   0  0  2  0  0  3  0  0  0  0  0  0
  186.1340  177.3400  138.9960 C   0  0  0  0  0  3  0  0  0  0  0  0
  192.6590  172.8480  145.0140 O   0  0  0  0  0  0  0  0  0  0  0  0
  192.4090  174.0800  145.0680 C   0  0  0  0  0  0  0  0  0  0  0  0
  191.2910  174.6040  144.3440 N   0  0  0  0  0  2  0  0  0  0  0  0
  193.2650  174.9620  145.9160 C   0  0  0  0  0  2  0  0  0  0  0  0
  194.6660  175.0320  145.3390 C   0  0  0  0  0  2  0  0  0  0  0  0
  194.9900  176.4360  144.9730 C   0  0  0  0  0  0  0  0  0  0  0  0
  194.5660  177.4810  145.7830 O   0  0  0  0  0  1  0  0  0  0  0  0
  195.6750  176.6760  143.9440 O   0  0  0  0  0  0  0  0  0  0  0  0
  187.6080  174.9980  138.3780 O   0  0  0  0  0  1  0  0  0  0  0  0
  186.6920  176.2490  137.6970 P   0  0  1  0  0  0  0  0  0  0  0  0
  185.4880  175.6670  136.9900 O   0  0  0  0  0  0  0  0  0  0  0  0
  187.6340  177.1340  136.5990 O   0  0  0  0  0  0  0  0  0  0  0  0
  187.1490  176.7960  135.3340 C   0  0  0  0  0  1  0  0  0  0  0  0
  188.4560  175.0290  141.0040 C   0  0  0  0  0  2  0  0  0  0  0  0
  187.8610  174.0270  141.9740 C   0  0  0  0  0  1  0  0  0  0  0  0
  1 15  1  6  0  0  0
  1  8  1  0  0  0  0
  2  7  1  0  0  0  0
  3  2  1  0  0  0  0
  4 20  1  6  0  0  0
  4 11  1  0  0  0  0
  5 11  1  0  0  0  0
  8  9  1  0  0  0  0
  8  5  1  1  0  0  0
  9  7  1  1  0  0  0
 10 16  1  0  0  0  0
 11  6  1  1  0  0  0
 12  3  1  0  0  0  0
 13 10  1  6  0  0  0
 13 12  1  0  0  0  0
 13  9  1  0  0  0  0
 14 10  2  0  0  0  0
 15  4  1  0  0  0  0
 16 31  1  1  0  0  0
 16  1  1  0  0  0  0
 17 14  2  0  0  0  0
 18 19  2  0  0  0  0
 19 21  1  0  0  0  0
 20 19  1  0  0  0  0
 22 21  1  0  0  0  0
 23 22  1  0  0  0  0
 23 24  1  0  0  0  0
 25 23  2  0  0  0  0
 27 28  2  6  0  0  0
 27 26  1  0  0  0  0
 27 17  1  0  0  0  0
 29 27  1  0  0  0  0
 30 29  1  0  0  0  0
 31 32  1  0  0  0  0
M  END
>  <MODEL>
8

>  <REMARK>
 VINA RESULT:      -6.0      3.540      7.973
  Name = 
  7 active torsions:
  status: ('A' for Active; 'I' for Inactive)
    1  A    between atoms: C_1  and  C_10
    2  A    between atoms: C_6  and  C_31
    3  A    between atoms: C_8  and  N_23
    4  A    between atoms: C_10  and  C_24
    5  A    between atoms: P_11  and  O_18
    6  A    between atoms: P_11  and  C_32
    7  A    between atoms: C_19  and  C_24
                            x       y       z     vdW  Elec       q    Type
                         _______ _______ _______ _____ _____    ______ ____

>  <TORSDO>
F 7

$$$$
=
 OpenBabel11052421253D

 32 34  0  0  1  0  0  0  0  0999 V2000
  190.1930  175.6090  144.0810 N   0  0  2  0  0  0  0  0  0  0  0  0
  185.7720  177.6110  144.8840 C   0  0  0  0  0  2  0  0  0  0  0  0
  185.4960  177.2560  143.4160 C   0  0  0  0  0  2  0  0  0  0  0  0
  192.0950  175.8600  145.6270 C   0  0  2  0  0  3  0  0  0  0  0  0
  190.0580  177.3410  145.8820 C   0  0  0  0  0  2  0  0  0  0  0  0
  191.4860  176.8340  147.7210 F   0  0  0  0  0  0  0  0  0  0  0  0
  187.2700  177.8520  145.0770 C   0  0  0  0  0  2  0  0  0  0  0  0
  189.5610  176.8770  144.4920 C   0  0  2  0  0  3  0  0  0  0  0  0
  188.0530  176.6790  144.4840 C   0  0  2  0  0  3  0  0  0  0  0  0
  188.4540  175.5680  142.2550 C   0  0  0  0  0  0  0  0  0  0  0  0
  190.9620  176.3090  146.5550 C   0  0  2  0  0  3  0  0  0  0  0  0
  186.2390  176.1200  143.0330 O   0  0  0  0  0  0  0  0  0  0  0  0
  187.5900  176.5140  143.0420 C   0  0  1  0  0  3  0  0  0  0  0  0
  188.1250  175.3450  141.0080 C   0  0  0  0  0  0  0  0  0  0  0  0
  191.6420  175.7950  144.1630 C   0  0  0  0  0  2  0  0  0  0  0  0
  189.8700  175.2270  142.6910 C   0  0  2  0  0  3  0  0  0  0  0  0
  187.8020  175.1150  139.7670 C   0  0  0  0  0  3  0  0  0  0  0  0
  193.9480  172.6970  145.7890 O   0  0  0  0  0  0  0  0  0  0  0  0
  193.5920  173.8240  145.3590 C   0  0  0  0  0  0  0  0  0  0  0  0
  192.5790  174.5560  146.0570 N   0  0  0  0  0  2  0  0  0  0  0  0
  194.2600  174.3880  144.1490 C   0  0  0  0  0  2  0  0  0  0  0  0
  195.6760  174.8130  144.4900 C   0  0  0  0  0  2  0  0  0  0  0  0
  195.8560  176.2550  144.1800 C   0  0  0  0  0  0  0  0  0  0  0  0
  195.2720  177.2190  144.9930 O   0  0  0  0  0  1  0  0  0  0  0  0
  196.5640  176.6050  143.2000 O   0  0  0  0  0  0  0  0  0  0  0  0
  187.9800  172.3070  139.4180 O   0  0  0  0  0  1  0  0  0  0  0  0
  188.5960  173.7880  138.8740 P   0  0  1  0  0  0  0  0  0  0  0  0
  188.3060  173.9440  137.3980 O   0  0  0  0  0  0  0  0  0  0  0  0
  190.2680  173.8620  139.1450 O   0  0  0  0  0  0  0  0  0  0  0  0
  190.7230  172.5460  139.0360 C   0  0  0  0  0  1  0  0  0  0  0  0
  190.0960  173.7240  142.5180 C   0  0  0  0  0  2  0  0  0  0  0  0
  189.5000  172.9580  143.6830 C   0  0  0  0  0  1  0  0  0  0  0  0
  1 15  1  6  0  0  0
  1  8  1  0  0  0  0
  2  7  1  0  0  0  0
  3  2  1  0  0  0  0
  4 20  1  1  0  0  0
  4 11  1  0  0  0  0
  5 11  1  0  0  0  0
  8  5  1  1  0  0  0
  9  8  1  0  0  0  0
  9  7  1  6  0  0  0
 10 16  1  0  0  0  0
 11  6  1  1  0  0  0
 12 13  1  0  0  0  0
 12  3  1  0  0  0  0
 13 10  1  1  0  0  0
 13  9  1  0  0  0  0
 14 10  2  0  0  0  0
 15  4  1  0  0  0  0
 16 31  1  1  0  0  0
 16  1  1  0  0  0  0
 17 14  2  0  0  0  0
 19 18  2  0  0  0  0
 19 20  1  0  0  0  0
 21 22  1  0  0  0  0
 21 19  1  0  0  0  0
 23 22  1  0  0  0  0
 23 24  1  0  0  0  0
 25 23  2  0  0  0  0
 27 28  2  6  0  0  0
 27 29  1  0  0  0  0
 27 26  1  0  0  0  0
 27 17  1  0  0  0  0
 30 29  1  0  0  0  0
 31 32  1  0  0  0  0
M  END
>  <MODEL>
9

>  <REMARK>
 VINA RESULT:      -6.0      2.933      7.456
  Name = 
  7 active torsions:
  status: ('A' for Active; 'I' for Inactive)
    1  A    between atoms: C_1  and  C_10
    2  A    between atoms: C_6  and  C_31
    3  A    between atoms: C_8  and  N_23
    4  A    between atoms: C_10  and  C_24
    5  A    between atoms: P_11  and  O_18
    6  A    between atoms: P_11  and  C_32
    7  A    between atoms: C_19  and  C_24
                            x       y       z     vdW  Elec       q    Type
                         _______ _______ _______ _____ _____    ______ ____

>  <TORSDO>
F 7

$$$$
