=
 OpenBabel11052421393D

 32 36  0  0  1  0  0  0  0  0999 V2000
  188.5620  176.5460  146.8650 O   0  0  0  0  0  0  0  0  0  0  0  0
  186.1660  176.9150  146.7530 C   0  0  0  0  0  0  0  0  0  0  0  0
  185.1260  177.3990  145.8120 C   0  0  1  0  0  3  0  0  0  0  0  0
  184.8500  178.9740  144.1160 C   0  0  2  0  0  3  0  0  0  0  0  0
  189.2070  175.3290  146.5880 C   0  0  1  0  0  3  0  0  0  0  0  0
  189.6980  175.3040  145.1180 C   0  0  2  0  0  3  0  0  0  0  0  0
  187.4310  176.3200  144.6860 C   0  0  2  0  0  3  0  0  0  0  0  0
  183.9090  179.2960  145.1250 O   0  0  0  0  0  0  0  0  0  0  0  0
  184.2470  178.5300  146.2710 C   0  0  0  0  0  2  0  0  0  0  0  0
  188.8780  176.2320  144.1910 C   0  0  1  0  0  3  0  0  0  0  0  0
  186.6240  177.2280  143.9190 O   0  0  0  0  0  0  0  0  0  0  0  0
  185.9850  176.8680  148.0000 O   0  0  0  0  0  0  0  0  0  0  0  0
  184.1410  178.2600  142.9720 C   0  0  0  0  0  1  0  0  0  0  0  0
  187.4010  176.5120  146.1560 N   0  0  0  0  0  0  0  0  0  0  0  0
  185.9030  178.1070  144.7620 C   0  0  2  0  0  3  0  0  0  0  0  0
  190.7960  173.9420  143.3630 S   0  0  0  0  0  1  0  0  0  0  0  0
  189.6410  173.9940  144.6340 O   0  0  0  0  0  0  0  0  0  0  0  0
  189.9580  177.9350  142.7170 C   0  0  0  0  0  1  0  0  0  0  0  0
  189.5150  177.6150  144.1320 C   0  0  0  0  0  2  0  0  0  0  0  0
  190.3710  175.1460  147.5500 C   0  0  0  0  0  2  0  0  0  0  0  0
  191.2230  177.1980  148.3990 O   0  0  0  0  0  0  0  0  0  0  0  0
  191.2960  176.3140  147.5030 C   0  0  0  0  0  0  0  0  0  0  0  0
  192.2370  176.4110  146.4780 O   0  0  0  0  0  0  0  0  0  0  0  0
  193.1480  175.3590  146.1960 C   0  0  0  0  0  2  0  0  0  0  0  0
  195.4340  175.3950  145.2090 C   0  0  1  0  0  3  0  0  0  0  0  0
  194.9290  176.8220  145.2490 C   0  0  2  0  0  3  0  0  0  0  0  0
  194.5710  175.8610  146.3650 C   0  0  1  0  0  3  0  0  0  0  0  0
  195.0150  176.0860  143.9260 C   0  0  1  0  0  3  0  0  0  0  0  0
  196.2470  176.5410  143.1700 C   0  0  0  0  0  2  0  0  0  0  0  0
  195.9970  176.4700  141.7050 C   0  0  0  0  0  0  0  0  0  0  0  0
  194.8540  176.7280  141.2460 O   0  0  0  0  0  1  0  0  0  0  0  0
  197.0160  176.0810  140.8440 O   0  0  0  0  0  0  0  0  0  0  0  0
  2 12  2  0  0  0  0
  3  9  1  1  0  0  0
  3  2  1  0  0  0  0
  4 13  1  6  0  0  0
  4 15  1  0  0  0  0
  4  8  1  0  0  0  0
  5  1  1  0  0  0  0
  5 20  1  1  0  0  0
  6 17  1  6  0  0  0
  6  5  1  0  0  0  0
  7 11  1  6  0  0  0
  7 14  1  0  0  0  0
  8  9  1  0  0  0  0
 10 19  1  1  0  0  0
 10  7  1  0  0  0  0
 10  6  1  0  0  0  0
 14  2  1  0  0  0  0
 14  1  1  0  0  0  0
 15 11  1  6  0  0  0
 15  3  1  0  0  0  0
 16 17  1  0  0  0  0
 18 19  1  0  0  0  0
 22 20  1  0  0  0  0
 22 21  2  0  0  0  0
 23 22  1  0  0  0  0
 24 27  1  0  0  0  0
 24 23  1  0  0  0  0
 25 26  1  0  0  0  0
 25 27  1  0  0  0  0
 26 27  1  0  0  0  0
 28 25  1  0  0  0  0
 28 26  1  0  0  0  0
 29 28  1  0  0  0  0
 30 29  1  0  0  0  0
 31 30  1  0  0  0  0
 32 30  2  0  0  0  0
M  END
>  <MODEL>
1

>  <REMARK>
 VINA RESULT:      -7.5      0.000      0.000
  Name = 
  9 active torsions:
  status: ('A' for Active; 'I' for Inactive)
    1  A    between atoms: C_1  and  C_10
    2  A    between atoms: C_8  and  C_23
    3  A    between atoms: C_8  and  O_28
    4  A    between atoms: C_9  and  C_14
    5  A    between atoms: C_9  and  C_21
    6  A    between atoms: C_10  and  C_24
    7  A    between atoms: O_13  and  C_15
    8  A    between atoms: C_21  and  O_28
    9  A    between atoms: C_25  and  C_26
                            x       y       z     vdW  Elec       q    Type
                         _______ _______ _______ _____ _____    ______ ____

>  <TORSDO>
F 9

$$$$
=
 OpenBabel11052421393D

 32 36  0  0  1  0  0  0  0  0999 V2000
  188.7950  176.5960  146.8870 O   0  0  0  0  0  0  0  0  0  0  0  0
  186.3890  176.8280  146.6690 C   0  0  0  0  0  0  0  0  0  0  0  0
  185.3690  177.3030  145.7040 C   0  0  1  0  0  3  0  0  0  0  0  0
  185.0780  178.9570  144.0860 C   0  0  2  0  0  3  0  0  0  0  0  0
  189.5280  175.4390  146.5760 C   0  0  1  0  0  3  0  0  0  0  0  0
  190.0920  175.5300  145.1350 C   0  0  2  0  0  3  0  0  0  0  0  0
  187.7900  176.4330  144.6410 C   0  0  2  0  0  3  0  0  0  0  0  0
  184.0700  179.1610  145.0610 O   0  0  0  0  0  0  0  0  0  0  0  0
  184.3980  178.3500  146.1780 C   0  0  0  0  0  2  0  0  0  0  0  0
  189.2620  176.4610  144.2200 C   0  0  1  0  0  3  0  0  0  0  0  0
  186.9660  177.3350  143.8850 O   0  0  0  0  0  0  0  0  0  0  0  0
  186.1500  176.6950  147.9000 O   0  0  0  0  0  0  0  0  0  0  0  0
  184.4730  178.2710  142.8680 C   0  0  0  0  0  1  0  0  0  0  0  0
  187.6750  176.5350  146.1160 N   0  0  0  0  0  0  0  0  0  0  0  0
  186.1500  178.1180  144.7370 C   0  0  2  0  0  3  0  0  0  0  0  0
  190.6470  174.4980  142.9520 S   0  0  0  0  0  1  0  0  0  0  0  0
  190.1410  174.2510  144.5760 O   0  0  0  0  0  0  0  0  0  0  0  0
  191.1860  177.9410  143.6330 C   0  0  0  0  0  1  0  0  0  0  0  0
  189.8120  177.8810  144.2720 C   0  0  0  0  0  2  0  0  0  0  0  0
  190.6520  175.2690  147.5870 C   0  0  0  0  0  2  0  0  0  0  0  0
  191.3840  177.2750  148.6340 O   0  0  0  0  0  0  0  0  0  0  0  0
  191.5040  176.4910  147.6540 C   0  0  0  0  0  0  0  0  0  0  0  0
  192.4290  176.7470  146.6420 O   0  0  0  0  0  0  0  0  0  0  0  0
  193.8280  176.7100  146.8800 C   0  0  0  0  0  2  0  0  0  0  0  0
  195.2160  175.0580  145.6340 C   0  0  1  0  0  3  0  0  0  0  0  0
  193.9240  175.2440  144.8660 C   0  0  2  0  0  3  0  0  0  0  0  0
  194.5570  176.4230  145.5790 C   0  0  1  0  0  3  0  0  0  0  0  0
  194.1650  173.9660  145.6460 C   0  0  1  0  0  3  0  0  0  0  0  0
  194.5750  172.8600  144.6930 C   0  0  0  0  0  2  0  0  0  0  0  0
  193.7200  171.6610  144.9120 C   0  0  0  0  0  0  0  0  0  0  0  0
  194.2080  170.6240  145.4320 O   0  0  0  0  0  1  0  0  0  0  0  0
  192.3920  171.6720  144.5060 O   0  0  0  0  0  0  0  0  0  0  0  0
  2 12  2  0  0  0  0
  3  9  1  1  0  0  0
  3  2  1  0  0  0  0
  4 13  1  6  0  0  0
  4 15  1  0  0  0  0
  4  8  1  0  0  0  0
  5  1  1  0  0  0  0
  5 20  1  1  0  0  0
  6 17  1  6  0  0  0
  6  5  1  0  0  0  0
  7 11  1  6  0  0  0
  7 14  1  0  0  0  0
  8  9  1  0  0  0  0
 10 19  1  1  0  0  0
 10  7  1  0  0  0  0
 10  6  1  0  0  0  0
 14  2  1  0  0  0  0
 14  1  1  0  0  0  0
 15 11  1  6  0  0  0
 15  3  1  0  0  0  0
 16 17  1  0  0  0  0
 18 19  1  0  0  0  0
 20 22  1  0  0  0  0
 22 21  2  0  0  0  0
 23 24  1  0  0  0  0
 23 22  1  0  0  0  0
 25 28  1  0  0  0  0
 26 27  1  0  0  0  0
 26 25  1  0  0  0  0
 26 28  1  0  0  0  0
 27 25  1  0  0  0  0
 27 24  1  0  0  0  0
 29 30  1  0  0  0  0
 29 28  1  0  0  0  0
 30 31  1  0  0  0  0
 32 30  2  0  0  0  0
M  END
>  <MODEL>
2

>  <REMARK>
 VINA RESULT:      -7.4      1.983      2.423
  Name = 
  9 active torsions:
  status: ('A' for Active; 'I' for Inactive)
    1  A    between atoms: C_1  and  C_10
    2  A    between atoms: C_8  and  C_23
    3  A    between atoms: C_8  and  O_28
    4  A    between atoms: C_9  and  C_14
    5  A    between atoms: C_9  and  C_21
    6  A    between atoms: C_10  and  C_24
    7  A    between atoms: O_13  and  C_15
    8  A    between atoms: C_21  and  O_28
    9  A    between atoms: C_25  and  C_26
                            x       y       z     vdW  Elec       q    Type
                         _______ _______ _______ _____ _____    ______ ____

>  <TORSDO>
F 9

$$$$
=
 OpenBabel11052421393D

 32 36  0  0  1  0  0  0  0  0999 V2000
  188.6560  176.2120  143.3030 O   0  0  0  0  0  0  0  0  0  0  0  0
  190.8860  177.1010  143.6610 C   0  0  0  0  0  0  0  0  0  0  0  0
  192.2990  176.6530  143.7240 C   0  0  1  0  0  3  0  0  0  0  0  0
  193.5600  174.8210  144.4220 C   0  0  2  0  0  3  0  0  0  0  0  0
  187.9900  176.1700  142.0680 C   0  0  1  0  0  3  0  0  0  0  0  0
  188.1910  174.7870  141.3960 C   0  0  2  0  0  3  0  0  0  0  0  0
  190.5610  175.1070  142.1950 C   0  0  2  0  0  3  0  0  0  0  0  0
  194.0090  175.9330  145.1750 O   0  0  0  0  0  0  0  0  0  0  0  0
  193.0770  176.9830  144.9680 C   0  0  0  0  0  2  0  0  0  0  0  0
  189.4820  174.0730  141.8590 C   0  0  1  0  0  3  0  0  0  0  0  0
  191.7680  174.5210  142.7090 O   0  0  0  0  0  0  0  0  0  0  0  0
  190.4960  178.1910  144.1610 O   0  0  0  0  0  0  0  0  0  0  0  0
  194.5550  174.5290  143.3070 C   0  0  0  0  0  1  0  0  0  0  0  0
  189.9830  176.2090  143.0030 N   0  0  0  0  0  0  0  0  0  0  0  0
  192.1950  175.1800  143.8870 C   0  0  2  0  0  3  0  0  0  0  0  0
  188.5050  173.3690  139.3890 S   0  0  0  0  0  1  0  0  0  0  0  0
  188.2180  174.9470  140.0090 O   0  0  0  0  0  0  0  0  0  0  0  0
  189.5940  171.7500  142.7710 C   0  0  0  0  0  1  0  0  0  0  0  0
  189.1920  173.1830  143.0620 C   0  0  0  0  0  2  0  0  0  0  0  0
  186.5120  176.4580  142.2820 C   0  0  0  0  0  2  0  0  0  0  0  0
  186.4680  177.8600  140.3610 O   0  0  0  0  0  0  0  0  0  0  0  0
  186.0930  177.6900  141.5530 C   0  0  0  0  0  0  0  0  0  0  0  0
  185.2860  178.6310  142.1900 O   0  0  0  0  0  0  0  0  0  0  0  0
  184.3130  178.2540  143.1530 C   0  0  0  0  0  2  0  0  0  0  0  0
  184.7310  178.3050  145.6080 C   0  0  1  0  0  3  0  0  0  0  0  0
  185.8470  179.0770  144.9370 C   0  0  2  0  0  3  0  0  0  0  0  0
  184.4390  179.1420  144.3780 C   0  0  1  0  0  3  0  0  0  0  0  0
  186.1190  177.7040  145.5200 C   0  0  1  0  0  3  0  0  0  0  0  0
  186.8190  177.8490  146.8560 C   0  0  0  0  0  2  0  0  0  0  0  0
  188.0730  177.0470  146.8610 C   0  0  0  0  0  0  0  0  0  0  0  0
  188.0350  175.8140  146.6150 O   0  0  0  0  0  0  0  0  0  0  0  0
  189.2830  177.6530  147.1750 O   0  0  0  0  0  1  0  0  0  0  0  0
  2  3  1  0  0  0  0
  2 12  2  0  0  0  0
  3 15  1  0  0  0  0
  3  9  1  1  0  0  0
  4 13  1  6  0  0  0
  4  8  1  0  0  0  0
  5 20  1  1  0  0  0
  5  1  1  0  0  0  0
  6 17  1  6  0  0  0
  6 10  1  0  0  0  0
  6  5  1  0  0  0  0
  7 11  1  1  0  0  0
  7 14  1  0  0  0  0
  9  8  1  0  0  0  0
 10  7  1  0  0  0  0
 10 19  1  1  0  0  0
 14  1  1  0  0  0  0
 14  2  1  0  0  0  0
 15 11  1  6  0  0  0
 15  4  1  0  0  0  0
 16 17  1  0  0  0  0
 18 19  1  0  0  0  0
 21 22  2  0  0  0  0
 22 23  1  0  0  0  0
 22 20  1  0  0  0  0
 23 24  1  0  0  0  0
 24 27  1  0  0  0  0
 26 28  1  0  0  0  0
 26 25  1  0  0  0  0
 27 26  1  0  0  0  0
 27 25  1  0  0  0  0
 28 25  1  0  0  0  0
 28 29  1  0  0  0  0
 29 30  1  0  0  0  0
 30 32  1  0  0  0  0
 31 30  2  0  0  0  0
M  END
>  <MODEL>
3

>  <REMARK>
 VINA RESULT:      -7.4      2.639      7.847
  Name = 
  9 active torsions:
  status: ('A' for Active; 'I' for Inactive)
    1  A    between atoms: C_1  and  C_10
    2  A    between atoms: C_8  and  C_23
    3  A    between atoms: C_8  and  O_28
    4  A    between atoms: C_9  and  C_14
    5  A    between atoms: C_9  and  C_21
    6  A    between atoms: C_10  and  C_24
    7  A    between atoms: O_13  and  C_15
    8  A    between atoms: C_21  and  O_28
    9  A    between atoms: C_25  and  C_26
                            x       y       z     vdW  Elec       q    Type
                         _______ _______ _______ _____ _____    ______ ____

>  <TORSDO>
F 9

$$$$
=
 OpenBabel11052421393D

 32 36  0  0  1  0  0  0  0  0999 V2000
  188.7960  176.0800  143.7610 O   0  0  0  0  0  0  0  0  0  0  0  0
  188.1900  174.2700  142.2630 C   0  0  0  0  0  0  0  0  0  0  0  0
  188.8190  173.2080  141.4400 C   0  0  1  0  0  3  0  0  0  0  0  0
  190.7270  172.8450  140.1500 C   0  0  2  0  0  3  0  0  0  0  0  0
  188.8720  175.9820  145.1600 C   0  0  1  0  0  3  0  0  0  0  0  0
  190.3300  175.6940  145.6000 C   0  0  2  0  0  3  0  0  0  0  0  0
  190.2590  174.0990  143.6490 C   0  0  2  0  0  3  0  0  0  0  0  0
  189.6160  172.6840  139.2850 O   0  0  0  0  0  0  0  0  0  0  0  0
  188.4750  173.1670  139.9760 C   0  0  0  0  0  2  0  0  0  0  0  0
  191.1640  174.9910  144.5040 C   0  0  1  0  0  3  0  0  0  0  0  0
  190.9500  173.4720  142.5570 O   0  0  0  0  0  0  0  0  0  0  0  0
  187.0120  174.6730  142.0660 O   0  0  0  0  0  0  0  0  0  0  0  0
  191.2650  171.4760  140.5450 C   0  0  0  0  0  1  0  0  0  0  0  0
  189.0120  174.8200  143.2950 N   0  0  0  0  0  0  0  0  0  0  0  0
  190.2400  173.6320  141.3430 C   0  0  2  0  0  3  0  0  0  0  0  0
  191.2780  175.7690  147.8880 S   0  0  0  0  0  1  0  0  0  0  0  0
  190.3180  174.9060  146.7530 O   0  0  0  0  0  0  0  0  0  0  0  0
  192.3510  177.1890  144.4880 C   0  0  0  0  0  1  0  0  0  0  0  0
  191.8790  176.0240  143.6400 C   0  0  0  0  0  2  0  0  0  0  0  0
  188.3630  177.2730  145.7840 C   0  0  0  0  0  2  0  0  0  0  0  0
  187.2570  175.9640  147.4330 O   0  0  0  0  0  0  0  0  0  0  0  0
  187.2390  177.0080  146.7260 C   0  0  0  0  0  0  0  0  0  0  0  0
  186.1880  177.9190  146.8250 O   0  0  0  0  0  0  0  0  0  0  0  0
  186.0470  179.0000  145.9150 C   0  0  0  0  0  2  0  0  0  0  0  0
  185.0440  179.3050  143.6550 C   0  0  1  0  0  3  0  0  0  0  0  0
  185.1060  177.8180  143.9330 C   0  0  2  0  0  3  0  0  0  0  0  0
  184.8100  178.7860  145.0600 C   0  0  1  0  0  3  0  0  0  0  0  0
  186.0650  178.4440  142.9390 C   0  0  1  0  0  3  0  0  0  0  0  0
  185.5890  178.1630  141.5270 C   0  0  0  0  0  2  0  0  0  0  0  0
  186.7410  177.7630  140.6750 C   0  0  0  0  0  0  0  0  0  0  0  0
  187.9170  177.8800  141.1070 O   0  0  0  0  0  1  0  0  0  0  0  0
  186.5210  177.2960  139.3850 O   0  0  0  0  0  0  0  0  0  0  0  0
  1  5  1  0  0  0  0
  2 14  1  0  0  0  0
  3  9  1  6  0  0  0
  3  2  1  0  0  0  0
  4 13  1  1  0  0  0
  4 15  1  0  0  0  0
  5  6  1  0  0  0  0
  5 20  1  1  0  0  0
  6 17  1  1  0  0  0
  7 11  1  6  0  0  0
  7 10  1  0  0  0  0
  8  9  1  0  0  0  0
  8  4  1  0  0  0  0
 10 19  1  6  0  0  0
 10  6  1  0  0  0  0
 12  2  2  0  0  0  0
 14  7  1  0  0  0  0
 14  1  1  0  0  0  0
 15  3  1  0  0  0  0
 15 11  1  1  0  0  0
 17 16  1  0  0  0  0
 19 18  1  0  0  0  0
 20 22  1  0  0  0  0
 22 23  1  0  0  0  0
 22 21  2  0  0  0  0
 24 23  1  0  0  0  0
 25 26  1  0  0  0  0
 25 27  1  0  0  0  0
 26 27  1  0  0  0  0
 27 24  1  0  0  0  0
 28 25  1  0  0  0  0
 28 26  1  0  0  0  0
 29 28  1  0  0  0  0
 30 31  1  0  0  0  0
 30 29  1  0  0  0  0
 32 30  2  0  0  0  0
M  END
>  <MODEL>
4

>  <REMARK>
 VINA RESULT:      -7.0      3.167      7.133
  Name = 
  9 active torsions:
  status: ('A' for Active; 'I' for Inactive)
    1  A    between atoms: C_1  and  C_10
    2  A    between atoms: C_8  and  C_23
    3  A    between atoms: C_8  and  O_28
    4  A    between atoms: C_9  and  C_14
    5  A    between atoms: C_9  and  C_21
    6  A    between atoms: C_10  and  C_24
    7  A    between atoms: O_13  and  C_15
    8  A    between atoms: C_21  and  O_28
    9  A    between atoms: C_25  and  C_26
                            x       y       z     vdW  Elec       q    Type
                         _______ _______ _______ _____ _____    ______ ____

>  <TORSDO>
F 9

$$$$
=
 OpenBabel11052421393D

 32 36  0  0  1  0  0  0  0  0999 V2000
  189.5880  176.4600  143.8330 O   0  0  0  0  0  0  0  0  0  0  0  0
  191.9050  177.1300  144.1110 C   0  0  0  0  0  0  0  0  0  0  0  0
  193.2350  176.5480  144.4140 C   0  0  1  0  0  3  0  0  0  0  0  0
  194.1900  174.8540  145.6990 C   0  0  2  0  0  3  0  0  0  0  0  0
  188.9780  176.1460  142.6080 C   0  0  1  0  0  3  0  0  0  0  0  0
  189.0090  174.6140  142.3690 C   0  0  2  0  0  3  0  0  0  0  0  0
  191.3630  174.8550  143.2410 C   0  0  2  0  0  3  0  0  0  0  0  0
  194.7600  176.0720  146.1460 O   0  0  0  0  0  0  0  0  0  0  0  0
  193.9970  177.1240  145.5760 C   0  0  0  0  0  2  0  0  0  0  0  0
  190.1640  173.9100  143.1190 C   0  0  1  0  0  3  0  0  0  0  0  0
  192.4500  174.2970  143.9960 O   0  0  0  0  0  0  0  0  0  0  0  0
  191.6520  178.3580  144.2520 O   0  0  0  0  0  0  0  0  0  0  0  0
  195.1810  174.1310  144.7970 C   0  0  0  0  0  1  0  0  0  0  0  0
  190.9140  176.2050  143.6560 N   0  0  0  0  0  0  0  0  0  0  0  0
  192.9150  175.2090  144.9730 C   0  0  2  0  0  3  0  0  0  0  0  0
  189.3930  172.6690  140.8840 S   0  0  0  0  0  1  0  0  0  0  0  0
  189.1200  174.3620  141.0000 O   0  0  0  0  0  0  0  0  0  0  0  0
  189.8000  171.9400  144.6110 C   0  0  0  0  0  1  0  0  0  0  0  0
  189.6970  173.4480  144.4940 C   0  0  0  0  0  2  0  0  0  0  0  0
  187.5490  176.6650  142.6090 C   0  0  0  0  0  2  0  0  0  0  0  0
  188.5310  178.6000  141.6350 O   0  0  0  0  0  0  0  0  0  0  0  0
  187.4720  178.0320  142.0180 C   0  0  0  0  0  0  0  0  0  0  0  0
  186.2350  178.6600  141.8840 O   0  0  0  0  0  0  0  0  0  0  0  0
  185.0440  178.0870  142.4040 C   0  0  0  0  0  2  0  0  0  0  0  0
  184.2650  178.6330  144.7060 C   0  0  1  0  0  3  0  0  0  0  0  0
  185.2700  179.6900  144.2990 C   0  0  2  0  0  3  0  0  0  0  0  0
  184.3240  179.1080  143.2670 C   0  0  1  0  0  3  0  0  0  0  0  0
  185.6510  178.6350  145.3190 C   0  0  1  0  0  3  0  0  0  0  0  0
  185.5870  179.2280  146.7130 C   0  0  0  0  0  2  0  0  0  0  0  0
  186.4140  178.4180  147.6470 C   0  0  0  0  0  0  0  0  0  0  0  0
  186.3430  177.1620  147.6260 O   0  0  0  0  0  0  0  0  0  0  0  0
  187.2390  179.0490  148.5700 O   0  0  0  0  0  1  0  0  0  0  0  0
  2 12  2  0  0  0  0
  2  3  1  0  0  0  0
  3 15  1  0  0  0  0
  3  9  1  1  0  0  0
  4 13  1  6  0  0  0
  4  8  1  0  0  0  0
  5 20  1  1  0  0  0
  5  1  1  0  0  0  0
  6 17  1  6  0  0  0
  6  5  1  0  0  0  0
  6 10  1  0  0  0  0
  7 14  1  0  0  0  0
  7 11  1  1  0  0  0
  9  8  1  0  0  0  0
 10  7  1  0  0  0  0
 10 19  1  1  0  0  0
 14  1  1  0  0  0  0
 14  2  1  0  0  0  0
 15 11  1  6  0  0  0
 15  4  1  0  0  0  0
 16 17  1  0  0  0  0
 19 18  1  0  0  0  0
 21 22  2  0  0  0  0
 22 20  1  0  0  0  0
 23 22  1  0  0  0  0
 23 24  1  0  0  0  0
 24 27  1  0  0  0  0
 25 28  1  0  0  0  0
 26 25  1  0  0  0  0
 26 28  1  0  0  0  0
 27 26  1  0  0  0  0
 27 25  1  0  0  0  0
 28 29  1  0  0  0  0
 29 30  1  0  0  0  0
 30 32  1  0  0  0  0
 31 30  2  0  0  0  0
M  END
>  <MODEL>
5

>  <REMARK>
 VINA RESULT:      -7.0      2.720      8.259
  Name = 
  9 active torsions:
  status: ('A' for Active; 'I' for Inactive)
    1  A    between atoms: C_1  and  C_10
    2  A    between atoms: C_8  and  C_23
    3  A    between atoms: C_8  and  O_28
    4  A    between atoms: C_9  and  C_14
    5  A    between atoms: C_9  and  C_21
    6  A    between atoms: C_10  and  C_24
    7  A    between atoms: O_13  and  C_15
    8  A    between atoms: C_21  and  O_28
    9  A    between atoms: C_25  and  C_26
                            x       y       z     vdW  Elec       q    Type
                         _______ _______ _______ _____ _____    ______ ____

>  <TORSDO>
F 9

$$$$
=
 OpenBabel11052421393D

 32 36  0  0  1  0  0  0  0  0999 V2000
  190.5430  175.3910  142.3200 O   0  0  0  0  0  0  0  0  0  0  0  0
  192.7190  174.6130  141.5790 C   0  0  0  0  0  0  0  0  0  0  0  0
  194.1520  174.7010  141.9520 C   0  0  1  0  0  3  0  0  0  0  0  0
  195.6660  176.2160  142.8730 C   0  0  2  0  0  3  0  0  0  0  0  0
  189.6710  174.6780  143.1600 C   0  0  1  0  0  3  0  0  0  0  0  0
  189.8620  175.1220  144.6330 C   0  0  2  0  0  3  0  0  0  0  0  0
  192.3020  175.0190  144.0070 C   0  0  2  0  0  3  0  0  0  0  0  0
  196.1500  175.8950  141.5810 O   0  0  0  0  0  0  0  0  0  0  0  0
  195.1120  175.2010  140.9060 C   0  0  0  0  0  2  0  0  0  0  0  0
  191.2710  175.6960  144.9130 C   0  0  1  0  0  3  0  0  0  0  0  0
  193.6260  175.5570  144.1540 O   0  0  0  0  0  0  0  0  0  0  0  0
  192.3360  174.2860  140.4240 O   0  0  0  0  0  0  0  0  0  0  0  0
  196.4650  175.4500  143.9190 C   0  0  0  0  0  1  0  0  0  0  0  0
  191.7900  174.9340  142.6180 N   0  0  0  0  0  0  0  0  0  0  0  0
  194.2020  175.8490  142.8940 C   0  0  2  0  0  3  0  0  0  0  0  0
  189.2660  174.7320  147.0070 S   0  0  0  0  0  1  0  0  0  0  0  0
  189.6260  174.0340  145.4780 O   0  0  0  0  0  0  0  0  0  0  0  0
  189.8900  177.7780  144.9320 C   0  0  0  0  0  1  0  0  0  0  0  0
  191.2760  177.2060  144.7050 C   0  0  0  0  0  2  0  0  0  0  0  0
  188.2370  174.9060  142.7070 C   0  0  0  0  0  2  0  0  0  0  0  0
  188.4760  174.3810  140.4000 O   0  0  0  0  0  0  0  0  0  0  0  0
  188.1800  175.2550  141.2590 C   0  0  0  0  0  0  0  0  0  0  0  0
  187.7900  176.5360  140.8700 O   0  0  0  0  0  0  0  0  0  0  0  0
  187.6360  177.5890  141.8110 C   0  0  0  0  0  2  0  0  0  0  0  0
  185.7190  177.6260  143.4010 C   0  0  1  0  0  3  0  0  0  0  0  0
  185.9730  179.0510  142.9550 C   0  0  2  0  0  3  0  0  0  0  0  0
  186.1600  177.9070  141.9780 C   0  0  1  0  0  3  0  0  0  0  0  0
  186.3570  178.6150  144.3560 C   0  0  1  0  0  3  0  0  0  0  0  0
  185.3180  179.1060  145.3440 C   0  0  0  0  0  2  0  0  0  0  0  0
  185.6600  178.6370  146.7150 C   0  0  0  0  0  0  0  0  0  0  0  0
  185.8400  179.4710  147.6400 O   0  0  0  0  0  1  0  0  0  0  0  0
  185.8190  177.2800  146.9650 O   0  0  0  0  0  0  0  0  0  0  0  0
  1 14  1  0  0  0  0
  1  5  1  0  0  0  0
  2  3  1  0  0  0  0
  2 14  1  0  0  0  0
  3  9  1  6  0  0  0
  3 15  1  0  0  0  0
  4 15  1  0  0  0  0
  4 13  1  1  0  0  0
  5 20  1  6  0  0  0
  5  6  1  0  0  0  0
  6 10  1  0  0  0  0
  6 17  1  1  0  0  0
  7 11  1  6  0  0  0
  7 10  1  0  0  0  0
  8  4  1  0  0  0  0
  9  8  1  0  0  0  0
 10 19  1  6  0  0  0
 12  2  2  0  0  0  0
 14  7  1  0  0  0  0
 15 11  1  1  0  0  0
 17 16  1  0  0  0  0
 19 18  1  0  0  0  0
 21 22  2  0  0  0  0
 22 20  1  0  0  0  0
 23 22  1  0  0  0  0
 23 24  1  0  0  0  0
 24 27  1  0  0  0  0
 25 28  1  0  0  0  0
 26 25  1  0  0  0  0
 26 28  1  0  0  0  0
 27 26  1  0  0  0  0
 27 25  1  0  0  0  0
 28 29  1  0  0  0  0
 29 30  1  0  0  0  0
 30 32  2  0  0  0  0
 30 31  1  0  0  0  0
M  END
>  <MODEL>
6

>  <REMARK>
 VINA RESULT:      -6.9      2.496      8.579
  Name = 
  9 active torsions:
  status: ('A' for Active; 'I' for Inactive)
    1  A    between atoms: C_1  and  C_10
    2  A    between atoms: C_8  and  C_23
    3  A    between atoms: C_8  and  O_28
    4  A    between atoms: C_9  and  C_14
    5  A    between atoms: C_9  and  C_21
    6  A    between atoms: C_10  and  C_24
    7  A    between atoms: O_13  and  C_15
    8  A    between atoms: C_21  and  O_28
    9  A    between atoms: C_25  and  C_26
                            x       y       z     vdW  Elec       q    Type
                         _______ _______ _______ _____ _____    ______ ____

>  <TORSDO>
F 9

$$$$
=
 OpenBabel11052421393D

 32 36  0  0  1  0  0  0  0  0999 V2000
  191.3710  176.3890  145.4750 O   0  0  0  0  0  0  0  0  0  0  0  0
  193.7400  175.9530  145.1770 C   0  0  0  0  0  0  0  0  0  0  0  0
  194.6650  174.8440  144.8400 C   0  0  1  0  0  3  0  0  0  0  0  0
  194.8890  172.5470  145.1680 C   0  0  2  0  0  3  0  0  0  0  0  0
  190.5040  176.8690  144.4800 C   0  0  1  0  0  3  0  0  0  0  0  0
  189.7700  175.6900  143.7920 C   0  0  2  0  0  3  0  0  0  0  0  0
  192.0590  174.6370  143.8820 C   0  0  2  0  0  3  0  0  0  0  0  0
  196.0290  173.1530  145.7530 O   0  0  0  0  0  0  0  0  0  0  0  0
  195.7770  174.5490  145.8080 C   0  0  0  0  0  2  0  0  0  0  0  0
  190.5540  174.3590  143.8760 C   0  0  1  0  0  3  0  0  0  0  0  0
  192.8550  173.4510  144.0380 O   0  0  0  0  0  0  0  0  0  0  0  0
  194.1230  177.0060  145.7560 O   0  0  0  0  0  0  0  0  0  0  0  0
  195.2690  171.9500  143.8200 C   0  0  0  0  0  1  0  0  0  0  0  0
  192.3730  175.7510  144.8100 N   0  0  0  0  0  0  0  0  0  0  0  0
  193.8400  173.6240  145.0390 C   0  0  2  0  0  3  0  0  0  0  0  0
  188.1670  175.0680  142.0070 S   0  0  0  0  0  1  0  0  0  0  0  0
  189.5350  176.0090  142.4530 O   0  0  0  0  0  0  0  0  0  0  0  0
  189.6830  172.1850  144.7460 C   0  0  0  0  0  1  0  0  0  0  0  0
  190.1420  173.5810  145.1200 C   0  0  0  0  0  2  0  0  0  0  0  0
  189.5100  177.8370  145.1020 C   0  0  0  0  0  2  0  0  0  0  0  0
  189.9000  177.6920  147.4440 O   0  0  0  0  0  0  0  0  0  0  0  0
  189.1360  177.4110  146.4810 C   0  0  0  0  0  0  0  0  0  0  0  0
  187.9440  176.7190  146.6930 O   0  0  0  0  0  0  0  0  0  0  0  0
  186.7450  177.3870  147.0590 C   0  0  0  0  0  2  0  0  0  0  0  0
  184.9540  177.8620  145.3950 C   0  0  1  0  0  3  0  0  0  0  0  0
  185.8750  176.8210  144.7930 C   0  0  2  0  0  3  0  0  0  0  0  0
  185.5800  176.8020  146.2800 C   0  0  1  0  0  3  0  0  0  0  0  0
  185.9060  178.2470  144.2800 C   0  0  1  0  0  3  0  0  0  0  0  0
  185.1450  178.3340  142.9720 C   0  0  0  0  0  2  0  0  0  0  0  0
  186.0970  178.2930  141.8290 C   0  0  0  0  0  0  0  0  0  0  0  0
  185.7080  177.9020  140.6980 O   0  0  0  0  0  0  0  0  0  0  0  0
  187.4260  178.6490  142.0190 O   0  0  0  0  0  1  0  0  0  0  0  0
  2 12  2  0  0  0  0
  3 15  1  0  0  0  0
  3  2  1  0  0  0  0
  3  9  1  1  0  0  0
  4 13  1  6  0  0  0
  4  8  1  0  0  0  0
  5 20  1  1  0  0  0
  5  1  1  0  0  0  0
  6 17  1  6  0  0  0
  6 10  1  0  0  0  0
  6  5  1  0  0  0  0
  7 11  1  1  0  0  0
  7 14  1  0  0  0  0
  8  9  1  0  0  0  0
 10  7  1  0  0  0  0
 10 19  1  1  0  0  0
 14  2  1  0  0  0  0
 14  1  1  0  0  0  0
 15 11  1  6  0  0  0
 15  4  1  0  0  0  0
 16 17  1  0  0  0  0
 18 19  1  0  0  0  0
 20 22  1  0  0  0  0
 22 23  1  0  0  0  0
 22 21  2  0  0  0  0
 23 24  1  0  0  0  0
 25 27  1  0  0  0  0
 26 25  1  0  0  0  0
 26 27  1  0  0  0  0
 27 24  1  0  0  0  0
 28 26  1  0  0  0  0
 28 25  1  0  0  0  0
 29 28  1  0  0  0  0
 30 32  1  0  0  0  0
 30 29  1  0  0  0  0
 31 30  2  0  0  0  0
M  END
>  <MODEL>
7

>  <REMARK>
 VINA RESULT:      -6.9      2.548      7.964
  Name = 
  9 active torsions:
  status: ('A' for Active; 'I' for Inactive)
    1  A    between atoms: C_1  and  C_10
    2  A    between atoms: C_8  and  C_23
    3  A    between atoms: C_8  and  O_28
    4  A    between atoms: C_9  and  C_14
    5  A    between atoms: C_9  and  C_21
    6  A    between atoms: C_10  and  C_24
    7  A    between atoms: O_13  and  C_15
    8  A    between atoms: C_21  and  O_28
    9  A    between atoms: C_25  and  C_26
                            x       y       z     vdW  Elec       q    Type
                         _______ _______ _______ _____ _____    ______ ____

>  <TORSDO>
F 9

$$$$
=
 OpenBabel11052421393D

 32 36  0  0  1  0  0  0  0  0999 V2000
  189.3700  175.6310  144.9550 O   0  0  0  0  0  0  0  0  0  0  0  0
  187.5660  176.2060  146.4740 C   0  0  0  0  0  0  0  0  0  0  0  0
  186.3780  177.0900  146.5550 C   0  0  1  0  0  3  0  0  0  0  0  0
  185.6780  179.2040  145.8670 C   0  0  2  0  0  3  0  0  0  0  0  0
  189.3530  174.5610  144.0450 C   0  0  1  0  0  3  0  0  0  0  0  0
  188.8980  175.0520  142.6470 C   0  0  2  0  0  3  0  0  0  0  0  0
  187.2050  176.3340  144.0070 C   0  0  2  0  0  3  0  0  0  0  0  0
  185.6130  179.1960  147.2820 O   0  0  0  0  0  0  0  0  0  0  0  0
  186.2910  178.0310  147.7250 C   0  0  0  0  0  2  0  0  0  0  0  0
  188.0190  176.3230  142.7100 C   0  0  1  0  0  3  0  0  0  0  0  0
  186.4210  177.5260  144.1740 O   0  0  0  0  0  0  0  0  0  0  0  0
  188.1120  175.7060  147.4940 O   0  0  0  0  0  0  0  0  0  0  0  0
  184.2760  179.0330  145.2950 C   0  0  0  0  0  1  0  0  0  0  0  0
  188.0650  175.9600  145.1560 N   0  0  0  0  0  0  0  0  0  0  0  0
  186.5980  178.0770  145.4660 C   0  0  2  0  0  3  0  0  0  0  0  0
  188.7710  174.0480  140.3850 S   0  0  0  0  0  1  0  0  0  0  0  0
  188.1950  174.0310  142.0040 O   0  0  0  0  0  0  0  0  0  0  0  0
  188.4090  178.4570  141.4710 C   0  0  0  0  0  1  0  0  0  0  0  0
  188.8870  177.5710  142.6050 C   0  0  0  0  0  2  0  0  0  0  0  0
  190.7380  173.9370  143.9760 C   0  0  0  0  0  2  0  0  0  0  0  0
  189.5850  171.9510  144.5970 O   0  0  0  0  0  0  0  0  0  0  0  0
  190.6950  172.4920  144.3430 C   0  0  0  0  0  0  0  0  0  0  0  0
  191.8780  171.7550  144.3910 O   0  0  0  0  0  0  0  0  0  0  0  0
  193.0300  172.1400  143.6570 C   0  0  0  0  0  2  0  0  0  0  0  0
  194.9530  173.4580  144.5360 C   0  0  1  0  0  3  0  0  0  0  0  0
  194.0670  173.0990  145.7110 C   0  0  2  0  0  3  0  0  0  0  0  0
  194.2440  172.1180  144.5690 C   0  0  1  0  0  3  0  0  0  0  0  0
  194.0960  174.5230  145.1910 C   0  0  1  0  0  3  0  0  0  0  0  0
  194.9580  175.3780  146.0980 C   0  0  0  0  0  2  0  0  0  0  0  0
  194.2720  176.6690  146.3790 C   0  0  0  0  0  0  0  0  0  0  0  0
  194.8070  177.7550  146.0360 O   0  0  0  0  0  0  0  0  0  0  0  0
  193.0580  176.6780  147.0550 O   0  0  0  0  0  1  0  0  0  0  0  0
  1 14  1  0  0  0  0
  2  3  1  0  0  0  0
  2 12  2  0  0  0  0
  3  9  1  1  0  0  0
  4 13  1  6  0  0  0
  4  8  1  0  0  0  0
  5 20  1  6  0  0  0
  5  1  1  0  0  0  0
  6 17  1  1  0  0  0
  6 10  1  0  0  0  0
  6  5  1  0  0  0  0
  7 11  1  1  0  0  0
  7 14  1  0  0  0  0
  8  9  1  0  0  0  0
 10 19  1  1  0  0  0
 10  7  1  0  0  0  0
 14  2  1  0  0  0  0
 15 11  1  6  0  0  0
 15  4  1  0  0  0  0
 15  3  1  0  0  0  0
 16 17  1  0  0  0  0
 18 19  1  0  0  0  0
 20 22  1  0  0  0  0
 22 23  1  0  0  0  0
 22 21  2  0  0  0  0
 24 23  1  0  0  0  0
 24 27  1  0  0  0  0
 25 27  1  0  0  0  0
 25 28  1  0  0  0  0
 25 26  1  0  0  0  0
 27 26  1  0  0  0  0
 28 26  1  0  0  0  0
 28 29  1  0  0  0  0
 29 30  1  0  0  0  0
 30 32  1  0  0  0  0
 31 30  2  0  0  0  0
M  END
>  <MODEL>
8

>  <REMARK>
 VINA RESULT:      -6.9      2.396      3.413
  Name = 
  9 active torsions:
  status: ('A' for Active; 'I' for Inactive)
    1  A    between atoms: C_1  and  C_10
    2  A    between atoms: C_8  and  C_23
    3  A    between atoms: C_8  and  O_28
    4  A    between atoms: C_9  and  C_14
    5  A    between atoms: C_9  and  C_21
    6  A    between atoms: C_10  and  C_24
    7  A    between atoms: O_13  and  C_15
    8  A    between atoms: C_21  and  O_28
    9  A    between atoms: C_25  and  C_26
                            x       y       z     vdW  Elec       q    Type
                         _______ _______ _______ _____ _____    ______ ____

>  <TORSDO>
F 9

$$$$
=
 OpenBabel11052421393D

 32 36  0  0  1  0  0  0  0  0999 V2000
  192.1200  176.9490  144.2860 O   0  0  0  0  0  0  0  0  0  0  0  0
  193.9640  175.7450  143.2660 C   0  0  0  0  0  0  0  0  0  0  0  0
  195.0920  174.8560  143.6340 C   0  0  1  0  0  3  0  0  0  0  0  0
  196.6200  174.5370  145.3660 C   0  0  2  0  0  3  0  0  0  0  0  0
  190.8090  176.4620  144.4160 C   0  0  1  0  0  3  0  0  0  0  0  0
  190.6090  175.8200  145.8120 C   0  0  2  0  0  3  0  0  0  0  0  0
  192.8880  174.8530  145.3330 C   0  0  2  0  0  3  0  0  0  0  0  0
  197.3790  174.8090  144.2010 O   0  0  0  0  0  0  0  0  0  0  0  0
  196.4740  175.2750  143.2120 C   0  0  0  0  0  2  0  0  0  0  0  0
  191.9290  175.3100  146.4370 C   0  0  1  0  0  3  0  0  0  0  0  0
  194.1690  174.4370  145.8320 O   0  0  0  0  0  0  0  0  0  0  0  0
  193.9290  176.3820  142.1780 O   0  0  0  0  0  0  0  0  0  0  0  0
  196.6490  173.0410  145.6500 C   0  0  0  0  0  1  0  0  0  0  0  0
  192.9150  175.8450  144.2310 N   0  0  0  0  0  0  0  0  0  0  0  0
  195.2220  175.0400  145.1030 C   0  0  2  0  0  3  0  0  0  0  0  0
  188.9750  174.6520  147.2630 S   0  0  0  0  0  1  0  0  0  0  0  0
  189.7030  174.7620  145.7100 O   0  0  0  0  0  0  0  0  0  0  0  0
  191.5410  177.0060  148.2290 C   0  0  0  0  0  1  0  0  0  0  0  0
  192.5660  176.4000  147.2900 C   0  0  0  0  0  2  0  0  0  0  0  0
  189.8250  177.6020  144.1980 C   0  0  0  0  0  2  0  0  0  0  0  0
  189.7080  178.5290  142.0110 O   0  0  0  0  0  0  0  0  0  0  0  0
  189.3240  177.6180  142.7940 C   0  0  0  0  0  0  0  0  0  0  0  0
  188.4480  176.6240  142.3600 O   0  0  0  0  0  0  0  0  0  0  0  0
  187.4810  176.0480  143.2250 C   0  0  0  0  0  2  0  0  0  0  0  0
  185.5300  177.0790  144.3820 C   0  0  1  0  0  3  0  0  0  0  0  0
  186.2150  178.1660  143.5790 C   0  0  2  0  0  3  0  0  0  0  0  0
  186.1490  176.7520  143.0370 C   0  0  1  0  0  3  0  0  0  0  0  0
  186.3430  178.1450  145.0900 C   0  0  1  0  0  3  0  0  0  0  0  0
  185.4100  179.1750  145.6940 C   0  0  0  0  0  2  0  0  0  0  0  0
  185.3630  179.0110  147.1720 C   0  0  0  0  0  0  0  0  0  0  0  0
  184.4440  178.3360  147.7040 O   0  0  0  0  0  0  0  0  0  0  0  0
  186.3130  179.6360  147.9710 O   0  0  0  0  0  1  0  0  0  0  0  0
  1  5  1  0  0  0  0
  2  3  1  0  0  0  0
  2 14  1  0  0  0  0
  3  9  1  6  0  0  0
  3 15  1  0  0  0  0
  4 13  1  6  0  0  0
  5 20  1  1  0  0  0
  5  6  1  0  0  0  0
  6 17  1  6  0  0  0
  6 10  1  0  0  0  0
  7 11  1  1  0  0  0
  7 10  1  0  0  0  0
  8  4  1  0  0  0  0
  9  8  1  0  0  0  0
 10 19  1  6  0  0  0
 12  2  2  0  0  0  0
 14  1  1  0  0  0  0
 14  7  1  0  0  0  0
 15  4  1  0  0  0  0
 15 11  1  1  0  0  0
 17 16  1  0  0  0  0
 19 18  1  0  0  0  0
 21 22  2  0  0  0  0
 22 20  1  0  0  0  0
 23 22  1  0  0  0  0
 23 24  1  0  0  0  0
 25 28  1  0  0  0  0
 26 25  1  0  0  0  0
 26 28  1  0  0  0  0
 27 24  1  0  0  0  0
 27 26  1  0  0  0  0
 27 25  1  0  0  0  0
 28 29  1  0  0  0  0
 29 30  1  0  0  0  0
 30 31  2  0  0  0  0
 30 32  1  0  0  0  0
M  END
>  <MODEL>
9

>  <REMARK>
 VINA RESULT:      -6.8      2.230      8.796
  Name = 
  9 active torsions:
  status: ('A' for Active; 'I' for Inactive)
    1  A    between atoms: C_1  and  C_10
    2  A    between atoms: C_8  and  C_23
    3  A    between atoms: C_8  and  O_28
    4  A    between atoms: C_9  and  C_14
    5  A    between atoms: C_9  and  C_21
    6  A    between atoms: C_10  and  C_24
    7  A    between atoms: O_13  and  C_15
    8  A    between atoms: C_21  and  O_28
    9  A    between atoms: C_25  and  C_26
                            x       y       z     vdW  Elec       q    Type
                         _______ _______ _______ _____ _____    ______ ____

>  <TORSDO>
F 9

$$$$
