=
 OpenBabel11052417243D

 25 28  0  0  1  0  0  0  0  0999 V2000
  188.8900  176.1680  143.6880 C   0  0  0  0  0  0  0  0  0  0  0  0
  187.8200  177.0140  143.3290 C   0  0  0  0  0  0  0  0  0  0  0  0
  188.9250  175.1990  141.4480 C   0  0  0  0  0  3  0  0  0  0  0  0
  189.5550  176.0680  144.9270 C   0  0  0  0  0  0  0  0  0  0  0  0
  191.0970  175.5860  147.2080 C   0  0  0  0  0  3  0  0  0  0  0  0
  187.8640  176.0330  141.0820 C   0  0  0  0  0  3  0  0  0  0  0  0
  190.5730  175.1160  144.9170 C   0  0  0  0  0  0  0  0  0  0  0  0
  191.3560  174.8570  146.0390 C   0  0  0  0  0  3  0  0  0  0  0  0
  186.2310  177.7770  141.6290 C   0  0  0  0  0  0  0  0  0  0  0  0
  185.6460  177.7400  140.2560 C   0  0  0  0  0  1  0  0  0  0  0  0
  187.2560  177.9200  144.2380 C   0  0  0  0  0  3  0  0  0  0  0  0
  190.0730  176.5490  147.2360 C   0  0  0  0  0  3  0  0  0  0  0  0
  189.4170  175.2850  142.7450 C   0  0  0  0  0  0  0  0  0  0  0  0
  190.6810  174.3840  143.4050 S   0  0  0  0  0  0  0  0  0  0  0  0
  185.6870  178.6690  142.5570 C   0  0  0  0  0  3  0  0  0  0  0  0
  189.2960  176.7950  146.0930 C   0  0  0  0  0  3  0  0  0  0  0  0
  186.1980  178.7470  143.8540 C   0  0  0  0  0  0  0  0  0  0  0  0
  187.3020  176.9410  142.0050 C   0  0  0  0  0  0  0  0  0  0  0  0
  185.5960  179.6890  144.8370 C   0  0  0  0  0  2  0  0  0  0  0  0
  184.4480  179.0150  145.5700 C   0  0  0  0  0  2  0  0  0  0  0  0
  184.8570  178.6660  146.9910 C   0  0  2  0  0  3  0  0  0  0  0  0
  185.8520  179.5440  147.4200 O   0  0  0  0  0  1  0  0  0  0  0  0
  185.3530  177.2590  147.0750 C   0  0  0  0  0  0  0  0  0  0  0  0
  186.2770  176.9130  148.0520 O   0  0  0  0  0  1  0  0  0  0  0  0
  184.9300  176.3830  146.2760 O   0  0  0  0  0  0  0  0  0  0  0  0
  1  4  1  0  0  0  0
  2  1  1  0  0  0  0
  2 11  1  0  0  0  0
  3 13  1  0  0  0  0
  4 16  1  0  0  0  0
  5 12  1  0  0  0  0
  6  3  2  0  0  0  0
  6 18  1  0  0  0  0
  7  4  2  0  0  0  0
  7  8  1  0  0  0  0
  8  5  2  0  0  0  0
  9 18  1  0  0  0  0
  9 15  2  0  0  0  0
 10  9  1  0  0  0  0
 13 14  1  0  0  0  0
 13  1  2  0  0  0  0
 14  7  1  0  0  0  0
 15 17  1  0  0  0  0
 16 12  2  0  0  0  0
 17 11  2  0  0  0  0
 17 19  1  0  0  0  0
 18  2  2  0  0  0  0
 19 20  1  0  0  0  0
 20 21  1  0  0  0  0
 21 23  1  0  0  0  0
 21 22  1  6  0  0  0
 23 24  1  0  0  0  0
 25 23  2  0  0  0  0
M  END
>  <MODEL>
1

>  <REMARK>
 VINA RESULT:      -7.5      0.000      0.000
  Name = 
  4 active torsions:
  status: ('A' for Active; 'I' for Inactive)
    1  A    between atoms: C_2  and  C_21
    2  A    between atoms: C_6  and  C_15
    3  A    between atoms: C_6  and  C_23
    4  A    between atoms: C_15  and  C_21
                            x       y       z     vdW  Elec       q    Type
                         _______ _______ _______ _____ _____    ______ ____

>  <TORSDO>
F 4

$$$$
=
 OpenBabel11052417243D

 25 28  0  0  1  0  0  0  0  0999 V2000
  186.8850  176.8070  144.1800 C   0  0  0  0  0  0  0  0  0  0  0  0
  188.0860  176.0700  144.1200 C   0  0  0  0  0  0  0  0  0  0  0  0
  186.6240  176.6530  141.7580 C   0  0  0  0  0  3  0  0  0  0  0  0
  186.2390  177.3460  145.3120 C   0  0  0  0  0  0  0  0  0  0  0  0
  184.6820  178.5480  147.2980 C   0  0  0  0  0  3  0  0  0  0  0  0
  187.8140  175.9230  141.6870 C   0  0  0  0  0  3  0  0  0  0  0  0
  185.0620  178.0190  144.9910 C   0  0  0  0  0  0  0  0  0  0  0  0
  184.2680  178.6260  145.9600 C   0  0  0  0  0  3  0  0  0  0  0  0
  189.7530  174.8880  142.7710 C   0  0  0  0  0  0  0  0  0  0  0  0
  190.2930  174.3990  141.4670 C   0  0  0  0  0  1  0  0  0  0  0  0
  188.8270  175.7680  145.2700 C   0  0  0  0  0  3  0  0  0  0  0  0
  185.8670  177.8730  147.6390 C   0  0  0  0  0  3  0  0  0  0  0  0
  186.1830  177.0810  143.0050 C   0  0  0  0  0  0  0  0  0  0  0  0
  184.7880  177.9700  143.3310 S   0  0  0  0  0  0  0  0  0  0  0  0
  190.4730  174.6030  143.9340 C   0  0  0  0  0  3  0  0  0  0  0  0
  186.6530  177.2670  146.6450 C   0  0  0  0  0  3  0  0  0  0  0  0
  190.0120  175.0340  145.1800 C   0  0  0  0  0  0  0  0  0  0  0  0
  188.5540  175.6240  142.8510 C   0  0  0  0  0  0  0  0  0  0  0  0
  190.7980  174.7380  146.4080 C   0  0  0  0  0  2  0  0  0  0  0  0
  192.2840  174.7320  146.0880 C   0  0  0  0  0  2  0  0  0  0  0  0
  192.9660  175.9410  146.7070 C   0  0  2  0  0  3  0  0  0  0  0  0
  192.0490  176.6470  147.4850 O   0  0  0  0  0  1  0  0  0  0  0  0
  193.5280  176.8370  145.6510 C   0  0  0  0  0  0  0  0  0  0  0  0
  194.7400  177.4790  145.8680 O   0  0  0  0  0  1  0  0  0  0  0  0
  192.9190  177.0020  144.5610 O   0  0  0  0  0  0  0  0  0  0  0  0
  1  4  1  0  0  0  0
  2  1  1  0  0  0  0
  2 11  1  0  0  0  0
  3 13  1  0  0  0  0
  4 16  1  0  0  0  0
  5 12  1  0  0  0  0
  6  3  2  0  0  0  0
  6 18  1  0  0  0  0
  7  4  2  0  0  0  0
  7  8  1  0  0  0  0
  8  5  2  0  0  0  0
  9 18  1  0  0  0  0
  9 15  2  0  0  0  0
 10  9  1  0  0  0  0
 13 14  1  0  0  0  0
 13  1  2  0  0  0  0
 14  7  1  0  0  0  0
 15 17  1  0  0  0  0
 16 12  2  0  0  0  0
 17 11  2  0  0  0  0
 17 19  1  0  0  0  0
 18  2  2  0  0  0  0
 20 19  1  0  0  0  0
 20 21  1  0  0  0  0
 21 22  1  6  0  0  0
 23 24  1  0  0  0  0
 23 21  1  0  0  0  0
 25 23  2  0  0  0  0
M  END
>  <MODEL>
2

>  <REMARK>
 VINA RESULT:      -7.5      3.146      5.918
  Name = 
  4 active torsions:
  status: ('A' for Active; 'I' for Inactive)
    1  A    between atoms: C_2  and  C_21
    2  A    between atoms: C_6  and  C_15
    3  A    between atoms: C_6  and  C_23
    4  A    between atoms: C_15  and  C_21
                            x       y       z     vdW  Elec       q    Type
                         _______ _______ _______ _____ _____    ______ ____

>  <TORSDO>
F 4

$$$$
=
 OpenBabel11052417243D

 25 28  0  0  1  0  0  0  0  0999 V2000
  186.8820  177.1550  143.1240 C   0  0  0  0  0  0  0  0  0  0  0  0
  187.0050  177.1650  144.5290 C   0  0  0  0  0  0  0  0  0  0  0  0
  185.4800  179.1520  143.1940 C   0  0  0  0  0  3  0  0  0  0  0  0
  187.4370  176.2470  142.1980 C   0  0  0  0  0  0  0  0  0  0  0  0
  188.3550  174.6680  140.0820 C   0  0  0  0  0  3  0  0  0  0  0  0
  185.5950  179.1710  144.5880 C   0  0  0  0  0  3  0  0  0  0  0  0
  187.1020  176.5500  140.8800 C   0  0  0  0  0  0  0  0  0  0  0  0
  187.5460  175.7800  139.8080 C   0  0  0  0  0  3  0  0  0  0  0  0
  186.4580  178.2140  146.6730 C   0  0  0  0  0  0  0  0  0  0  0  0
  185.7880  179.2630  147.4980 C   0  0  0  0  0  1  0  0  0  0  0  0
  187.7520  176.1960  145.2130 C   0  0  0  0  0  3  0  0  0  0  0  0
  188.7020  174.3490  141.4070 C   0  0  0  0  0  3  0  0  0  0  0  0
  186.1270  178.1440  142.4900 C   0  0  0  0  0  0  0  0  0  0  0  0
  186.1290  177.9220  140.8180 S   0  0  0  0  0  0  0  0  0  0  0  0
  187.2080  177.2340  147.3290 C   0  0  0  0  0  3  0  0  0  0  0  0
  188.2430  175.1380  142.4740 C   0  0  0  0  0  3  0  0  0  0  0  0
  187.8570  176.2320  146.6050 C   0  0  0  0  0  0  0  0  0  0  0  0
  186.3490  178.1900  145.2680 C   0  0  0  0  0  0  0  0  0  0  0  0
  188.6370  175.1850  147.3190 C   0  0  0  0  0  2  0  0  0  0  0  0
  189.5800  174.4870  146.3530 C   0  0  0  0  0  2  0  0  0  0  0  0
  191.0190  174.8850  146.6340 C   0  0  2  0  0  3  0  0  0  0  0  0
  191.0870  175.5590  147.8540 O   0  0  0  0  0  1  0  0  0  0  0  0
  191.5570  175.7560  145.5450 C   0  0  0  0  0  0  0  0  0  0  0  0
  191.1290  177.0730  145.4430 O   0  0  0  0  0  1  0  0  0  0  0  0
  192.4050  175.3090  144.7290 O   0  0  0  0  0  0  0  0  0  0  0  0
  1  2  2  0  0  0  0
  2 11  1  0  0  0  0
  2 18  1  0  0  0  0
  3  6  1  0  0  0  0
  4 16  1  0  0  0  0
  4  1  1  0  0  0  0
  5 12  1  0  0  0  0
  6 18  2  0  0  0  0
  7  4  2  0  0  0  0
  8  5  2  0  0  0  0
  8  7  1  0  0  0  0
  9 15  2  0  0  0  0
  9 10  1  0  0  0  0
 11 17  2  0  0  0  0
 12 16  2  0  0  0  0
 13  1  1  0  0  0  0
 13  3  2  0  0  0  0
 14  7  1  0  0  0  0
 14 13  1  0  0  0  0
 17 19  1  0  0  0  0
 17 15  1  0  0  0  0
 18  9  1  0  0  0  0
 20 21  1  0  0  0  0
 20 19  1  0  0  0  0
 21 22  1  1  0  0  0
 23 21  1  0  0  0  0
 24 23  1  0  0  0  0
 25 23  2  0  0  0  0
M  END
>  <MODEL>
3

>  <REMARK>
 VINA RESULT:      -7.4      2.696      5.625
  Name = 
  4 active torsions:
  status: ('A' for Active; 'I' for Inactive)
    1  A    between atoms: C_2  and  C_21
    2  A    between atoms: C_6  and  C_15
    3  A    between atoms: C_6  and  C_23
    4  A    between atoms: C_15  and  C_21
                            x       y       z     vdW  Elec       q    Type
                         _______ _______ _______ _____ _____    ______ ____

>  <TORSDO>
F 4

$$$$
=
 OpenBabel11052417243D

 25 28  0  0  1  0  0  0  0  0999 V2000
  186.6890  176.7800  143.4990 C   0  0  0  0  0  0  0  0  0  0  0  0
  187.7840  175.9050  143.3450 C   0  0  0  0  0  0  0  0  0  0  0  0
  186.5060  177.0390  141.0790 C   0  0  0  0  0  3  0  0  0  0  0  0
  186.0750  177.2200  144.6900 C   0  0  0  0  0  0  0  0  0  0  0  0
  184.6120  178.3020  146.8120 C   0  0  0  0  0  3  0  0  0  0  0  0
  187.5910  176.1730  140.9150 C   0  0  0  0  0  3  0  0  0  0  0  0
  185.0100  178.0890  144.4580 C   0  0  0  0  0  0  0  0  0  0  0  0
  184.2650  178.6420  145.4960 C   0  0  0  0  0  3  0  0  0  0  0  0
  189.3340  174.7290  141.8580 C   0  0  0  0  0  0  0  0  0  0  0  0
  189.8550  174.3780  140.5030 C   0  0  0  0  0  1  0  0  0  0  0  0
  188.4320  175.3300  144.4470 C   0  0  0  0  0  3  0  0  0  0  0  0
  185.6840  177.4280  147.0640 C   0  0  0  0  0  3  0  0  0  0  0  0
  186.0760  177.3250  142.3690 C   0  0  0  0  0  0  0  0  0  0  0  0
  184.7980  178.3350  142.8060 S   0  0  0  0  0  0  0  0  0  0  0  0
  189.9620  174.1720  142.9740 C   0  0  0  0  0  3  0  0  0  0  0  0
  186.4220  176.8810  146.0010 C   0  0  0  0  0  3  0  0  0  0  0  0
  189.5130  174.4650  144.2630 C   0  0  0  0  0  0  0  0  0  0  0  0
  188.2390  175.6000  142.0310 C   0  0  0  0  0  0  0  0  0  0  0  0
  190.2050  173.8790  145.4440 C   0  0  0  0  0  2  0  0  0  0  0  0
  191.1330  174.9080  146.0680 C   0  0  0  0  0  2  0  0  0  0  0  0
  190.6830  175.2430  147.4800 C   0  0  2  0  0  3  0  0  0  0  0  0
  189.4030  174.7340  147.6950 O   0  0  0  0  0  1  0  0  0  0  0  0
  190.6840  176.7200  147.7050 C   0  0  0  0  0  0  0  0  0  0  0  0
  189.8040  177.5250  146.9950 O   0  0  0  0  0  0  0  0  0  0  0  0
  191.4670  177.2390  148.5450 O   0  0  0  0  0  1  0  0  0  0  0  0
  1  4  1  0  0  0  0
  2  1  1  0  0  0  0
  2 11  1  0  0  0  0
  3 13  1  0  0  0  0
  4 16  1  0  0  0  0
  5 12  1  0  0  0  0
  6  3  2  0  0  0  0
  6 18  1  0  0  0  0
  7  4  2  0  0  0  0
  7  8  1  0  0  0  0
  8  5  2  0  0  0  0
  9 18  1  0  0  0  0
  9 15  2  0  0  0  0
 10  9  1  0  0  0  0
 13 14  1  0  0  0  0
 13  1  2  0  0  0  0
 14  7  1  0  0  0  0
 15 17  1  0  0  0  0
 16 12  2  0  0  0  0
 17 11  2  0  0  0  0
 17 19  1  0  0  0  0
 18  2  2  0  0  0  0
 19 20  1  0  0  0  0
 20 21  1  0  0  0  0
 21 22  1  6  0  0  0
 21 23  1  0  0  0  0
 23 25  1  0  0  0  0
 24 23  2  0  0  0  0
M  END
>  <MODEL>
4

>  <REMARK>
 VINA RESULT:      -7.3      2.340      5.276
  Name = 
  4 active torsions:
  status: ('A' for Active; 'I' for Inactive)
    1  A    between atoms: C_2  and  C_21
    2  A    between atoms: C_6  and  C_15
    3  A    between atoms: C_6  and  C_23
    4  A    between atoms: C_15  and  C_21
                            x       y       z     vdW  Elec       q    Type
                         _______ _______ _______ _____ _____    ______ ____

>  <TORSDO>
F 4

$$$$
=
 OpenBabel11052417243D

 25 28  0  0  1  0  0  0  0  0999 V2000
  186.6830  176.9900  144.1670 C   0  0  0  0  0  0  0  0  0  0  0  0
  187.8290  176.2360  144.4960 C   0  0  0  0  0  0  0  0  0  0  0  0
  186.1100  177.2210  146.5280 C   0  0  0  0  0  3  0  0  0  0  0  0
  186.2140  177.3650  142.8920 C   0  0  0  0  0  0  0  0  0  0  0  0
  184.9820  178.2900  140.5590 C   0  0  0  0  0  3  0  0  0  0  0  0
  187.2430  176.4740  146.8660 C   0  0  0  0  0  3  0  0  0  0  0  0
  185.0400  178.1150  142.9480 C   0  0  0  0  0  0  0  0  0  0  0  0
  184.4070  178.5870  141.8020 C   0  0  0  0  0  3  0  0  0  0  0  0
  189.2480  175.2220  146.2160 C   0  0  0  0  0  0  0  0  0  0  0  0
  189.5870  174.9160  147.6380 C   0  0  0  0  0  1  0  0  0  0  0  0
  188.6950  175.7390  143.5130 C   0  0  0  0  0  3  0  0  0  0  0  0
  186.1660  177.5350  140.4830 C   0  0  0  0  0  3  0  0  0  0  0  0
  185.8530  177.4640  145.1840 C   0  0  0  0  0  0  0  0  0  0  0  0
  184.5560  178.3330  144.5460 S   0  0  0  0  0  0  0  0  0  0  0  0
  190.0930  174.7380  145.2140 C   0  0  0  0  0  3  0  0  0  0  0  0
  186.7890  177.0680  141.6520 C   0  0  0  0  0  3  0  0  0  0  0  0
  189.8240  174.9970  143.8690 C   0  0  0  0  0  0  0  0  0  0  0  0
  188.1090  175.9760  145.8680 C   0  0  0  0  0  0  0  0  0  0  0  0
  190.7230  174.4590  142.8120 C   0  0  0  0  0  2  0  0  0  0  0  0
  190.0880  174.6420  141.4440 C   0  0  0  0  0  2  0  0  0  0  0  0
  189.9130  173.2990  140.7550 C   0  0  2  0  0  3  0  0  0  0  0  0
  190.4930  173.3450  139.4880 O   0  0  0  0  0  1  0  0  0  0  0  0
  188.4660  172.9440  140.6370 C   0  0  0  0  0  0  0  0  0  0  0  0
  187.9260  172.6650  139.3880 O   0  0  0  0  0  0  0  0  0  0  0  0
  187.7370  172.8800  141.6610 O   0  0  0  0  0  1  0  0  0  0  0  0
  1  2  2  0  0  0  0
  1 13  1  0  0  0  0
  2 18  1  0  0  0  0
  3  6  1  0  0  0  0
  4  7  1  0  0  0  0
  4  1  1  0  0  0  0
  5  8  1  0  0  0  0
  7 14  1  0  0  0  0
  8  7  2  0  0  0  0
  9 10  1  0  0  0  0
 11 17  2  0  0  0  0
 11  2  1  0  0  0  0
 12  5  2  0  0  0  0
 12 16  1  0  0  0  0
 13  3  2  0  0  0  0
 14 13  1  0  0  0  0
 15  9  2  0  0  0  0
 16  4  2  0  0  0  0
 17 15  1  0  0  0  0
 18  9  1  0  0  0  0
 18  6  2  0  0  0  0
 19 17  1  0  0  0  0
 20 19  1  0  0  0  0
 21 22  1  6  0  0  0
 21 20  1  0  0  0  0
 23 21  1  0  0  0  0
 23 25  1  0  0  0  0
 24 23  2  0  0  0  0
M  END
>  <MODEL>
5

>  <REMARK>
 VINA RESULT:      -7.1      3.434      7.018
  Name = 
  4 active torsions:
  status: ('A' for Active; 'I' for Inactive)
    1  A    between atoms: C_2  and  C_21
    2  A    between atoms: C_6  and  C_15
    3  A    between atoms: C_6  and  C_23
    4  A    between atoms: C_15  and  C_21
                            x       y       z     vdW  Elec       q    Type
                         _______ _______ _______ _____ _____    ______ ____

>  <TORSDO>
F 4

$$$$
=
 OpenBabel11052417243D

 25 28  0  0  1  0  0  0  0  0999 V2000
  187.2730  177.6480  144.1750 C   0  0  0  0  0  0  0  0  0  0  0  0
  188.6090  177.3600  144.5260 C   0  0  0  0  0  0  0  0  0  0  0  0
  186.6460  177.7910  146.5300 C   0  0  0  0  0  3  0  0  0  0  0  0
  186.7070  177.7670  142.8900 C   0  0  0  0  0  0  0  0  0  0  0  0
  185.2390  178.0780  140.5310 C   0  0  0  0  0  3  0  0  0  0  0  0
  187.9670  177.5050  146.8880 C   0  0  0  0  0  3  0  0  0  0  0  0
  185.3460  178.0620  142.9260 C   0  0  0  0  0  0  0  0  0  0  0  0
  184.5910  178.2220  141.7670 C   0  0  0  0  0  3  0  0  0  0  0  0
  190.2860  176.9980  146.2740 C   0  0  0  0  0  0  0  0  0  0  0  0
  190.7050  176.9060  147.7040 C   0  0  0  0  0  1  0  0  0  0  0  0
  189.5980  177.1440  143.5570 C   0  0  0  0  0  3  0  0  0  0  0  0
  186.6120  177.7800  140.4770 C   0  0  0  0  0  3  0  0  0  0  0  0
  186.3260  177.8570  145.1790 C   0  0  0  0  0  0  0  0  0  0  0  0
  184.8100  178.1830  144.5170 S   0  0  0  0  0  0  0  0  0  0  0  0
  191.2500  176.7860  145.2860 C   0  0  0  0  0  3  0  0  0  0  0  0
  187.3540  177.6230  141.6580 C   0  0  0  0  0  3  0  0  0  0  0  0
  190.9130  176.8630  143.9330 C   0  0  0  0  0  0  0  0  0  0  0  0
  188.9570  177.2880  145.9050 C   0  0  0  0  0  0  0  0  0  0  0  0
  191.9470  176.6150  142.8920 C   0  0  0  0  0  2  0  0  0  0  0  0
  192.9360  175.5680  143.3770 C   0  0  0  0  0  2  0  0  0  0  0  0
  194.3630  176.0360  143.1430 C   0  0  2  0  0  3  0  0  0  0  0  0
  195.0270  175.1210  142.3270 O   0  0  0  0  0  1  0  0  0  0  0  0
  195.0960  176.1850  144.4370 C   0  0  0  0  0  0  0  0  0  0  0  0
  196.0980  175.2820  144.7670 O   0  0  0  0  0  0  0  0  0  0  0  0
  194.8230  177.1310  145.2220 O   0  0  0  0  0  1  0  0  0  0  0  0
  1  2  2  0  0  0  0
  1 13  1  0  0  0  0
  2 18  1  0  0  0  0
  3  6  1  0  0  0  0
  4  7  1  0  0  0  0
  4  1  1  0  0  0  0
  5  8  1  0  0  0  0
  7 14  1  0  0  0  0
  8  7  2  0  0  0  0
  9 10  1  0  0  0  0
 11 17  2  0  0  0  0
 11  2  1  0  0  0  0
 12  5  2  0  0  0  0
 12 16  1  0  0  0  0
 13  3  2  0  0  0  0
 14 13  1  0  0  0  0
 15  9  2  0  0  0  0
 16  4  2  0  0  0  0
 17 15  1  0  0  0  0
 18  9  1  0  0  0  0
 18  6  2  0  0  0  0
 19 20  1  0  0  0  0
 19 17  1  0  0  0  0
 21 22  1  6  0  0  0
 21 20  1  0  0  0  0
 21 23  1  0  0  0  0
 23 24  2  0  0  0  0
 23 25  1  0  0  0  0
M  END
>  <MODEL>
6

>  <REMARK>
 VINA RESULT:      -7.1      4.161      7.379
  Name = 
  4 active torsions:
  status: ('A' for Active; 'I' for Inactive)
    1  A    between atoms: C_2  and  C_21
    2  A    between atoms: C_6  and  C_15
    3  A    between atoms: C_6  and  C_23
    4  A    between atoms: C_15  and  C_21
                            x       y       z     vdW  Elec       q    Type
                         _______ _______ _______ _____ _____    ______ ____

>  <TORSDO>
F 4

$$$$
=
 OpenBabel11052417243D

 25 28  0  0  1  0  0  0  0  0999 V2000
  192.1190  176.5190  145.0670 C   0  0  0  0  0  0  0  0  0  0  0  0
  190.7640  176.8530  144.8600 C   0  0  0  0  0  0  0  0  0  0  0  0
  191.7790  176.4850  147.4840 C   0  0  0  0  0  3  0  0  0  0  0  0
  193.1330  176.3210  144.1080 C   0  0  0  0  0  0  0  0  0  0  0  0
  195.3850  175.8560  142.5190 C   0  0  0  0  0  3  0  0  0  0  0  0
  190.4350  176.8170  147.2900 C   0  0  0  0  0  3  0  0  0  0  0  0
  194.3610  175.9980  144.6810 C   0  0  0  0  0  0  0  0  0  0  0  0
  195.4980  175.7620  143.9140 C   0  0  0  0  0  3  0  0  0  0  0  0
  188.5580  177.3420  145.8040 C   0  0  0  0  0  0  0  0  0  0  0  0
  187.6220  177.5180  146.9540 C   0  0  0  0  0  1  0  0  0  0  0  0
  190.2370  177.0410  143.5750 C   0  0  0  0  0  3  0  0  0  0  0  0
  194.1530  176.1810  141.9240 C   0  0  0  0  0  3  0  0  0  0  0  0
  192.5940  176.3410  146.3680 C   0  0  0  0  0  0  0  0  0  0  0  0
  194.2340  175.9480  146.3600 S   0  0  0  0  0  0  0  0  0  0  0  0
  188.0600  177.5250  144.5110 C   0  0  0  0  0  3  0  0  0  0  0  0
  193.0190  176.4150  142.7170 C   0  0  0  0  0  3  0  0  0  0  0  0
  188.8910  177.3700  143.4000 C   0  0  0  0  0  0  0  0  0  0  0  0
  189.9130  177.0050  145.9920 C   0  0  0  0  0  0  0  0  0  0  0  0
  188.3510  177.5860  142.0300 C   0  0  0  0  0  2  0  0  0  0  0  0
  187.1740  178.5470  142.0780 C   0  0  0  0  0  2  0  0  0  0  0  0
  185.9050  177.8570  141.6060 C   0  0  2  0  0  3  0  0  0  0  0  0
  185.7090  178.1160  140.2500 O   0  0  0  0  0  1  0  0  0  0  0  0
  184.7200  178.3250  142.3870 C   0  0  0  0  0  0  0  0  0  0  0  0
  183.4400  178.0120  141.9490 O   0  0  0  0  0  0  0  0  0  0  0  0
  184.8730  178.9890  143.4460 O   0  0  0  0  0  1  0  0  0  0  0  0
  1 13  1  0  0  0  0
  2  1  2  0  0  0  0
  2 18  1  0  0  0  0
  4  7  1  0  0  0  0
  4  1  1  0  0  0  0
  5  8  1  0  0  0  0
  6  3  1  0  0  0  0
  7 14  1  0  0  0  0
  8  7  2  0  0  0  0
  9 18  1  0  0  0  0
  9 10  1  0  0  0  0
 11  2  1  0  0  0  0
 12  5  2  0  0  0  0
 12 16  1  0  0  0  0
 13  3  2  0  0  0  0
 14 13  1  0  0  0  0
 15  9  2  0  0  0  0
 16  4  2  0  0  0  0
 17 11  2  0  0  0  0
 17 15  1  0  0  0  0
 18  6  2  0  0  0  0
 19 20  1  0  0  0  0
 19 17  1  0  0  0  0
 21 22  1  6  0  0  0
 21 20  1  0  0  0  0
 21 23  1  0  0  0  0
 23 25  1  0  0  0  0
 24 23  2  0  0  0  0
M  END
>  <MODEL>
7

>  <REMARK>
 VINA RESULT:      -7.0      3.075      5.135
  Name = 
  4 active torsions:
  status: ('A' for Active; 'I' for Inactive)
    1  A    between atoms: C_2  and  C_21
    2  A    between atoms: C_6  and  C_15
    3  A    between atoms: C_6  and  C_23
    4  A    between atoms: C_15  and  C_21
                            x       y       z     vdW  Elec       q    Type
                         _______ _______ _______ _____ _____    ______ ____

>  <TORSDO>
F 4

$$$$
=
 OpenBabel11052417243D

 25 28  0  0  1  0  0  0  0  0999 V2000
  185.8390  178.1130  143.7250 C   0  0  0  0  0  0  0  0  0  0  0  0
  186.7940  178.0240  144.7590 C   0  0  0  0  0  0  0  0  0  0  0  0
  184.1070  178.7410  145.3280 C   0  0  0  0  0  3  0  0  0  0  0  0
  186.0120  177.8870  142.3450 C   0  0  0  0  0  0  0  0  0  0  0  0
  185.9670  177.5260  139.5730 C   0  0  0  0  0  3  0  0  0  0  0  0
  185.0470  178.6550  146.3600 C   0  0  0  0  0  3  0  0  0  0  0  0
  184.8390  178.0700  141.6170 C   0  0  0  0  0  0  0  0  0  0  0  0
  184.7880  177.8970  140.2360 C   0  0  0  0  0  3  0  0  0  0  0  0
  187.3270  178.2110  147.1420 C   0  0  0  0  0  0  0  0  0  0  0  0
  186.9540  178.4850  148.5620 C   0  0  0  0  0  1  0  0  0  0  0  0
  188.1270  177.6720  144.5070 C   0  0  0  0  0  3  0  0  0  0  0  0
  187.1610  177.3370  140.2930 C   0  0  0  0  0  3  0  0  0  0  0  0
  184.5240  178.4690  144.0300 C   0  0  0  0  0  0  0  0  0  0  0  0
  183.5740  178.5090  142.6370 S   0  0  0  0  0  0  0  0  0  0  0  0
  188.6490  177.8570  146.8610 C   0  0  0  0  0  3  0  0  0  0  0  0
  187.1890  177.5170  141.6850 C   0  0  0  0  0  3  0  0  0  0  0  0
  189.0510  177.5930  145.5500 C   0  0  0  0  0  0  0  0  0  0  0  0
  186.3870  178.2990  146.0960 C   0  0  0  0  0  0  0  0  0  0  0  0
  190.4590  177.1980  145.2680 C   0  0  0  0  0  2  0  0  0  0  0  0
  190.9040  176.1230  146.2450 C   0  0  0  0  0  2  0  0  0  0  0  0
  190.9680  174.7710  145.5540 C   0  0  2  0  0  3  0  0  0  0  0  0
  190.9440  174.9520  144.1710 O   0  0  0  0  0  1  0  0  0  0  0  0
  189.8240  173.9030  145.9700 C   0  0  0  0  0  0  0  0  0  0  0  0
  189.5730  172.7220  145.2850 O   0  0  0  0  0  0  0  0  0  0  0  0
  189.0970  174.2270  146.9450 O   0  0  0  0  0  1  0  0  0  0  0  0
  1 13  1  0  0  0  0
  1  2  2  0  0  0  0
  2 18  1  0  0  0  0
  3  6  1  0  0  0  0
  4  1  1  0  0  0  0
  5  8  2  0  0  0  0
  5 12  1  0  0  0  0
  7  4  2  0  0  0  0
  7 14  1  0  0  0  0
  8  7  1  0  0  0  0
  9 10  1  0  0  0  0
 11  2  1  0  0  0  0
 11 17  2  0  0  0  0
 12 16  2  0  0  0  0
 13  3  2  0  0  0  0
 14 13  1  0  0  0  0
 15  9  2  0  0  0  0
 16  4  1  0  0  0  0
 17 15  1  0  0  0  0
 18  6  2  0  0  0  0
 18  9  1  0  0  0  0
 19 17  1  0  0  0  0
 19 20  1  0  0  0  0
 21 22  1  6  0  0  0
 21 23  1  0  0  0  0
 21 20  1  0  0  0  0
 23 25  1  0  0  0  0
 24 23  2  0  0  0  0
M  END
>  <MODEL>
8

>  <REMARK>
 VINA RESULT:      -7.0      2.811      6.303
  Name = 
  4 active torsions:
  status: ('A' for Active; 'I' for Inactive)
    1  A    between atoms: C_2  and  C_21
    2  A    between atoms: C_6  and  C_15
    3  A    between atoms: C_6  and  C_23
    4  A    between atoms: C_15  and  C_21
                            x       y       z     vdW  Elec       q    Type
                         _______ _______ _______ _____ _____    ______ ____

>  <TORSDO>
F 4

$$$$
=
 OpenBabel11052417243D

 25 28  0  0  1  0  0  0  0  0999 V2000
  186.5540  177.8380  144.6980 C   0  0  0  0  0  0  0  0  0  0  0  0
  187.8940  177.4170  144.8230 C   0  0  0  0  0  0  0  0  0  0  0  0
  186.4090  178.2210  147.1050 C   0  0  0  0  0  3  0  0  0  0  0  0
  185.7670  177.9340  143.5320 C   0  0  0  0  0  0  0  0  0  0  0  0
  183.9140  178.2520  141.4630 C   0  0  0  0  0  3  0  0  0  0  0  0
  187.7370  177.8040  147.2400 C   0  0  0  0  0  3  0  0  0  0  0  0
  184.4760  178.3920  143.7890 C   0  0  0  0  0  0  0  0  0  0  0  0
  183.5340  178.5600  142.7770 C   0  0  0  0  0  3  0  0  0  0  0  0
  189.8270  176.9800  146.2620 C   0  0  0  0  0  0  0  0  0  0  0  0
  190.5010  176.9390  147.5940 C   0  0  0  0  0  1  0  0  0  0  0  0
  188.6500  177.0160  143.7140 C   0  0  0  0  0  3  0  0  0  0  0  0
  185.2130  177.7880  141.1860 C   0  0  0  0  0  3  0  0  0  0  0  0
  185.8440  178.2300  145.8350 C   0  0  0  0  0  0  0  0  0  0  0  0
  184.2720  178.6880  145.4330 S   0  0  0  0  0  0  0  0  0  0  0  0
  190.5570  176.5840  145.1380 C   0  0  0  0  0  3  0  0  0  0  0  0
  186.1470  177.6260  142.2220 C   0  0  0  0  0  3  0  0  0  0  0  0
  189.9760  176.6060  143.8680 C   0  0  0  0  0  0  0  0  0  0  0  0
  188.4900  177.4010  146.1170 C   0  0  0  0  0  0  0  0  0  0  0  0
  190.7600  176.1630  142.6830 C   0  0  0  0  0  2  0  0  0  0  0  0
  191.3030  174.7620  142.9100 C   0  0  0  0  0  2  0  0  0  0  0  0
  190.4830  173.7420  142.1380 C   0  0  2  0  0  3  0  0  0  0  0  0
  189.7760  174.3840  141.1220 O   0  0  0  0  0  1  0  0  0  0  0  0
  189.5320  173.0260  143.0420 C   0  0  0  0  0  0  0  0  0  0  0  0
  188.3830  172.4510  142.5140 O   0  0  0  0  0  0  0  0  0  0  0  0
  189.7710  172.9290  144.2740 O   0  0  0  0  0  1  0  0  0  0  0  0
  1  2  2  0  0  0  0
  1 13  1  0  0  0  0
  2 18  1  0  0  0  0
  3  6  1  0  0  0  0
  4  7  1  0  0  0  0
  4  1  1  0  0  0  0
  5  8  1  0  0  0  0
  7 14  1  0  0  0  0
  8  7  2  0  0  0  0
  9 10  1  0  0  0  0
 11 17  2  0  0  0  0
 11  2  1  0  0  0  0
 12  5  2  0  0  0  0
 12 16  1  0  0  0  0
 13  3  2  0  0  0  0
 14 13  1  0  0  0  0
 15  9  2  0  0  0  0
 16  4  2  0  0  0  0
 17 15  1  0  0  0  0
 18  9  1  0  0  0  0
 18  6  2  0  0  0  0
 19 20  1  0  0  0  0
 19 17  1  0  0  0  0
 21 22  1  6  0  0  0
 21 20  1  0  0  0  0
 21 23  1  0  0  0  0
 23 25  1  0  0  0  0
 24 23  2  0  0  0  0
M  END
>  <MODEL>
9

>  <REMARK>
 VINA RESULT:      -7.0      3.214      6.752
  Name = 
  4 active torsions:
  status: ('A' for Active; 'I' for Inactive)
    1  A    between atoms: C_2  and  C_21
    2  A    between atoms: C_6  and  C_15
    3  A    between atoms: C_6  and  C_23
    4  A    between atoms: C_15  and  C_21
                            x       y       z     vdW  Elec       q    Type
                         _______ _______ _______ _____ _____    ______ ____

>  <TORSDO>
F 4

$$$$
