=
 OpenBabel11052418073D

 28 31  0  0  1  0  0  0  0  0999 V2000
  186.7350  176.5940  144.4040 C   0  0  2  0  0  3  0  0  0  0  0  0
  186.0480  179.2740  147.6900 C   0  0  0  0  0  1  0  0  0  0  0  0
  189.4340  175.5910  145.5970 C   0  0  2  0  0  3  0  0  0  0  0  0
  187.4660  177.4750  146.6960 C   0  0  2  0  0  3  0  0  0  0  0  0
  189.1920  176.9430  144.9230 C   0  0  0  0  0  2  0  0  0  0  0  0
  185.1160  177.9810  145.7810 C   0  0  0  0  0  2  0  0  0  0  0  0
  187.7400  176.1230  147.3580 C   0  0  0  0  0  2  0  0  0  0  0  0
  186.0280  177.9210  147.0090 C   0  0  2  0  0  3  0  0  0  0  0  0
  189.1760  175.6790  147.1010 C   0  0  0  0  0  2  0  0  0  0  0  0
  185.2930  176.7340  144.9210 C   0  0  0  0  0  2  0  0  0  0  0  0
  187.7670  177.4330  145.1830 C   0  0  1  0  0  3  0  0  0  0  0  0
  191.8750  175.7830  145.6690 C   0  0  0  0  0  3  0  0  0  0  0  0
  191.8400  173.4820  143.6480 C   0  0  0  0  0  3  0  0  0  0  0  0
  193.5950  175.2150  144.0110 C   0  0  0  0  0  0  0  0  0  0  0  0
  190.8080  175.0660  145.2900 C   0  0  0  0  0  0  0  0  0  0  0  0
  189.8490  172.7420  144.7880 C   0  0  0  0  0  1  0  0  0  0  0  0
  192.9740  174.3300  143.2330 C   0  0  0  0  0  3  0  0  0  0  0  0
  190.9150  173.7640  144.5780 C   0  0  0  0  0  0  0  0  0  0  0  0
  194.7150  176.0130  143.4450 C   0  0  0  0  0  1  0  0  0  0  0  0
  193.2840  175.3430  145.4640 C   0  0  0  0  0  2  0  0  0  0  0  0
  186.8130  176.8590  142.9650 N   0  0  0  0  0  0  0  0  0  0  0  0
  186.3380  178.0410  142.4710 C   0  0  0  0  0  3  0  0  0  0  0  0
  187.4680  176.1840  140.7570 C   0  0  0  0  0  0  0  0  0  0  0  0
  186.4130  178.3240  141.1070 C   0  0  0  0  0  3  0  0  0  0  0  0
  187.8210  174.8420  142.5900 O   0  0  0  0  0  0  0  0  0  0  0  0
  187.3770  175.9300  142.1300 C   0  0  0  0  0  0  0  0  0  0  0  0
  188.0240  175.2740  139.9190 F   0  0  0  0  0  0  0  0  0  0  0  0
  186.9820  177.3870  140.2470 C   0  0  0  0  0  3  0  0  0  0  0  0
  1 21  1  6  0  0  0
  1 10  1  0  0  0  0
  1 11  1  0  0  0  0
  3 15  1  1  0  0  0
  3  9  1  0  0  0  0
  4  8  1  0  0  0  0
  4  7  1  6  0  0  0
  5  3  1  0  0  0  0
  6  8  1  0  0  0  0
  8  2  1  6  0  0  0
  9  7  1  0  0  0  0
 10  6  1  0  0  0  0
 11  5  1  1  0  0  0
 11  4  1  0  0  0  0
 13 18  2  0  0  0  0
 14 20  1  0  0  0  0
 15 12  2  0  0  0  0
 17 13  1  0  0  0  0
 17 14  2  0  0  0  0
 18 16  1  0  0  0  0
 18 15  1  0  0  0  0
 19 14  1  0  0  0  0
 20 12  1  0  0  0  0
 22 21  1  0  0  0  0
 23 26  1  0  0  0  0
 24 22  2  0  0  0  0
 26 25  2  0  0  0  0
 26 21  1  0  0  0  0
 27 23  1  0  0  0  0
 28 23  2  0  0  0  0
 28 24  1  0  0  0  0
M  END
>  <MODEL>
1

>  <REMARK>
 VINA RESULT:      -8.2      0.000      0.000
  Name = 
  2 active torsions:
  status: ('A' for Active; 'I' for Inactive)
    1  A    between atoms: C_1  and  N_2
    2  A    between atoms: C_10  and  C_13
                            x       y       z     vdW  Elec       q    Type
                         _______ _______ _______ _____ _____    ______ ____

>  <TORSDO>
F 2

$$$$
=
 OpenBabel11052418073D

 28 31  0  0  1  0  0  0  0  0999 V2000
  190.5740  174.2110  144.1650 C   0  0  2  0  0  3  0  0  0  0  0  0
  191.0780  172.8790  140.1120 C   0  0  0  0  0  1  0  0  0  0  0  0
  188.0790  175.9340  143.4420 C   0  0  2  0  0  3  0  0  0  0  0  0
  189.6960  174.1490  141.7580 C   0  0  2  0  0  3  0  0  0  0  0  0
  189.5360  176.2760  143.1230 C   0  0  0  0  0  2  0  0  0  0  0  0
  191.5310  172.5210  142.5310 C   0  0  0  0  0  2  0  0  0  0  0  0
  188.2320  173.8410  142.0810 C   0  0  0  0  0  2  0  0  0  0  0  0
  190.4530  172.8380  141.4910 C   0  0  2  0  0  3  0  0  0  0  0  0
  187.4480  175.1300  142.3060 C   0  0  0  0  0  2  0  0  0  0  0  0
  190.9980  172.7490  143.9420 C   0  0  0  0  0  2  0  0  0  0  0  0
  190.3480  175.0060  142.8640 C   0  0  1  0  0  3  0  0  0  0  0  0
  187.0510  177.4670  145.0510 C   0  0  0  0  0  3  0  0  0  0  0  0
  185.6220  178.6360  142.6070 C   0  0  0  0  0  3  0  0  0  0  0  0
  184.9160  178.6820  144.9980 C   0  0  0  0  0  0  0  0  0  0  0  0
  187.2880  177.1700  143.7660 C   0  0  0  0  0  0  0  0  0  0  0  0
  187.6130  178.0510  141.3810 C   0  0  0  0  0  1  0  0  0  0  0  0
  184.6310  178.7180  143.6970 C   0  0  0  0  0  3  0  0  0  0  0  0
  186.8070  178.0080  142.6350 C   0  0  0  0  0  0  0  0  0  0  0  0
  183.8060  178.7580  145.9830 C   0  0  0  0  0  1  0  0  0  0  0  0
  186.3220  178.6890  145.4970 C   0  0  0  0  0  2  0  0  0  0  0  0
  191.5060  174.9060  145.0580 N   0  0  0  0  0  0  0  0  0  0  0  0
  192.7860  175.1420  144.6430 C   0  0  0  0  0  3  0  0  0  0  0  0
  191.9630  176.0050  147.1410 C   0  0  0  0  0  0  0  0  0  0  0  0
  193.6880  175.8140  145.4670 C   0  0  0  0  0  3  0  0  0  0  0  0
  189.8970  175.1140  146.6680 O   0  0  0  0  0  0  0  0  0  0  0  0
  191.0820  175.3280  146.2900 C   0  0  0  0  0  0  0  0  0  0  0  0
  191.5580  176.4290  148.3640 F   0  0  0  0  0  0  0  0  0  0  0  0
  193.2710  176.2470  146.7240 C   0  0  0  0  0  3  0  0  0  0  0  0
  1 10  1  6  0  0  0
  1 21  1  0  0  0  0
  3 15  1  6  0  0  0
  4  7  1  1  0  0  0
  4 11  1  0  0  0  0
  5  3  1  0  0  0  0
  6 10  1  0  0  0  0
  7  9  1  0  0  0  0
  8  2  1  6  0  0  0
  8  4  1  0  0  0  0
  8  6  1  0  0  0  0
  9  3  1  0  0  0  0
 11  5  1  1  0  0  0
 11  1  1  0  0  0  0
 12 20  1  0  0  0  0
 13 18  2  0  0  0  0
 13 17  1  0  0  0  0
 14 20  1  0  0  0  0
 14 19  1  0  0  0  0
 15 12  2  0  0  0  0
 16 18  1  0  0  0  0
 17 14  2  0  0  0  0
 18 15  1  0  0  0  0
 21 26  1  0  0  0  0
 22 21  1  0  0  0  0
 22 24  2  0  0  0  0
 23 27  1  0  0  0  0
 24 28  1  0  0  0  0
 26 25  2  0  0  0  0
 26 23  1  0  0  0  0
 28 23  2  0  0  0  0
M  END
>  <MODEL>
2

>  <REMARK>
 VINA RESULT:      -7.6      2.725      7.293
  Name = 
  2 active torsions:
  status: ('A' for Active; 'I' for Inactive)
    1  A    between atoms: C_1  and  N_2
    2  A    between atoms: C_10  and  C_13
                            x       y       z     vdW  Elec       q    Type
                         _______ _______ _______ _____ _____    ______ ____

>  <TORSDO>
F 2

$$$$
=
 OpenBabel11052418073D

 28 31  0  0  1  0  0  0  0  0999 V2000
  187.6260  175.8780  143.3010 C   0  0  2  0  0  3  0  0  0  0  0  0
  185.7620  179.7100  143.8420 C   0  0  0  0  0  1  0  0  0  0  0  0
  190.0080  176.6100  145.1740 C   0  0  2  0  0  3  0  0  0  0  0  0
  187.6030  178.1500  144.4850 C   0  0  2  0  0  3  0  0  0  0  0  0
  189.7930  177.1170  143.7470 C   0  0  0  0  0  2  0  0  0  0  0  0
  185.5410  177.3200  143.1900 C   0  0  0  0  0  2  0  0  0  0  0  0
  187.8520  177.6440  145.9070 C   0  0  0  0  0  2  0  0  0  0  0  0
  186.0910  178.2870  144.2420 C   0  0  2  0  0  3  0  0  0  0  0  0
  189.3480  177.5430  146.1880 C   0  0  0  0  0  2  0  0  0  0  0  0
  186.0920  175.9160  143.4130 C   0  0  0  0  0  2  0  0  0  0  0  0
  188.3010  177.2570  143.4380 C   0  0  1  0  0  3  0  0  0  0  0  0
  192.3750  177.0290  144.7040 C   0  0  0  0  0  3  0  0  0  0  0  0
  192.8830  174.6710  146.5920 C   0  0  0  0  0  3  0  0  0  0  0  0
  194.3260  175.5380  144.7530 C   0  0  0  0  0  0  0  0  0  0  0  0
  191.4670  176.4020  145.4650 C   0  0  0  0  0  0  0  0  0  0  0  0
  190.9070  175.4060  147.7590 C   0  0  0  0  0  1  0  0  0  0  0  0
  193.9230  174.5510  145.5520 C   0  0  0  0  0  3  0  0  0  0  0  0
  191.8330  175.5060  146.5960 C   0  0  0  0  0  0  0  0  0  0  0  0
  195.3760  175.2610  143.7370 C   0  0  0  0  0  1  0  0  0  0  0  0
  193.8460  176.9390  144.9270 C   0  0  0  0  0  2  0  0  0  0  0  0
  188.0540  175.1960  142.0770 N   0  0  0  0  0  0  0  0  0  0  0  0
  187.7010  175.7090  140.8610 C   0  0  0  0  0  3  0  0  0  0  0  0
  189.2440  173.4150  140.9940 C   0  0  0  0  0  0  0  0  0  0  0  0
  188.1080  175.0880  139.6800 C   0  0  0  0  0  3  0  0  0  0  0  0
  189.1490  173.5930  143.2840 O   0  0  0  0  0  0  0  0  0  0  0  0
  188.8200  174.0620  142.1600 C   0  0  0  0  0  0  0  0  0  0  0  0
  190.0010  172.2920  141.0600 F   0  0  0  0  0  0  0  0  0  0  0  0
  188.8840  173.9330  139.7510 C   0  0  0  0  0  3  0  0  0  0  0  0
  1 21  1  6  0  0  0
  1 10  1  0  0  0  0
  1 11  1  0  0  0  0
  3 15  1  1  0  0  0
  3  9  1  0  0  0  0
  4  7  1  1  0  0  0
  5  3  1  0  0  0  0
  6 10  1  0  0  0  0
  6  8  1  0  0  0  0
  7  9  1  0  0  0  0
  8  2  1  6  0  0  0
  8  4  1  0  0  0  0
 11  5  1  1  0  0  0
 11  4  1  0  0  0  0
 12 20  1  0  0  0  0
 12 15  2  0  0  0  0
 13 18  2  0  0  0  0
 14 20  1  0  0  0  0
 14 17  2  0  0  0  0
 15 18  1  0  0  0  0
 17 13  1  0  0  0  0
 18 16  1  0  0  0  0
 19 14  1  0  0  0  0
 21 26  1  0  0  0  0
 22 21  1  0  0  0  0
 23 27  1  0  0  0  0
 23 26  1  0  0  0  0
 24 28  1  0  0  0  0
 24 22  2  0  0  0  0
 26 25  2  0  0  0  0
 28 23  2  0  0  0  0
M  END
>  <MODEL>
3

>  <REMARK>
 VINA RESULT:      -7.5      1.971      2.609
  Name = 
  2 active torsions:
  status: ('A' for Active; 'I' for Inactive)
    1  A    between atoms: C_1  and  N_2
    2  A    between atoms: C_10  and  C_13
                            x       y       z     vdW  Elec       q    Type
                         _______ _______ _______ _____ _____    ______ ____

>  <TORSDO>
F 2

$$$$
=
 OpenBabel11052418073D

 28 31  0  0  1  0  0  0  0  0999 V2000
  186.9690  176.4200  144.4800 C   0  0  2  0  0  3  0  0  0  0  0  0
  186.6920  178.8480  148.0130 C   0  0  0  0  0  1  0  0  0  0  0  0
  189.7050  175.2070  145.3520 C   0  0  2  0  0  3  0  0  0  0  0  0
  187.9310  177.0780  146.7620 C   0  0  2  0  0  3  0  0  0  0  0  0
  189.4760  176.6190  144.8090 C   0  0  0  0  0  2  0  0  0  0  0  0
  185.5420  177.7580  146.0960 C   0  0  0  0  0  2  0  0  0  0  0  0
  188.1910  175.6650  147.2900 C   0  0  0  0  0  2  0  0  0  0  0  0
  186.5480  177.5580  147.2320 C   0  0  2  0  0  3  0  0  0  0  0  0
  189.5770  175.1830  146.8750 C   0  0  0  0  0  2  0  0  0  0  0  0
  185.5840  176.5790  145.1290 C   0  0  0  0  0  2  0  0  0  0  0  0
  188.1030  177.1470  145.2300 C   0  0  1  0  0  3  0  0  0  0  0  0
  191.0360  173.8140  143.8410 C   0  0  0  0  0  3  0  0  0  0  0  0
  193.2920  174.2580  145.8640 C   0  0  0  0  0  3  0  0  0  0  0  0
  192.9860  172.3780  144.2540 C   0  0  0  0  0  0  0  0  0  0  0  0
  191.0210  174.6510  144.8870 C   0  0  0  0  0  0  0  0  0  0  0  0
  192.2900  176.4160  146.2450 C   0  0  0  0  0  1  0  0  0  0  0  0
  193.4820  172.8740  145.3880 C   0  0  0  0  0  3  0  0  0  0  0  0
  192.2510  175.0650  145.6160 C   0  0  0  0  0  0  0  0  0  0  0  0
  193.2470  170.9550  143.9140 C   0  0  0  0  0  1  0  0  0  0  0  0
  192.2820  173.2380  143.2600 C   0  0  0  0  0  2  0  0  0  0  0  0
  186.9410  176.7990  143.0640 N   0  0  0  0  0  0  0  0  0  0  0  0
  186.4850  178.0360  142.7070 C   0  0  0  0  0  3  0  0  0  0  0  0
  187.3770  176.2810  140.7620 C   0  0  0  0  0  0  0  0  0  0  0  0
  186.4610  178.4270  141.3680 C   0  0  0  0  0  3  0  0  0  0  0  0
  187.8140  174.7790  142.4470 O   0  0  0  0  0  0  0  0  0  0  0  0
  187.3880  175.9190  142.1140 C   0  0  0  0  0  0  0  0  0  0  0  0
  187.8160  175.4200  139.8110 F   0  0  0  0  0  0  0  0  0  0  0  0
  186.9100  177.5410  140.3920 C   0  0  0  0  0  3  0  0  0  0  0  0
  1 21  1  6  0  0  0
  1 10  1  0  0  0  0
  1 11  1  0  0  0  0
  3 15  1  1  0  0  0
  3  9  1  0  0  0  0
  4  8  1  0  0  0  0
  4  7  1  6  0  0  0
  5  3  1  0  0  0  0
  6  8  1  0  0  0  0
  8  2  1  6  0  0  0
  9  7  1  0  0  0  0
 10  6  1  0  0  0  0
 11  5  1  1  0  0  0
 11  4  1  0  0  0  0
 12 15  2  0  0  0  0
 14 17  2  0  0  0  0
 15 18  1  0  0  0  0
 17 13  1  0  0  0  0
 18 13  2  0  0  0  0
 18 16  1  0  0  0  0
 19 14  1  0  0  0  0
 20 12  1  0  0  0  0
 20 14  1  0  0  0  0
 22 21  1  0  0  0  0
 23 26  1  0  0  0  0
 24 22  2  0  0  0  0
 26 25  2  0  0  0  0
 26 21  1  0  0  0  0
 27 23  1  0  0  0  0
 28 23  2  0  0  0  0
 28 24  1  0  0  0  0
M  END
>  <MODEL>
4

>  <REMARK>
 VINA RESULT:      -7.4      0.994      1.888
  Name = 
  2 active torsions:
  status: ('A' for Active; 'I' for Inactive)
    1  A    between atoms: C_1  and  N_2
    2  A    between atoms: C_10  and  C_13
                            x       y       z     vdW  Elec       q    Type
                         _______ _______ _______ _____ _____    ______ ____

>  <TORSDO>
F 2

$$$$
=
 OpenBabel11052418073D

 28 31  0  0  1  0  0  0  0  0999 V2000
  191.4960  175.1400  142.7300 C   0  0  2  0  0  3  0  0  0  0  0  0
  194.6880  175.8420  145.5180 C   0  0  0  0  0  1  0  0  0  0  0  0
  189.3870  176.4970  144.5810 C   0  0  2  0  0  3  0  0  0  0  0  0
  192.2900  176.2000  144.9240 C   0  0  2  0  0  3  0  0  0  0  0  0
  190.0080  175.1130  144.7820 C   0  0  0  0  0  2  0  0  0  0  0  0
  193.9840  175.3550  143.1830 C   0  0  0  0  0  2  0  0  0  0  0  0
  191.6400  177.5720  144.7360 C   0  0  0  0  0  2  0  0  0  0  0  0
  193.7370  176.2390  144.4080 C   0  0  2  0  0  3  0  0  0  0  0  0
  190.2160  177.5720  145.2820 C   0  0  0  0  0  2  0  0  0  0  0  0
  192.8690  175.5360  142.1590 C   0  0  0  0  0  2  0  0  0  0  0  0
  191.4490  175.0830  144.2700 C   0  0  1  0  0  3  0  0  0  0  0  0
  187.0010  176.7860  144.1080 C   0  0  0  0  0  3  0  0  0  0  0  0
  186.6870  176.8440  147.1550 C   0  0  0  0  0  3  0  0  0  0  0  0
  185.2060  177.8390  145.4130 C   0  0  0  0  0  0  0  0  0  0  0  0
  187.9490  176.5180  145.0170 C   0  0  0  0  0  0  0  0  0  0  0  0
  188.5540  175.3210  147.2010 C   0  0  0  0  0  1  0  0  0  0  0  0
  185.6870  177.8080  146.6550 C   0  0  0  0  0  3  0  0  0  0  0  0
  187.6490  176.2340  146.4460 C   0  0  0  0  0  0  0  0  0  0  0  0
  184.2120  178.8840  145.0500 C   0  0  0  0  0  1  0  0  0  0  0  0
  185.5420  176.7870  144.4100 C   0  0  0  0  0  2  0  0  0  0  0  0
  191.0130  173.8900  142.1370 N   0  0  0  0  0  0  0  0  0  0  0  0
  191.7480  172.7480  142.2820 C   0  0  0  0  0  3  0  0  0  0  0  0
  189.3470  172.6790  140.9050 C   0  0  0  0  0  0  0  0  0  0  0  0
  191.3030  171.5410  141.7400 C   0  0  0  0  0  3  0  0  0  0  0  0
  189.1420  174.9280  141.3340 O   0  0  0  0  0  0  0  0  0  0  0  0
  189.8210  173.8730  141.4610 C   0  0  0  0  0  0  0  0  0  0  0  0
  188.1700  172.6470  140.2330 F   0  0  0  0  0  0  0  0  0  0  0  0
  190.0940  171.5110  141.0470 C   0  0  0  0  0  3  0  0  0  0  0  0
  1 21  1  6  0  0  0
  1 11  1  0  0  0  0
  3  5  1  0  0  0  0
  3 15  1  1  0  0  0
  3  9  1  0  0  0  0
  4  7  1  6  0  0  0
  6  8  1  0  0  0  0
  7  9  1  0  0  0  0
  8  4  1  0  0  0  0
  8  2  1  1  0  0  0
 10  1  1  0  0  0  0
 10  6  1  0  0  0  0
 11  5  1  6  0  0  0
 11  4  1  0  0  0  0
 12 20  1  0  0  0  0
 12 15  2  0  0  0  0
 14 17  2  0  0  0  0
 15 18  1  0  0  0  0
 17 13  1  0  0  0  0
 18 13  2  0  0  0  0
 18 16  1  0  0  0  0
 19 14  1  0  0  0  0
 20 14  1  0  0  0  0
 21 22  1  0  0  0  0
 23 28  2  0  0  0  0
 23 26  1  0  0  0  0
 24 22  2  0  0  0  0
 25 26  2  0  0  0  0
 26 21  1  0  0  0  0
 27 23  1  0  0  0  0
 28 24  1  0  0  0  0
M  END
>  <MODEL>
5

>  <REMARK>
 VINA RESULT:      -7.3      2.006      6.357
  Name = 
  2 active torsions:
  status: ('A' for Active; 'I' for Inactive)
    1  A    between atoms: C_1  and  N_2
    2  A    between atoms: C_10  and  C_13
                            x       y       z     vdW  Elec       q    Type
                         _______ _______ _______ _____ _____    ______ ____

>  <TORSDO>
F 2

$$$$
=
 OpenBabel11052418073D

 28 31  0  0  1  0  0  0  0  0999 V2000
  193.6560  173.7720  143.4230 C   0  0  2  0  0  3  0  0  0  0  0  0
  196.8280  173.2970  146.2800 C   0  0  0  0  0  1  0  0  0  0  0  0
  192.3970  176.1490  144.9970 C   0  0  2  0  0  3  0  0  0  0  0  0
  194.8510  174.6210  145.5240 C   0  0  2  0  0  3  0  0  0  0  0  0
  192.3230  174.6710  145.3840 C   0  0  0  0  0  2  0  0  0  0  0  0
  195.9720  172.8970  143.9790 C   0  0  0  0  0  2  0  0  0  0  0  0
  194.8930  176.1050  145.1510 C   0  0  0  0  0  2  0  0  0  0  0  0
  196.1570  173.9410  145.0840 C   0  0  2  0  0  3  0  0  0  0  0  0
  193.6250  176.8130  145.6180 C   0  0  0  0  0  2  0  0  0  0  0  0
  195.0570  173.4340  142.8840 C   0  0  0  0  0  2  0  0  0  0  0  0
  193.5920  173.9320  144.9540 C   0  0  1  0  0  3  0  0  0  0  0  0
  190.6710  176.7980  146.6090 C   0  0  0  0  0  3  0  0  0  0  0  0
  189.1040  177.7190  144.1440 C   0  0  0  0  0  3  0  0  0  0  0  0
  188.2360  177.0230  146.3750 C   0  0  0  0  0  0  0  0  0  0  0  0
  191.1270  176.8690  145.3510 C   0  0  0  0  0  0  0  0  0  0  0  0
  191.2550  178.2370  143.1870 C   0  0  0  0  0  1  0  0  0  0  0  0
  188.0800  177.1840  145.0620 C   0  0  0  0  0  3  0  0  0  0  0  0
  190.4360  177.6360  144.2780 C   0  0  0  0  0  0  0  0  0  0  0  0
  187.1160  176.4530  147.1700 C   0  0  0  0  0  1  0  0  0  0  0  0
  189.4520  177.5080  147.0900 C   0  0  0  0  0  2  0  0  0  0  0  0
  192.6560  172.8120  142.9470 N   0  0  0  0  0  0  0  0  0  0  0  0
  192.7210  171.5120  143.3610 C   0  0  0  0  0  3  0  0  0  0  0  0
  190.6890  172.3190  141.6630 C   0  0  0  0  0  0  0  0  0  0  0  0
  191.7730  170.5800  142.9350 C   0  0  0  0  0  3  0  0  0  0  0  0
  191.5940  174.4310  141.7330 O   0  0  0  0  0  0  0  0  0  0  0  0
  191.6550  173.2280  142.1090 C   0  0  0  0  0  0  0  0  0  0  0  0
  189.6930  172.7170  140.8330 F   0  0  0  0  0  0  0  0  0  0  0  0
  190.7520  170.9900  142.0800 C   0  0  0  0  0  3  0  0  0  0  0  0
  1 10  1  1  0  0  0
  1 11  1  0  0  0  0
  3 15  1  1  0  0  0
  3  5  1  0  0  0  0
  3  9  1  0  0  0  0
  4  7  1  6  0  0  0
  6  8  1  0  0  0  0
  7  9  1  0  0  0  0
  8  4  1  0  0  0  0
  8  2  1  1  0  0  0
 10  6  1  0  0  0  0
 11  5  1  6  0  0  0
 11  4  1  0  0  0  0
 12 20  1  0  0  0  0
 13 18  2  0  0  0  0
 13 17  1  0  0  0  0
 14 20  1  0  0  0  0
 14 19  1  0  0  0  0
 15 12  2  0  0  0  0
 16 18  1  0  0  0  0
 17 14  2  0  0  0  0
 18 15  1  0  0  0  0
 21 22  1  0  0  0  0
 21  1  1  0  0  0  0
 23 28  2  0  0  0  0
 23 26  1  0  0  0  0
 24 22  2  0  0  0  0
 25 26  2  0  0  0  0
 26 21  1  0  0  0  0
 27 23  1  0  0  0  0
 28 24  1  0  0  0  0
M  END
>  <MODEL>
6

>  <REMARK>
 VINA RESULT:      -7.2      2.792      7.111
  Name = 
  2 active torsions:
  status: ('A' for Active; 'I' for Inactive)
    1  A    between atoms: C_1  and  N_2
    2  A    between atoms: C_10  and  C_13
                            x       y       z     vdW  Elec       q    Type
                         _______ _______ _______ _____ _____    ______ ____

>  <TORSDO>
F 2

$$$$
=
 OpenBabel11052418073D

 28 31  0  0  1  0  0  0  0  0999 V2000
  191.8080  174.9920  142.8110 C   0  0  2  0  0  3  0  0  0  0  0  0
  194.8890  176.1300  145.5810 C   0  0  0  0  0  1  0  0  0  0  0  0
  189.8600  177.1930  143.8500 C   0  0  2  0  0  3  0  0  0  0  0  0
  192.6360  176.6100  144.6180 C   0  0  2  0  0  3  0  0  0  0  0  0
  190.2100  175.8870  144.5650 C   0  0  0  0  0  2  0  0  0  0  0  0
  194.2600  174.9830  143.4650 C   0  0  0  0  0  2  0  0  0  0  0  0
  192.2540  177.9150  143.9160 C   0  0  0  0  0  2  0  0  0  0  0  0
  194.0970  176.2590  144.2960 C   0  0  2  0  0  3  0  0  0  0  0  0
  190.8210  178.3100  144.2570 C   0  0  0  0  0  2  0  0  0  0  0  0
  193.2630  174.9640  142.3120 C   0  0  0  0  0  2  0  0  0  0  0  0
  191.6520  175.4730  144.2670 C   0  0  1  0  0  3  0  0  0  0  0  0
  188.0340  177.9160  145.3130 C   0  0  0  0  0  3  0  0  0  0  0  0
  186.2210  177.1600  142.9630 C   0  0  0  0  0  3  0  0  0  0  0  0
  185.6660  177.2680  145.3920 C   0  0  0  0  0  0  0  0  0  0  0  0
  188.4240  177.5730  144.0780 C   0  0  0  0  0  0  0  0  0  0  0  0
  188.0550  177.8410  141.5560 C   0  0  0  0  0  1  0  0  0  0  0  0
  185.4500  176.7910  144.1660 C   0  0  0  0  0  3  0  0  0  0  0  0
  187.5020  177.5520  142.9100 C   0  0  0  0  0  0  0  0  0  0  0  0
  184.8160  176.7870  146.5130 C   0  0  0  0  0  1  0  0  0  0  0  0
  186.6510  178.3570  145.6520 C   0  0  0  0  0  2  0  0  0  0  0  0
  191.1480  173.7010  142.6050 N   0  0  0  0  0  0  0  0  0  0  0  0
  191.6460  172.5850  143.2150 C   0  0  0  0  0  3  0  0  0  0  0  0
  189.3860  172.3960  141.6300 C   0  0  0  0  0  0  0  0  0  0  0  0
  191.0290  171.3450  143.0470 C   0  0  0  0  0  3  0  0  0  0  0  0
  189.5670  174.6580  141.2610 O   0  0  0  0  0  0  0  0  0  0  0  0
  190.0280  173.6250  141.8190 C   0  0  0  0  0  0  0  0  0  0  0  0
  188.2770  172.3060  140.8540 F   0  0  0  0  0  0  0  0  0  0  0  0
  189.8910  171.2540  142.2480 C   0  0  0  0  0  3  0  0  0  0  0  0
  1 10  1  1  0  0  0
  1 11  1  0  0  0  0
  3 15  1  1  0  0  0
  3  9  1  0  0  0  0
  3  5  1  0  0  0  0
  4  7  1  6  0  0  0
  6  8  1  0  0  0  0
  7  9  1  0  0  0  0
  8  4  1  0  0  0  0
  8  2  1  1  0  0  0
 10  6  1  0  0  0  0
 11  5  1  6  0  0  0
 11  4  1  0  0  0  0
 12 20  1  0  0  0  0
 13 17  1  0  0  0  0
 14 20  1  0  0  0  0
 14 19  1  0  0  0  0
 15 12  2  0  0  0  0
 16 18  1  0  0  0  0
 17 14  2  0  0  0  0
 18 13  2  0  0  0  0
 18 15  1  0  0  0  0
 21  1  1  0  0  0  0
 21 22  1  0  0  0  0
 23 26  1  0  0  0  0
 23 28  2  0  0  0  0
 24 22  2  0  0  0  0
 25 26  2  0  0  0  0
 26 21  1  0  0  0  0
 27 23  1  0  0  0  0
 28 24  1  0  0  0  0
M  END
>  <MODEL>
7

>  <REMARK>
 VINA RESULT:      -7.2      2.052      6.493
  Name = 
  2 active torsions:
  status: ('A' for Active; 'I' for Inactive)
    1  A    between atoms: C_1  and  N_2
    2  A    between atoms: C_10  and  C_13
                            x       y       z     vdW  Elec       q    Type
                         _______ _______ _______ _____ _____    ______ ____

>  <TORSDO>
F 2

$$$$
=
 OpenBabel11052418073D

 28 31  0  0  1  0  0  0  0  0999 V2000
  192.8030  173.6540  144.4540 C   0  0  2  0  0  3  0  0  0  0  0  0
  193.2040  171.2460  140.9180 C   0  0  0  0  0  1  0  0  0  0  0  0
  189.7720  174.1660  143.9370 C   0  0  2  0  0  3  0  0  0  0  0  0
  191.6890  172.5080  142.4510 C   0  0  2  0  0  3  0  0  0  0  0  0
  190.9380  174.8110  143.1850 C   0  0  0  0  0  2  0  0  0  0  0  0
  194.0860  171.8920  143.1520 C   0  0  0  0  0  2  0  0  0  0  0  0
  190.5050  171.8910  143.1990 C   0  0  0  0  0  2  0  0  0  0  0  0
  192.8350  171.4870  142.3680 C   0  0  2  0  0  3  0  0  0  0  0  0
  189.3360  172.8700  143.2550 C   0  0  0  0  0  2  0  0  0  0  0  0
  193.7060  172.4100  144.5350 C   0  0  0  0  0  2  0  0  0  0  0  0
  192.1210  173.8470  143.0850 C   0  0  1  0  0  3  0  0  0  0  0  0
  187.7930  175.3230  143.0750 C   0  0  0  0  0  3  0  0  0  0  0  0
  188.0860  177.0930  145.5570 C   0  0  0  0  0  3  0  0  0  0  0  0
  187.0030  177.6290  143.3760 C   0  0  0  0  0  0  0  0  0  0  0  0
  188.6310  175.1290  144.1020 C   0  0  0  0  0  0  0  0  0  0  0  0
  188.9440  175.1220  146.6470 C   0  0  0  0  0  1  0  0  0  0  0  0
  187.6160  178.0060  144.4970 C   0  0  0  0  0  3  0  0  0  0  0  0
  188.4850  175.8210  145.4120 C   0  0  0  0  0  0  0  0  0  0  0  0
  186.6010  178.6660  142.3890 C   0  0  0  0  0  1  0  0  0  0  0  0
  186.5990  176.2130  143.1360 C   0  0  0  0  0  2  0  0  0  0  0  0
  193.5230  174.8620  144.8640 N   0  0  0  0  0  0  0  0  0  0  0  0
  194.4670  175.3980  144.0360 C   0  0  0  0  0  3  0  0  0  0  0  0
  193.9030  176.6190  146.4550 C   0  0  0  0  0  0  0  0  0  0  0  0
  195.1560  176.5570  144.3960 C   0  0  0  0  0  3  0  0  0  0  0  0
  192.3520  174.9620  146.8250 O   0  0  0  0  0  0  0  0  0  0  0  0
  193.2290  175.4560  146.0640 C   0  0  0  0  0  0  0  0  0  0  0  0
  193.6230  177.2170  147.6400 F   0  0  0  0  0  0  0  0  0  0  0  0
  194.8700  177.1680  145.6140 C   0  0  0  0  0  3  0  0  0  0  0  0
  1 10  1  6  0  0  0
  1 21  1  0  0  0  0
  3 15  1  6  0  0  0
  4 11  1  0  0  0  0
  4  7  1  1  0  0  0
  5  3  1  0  0  0  0
  6 10  1  0  0  0  0
  7  9  1  0  0  0  0
  8  2  1  6  0  0  0
  8  4  1  0  0  0  0
  8  6  1  0  0  0  0
  9  3  1  0  0  0  0
 11  5  1  1  0  0  0
 11  1  1  0  0  0  0
 12 20  1  0  0  0  0
 12 15  2  0  0  0  0
 14 17  2  0  0  0  0
 15 18  1  0  0  0  0
 17 13  1  0  0  0  0
 18 13  2  0  0  0  0
 18 16  1  0  0  0  0
 19 14  1  0  0  0  0
 20 14  1  0  0  0  0
 21 26  1  0  0  0  0
 22 24  2  0  0  0  0
 22 21  1  0  0  0  0
 23 27  1  0  0  0  0
 24 28  1  0  0  0  0
 26 23  1  0  0  0  0
 26 25  2  0  0  0  0
 28 23  2  0  0  0  0
M  END
>  <MODEL>
8

>  <REMARK>
 VINA RESULT:      -7.2      3.045      7.499
  Name = 
  2 active torsions:
  status: ('A' for Active; 'I' for Inactive)
    1  A    between atoms: C_1  and  N_2
    2  A    between atoms: C_10  and  C_13
                            x       y       z     vdW  Elec       q    Type
                         _______ _______ _______ _____ _____    ______ ____

>  <TORSDO>
F 2

$$$$
=
 OpenBabel11052418073D

 28 31  0  0  1  0  0  0  0  0999 V2000
  186.0610  178.1540  143.8000 C   0  0  2  0  0  3  0  0  0  0  0  0
  182.6060  177.9180  141.2580 C   0  0  0  0  0  1  0  0  0  0  0  0
  187.7970  176.4600  141.8420 C   0  0  2  0  0  3  0  0  0  0  0  0
  185.0310  177.4140  141.5730 C   0  0  2  0  0  3  0  0  0  0  0  0
  186.6990  175.9290  142.7650 C   0  0  0  0  0  2  0  0  0  0  0  0
  183.8050  179.0820  143.1000 C   0  0  0  0  0  2  0  0  0  0  0  0
  186.1460  177.9160  140.6540 C   0  0  0  0  0  2  0  0  0  0  0  0
  183.9390  178.4900  141.6940 C   0  0  2  0  0  3  0  0  0  0  0  0
  187.2220  176.8480  140.4800 C   0  0  0  0  0  2  0  0  0  0  0  0
  185.1790  179.4090  143.6760 C   0  0  0  0  0  2  0  0  0  0  0  0
  185.5870  176.9650  142.9410 C   0  0  1  0  0  3  0  0  0  0  0  0
  188.7730  174.4100  140.9240 C   0  0  0  0  0  3  0  0  0  0  0  0
  190.9220  174.8000  143.0710 C   0  0  0  0  0  3  0  0  0  0  0  0
  190.2010  172.6940  141.9480 C   0  0  0  0  0  0  0  0  0  0  0  0
  188.9270  175.4780  141.7180 C   0  0  0  0  0  0  0  0  0  0  0  0
  190.5540  177.1610  142.7630 C   0  0  0  0  0  1  0  0  0  0  0  0
  190.7400  173.3380  142.9820 C   0  0  0  0  0  3  0  0  0  0  0  0
  190.1730  175.7470  142.4870 C   0  0  0  0  0  0  0  0  0  0  0  0
  190.0670  171.2140  142.0100 C   0  0  0  0  0  1  0  0  0  0  0  0
  189.8390  173.3960  140.6830 C   0  0  0  0  0  2  0  0  0  0  0  0
  186.2360  177.7610  145.2000 N   0  0  0  0  0  0  0  0  0  0  0  0
  185.1390  177.4800  145.9630 C   0  0  0  0  0  3  0  0  0  0  0  0
  187.6710  177.2720  147.0600 C   0  0  0  0  0  0  0  0  0  0  0  0
  185.2780  177.0890  147.2950 C   0  0  0  0  0  3  0  0  0  0  0  0
  188.5100  177.9160  145.0190 O   0  0  0  0  0  0  0  0  0  0  0  0
  187.4970  177.6610  145.7280 C   0  0  0  0  0  0  0  0  0  0  0  0
  188.9130  177.1690  147.5960 F   0  0  0  0  0  0  0  0  0  0  0  0
  186.5550  176.9860  147.8440 C   0  0  0  0  0  3  0  0  0  0  0  0
  1 10  1  1  0  0  0
  1 21  1  0  0  0  0
  3 15  1  6  0  0  0
  3  5  1  0  0  0  0
  4  7  1  6  0  0  0
  4  8  1  0  0  0  0
  4 11  1  0  0  0  0
  6 10  1  0  0  0  0
  8  2  1  1  0  0  0
  8  6  1  0  0  0  0
  9  7  1  0  0  0  0
  9  3  1  0  0  0  0
 11  5  1  6  0  0  0
 11  1  1  0  0  0  0
 12 15  2  0  0  0  0
 14 19  1  0  0  0  0
 14 17  2  0  0  0  0
 15 18  1  0  0  0  0
 17 13  1  0  0  0  0
 18 16  1  0  0  0  0
 18 13  2  0  0  0  0
 20 12  1  0  0  0  0
 20 14  1  0  0  0  0
 21 26  1  0  0  0  0
 21 22  1  0  0  0  0
 22 24  2  0  0  0  0
 23 27  1  0  0  0  0
 23 28  2  0  0  0  0
 24 28  1  0  0  0  0
 25 26  2  0  0  0  0
 26 23  1  0  0  0  0
M  END
>  <MODEL>
9

>  <REMARK>
 VINA RESULT:      -7.2      2.591      5.129
  Name = 
  2 active torsions:
  status: ('A' for Active; 'I' for Inactive)
    1  A    between atoms: C_1  and  N_2
    2  A    between atoms: C_10  and  C_13
                            x       y       z     vdW  Elec       q    Type
                         _______ _______ _______ _____ _____    ______ ____

>  <TORSDO>
F 2

$$$$
