=
 OpenBabel11052419213D

 32 34  0  0  1  0  0  0  0  0999 V2000
  188.6940  175.4900  146.8290 C   0  0  0  0  0  0  0  0  0  0  0  0
  188.7900  174.4780  147.7740 O   0  0  0  0  0  1  0  0  0  0  0  0
  188.6290  177.8360  145.2150 C   0  0  0  0  0  2  0  0  0  0  0  0
  189.9320  175.8980  146.0730 C   0  0  0  0  0  2  0  0  0  0  0  0
  187.3090  177.1960  145.6400 C   0  0  1  0  0  3  0  0  0  0  0  0
  187.5240  176.1180  146.6670 C   0  0  0  0  0  3  0  0  0  0  0  0
  189.6220  176.7470  144.8410 C   0  0  2  0  0  3  0  0  0  0  0  0
  186.3480  178.2390  146.1910 C   0  0  0  0  0  2  0  0  0  0  0  0
  183.8000  178.9090  145.6280 O   0  0  0  0  0  0  0  0  0  0  0  0
  185.5610  180.0500  144.3680 O   0  0  0  0  0  0  0  0  0  0  0  0
  185.1410  178.7390  144.9710 S   0  0  0  0  0  0  0  0  0  0  0  0
  185.0170  177.5360  143.7270 N   0  0  0  0  0  2  0  0  0  0  0  0
  184.9500  178.2200  142.4390 C   0  0  2  0  0  3  0  0  0  0  0  0
  183.5780  178.3610  142.0140 N   0  0  0  0  0  0  0  0  0  0  0  0
  183.2210  177.9600  140.8910 N   0  0  0  0  0  2  0  0  0  0  0  0
  185.7370  177.5120  141.4250 N   0  0  0  0  0  2  0  0  0  0  0  0
  186.8510  176.8030  142.0480 C   0  0  0  0  0  3  0  0  0  0  0  0
  187.6880  176.1450  140.9690 C   0  0  0  0  0  2  0  0  0  0  0  0
  188.1550  177.4370  141.6060 C   0  0  0  0  0  2  0  0  0  0  0  0
  190.8990  177.3770  144.3210 C   0  0  0  0  0  2  0  0  0  0  0  0
  192.0920  176.8700  145.1220 C   0  0  0  0  0  2  0  0  0  0  0  0
  192.9530  175.8820  144.3300 C   0  0  2  0  0  3  0  0  0  0  0  0
  196.0610  174.2920  145.7460 C   0  0  0  0  0  1  0  0  0  0  0  0
  194.5910  174.6500  145.7310 C   0  0  1  0  0  3  0  0  0  0  0  0
  194.4050  176.0250  146.3400 C   0  0  0  0  0  2  0  0  0  0  0  0
  194.3910  175.8570  144.8350 C   0  0  2  0  0  3  0  0  0  0  0  0
  192.9100  176.1800  142.8380 C   0  0  0  0  0  2  0  0  0  0  0  0
  192.5330  174.9250  142.0670 C   0  0  0  0  0  2  0  0  0  0  0  0
  191.0240  174.7570  142.0180 C   0  0  0  0  0  2  0  0  0  0  0  0
  190.6350  173.3320  142.3660 C   0  0  0  0  0  2  0  0  0  0  0  0
  190.0420  172.5240  144.6220 C   0  0  0  0  0  1  0  0  0  0  0  0
  189.5740  173.3520  143.4450 C   0  0  0  0  0  2  0  0  0  0  0  0
  1  2  1  0  0  0  0
  3  5  1  0  0  0  0
  4  1  1  0  0  0  0
  5  8  1  1  0  0  0
  5  6  1  0  0  0  0
  6  1  2  0  0  0  0
  7 20  1  1  0  0  0
  7  3  1  0  0  0  0
  7  4  1  0  0  0  0
 10 11  2  0  0  0  0
 11  9  2  0  0  0  0
 11  8  1  0  0  0  0
 12 11  1  0  0  0  0
 13 16  1  6  0  0  0
 13 12  1  0  0  0  0
 14 13  1  0  0  0  0
 15 14  2  0  0  0  0
 16 17  1  0  0  0  0
 18 19  1  0  0  0  0
 18 17  1  0  0  0  0
 19 17  1  0  0  0  0
 20 21  1  0  0  0  0
 22 27  1  6  0  0  0
 22 21  1  0  0  0  0
 24 23  1  6  0  0  0
 24 25  1  0  0  0  0
 26 22  1  1  0  0  0
 26 24  1  0  0  0  0
 26 25  1  0  0  0  0
 28 27  1  0  0  0  0
 29 28  1  0  0  0  0
 29 30  1  0  0  0  0
 30 32  1  0  0  0  0
 32 31  1  0  0  0  0
M  END
>  <MODEL>
1

>  <REMARK>
 VINA RESULT:      -6.0      0.000      0.000
  Name = 
  16 active torsions:
  status: ('A' for Active; 'I' for Inactive)
    1  A    between atoms: C_1  and  N_30
    2  A    between atoms: N_2  and  C_5
    3  A    between atoms: N_2  and  S_27
    4  A    between atoms: C_5  and  N_14
    5  A    between atoms: C_5  and  N_30
    6  A    between atoms: C_6  and  C_9
    7  A    between atoms: C_6  and  C_17
    8  A    between atoms: C_7  and  C_26
    9  A    between atoms: C_7  and  C_31
   10  A    between atoms: C_9  and  C_31
   11  A    between atoms: C_9  and  C_32
   12  A    between atoms: C_16  and  C_20
   13  A    between atoms: C_16  and  S_27
   14  A    between atoms: C_17  and  C_29
   15  A    between atoms: C_18  and  C_25
   16  A    between atoms: C_18  and  C_29
                            x       y       z     vdW  Elec       q    Type
                         _______ _______ _______ _____ _____    ______ ____

>  <TORSDO>
F 16

$$$$
=
 OpenBabel11052419213D

 32 34  0  0  1  0  0  0  0  0999 V2000
  189.4480  175.2010  146.7930 C   0  0  0  0  0  0  0  0  0  0  0  0
  188.8260  174.4150  147.7540 O   0  0  0  0  0  1  0  0  0  0  0  0
  190.6770  177.1440  145.1130 C   0  0  0  0  0  2  0  0  0  0  0  0
  190.9370  175.4140  146.8820 C   0  0  0  0  0  2  0  0  0  0  0  0
  189.2840  176.6340  144.7540 C   0  0  1  0  0  3  0  0  0  0  0  0
  188.6990  175.8000  145.8600 C   0  0  0  0  0  3  0  0  0  0  0  0
  191.5330  175.9810  145.5940 C   0  0  2  0  0  3  0  0  0  0  0  0
  188.3440  177.7880  144.4370 C   0  0  0  0  0  2  0  0  0  0  0  0
  188.6510  177.8490  141.7610 O   0  0  0  0  0  0  0  0  0  0  0  0
  187.0590  176.2260  142.6670 O   0  0  0  0  0  0  0  0  0  0  0  0
  187.6070  177.6180  142.8170 S   0  0  0  0  0  0  0  0  0  0  0  0
  186.3300  178.7740  142.6170 N   0  0  0  0  0  2  0  0  0  0  0  0
  185.0580  178.0870  142.8250 C   0  0  2  0  0  3  0  0  0  0  0  0
  184.2340  178.1860  141.6450 N   0  0  0  0  0  0  0  0  0  0  0  0
  184.7520  178.2250  140.5140 N   0  0  0  0  0  2  0  0  0  0  0  0
  184.3560  178.6220  143.9950 N   0  0  0  0  0  2  0  0  0  0  0  0
  184.8180  177.9620  145.2120 C   0  0  0  0  0  3  0  0  0  0  0  0
  185.3530  179.0060  146.1730 C   0  0  0  0  0  2  0  0  0  0  0  0
  183.9710  178.4240  146.3810 C   0  0  0  0  0  2  0  0  0  0  0  0
  192.9460  176.4610  145.8540 C   0  0  0  0  0  2  0  0  0  0  0  0
  193.8950  175.8640  144.8220 C   0  0  0  0  0  2  0  0  0  0  0  0
  193.2550  174.7200  144.0290 C   0  0  2  0  0  3  0  0  0  0  0  0
  193.8490  171.0560  144.6720 C   0  0  0  0  0  1  0  0  0  0  0  0
  193.3950  172.4550  145.0330 C   0  0  1  0  0  3  0  0  0  0  0  0
  194.5830  173.2530  145.5290 C   0  0  0  0  0  2  0  0  0  0  0  0
  194.0830  173.4440  144.1120 C   0  0  2  0  0  3  0  0  0  0  0  0
  193.0160  175.1160  142.5780 C   0  0  0  0  0  2  0  0  0  0  0  0
  191.5750  174.8300  142.1900 C   0  0  0  0  0  2  0  0  0  0  0  0
  191.4670  173.4970  141.4700 C   0  0  0  0  0  2  0  0  0  0  0  0
  190.7200  172.4890  142.3240 C   0  0  0  0  0  2  0  0  0  0  0  0
  189.8100  172.3360  144.6140 C   0  0  0  0  0  1  0  0  0  0  0  0
  189.9350  173.2190  143.3910 C   0  0  0  0  0  2  0  0  0  0  0  0
  1  4  1  0  0  0  0
  1  2  1  0  0  0  0
  3  7  1  0  0  0  0
  5  8  1  1  0  0  0
  5  3  1  0  0  0  0
  5  6  1  0  0  0  0
  6  1  2  0  0  0  0
  7 20  1  1  0  0  0
  7  4  1  0  0  0  0
  9 11  2  0  0  0  0
 10 11  2  0  0  0  0
 11  8  1  0  0  0  0
 12 11  1  0  0  0  0
 12 13  1  0  0  0  0
 13 14  1  6  0  0  0
 13 16  1  0  0  0  0
 15 14  2  0  0  0  0
 16 17  1  0  0  0  0
 17 18  1  0  0  0  0
 17 19  1  0  0  0  0
 18 19  1  0  0  0  0
 21 20  1  0  0  0  0
 22 27  1  6  0  0  0
 22 21  1  0  0  0  0
 24 23  1  6  0  0  0
 24 25  1  0  0  0  0
 26 22  1  1  0  0  0
 26 24  1  0  0  0  0
 26 25  1  0  0  0  0
 28 27  1  0  0  0  0
 29 28  1  0  0  0  0
 29 30  1  0  0  0  0
 30 32  1  0  0  0  0
 32 31  1  0  0  0  0
M  END
>  <MODEL>
2

>  <REMARK>
 VINA RESULT:      -5.9      1.905      2.901
  Name = 
  16 active torsions:
  status: ('A' for Active; 'I' for Inactive)
    1  A    between atoms: C_1  and  N_30
    2  A    between atoms: N_2  and  C_5
    3  A    between atoms: N_2  and  S_27
    4  A    between atoms: C_5  and  N_14
    5  A    between atoms: C_5  and  N_30
    6  A    between atoms: C_6  and  C_9
    7  A    between atoms: C_6  and  C_17
    8  A    between atoms: C_7  and  C_26
    9  A    between atoms: C_7  and  C_31
   10  A    between atoms: C_9  and  C_31
   11  A    between atoms: C_9  and  C_32
   12  A    between atoms: C_16  and  C_20
   13  A    between atoms: C_16  and  S_27
   14  A    between atoms: C_17  and  C_29
   15  A    between atoms: C_18  and  C_25
   16  A    between atoms: C_18  and  C_29
                            x       y       z     vdW  Elec       q    Type
                         _______ _______ _______ _____ _____    ______ ____

>  <TORSDO>
F 16

$$$$
=
 OpenBabel11052419213D

 32 34  0  0  1  0  0  0  0  0999 V2000
  188.8530  173.1470  140.1880 C   0  0  0  0  0  0  0  0  0  0  0  0
  188.4570  172.4120  139.0790 O   0  0  0  0  0  1  0  0  0  0  0  0
  189.3510  174.4330  142.6790 C   0  0  0  0  0  2  0  0  0  0  0  0
  189.8480  172.5400  141.1430 C   0  0  0  0  0  2  0  0  0  0  0  0
  188.6850  175.2280  141.5590 C   0  0  1  0  0  3  0  0  0  0  0  0
  188.2900  174.3400  140.4110 C   0  0  0  0  0  3  0  0  0  0  0  0
  190.4580  173.5680  142.0960 C   0  0  2  0  0  3  0  0  0  0  0  0
  187.4590  175.9720  142.0700 C   0  0  0  0  0  2  0  0  0  0  0  0
  188.7800  178.2670  141.5740 O   0  0  0  0  0  0  0  0  0  0  0  0
  186.9750  177.6600  140.0360 O   0  0  0  0  0  0  0  0  0  0  0  0
  187.4100  177.6560  141.4750 S   0  0  0  0  0  0  0  0  0  0  0  0
  186.3000  178.5930  142.4240 N   0  0  0  0  0  2  0  0  0  0  0  0
  185.1410  177.7570  142.7230 C   0  0  2  0  0  3  0  0  0  0  0  0
  184.0740  178.0210  141.7880 N   0  0  0  0  0  0  0  0  0  0  0  0
  182.9560  178.3890  142.1930 N   0  0  0  0  0  2  0  0  0  0  0  0
  184.6850  177.9620  144.1010 N   0  0  0  0  0  2  0  0  0  0  0  0
  185.7220  177.5590  145.0460 C   0  0  0  0  0  3  0  0  0  0  0  0
  185.6340  178.4300  146.2840 C   0  0  0  0  0  2  0  0  0  0  0  0
  185.0680  177.0270  146.3060 C   0  0  0  0  0  2  0  0  0  0  0  0
  191.1910  172.8550  143.2150 C   0  0  0  0  0  2  0  0  0  0  0  0
  191.4000  173.8060  144.3870 C   0  0  0  0  0  2  0  0  0  0  0  0
  192.6170  174.7150  144.1950 C   0  0  2  0  0  3  0  0  0  0  0  0
  195.9890  174.3420  145.8330 C   0  0  0  0  0  1  0  0  0  0  0  0
  194.8600  173.9300  144.9140 C   0  0  1  0  0  3  0  0  0  0  0  0
  193.8250  173.1590  145.7080 C   0  0  0  0  0  2  0  0  0  0  0  0
  193.5850  174.6150  145.3680 C   0  0  2  0  0  3  0  0  0  0  0  0
  192.1990  176.1600  143.9610 C   0  0  0  0  0  2  0  0  0  0  0  0
  191.6190  176.7470  145.2370 C   0  0  0  0  0  2  0  0  0  0  0  0
  190.2220  177.2890  144.9930 C   0  0  0  0  0  2  0  0  0  0  0  0
  189.3400  177.0600  146.2070 C   0  0  0  0  0  2  0  0  0  0  0  0
  189.2190  174.8390  147.2780 C   0  0  0  0  0  1  0  0  0  0  0  0
  188.7220  175.6820  146.1240 C   0  0  0  0  0  2  0  0  0  0  0  0
  1  6  2  0  0  0  0
  1  4  1  0  0  0  0
  2  1  1  0  0  0  0
  4  7  1  0  0  0  0
  5  8  1  1  0  0  0
  5  3  1  0  0  0  0
  6  5  1  0  0  0  0
  7  3  1  0  0  0  0
  7 20  1  1  0  0  0
 10 11  2  0  0  0  0
 11  9  2  0  0  0  0
 11  8  1  0  0  0  0
 11 12  1  0  0  0  0
 12 13  1  0  0  0  0
 13 14  1  6  0  0  0
 13 16  1  0  0  0  0
 14 15  2  0  0  0  0
 16 17  1  0  0  0  0
 17 18  1  0  0  0  0
 17 19  1  0  0  0  0
 18 19  1  0  0  0  0
 20 21  1  0  0  0  0
 22 27  1  1  0  0  0
 22 21  1  0  0  0  0
 24 26  1  0  0  0  0
 24 25  1  0  0  0  0
 24 23  1  1  0  0  0
 26 22  1  6  0  0  0
 26 25  1  0  0  0  0
 27 28  1  0  0  0  0
 29 28  1  0  0  0  0
 29 30  1  0  0  0  0
 32 30  1  0  0  0  0
 32 31  1  0  0  0  0
M  END
>  <MODEL>
3

>  <REMARK>
 VINA RESULT:      -5.7      2.453      4.360
  Name = 
  16 active torsions:
  status: ('A' for Active; 'I' for Inactive)
    1  A    between atoms: C_1  and  N_30
    2  A    between atoms: N_2  and  C_5
    3  A    between atoms: N_2  and  S_27
    4  A    between atoms: C_5  and  N_14
    5  A    between atoms: C_5  and  N_30
    6  A    between atoms: C_6  and  C_9
    7  A    between atoms: C_6  and  C_17
    8  A    between atoms: C_7  and  C_26
    9  A    between atoms: C_7  and  C_31
   10  A    between atoms: C_9  and  C_31
   11  A    between atoms: C_9  and  C_32
   12  A    between atoms: C_16  and  C_20
   13  A    between atoms: C_16  and  S_27
   14  A    between atoms: C_17  and  C_29
   15  A    between atoms: C_18  and  C_25
   16  A    between atoms: C_18  and  C_29
                            x       y       z     vdW  Elec       q    Type
                         _______ _______ _______ _____ _____    ______ ____

>  <TORSDO>
F 16

$$$$
=
 OpenBabel11052419213D

 32 34  0  0  1  0  0  0  0  0999 V2000
  190.5220  174.8320  141.9870 C   0  0  0  0  0  0  0  0  0  0  0  0
  189.8710  173.9120  141.1760 O   0  0  0  0  0  1  0  0  0  0  0  0
  191.8410  176.9870  143.3010 C   0  0  0  0  0  2  0  0  0  0  0  0
  189.7000  175.8530  142.7310 C   0  0  0  0  0  2  0  0  0  0  0  0
  192.6520  175.7540  142.9120 C   0  0  1  0  0  3  0  0  0  0  0  0
  191.8590  174.8270  142.0310 C   0  0  0  0  0  3  0  0  0  0  0  0
  190.4860  176.5530  143.8400 C   0  0  2  0  0  3  0  0  0  0  0  0
  193.9410  176.1470  142.2040 C   0  0  0  0  0  2  0  0  0  0  0  0
  196.5530  176.6430  142.6370 O   0  0  0  0  0  0  0  0  0  0  0  0
  195.0710  176.6800  144.5840 O   0  0  0  0  0  0  0  0  0  0  0  0
  195.3610  175.9920  143.2790 S   0  0  0  0  0  0  0  0  0  0  0  0
  195.7120  174.3180  143.5650 N   0  0  0  0  0  2  0  0  0  0  0  0
  195.4560  174.0340  144.9750 C   0  0  2  0  0  3  0  0  0  0  0  0
  196.6870  174.0660  145.7270 N   0  0  0  0  0  0  0  0  0  0  0  0
  197.0760  173.0580  146.3440 N   0  0  0  0  0  2  0  0  0  0  0  0
  194.7820  172.7430  145.1390 N   0  0  0  0  0  2  0  0  0  0  0  0
  193.9360  172.4590  143.9830 C   0  0  0  0  0  3  0  0  0  0  0  0
  193.5710  170.9880  143.9810 C   0  0  0  0  0  2  0  0  0  0  0  0
  192.5690  172.0150  144.4640 C   0  0  0  0  0  2  0  0  0  0  0  0
  189.7160  177.7650  144.3240 C   0  0  0  0  0  2  0  0  0  0  0  0
  188.2260  177.5660  144.0760 C   0  0  0  0  0  2  0  0  0  0  0  0
  187.4540  177.2610  145.3640 C   0  0  2  0  0  3  0  0  0  0  0  0
  184.0090  178.5450  146.1870 C   0  0  0  0  0  1  0  0  0  0  0  0
  185.0240  177.7690  145.3750 C   0  0  1  0  0  3  0  0  0  0  0  0
  185.6860  178.7000  144.3800 C   0  0  0  0  0  2  0  0  0  0  0  0
  186.4060  178.3270  145.6590 C   0  0  2  0  0  3  0  0  0  0  0  0
  188.3960  177.0880  146.5480 C   0  0  0  0  0  2  0  0  0  0  0  0
  188.5090  175.6170  146.9130 C   0  0  0  0  0  2  0  0  0  0  0  0
  189.9420  175.2580  147.2630 C   0  0  0  0  0  2  0  0  0  0  0  0
  190.7200  176.4980  147.6640 C   0  0  0  0  0  2  0  0  0  0  0  0
  192.3960  174.9680  146.6910 C   0  0  0  0  0  1  0  0  0  0  0  0
  192.1390  176.3860  147.1520 C   0  0  0  0  0  2  0  0  0  0  0  0
  1  6  2  0  0  0  0
  1  4  1  0  0  0  0
  2  1  1  0  0  0  0
  3  7  1  0  0  0  0
  4  7  1  0  0  0  0
  5  8  1  6  0  0  0
  5  3  1  0  0  0  0
  6  5  1  0  0  0  0
  7 20  1  6  0  0  0
  8 11  1  0  0  0  0
  9 11  2  0  0  0  0
 11 12  1  0  0  0  0
 11 10  2  0  0  0  0
 13 12  1  6  0  0  0
 13 16  1  0  0  0  0
 13 14  1  0  0  0  0
 14 15  2  0  0  0  0
 17 19  1  0  0  0  0
 17 16  1  0  0  0  0
 18 17  1  0  0  0  0
 18 19  1  0  0  0  0
 21 20  1  0  0  0  0
 22 21  1  6  0  0  0
 22 27  1  0  0  0  0
 24 26  1  0  0  0  0
 24 23  1  1  0  0  0
 25 24  1  0  0  0  0
 25 26  1  0  0  0  0
 26 22  1  6  0  0  0
 27 28  1  0  0  0  0
 28 29  1  0  0  0  0
 29 30  1  0  0  0  0
 31 32  1  0  0  0  0
 32 30  1  0  0  0  0
M  END
>  <MODEL>
4

>  <REMARK>
 VINA RESULT:      -5.6      5.449      8.551
  Name = 
  16 active torsions:
  status: ('A' for Active; 'I' for Inactive)
    1  A    between atoms: C_1  and  N_30
    2  A    between atoms: N_2  and  C_5
    3  A    between atoms: N_2  and  S_27
    4  A    between atoms: C_5  and  N_14
    5  A    between atoms: C_5  and  N_30
    6  A    between atoms: C_6  and  C_9
    7  A    between atoms: C_6  and  C_17
    8  A    between atoms: C_7  and  C_26
    9  A    between atoms: C_7  and  C_31
   10  A    between atoms: C_9  and  C_31
   11  A    between atoms: C_9  and  C_32
   12  A    between atoms: C_16  and  C_20
   13  A    between atoms: C_16  and  S_27
   14  A    between atoms: C_17  and  C_29
   15  A    between atoms: C_18  and  C_25
   16  A    between atoms: C_18  and  C_29
                            x       y       z     vdW  Elec       q    Type
                         _______ _______ _______ _____ _____    ______ ____

>  <TORSDO>
F 16

$$$$
=
 OpenBabel11052419213D

 32 34  0  0  1  0  0  0  0  0999 V2000
  190.2530  173.4990  144.0680 C   0  0  0  0  0  0  0  0  0  0  0  0
  189.7680  172.3420  144.6630 O   0  0  0  0  0  1  0  0  0  0  0  0
  191.3130  176.0160  143.2610 C   0  0  0  0  0  2  0  0  0  0  0  0
  191.7380  173.6370  143.8500 C   0  0  0  0  0  2  0  0  0  0  0  0
  189.8190  175.7550  143.0850 C   0  0  1  0  0  3  0  0  0  0  0  0
  189.3970  174.4830  143.7700 C   0  0  0  0  0  3  0  0  0  0  0  0
  192.0930  174.7660  142.8830 C   0  0  2  0  0  3  0  0  0  0  0  0
  188.9930  176.9170  143.6190 C   0  0  0  0  0  2  0  0  0  0  0  0
  188.4750  178.0290  141.2210 O   0  0  0  0  0  0  0  0  0  0  0  0
  186.9320  176.3000  142.0080 O   0  0  0  0  0  0  0  0  0  0  0  0
  187.7790  177.4690  142.4300 S   0  0  0  0  0  0  0  0  0  0  0  0
  186.7740  178.6980  143.1280 N   0  0  0  0  0  2  0  0  0  0  0  0
  185.9290  178.0720  144.1420 C   0  0  2  0  0  3  0  0  0  0  0  0
  184.5450  178.1120  143.7380 N   0  0  0  0  0  0  0  0  0  0  0  0
  183.7630  178.9380  144.2430 N   0  0  0  0  0  2  0  0  0  0  0  0
  186.1080  178.7160  145.4470 N   0  0  0  0  0  2  0  0  0  0  0  0
  186.7540  177.8000  146.3820 C   0  0  0  0  0  3  0  0  0  0  0  0
  186.2170  178.0520  147.7770 C   0  0  0  0  0  2  0  0  0  0  0  0
  185.7110  176.8730  146.9730 C   0  0  0  0  0  2  0  0  0  0  0  0
  193.5790  175.0510  142.9560 C   0  0  0  0  0  2  0  0  0  0  0  0
  193.8450  176.1730  143.9520 C   0  0  0  0  0  2  0  0  0  0  0  0
  194.9430  175.8160  144.9590 C   0  0  2  0  0  3  0  0  0  0  0  0
  196.6920  172.6350  145.9650 C   0  0  0  0  0  1  0  0  0  0  0  0
  196.5950  174.1240  145.7110 C   0  0  1  0  0  3  0  0  0  0  0  0
  196.8520  174.3980  144.2440 C   0  0  0  0  0  2  0  0  0  0  0  0
  195.4330  174.3850  144.7730 C   0  0  2  0  0  3  0  0  0  0  0  0
  194.4780  176.0450  146.3910 C   0  0  0  0  0  2  0  0  0  0  0  0
  192.9810  176.3040  146.4180 C   0  0  0  0  0  2  0  0  0  0  0  0
  192.2450  175.1360  147.0510 C   0  0  0  0  0  2  0  0  0  0  0  0
  191.1290  175.6330  147.9510 C   0  0  0  0  0  2  0  0  0  0  0  0
  188.9320  174.6510  147.3950 C   0  0  0  0  0  1  0  0  0  0  0  0
  189.8680  175.8110  147.1340 C   0  0  0  0  0  2  0  0  0  0  0  0
  1  2  1  0  0  0  0
  4  1  1  0  0  0  0
  5  3  1  0  0  0  0
  5  8  1  1  0  0  0
  5  6  1  0  0  0  0
  6  1  2  0  0  0  0
  7 20  1  1  0  0  0
  7  3  1  0  0  0  0
  7  4  1  0  0  0  0
  9 11  2  0  0  0  0
 10 11  2  0  0  0  0
 11 12  1  0  0  0  0
 11  8  1  0  0  0  0
 13 12  1  6  0  0  0
 13 16  1  0  0  0  0
 14 13  1  0  0  0  0
 14 15  2  0  0  0  0
 16 17  1  0  0  0  0
 17 19  1  0  0  0  0
 17 18  1  0  0  0  0
 19 18  1  0  0  0  0
 20 21  1  0  0  0  0
 22 21  1  6  0  0  0
 22 27  1  0  0  0  0
 24 23  1  6  0  0  0
 25 26  1  0  0  0  0
 25 24  1  0  0  0  0
 26 22  1  1  0  0  0
 26 24  1  0  0  0  0
 27 28  1  0  0  0  0
 28 29  1  0  0  0  0
 29 30  1  0  0  0  0
 32 31  1  0  0  0  0
 32 30  1  0  0  0  0
M  END
>  <MODEL>
5

>  <REMARK>
 VINA RESULT:      -5.6      2.222      4.049
  Name = 
  16 active torsions:
  status: ('A' for Active; 'I' for Inactive)
    1  A    between atoms: C_1  and  N_30
    2  A    between atoms: N_2  and  C_5
    3  A    between atoms: N_2  and  S_27
    4  A    between atoms: C_5  and  N_14
    5  A    between atoms: C_5  and  N_30
    6  A    between atoms: C_6  and  C_9
    7  A    between atoms: C_6  and  C_17
    8  A    between atoms: C_7  and  C_26
    9  A    between atoms: C_7  and  C_31
   10  A    between atoms: C_9  and  C_31
   11  A    between atoms: C_9  and  C_32
   12  A    between atoms: C_16  and  C_20
   13  A    between atoms: C_16  and  S_27
   14  A    between atoms: C_17  and  C_29
   15  A    between atoms: C_18  and  C_25
   16  A    between atoms: C_18  and  C_29
                            x       y       z     vdW  Elec       q    Type
                         _______ _______ _______ _____ _____    ______ ____

>  <TORSDO>
F 16

$$$$
=
 OpenBabel11052419213D

 32 34  0  0  1  0  0  0  0  0999 V2000
  190.9510  173.2520  144.7500 C   0  0  0  0  0  0  0  0  0  0  0  0
  190.8820  172.0340  144.0880 O   0  0  0  0  0  1  0  0  0  0  0  0
  190.9240  175.9220  145.7400 C   0  0  0  0  0  2  0  0  0  0  0  0
  189.7260  173.7590  145.4670 C   0  0  0  0  0  2  0  0  0  0  0  0
  192.2640  175.2770  145.3950 C   0  0  1  0  0  3  0  0  0  0  0  0
  192.0780  173.9690  144.6760 C   0  0  0  0  0  3  0  0  0  0  0  0
  190.0350  174.9020  146.4340 C   0  0  2  0  0  3  0  0  0  0  0  0
  193.1160  176.2080  144.5430 C   0  0  0  0  0  2  0  0  0  0  0  0
  194.8340  177.8380  145.8270 O   0  0  0  0  0  0  0  0  0  0  0  0
  194.9570  175.4500  146.3490 O   0  0  0  0  0  0  0  0  0  0  0  0
  194.7390  176.4530  145.2510 S   0  0  0  0  0  0  0  0  0  0  0  0
  195.9570  176.2600  144.0320 N   0  0  0  0  0  2  0  0  0  0  0  0
  195.5240  175.2050  143.1200 C   0  0  2  0  0  3  0  0  0  0  0  0
  196.1300  173.9470  143.4800 N   0  0  0  0  0  0  0  0  0  0  0  0
  195.4760  172.8900  143.4170 N   0  0  0  0  0  2  0  0  0  0  0  0
  195.8340  175.5510  141.7290 N   0  0  0  0  0  2  0  0  0  0  0  0
  194.6320  176.0080  141.0380 C   0  0  0  0  0  3  0  0  0  0  0  0
  194.4990  175.2620  139.7250 C   0  0  0  0  0  2  0  0  0  0  0  0
  193.6580  174.8530  140.9160 C   0  0  0  0  0  2  0  0  0  0  0  0
  188.7430  175.5630  146.8710 C   0  0  0  0  0  2  0  0  0  0  0  0
  188.7740  177.0450  146.5180 C   0  0  0  0  0  2  0  0  0  0  0  0
  187.6380  177.4450  145.5700 C   0  0  2  0  0  3  0  0  0  0  0  0
  184.1070  178.5380  146.2930 C   0  0  0  0  0  1  0  0  0  0  0  0
  185.6020  178.7320  146.1680 C   0  0  1  0  0  3  0  0  0  0  0  0
  186.2720  178.3050  147.4570 C   0  0  0  0  0  2  0  0  0  0  0  0
  186.2810  177.3790  146.2590 C   0  0  2  0  0  3  0  0  0  0  0  0
  187.6450  176.5950  144.3070 C   0  0  0  0  0  2  0  0  0  0  0  0
  188.5020  177.2560  143.2390 C   0  0  0  0  0  2  0  0  0  0  0  0
  187.6810  177.5490  141.9960 C   0  0  0  0  0  2  0  0  0  0  0  0
  186.6720  178.6490  142.2690 C   0  0  0  0  0  2  0  0  0  0  0  0
  184.3390  177.9730  142.7110 C   0  0  0  0  0  1  0  0  0  0  0  0
  185.3490  178.2870  141.6290 C   0  0  0  0  0  2  0  0  0  0  0  0
  1  4  1  0  0  0  0
  2  1  1  0  0  0  0
  3  7  1  0  0  0  0
  4  7  1  0  0  0  0
  5  8  1  6  0  0  0
  5  3  1  0  0  0  0
  6  1  2  0  0  0  0
  6  5  1  0  0  0  0
  7 20  1  6  0  0  0
  8 11  1  0  0  0  0
 11  9  2  0  0  0  0
 11 10  2  0  0  0  0
 12 11  1  0  0  0  0
 13 16  1  6  0  0  0
 13 14  1  0  0  0  0
 13 12  1  0  0  0  0
 15 14  2  0  0  0  0
 17 16  1  0  0  0  0
 18 19  1  0  0  0  0
 18 17  1  0  0  0  0
 19 17  1  0  0  0  0
 21 20  1  0  0  0  0
 22 27  1  6  0  0  0
 22 21  1  0  0  0  0
 24 26  1  0  0  0  0
 24 23  1  1  0  0  0
 24 25  1  0  0  0  0
 26 22  1  6  0  0  0
 26 25  1  0  0  0  0
 28 27  1  0  0  0  0
 29 30  1  0  0  0  0
 29 28  1  0  0  0  0
 32 30  1  0  0  0  0
 32 31  1  0  0  0  0
M  END
>  <MODEL>
6

>  <REMARK>
 VINA RESULT:      -5.6      5.390      8.003
  Name = 
  16 active torsions:
  status: ('A' for Active; 'I' for Inactive)
    1  A    between atoms: C_1  and  N_30
    2  A    between atoms: N_2  and  C_5
    3  A    between atoms: N_2  and  S_27
    4  A    between atoms: C_5  and  N_14
    5  A    between atoms: C_5  and  N_30
    6  A    between atoms: C_6  and  C_9
    7  A    between atoms: C_6  and  C_17
    8  A    between atoms: C_7  and  C_26
    9  A    between atoms: C_7  and  C_31
   10  A    between atoms: C_9  and  C_31
   11  A    between atoms: C_9  and  C_32
   12  A    between atoms: C_16  and  C_20
   13  A    between atoms: C_16  and  S_27
   14  A    between atoms: C_17  and  C_29
   15  A    between atoms: C_18  and  C_25
   16  A    between atoms: C_18  and  C_29
                            x       y       z     vdW  Elec       q    Type
                         _______ _______ _______ _____ _____    ______ ____

>  <TORSDO>
F 16

$$$$
=
 OpenBabel11052419213D

 32 34  0  0  1  0  0  0  0  0999 V2000
  189.6440  175.0950  146.5750 C   0  0  0  0  0  0  0  0  0  0  0  0
  188.9630  174.2210  147.4110 O   0  0  0  0  0  1  0  0  0  0  0  0
  190.9670  177.1920  145.1740 C   0  0  0  0  0  2  0  0  0  0  0  0
  191.1180  175.3140  146.7990 C   0  0  0  0  0  2  0  0  0  0  0  0
  189.6140  176.7020  144.6620 C   0  0  1  0  0  3  0  0  0  0  0  0
  188.9600  175.7670  145.6420 C   0  0  0  0  0  3  0  0  0  0  0  0
  191.8020  175.9990  145.6170 C   0  0  2  0  0  3  0  0  0  0  0  0
  188.6820  177.8710  144.3750 C   0  0  0  0  0  2  0  0  0  0  0  0
  188.8800  178.2210  141.7110 O   0  0  0  0  0  0  0  0  0  0  0  0
  187.5950  176.2900  142.4930 O   0  0  0  0  0  0  0  0  0  0  0  0
  187.9240  177.7320  142.7630 S   0  0  0  0  0  0  0  0  0  0  0  0
  186.4760  178.6840  142.7010 N   0  0  0  0  0  2  0  0  0  0  0  0
  185.3330  177.7830  142.8260 C   0  0  2  0  0  3  0  0  0  0  0  0
  184.6480  177.6590  141.5630 N   0  0  0  0  0  0  0  0  0  0  0  0
  184.5690  178.6300  140.7890 N   0  0  0  0  0  2  0  0  0  0  0  0
  184.4140  178.2410  143.8720 N   0  0  0  0  0  2  0  0  0  0  0  0
  185.1470  178.5510  145.0960 C   0  0  0  0  0  3  0  0  0  0  0  0
  184.2310  178.3600  146.2880 C   0  0  0  0  0  2  0  0  0  0  0  0
  185.2530  177.2990  145.9440 C   0  0  0  0  0  2  0  0  0  0  0  0
  193.1830  176.4680  146.0290 C   0  0  0  0  0  2  0  0  0  0  0  0
  194.0690  176.6160  144.7980 C   0  0  0  0  0  2  0  0  0  0  0  0
  195.3970  175.8660  144.9380 C   0  0  2  0  0  3  0  0  0  0  0  0
  197.9130  175.2300  142.2080 C   0  0  0  0  0  1  0  0  0  0  0  0
  197.1130  176.0930  143.1600 C   0  0  1  0  0  3  0  0  0  0  0  0
  195.7650  176.4020  142.5410 C   0  0  0  0  0  2  0  0  0  0  0  0
  195.8820  175.3240  143.5990 C   0  0  2  0  0  3  0  0  0  0  0  0
  195.2970  174.7490  145.9680 C   0  0  0  0  0  2  0  0  0  0  0  0
  195.2680  173.3990  145.2710 C   0  0  0  0  0  2  0  0  0  0  0  0
  193.9210  172.7240  145.4610 C   0  0  0  0  0  2  0  0  0  0  0  0
  193.2220  172.5430  144.1260 C   0  0  0  0  0  2  0  0  0  0  0  0
  191.1380  173.4680  143.1780 C   0  0  0  0  0  1  0  0  0  0  0  0
  191.7270  172.6700  144.3220 C   0  0  0  0  0  2  0  0  0  0  0  0
  1  4  1  0  0  0  0
  1  2  1  0  0  0  0
  3  7  1  0  0  0  0
  5  8  1  1  0  0  0
  5  3  1  0  0  0  0
  5  6  1  0  0  0  0
  6  1  2  0  0  0  0
  7 20  1  1  0  0  0
  7  4  1  0  0  0  0
  9 11  2  0  0  0  0
 10 11  2  0  0  0  0
 11  8  1  0  0  0  0
 12 11  1  0  0  0  0
 12 13  1  0  0  0  0
 13 14  1  6  0  0  0
 13 16  1  0  0  0  0
 15 14  2  0  0  0  0
 16 17  1  0  0  0  0
 17 19  1  0  0  0  0
 17 18  1  0  0  0  0
 19 18  1  0  0  0  0
 21 20  1  0  0  0  0
 22 21  1  6  0  0  0
 22 27  1  0  0  0  0
 24 23  1  6  0  0  0
 24 26  1  0  0  0  0
 25 24  1  0  0  0  0
 25 26  1  0  0  0  0
 26 22  1  1  0  0  0
 28 29  1  0  0  0  0
 28 27  1  0  0  0  0
 30 32  1  0  0  0  0
 30 29  1  0  0  0  0
 31 32  1  0  0  0  0
M  END
>  <MODEL>
7

>  <REMARK>
 VINA RESULT:      -5.6      2.115      3.402
  Name = 
  16 active torsions:
  status: ('A' for Active; 'I' for Inactive)
    1  A    between atoms: C_1  and  N_30
    2  A    between atoms: N_2  and  C_5
    3  A    between atoms: N_2  and  S_27
    4  A    between atoms: C_5  and  N_14
    5  A    between atoms: C_5  and  N_30
    6  A    between atoms: C_6  and  C_9
    7  A    between atoms: C_6  and  C_17
    8  A    between atoms: C_7  and  C_26
    9  A    between atoms: C_7  and  C_31
   10  A    between atoms: C_9  and  C_31
   11  A    between atoms: C_9  and  C_32
   12  A    between atoms: C_16  and  C_20
   13  A    between atoms: C_16  and  S_27
   14  A    between atoms: C_17  and  C_29
   15  A    between atoms: C_18  and  C_25
   16  A    between atoms: C_18  and  C_29
                            x       y       z     vdW  Elec       q    Type
                         _______ _______ _______ _____ _____    ______ ____

>  <TORSDO>
F 16

$$$$
=
 OpenBabel11052419213D

 32 34  0  0  1  0  0  0  0  0999 V2000
  188.6270  175.5360  146.8380 C   0  0  0  0  0  0  0  0  0  0  0  0
  188.7090  174.4990  147.7570 O   0  0  0  0  0  1  0  0  0  0  0  0
  188.5780  177.9240  145.2880 C   0  0  0  0  0  2  0  0  0  0  0  0
  189.8820  175.9810  146.1320 C   0  0  0  0  0  2  0  0  0  0  0  0
  187.2550  177.2560  145.6540 C   0  0  1  0  0  3  0  0  0  0  0  0
  187.4540  176.1530  146.6570 C   0  0  0  0  0  3  0  0  0  0  0  0
  189.5970  176.8590  144.9140 C   0  0  2  0  0  3  0  0  0  0  0  0
  186.2630  178.2700  146.2040 C   0  0  0  0  0  2  0  0  0  0  0  0
  183.7420  178.9880  145.5800 O   0  0  0  0  0  0  0  0  0  0  0  0
  185.5540  180.1090  144.3760 O   0  0  0  0  0  0  0  0  0  0  0  0
  185.0970  178.8000  144.9570 S   0  0  0  0  0  0  0  0  0  0  0  0
  184.9850  177.6100  143.7000 N   0  0  0  0  0  2  0  0  0  0  0  0
  184.7280  178.3010  142.4400 C   0  0  2  0  0  3  0  0  0  0  0  0
  183.3780  178.0530  141.9950 N   0  0  0  0  0  0  0  0  0  0  0  0
  183.0360  178.3340  140.8320 N   0  0  0  0  0  2  0  0  0  0  0  0
  185.6950  177.9030  141.4140 N   0  0  0  0  0  2  0  0  0  0  0  0
  186.7270  177.0460  141.9900 C   0  0  0  0  0  3  0  0  0  0  0  0
  187.5260  176.4060  140.8720 C   0  0  0  0  0  2  0  0  0  0  0  0
  188.0920  177.5930  141.6230 C   0  0  0  0  0  2  0  0  0  0  0  0
  190.8800  177.5200  144.4500 C   0  0  0  0  0  2  0  0  0  0  0  0
  191.3370  176.9010  143.1350 C   0  0  0  0  0  2  0  0  0  0  0  0
  192.4240  175.8400  143.3330 C   0  0  2  0  0  3  0  0  0  0  0  0
  192.1940  172.1570  142.5790 C   0  0  0  0  0  1  0  0  0  0  0  0
  192.2540  173.6260  142.2240 C   0  0  1  0  0  3  0  0  0  0  0  0
  190.8600  174.2150  142.2950 C   0  0  0  0  0  2  0  0  0  0  0  0
  191.8330  174.4390  143.4330 C   0  0  2  0  0  3  0  0  0  0  0  0
  193.2870  176.1510  144.5490 C   0  0  0  0  0  2  0  0  0  0  0  0
  194.7190  176.4200  144.1150 C   0  0  0  0  0  2  0  0  0  0  0  0
  195.6980  175.6550  144.9880 C   0  0  0  0  0  2  0  0  0  0  0  0
  194.9810  174.5700  145.7700 C   0  0  0  0  0  2  0  0  0  0  0  0
  196.7890  172.9250  146.1230 C   0  0  0  0  0  1  0  0  0  0  0  0
  195.5180  173.2170  145.3560 C   0  0  0  0  0  2  0  0  0  0  0  0
  1  2  1  0  0  0  0
  3  5  1  0  0  0  0
  4  1  1  0  0  0  0
  5  8  1  1  0  0  0
  5  6  1  0  0  0  0
  6  1  2  0  0  0  0
  7 20  1  1  0  0  0
  7  3  1  0  0  0  0
  7  4  1  0  0  0  0
 10 11  2  0  0  0  0
 11  9  2  0  0  0  0
 11  8  1  0  0  0  0
 12 11  1  0  0  0  0
 13 16  1  6  0  0  0
 13 12  1  0  0  0  0
 14 13  1  0  0  0  0
 15 14  2  0  0  0  0
 16 17  1  0  0  0  0
 18 19  1  0  0  0  0
 18 17  1  0  0  0  0
 19 17  1  0  0  0  0
 21 20  1  0  0  0  0
 22 21  1  1  0  0  0
 22 27  1  0  0  0  0
 24 25  1  0  0  0  0
 24 23  1  1  0  0  0
 24 26  1  0  0  0  0
 25 26  1  0  0  0  0
 26 22  1  6  0  0  0
 28 27  1  0  0  0  0
 28 29  1  0  0  0  0
 29 30  1  0  0  0  0
 32 30  1  0  0  0  0
 32 31  1  0  0  0  0
M  END
>  <MODEL>
8

>  <REMARK>
 VINA RESULT:      -5.4      0.869      2.864
  Name = 
  16 active torsions:
  status: ('A' for Active; 'I' for Inactive)
    1  A    between atoms: C_1  and  N_30
    2  A    between atoms: N_2  and  C_5
    3  A    between atoms: N_2  and  S_27
    4  A    between atoms: C_5  and  N_14
    5  A    between atoms: C_5  and  N_30
    6  A    between atoms: C_6  and  C_9
    7  A    between atoms: C_6  and  C_17
    8  A    between atoms: C_7  and  C_26
    9  A    between atoms: C_7  and  C_31
   10  A    between atoms: C_9  and  C_31
   11  A    between atoms: C_9  and  C_32
   12  A    between atoms: C_16  and  C_20
   13  A    between atoms: C_16  and  S_27
   14  A    between atoms: C_17  and  C_29
   15  A    between atoms: C_18  and  C_25
   16  A    between atoms: C_18  and  C_29
                            x       y       z     vdW  Elec       q    Type
                         _______ _______ _______ _____ _____    ______ ____

>  <TORSDO>
F 16

$$$$
=
 OpenBabel11052419213D

 32 34  0  0  1  0  0  0  0  0999 V2000
  189.7590  175.3250  146.7840 C   0  0  0  0  0  0  0  0  0  0  0  0
  189.0220  174.5110  147.6330 O   0  0  0  0  0  1  0  0  0  0  0  0
  191.1840  176.6930  144.7320 C   0  0  0  0  0  2  0  0  0  0  0  0
  189.0300  176.3220  145.9210 C   0  0  0  0  0  2  0  0  0  0  0  0
  191.9710  176.0140  145.8500 C   0  0  1  0  0  3  0  0  0  0  0  0
  191.0830  175.1530  146.7070 C   0  0  0  0  0  3  0  0  0  0  0  0
  189.9580  177.3770  145.3190 C   0  0  2  0  0  3  0  0  0  0  0  0
  193.1060  175.1700  145.2870 C   0  0  0  0  0  2  0  0  0  0  0  0
  194.5230  177.1850  146.3770 O   0  0  0  0  0  0  0  0  0  0  0  0
  195.4860  174.9390  146.5130 O   0  0  0  0  0  0  0  0  0  0  0  0
  194.7040  175.8850  145.6450 S   0  0  0  0  0  0  0  0  0  0  0  0
  195.5700  176.1790  144.1710 N   0  0  0  0  0  2  0  0  0  0  0  0
  196.0500  174.8970  143.6620 C   0  0  2  0  0  3  0  0  0  0  0  0
  197.4700  174.7680  143.8790 N   0  0  0  0  0  0  0  0  0  0  0  0
  197.9390  173.7380  144.3960 N   0  0  0  0  0  2  0  0  0  0  0  0
  195.7250  174.7390  142.2420 N   0  0  0  0  0  2  0  0  0  0  0  0
  194.7070  175.7060  141.8410 C   0  0  0  0  0  3  0  0  0  0  0  0
  194.4150  175.5390  140.3630 C   0  0  0  0  0  2  0  0  0  0  0  0
  193.4640  174.9630  141.3910 C   0  0  0  0  0  2  0  0  0  0  0  0
  189.2280  178.1380  144.2310 C   0  0  0  0  0  2  0  0  0  0  0  0
  189.3980  177.4250  142.8950 C   0  0  0  0  0  2  0  0  0  0  0  0
  188.1170  176.7180  142.4410 C   0  0  2  0  0  3  0  0  0  0  0  0
  188.1050  173.0710  141.4970 C   0  0  0  0  0  1  0  0  0  0  0  0
  188.3930  174.2520  142.3990 C   0  0  1  0  0  3  0  0  0  0  0  0
  189.7180  174.8700  142.0040 C   0  0  0  0  0  2  0  0  0  0  0  0
  188.4220  175.5130  141.5580 C   0  0  2  0  0  3  0  0  0  0  0  0
  187.1720  177.6810  141.7350 C   0  0  0  0  0  2  0  0  0  0  0  0
  185.8540  177.7620  142.4870 C   0  0  0  0  0  2  0  0  0  0  0  0
  185.7500  179.0720  143.2480 C   0  0  0  0  0  2  0  0  0  0  0  0
  185.6800  178.8170  144.7420 C   0  0  0  0  0  2  0  0  0  0  0  0
  185.4580  177.0760  146.4800 C   0  0  0  0  0  1  0  0  0  0  0  0
  185.4900  177.3360  144.9900 C   0  0  0  0  0  2  0  0  0  0  0  0
  1  2  1  0  0  0  0
  3  7  1  0  0  0  0
  3  5  1  0  0  0  0
  4  1  1  0  0  0  0
  5  8  1  6  0  0  0
  5  6  1  0  0  0  0
  6  1  2  0  0  0  0
  7 20  1  6  0  0  0
  7  4  1  0  0  0  0
  8 11  1  0  0  0  0
 11  9  2  0  0  0  0
 11 10  2  0  0  0  0
 12 11  1  0  0  0  0
 13 16  1  6  0  0  0
 13 14  1  0  0  0  0
 13 12  1  0  0  0  0
 14 15  2  0  0  0  0
 17 16  1  0  0  0  0
 18 19  1  0  0  0  0
 18 17  1  0  0  0  0
 19 17  1  0  0  0  0
 21 20  1  0  0  0  0
 22 27  1  6  0  0  0
 22 21  1  0  0  0  0
 24 23  1  6  0  0  0
 25 24  1  0  0  0  0
 26 25  1  0  0  0  0
 26 24  1  0  0  0  0
 26 22  1  1  0  0  0
 27 28  1  0  0  0  0
 28 29  1  0  0  0  0
 29 30  1  0  0  0  0
 30 32  1  0  0  0  0
 32 31  1  0  0  0  0
M  END
>  <MODEL>
9

>  <REMARK>
 VINA RESULT:      -5.4      5.004      7.807
  Name = 
  16 active torsions:
  status: ('A' for Active; 'I' for Inactive)
    1  A    between atoms: C_1  and  N_30
    2  A    between atoms: N_2  and  C_5
    3  A    between atoms: N_2  and  S_27
    4  A    between atoms: C_5  and  N_14
    5  A    between atoms: C_5  and  N_30
    6  A    between atoms: C_6  and  C_9
    7  A    between atoms: C_6  and  C_17
    8  A    between atoms: C_7  and  C_26
    9  A    between atoms: C_7  and  C_31
   10  A    between atoms: C_9  and  C_31
   11  A    between atoms: C_9  and  C_32
   12  A    between atoms: C_16  and  C_20
   13  A    between atoms: C_16  and  S_27
   14  A    between atoms: C_17  and  C_29
   15  A    between atoms: C_18  and  C_25
   16  A    between atoms: C_18  and  C_29
                            x       y       z     vdW  Elec       q    Type
                         _______ _______ _______ _____ _____    ______ ____

>  <TORSDO>
F 16

$$$$
