=
 OpenBabel11052417213D

 30 34  0  0  1  0  0  0  0  0999 V2000
  191.1600  173.5670  145.0950 C   0  0  0  0  0  2  0  0  0  0  0  0
  192.8510  173.8600  143.2810 C   0  0  0  0  0  0  0  0  0  0  0  0
  193.0440  175.9190  145.9880 C   0  0  0  0  0  2  0  0  0  0  0  0
  189.6940  174.0240  145.1130 C   0  0  2  0  0  3  0  0  0  0  0  0
  189.2170  174.7330  143.8270 C   0  0  2  0  0  3  0  0  0  0  0  0
  185.7190  177.6260  144.9470 C   0  0  0  0  0  2  0  0  0  0  0  0
  188.1620  175.7480  144.0650 N   0  0  0  0  0  0  0  0  0  0  0  0
  189.0170  176.6870  147.5940 O   0  0  0  0  0  0  0  0  0  0  0  0
  192.2590  176.5660  147.1200 C   0  0  0  0  0  2  0  0  0  0  0  0
  188.8210  173.6330  142.8390 C   0  0  0  0  0  1  0  0  0  0  0  0
  188.8680  176.9960  144.3540 C   0  0  0  0  0  2  0  0  0  0  0  0
  193.6050  174.7240  142.3190 C   0  0  0  0  0  2  0  0  0  0  0  0
  187.9420  177.1690  146.8080 C   0  0  2  0  0  3  0  0  0  0  0  0
  185.6490  176.6220  146.0750 C   0  0  0  0  0  3  0  0  0  0  0  0
  192.8920  172.6110  143.1330 O   0  0  0  0  0  0  0  0  0  0  0  0
  192.2020  175.8450  144.7220 C   0  0  2  0  0  3  0  0  0  0  0  0
  194.0020  176.0470  142.9610 C   0  0  0  0  0  2  0  0  0  0  0  0
  192.0250  174.4460  144.3040 N   0  0  0  0  0  0  0  0  0  0  0  0
  189.2280  174.5540  146.4710 C   0  0  0  0  0  2  0  0  0  0  0  0
  191.1560  175.6420  147.6100 C   0  0  0  0  0  2  0  0  0  0  0  0
  189.8790  175.8860  146.8260 C   0  0  2  0  0  3  0  0  0  0  0  0
  186.6750  176.3700  146.8990 C   0  0  0  0  0  3  0  0  0  0  0  0
  186.9360  178.5620  144.9990 C   0  0  0  0  0  2  0  0  0  0  0  0
  192.8060  176.7260  143.6250 C   0  0  1  0  0  3  0  0  0  0  0  0
  191.7540  177.1210  142.6020 C   0  0  0  0  0  1  0  0  0  0  0  0
  188.2130  177.8540  145.4560 C   0  0  2  0  0  3  0  0  0  0  0  0
  187.4300  176.0260  142.8270 C   0  0  0  0  0  2  0  0  0  0  0  0
  187.2960  178.1060  141.6830 O   0  0  0  0  0  0  0  0  0  0  0  0
  187.5390  177.1700  140.6650 C   0  0  0  0  0  2  0  0  0  0  0  0
  188.1750  177.0520  141.9940 C   0  0  2  0  0  3  0  0  0  0  0  0
  2 18  1  0  0  0  0
  3  9  1  0  0  0  0
  4  1  1  1  0  0  0
  4 19  1  0  0  0  0
  5 10  1  6  0  0  0
  5  7  1  0  0  0  0
  5  4  1  0  0  0  0
  6 23  1  0  0  0  0
  6 14  1  0  0  0  0
  7 11  1  0  0  0  0
  9 20  1  0  0  0  0
 12 17  1  0  0  0  0
 12  2  1  0  0  0  0
 13 22  1  6  0  0  0
 13  8  1  0  0  0  0
 14 22  2  0  0  0  0
 15  2  2  0  0  0  0
 16  3  1  1  0  0  0
 17 24  1  0  0  0  0
 18 16  1  0  0  0  0
 18  1  1  0  0  0  0
 21 19  1  1  0  0  0
 21  8  1  0  0  0  0
 21 20  1  0  0  0  0
 23 26  1  0  0  0  0
 24 25  1  6  0  0  0
 24 16  1  0  0  0  0
 26 11  1  6  0  0  0
 26 13  1  0  0  0  0
 27  7  1  0  0  0  0
 28 30  1  0  0  0  0
 29 28  1  0  0  0  0
 29 30  1  0  0  0  0
 30 27  1  1  0  0  0
M  END
>  <MODEL>
1

>  <REMARK>
 VINA RESULT:      -7.6      0.000      0.000
  Name = 
  2 active torsions:
  status: ('A' for Active; 'I' for Inactive)
    1  A    between atoms: C_6  and  N_8
    2  A    between atoms: C_6  and  C_21
                            x       y       z     vdW  Elec       q    Type
                         _______ _______ _______ _____ _____    ______ ____

>  <TORSDO>
F 2

$$$$
=
 OpenBabel11052417213D

 30 34  0  0  1  0  0  0  0  0999 V2000
  193.8170  173.5780  145.4650 C   0  0  0  0  0  2  0  0  0  0  0  0
  195.1040  173.2740  143.3470 C   0  0  0  0  0  0  0  0  0  0  0  0
  195.2830  176.3000  144.9010 C   0  0  0  0  0  2  0  0  0  0  0  0
  192.3090  173.8110  145.6380 C   0  0  2  0  0  3  0  0  0  0  0  0
  191.4990  173.8350  144.3240 C   0  0  2  0  0  3  0  0  0  0  0  0
  187.6910  176.4670  144.9850 C   0  0  0  0  0  2  0  0  0  0  0  0
  190.3050  174.7140  144.3780 N   0  0  0  0  0  0  0  0  0  0  0  0
  191.4850  177.1720  146.9530 O   0  0  0  0  0  0  0  0  0  0  0  0
  194.5660  177.2660  145.8350 C   0  0  0  0  0  2  0  0  0  0  0  0
  191.1930  172.3770  143.9690 C   0  0  0  0  0  1  0  0  0  0  0  0
  190.7700  176.0420  143.9820 C   0  0  0  0  0  2  0  0  0  0  0  0
  195.5000  173.7300  141.9780 C   0  0  0  0  0  2  0  0  0  0  0  0
  190.2240  177.1320  146.3100 C   0  0  2  0  0  3  0  0  0  0  0  0
  188.0110  176.0430  146.4000 C   0  0  0  0  0  3  0  0  0  0  0  0
  195.3830  172.0970  143.6990 O   0  0  0  0  0  0  0  0  0  0  0  0
  194.2870  175.5860  143.9970 C   0  0  2  0  0  3  0  0  0  0  0  0
  195.7070  175.2380  141.9370 C   0  0  0  0  0  2  0  0  0  0  0  0
  194.3440  174.1330  144.2170 N   0  0  0  0  0  0  0  0  0  0  0  0
  191.9610  174.8080  146.7450 C   0  0  0  0  0  2  0  0  0  0  0  0
  193.7710  176.5110  146.8880 C   0  0  0  0  0  2  0  0  0  0  0  0
  192.3650  176.2340  146.3870 C   0  0  2  0  0  3  0  0  0  0  0  0
  189.1830  176.2980  146.9970 C   0  0  0  0  0  3  0  0  0  0  0  0
  188.6780  177.4790  144.3830 C   0  0  0  0  0  2  0  0  0  0  0  0
  194.5140  175.9810  142.5350 C   0  0  1  0  0  3  0  0  0  0  0  0
  193.2560  175.7640  141.7110 C   0  0  0  0  0  1  0  0  0  0  0  0
  190.1310  177.2010  144.7750 C   0  0  2  0  0  3  0  0  0  0  0  0
  189.3470  174.3400  143.3360 C   0  0  0  0  0  2  0  0  0  0  0  0
  188.5610  175.2650  141.2900 O   0  0  0  0  0  0  0  0  0  0  0  0
  189.2760  174.1230  140.8970 C   0  0  0  0  0  2  0  0  0  0  0  0
  189.7330  174.9770  142.0130 C   0  0  2  0  0  3  0  0  0  0  0  0
  2 15  2  0  0  0  0
  2 18  1  0  0  0  0
  3  9  1  0  0  0  0
  4  1  1  6  0  0  0
  4 19  1  0  0  0  0
  5 10  1  1  0  0  0
  5  7  1  0  0  0  0
  5  4  1  0  0  0  0
  6 14  1  0  0  0  0
  9 20  1  0  0  0  0
 11  7  1  0  0  0  0
 12  2  1  0  0  0  0
 13  8  1  0  0  0  0
 13 22  1  6  0  0  0
 14 22  2  0  0  0  0
 16 18  1  0  0  0  0
 16  3  1  1  0  0  0
 17 12  1  0  0  0  0
 17 24  1  0  0  0  0
 18  1  1  0  0  0  0
 21 19  1  1  0  0  0
 21 20  1  0  0  0  0
 21  8  1  0  0  0  0
 23 26  1  0  0  0  0
 23  6  1  0  0  0  0
 24 25  1  6  0  0  0
 24 16  1  0  0  0  0
 26 11  1  6  0  0  0
 26 13  1  0  0  0  0
 27  7  1  0  0  0  0
 28 30  1  0  0  0  0
 29 28  1  0  0  0  0
 29 30  1  0  0  0  0
 30 27  1  1  0  0  0
M  END
>  <MODEL>
2

>  <REMARK>
 VINA RESULT:      -7.2      1.858      2.528
  Name = 
  2 active torsions:
  status: ('A' for Active; 'I' for Inactive)
    1  A    between atoms: C_6  and  N_8
    2  A    between atoms: C_6  and  C_21
                            x       y       z     vdW  Elec       q    Type
                         _______ _______ _______ _____ _____    ______ ____

>  <TORSDO>
F 2

$$$$
=
 OpenBabel11052417213D

 30 34  0  0  1  0  0  0  0  0999 V2000
  191.6180  173.4250  145.3830 C   0  0  0  0  0  2  0  0  0  0  0  0
  193.3450  172.4050  143.8950 C   0  0  0  0  0  0  0  0  0  0  0  0
  193.6710  175.7010  144.6890 C   0  0  0  0  0  2  0  0  0  0  0  0
  190.1920  173.8670  145.0230 C   0  0  2  0  0  3  0  0  0  0  0  0
  189.7850  173.6190  143.5540 C   0  0  2  0  0  3  0  0  0  0  0  0
  186.5120  176.7480  142.3840 C   0  0  0  0  0  2  0  0  0  0  0  0
  188.8100  174.6090  143.0340 N   0  0  0  0  0  0  0  0  0  0  0  0
  189.7000  177.5320  145.2090 O   0  0  0  0  0  0  0  0  0  0  0  0
  192.9280  176.9620  145.1080 C   0  0  0  0  0  2  0  0  0  0  0  0
  189.3140  172.1650  143.4670 C   0  0  0  0  0  1  0  0  0  0  0  0
  189.6080  175.7150  142.5060 C   0  0  0  0  0  2  0  0  0  0  0  0
  194.1730  172.4170  142.6490 C   0  0  0  0  0  2  0  0  0  0  0  0
  188.6740  177.4600  144.2360 C   0  0  2  0  0  3  0  0  0  0  0  0
  186.3530  176.6960  143.8860 C   0  0  0  0  0  3  0  0  0  0  0  0
  193.2900  171.3470  144.5760 O   0  0  0  0  0  0  0  0  0  0  0  0
  192.8380  174.8830  143.7110 C   0  0  2  0  0  3  0  0  0  0  0  0
  194.6670  173.8210  142.3280 C   0  0  0  0  0  2  0  0  0  0  0  0
  192.5570  173.5510  144.2660 N   0  0  0  0  0  0  0  0  0  0  0  0
  189.7560  175.1640  145.7080 C   0  0  0  0  0  2  0  0  0  0  0  0
  191.7510  176.6220  146.0070 C   0  0  0  0  0  2  0  0  0  0  0  0
  190.5040  176.3800  145.1740 C   0  0  2  0  0  3  0  0  0  0  0  0
  187.3480  176.9710  144.7400 C   0  0  0  0  0  3  0  0  0  0  0  0
  187.7980  177.4350  141.9000 C   0  0  0  0  0  2  0  0  0  0  0  0
  193.5200  174.8310  142.3410 C   0  0  1  0  0  3  0  0  0  0  0  0
  192.5120  174.5410  141.2420 C   0  0  0  0  0  1  0  0  0  0  0  0
  189.0110  177.1120  142.7750 C   0  0  2  0  0  3  0  0  0  0  0  0
  188.1140  174.0750  141.8620 C   0  0  0  0  0  2  0  0  0  0  0  0
  188.1910  174.5410  139.5310 O   0  0  0  0  0  0  0  0  0  0  0  0
  188.5700  173.1920  139.6230 C   0  0  0  0  0  2  0  0  0  0  0  0
  188.9950  174.1860  140.6300 C   0  0  2  0  0  3  0  0  0  0  0  0
  2 18  1  0  0  0  0
  2 15  2  0  0  0  0
  3  9  1  0  0  0  0
  4  1  1  6  0  0  0
  4 19  1  0  0  0  0
  5 10  1  1  0  0  0
  5  4  1  0  0  0  0
  6 14  1  0  0  0  0
  7  5  1  0  0  0  0
  9 20  1  0  0  0  0
 11 26  1  0  0  0  0
 11  7  1  0  0  0  0
 12  2  1  0  0  0  0
 13 22  1  1  0  0  0
 13  8  1  0  0  0  0
 14 22  2  0  0  0  0
 16 18  1  0  0  0  0
 16  3  1  1  0  0  0
 17 24  1  0  0  0  0
 17 12  1  0  0  0  0
 18  1  1  0  0  0  0
 21  8  1  0  0  0  0
 21 19  1  1  0  0  0
 21 20  1  0  0  0  0
 23  6  1  0  0  0  0
 24 25  1  6  0  0  0
 24 16  1  0  0  0  0
 26 23  1  6  0  0  0
 26 13  1  0  0  0  0
 27  7  1  0  0  0  0
 28 29  1  0  0  0  0
 28 30  1  0  0  0  0
 29 30  1  0  0  0  0
 30 27  1  1  0  0  0
M  END
>  <MODEL>
3

>  <REMARK>
 VINA RESULT:      -7.1      1.716      2.380
  Name = 
  2 active torsions:
  status: ('A' for Active; 'I' for Inactive)
    1  A    between atoms: C_6  and  N_8
    2  A    between atoms: C_6  and  C_21
                            x       y       z     vdW  Elec       q    Type
                         _______ _______ _______ _____ _____    ______ ____

>  <TORSDO>
F 2

$$$$
=
 OpenBabel11052417213D

 30 34  0  0  1  0  0  0  0  0999 V2000
  191.8220  177.1560  144.0750 C   0  0  0  0  0  2  0  0  0  0  0  0
  189.3670  176.9720  144.4940 C   0  0  0  0  0  0  0  0  0  0  0  0
  191.4590  176.7910  147.1760 C   0  0  0  0  0  2  0  0  0  0  0  0
  192.7760  176.0880  143.5220 C   0  0  2  0  0  3  0  0  0  0  0  0
  192.1090  174.7420  143.1630 C   0  0  2  0  0  3  0  0  0  0  0  0
  195.3170  171.3600  143.5320 C   0  0  0  0  0  2  0  0  0  0  0  0
  193.0060  173.5720  143.3280 N   0  0  0  0  0  0  0  0  0  0  0  0
  195.2680  174.9200  145.9990 O   0  0  0  0  0  0  0  0  0  0  0  0
  192.8650  176.4350  147.6380 C   0  0  0  0  0  2  0  0  0  0  0  0
  191.5310  174.8990  141.7540 C   0  0  0  0  0  1  0  0  0  0  0  0
  192.8540  173.1460  144.7180 C   0  0  0  0  0  2  0  0  0  0  0  0
  188.1910  176.2830  145.1120 C   0  0  0  0  0  2  0  0  0  0  0  0
  195.3520  173.6660  145.3470 C   0  0  2  0  0  3  0  0  0  0  0  0
  196.1880  172.5740  143.2970 C   0  0  0  0  0  3  0  0  0  0  0  0
  189.1620  177.8420  143.6070 O   0  0  0  0  0  0  0  0  0  0  0  0
  190.9960  175.8440  146.0770 C   0  0  2  0  0  3  0  0  0  0  0  0
  188.5090  175.8060  146.5230 C   0  0  0  0  0  2  0  0  0  0  0  0
  190.7100  176.5900  144.8430 N   0  0  0  0  0  0  0  0  0  0  0  0
  194.1520  176.0810  144.1920 C   0  0  0  0  0  2  0  0  0  0  0  0
  193.8890  176.7760  146.5680 C   0  0  0  0  0  2  0  0  0  0  0  0
  194.0890  175.5950  145.6350 C   0  0  2  0  0  3  0  0  0  0  0  0
  196.1740  173.6520  144.0920 C   0  0  0  0  0  3  0  0  0  0  0  0
  194.6450  171.3140  144.9120 C   0  0  0  0  0  2  0  0  0  0  0  0
  189.8100  175.0050  146.5600 C   0  0  1  0  0  3  0  0  0  0  0  0
  189.6910  173.7180  145.7600 C   0  0  0  0  0  1  0  0  0  0  0  0
  194.1660  172.6870  145.3880 C   0  0  2  0  0  3  0  0  0  0  0  0
  192.5150  172.4360  142.5460 C   0  0  0  0  0  2  0  0  0  0  0  0
  191.2780  170.4160  142.7630 O   0  0  0  0  0  0  0  0  0  0  0  0
  190.3160  171.3680  142.3880 C   0  0  0  0  0  2  0  0  0  0  0  0
  191.4230  171.7050  143.3070 C   0  0  2  0  0  3  0  0  0  0  0  0
  1 18  1  0  0  0  0
  2 18  1  0  0  0  0
  2 12  1  0  0  0  0
  3  9  1  0  0  0  0
  4  1  1  1  0  0  0
  4 19  1  0  0  0  0
  5 10  1  6  0  0  0
  5  7  1  0  0  0  0
  5  4  1  0  0  0  0
  6 23  1  0  0  0  0
  7 11  1  0  0  0  0
 12 17  1  0  0  0  0
 13 22  1  6  0  0  0
 13 26  1  0  0  0  0
 13  8  1  0  0  0  0
 14  6  1  0  0  0  0
 14 22  2  0  0  0  0
 15  2  2  0  0  0  0
 16 24  1  0  0  0  0
 16  3  1  1  0  0  0
 17 24  1  0  0  0  0
 18 16  1  0  0  0  0
 20  9  1  0  0  0  0
 21 19  1  6  0  0  0
 21  8  1  0  0  0  0
 21 20  1  0  0  0  0
 23 26  1  0  0  0  0
 24 25  1  6  0  0  0
 26 11  1  6  0  0  0
 27  7  1  0  0  0  0
 28 30  1  0  0  0  0
 29 28  1  0  0  0  0
 29 30  1  0  0  0  0
 30 27  1  6  0  0  0
M  END
>  <MODEL>
4

>  <REMARK>
 VINA RESULT:      -6.8      2.230      6.432
  Name = 
  2 active torsions:
  status: ('A' for Active; 'I' for Inactive)
    1  A    between atoms: C_6  and  N_8
    2  A    between atoms: C_6  and  C_21
                            x       y       z     vdW  Elec       q    Type
                         _______ _______ _______ _____ _____    ______ ____

>  <TORSDO>
F 2

$$$$
=
 OpenBabel11052417213D

 30 34  0  0  1  0  0  0  0  0999 V2000
  190.4330  177.7860  144.6200 C   0  0  0  0  0  2  0  0  0  0  0  0
  188.6150  176.8880  146.0780 C   0  0  0  0  0  0  0  0  0  0  0  0
  191.8390  176.3870  147.0590 C   0  0  0  0  0  2  0  0  0  0  0  0
  190.9650  177.2130  143.3000 C   0  0  2  0  0  3  0  0  0  0  0  0
  190.2570  175.9300  142.8150 C   0  0  2  0  0  3  0  0  0  0  0  0
  193.2580  173.4940  140.1830 C   0  0  0  0  0  2  0  0  0  0  0  0
  191.1380  175.0230  142.0380 N   0  0  0  0  0  0  0  0  0  0  0  0
  194.4440  175.9700  143.5330 O   0  0  0  0  0  0  0  0  0  0  0  0
  193.2800  176.2580  146.5850 C   0  0  0  0  0  2  0  0  0  0  0  0
  188.9980  176.3760  142.0680 C   0  0  0  0  0  1  0  0  0  0  0  0
  191.7860  174.1570  143.0220 C   0  0  0  0  0  2  0  0  0  0  0  0
  187.9940  175.7740  146.8610 C   0  0  0  0  0  2  0  0  0  0  0  0
  194.2010  175.0450  142.4890 C   0  0  2  0  0  3  0  0  0  0  0  0
  193.8160  174.8930  140.0560 C   0  0  0  0  0  3  0  0  0  0  0  0
  187.9290  177.9150  145.8360 O   0  0  0  0  0  0  0  0  0  0  0  0
  190.8830  175.7510  146.0590 C   0  0  2  0  0  3  0  0  0  0  0  0
  189.0480  174.9700  147.6100 C   0  0  0  0  0  2  0  0  0  0  0  0
  189.9430  176.7550  145.5380 N   0  0  0  0  0  0  0  0  0  0  0  0
  192.4820  177.3320  143.1410 C   0  0  0  0  0  2  0  0  0  0  0  0
  193.5390  177.1570  145.3880 C   0  0  0  0  0  2  0  0  0  0  0  0
  193.2370  176.4160  144.0970 C   0  0  2  0  0  3  0  0  0  0  0  0
  194.2030  175.6280  141.1060 C   0  0  0  0  0  3  0  0  0  0  0  0
  193.4530  172.8520  141.5660 C   0  0  0  0  0  2  0  0  0  0  0  0
  190.1840  174.5410  146.6820 C   0  0  1  0  0  3  0  0  0  0  0  0
  189.6910  173.5830  145.6100 C   0  0  0  0  0  1  0  0  0  0  0  0
  193.2650  173.8450  142.7150 C   0  0  2  0  0  3  0  0  0  0  0  0
  190.3380  174.1070  141.2220 C   0  0  0  0  0  2  0  0  0  0  0  0
  189.4590  171.8980  141.1970 O   0  0  0  0  0  0  0  0  0  0  0  0
  188.4380  172.6660  141.7790 C   0  0  0  0  0  2  0  0  0  0  0  0
  189.8640  172.9330  142.0590 C   0  0  2  0  0  3  0  0  0  0  0  0
  1 18  1  0  0  0  0
  2 12  1  0  0  0  0
  4 19  1  1  0  0  0
  4  1  1  0  0  0  0
  5 10  1  6  0  0  0
  5  4  1  0  0  0  0
  6 23  1  0  0  0  0
  7  5  1  0  0  0  0
  7 11  1  0  0  0  0
  8 21  1  0  0  0  0
  9  3  1  0  0  0  0
 12 17  1  0  0  0  0
 13 22  1  6  0  0  0
 13 26  1  0  0  0  0
 13  8  1  0  0  0  0
 14  6  1  0  0  0  0
 14 22  2  0  0  0  0
 15  2  2  0  0  0  0
 16 24  1  0  0  0  0
 16  3  1  1  0  0  0
 18 16  1  0  0  0  0
 18  2  1  0  0  0  0
 20  9  1  0  0  0  0
 21 19  1  6  0  0  0
 21 20  1  0  0  0  0
 24 25  1  6  0  0  0
 24 17  1  0  0  0  0
 26 23  1  6  0  0  0
 26 11  1  0  0  0  0
 27  7  1  0  0  0  0
 28 29  1  0  0  0  0
 28 30  1  0  0  0  0
 29 30  1  0  0  0  0
 30 27  1  6  0  0  0
M  END
>  <MODEL>
5

>  <REMARK>
 VINA RESULT:      -6.8      1.907      5.883
  Name = 
  2 active torsions:
  status: ('A' for Active; 'I' for Inactive)
    1  A    between atoms: C_6  and  N_8
    2  A    between atoms: C_6  and  C_21
                            x       y       z     vdW  Elec       q    Type
                         _______ _______ _______ _____ _____    ______ ____

>  <TORSDO>
F 2

$$$$
=
 OpenBabel11052417213D

 30 34  0  0  1  0  0  0  0  0999 V2000
  189.7220  173.6970  145.1140 C   0  0  0  0  0  2  0  0  0  0  0  0
  188.8210  175.6660  146.3590 C   0  0  0  0  0  0  0  0  0  0  0  0
  188.1920  175.4700  143.0170 C   0  0  0  0  0  2  0  0  0  0  0  0
  191.1620  173.4430  144.6470 C   0  0  2  0  0  3  0  0  0  0  0  0
  192.1720  174.5480  145.0250 C   0  0  2  0  0  3  0  0  0  0  0  0
  195.6390  174.5100  141.8870 C   0  0  0  0  0  2  0  0  0  0  0  0
  193.2810  174.6960  144.0500 N   0  0  0  0  0  0  0  0  0  0  0  0
  191.5370  173.4730  140.9640 O   0  0  0  0  0  0  0  0  0  0  0  0
  188.6810  174.9120  141.6870 C   0  0  0  0  0  2  0  0  0  0  0  0
  192.6280  174.2560  146.4570 C   0  0  0  0  0  1  0  0  0  0  0  0
  192.8010  175.6400  143.0410 C   0  0  0  0  0  2  0  0  0  0  0  0
  188.6250  177.1410  146.5120 C   0  0  0  0  0  2  0  0  0  0  0  0
  192.8860  173.8840  141.0880 C   0  0  2  0  0  3  0  0  0  0  0  0
  195.1210  173.0940  141.7760 C   0  0  0  0  0  3  0  0  0  0  0  0
  188.5660  174.9160  147.3380 O   0  0  0  0  0  0  0  0  0  0  0  0
  189.3670  175.8860  143.8920 C   0  0  2  0  0  3  0  0  0  0  0  0
  188.3290  177.8010  145.1720 C   0  0  0  0  0  2  0  0  0  0  0  0
  189.3700  175.1180  145.1460 N   0  0  0  0  0  0  0  0  0  0  0  0
  191.2580  172.7870  143.2680 C   0  0  0  0  0  2  0  0  0  0  0  0
  189.3410  173.5560  141.8790 C   0  0  0  0  0  2  0  0  0  0  0  0
  190.8250  173.7270  142.1490 C   0  0  2  0  0  3  0  0  0  0  0  0
  193.8530  172.7990  141.4610 C   0  0  0  0  0  3  0  0  0  0  0  0
  194.7000  175.5810  141.3120 C   0  0  0  0  0  2  0  0  0  0  0  0
  189.3570  177.4000  144.1150 C   0  0  1  0  0  3  0  0  0  0  0  0
  190.7450  177.9080  144.4710 C   0  0  0  0  0  1  0  0  0  0  0  0
  193.2250  175.2960  141.5980 C   0  0  2  0  0  3  0  0  0  0  0  0
  194.4200  175.3770  144.6690 C   0  0  0  0  0  2  0  0  0  0  0  0
  195.3530  177.5410  144.9940 O   0  0  0  0  0  0  0  0  0  0  0  0
  194.5660  177.3320  146.1380 C   0  0  0  0  0  2  0  0  0  0  0  0
  194.1350  176.8620  144.8050 C   0  0  2  0  0  3  0  0  0  0  0  0
  1 18  1  0  0  0  0
  2 12  1  0  0  0  0
  2 15  2  0  0  0  0
  4 19  1  6  0  0  0
  4  5  1  0  0  0  0
  4  1  1  0  0  0  0
  5 10  1  1  0  0  0
  7 27  1  0  0  0  0
  7  5  1  0  0  0  0
  8 13  1  0  0  0  0
  8 21  1  0  0  0  0
  9 20  1  0  0  0  0
  9  3  1  0  0  0  0
 11  7  1  0  0  0  0
 13 22  1  1  0  0  0
 13 26  1  0  0  0  0
 14  6  1  0  0  0  0
 16  3  1  6  0  0  0
 16 24  1  0  0  0  0
 16 18  1  0  0  0  0
 17 12  1  0  0  0  0
 18  2  1  0  0  0  0
 21 20  1  6  0  0  0
 21 19  1  0  0  0  0
 22 14  2  0  0  0  0
 23  6  1  0  0  0  0
 24 25  1  1  0  0  0
 24 17  1  0  0  0  0
 26 23  1  1  0  0  0
 26 11  1  0  0  0  0
 28 29  1  0  0  0  0
 30 27  1  1  0  0  0
 30 28  1  0  0  0  0
 30 29  1  0  0  0  0
M  END
>  <MODEL>
6

>  <REMARK>
 VINA RESULT:      -6.7      2.037      6.551
  Name = 
  2 active torsions:
  status: ('A' for Active; 'I' for Inactive)
    1  A    between atoms: C_6  and  N_8
    2  A    between atoms: C_6  and  C_21
                            x       y       z     vdW  Elec       q    Type
                         _______ _______ _______ _____ _____    ______ ____

>  <TORSDO>
F 2

$$$$
=
 OpenBabel11052417213D

 30 34  0  0  1  0  0  0  0  0999 V2000
  193.2810  172.9830  144.8880 C   0  0  0  0  0  2  0  0  0  0  0  0
  194.0290  171.4880  143.0330 C   0  0  0  0  0  0  0  0  0  0  0  0
  195.4010  174.6000  143.2220 C   0  0  0  0  0  2  0  0  0  0  0  0
  191.9740  173.7800  145.0000 C   0  0  2  0  0  3  0  0  0  0  0  0
  190.9990  173.6020  143.8160 C   0  0  2  0  0  3  0  0  0  0  0  0
  188.3690  177.4530  143.4790 C   0  0  0  0  0  2  0  0  0  0  0  0
  190.1650  174.7990  143.5490 N   0  0  0  0  0  0  0  0  0  0  0  0
  192.4710  177.4460  144.8690 O   0  0  0  0  0  0  0  0  0  0  0  0
  195.1910  176.0270  143.7090 C   0  0  0  0  0  2  0  0  0  0  0  0
  190.2000  172.3260  144.0910 C   0  0  0  0  0  1  0  0  0  0  0  0
  190.9440  175.6320  142.6340 C   0  0  0  0  0  2  0  0  0  0  0  0
  194.3070  171.2360  141.5840 C   0  0  0  0  0  2  0  0  0  0  0  0
  191.1700  177.6200  144.3390 C   0  0  2  0  0  3  0  0  0  0  0  0
  188.7780  177.4960  144.9340 C   0  0  0  0  0  3  0  0  0  0  0  0
  193.9850  170.5070  143.8210 O   0  0  0  0  0  0  0  0  0  0  0  0
  194.0940  174.0040  142.7180 C   0  0  2  0  0  3  0  0  0  0  0  0
  194.9620  172.4450  140.9290 C   0  0  0  0  0  2  0  0  0  0  0  0
  193.7340  172.8150  143.5050 N   0  0  0  0  0  0  0  0  0  0  0  0
  192.1470  175.1680  145.6200 C   0  0  0  0  0  2  0  0  0  0  0  0
  194.3920  176.0470  145.0020 C   0  0  0  0  0  2  0  0  0  0  0  0
  192.9060  176.1200  144.7020 C   0  0  2  0  0  3  0  0  0  0  0  0
  190.0540  177.5220  145.3380 C   0  0  0  0  0  3  0  0  0  0  0  0
  189.5030  177.7540  142.4870 C   0  0  0  0  0  2  0  0  0  0  0  0
  194.1790  173.7250  141.2150 C   0  0  1  0  0  3  0  0  0  0  0  0
  192.7940  173.6790  140.5900 C   0  0  0  0  0  1  0  0  0  0  0  0
  190.8410  177.1460  142.9120 C   0  0  2  0  0  3  0  0  0  0  0  0
  188.9750  174.4320  142.7790 C   0  0  0  0  0  2  0  0  0  0  0  0
  188.2290  174.8770  140.5640 O   0  0  0  0  0  0  0  0  0  0  0  0
  188.3340  173.4780  140.6160 C   0  0  0  0  0  2  0  0  0  0  0  0
  189.3080  174.3530  141.3000 C   0  0  2  0  0  3  0  0  0  0  0  0
  2 18  1  0  0  0  0
  2 15  2  0  0  0  0
  3  9  1  0  0  0  0
  4  1  1  6  0  0  0
  4 19  1  0  0  0  0
  5 10  1  1  0  0  0
  5  4  1  0  0  0  0
  6 14  1  0  0  0  0
  7  5  1  0  0  0  0
  9 20  1  0  0  0  0
 11 26  1  0  0  0  0
 11  7  1  0  0  0  0
 12  2  1  0  0  0  0
 13  8  1  0  0  0  0
 13 22  1  1  0  0  0
 14 22  2  0  0  0  0
 16  3  1  1  0  0  0
 16 18  1  0  0  0  0
 17 24  1  0  0  0  0
 17 12  1  0  0  0  0
 18  1  1  0  0  0  0
 21  8  1  0  0  0  0
 21 20  1  1  0  0  0
 21 19  1  0  0  0  0
 23  6  1  0  0  0  0
 24 25  1  1  0  0  0
 24 16  1  0  0  0  0
 26 23  1  1  0  0  0
 26 13  1  0  0  0  0
 27  7  1  0  0  0  0
 28 29  1  0  0  0  0
 28 30  1  0  0  0  0
 29 30  1  0  0  0  0
 30 27  1  1  0  0  0
M  END
>  <MODEL>
7

>  <REMARK>
 VINA RESULT:      -6.5      2.171      3.400
  Name = 
  2 active torsions:
  status: ('A' for Active; 'I' for Inactive)
    1  A    between atoms: C_6  and  N_8
    2  A    between atoms: C_6  and  C_21
                            x       y       z     vdW  Elec       q    Type
                         _______ _______ _______ _____ _____    ______ ____

>  <TORSDO>
F 2

$$$$
=
 OpenBabel11052417213D

 30 34  0  0  1  0  0  0  0  0999 V2000
  189.3160  174.1950  145.2810 C   0  0  0  0  0  2  0  0  0  0  0  0
  188.4130  176.5230  145.2450 C   0  0  0  0  0  0  0  0  0  0  0  0
  188.6840  174.8720  142.2770 C   0  0  0  0  0  2  0  0  0  0  0  0
  190.7750  173.7420  145.4280 C   0  0  2  0  0  3  0  0  0  0  0  0
  191.7980  174.8860  145.5980 C   0  0  2  0  0  3  0  0  0  0  0  0
  195.9360  173.4160  143.9920 C   0  0  0  0  0  2  0  0  0  0  0  0
  193.1370  174.5730  145.0420 N   0  0  0  0  0  0  0  0  0  0  0  0
  192.1270  172.1290  142.3830 O   0  0  0  0  0  0  0  0  0  0  0  0
  189.4250  173.7760  141.5240 C   0  0  0  0  0  2  0  0  0  0  0  0
  191.8040  175.2560  147.0840 C   0  0  0  0  0  1  0  0  0  0  0  0
  193.0900  174.9770  143.6370 C   0  0  0  0  0  2  0  0  0  0  0  0
  188.4020  177.9160  144.6970 C   0  0  0  0  0  2  0  0  0  0  0  0
  193.4380  172.5350  142.7290 C   0  0  2  0  0  3  0  0  0  0  0  0
  195.2650  172.1050  144.3330 C   0  0  0  0  0  3  0  0  0  0  0  0
  187.7970  176.2890  146.3180 O   0  0  0  0  0  0  0  0  0  0  0  0
  189.6280  175.6180  143.2100 C   0  0  2  0  0  3  0  0  0  0  0  0
  188.5770  177.9160  143.1850 C   0  0  0  0  0  2  0  0  0  0  0  0
  189.1810  175.4870  144.6050 N   0  0  0  0  0  0  0  0  0  0  0  0
  191.1410  172.5410  144.5550 C   0  0  0  0  0  2  0  0  0  0  0  0
  189.8030  172.6380  142.4580 C   0  0  0  0  0  2  0  0  0  0  0  0
  191.1680  172.8910  143.0710 C   0  0  2  0  0  3  0  0  0  0  0  0
  194.0990  171.7170  143.7990 C   0  0  0  0  0  3  0  0  0  0  0  0
  195.3540  174.1330  142.7640 C   0  0  0  0  0  2  0  0  0  0  0  0
  189.7810  177.0740  142.7630 C   0  0  1  0  0  3  0  0  0  0  0  0
  191.0810  177.6700  143.2790 C   0  0  0  0  0  1  0  0  0  0  0  0
  193.8300  174.0230  142.6770 C   0  0  2  0  0  3  0  0  0  0  0  0
  194.1550  175.4440  145.6340 C   0  0  0  0  0  2  0  0  0  0  0  0
  195.5020  177.1480  144.6650 O   0  0  0  0  0  0  0  0  0  0  0  0
  194.8920  177.7760  145.7630 C   0  0  0  0  0  2  0  0  0  0  0  0
  194.1670  176.7910  144.9330 C   0  0  2  0  0  3  0  0  0  0  0  0
  1  4  1  0  0  0  0
  2 15  2  0  0  0  0
  4 19  1  6  0  0  0
  4  5  1  0  0  0  0
  5 10  1  1  0  0  0
  6 14  1  0  0  0  0
  7  5  1  0  0  0  0
  7 27  1  0  0  0  0
  8 13  1  0  0  0  0
  8 21  1  0  0  0  0
  9  3  1  0  0  0  0
  9 20  1  0  0  0  0
 11  7  1  0  0  0  0
 12  2  1  0  0  0  0
 13 22  1  1  0  0  0
 16  3  1  6  0  0  0
 16 18  1  0  0  0  0
 17 12  1  0  0  0  0
 18  2  1  0  0  0  0
 18  1  1  0  0  0  0
 21 20  1  6  0  0  0
 21 19  1  0  0  0  0
 22 14  2  0  0  0  0
 23  6  1  0  0  0  0
 24 17  1  0  0  0  0
 24 16  1  0  0  0  0
 24 25  1  1  0  0  0
 26 13  1  0  0  0  0
 26 23  1  1  0  0  0
 26 11  1  0  0  0  0
 28 30  1  0  0  0  0
 28 29  1  0  0  0  0
 30 27  1  1  0  0  0
 30 29  1  0  0  0  0
M  END
>  <MODEL>
8

>  <REMARK>
 VINA RESULT:      -6.5      1.897      6.559
  Name = 
  2 active torsions:
  status: ('A' for Active; 'I' for Inactive)
    1  A    between atoms: C_6  and  N_8
    2  A    between atoms: C_6  and  C_21
                            x       y       z     vdW  Elec       q    Type
                         _______ _______ _______ _____ _____    ______ ____

>  <TORSDO>
F 2

$$$$
=
 OpenBabel11052417213D

 30 34  0  0  1  0  0  0  0  0999 V2000
  189.9980  173.5240  145.1030 C   0  0  0  0  0  2  0  0  0  0  0  0
  189.7190  175.6860  146.3210 C   0  0  0  0  0  0  0  0  0  0  0  0
  188.2370  175.3730  143.2690 C   0  0  0  0  0  2  0  0  0  0  0  0
  191.2230  173.0180  144.3280 C   0  0  2  0  0  3  0  0  0  0  0  0
  192.4360  173.9730  144.3340 C   0  0  2  0  0  3  0  0  0  0  0  0
  194.9480  173.1890  140.4680 C   0  0  0  0  0  2  0  0  0  0  0  0
  193.2690  173.8830  143.1090 N   0  0  0  0  0  0  0  0  0  0  0  0
  190.6450  172.7480  140.6810 O   0  0  0  0  0  0  0  0  0  0  0  0
  188.2900  174.6600  141.9260 C   0  0  0  0  0  2  0  0  0  0  0  0
  193.1990  173.7080  145.6340 C   0  0  0  0  0  1  0  0  0  0  0  0
  192.6790  174.8220  142.1560 C   0  0  0  0  0  2  0  0  0  0  0  0
  189.7700  177.1810  146.3650 C   0  0  0  0  0  2  0  0  0  0  0  0
  192.0240  172.9500  140.4310 C   0  0  2  0  0  3  0  0  0  0  0  0
  194.2330  171.8680  140.6330 C   0  0  0  0  0  3  0  0  0  0  0  0
  189.6250  175.0510  147.4040 O   0  0  0  0  0  0  0  0  0  0  0  0
  189.6410  175.6570  143.7850 C   0  0  2  0  0  3  0  0  0  0  0  0
  189.2340  177.7900  145.0760 C   0  0  0  0  0  2  0  0  0  0  0  0
  189.8610  174.9810  145.0730 N   0  0  0  0  0  0  0  0  0  0  0  0
  190.8740  172.2660  143.0420 C   0  0  0  0  0  2  0  0  0  0  0  0
  188.7880  173.2330  142.0890 C   0  0  0  0  0  2  0  0  0  0  0  0
  190.3010  173.1870  141.9710 C   0  0  2  0  0  3  0  0  0  0  0  0
  192.8990  171.7540  140.6680 C   0  0  0  0  0  3  0  0  0  0  0  0
  194.0470  174.3540  140.0320 C   0  0  0  0  0  2  0  0  0  0  0  0
  189.8930  177.1650  143.8480 C   0  0  1  0  0  3  0  0  0  0  0  0
  191.3810  177.4720  143.8020 C   0  0  0  0  0  1  0  0  0  0  0  0
  192.6690  174.3220  140.6960 C   0  0  2  0  0  3  0  0  0  0  0  0
  194.6090  174.4160  143.3600 C   0  0  0  0  0  2  0  0  0  0  0  0
  195.8560  176.3660  142.8110 O   0  0  0  0  0  0  0  0  0  0  0  0
  195.6090  176.4930  144.1870 C   0  0  0  0  0  2  0  0  0  0  0  0
  194.5980  175.9320  143.2680 C   0  0  2  0  0  3  0  0  0  0  0  0
  2 12  1  0  0  0  0
  2 15  2  0  0  0  0
  4 19  1  6  0  0  0
  4  5  1  0  0  0  0
  4  1  1  0  0  0  0
  5 10  1  1  0  0  0
  6 14  1  0  0  0  0
  7 27  1  0  0  0  0
  7  5  1  0  0  0  0
  8 21  1  0  0  0  0
  9 20  1  0  0  0  0
  9  3  1  0  0  0  0
 11  7  1  0  0  0  0
 13 22  1  1  0  0  0
 13  8  1  0  0  0  0
 13 26  1  0  0  0  0
 14 22  2  0  0  0  0
 16  3  1  1  0  0  0
 16 24  1  0  0  0  0
 16 18  1  0  0  0  0
 17 12  1  0  0  0  0
 18  1  1  0  0  0  0
 18  2  1  0  0  0  0
 21 20  1  6  0  0  0
 21 19  1  0  0  0  0
 23  6  1  0  0  0  0
 24 25  1  1  0  0  0
 24 17  1  0  0  0  0
 26 23  1  1  0  0  0
 26 11  1  0  0  0  0
 28 30  1  0  0  0  0
 28 29  1  0  0  0  0
 30 27  1  1  0  0  0
 30 29  1  0  0  0  0
M  END
>  <MODEL>
9

>  <REMARK>
 VINA RESULT:      -6.5      2.296      6.605
  Name = 
  2 active torsions:
  status: ('A' for Active; 'I' for Inactive)
    1  A    between atoms: C_6  and  N_8
    2  A    between atoms: C_6  and  C_21
                            x       y       z     vdW  Elec       q    Type
                         _______ _______ _______ _____ _____    ______ ____

>  <TORSDO>
F 2

$$$$
