=
 OpenBabel11052420083D

 37 41  0  0  1  0  0  0  0  0999 V2000
  189.1380  175.6090  144.7720 C   0  0  1  0  0  3  0  0  0  0  0  0
  193.9050  175.2550  144.1630 C   0  0  0  0  0  1  0  0  0  0  0  0
  191.2040  175.2340  148.3160 C   0  0  0  0  0  1  0  0  0  0  0  0
  190.0370  177.9630  144.5890 C   0  0  0  0  0  1  0  0  0  0  0  0
  191.2520  175.3710  146.8090 C   0  0  1  0  0  3  0  0  0  0  0  0
  190.3560  176.5410  145.0300 C   0  0  1  0  0  0  0  0  0  0  0  0
  192.8780  176.0150  144.9750 C   0  0  0  0  0  0  0  0  0  0  0  0
  190.6550  176.5850  146.4180 O   0  0  0  0  0  0  0  0  0  0  0  0
  193.3950  177.4240  145.2000 C   0  0  0  0  0  1  0  0  0  0  0  0
  192.7000  175.3160  146.3260 C   0  0  0  0  0  2  0  0  0  0  0  0
  191.5640  176.0630  144.1860 C   0  0  0  0  0  2  0  0  0  0  0  0
  187.6080  176.3390  146.5760 C   0  0  0  0  0  3  0  0  0  0  0  0
  187.8750  176.2290  145.1750 N   0  0  0  0  0  0  0  0  0  0  0  0
  186.7850  176.3660  144.2090 C   0  0  0  0  0  2  0  0  0  0  0  0
  186.6230  178.6330  146.3680 C   0  0  0  0  0  2  0  0  0  0  0  0
  187.0010  177.3950  147.1220 C   0  0  0  0  0  3  0  0  0  0  0  0
  186.4030  177.8260  144.0200 C   0  0  2  0  0  3  0  0  0  0  0  0
  185.6510  178.3500  145.2340 C   0  0  0  0  0  2  0  0  0  0  0  0
  186.2470  178.0250  141.5380 C   0  0  0  0  0  3  0  0  0  0  0  0
  185.5920  177.9950  142.7750 C   0  0  0  0  0  0  0  0  0  0  0  0
  184.1920  178.1010  142.8200 C   0  0  0  0  0  3  0  0  0  0  0  0
  182.0770  178.3480  141.6860 O   0  0  0  0  0  1  0  0  0  0  0  0
  184.1210  178.2800  140.4060 C   0  0  0  0  0  3  0  0  0  0  0  0
  183.4600  178.2460  141.6380 C   0  0  0  0  0  0  0  0  0  0  0  0
  185.5140  178.1670  140.3570 C   0  0  0  0  0  3  0  0  0  0  0  0
  189.3660  173.8120  143.0860 C   0  0  0  0  0  3  0  0  0  0  0  0
  189.0380  175.0660  143.3740 C   0  0  0  0  0  3  0  0  0  0  0  0
  189.2890  173.2120  141.7360 C   0  0  0  0  0  0  0  0  0  0  0  0
  189.6590  171.9630  141.4160 C   0  0  0  0  0  3  0  0  0  0  0  0
  191.6960  171.0920  142.4160 C   0  0  2  0  0  3  0  0  0  0  0  0
  190.2240  170.9580  142.3640 C   0  0  2  0  0  3  0  0  0  0  0  0
  191.0690  170.0800  141.6650 O   0  0  0  0  0  0  0  0  0  0  0  0
  193.3490  171.3460  144.0570 C   0  0  0  0  0  2  0  0  0  0  0  0
  193.5650  170.0690  143.3920 C   0  0  0  0  0  2  0  0  0  0  0  0
  192.1940  170.5280  143.6590 N   0  0  0  0  0  0  0  0  0  0  0  0
  188.2390  172.7970  139.3780 C   0  0  0  0  0  1  0  0  0  0  0  0
  188.6130  174.2300  140.4300 S   0  0  0  0  0  0  0  0  0  0  0  0
  1 27  1  6  0  0  0
  1  6  1  0  0  0  0
  1 13  1  0  0  0  0
  2  7  1  0  0  0  0
  5  3  1  1  0  0  0
  6  4  1  6  0  0  0
  6  8  1  0  0  0  0
  7  9  1  0  0  0  0
  7 10  1  0  0  0  0
  8  5  1  0  0  0  0
 10  5  1  0  0  0  0
 11  7  1  0  0  0  0
 11  6  1  0  0  0  0
 12 16  2  0  0  0  0
 13 12  1  0  0  0  0
 14 13  1  0  0  0  0
 15 16  1  0  0  0  0
 17 20  1  6  0  0  0
 17 14  1  0  0  0  0
 17 18  1  0  0  0  0
 18 15  1  0  0  0  0
 19 20  1  0  0  0  0
 20 21  2  0  0  0  0
 23 24  2  0  0  0  0
 24 22  1  0  0  0  0
 24 21  1  0  0  0  0
 25 23  1  0  0  0  0
 25 19  2  0  0  0  0
 26 27  2  0  0  0  0
 28 26  1  0  0  0  0
 29 28  2  0  0  0  0
 30 35  1  1  0  0  0
 31 29  1  6  0  0  0
 31 30  1  0  0  0  0
 32 31  1  0  0  0  0
 32 30  1  0  0  0  0
 34 35  1  0  0  0  0
 34 33  1  0  0  0  0
 35 33  1  0  0  0  0
 36 37  1  0  0  0  0
 37 28  1  0  0  0  0
M  END
>  <MODEL>
1

>  <REMARK>
 VINA RESULT:      -7.6      0.000      0.000
  Name = 
  8 active torsions:
  status: ('A' for Active; 'I' for Inactive)
    1  A    between atoms: C_1  and  C_5
    2  A    between atoms: C_5  and  S_23
    3  A    between atoms: C_6  and  C_31
    4  A    between atoms: N_10  and  C_29
    5  A    between atoms: C_11  and  N_33
    6  A    between atoms: C_17  and  C_26
    7  A    between atoms: C_20  and  C_29
    8  A    between atoms: C_29  and  C_36
                            x       y       z     vdW  Elec       q    Type
                         _______ _______ _______ _____ _____    ______ ____

>  <TORSDO>
F 8

$$$$
=
 OpenBabel11052420083D

 37 41  0  0  1  0  0  0  0  0999 V2000
  190.7730  175.3710  144.4020 C   0  0  1  0  0  3  0  0  0  0  0  0
  195.3700  175.2630  145.8420 C   0  0  0  0  0  1  0  0  0  0  0  0
  191.3040  176.7570  148.2440 C   0  0  0  0  0  1  0  0  0  0  0  0
  191.8580  177.4950  143.5700 C   0  0  0  0  0  1  0  0  0  0  0  0
  191.9300  176.2400  146.9670 C   0  0  1  0  0  3  0  0  0  0  0  0
  191.8720  176.4390  144.6670 C   0  0  1  0  0  0  0  0  0  0  0  0
  194.1760  176.1920  145.7940 C   0  0  0  0  0  0  0  0  0  0  0  0
  191.6250  177.1030  145.8980 O   0  0  0  0  0  0  0  0  0  0  0  0
  194.6800  177.6050  145.5630 C   0  0  0  0  0  1  0  0  0  0  0  0
  193.4440  176.1260  147.1370 C   0  0  0  0  0  2  0  0  0  0  0  0
  193.2670  175.7670  144.6340 C   0  0  0  0  0  2  0  0  0  0  0  0
  189.5320  175.8350  142.3110 C   0  0  0  0  0  3  0  0  0  0  0  0
  189.6010  175.9400  143.7360 N   0  0  0  0  0  0  0  0  0  0  0  0
  188.7520  176.9010  144.4410 C   0  0  0  0  0  2  0  0  0  0  0  0
  187.0790  175.3220  142.3110 C   0  0  0  0  0  2  0  0  0  0  0  0
  188.3940  175.6050  141.6510 C   0  0  0  0  0  3  0  0  0  0  0  0
  187.3230  176.3910  144.5500 C   0  0  2  0  0  3  0  0  0  0  0  0
  186.6190  176.4640  143.2030 C   0  0  0  0  0  2  0  0  0  0  0  0
  185.1770  177.2240  145.5090 C   0  0  0  0  0  3  0  0  0  0  0  0
  186.5720  177.1620  145.5890 C   0  0  0  0  0  0  0  0  0  0  0  0
  187.2350  177.8020  146.6480 C   0  0  0  0  0  3  0  0  0  0  0  0
  187.1620  179.1340  148.6580 O   0  0  0  0  0  1  0  0  0  0  0  0
  185.1100  178.5660  147.5230 C   0  0  0  0  0  3  0  0  0  0  0  0
  186.5050  178.5050  147.6110 C   0  0  0  0  0  0  0  0  0  0  0  0
  184.4470  177.9250  146.4730 C   0  0  0  0  0  3  0  0  0  0  0  0
  191.0610  172.9230  144.1810 C   0  0  0  0  0  3  0  0  0  0  0  0
  191.2440  174.1400  143.6810 C   0  0  0  0  0  3  0  0  0  0  0  0
  191.4950  171.6700  143.5260 C   0  0  0  0  0  0  0  0  0  0  0  0
  192.5730  170.9460  143.8630 C   0  0  0  0  0  3  0  0  0  0  0  0
  194.9120  170.9580  144.5250 C   0  0  2  0  0  3  0  0  0  0  0  0
  193.5340  171.2830  144.9540 C   0  0  2  0  0  3  0  0  0  0  0  0
  194.1820  170.1130  145.3830 O   0  0  0  0  0  0  0  0  0  0  0  0
  196.9480  172.1090  144.3930 C   0  0  0  0  0  2  0  0  0  0  0  0
  197.1250  170.9800  145.2950 C   0  0  0  0  0  2  0  0  0  0  0  0
  195.8610  171.7310  145.3070 N   0  0  0  0  0  0  0  0  0  0  0  0
  188.9940  171.9110  142.8050 C   0  0  0  0  0  1  0  0  0  0  0  0
  190.4730  171.0520  142.1940 S   0  0  0  0  0  0  0  0  0  0  0  0
  1 27  1  6  0  0  0
  1  6  1  0  0  0  0
  5 10  1  0  0  0  0
  5  3  1  1  0  0  0
  6  4  1  6  0  0  0
  6  8  1  0  0  0  0
  7  2  1  0  0  0  0
  7 10  1  0  0  0  0
  8  5  1  0  0  0  0
  9  7  1  0  0  0  0
 11  6  1  0  0  0  0
 11  7  1  0  0  0  0
 12 13  1  0  0  0  0
 13  1  1  0  0  0  0
 13 14  1  0  0  0  0
 14 17  1  0  0  0  0
 15 18  1  0  0  0  0
 16 15  1  0  0  0  0
 16 12  2  0  0  0  0
 17 20  1  1  0  0  0
 18 17  1  0  0  0  0
 19 20  2  0  0  0  0
 19 25  1  0  0  0  0
 20 21  1  0  0  0  0
 21 24  2  0  0  0  0
 23 24  1  0  0  0  0
 24 22  1  0  0  0  0
 25 23  2  0  0  0  0
 27 26  2  0  0  0  0
 28 29  2  0  0  0  0
 28 26  1  0  0  0  0
 30 31  1  0  0  0  0
 30 35  1  1  0  0  0
 30 32  1  0  0  0  0
 31 29  1  6  0  0  0
 31 32  1  0  0  0  0
 33 34  1  0  0  0  0
 33 35  1  0  0  0  0
 34 35  1  0  0  0  0
 37 36  1  0  0  0  0
 37 28  1  0  0  0  0
M  END
>  <MODEL>
2

>  <REMARK>
 VINA RESULT:      -7.5      2.638      3.917
  Name = 
  8 active torsions:
  status: ('A' for Active; 'I' for Inactive)
    1  A    between atoms: C_1  and  C_5
    2  A    between atoms: C_5  and  S_23
    3  A    between atoms: C_6  and  C_31
    4  A    between atoms: N_10  and  C_29
    5  A    between atoms: C_11  and  N_33
    6  A    between atoms: C_17  and  C_26
    7  A    between atoms: C_20  and  C_29
    8  A    between atoms: C_29  and  C_36
                            x       y       z     vdW  Elec       q    Type
                         _______ _______ _______ _____ _____    ______ ____

>  <TORSDO>
F 8

$$$$
=
 OpenBabel11052420083D

 37 41  0  0  1  0  0  0  0  0999 V2000
  190.1840  175.4550  144.3280 C   0  0  1  0  0  3  0  0  0  0  0  0
  194.9920  175.4620  144.6520 C   0  0  0  0  0  1  0  0  0  0  0  0
  191.5500  175.2660  148.2100 C   0  0  0  0  0  1  0  0  0  0  0  0
  190.9260  177.8690  144.2690 C   0  0  0  0  0  1  0  0  0  0  0  0
  191.8770  175.3950  146.7380 C   0  0  1  0  0  3  0  0  0  0  0  0
  191.2580  176.4790  144.7940 C   0  0  1  0  0  0  0  0  0  0  0  0
  193.7750  176.1480  145.2350 C   0  0  0  0  0  0  0  0  0  0  0  0
  191.2800  176.5570  146.2130 O   0  0  0  0  0  0  0  0  0  0  0  0
  194.1340  177.5940  145.5240 C   0  0  0  0  0  1  0  0  0  0  0  0
  193.3920  175.4470  146.5420 C   0  0  0  0  0  2  0  0  0  0  0  0
  192.6370  176.0880  144.2080 C   0  0  0  0  0  2  0  0  0  0  0  0
  188.5640  175.6170  146.1930 C   0  0  0  0  0  3  0  0  0  0  0  0
  188.8460  175.8060  144.8030 N   0  0  0  0  0  0  0  0  0  0  0  0
  187.7480  175.9630  143.8490 C   0  0  0  0  0  2  0  0  0  0  0  0
  187.2610  177.7480  146.3800 C   0  0  0  0  0  2  0  0  0  0  0  0
  187.8110  176.4580  146.9060 C   0  0  0  0  0  3  0  0  0  0  0  0
  187.1600  177.3650  143.9190 C   0  0  2  0  0  3  0  0  0  0  0  0
  186.3400  177.5450  145.1880 C   0  0  0  0  0  2  0  0  0  0  0  0
  186.9580  177.6710  141.4510 C   0  0  0  0  0  3  0  0  0  0  0  0
  186.3340  177.6440  142.7040 C   0  0  0  0  0  0  0  0  0  0  0  0
  184.9490  177.8570  142.7930 C   0  0  0  0  0  3  0  0  0  0  0  0
  182.8320  178.3110  141.7280 O   0  0  0  0  0  1  0  0  0  0  0  0
  184.8320  178.1330  140.3890 C   0  0  0  0  0  3  0  0  0  0  0  0
  184.2010  178.1040  141.6370 C   0  0  0  0  0  0  0  0  0  0  0  0
  186.2100  177.9150  140.2970 C   0  0  0  0  0  3  0  0  0  0  0  0
  190.2360  173.9460  142.3680 C   0  0  0  0  0  3  0  0  0  0  0  0
  190.1670  175.1810  142.8510 C   0  0  0  0  0  3  0  0  0  0  0  0
  190.2200  173.6040  140.9280 C   0  0  0  0  0  0  0  0  0  0  0  0
  191.3000  173.3320  140.1800 C   0  0  0  0  0  3  0  0  0  0  0  0
  193.3970  174.5600  140.1950 C   0  0  2  0  0  3  0  0  0  0  0  0
  192.7110  173.3360  140.6640 C   0  0  2  0  0  3  0  0  0  0  0  0
  193.5830  173.3170  139.5620 O   0  0  0  0  0  0  0  0  0  0  0  0
  194.7210  176.2970  141.0450 C   0  0  0  0  0  2  0  0  0  0  0  0
  195.5600  175.4620  140.1970 C   0  0  0  0  0  2  0  0  0  0  0  0
  194.5380  174.8380  141.0500 N   0  0  0  0  0  0  0  0  0  0  0  0
  187.8170  172.8350  141.6120 C   0  0  0  0  0  1  0  0  0  0  0  0
  188.6210  173.5120  140.1310 S   0  0  0  0  0  0  0  0  0  0  0  0
  1 27  1  6  0  0  0
  1  6  1  0  0  0  0
  1 13  1  0  0  0  0
  2  7  1  0  0  0  0
  5  3  1  1  0  0  0
  6  4  1  6  0  0  0
  6  8  1  0  0  0  0
  7  9  1  0  0  0  0
  7 10  1  0  0  0  0
  8  5  1  0  0  0  0
 10  5  1  0  0  0  0
 11  6  1  0  0  0  0
 11  7  1  0  0  0  0
 12 16  2  0  0  0  0
 13 12  1  0  0  0  0
 14 17  1  0  0  0  0
 14 13  1  0  0  0  0
 15 16  1  0  0  0  0
 17 20  1  6  0  0  0
 17 18  1  0  0  0  0
 18 15  1  0  0  0  0
 19 20  1  0  0  0  0
 20 21  2  0  0  0  0
 23 24  2  0  0  0  0
 24 22  1  0  0  0  0
 24 21  1  0  0  0  0
 25 23  1  0  0  0  0
 25 19  2  0  0  0  0
 26 27  2  0  0  0  0
 28 26  1  0  0  0  0
 29 28  2  0  0  0  0
 30 31  1  0  0  0  0
 30 35  1  1  0  0  0
 31 29  1  6  0  0  0
 32 30  1  0  0  0  0
 32 31  1  0  0  0  0
 33 35  1  0  0  0  0
 34 33  1  0  0  0  0
 34 35  1  0  0  0  0
 37 28  1  0  0  0  0
 37 36  1  0  0  0  0
M  END
>  <MODEL>
3

>  <REMARK>
 VINA RESULT:      -7.5      1.946      2.345
  Name = 
  8 active torsions:
  status: ('A' for Active; 'I' for Inactive)
    1  A    between atoms: C_1  and  C_5
    2  A    between atoms: C_5  and  S_23
    3  A    between atoms: C_6  and  C_31
    4  A    between atoms: N_10  and  C_29
    5  A    between atoms: C_11  and  N_33
    6  A    between atoms: C_17  and  C_26
    7  A    between atoms: C_20  and  C_29
    8  A    between atoms: C_29  and  C_36
                            x       y       z     vdW  Elec       q    Type
                         _______ _______ _______ _____ _____    ______ ____

>  <TORSDO>
F 8

$$$$
=
 OpenBabel11052420083D

 37 41  0  0  1  0  0  0  0  0999 V2000
  193.4660  175.1050  143.8410 C   0  0  1  0  0  3  0  0  0  0  0  0
  189.8420  174.9150  147.0110 C   0  0  0  0  0  1  0  0  0  0  0  0
  191.1870  178.5350  143.9090 C   0  0  0  0  0  1  0  0  0  0  0  0
  194.4100  175.7820  146.0840 C   0  0  0  0  0  1  0  0  0  0  0  0
  191.4660  177.1660  144.4910 C   0  0  1  0  0  3  0  0  0  0  0  0
  193.1620  175.7740  145.2120 C   0  0  1  0  0  0  0  0  0  0  0  0
  190.9800  175.8160  146.5800 C   0  0  0  0  0  0  0  0  0  0  0  0
  192.7690  177.1260  145.0220 O   0  0  0  0  0  0  0  0  0  0  0  0
  191.5100  176.5350  147.8070 C   0  0  0  0  0  1  0  0  0  0  0  0
  190.4440  176.8450  145.5800 C   0  0  0  0  0  2  0  0  0  0  0  0
  192.0860  174.9520  145.9640 C   0  0  0  0  0  2  0  0  0  0  0  0
  195.8920  175.0680  143.3490 C   0  0  0  0  0  3  0  0  0  0  0  0
  194.7390  174.3840  143.8500 N   0  0  0  0  0  0  0  0  0  0  0  0
  194.7560  172.9280  143.9910 C   0  0  0  0  0  2  0  0  0  0  0  0
  197.3980  174.1680  145.1380 C   0  0  0  0  0  2  0  0  0  0  0  0
  197.1060  174.9420  143.8900 C   0  0  0  0  0  3  0  0  0  0  0  0
  195.5390  172.5080  145.2260 C   0  0  2  0  0  3  0  0  0  0  0  0
  197.0340  172.6970  145.0090 C   0  0  0  0  0  2  0  0  0  0  0  0
  196.0400  170.4300  146.5120 C   0  0  0  0  0  3  0  0  0  0  0  0
  195.2270  171.0900  145.5840 C   0  0  0  0  0  0  0  0  0  0  0  0
  194.1250  170.4190  145.0270 C   0  0  0  0  0  3  0  0  0  0  0  0
  192.7620  168.4380  144.8410 O   0  0  0  0  0  1  0  0  0  0  0  0
  194.6710  168.4420  146.3160 C   0  0  0  0  0  3  0  0  0  0  0  0
  193.8510  169.0970  145.3910 C   0  0  0  0  0  0  0  0  0  0  0  0
  195.7640  169.1100  146.8770 C   0  0  0  0  0  3  0  0  0  0  0  0
  191.5360  174.6550  142.3590 C   0  0  0  0  0  3  0  0  0  0  0  0
  192.3680  174.2320  143.3040 C   0  0  0  0  0  3  0  0  0  0  0  0
  190.4370  173.8500  141.7830 C   0  0  0  0  0  0  0  0  0  0  0  0
  189.2130  174.3060  141.4770 C   0  0  0  0  0  3  0  0  0  0  0  0
  187.4660  175.7030  142.4280 C   0  0  2  0  0  3  0  0  0  0  0  0
  188.7380  175.7070  141.6750 C   0  0  2  0  0  3  0  0  0  0  0  0
  187.5000  175.8760  141.0310 O   0  0  0  0  0  0  0  0  0  0  0  0
  186.8420  176.7190  144.4460 C   0  0  0  0  0  2  0  0  0  0  0  0
  185.8510  177.0690  143.4370 C   0  0  0  0  0  2  0  0  0  0  0  0
  187.2710  176.9930  143.0670 N   0  0  0  0  0  0  0  0  0  0  0  0
  189.6940  171.5420  142.7600 C   0  0  0  0  0  1  0  0  0  0  0  0
  190.7850  172.1300  141.4330 S   0  0  0  0  0  0  0  0  0  0  0  0
  1 27  1  1  0  0  0
  1 13  1  0  0  0  0
  1  6  1  0  0  0  0
  5  3  1  1  0  0  0
  5  8  1  0  0  0  0
  5 10  1  0  0  0  0
  6 11  1  0  0  0  0
  6  4  1  1  0  0  0
  7  2  1  0  0  0  0
  7  9  1  0  0  0  0
  8  6  1  0  0  0  0
 10  7  1  0  0  0  0
 11  7  1  0  0  0  0
 12 13  1  0  0  0  0
 12 16  2  0  0  0  0
 13 14  1  0  0  0  0
 14 17  1  0  0  0  0
 16 15  1  0  0  0  0
 17 20  1  6  0  0  0
 18 15  1  0  0  0  0
 18 17  1  0  0  0  0
 19 25  1  0  0  0  0
 20 19  2  0  0  0  0
 21 24  2  0  0  0  0
 21 20  1  0  0  0  0
 22 24  1  0  0  0  0
 23 25  2  0  0  0  0
 24 23  1  0  0  0  0
 26 27  2  0  0  0  0
 28 26  1  0  0  0  0
 29 28  2  0  0  0  0
 30 35  1  1  0  0  0
 31 29  1  6  0  0  0
 31 30  1  0  0  0  0
 32 31  1  0  0  0  0
 32 30  1  0  0  0  0
 34 33  1  0  0  0  0
 35 34  1  0  0  0  0
 35 33  1  0  0  0  0
 37 28  1  0  0  0  0
 37 36  1  0  0  0  0
M  END
>  <MODEL>
4

>  <REMARK>
 VINA RESULT:      -7.3      2.575      8.530
  Name = 
  8 active torsions:
  status: ('A' for Active; 'I' for Inactive)
    1  A    between atoms: C_1  and  C_5
    2  A    between atoms: C_5  and  S_23
    3  A    between atoms: C_6  and  C_31
    4  A    between atoms: N_10  and  C_29
    5  A    between atoms: C_11  and  N_33
    6  A    between atoms: C_17  and  C_26
    7  A    between atoms: C_20  and  C_29
    8  A    between atoms: C_29  and  C_36
                            x       y       z     vdW  Elec       q    Type
                         _______ _______ _______ _____ _____    ______ ____

>  <TORSDO>
F 8

$$$$
=
 OpenBabel11052420083D

 37 41  0  0  1  0  0  0  0  0999 V2000
  190.8670  174.7510  143.9100 C   0  0  1  0  0  3  0  0  0  0  0  0
  192.0990  171.8200  140.2890 C   0  0  0  0  0  1  0  0  0  0  0  0
  188.1960  174.8320  140.7750 C   0  0  0  0  0  1  0  0  0  0  0  0
  189.9950  172.4520  144.4900 C   0  0  0  0  0  1  0  0  0  0  0  0
  189.4450  174.2310  141.3830 C   0  0  1  0  0  3  0  0  0  0  0  0
  190.3310  173.4030  143.3500 C   0  0  1  0  0  0  0  0  0  0  0  0
  190.9130  172.1770  141.1590 C   0  0  0  0  0  0  0  0  0  0  0  0
  189.1350  173.6180  142.6120 O   0  0  0  0  0  0  0  0  0  0  0  0
  190.0970  170.9190  141.3950 C   0  0  0  0  0  1  0  0  0  0  0  0
  190.0540  173.2100  140.4240 C   0  0  0  0  0  2  0  0  0  0  0  0
  191.4290  172.7210  142.4970 C   0  0  0  0  0  2  0  0  0  0  0  0
  190.3450  174.9620  146.3210 C   0  0  0  0  0  3  0  0  0  0  0  0
  190.0100  175.2870  144.9680 N   0  0  0  0  0  0  0  0  0  0  0  0
  188.6750  175.7900  144.6460 C   0  0  0  0  0  2  0  0  0  0  0  0
  189.8160  177.2600  147.1690 C   0  0  0  0  0  2  0  0  0  0  0  0
  190.2170  175.8260  147.3310 C   0  0  0  0  0  3  0  0  0  0  0  0
  188.5350  177.2550  145.0300 C   0  0  2  0  0  3  0  0  0  0  0  0
  188.4400  177.4120  146.5410 C   0  0  0  0  0  2  0  0  0  0  0  0
  186.3990  178.5380  145.1290 C   0  0  0  0  0  3  0  0  0  0  0  0
  187.3460  177.8600  144.3540 C   0  0  0  0  0  0  0  0  0  0  0  0
  187.1760  177.7820  142.9620 C   0  0  0  0  0  3  0  0  0  0  0  0
  185.8950  178.2910  140.9820 O   0  0  0  0  0  1  0  0  0  0  0  0
  185.1150  179.0410  143.1380 C   0  0  0  0  0  3  0  0  0  0  0  0
  186.0600  178.3680  142.3570 C   0  0  0  0  0  0  0  0  0  0  0  0
  185.2850  179.1270  144.5230 C   0  0  0  0  0  3  0  0  0  0  0  0
  193.1610  175.6750  143.9930 C   0  0  0  0  0  3  0  0  0  0  0  0
  192.3020  174.7280  144.3530 C   0  0  0  0  0  3  0  0  0  0  0  0
  194.5840  175.7170  144.3940 C   0  0  0  0  0  0  0  0  0  0  0  0
  195.6220  175.9110  143.5670 C   0  0  0  0  0  3  0  0  0  0  0  0
  196.8240  175.7900  141.4580 C   0  0  2  0  0  3  0  0  0  0  0  0
  195.5260  176.1090  142.0910 C   0  0  2  0  0  3  0  0  0  0  0  0
  196.4210  177.1180  141.6960 O   0  0  0  0  0  0  0  0  0  0  0  0
  197.4870  174.3230  139.7550 C   0  0  0  0  0  2  0  0  0  0  0  0
  197.9120  175.6650  139.3860 C   0  0  0  0  0  2  0  0  0  0  0  0
  196.6180  175.4700  140.0560 N   0  0  0  0  0  0  0  0  0  0  0  0
  194.1920  177.1240  146.5620 C   0  0  0  0  0  1  0  0  0  0  0  0
  194.9450  175.5270  146.1360 S   0  0  0  0  0  0  0  0  0  0  0  0
  1 27  1  1  0  0  0
  1 13  1  0  0  0  0
  2  7  1  0  0  0  0
  5  3  1  6  0  0  0
  5  8  1  0  0  0  0
  6  1  1  0  0  0  0
  6  4  1  1  0  0  0
  7  9  1  0  0  0  0
  7 11  1  0  0  0  0
  8  6  1  0  0  0  0
 10  7  1  0  0  0  0
 10  5  1  0  0  0  0
 11  6  1  0  0  0  0
 12 16  2  0  0  0  0
 13 12  1  0  0  0  0
 14 13  1  0  0  0  0
 14 17  1  0  0  0  0
 15 16  1  0  0  0  0
 17 20  1  6  0  0  0
 17 18  1  0  0  0  0
 18 15  1  0  0  0  0
 20 19  2  0  0  0  0
 21 20  1  0  0  0  0
 22 24  1  0  0  0  0
 23 25  2  0  0  0  0
 24 21  2  0  0  0  0
 24 23  1  0  0  0  0
 25 19  1  0  0  0  0
 26 27  2  0  0  0  0
 26 28  1  0  0  0  0
 28 37  1  0  0  0  0
 29 28  2  0  0  0  0
 30 35  1  6  0  0  0
 30 32  1  0  0  0  0
 30 31  1  0  0  0  0
 31 29  1  1  0  0  0
 32 31  1  0  0  0  0
 33 35  1  0  0  0  0
 34 33  1  0  0  0  0
 34 35  1  0  0  0  0
 37 36  1  0  0  0  0
M  END
>  <MODEL>
5

>  <REMARK>
 VINA RESULT:      -7.3      3.193      5.600
  Name = 
  8 active torsions:
  status: ('A' for Active; 'I' for Inactive)
    1  A    between atoms: C_1  and  C_5
    2  A    between atoms: C_5  and  S_23
    3  A    between atoms: C_6  and  C_31
    4  A    between atoms: N_10  and  C_29
    5  A    between atoms: C_11  and  N_33
    6  A    between atoms: C_17  and  C_26
    7  A    between atoms: C_20  and  C_29
    8  A    between atoms: C_29  and  C_36
                            x       y       z     vdW  Elec       q    Type
                         _______ _______ _______ _____ _____    ______ ____

>  <TORSDO>
F 8

$$$$
=
 OpenBabel11052420083D

 37 41  0  0  1  0  0  0  0  0999 V2000
  190.6470  175.4590  144.1400 C   0  0  1  0  0  3  0  0  0  0  0  0
  195.1750  175.1720  145.7630 C   0  0  0  0  0  1  0  0  0  0  0  0
  191.0680  176.7770  148.0200 C   0  0  0  0  0  1  0  0  0  0  0  0
  191.8380  177.5540  143.3830 C   0  0  0  0  0  1  0  0  0  0  0  0
  191.7280  176.2540  146.7620 C   0  0  1  0  0  3  0  0  0  0  0  0
  191.7700  176.4840  144.4640 C   0  0  1  0  0  0  0  0  0  0  0  0
  194.0170  176.1430  145.6790 C   0  0  0  0  0  0  0  0  0  0  0  0
  191.4960  177.1410  145.6940 O   0  0  0  0  0  0  0  0  0  0  0  0
  194.5770  177.5410  145.4890 C   0  0  0  0  0  1  0  0  0  0  0  0
  193.2290  176.0860  146.9910 C   0  0  0  0  0  2  0  0  0  0  0  0
  193.1420  175.7640  144.4780 C   0  0  0  0  0  2  0  0  0  0  0  0
  189.3440  176.0700  142.1260 C   0  0  0  0  0  3  0  0  0  0  0  0
  189.4700  176.0980  143.5510 N   0  0  0  0  0  0  0  0  0  0  0  0
  188.6820  177.0470  144.3360 C   0  0  0  0  0  2  0  0  0  0  0  0
  186.8780  175.6350  142.1960 C   0  0  0  0  0  2  0  0  0  0  0  0
  188.1760  175.9100  141.5000 C   0  0  0  0  0  3  0  0  0  0  0  0
  187.2410  176.5780  144.4750 C   0  0  2  0  0  3  0  0  0  0  0  0
  186.4890  176.7420  143.1620 C   0  0  0  0  0  2  0  0  0  0  0  0
  185.1650  177.4610  145.5380 C   0  0  0  0  0  3  0  0  0  0  0  0
  186.5560  177.3170  145.5800 C   0  0  0  0  0  0  0  0  0  0  0  0
  187.2750  177.8460  146.6640 C   0  0  0  0  0  3  0  0  0  0  0  0
  187.3170  179.0410  148.7590 O   0  0  0  0  0  1  0  0  0  0  0  0
  185.2150  178.6660  147.6380 C   0  0  0  0  0  3  0  0  0  0  0  0
  186.6050  178.5220  147.6890 C   0  0  0  0  0  0  0  0  0  0  0  0
  184.4950  178.1340  146.5630 C   0  0  0  0  0  3  0  0  0  0  0  0
  190.5760  173.0690  143.5020 C   0  0  0  0  0  3  0  0  0  0  0  0
  191.0800  174.2830  143.3120 C   0  0  0  0  0  3  0  0  0  0  0  0
  190.9530  171.8690  142.7230 C   0  0  0  0  0  0  0  0  0  0  0  0
  190.5630  171.5990  141.4680 C   0  0  0  0  0  3  0  0  0  0  0  0
  190.0590  172.3600  139.2160 C   0  0  2  0  0  3  0  0  0  0  0  0
  189.6670  172.4570  140.6380 C   0  0  2  0  0  3  0  0  0  0  0  0
  190.4280  173.4590  140.0130 O   0  0  0  0  0  0  0  0  0  0  0  0
  189.3170  172.4010  136.9930 C   0  0  0  0  0  2  0  0  0  0  0  0
  189.4250  173.7760  137.4590 C   0  0  0  0  0  2  0  0  0  0  0  0
  188.9360  172.7340  138.3730 N   0  0  0  0  0  0  0  0  0  0  0  0
  193.5410  171.5810  142.9570 C   0  0  0  0  0  1  0  0  0  0  0  0
  192.0530  170.6990  143.5120 S   0  0  0  0  0  0  0  0  0  0  0  0
  1 27  1  6  0  0  0
  1  6  1  0  0  0  0
  5 10  1  0  0  0  0
  5  3  1  1  0  0  0
  6  4  1  6  0  0  0
  6 11  1  0  0  0  0
  6  8  1  0  0  0  0
  7  2  1  0  0  0  0
  7 10  1  0  0  0  0
  8  5  1  0  0  0  0
  9  7  1  0  0  0  0
 11  7  1  0  0  0  0
 12 13  1  0  0  0  0
 13  1  1  0  0  0  0
 13 14  1  0  0  0  0
 14 17  1  0  0  0  0
 15 18  1  0  0  0  0
 16 12  2  0  0  0  0
 16 15  1  0  0  0  0
 17 20  1  1  0  0  0
 18 17  1  0  0  0  0
 19 20  2  0  0  0  0
 19 25  1  0  0  0  0
 20 21  1  0  0  0  0
 21 24  2  0  0  0  0
 23 24  1  0  0  0  0
 24 22  1  0  0  0  0
 25 23  2  0  0  0  0
 27 26  2  0  0  0  0
 28 26  1  0  0  0  0
 28 37  1  0  0  0  0
 29 28  2  0  0  0  0
 30 35  1  6  0  0  0
 30 32  1  0  0  0  0
 30 31  1  0  0  0  0
 31 29  1  1  0  0  0
 32 31  1  0  0  0  0
 33 34  1  0  0  0  0
 33 35  1  0  0  0  0
 34 35  1  0  0  0  0
 36 37  1  0  0  0  0
M  END
>  <MODEL>
6

>  <REMARK>
 VINA RESULT:      -7.3      2.681      4.350
  Name = 
  8 active torsions:
  status: ('A' for Active; 'I' for Inactive)
    1  A    between atoms: C_1  and  C_5
    2  A    between atoms: C_5  and  S_23
    3  A    between atoms: C_6  and  C_31
    4  A    between atoms: N_10  and  C_29
    5  A    between atoms: C_11  and  N_33
    6  A    between atoms: C_17  and  C_26
    7  A    between atoms: C_20  and  C_29
    8  A    between atoms: C_29  and  C_36
                            x       y       z     vdW  Elec       q    Type
                         _______ _______ _______ _____ _____    ______ ____

>  <TORSDO>
F 8

$$$$
=
 OpenBabel11052420083D

 37 41  0  0  1  0  0  0  0  0999 V2000
  189.6500  176.1690  142.8130 C   0  0  1  0  0  3  0  0  0  0  0  0
  190.8840  171.7600  144.3170 C   0  0  0  0  0  1  0  0  0  0  0  0
  192.0430  174.1510  140.1360 C   0  0  0  0  0  1  0  0  0  0  0  0
  187.7630  174.6150  142.1760 C   0  0  0  0  0  1  0  0  0  0  0  0
  191.2770  174.1330  141.4410 C   0  0  1  0  0  3  0  0  0  0  0  0
  189.2640  174.7170  142.4110 C   0  0  1  0  0  0  0  0  0  0  0  0
  190.3260  172.4740  143.1040 C   0  0  0  0  0  0  0  0  0  0  0  0
  189.9080  174.3550  141.1970 O   0  0  0  0  0  0  0  0  0  0  0  0
  189.3380  171.5480  142.4180 C   0  0  0  0  0  1  0  0  0  0  0  0
  191.4760  172.7920  142.1440 C   0  0  0  0  0  2  0  0  0  0  0  0
  189.6100  173.7480  143.5690 C   0  0  0  0  0  2  0  0  0  0  0  0
  188.3530  177.5900  141.2550 C   0  0  0  0  0  3  0  0  0  0  0  0
  188.5540  177.1120  142.5890 N   0  0  0  0  0  0  0  0  0  0  0  0
  187.9580  177.8240  143.7180 C   0  0  0  0  0  2  0  0  0  0  0  0
  185.8570  177.4670  141.4190 C   0  0  0  0  0  2  0  0  0  0  0  0
  187.1440  177.8010  140.7310 C   0  0  0  0  0  3  0  0  0  0  0  0
  186.4720  177.5170  143.8350 C   0  0  2  0  0  3  0  0  0  0  0  0
  185.6880  178.2140  142.7320 C   0  0  0  0  0  2  0  0  0  0  0  0
  184.5800  177.9440  145.4030 C   0  0  0  0  0  3  0  0  0  0  0  0
  185.9620  177.9110  145.1840 C   0  0  0  0  0  0  0  0  0  0  0  0
  186.8380  178.2250  146.2360 C   0  0  0  0  0  3  0  0  0  0  0  0
  187.2000  178.8850  148.5280 O   0  0  0  0  0  1  0  0  0  0  0  0
  184.9490  178.6130  147.7010 C   0  0  0  0  0  3  0  0  0  0  0  0
  186.3320  178.5780  147.4910 C   0  0  0  0  0  0  0  0  0  0  0  0
  184.0750  178.2940  146.6580 C   0  0  0  0  0  3  0  0  0  0  0  0
  191.4920  176.1650  144.4650 C   0  0  0  0  0  3  0  0  0  0  0  0
  190.2000  176.3180  144.2040 C   0  0  0  0  0  3  0  0  0  0  0  0
  192.1020  176.3000  145.8060 C   0  0  0  0  0  0  0  0  0  0  0  0
  193.3740  176.0110  146.1180 C   0  0  0  0  0  3  0  0  0  0  0  0
  195.4810  174.8150  145.9170 C   0  0  2  0  0  3  0  0  0  0  0  0
  194.4000  175.4910  145.1670 C   0  0  2  0  0  3  0  0  0  0  0  0
  195.6310  176.1220  145.4160 O   0  0  0  0  0  0  0  0  0  0  0  0
  196.8280  172.8980  145.9160 C   0  0  0  0  0  2  0  0  0  0  0  0
  197.6050  173.9970  145.3600 C   0  0  0  0  0  2  0  0  0  0  0  0
  196.1740  173.8840  145.0440 N   0  0  0  0  0  0  0  0  0  0  0  0
  191.1690  175.4010  148.0770 C   0  0  0  0  0  1  0  0  0  0  0  0
  191.0590  176.9360  147.1130 S   0  0  0  0  0  0  0  0  0  0  0  0
  1 27  1  1  0  0  0
  5  3  1  6  0  0  0
  5 10  1  0  0  0  0
  6  4  1  6  0  0  0
  6  1  1  0  0  0  0
  6 11  1  0  0  0  0
  7 11  1  0  0  0  0
  7  2  1  0  0  0  0
  8  5  1  0  0  0  0
  8  6  1  0  0  0  0
  9  7  1  0  0  0  0
 10  7  1  0  0  0  0
 12 13  1  0  0  0  0
 13  1  1  0  0  0  0
 13 14  1  0  0  0  0
 14 17  1  0  0  0  0
 15 18  1  0  0  0  0
 16 12  2  0  0  0  0
 16 15  1  0  0  0  0
 17 20  1  1  0  0  0
 18 17  1  0  0  0  0
 19 25  1  0  0  0  0
 20 19  2  0  0  0  0
 20 21  1  0  0  0  0
 21 24  2  0  0  0  0
 24 23  1  0  0  0  0
 24 22  1  0  0  0  0
 25 23  2  0  0  0  0
 26 28  1  0  0  0  0
 27 26  2  0  0  0  0
 28 29  2  0  0  0  0
 28 37  1  0  0  0  0
 30 35  1  6  0  0  0
 31 32  1  0  0  0  0
 31 30  1  0  0  0  0
 31 29  1  1  0  0  0
 32 30  1  0  0  0  0
 34 33  1  0  0  0  0
 35 34  1  0  0  0  0
 35 33  1  0  0  0  0
 37 36  1  0  0  0  0
M  END
>  <MODEL>
7

>  <REMARK>
 VINA RESULT:      -7.3      2.776      5.620
  Name = 
  8 active torsions:
  status: ('A' for Active; 'I' for Inactive)
    1  A    between atoms: C_1  and  C_5
    2  A    between atoms: C_5  and  S_23
    3  A    between atoms: C_6  and  C_31
    4  A    between atoms: N_10  and  C_29
    5  A    between atoms: C_11  and  N_33
    6  A    between atoms: C_17  and  C_26
    7  A    between atoms: C_20  and  C_29
    8  A    between atoms: C_29  and  C_36
                            x       y       z     vdW  Elec       q    Type
                         _______ _______ _______ _____ _____    ______ ____

>  <TORSDO>
F 8

$$$$
=
 OpenBabel11052420083D

 37 41  0  0  1  0  0  0  0  0999 V2000
  191.4430  174.7040  143.9360 C   0  0  1  0  0  3  0  0  0  0  0  0
  195.2750  174.8710  141.0180 C   0  0  0  0  0  1  0  0  0  0  0  0
  194.7430  172.7800  145.4780 C   0  0  0  0  0  1  0  0  0  0  0  0
  192.6140  176.8980  144.3780 C   0  0  0  0  0  1  0  0  0  0  0  0
  194.1460  173.6160  144.3660 C   0  0  1  0  0  3  0  0  0  0  0  0
  192.8070  175.4510  143.9470 C   0  0  1  0  0  0  0  0  0  0  0  0
  194.8850  175.1150  142.4610 C   0  0  0  0  0  0  0  0  0  0  0  0
  193.6920  174.8450  144.8800 O   0  0  0  0  0  0  0  0  0  0  0  0
  195.7160  176.2690  142.9910 C   0  0  0  0  0  1  0  0  0  0  0  0
  195.1890  173.8540  143.2750 C   0  0  0  0  0  2  0  0  0  0  0  0
  193.3960  175.4770  142.5140 C   0  0  0  0  0  2  0  0  0  0  0  0
  190.8340  174.7810  146.3340 C   0  0  0  0  0  3  0  0  0  0  0  0
  190.5470  175.1790  144.9900 N   0  0  0  0  0  0  0  0  0  0  0  0
  189.2220  175.6960  144.6470 C   0  0  0  0  0  2  0  0  0  0  0  0
  190.2650  177.0270  147.2870 C   0  0  0  0  0  2  0  0  0  0  0  0
  190.6660  175.5880  147.3850 C   0  0  0  0  0  3  0  0  0  0  0  0
  189.0620  177.1380  145.1050 C   0  0  2  0  0  3  0  0  0  0  0  0
  188.9120  177.2110  146.6180 C   0  0  0  0  0  2  0  0  0  0  0  0
  187.9040  177.8800  143.0250 C   0  0  0  0  0  3  0  0  0  0  0  0
  187.8960  177.7770  144.4210 C   0  0  0  0  0  0  0  0  0  0  0  0
  186.7910  178.2510  145.1450 C   0  0  0  0  0  3  0  0  0  0  0  0
  184.6180  179.2980  145.1940 O   0  0  0  0  0  1  0  0  0  0  0  0
  185.7250  178.9360  143.0810 C   0  0  0  0  0  3  0  0  0  0  0  0
  185.7090  178.8320  144.4760 C   0  0  0  0  0  0  0  0  0  0  0  0
  186.8220  178.4590  142.3570 C   0  0  0  0  0  3  0  0  0  0  0  0
  190.3960  173.5530  142.0120 C   0  0  0  0  0  3  0  0  0  0  0  0
  190.7380  174.6880  142.6090 C   0  0  0  0  0  3  0  0  0  0  0  0
  189.6990  173.4630  140.7100 C   0  0  0  0  0  0  0  0  0  0  0  0
  189.9640  172.5720  139.7430 C   0  0  0  0  0  3  0  0  0  0  0  0
  190.5520  170.3030  139.0990 C   0  0  2  0  0  3  0  0  0  0  0  0
  191.0170  171.5160  139.8050 C   0  0  2  0  0  3  0  0  0  0  0  0
  190.5220  170.4020  140.5030 O   0  0  0  0  0  0  0  0  0  0  0  0
  191.4720  169.1200  137.2980 C   0  0  0  0  0  2  0  0  0  0  0  0
  191.1770  168.1690  138.3600 C   0  0  0  0  0  2  0  0  0  0  0  0
  191.6960  169.5020  138.7000 N   0  0  0  0  0  0  0  0  0  0  0  0
  188.2330  174.1700  138.6650 C   0  0  0  0  0  1  0  0  0  0  0  0
  188.3680  174.6220  140.4190 S   0  0  0  0  0  0  0  0  0  0  0  0
  1 27  1  6  0  0  0
  1  6  1  0  0  0  0
  1 13  1  0  0  0  0
  2  7  1  0  0  0  0
  5  8  1  0  0  0  0
  5  3  1  1  0  0  0
  6  4  1  1  0  0  0
  6  8  1  0  0  0  0
  7 11  1  0  0  0  0
  7  9  1  0  0  0  0
  7 10  1  0  0  0  0
 10  5  1  0  0  0  0
 11  6  1  0  0  0  0
 12 16  2  0  0  0  0
 13 12  1  0  0  0  0
 14 13  1  0  0  0  0
 14 17  1  0  0  0  0
 15 16  1  0  0  0  0
 17 20  1  6  0  0  0
 17 18  1  0  0  0  0
 18 15  1  0  0  0  0
 19 20  1  0  0  0  0
 20 21  2  0  0  0  0
 23 24  2  0  0  0  0
 24 21  1  0  0  0  0
 24 22  1  0  0  0  0
 25 19  2  0  0  0  0
 25 23  1  0  0  0  0
 26 27  2  0  0  0  0
 28 26  1  0  0  0  0
 29 28  2  0  0  0  0
 30 35  1  1  0  0  0
 30 31  1  0  0  0  0
 30 32  1  0  0  0  0
 31 29  1  6  0  0  0
 31 32  1  0  0  0  0
 33 34  1  0  0  0  0
 33 35  1  0  0  0  0
 34 35  1  0  0  0  0
 36 37  1  0  0  0  0
 37 28  1  0  0  0  0
M  END
>  <MODEL>
8

>  <REMARK>
 VINA RESULT:      -7.1      2.382      3.482
  Name = 
  8 active torsions:
  status: ('A' for Active; 'I' for Inactive)
    1  A    between atoms: C_1  and  C_5
    2  A    between atoms: C_5  and  S_23
    3  A    between atoms: C_6  and  C_31
    4  A    between atoms: N_10  and  C_29
    5  A    between atoms: C_11  and  N_33
    6  A    between atoms: C_17  and  C_26
    7  A    between atoms: C_20  and  C_29
    8  A    between atoms: C_29  and  C_36
                            x       y       z     vdW  Elec       q    Type
                         _______ _______ _______ _____ _____    ______ ____

>  <TORSDO>
F 8

$$$$
=
 OpenBabel11052420083D

 37 41  0  0  1  0  0  0  0  0999 V2000
  191.4160  174.7330  144.0400 C   0  0  1  0  0  3  0  0  0  0  0  0
  195.2450  175.0870  141.1350 C   0  0  0  0  0  1  0  0  0  0  0  0
  194.7510  172.8140  145.5090 C   0  0  0  0  0  1  0  0  0  0  0  0
  192.5440  176.9300  144.5680 C   0  0  0  0  0  1  0  0  0  0  0  0
  194.1390  173.6810  144.4300 C   0  0  1  0  0  3  0  0  0  0  0  0
  192.7650  175.5050  144.0810 C   0  0  1  0  0  0  0  0  0  0  0  0
  194.8500  175.2670  142.5860 C   0  0  0  0  0  0  0  0  0  0  0  0
  193.6610  174.8800  144.9910 O   0  0  0  0  0  0  0  0  0  0  0  0
  195.6590  176.4150  143.1610 C   0  0  0  0  0  1  0  0  0  0  0  0
  195.1770  173.9810  143.3500 C   0  0  0  0  0  2  0  0  0  0  0  0
  193.3540  175.5980  142.6520 C   0  0  0  0  0  2  0  0  0  0  0  0
  190.6990  174.8820  146.4050 C   0  0  0  0  0  3  0  0  0  0  0  0
  190.4660  175.2300  145.0360 N   0  0  0  0  0  0  0  0  0  0  0  0
  189.1510  175.7130  144.6170 C   0  0  0  0  0  2  0  0  0  0  0  0
  190.0560  177.1500  147.2520 C   0  0  0  0  0  2  0  0  0  0  0  0
  190.4720  175.7210  147.4180 C   0  0  0  0  0  3  0  0  0  0  0  0
  188.9510  177.1670  145.0170 C   0  0  2  0  0  3  0  0  0  0  0  0
  188.7310  177.2900  146.5180 C   0  0  0  0  0  2  0  0  0  0  0  0
  187.8430  177.7540  142.8610 C   0  0  0  0  0  3  0  0  0  0  0  0
  187.8070  177.7640  144.2600 C   0  0  0  0  0  0  0  0  0  0  0  0
  186.6950  178.3090  144.9210 C   0  0  0  0  0  3  0  0  0  0  0  0
  184.5370  179.3850  144.8410 O   0  0  0  0  0  1  0  0  0  0  0  0
  185.6800  178.8400  142.7870 C   0  0  0  0  0  3  0  0  0  0  0  0
  185.6360  178.8490  144.1850 C   0  0  0  0  0  0  0  0  0  0  0  0
  186.7830  178.2910  142.1260 C   0  0  0  0  0  3  0  0  0  0  0  0
  190.6550  173.5070  142.0290 C   0  0  0  0  0  3  0  0  0  0  0  0
  190.7700  174.6560  142.6850 C   0  0  0  0  0  3  0  0  0  0  0  0
  190.0290  173.3580  140.6970 C   0  0  0  0  0  0  0  0  0  0  0  0
  190.6730  173.4140  139.5220 C   0  0  0  0  0  3  0  0  0  0  0  0
  192.4140  174.0750  137.9590 C   0  0  2  0  0  3  0  0  0  0  0  0
  192.1370  173.6500  139.3480 C   0  0  2  0  0  3  0  0  0  0  0  0
  192.6430  172.7540  138.3910 O   0  0  0  0  0  0  0  0  0  0  0  0
  193.6010  175.7000  136.7590 C   0  0  0  0  0  2  0  0  0  0  0  0
  194.3120  174.4350  136.6330 C   0  0  0  0  0  2  0  0  0  0  0  0
  193.6780  174.7900  137.9110 N   0  0  0  0  0  0  0  0  0  0  0  0
  188.1930  173.1700  138.8460 C   0  0  0  0  0  1  0  0  0  0  0  0
  188.2690  173.0400  140.6560 S   0  0  0  0  0  0  0  0  0  0  0  0
  1 27  1  6  0  0  0
  1  6  1  0  0  0  0
  1 13  1  0  0  0  0
  2  7  1  0  0  0  0
  5  8  1  0  0  0  0
  5  3  1  1  0  0  0
  6  4  1  1  0  0  0
  6  8  1  0  0  0  0
  7 11  1  0  0  0  0
  7  9  1  0  0  0  0
  7 10  1  0  0  0  0
 10  5  1  0  0  0  0
 11  6  1  0  0  0  0
 12 16  2  0  0  0  0
 13 12  1  0  0  0  0
 14 17  1  0  0  0  0
 14 13  1  0  0  0  0
 15 16  1  0  0  0  0
 17 20  1  6  0  0  0
 17 18  1  0  0  0  0
 18 15  1  0  0  0  0
 19 20  1  0  0  0  0
 20 21  2  0  0  0  0
 23 24  2  0  0  0  0
 24 22  1  0  0  0  0
 24 21  1  0  0  0  0
 25 23  1  0  0  0  0
 25 19  2  0  0  0  0
 26 27  2  0  0  0  0
 28 26  1  0  0  0  0
 29 28  2  0  0  0  0
 30 35  1  1  0  0  0
 30 32  1  0  0  0  0
 30 31  1  0  0  0  0
 31 29  1  6  0  0  0
 32 31  1  0  0  0  0
 33 35  1  0  0  0  0
 34 33  1  0  0  0  0
 34 35  1  0  0  0  0
 36 37  1  0  0  0  0
 37 28  1  0  0  0  0
M  END
>  <MODEL>
9

>  <REMARK>
 VINA RESULT:      -7.1      2.905      3.855
  Name = 
  8 active torsions:
  status: ('A' for Active; 'I' for Inactive)
    1  A    between atoms: C_1  and  C_5
    2  A    between atoms: C_5  and  S_23
    3  A    between atoms: C_6  and  C_31
    4  A    between atoms: N_10  and  C_29
    5  A    between atoms: C_11  and  N_33
    6  A    between atoms: C_17  and  C_26
    7  A    between atoms: C_20  and  C_29
    8  A    between atoms: C_29  and  C_36
                            x       y       z     vdW  Elec       q    Type
                         _______ _______ _______ _____ _____    ______ ____

>  <TORSDO>
F 8

$$$$
