=
 OpenBabel11052419193D

 32 34  0  0  1  0  0  0  0  0999 V2000
  188.0620  177.1990  144.2120 C   0  0  1  0  0  3  0  0  0  0  0  0
  190.3030  175.3030  144.2300 O   0  0  0  0  0  1  0  0  0  0  0  0
  189.2980  177.3360  145.0020 C   0  0  1  0  0  3  0  0  0  0  0  0
  187.0180  178.1070  144.8550 C   0  0  2  0  0  3  0  0  0  0  0  0
  188.5880  177.5400  142.8400 C   0  0  1  0  0  3  0  0  0  0  0  0
  186.8400  177.7130  146.3530 C   0  0  0  0  0  0  0  0  0  0  0  0
  189.0130  176.8200  146.4160 C   0  0  2  0  0  3  0  0  0  0  0  0
  188.0920  177.7090  147.0340 O   0  0  0  0  0  0  0  0  0  0  0  0
  189.9060  177.0250  142.7570 O   0  0  0  0  0  0  0  0  0  0  0  0
  186.0120  178.6560  146.9610 O   0  0  0  0  0  1  0  0  0  0  0  0
  190.3090  176.6940  144.0760 C   0  0  2  0  0  0  0  0  0  0  0  0
  186.2420  176.4530  146.4760 O   0  0  0  0  0  1  0  0  0  0  0  0
  187.6070  175.7300  141.7040 O   0  0  0  0  0  0  0  0  0  0  0  0
  187.7370  176.9420  141.7630 C   0  0  0  0  0  0  0  0  0  0  0  0
  187.0640  177.8130  140.7470 C   0  0  0  0  0  2  0  0  0  0  0  0
  185.6470  177.4980  140.6740 N   0  0  0  0  0  2  0  0  0  0  0  0
  185.0000  178.6500  140.3730 O   0  0  0  0  0  1  0  0  0  0  0  0
  185.6300  179.5990  143.7680 C   0  0  0  0  0  1  0  0  0  0  0  0
  185.8110  178.2530  144.1280 O   0  0  0  0  0  0  0  0  0  0  0  0
  190.2780  176.7830  147.2580 C   0  0  0  0  0  2  0  0  0  0  0  0
  190.4830  175.4980  147.7580 O   0  0  0  0  0  1  0  0  0  0  0  0
  191.7000  177.2630  144.3590 C   0  0  0  0  0  2  0  0  0  0  0  0
  195.5950  174.0090  141.7750 F   0  0  0  0  0  0  0  0  0  0  0  0
  193.9340  175.6350  141.7150 C   0  0  0  0  0  3  0  0  0  0  0  0
  192.8110  176.4730  143.7250 C   0  0  0  0  0  0  0  0  0  0  0  0
  194.3170  174.4640  143.8450 C   0  0  0  0  0  2  0  0  0  0  0  0
  192.9050  176.4440  142.3880 C   0  0  0  0  0  3  0  0  0  0  0  0
  193.8160  175.7260  144.5920 C   0  0  1  0  0  0  0  0  0  0  0  0
  194.9950  176.6720  144.8480 C   0  0  0  0  0  1  0  0  0  0  0  0
  194.6440  174.7410  142.4030 C   0  0  0  0  0  0  0  0  0  0  0  0
  193.0730  173.9680  145.9160 C   0  0  0  0  0  1  0  0  0  0  0  0
  193.1770  175.3680  145.8090 O   0  0  0  0  0  0  0  0  0  0  0  0
  1  4  1  0  0  0  0
  1  3  1  0  0  0  0
  3  7  1  0  0  0  0
  4  6  1  0  0  0  0
  5  1  1  0  0  0  0
  6 12  1  0  0  0  0
  6 10  1  0  0  0  0
  6  8  1  0  0  0  0
  7  8  1  0  0  0  0
  7 20  1  0  0  0  0
  9  5  1  0  0  0  0
  9 11  1  0  0  0  0
 11  2  1  0  0  0  0
 11 22  1  0  0  0  0
 11  3  1  0  0  0  0
 13 14  2  0  0  0  0
 14  5  1  0  0  0  0
 15 14  1  0  0  0  0
 16 15  1  0  0  0  0
 17 16  1  0  0  0  0
 18 19  1  0  0  0  0
 19  4  1  0  0  0  0
 20 21  1  0  0  0  0
 23 30  1  0  0  0  0
 24 27  1  0  0  0  0
 24 30  2  0  0  0  0
 25 22  1  0  0  0  0
 25 28  1  0  0  0  0
 26 28  1  0  0  0  0
 27 25  2  0  0  0  0
 28 29  1  0  0  0  0
 28 32  1  0  0  0  0
 30 26  1  0  0  0  0
 32 31  1  0  0  0  0
M  END
>  <MODEL>
1

>  <REMARK>
 VINA RESULT:      -6.6      0.000      0.000
  Name = 
  8 active torsions:
  status: ('A' for Active; 'I' for Inactive)
    1  A    between atoms: C_1  and  C_16
    2  A    between atoms: C_1  and  C_27
    3  A    between atoms: C_6  and  O_17
    4  A    between atoms: O_8  and  C_22
    5  A    between atoms: N_9  and  C_32
    6  A    between atoms: C_10  and  C_28
    7  A    between atoms: C_14  and  C_21
    8  A    between atoms: C_28  and  C_32
                            x       y       z     vdW  Elec       q    Type
                         _______ _______ _______ _____ _____    ______ ____

>  <TORSDO>
F 8

$$$$
=
 OpenBabel11052419193D

 32 34  0  0  1  0  0  0  0  0999 V2000
  191.1610  175.4930  143.5940 C   0  0  1  0  0  3  0  0  0  0  0  0
  188.6460  175.6380  145.1010 O   0  0  0  0  0  1  0  0  0  0  0  0
  189.8600  175.9260  143.0560 C   0  0  1  0  0  3  0  0  0  0  0  0
  192.0350  175.1150  142.4010 C   0  0  2  0  0  3  0  0  0  0  0  0
  191.5220  176.7050  144.4150 C   0  0  1  0  0  3  0  0  0  0  0  0
  191.3180  174.0160  141.5610 C   0  0  0  0  0  0  0  0  0  0  0  0
  189.2210  174.7280  142.3470 C   0  0  2  0  0  3  0  0  0  0  0  0
  190.0010  174.4250  141.1990 O   0  0  0  0  0  0  0  0  0  0  0  0
  190.3170  177.2140  144.9630 O   0  0  0  0  0  0  0  0  0  0  0  0
  192.0500  173.8080  140.3910 O   0  0  0  0  0  1  0  0  0  0  0  0
  189.2480  176.5900  144.2710 C   0  0  2  0  0  0  0  0  0  0  0  0
  191.2500  172.8070  142.2630 O   0  0  0  0  0  1  0  0  0  0  0  0
  193.5200  176.9780  145.6240 O   0  0  0  0  0  0  0  0  0  0  0  0
  192.4760  176.3560  145.5160 C   0  0  0  0  0  0  0  0  0  0  0  0
  192.1720  175.2400  146.4670 C   0  0  0  0  0  2  0  0  0  0  0  0
  191.5220  175.7580  147.6590 N   0  0  0  0  0  2  0  0  0  0  0  0
  190.3690  175.0640  147.8150 O   0  0  0  0  0  1  0  0  0  0  0  0
  194.2110  175.8470  142.1580 C   0  0  0  0  0  1  0  0  0  0  0  0
  193.3920  174.8460  142.7040 O   0  0  0  0  0  0  0  0  0  0  0  0
  187.8050  175.0420  141.8910 C   0  0  0  0  0  2  0  0  0  0  0  0
  187.8350  175.8910  140.7860 O   0  0  0  0  0  1  0  0  0  0  0  0
  188.2290  177.6400  143.8240 C   0  0  0  0  0  2  0  0  0  0  0  0
  184.3790  178.3970  147.9520 F   0  0  0  0  0  0  0  0  0  0  0  0
  186.5810  178.3090  147.2100 C   0  0  0  0  0  3  0  0  0  0  0  0
  187.1870  177.9440  144.8640 C   0  0  0  0  0  0  0  0  0  0  0  0
  184.8110  177.6540  145.6310 C   0  0  0  0  0  2  0  0  0  0  0  0
  187.5670  178.0750  146.1440 C   0  0  0  0  0  3  0  0  0  0  0  0
  185.7260  178.1080  144.4660 C   0  0  1  0  0  0  0  0  0  0  0  0
  185.4920  179.5960  144.1820 C   0  0  0  0  0  1  0  0  0  0  0  0
  185.2780  178.1700  146.9650 C   0  0  0  0  0  0  0  0  0  0  0  0
  184.6240  178.0000  142.4240 C   0  0  0  0  0  1  0  0  0  0  0  0
  185.4890  177.3240  143.3060 O   0  0  0  0  0  0  0  0  0  0  0  0
  1  5  1  0  0  0  0
  3  1  1  0  0  0  0
  3 11  1  0  0  0  0
  4 19  1  0  0  0  0
  4  1  1  0  0  0  0
  5  9  1  0  0  0  0
  5 14  1  0  0  0  0
  6 12  1  0  0  0  0
  6  4  1  0  0  0  0
  7  3  1  0  0  0  0
  8  6  1  0  0  0  0
  8  7  1  0  0  0  0
 10  6  1  0  0  0  0
 11  9  1  0  0  0  0
 11  2  1  0  0  0  0
 14 13  2  0  0  0  0
 14 15  1  0  0  0  0
 15 16  1  0  0  0  0
 16 17  1  0  0  0  0
 18 19  1  0  0  0  0
 20  7  1  0  0  0  0
 21 20  1  0  0  0  0
 22 11  1  0  0  0  0
 22 25  1  0  0  0  0
 25 27  2  0  0  0  0
 26 30  1  0  0  0  0
 27 24  1  0  0  0  0
 28 25  1  0  0  0  0
 28 26  1  0  0  0  0
 29 28  1  0  0  0  0
 30 24  2  0  0  0  0
 30 23  1  0  0  0  0
 31 32  1  0  0  0  0
 32 28  1  0  0  0  0
M  END
>  <MODEL>
2

>  <REMARK>
 VINA RESULT:      -6.6      3.460      7.685
  Name = 
  8 active torsions:
  status: ('A' for Active; 'I' for Inactive)
    1  A    between atoms: C_1  and  C_16
    2  A    between atoms: C_1  and  C_27
    3  A    between atoms: C_6  and  O_17
    4  A    between atoms: O_8  and  C_22
    5  A    between atoms: N_9  and  C_32
    6  A    between atoms: C_10  and  C_28
    7  A    between atoms: C_14  and  C_21
    8  A    between atoms: C_28  and  C_32
                            x       y       z     vdW  Elec       q    Type
                         _______ _______ _______ _____ _____    ______ ____

>  <TORSDO>
F 8

$$$$
=
 OpenBabel11052419193D

 32 34  0  0  1  0  0  0  0  0999 V2000
  187.1090  177.4430  144.1510 C   0  0  1  0  0  3  0  0  0  0  0  0
  189.3020  177.4330  142.2010 O   0  0  0  0  0  1  0  0  0  0  0  0
  187.0080  177.0110  142.7460 C   0  0  1  0  0  3  0  0  0  0  0  0
  185.6900  177.7370  144.6310 C   0  0  2  0  0  3  0  0  0  0  0  0
  187.8520  176.2670  144.7340 C   0  0  1  0  0  3  0  0  0  0  0  0
  185.0410  178.8070  143.7020 C   0  0  0  0  0  0  0  0  0  0  0  0
  186.4560  178.1860  141.9320 C   0  0  2  0  0  3  0  0  0  0  0  0
  185.1110  178.4110  142.3350 O   0  0  0  0  0  0  0  0  0  0  0  0
  188.7620  175.8150  143.7450 O   0  0  0  0  0  0  0  0  0  0  0  0
  183.6970  178.9370  144.0530 O   0  0  0  0  0  1  0  0  0  0  0  0
  188.3850  176.4250  142.5210 C   0  0  2  0  0  0  0  0  0  0  0  0
  185.6620  180.0520  143.8560 O   0  0  0  0  0  1  0  0  0  0  0  0
  189.3280  177.6270  145.9590 O   0  0  0  0  0  0  0  0  0  0  0  0
  188.5960  176.6500  145.9750 C   0  0  0  0  0  0  0  0  0  0  0  0
  188.4690  175.8360  147.2260 C   0  0  0  0  0  2  0  0  0  0  0  0
  189.3710  174.6970  147.1770 N   0  0  0  0  0  2  0  0  0  0  0  0
  190.5030  175.0600  147.8270 O   0  0  0  0  0  1  0  0  0  0  0  0
  184.8630  176.9370  146.6330 C   0  0  0  0  0  1  0  0  0  0  0  0
  185.5590  177.9910  146.0190 O   0  0  0  0  0  0  0  0  0  0  0  0
  186.4610  177.8800  140.4430 C   0  0  0  0  0  2  0  0  0  0  0  0
  185.1640  177.9450  139.9360 O   0  0  0  0  0  1  0  0  0  0  0  0
  188.3230  175.3770  141.4090 C   0  0  0  0  0  2  0  0  0  0  0  0
  192.6070  171.6250  141.4090 F   0  0  0  0  0  0  0  0  0  0  0  0
  191.7700  173.7620  141.7830 C   0  0  0  0  0  3  0  0  0  0  0  0
  189.4050  174.3370  141.5040 C   0  0  0  0  0  0  0  0  0  0  0  0
  190.2800  172.1140  140.7250 C   0  0  0  0  0  2  0  0  0  0  0  0
  190.6640  174.7320  141.7430 C   0  0  0  0  0  3  0  0  0  0  0  0
  189.0690  172.8610  141.3390 C   0  0  1  0  0  0  0  0  0  0  0  0
  188.7750  172.2980  142.7350 C   0  0  0  0  0  1  0  0  0  0  0  0
  191.5850  172.5120  141.3590 C   0  0  0  0  0  0  0  0  0  0  0  0
  188.3280  172.5530  139.1600 C   0  0  0  0  0  1  0  0  0  0  0  0
  187.9320  172.7530  140.4960 O   0  0  0  0  0  0  0  0  0  0  0  0
  1  4  1  0  0  0  0
  1  5  1  0  0  0  0
  2 11  1  0  0  0  0
  3  1  1  0  0  0  0
  4 19  1  0  0  0  0
  5 14  1  0  0  0  0
  6 12  1  0  0  0  0
  6 10  1  0  0  0  0
  6  4  1  0  0  0  0
  7  8  1  0  0  0  0
  7  3  1  0  0  0  0
  8  6  1  0  0  0  0
  9  5  1  0  0  0  0
 11  3  1  0  0  0  0
 11  9  1  0  0  0  0
 13 14  2  0  0  0  0
 14 15  1  0  0  0  0
 16 15  1  0  0  0  0
 16 17  1  0  0  0  0
 19 18  1  0  0  0  0
 20  7  1  0  0  0  0
 21 20  1  0  0  0  0
 22 25  1  0  0  0  0
 22 11  1  0  0  0  0
 25 27  2  0  0  0  0
 26 28  1  0  0  0  0
 26 30  1  0  0  0  0
 27 24  1  0  0  0  0
 28 25  1  0  0  0  0
 28 29  1  0  0  0  0
 30 23  1  0  0  0  0
 30 24  2  0  0  0  0
 31 32  1  0  0  0  0
 32 28  1  0  0  0  0
M  END
>  <MODEL>
3

>  <REMARK>
 VINA RESULT:      -6.4      2.888      5.405
  Name = 
  8 active torsions:
  status: ('A' for Active; 'I' for Inactive)
    1  A    between atoms: C_1  and  C_16
    2  A    between atoms: C_1  and  C_27
    3  A    between atoms: C_6  and  O_17
    4  A    between atoms: O_8  and  C_22
    5  A    between atoms: N_9  and  C_32
    6  A    between atoms: C_10  and  C_28
    7  A    between atoms: C_14  and  C_21
    8  A    between atoms: C_28  and  C_32
                            x       y       z     vdW  Elec       q    Type
                         _______ _______ _______ _____ _____    ______ ____

>  <TORSDO>
F 8

$$$$
=
 OpenBabel11052419193D

 32 34  0  0  1  0  0  0  0  0999 V2000
  188.2830  176.8710  144.2070 C   0  0  1  0  0  3  0  0  0  0  0  0
  190.6670  175.2230  144.6730 O   0  0  0  0  0  1  0  0  0  0  0  0
  189.4630  177.2690  144.9950 C   0  0  1  0  0  3  0  0  0  0  0  0
  187.1370  177.7880  144.6250 C   0  0  2  0  0  3  0  0  0  0  0  0
  188.8470  176.9870  142.8140 C   0  0  1  0  0  3  0  0  0  0  0  0
  186.9170  177.6760  146.1640 C   0  0  0  0  0  0  0  0  0  0  0  0
  189.1500  177.0110  146.4730 C   0  0  2  0  0  3  0  0  0  0  0  0
  188.1300  177.9160  146.8740 O   0  0  0  0  0  0  0  0  0  0  0  0
  190.2060  176.5860  142.8770 O   0  0  0  0  0  0  0  0  0  0  0  0
  185.9860  178.6420  146.5470 O   0  0  0  0  0  1  0  0  0  0  0  0
  190.5680  176.5530  144.2480 C   0  0  2  0  0  0  0  0  0  0  0  0
  186.4190  176.4160  146.5120 O   0  0  0  0  0  1  0  0  0  0  0  0
  187.4900  176.6330  140.9270 O   0  0  0  0  0  0  0  0  0  0  0  0
  188.1030  176.1180  141.8480 C   0  0  0  0  0  0  0  0  0  0  0  0
  188.0850  174.6300  142.0140 C   0  0  0  0  0  2  0  0  0  0  0  0
  188.5850  173.9830  140.8120 N   0  0  0  0  0  2  0  0  0  0  0  0
  189.9380  174.0060  140.8840 O   0  0  0  0  0  1  0  0  0  0  0  0
  185.7450  178.8800  143.1410 C   0  0  0  0  0  1  0  0  0  0  0  0
  185.9600  177.6830  143.8430 O   0  0  0  0  0  0  0  0  0  0  0  0
  190.3700  177.2510  147.3480 C   0  0  0  0  0  2  0  0  0  0  0  0
  190.7820  176.0550  147.9340 O   0  0  0  0  0  1  0  0  0  0  0  0
  191.8920  177.2880  144.4600 C   0  0  0  0  0  2  0  0  0  0  0  0
  196.5580  174.1500  145.3570 F   0  0  0  0  0  0  0  0  0  0  0  0
  194.6880  175.2890  146.1380 C   0  0  0  0  0  3  0  0  0  0  0  0
  193.0650  176.3680  144.6530 C   0  0  0  0  0  0  0  0  0  0  0  0
  195.2370  175.4860  143.7470 C   0  0  0  0  0  2  0  0  0  0  0  0
  193.5050  176.1310  145.8970 C   0  0  0  0  0  3  0  0  0  0  0  0
  193.7330  175.7110  143.4520 C   0  0  1  0  0  0  0  0  0  0  0  0
  193.0480  174.3570  143.2300 C   0  0  0  0  0  1  0  0  0  0  0  0
  195.4780  174.9330  145.1250 C   0  0  0  0  0  0  0  0  0  0  0  0
  194.6420  176.4130  141.4340 C   0  0  0  0  0  1  0  0  0  0  0  0
  193.5620  176.5590  142.3260 O   0  0  0  0  0  0  0  0  0  0  0  0
  1  4  1  0  0  0  0
  1  3  1  0  0  0  0
  3  7  1  0  0  0  0
  4  6  1  0  0  0  0
  5  9  1  0  0  0  0
  5  1  1  0  0  0  0
  6 12  1  0  0  0  0
  6 10  1  0  0  0  0
  6  8  1  0  0  0  0
  7  8  1  0  0  0  0
  7 20  1  0  0  0  0
  9 11  1  0  0  0  0
 11 22  1  0  0  0  0
 11  2  1  0  0  0  0
 11  3  1  0  0  0  0
 13 14  2  0  0  0  0
 14 15  1  0  0  0  0
 14  5  1  0  0  0  0
 16 17  1  0  0  0  0
 16 15  1  0  0  0  0
 18 19  1  0  0  0  0
 19  4  1  0  0  0  0
 20 21  1  0  0  0  0
 22 25  1  0  0  0  0
 25 27  2  0  0  0  0
 26 30  1  0  0  0  0
 27 24  1  0  0  0  0
 28 26  1  0  0  0  0
 28 25  1  0  0  0  0
 29 28  1  0  0  0  0
 30 23  1  0  0  0  0
 30 24  2  0  0  0  0
 31 32  1  0  0  0  0
 32 28  1  0  0  0  0
M  END
>  <MODEL>
4

>  <REMARK>
 VINA RESULT:      -6.3      1.631      2.495
  Name = 
  8 active torsions:
  status: ('A' for Active; 'I' for Inactive)
    1  A    between atoms: C_1  and  C_16
    2  A    between atoms: C_1  and  C_27
    3  A    between atoms: C_6  and  O_17
    4  A    between atoms: O_8  and  C_22
    5  A    between atoms: N_9  and  C_32
    6  A    between atoms: C_10  and  C_28
    7  A    between atoms: C_14  and  C_21
    8  A    between atoms: C_28  and  C_32
                            x       y       z     vdW  Elec       q    Type
                         _______ _______ _______ _____ _____    ______ ____

>  <TORSDO>
F 8

$$$$
=
 OpenBabel11052419193D

 32 34  0  0  1  0  0  0  0  0999 V2000
  192.4060  174.4120  143.3890 C   0  0  1  0  0  3  0  0  0  0  0  0
  192.2280  177.2410  142.6280 O   0  0  0  0  0  1  0  0  0  0  0  0
  192.4140  175.5540  144.3190 C   0  0  1  0  0  3  0  0  0  0  0  0
  192.9900  173.2190  144.1410 C   0  0  2  0  0  3  0  0  0  0  0  0
  190.9480  174.3960  143.0060 C   0  0  1  0  0  3  0  0  0  0  0  0
  194.4140  173.5820  144.6620 C   0  0  0  0  0  0  0  0  0  0  0  0
  193.8730  175.8680  144.6660 C   0  0  2  0  0  3  0  0  0  0  0  0
  194.3900  174.7840  145.4260 O   0  0  0  0  0  0  0  0  0  0  0  0
  190.5120  175.7440  142.9580 O   0  0  0  0  0  0  0  0  0  0  0  0
  194.8590  172.5470  145.4850 O   0  0  0  0  0  1  0  0  0  0  0  0
  191.5090  176.5270  143.5930 C   0  0  2  0  0  0  0  0  0  0  0  0
  195.3170  173.7250  143.6020 O   0  0  0  0  0  1  0  0  0  0  0  0
  191.4040  174.1060  140.7170 O   0  0  0  0  0  0  0  0  0  0  0  0
  190.7390  173.7440  141.6740 C   0  0  0  0  0  0  0  0  0  0  0  0
  189.7090  172.6710  141.5010 C   0  0  0  0  0  2  0  0  0  0  0  0
  188.6980  172.7710  142.5410 N   0  0  0  0  0  2  0  0  0  0  0  0
  187.4920  172.7630  141.9240 O   0  0  0  0  0  1  0  0  0  0  0  0
  191.9800  171.1430  144.1350 C   0  0  0  0  0  1  0  0  0  0  0  0
  192.8970  171.9740  143.4720 O   0  0  0  0  0  0  0  0  0  0  0  0
  193.9840  177.1330  145.5030 C   0  0  0  0  0  2  0  0  0  0  0  0
  194.1540  176.8040  146.8470 O   0  0  0  0  0  1  0  0  0  0  0  0
  190.8650  177.4810  144.6020 C   0  0  0  0  0  2  0  0  0  0  0  0
  185.4950  176.3730  146.1410 F   0  0  0  0  0  0  0  0  0  0  0  0
  187.0690  177.0160  144.5540 C   0  0  0  0  0  3  0  0  0  0  0  0
  189.4760  177.0740  145.0080 C   0  0  0  0  0  0  0  0  0  0  0  0
  187.8310  176.7290  146.8760 C   0  0  0  0  0  2  0  0  0  0  0  0
  188.4550  177.3350  144.1780 C   0  0  0  0  0  3  0  0  0  0  0  0
  189.2380  176.3690  146.3370 C   0  0  1  0  0  0  0  0  0  0  0  0
  189.3160  174.8600  146.0760 C   0  0  0  0  0  1  0  0  0  0  0  0
  186.7730  176.6740  145.8080 C   0  0  0  0  0  0  0  0  0  0  0  0
  190.9170  175.6620  147.7790 C   0  0  0  0  0  1  0  0  0  0  0  0
  190.2460  176.7810  147.2480 O   0  0  0  0  0  0  0  0  0  0  0  0
  1  4  1  0  0  0  0
  1  3  1  0  0  0  0
  2 11  1  0  0  0  0
  3  7  1  0  0  0  0
  4  6  1  0  0  0  0
  5  1  1  0  0  0  0
  6  8  1  0  0  0  0
  6 10  1  0  0  0  0
  7  8  1  0  0  0  0
  7 20  1  0  0  0  0
  9  5  1  0  0  0  0
  9 11  1  0  0  0  0
 11  3  1  0  0  0  0
 11 22  1  0  0  0  0
 12  6  1  0  0  0  0
 13 14  2  0  0  0  0
 14  5  1  0  0  0  0
 15 14  1  0  0  0  0
 15 16  1  0  0  0  0
 17 16  1  0  0  0  0
 19 18  1  0  0  0  0
 19  4  1  0  0  0  0
 20 21  1  0  0  0  0
 22 25  1  0  0  0  0
 24 30  2  0  0  0  0
 25 28  1  0  0  0  0
 27 24  1  0  0  0  0
 27 25  2  0  0  0  0
 28 26  1  0  0  0  0
 28 32  1  0  0  0  0
 29 28  1  0  0  0  0
 30 23  1  0  0  0  0
 30 26  1  0  0  0  0
 32 31  1  0  0  0  0
M  END
>  <MODEL>
5

>  <REMARK>
 VINA RESULT:      -6.3      3.346      6.438
  Name = 
  8 active torsions:
  status: ('A' for Active; 'I' for Inactive)
    1  A    between atoms: C_1  and  C_16
    2  A    between atoms: C_1  and  C_27
    3  A    between atoms: C_6  and  O_17
    4  A    between atoms: O_8  and  C_22
    5  A    between atoms: N_9  and  C_32
    6  A    between atoms: C_10  and  C_28
    7  A    between atoms: C_14  and  C_21
    8  A    between atoms: C_28  and  C_32
                            x       y       z     vdW  Elec       q    Type
                         _______ _______ _______ _____ _____    ______ ____

>  <TORSDO>
F 8

$$$$
=
 OpenBabel11052419193D

 32 34  0  0  1  0  0  0  0  0999 V2000
  187.2370  177.7210  144.4330 C   0  0  1  0  0  3  0  0  0  0  0  0
  189.5910  177.8350  142.6840 O   0  0  0  0  0  1  0  0  0  0  0  0
  187.3070  177.2150  143.0510 C   0  0  1  0  0  3  0  0  0  0  0  0
  185.7590  177.8970  144.7710 C   0  0  2  0  0  3  0  0  0  0  0  0
  188.0310  176.6540  145.1440 C   0  0  1  0  0  3  0  0  0  0  0  0
  185.1000  178.8520  143.7300 C   0  0  0  0  0  0  0  0  0  0  0  0
  186.7240  178.2890  142.1270 C   0  0  2  0  0  3  0  0  0  0  0  0
  185.3330  178.4000  142.3990 O   0  0  0  0  0  0  0  0  0  0  0  0
  189.0670  176.2470  144.2640 O   0  0  0  0  0  0  0  0  0  0  0  0
  183.7230  178.8650  143.9550 O   0  0  0  0  0  1  0  0  0  0  0  0
  188.7480  176.7590  142.9800 C   0  0  2  0  0  0  0  0  0  0  0  0
  185.5840  180.1580  143.8660 O   0  0  0  0  0  1  0  0  0  0  0  0
  187.9020  177.3030  147.4000 O   0  0  0  0  0  0  0  0  0  0  0  0
  188.6190  177.1680  146.4220 C   0  0  0  0  0  0  0  0  0  0  0  0
  190.0670  177.5380  146.5030 C   0  0  0  0  0  2  0  0  0  0  0  0
  190.7980  176.5460  147.2730 N   0  0  0  0  0  2  0  0  0  0  0  0
  191.2510  177.1650  148.3900 O   0  0  0  0  0  1  0  0  0  0  0  0
  184.6690  177.2000  146.6830 C   0  0  0  0  0  1  0  0  0  0  0  0
  185.4780  178.2030  146.1250 O   0  0  0  0  0  0  0  0  0  0  0  0
  186.8950  177.9150  140.6640 C   0  0  0  0  0  2  0  0  0  0  0  0
  185.6650  177.5500  140.1160 O   0  0  0  0  0  1  0  0  0  0  0  0
  188.8870  175.6580  141.9270 C   0  0  0  0  0  2  0  0  0  0  0  0
  191.4950  171.1570  144.2460 F   0  0  0  0  0  0  0  0  0  0  0  0
  189.5670  172.3170  143.6620 C   0  0  0  0  0  3  0  0  0  0  0  0
  189.6030  174.4350  142.4300 C   0  0  0  0  0  0  0  0  0  0  0  0
  191.7280  173.4480  143.3380 C   0  0  0  0  0  2  0  0  0  0  0  0
  188.9040  173.5020  143.0930 C   0  0  0  0  0  3  0  0  0  0  0  0
  191.0950  174.2590  142.1800 C   0  0  1  0  0  0  0  0  0  0  0  0
  191.2520  173.4840  140.8670 C   0  0  0  0  0  1  0  0  0  0  0  0
  190.8960  172.2570  143.7300 C   0  0  0  0  0  0  0  0  0  0  0  0
  192.4440  175.8240  143.2400 C   0  0  0  0  0  1  0  0  0  0  0  0
  191.6870  175.5460  142.0860 O   0  0  0  0  0  0  0  0  0  0  0  0
  1  4  1  0  0  0  0
  1  5  1  0  0  0  0
  2 11  1  0  0  0  0
  3  1  1  0  0  0  0
  4 19  1  0  0  0  0
  5 14  1  0  0  0  0
  6 12  1  0  0  0  0
  6 10  1  0  0  0  0
  6  4  1  0  0  0  0
  7  8  1  0  0  0  0
  7  3  1  0  0  0  0
  8  6  1  0  0  0  0
  9  5  1  0  0  0  0
 11  3  1  0  0  0  0
 11  9  1  0  0  0  0
 14 15  1  0  0  0  0
 14 13  2  0  0  0  0
 15 16  1  0  0  0  0
 16 17  1  0  0  0  0
 19 18  1  0  0  0  0
 20  7  1  0  0  0  0
 21 20  1  0  0  0  0
 22 25  1  0  0  0  0
 22 11  1  0  0  0  0
 24 30  2  0  0  0  0
 25 27  2  0  0  0  0
 26 30  1  0  0  0  0
 27 24  1  0  0  0  0
 28 25  1  0  0  0  0
 28 26  1  0  0  0  0
 29 28  1  0  0  0  0
 30 23  1  0  0  0  0
 32 28  1  0  0  0  0
 32 31  1  0  0  0  0
M  END
>  <MODEL>
6

>  <REMARK>
 VINA RESULT:      -6.2      2.688      5.025
  Name = 
  8 active torsions:
  status: ('A' for Active; 'I' for Inactive)
    1  A    between atoms: C_1  and  C_16
    2  A    between atoms: C_1  and  C_27
    3  A    between atoms: C_6  and  O_17
    4  A    between atoms: O_8  and  C_22
    5  A    between atoms: N_9  and  C_32
    6  A    between atoms: C_10  and  C_28
    7  A    between atoms: C_14  and  C_21
    8  A    between atoms: C_28  and  C_32
                            x       y       z     vdW  Elec       q    Type
                         _______ _______ _______ _____ _____    ______ ____

>  <TORSDO>
F 8

$$$$
=
 OpenBabel11052419193D

 32 34  0  0  1  0  0  0  0  0999 V2000
  188.1260  175.9510  143.3070 C   0  0  1  0  0  3  0  0  0  0  0  0
  189.3180  174.4720  145.5440 O   0  0  0  0  0  1  0  0  0  0  0  0
  188.8850  176.5430  144.4210 C   0  0  1  0  0  3  0  0  0  0  0  0
  187.3100  177.0760  142.6750 C   0  0  2  0  0  3  0  0  0  0  0  0
  189.2530  175.3310  142.5210 C   0  0  1  0  0  3  0  0  0  0  0  0
  186.4030  177.7310  143.7600 C   0  0  0  0  0  0  0  0  0  0  0  0
  187.8790  177.0530  145.4580 C   0  0  2  0  0  3  0  0  0  0  0  0
  187.1700  178.1450  144.8880 O   0  0  0  0  0  0  0  0  0  0  0  0
  190.2080  174.8620  143.4590 O   0  0  0  0  0  0  0  0  0  0  0  0
  185.7960  178.8580  143.2050 O   0  0  0  0  0  1  0  0  0  0  0  0
  189.8840  175.4430  144.7110 C   0  0  2  0  0  0  0  0  0  0  0  0
  185.4010  176.8490  144.1800 O   0  0  0  0  0  1  0  0  0  0  0  0
  187.8000  173.5470  142.0330 O   0  0  0  0  0  0  0  0  0  0  0  0
  188.7700  174.1950  141.6730 C   0  0  0  0  0  0  0  0  0  0  0  0
  189.4770  173.8330  140.4040 C   0  0  0  0  0  2  0  0  0  0  0  0
  188.5690  173.9400  139.2740 N   0  0  0  0  0  2  0  0  0  0  0  0
  188.2010  172.6800  138.9400 O   0  0  0  0  0  1  0  0  0  0  0  0
  187.1300  177.5490  140.4220 C   0  0  0  0  0  1  0  0  0  0  0  0
  186.6510  176.7420  141.4660 O   0  0  0  0  0  0  0  0  0  0  0  0
  188.5790  177.5450  146.7160 C   0  0  0  0  0  2  0  0  0  0  0  0
  187.6380  177.9880  147.6450 O   0  0  0  0  0  1  0  0  0  0  0  0
  191.1370  176.0420  145.3530 C   0  0  0  0  0  2  0  0  0  0  0  0
  195.8080  172.7970  145.0590 F   0  0  0  0  0  0  0  0  0  0  0  0
  193.5160  173.0470  145.3630 C   0  0  0  0  0  3  0  0  0  0  0  0
  192.3690  175.2020  145.1580 C   0  0  0  0  0  0  0  0  0  0  0  0
  194.8800  175.0880  145.1820 C   0  0  0  0  0  2  0  0  0  0  0  0
  192.3220  173.9000  145.4730 C   0  0  0  0  0  3  0  0  0  0  0  0
  193.6440  175.8240  144.6040 C   0  0  1  0  0  0  0  0  0  0  0  0
  193.6140  175.6550  143.0810 C   0  0  0  0  0  1  0  0  0  0  0  0
  194.7170  173.5920  145.1690 C   0  0  0  0  0  0  0  0  0  0  0  0
  194.5700  177.4160  146.0200 C   0  0  0  0  0  1  0  0  0  0  0  0
  193.6650  177.1970  144.9640 O   0  0  0  0  0  0  0  0  0  0  0  0
  1  3  1  0  0  0  0
  3 11  1  0  0  0  0
  3  7  1  0  0  0  0
  4  1  1  0  0  0  0
  4  6  1  0  0  0  0
  5  1  1  0  0  0  0
  5  9  1  0  0  0  0
  6 12  1  0  0  0  0
  6  8  1  0  0  0  0
  7 20  1  0  0  0  0
  8  7  1  0  0  0  0
  9 11  1  0  0  0  0
 10  6  1  0  0  0  0
 11 22  1  0  0  0  0
 11  2  1  0  0  0  0
 14 13  2  0  0  0  0
 14  5  1  0  0  0  0
 15 14  1  0  0  0  0
 16 15  1  0  0  0  0
 17 16  1  0  0  0  0
 18 19  1  0  0  0  0
 19  4  1  0  0  0  0
 20 21  1  0  0  0  0
 23 30  1  0  0  0  0
 24 27  1  0  0  0  0
 25 22  1  0  0  0  0
 25 27  2  0  0  0  0
 28 32  1  0  0  0  0
 28 25  1  0  0  0  0
 28 26  1  0  0  0  0
 29 28  1  0  0  0  0
 30 26  1  0  0  0  0
 30 24  2  0  0  0  0
 32 31  1  0  0  0  0
M  END
>  <MODEL>
7

>  <REMARK>
 VINA RESULT:      -5.9      2.015      3.085
  Name = 
  8 active torsions:
  status: ('A' for Active; 'I' for Inactive)
    1  A    between atoms: C_1  and  C_16
    2  A    between atoms: C_1  and  C_27
    3  A    between atoms: C_6  and  O_17
    4  A    between atoms: O_8  and  C_22
    5  A    between atoms: N_9  and  C_32
    6  A    between atoms: C_10  and  C_28
    7  A    between atoms: C_14  and  C_21
    8  A    between atoms: C_28  and  C_32
                            x       y       z     vdW  Elec       q    Type
                         _______ _______ _______ _____ _____    ______ ____

>  <TORSDO>
F 8

$$$$
=
 OpenBabel11052419193D

 32 34  0  0  1  0  0  0  0  0999 V2000
  191.7570  174.8020  143.6970 C   0  0  1  0  0  3  0  0  0  0  0  0
  191.9080  176.5050  146.0830 O   0  0  0  0  0  1  0  0  0  0  0  0
  190.6070  175.3180  144.4590 C   0  0  1  0  0  3  0  0  0  0  0  0
  191.2550  173.6170  142.8780 C   0  0  2  0  0  3  0  0  0  0  0  0
  192.1850  176.0600  142.9840 C   0  0  1  0  0  3  0  0  0  0  0  0
  190.6210  172.5590  143.8310 C   0  0  0  0  0  0  0  0  0  0  0  0
  190.1510  174.2200  145.4250 C   0  0  2  0  0  3  0  0  0  0  0  0
  189.6210  173.1470  144.6580 O   0  0  0  0  0  0  0  0  0  0  0  0
  191.9620  177.1420  143.8730 O   0  0  0  0  0  0  0  0  0  0  0  0
  190.0200  171.5690  143.0530 O   0  0  0  0  0  1  0  0  0  0  0  0
  191.1410  176.6570  144.9230 C   0  0  2  0  0  0  0  0  0  0  0  0
  191.5950  171.9590  144.6380 O   0  0  0  0  0  1  0  0  0  0  0  0
  193.9800  176.4420  141.5140 O   0  0  0  0  0  0  0  0  0  0  0  0
  193.6310  176.0060  142.5990 C   0  0  0  0  0  0  0  0  0  0  0  0
  194.6460  175.4020  143.5200 C   0  0  0  0  0  2  0  0  0  0  0  0
  195.5890  176.4160  143.9640 N   0  0  0  0  0  2  0  0  0  0  0  0
  195.0430  177.0160  145.0490 O   0  0  0  0  0  1  0  0  0  0  0  0
  191.7130  173.3410  140.6310 C   0  0  0  0  0  1  0  0  0  0  0  0
  192.1750  173.0970  141.9350 O   0  0  0  0  0  0  0  0  0  0  0  0
  189.0620  174.7200  146.3610 C   0  0  0  0  0  2  0  0  0  0  0  0
  189.4510  174.5410  147.6880 O   0  0  0  0  0  1  0  0  0  0  0  0
  189.9760  177.6190  145.1660 C   0  0  0  0  0  2  0  0  0  0  0  0
  186.4250  178.3060  140.7680 F   0  0  0  0  0  0  0  0  0  0  0  0
  188.5670  178.0560  141.6380 C   0  0  0  0  0  3  0  0  0  0  0  0
  189.0060  177.6880  144.0200 C   0  0  0  0  0  0  0  0  0  0  0  0
  186.7060  178.3150  143.2270 C   0  0  0  0  0  2  0  0  0  0  0  0
  189.4770  177.9160  142.7850 C   0  0  0  0  0  3  0  0  0  0  0  0
  187.5150  177.4930  144.2610 C   0  0  1  0  0  0  0  0  0  0  0  0
  187.2120  176.0010  144.0780 C   0  0  0  0  0  1  0  0  0  0  0  0
  187.2540  178.1880  141.8320 C   0  0  0  0  0  0  0  0  0  0  0  0
  186.1400  177.1730  146.1060 C   0  0  0  0  0  1  0  0  0  0  0  0
  187.2170  177.9150  145.5830 O   0  0  0  0  0  0  0  0  0  0  0  0
  1  3  1  0  0  0  0
  3 11  1  0  0  0  0
  3  7  1  0  0  0  0
  4  1  1  0  0  0  0
  4  6  1  0  0  0  0
  5  1  1  0  0  0  0
  5  9  1  0  0  0  0
  6 12  1  0  0  0  0
  6  8  1  0  0  0  0
  7 20  1  0  0  0  0
  8  7  1  0  0  0  0
  9 11  1  0  0  0  0
 10  6  1  0  0  0  0
 11 22  1  0  0  0  0
 11  2  1  0  0  0  0
 13 14  2  0  0  0  0
 14  5  1  0  0  0  0
 14 15  1  0  0  0  0
 15 16  1  0  0  0  0
 16 17  1  0  0  0  0
 18 19  1  0  0  0  0
 19  4  1  0  0  0  0
 20 21  1  0  0  0  0
 23 30  1  0  0  0  0
 24 30  2  0  0  0  0
 24 27  1  0  0  0  0
 25 28  1  0  0  0  0
 25 22  1  0  0  0  0
 26 28  1  0  0  0  0
 27 25  2  0  0  0  0
 28 32  1  0  0  0  0
 29 28  1  0  0  0  0
 30 26  1  0  0  0  0
 32 31  1  0  0  0  0
M  END
>  <MODEL>
8

>  <REMARK>
 VINA RESULT:      -5.8      3.397      6.577
  Name = 
  8 active torsions:
  status: ('A' for Active; 'I' for Inactive)
    1  A    between atoms: C_1  and  C_16
    2  A    between atoms: C_1  and  C_27
    3  A    between atoms: C_6  and  O_17
    4  A    between atoms: O_8  and  C_22
    5  A    between atoms: N_9  and  C_32
    6  A    between atoms: C_10  and  C_28
    7  A    between atoms: C_14  and  C_21
    8  A    between atoms: C_28  and  C_32
                            x       y       z     vdW  Elec       q    Type
                         _______ _______ _______ _____ _____    ______ ____

>  <TORSDO>
F 8

$$$$
=
 OpenBabel11052419193D

 32 34  0  0  1  0  0  0  0  0999 V2000
  191.1330  174.2450  142.2610 C   0  0  1  0  0  3  0  0  0  0  0  0
  188.5320  173.0580  142.9230 O   0  0  0  0  0  1  0  0  0  0  0  0
  189.9190  174.3150  141.4290 C   0  0  1  0  0  3  0  0  0  0  0  0
  192.3180  174.5520  141.3490 C   0  0  2  0  0  3  0  0  0  0  0  0
  190.7660  175.2280  143.3440 C   0  0  1  0  0  3  0  0  0  0  0  0
  192.3280  173.5480  140.1570 C   0  0  0  0  0  0  0  0  0  0  0  0
  190.0110  173.2130  140.3680 C   0  0  2  0  0  3  0  0  0  0  0  0
  191.0730  173.5410  139.4810 O   0  0  0  0  0  0  0  0  0  0  0  0
  189.3720  175.0990  143.5720 O   0  0  0  0  0  0  0  0  0  0  0  0
  193.3110  173.9480  139.2510 O   0  0  0  0  0  1  0  0  0  0  0  0
  188.8400  174.3520  142.4900 C   0  0  2  0  0  0  0  0  0  0  0  0
  192.6260  172.2510  140.5910 O   0  0  0  0  0  1  0  0  0  0  0  0
  191.8790  173.8160  144.8590 O   0  0  0  0  0  0  0  0  0  0  0  0
  191.5180  174.9540  144.6090 C   0  0  0  0  0  0  0  0  0  0  0  0
  191.8110  176.0570  145.5790 C   0  0  0  0  0  2  0  0  0  0  0  0
  190.8530  176.0330  146.6720 N   0  0  0  0  0  2  0  0  0  0  0  0
  190.0910  177.1470  146.5550 O   0  0  0  0  0  1  0  0  0  0  0  0
  193.9750  176.0540  141.9240 C   0  0  0  0  0  1  0  0  0  0  0  0
  193.5630  174.7140  142.0040 O   0  0  0  0  0  0  0  0  0  0  0  0
  188.7280  173.1130  139.5590 C   0  0  0  0  0  2  0  0  0  0  0  0
  188.6520  174.1680  138.6490 O   0  0  0  0  0  1  0  0  0  0  0  0
  187.5960  175.0470  141.9340 C   0  0  0  0  0  2  0  0  0  0  0  0
  185.9500  179.7940  144.6140 F   0  0  0  0  0  0  0  0  0  0  0  0
  186.5150  177.5390  144.6270 C   0  0  0  0  0  3  0  0  0  0  0  0
  187.2710  176.3400  142.6280 C   0  0  0  0  0  0  0  0  0  0  0  0
  186.3320  178.6640  142.4460 C   0  0  0  0  0  2  0  0  0  0  0  0
  186.9050  176.3100  143.9180 C   0  0  0  0  0  3  0  0  0  0  0  0
  187.3670  177.6610  141.8770 C   0  0  1  0  0  0  0  0  0  0  0  0
  188.7820  178.2110  142.0920 C   0  0  0  0  0  1  0  0  0  0  0  0
  186.2980  178.6670  143.9500 C   0  0  0  0  0  0  0  0  0  0  0  0
  185.8590  177.9120  140.1290 C   0  0  0  0  0  1  0  0  0  0  0  0
  187.1210  177.4120  140.5010 O   0  0  0  0  0  0  0  0  0  0  0  0
  1  5  1  0  0  0  0
  3  1  1  0  0  0  0
  3 11  1  0  0  0  0
  4 19  1  0  0  0  0
  4  1  1  0  0  0  0
  5  9  1  0  0  0  0
  5 14  1  0  0  0  0
  6 12  1  0  0  0  0
  6  4  1  0  0  0  0
  7  3  1  0  0  0  0
  8  6  1  0  0  0  0
  8  7  1  0  0  0  0
 10  6  1  0  0  0  0
 11  2  1  0  0  0  0
 11  9  1  0  0  0  0
 14 13  2  0  0  0  0
 14 15  1  0  0  0  0
 15 16  1  0  0  0  0
 17 16  1  0  0  0  0
 18 19  1  0  0  0  0
 20  7  1  0  0  0  0
 21 20  1  0  0  0  0
 22 11  1  0  0  0  0
 22 25  1  0  0  0  0
 25 27  2  0  0  0  0
 26 30  1  0  0  0  0
 27 24  1  0  0  0  0
 28 29  1  0  0  0  0
 28 26  1  0  0  0  0
 28 25  1  0  0  0  0
 30 23  1  0  0  0  0
 30 24  2  0  0  0  0
 31 32  1  0  0  0  0
 32 28  1  0  0  0  0
M  END
>  <MODEL>
9

>  <REMARK>
 VINA RESULT:      -5.8      3.730      7.678
  Name = 
  8 active torsions:
  status: ('A' for Active; 'I' for Inactive)
    1  A    between atoms: C_1  and  C_16
    2  A    between atoms: C_1  and  C_27
    3  A    between atoms: C_6  and  O_17
    4  A    between atoms: O_8  and  C_22
    5  A    between atoms: N_9  and  C_32
    6  A    between atoms: C_10  and  C_28
    7  A    between atoms: C_14  and  C_21
    8  A    between atoms: C_28  and  C_32
                            x       y       z     vdW  Elec       q    Type
                         _______ _______ _______ _____ _____    ______ ____

>  <TORSDO>
F 8

$$$$
