=
 OpenBabel11052419033D

 32 36  0  0  1  0  0  0  0  0999 V2000
  188.9350  175.1130  141.7190 C   0  0  0  0  0  0  0  0  0  0  0  0
  187.5610  177.0320  142.3920 C   0  0  0  0  0  0  0  0  0  0  0  0
  189.2780  174.1680  140.7420 C   0  0  0  0  0  3  0  0  0  0  0  0
  187.9610  176.0960  141.4100 C   0  0  0  0  0  0  0  0  0  0  0  0
  186.5800  178.1390  142.0380 C   0  0  2  0  0  3  0  0  0  0  0  0
  188.1320  176.9800  143.6780 C   0  0  0  0  0  0  0  0  0  0  0  0
  186.1740  178.1830  144.6080 C   0  0  1  0  0  3  0  0  0  0  0  0
  187.3850  176.1010  140.1210 C   0  0  0  0  0  0  0  0  0  0  0  0
  185.7780  178.7090  143.2230 C   0  0  0  0  0  2  0  0  0  0  0  0
  186.4100  177.1620  139.7060 C   0  0  0  0  0  2  0  0  0  0  0  0
  187.7650  175.1750  139.2010 N   0  0  0  0  0  0  0  0  0  0  0  0
  189.1150  176.0220  143.9560 C   0  0  0  0  0  3  0  0  0  0  0  0
  189.5290  175.0890  143.0010 C   0  0  0  0  0  0  0  0  0  0  0  0
  187.6910  177.9750  144.7320 C   0  0  1  0  0  3  0  0  0  0  0  0
  185.6350  177.7110  140.9040 C   0  0  2  0  0  3  0  0  0  0  0  0
  188.6820  174.2160  139.4850 C   0  0  0  0  0  3  0  0  0  0  0  0
  192.9500  173.5850  142.8110 C   0  0  0  0  0  0  0  0  0  0  0  0
  192.9310  170.4590  144.3670 O   0  0  0  0  0  1  0  0  0  0  0  0
  194.2700  173.9940  142.6480 O   0  0  0  0  0  1  0  0  0  0  0  0
  191.0500  171.8610  144.4380 C   0  0  0  0  0  3  0  0  0  0  0  0
  190.5770  174.1150  143.3980 C   0  0  0  0  0  0  0  0  0  0  0  0
  192.6290  172.1490  142.5690 C   0  0  0  0  0  2  0  0  0  0  0  0
  190.1870  172.9750  143.9980 C   0  0  0  0  0  3  0  0  0  0  0  0
  192.0080  174.4750  143.1670 C   0  0  0  0  0  0  0  0  0  0  0  0
  192.4750  176.1640  143.3610 Cl  0  0  0  0  0  0  0  0  0  0  0  0
  192.1780  171.4950  143.8320 C   0  0  0  0  0  0  0  0  0  0  0  0
  188.0470  177.5220  146.1540 C   0  0  0  0  0  2  0  0  0  0  0  0
  187.1380  176.3850  146.5890 C   0  0  0  0  0  1  0  0  0  0  0  0
  185.5940  179.0940  145.6940 C   0  0  0  0  0  2  0  0  0  0  0  0
  184.1890  178.6780  146.1100 C   0  0  0  0  0  1  0  0  0  0  0  0
  184.7150  178.7790  140.4990 N   0  0  0  0  0  2  0  0  0  0  0  0
  183.3370  178.2960  140.4690 C   0  0  0  0  0  1  0  0  0  0  0  0
  1 13  2  0  0  0  0
  2  6  1  0  0  0  0
  3  1  1  0  0  0  0
  4  1  1  0  0  0  0
  4  2  2  0  0  0  0
  5  2  1  0  0  0  0
  5  9  1  1  0  0  0
  6 12  2  0  0  0  0
  6 14  1  0  0  0  0
  7 14  1  0  0  0  0
  7 29  1  1  0  0  0
  8  4  1  0  0  0  0
  9  7  1  0  0  0  0
 10  8  1  0  0  0  0
 10 15  1  0  0  0  0
 11 16  1  0  0  0  0
 11  8  2  0  0  0  0
 13 21  1  0  0  0  0
 13 12  1  0  0  0  0
 14 27  1  1  0  0  0
 15 31  1  6  0  0  0
 15  5  1  0  0  0  0
 16  3  2  0  0  0  0
 17 24  2  0  0  0  0
 19 17  1  0  0  0  0
 21 23  2  0  0  0  0
 22 17  1  0  0  0  0
 22 26  1  0  0  0  0
 23 20  1  0  0  0  0
 24 25  1  0  0  0  0
 24 21  1  0  0  0  0
 26 18  1  0  0  0  0
 26 20  2  0  0  0  0
 27 28  1  0  0  0  0
 29 30  1  0  0  0  0
 32 31  1  0  0  0  0
M  END
>  <MODEL>
1

>  <REMARK>
 VINA RESULT:      -7.9      0.000      0.000
  Name = 
  4 active torsions:
  status: ('A' for Active; 'I' for Inactive)
    1  A    between atoms: C_9  and  C_28
    2  A    between atoms: C_11  and  C_12
    3  A    between atoms: N_13  and  C_29
    4  A    between atoms: C_16  and  C_27
                            x       y       z     vdW  Elec       q    Type
                         _______ _______ _______ _____ _____    ______ ____

>  <TORSDO>
F 4

$$$$
=
 OpenBabel11052419033D

 32 36  0  0  1  0  0  0  0  0999 V2000
  189.6340  176.2500  145.8100 C   0  0  0  0  0  0  0  0  0  0  0  0
  190.9770  174.5610  144.6390 C   0  0  0  0  0  0  0  0  0  0  0  0
  189.5230  177.1820  146.8500 C   0  0  0  0  0  3  0  0  0  0  0  0
  190.8520  175.5430  145.6500 C   0  0  0  0  0  0  0  0  0  0  0  0
  192.3070  173.8620  144.4120 C   0  0  2  0  0  3  0  0  0  0  0  0
  189.8830  174.2890  143.7950 C   0  0  0  0  0  0  0  0  0  0  0  0
  190.8150  172.0480  143.2930 C   0  0  1  0  0  3  0  0  0  0  0  0
  191.9200  175.8170  146.5330 C   0  0  0  0  0  0  0  0  0  0  0  0
  192.2150  172.4730  143.7520 C   0  0  0  0  0  2  0  0  0  0  0  0
  193.2580  175.1620  146.3670 C   0  0  0  0  0  2  0  0  0  0  0  0
  191.7690  176.7450  147.5150 N   0  0  0  0  0  0  0  0  0  0  0  0
  188.6980  175.0190  143.9470 C   0  0  0  0  0  3  0  0  0  0  0  0
  188.5520  175.9960  144.9360 C   0  0  0  0  0  0  0  0  0  0  0  0
  190.0140  173.2270  142.7230 C   0  0  1  0  0  3  0  0  0  0  0  0
  193.1330  173.7900  145.7060 C   0  0  2  0  0  3  0  0  0  0  0  0
  190.6050  177.4180  147.6950 C   0  0  0  0  0  3  0  0  0  0  0  0
  186.2460  178.8420  144.1740 C   0  0  0  0  0  0  0  0  0  0  0  0
  183.5000  178.7180  146.3270 O   0  0  0  0  0  1  0  0  0  0  0  0
  185.9470  179.6980  143.1190 O   0  0  0  0  0  1  0  0  0  0  0  0
  185.0980  176.9990  146.3010 C   0  0  0  0  0  3  0  0  0  0  0  0
  187.2540  176.7120  145.0130 C   0  0  0  0  0  0  0  0  0  0  0  0
  185.8010  179.2360  145.5420 C   0  0  0  0  0  2  0  0  0  0  0  0
  186.4130  176.3920  146.0150 C   0  0  0  0  0  3  0  0  0  0  0  0
  186.9240  177.7040  143.9470 C   0  0  0  0  0  0  0  0  0  0  0  0
  187.4680  177.3610  142.3050 Cl  0  0  0  0  0  0  0  0  0  0  0  0
  184.7860  178.2710  146.0590 C   0  0  0  0  0  0  0  0  0  0  0  0
  188.6530  172.7410  142.2070 C   0  0  0  0  0  2  0  0  0  0  0  0
  188.4530  173.1670  140.7620 C   0  0  0  0  0  1  0  0  0  0  0  0
  190.9240  170.8630  142.3280 C   0  0  0  0  0  2  0  0  0  0  0  0
  191.8880  171.1350  141.1800 C   0  0  0  0  0  1  0  0  0  0  0  0
  194.4490  173.1730  145.5060 N   0  0  0  0  0  2  0  0  0  0  0  0
  195.5130  174.1680  145.6150 C   0  0  0  0  0  1  0  0  0  0  0  0
  1  3  1  0  0  0  0
  2  4  1  0  0  0  0
  3 16  2  0  0  0  0
  4  1  2  0  0  0  0
  4  8  1  0  0  0  0
  5  9  1  1  0  0  0
  5  2  1  0  0  0  0
  5 15  1  0  0  0  0
  6 12  1  0  0  0  0
  6  2  2  0  0  0  0
  7 29  1  6  0  0  0
  7  9  1  0  0  0  0
  8 11  2  0  0  0  0
 10  8  1  0  0  0  0
 11 16  1  0  0  0  0
 12 13  2  0  0  0  0
 13 21  1  0  0  0  0
 13  1  1  0  0  0  0
 14 27  1  1  0  0  0
 14  7  1  0  0  0  0
 14  6  1  0  0  0  0
 15 31  1  6  0  0  0
 15 10  1  0  0  0  0
 17 22  1  0  0  0  0
 19 17  1  0  0  0  0
 21 23  2  0  0  0  0
 22 26  1  0  0  0  0
 23 20  1  0  0  0  0
 24 17  2  0  0  0  0
 24 21  1  0  0  0  0
 25 24  1  0  0  0  0
 26 20  2  0  0  0  0
 26 18  1  0  0  0  0
 28 27  1  0  0  0  0
 30 29  1  0  0  0  0
 31 32  1  0  0  0  0
M  END
>  <MODEL>
2

>  <REMARK>
 VINA RESULT:      -7.9      4.205      8.267
  Name = 
  4 active torsions:
  status: ('A' for Active; 'I' for Inactive)
    1  A    between atoms: C_9  and  C_28
    2  A    between atoms: C_11  and  C_12
    3  A    between atoms: N_13  and  C_29
    4  A    between atoms: C_16  and  C_27
                            x       y       z     vdW  Elec       q    Type
                         _______ _______ _______ _____ _____    ______ ____

>  <TORSDO>
F 4

$$$$
=
 OpenBabel11052419033D

 32 36  0  0  1  0  0  0  0  0999 V2000
  189.6140  174.0770  143.4980 C   0  0  0  0  0  0  0  0  0  0  0  0
  191.7560  173.4200  144.5010 C   0  0  0  0  0  0  0  0  0  0  0  0
  188.5690  173.7900  142.6100 C   0  0  0  0  0  3  0  0  0  0  0  0
  190.6640  173.1370  143.6480 C   0  0  0  0  0  0  0  0  0  0  0  0
  192.8400  172.3790  144.7280 C   0  0  2  0  0  3  0  0  0  0  0  0
  191.7950  174.6440  145.1990 C   0  0  0  0  0  0  0  0  0  0  0  0
  194.2560  174.4490  145.4230 C   0  0  1  0  0  3  0  0  0  0  0  0
  190.6110  171.9330  142.9100 C   0  0  0  0  0  0  0  0  0  0  0  0
  194.2110  172.9400  145.1540 C   0  0  0  0  0  2  0  0  0  0  0  0
  191.6480  170.8640  143.0840 C   0  0  0  0  0  2  0  0  0  0  0  0
  189.5660  171.6930  142.0750 N   0  0  0  0  0  0  0  0  0  0  0  0
  190.7340  175.5470  145.0630 C   0  0  0  0  0  3  0  0  0  0  0  0
  189.6430  175.2870  144.2290 C   0  0  0  0  0  0  0  0  0  0  0  0
  192.9720  174.9510  146.1000 C   0  0  1  0  0  3  0  0  0  0  0  0
  192.9930  171.4530  143.5120 C   0  0  2  0  0  3  0  0  0  0  0  0
  188.5610  172.5890  141.9060 C   0  0  0  0  0  3  0  0  0  0  0  0
  186.2540  176.6520  145.0350 C   0  0  0  0  0  0  0  0  0  0  0  0
  185.5100  179.2740  142.8520 O   0  0  0  0  0  1  0  0  0  0  0  0
  185.3690  176.7000  146.1080 O   0  0  0  0  0  1  0  0  0  0  0  0
  187.6270  178.2610  142.8540 C   0  0  0  0  0  3  0  0  0  0  0  0
  188.5700  176.3110  144.1560 C   0  0  0  0  0  0  0  0  0  0  0  0
  185.7180  176.9370  143.6730 C   0  0  0  0  0  2  0  0  0  0  0  0
  188.6050  177.1920  143.1380 C   0  0  0  0  0  3  0  0  0  0  0  0
  187.5460  176.3490  145.2420 C   0  0  0  0  0  0  0  0  0  0  0  0
  188.0690  175.9600  146.8810 Cl  0  0  0  0  0  0  0  0  0  0  0  0
  186.3250  178.1840  143.1230 C   0  0  0  0  0  0  0  0  0  0  0  0
  193.0940  176.4470  146.4190 C   0  0  0  0  0  2  0  0  0  0  0  0
  192.3610  176.7730  147.7100 C   0  0  0  0  0  1  0  0  0  0  0  0
  195.5300  174.7990  146.1980 C   0  0  0  0  0  2  0  0  0  0  0  0
  196.6500  173.7960  145.9570 C   0  0  0  0  0  1  0  0  0  0  0  0
  193.9910  170.3990  143.7220 N   0  0  0  0  0  2  0  0  0  0  0  0
  193.4240  169.2870  144.4820 C   0  0  0  0  0  1  0  0  0  0  0  0
  1  4  1  0  0  0  0
  1 13  2  0  0  0  0
  2  5  1  0  0  0  0
  2  6  1  0  0  0  0
  3  1  1  0  0  0  0
  4  2  2  0  0  0  0
  5  9  1  6  0  0  0
  6 14  1  0  0  0  0
  7 14  1  0  0  0  0
  7 29  1  1  0  0  0
  8 10  1  0  0  0  0
  8  4  1  0  0  0  0
  9  7  1  0  0  0  0
 10 15  1  0  0  0  0
 11  8  2  0  0  0  0
 12  6  2  0  0  0  0
 13 12  1  0  0  0  0
 14 27  1  6  0  0  0
 15 31  1  1  0  0  0
 15  5  1  0  0  0  0
 16 11  1  0  0  0  0
 16  3  2  0  0  0  0
 17 24  2  0  0  0  0
 17 19  1  0  0  0  0
 18 26  1  0  0  0  0
 20 26  2  0  0  0  0
 20 23  1  0  0  0  0
 21 13  1  0  0  0  0
 21 24  1  0  0  0  0
 22 17  1  0  0  0  0
 23 21  2  0  0  0  0
 24 25  1  0  0  0  0
 26 22  1  0  0  0  0
 27 28  1  0  0  0  0
 30 29  1  0  0  0  0
 31 32  1  0  0  0  0
M  END
>  <MODEL>
3

>  <REMARK>
 VINA RESULT:      -7.6      3.921      7.810
  Name = 
  4 active torsions:
  status: ('A' for Active; 'I' for Inactive)
    1  A    between atoms: C_9  and  C_28
    2  A    between atoms: C_11  and  C_12
    3  A    between atoms: N_13  and  C_29
    4  A    between atoms: C_16  and  C_27
                            x       y       z     vdW  Elec       q    Type
                         _______ _______ _______ _____ _____    ______ ____

>  <TORSDO>
F 4

$$$$
=
 OpenBabel11052419033D

 32 36  0  0  1  0  0  0  0  0999 V2000
  189.8590  174.9020  142.5960 C   0  0  0  0  0  0  0  0  0  0  0  0
  188.3400  176.5060  143.6660 C   0  0  0  0  0  0  0  0  0  0  0  0
  190.1720  174.1040  141.4870 C   0  0  0  0  0  3  0  0  0  0  0  0
  188.7070  175.7260  142.5440 C   0  0  0  0  0  0  0  0  0  0  0  0
  187.1540  177.4530  143.5840 C   0  0  2  0  0  3  0  0  0  0  0  0
  189.1230  176.4550  144.8360 C   0  0  0  0  0  0  0  0  0  0  0  0
  187.1910  177.2360  146.1770 C   0  0  1  0  0  3  0  0  0  0  0  0
  187.9240  175.7300  141.3680 C   0  0  0  0  0  0  0  0  0  0  0  0
  186.4880  177.7900  144.9320 C   0  0  0  0  0  2  0  0  0  0  0  0
  186.7410  176.6390  141.2200 C   0  0  0  0  0  2  0  0  0  0  0  0
  188.2810  174.9530  140.3110 N   0  0  0  0  0  0  0  0  0  0  0  0
  190.2750  175.6590  144.8580 C   0  0  0  0  0  3  0  0  0  0  0  0
  190.6600  174.8840  143.7600 C   0  0  0  0  0  0  0  0  0  0  0  0
  188.7200  177.2790  146.0400 C   0  0  1  0  0  3  0  0  0  0  0  0
  186.1070  176.9580  142.5740 C   0  0  2  0  0  3  0  0  0  0  0  0
  189.3700  174.1440  140.3500 C   0  0  0  0  0  3  0  0  0  0  0  0
  194.1750  173.9730  142.8570 C   0  0  0  0  0  0  0  0  0  0  0  0
  194.9160  170.8060  144.1270 O   0  0  0  0  0  1  0  0  0  0  0  0
  195.3640  174.6010  142.5030 O   0  0  0  0  0  1  0  0  0  0  0  0
  192.8900  171.8750  144.6390 C   0  0  0  0  0  3  0  0  0  0  0  0
  191.8980  174.0750  143.8880 C   0  0  0  0  0  0  0  0  0  0  0  0
  194.0360  172.5190  142.5560 C   0  0  0  0  0  2  0  0  0  0  0  0
  191.8020  172.8540  144.4490 C   0  0  0  0  0  3  0  0  0  0  0  0
  193.1910  174.6750  143.4430 C   0  0  0  0  0  0  0  0  0  0  0  0
  193.4240  176.4050  143.6940 Cl  0  0  0  0  0  0  0  0  0  0  0  0
  193.9290  171.7320  143.8190 C   0  0  0  0  0  0  0  0  0  0  0  0
  189.3790  176.7890  147.3360 C   0  0  0  0  0  2  0  0  0  0  0  0
  190.3340  177.8420  147.8730 C   0  0  0  0  0  1  0  0  0  0  0  0
  186.6710  177.9530  147.4270 C   0  0  0  0  0  2  0  0  0  0  0  0
  185.6250  179.0100  147.0970 C   0  0  0  0  0  1  0  0  0  0  0  0
  184.9770  177.8820  142.4280 N   0  0  0  0  0  2  0  0  0  0  0  0
  184.7800  178.2470  141.0270 C   0  0  0  0  0  1  0  0  0  0  0  0
  1 13  2  0  0  0  0
  2  6  1  0  0  0  0
  3  1  1  0  0  0  0
  4  1  1  0  0  0  0
  4  2  2  0  0  0  0
  5  2  1  0  0  0  0
  5  9  1  1  0  0  0
  6 12  2  0  0  0  0
  6 14  1  0  0  0  0
  7 29  1  1  0  0  0
  8  4  1  0  0  0  0
  9  7  1  0  0  0  0
 10  8  1  0  0  0  0
 10 15  1  0  0  0  0
 11 16  1  0  0  0  0
 11  8  2  0  0  0  0
 13 21  1  0  0  0  0
 13 12  1  0  0  0  0
 14  7  1  0  0  0  0
 14 27  1  1  0  0  0
 15 31  1  6  0  0  0
 15  5  1  0  0  0  0
 16  3  2  0  0  0  0
 17 24  2  0  0  0  0
 19 17  1  0  0  0  0
 21 23  2  0  0  0  0
 22 17  1  0  0  0  0
 22 26  1  0  0  0  0
 23 20  1  0  0  0  0
 24 25  1  0  0  0  0
 24 21  1  0  0  0  0
 26 18  1  0  0  0  0
 26 20  2  0  0  0  0
 27 28  1  0  0  0  0
 30 29  1  0  0  0  0
 32 31  1  0  0  0  0
M  END
>  <MODEL>
4

>  <REMARK>
 VINA RESULT:      -7.5      1.337      1.742
  Name = 
  4 active torsions:
  status: ('A' for Active; 'I' for Inactive)
    1  A    between atoms: C_9  and  C_28
    2  A    between atoms: C_11  and  C_12
    3  A    between atoms: N_13  and  C_29
    4  A    between atoms: C_16  and  C_27
                            x       y       z     vdW  Elec       q    Type
                         _______ _______ _______ _____ _____    ______ ____

>  <TORSDO>
F 4

$$$$
=
 OpenBabel11052419033D

 32 36  0  0  1  0  0  0  0  0999 V2000
  189.8800  176.5840  145.1900 C   0  0  0  0  0  0  0  0  0  0  0  0
  187.6720  177.0280  144.2140 C   0  0  0  0  0  0  0  0  0  0  0  0
  190.7530  176.6960  146.2810 C   0  0  0  0  0  3  0  0  0  0  0  0
  188.5600  177.0840  145.3140 C   0  0  0  0  0  0  0  0  0  0  0  0
  186.2310  177.4860  144.3710 C   0  0  2  0  0  3  0  0  0  0  0  0
  188.1090  176.4760  142.9940 C   0  0  0  0  0  0  0  0  0  0  0  0
  186.3510  177.7350  141.7830 C   0  0  1  0  0  3  0  0  0  0  0  0
  188.1620  177.6600  146.5410 C   0  0  0  0  0  0  0  0  0  0  0  0
  185.5410  177.9370  143.0690 C   0  0  0  0  0  2  0  0  0  0  0  0
  186.7570  178.1330  146.7630 C   0  0  0  0  0  2  0  0  0  0  0  0
  189.0400  177.7280  147.5770 N   0  0  0  0  0  0  0  0  0  0  0  0
  189.4070  175.9590  142.8990 C   0  0  0  0  0  3  0  0  0  0  0  0
  190.3000  176.0000  143.9740 C   0  0  0  0  0  0  0  0  0  0  0  0
  187.1620  176.4310  141.8140 C   0  0  1  0  0  3  0  0  0  0  0  0
  186.0990  178.5680  145.4530 C   0  0  2  0  0  3  0  0  0  0  0  0
  190.3130  177.2710  147.4710 C   0  0  0  0  0  3  0  0  0  0  0  0
  193.1860  173.8080  144.9060 C   0  0  0  0  0  0  0  0  0  0  0  0
  196.0030  174.7580  143.0740 O   0  0  0  0  0  1  0  0  0  0  0  0
  193.4160  172.5520  145.4580 O   0  0  0  0  0  1  0  0  0  0  0  0
  193.9030  175.7190  142.6550 C   0  0  0  0  0  3  0  0  0  0  0  0
  191.6530  175.4240  143.7680 C   0  0  0  0  0  0  0  0  0  0  0  0
  194.3140  174.7840  144.8970 C   0  0  0  0  0  2  0  0  0  0  0  0
  192.5080  176.0880  142.9670 C   0  0  0  0  0  3  0  0  0  0  0  0
  191.9760  174.1150  144.4100 C   0  0  0  0  0  0  0  0  0  0  0  0
  190.6880  172.9170  144.5300 Cl  0  0  0  0  0  0  0  0  0  0  0  0
  194.7250  175.0940  143.4970 C   0  0  0  0  0  0  0  0  0  0  0  0
  187.8940  176.2330  140.4800 C   0  0  0  0  0  2  0  0  0  0  0  0
  187.9350  174.7580  140.1150 C   0  0  0  0  0  1  0  0  0  0  0  0
  185.4280  177.8490  140.5660 C   0  0  0  0  0  2  0  0  0  0  0  0
  184.0060  178.2390  140.9500 C   0  0  0  0  0  1  0  0  0  0  0  0
  184.7100  178.9890  145.6690 N   0  0  0  0  0  2  0  0  0  0  0  0
  184.0660  178.1590  146.6840 C   0  0  0  0  0  1  0  0  0  0  0  0
  1  4  2  0  0  0  0
  1  3  1  0  0  0  0
  2  5  1  0  0  0  0
  2  4  1  0  0  0  0
  3 16  2  0  0  0  0
  4  8  1  0  0  0  0
  5  9  1  6  0  0  0
  5 15  1  0  0  0  0
  6  2  2  0  0  0  0
  7 29  1  6  0  0  0
  7 14  1  0  0  0  0
  7  9  1  0  0  0  0
  8 10  1  0  0  0  0
  8 11  2  0  0  0  0
 12  6  1  0  0  0  0
 12 13  2  0  0  0  0
 13  1  1  0  0  0  0
 14 27  1  6  0  0  0
 14  6  1  0  0  0  0
 15 31  1  1  0  0  0
 15 10  1  0  0  0  0
 16 11  1  0  0  0  0
 17 19  1  0  0  0  0
 18 26  1  0  0  0  0
 20 23  1  0  0  0  0
 20 26  2  0  0  0  0
 21 13  1  0  0  0  0
 21 24  1  0  0  0  0
 22 17  1  0  0  0  0
 23 21  2  0  0  0  0
 24 25  1  0  0  0  0
 24 17  2  0  0  0  0
 26 22  1  0  0  0  0
 28 27  1  0  0  0  0
 29 30  1  0  0  0  0
 31 32  1  0  0  0  0
M  END
>  <MODEL>
5

>  <REMARK>
 VINA RESULT:      -7.5      2.381      4.733
  Name = 
  4 active torsions:
  status: ('A' for Active; 'I' for Inactive)
    1  A    between atoms: C_9  and  C_28
    2  A    between atoms: C_11  and  C_12
    3  A    between atoms: N_13  and  C_29
    4  A    between atoms: C_16  and  C_27
                            x       y       z     vdW  Elec       q    Type
                         _______ _______ _______ _____ _____    ______ ____

>  <TORSDO>
F 4

$$$$
=
 OpenBabel11052419033D

 32 36  0  0  1  0  0  0  0  0999 V2000
  190.6580  174.7130  142.4120 C   0  0  0  0  0  0  0  0  0  0  0  0
  189.0480  176.2330  143.4710 C   0  0  0  0  0  0  0  0  0  0  0  0
  190.9830  173.8660  141.3430 C   0  0  0  0  0  3  0  0  0  0  0  0
  189.4240  175.4090  142.3840 C   0  0  0  0  0  0  0  0  0  0  0  0
  187.7650  177.0460  143.4050 C   0  0  2  0  0  3  0  0  0  0  0  0
  189.9050  176.3550  144.5820 C   0  0  0  0  0  0  0  0  0  0  0  0
  187.9890  177.0380  145.9980 C   0  0  1  0  0  3  0  0  0  0  0  0
  188.5720  175.2420  141.2690 C   0  0  0  0  0  0  0  0  0  0  0  0
  187.1540  177.4180  144.7700 C   0  0  0  0  0  2  0  0  0  0  0  0
  187.2920  176.0110  141.1420 C   0  0  0  0  0  2  0  0  0  0  0  0
  188.9420  174.4240  140.2480 N   0  0  0  0  0  0  0  0  0  0  0  0
  191.1340  175.6840  144.5790 C   0  0  0  0  0  3  0  0  0  0  0  0
  191.5290  174.8670  143.5150 C   0  0  0  0  0  0  0  0  0  0  0  0
  189.4930  177.2250  145.7500 C   0  0  1  0  0  3  0  0  0  0  0  0
  186.7150  176.3690  142.5110 C   0  0  2  0  0  3  0  0  0  0  0  0
  190.1110  173.7350  140.2660 C   0  0  0  0  0  3  0  0  0  0  0  0
  194.0270  172.5980  145.1280 C   0  0  0  0  0  0  0  0  0  0  0  0
  197.1960  173.2320  143.8050 O   0  0  0  0  0  1  0  0  0  0  0  0
  194.0600  171.3790  145.7990 O   0  0  0  0  0  1  0  0  0  0  0  0
  195.2840  174.2740  142.9280 C   0  0  0  0  0  3  0  0  0  0  0  0
  192.8520  174.2010  143.6110 C   0  0  0  0  0  0  0  0  0  0  0  0
  195.2040  173.5030  145.2670 C   0  0  0  0  0  2  0  0  0  0  0  0
  193.8860  174.7470  142.9430 C   0  0  0  0  0  3  0  0  0  0  0  0
  192.9550  172.9320  144.3910 C   0  0  0  0  0  0  0  0  0  0  0  0
  191.5840  171.8230  144.3460 Cl  0  0  0  0  0  0  0  0  0  0  0  0
  195.8890  173.6740  143.9520 C   0  0  0  0  0  0  0  0  0  0  0  0
  190.2820  176.9080  147.0270 C   0  0  0  0  0  2  0  0  0  0  0  0
  190.0210  175.4770  147.4670 C   0  0  0  0  0  1  0  0  0  0  0  0
  187.4760  177.7940  147.2280 C   0  0  0  0  0  2  0  0  0  0  0  0
  186.1170  177.2890  147.6930 C   0  0  0  0  0  1  0  0  0  0  0  0
  185.4860  177.1600  142.3800 N   0  0  0  0  0  2  0  0  0  0  0  0
  185.4960  177.9380  141.1440 C   0  0  0  0  0  1  0  0  0  0  0  0
  1 13  2  0  0  0  0
  2  6  1  0  0  0  0
  3  1  1  0  0  0  0
  4  1  1  0  0  0  0
  4  2  2  0  0  0  0
  5  2  1  0  0  0  0
  5  9  1  1  0  0  0
  6 14  1  0  0  0  0
  7 29  1  1  0  0  0
  8  4  1  0  0  0  0
  9  7  1  0  0  0  0
 10  8  1  0  0  0  0
 10 15  1  0  0  0  0
 11 16  1  0  0  0  0
 11  8  2  0  0  0  0
 12  6  2  0  0  0  0
 13 21  1  0  0  0  0
 13 12  1  0  0  0  0
 14  7  1  0  0  0  0
 14 27  1  1  0  0  0
 15 31  1  6  0  0  0
 15  5  1  0  0  0  0
 16  3  2  0  0  0  0
 17 22  1  0  0  0  0
 17 19  1  0  0  0  0
 18 26  1  0  0  0  0
 20 23  1  0  0  0  0
 20 26  2  0  0  0  0
 21 24  1  0  0  0  0
 23 21  2  0  0  0  0
 24 17  2  0  0  0  0
 25 24  1  0  0  0  0
 26 22  1  0  0  0  0
 27 28  1  0  0  0  0
 29 30  1  0  0  0  0
 32 31  1  0  0  0  0
M  END
>  <MODEL>
6

>  <REMARK>
 VINA RESULT:      -7.4      1.961      2.915
  Name = 
  4 active torsions:
  status: ('A' for Active; 'I' for Inactive)
    1  A    between atoms: C_9  and  C_28
    2  A    between atoms: C_11  and  C_12
    3  A    between atoms: N_13  and  C_29
    4  A    between atoms: C_16  and  C_27
                            x       y       z     vdW  Elec       q    Type
                         _______ _______ _______ _____ _____    ______ ____

>  <TORSDO>
F 4

$$$$
=
 OpenBabel11052419033D

 32 36  0  0  1  0  0  0  0  0999 V2000
  188.9840  174.3920  141.2560 C   0  0  0  0  0  0  0  0  0  0  0  0
  188.1670  176.0080  142.9140 C   0  0  0  0  0  0  0  0  0  0  0  0
  188.9630  173.9100  139.9410 C   0  0  0  0  0  3  0  0  0  0  0  0
  188.2010  175.5280  141.5840 C   0  0  0  0  0  0  0  0  0  0  0  0
  187.3950  177.2740  143.2500 C   0  0  2  0  0  3  0  0  0  0  0  0
  188.9120  175.3490  143.9120 C   0  0  0  0  0  0  0  0  0  0  0  0
  187.4220  176.2850  145.6570 C   0  0  1  0  0  3  0  0  0  0  0  0
  187.4410  176.1460  140.5670 C   0  0  0  0  0  0  0  0  0  0  0  0
  186.9300  177.3890  144.7140 C   0  0  0  0  0  2  0  0  0  0  0  0
  186.6560  177.3970  140.8300 C   0  0  0  0  0  2  0  0  0  0  0  0
  187.4680  175.6520  139.3010 N   0  0  0  0  0  0  0  0  0  0  0  0
  189.7040  174.2480  143.5640 C   0  0  0  0  0  3  0  0  0  0  0  0
  189.7570  173.7580  142.2560 C   0  0  0  0  0  0  0  0  0  0  0  0
  188.8610  175.8560  145.3380 C   0  0  1  0  0  3  0  0  0  0  0  0
  186.2140  177.4840  142.2910 C   0  0  2  0  0  3  0  0  0  0  0  0
  188.1970  174.5560  138.9730 C   0  0  0  0  0  3  0  0  0  0  0  0
  192.6390  172.0250  140.6160 C   0  0  0  0  0  0  0  0  0  0  0  0
  192.2810  168.5720  140.9880 O   0  0  0  0  0  1  0  0  0  0  0  0
  193.9480  172.2990  140.2290 O   0  0  0  0  0  1  0  0  0  0  0  0
  190.8140  170.0650  142.0500 C   0  0  0  0  0  3  0  0  0  0  0  0
  190.6280  172.5850  141.9930 C   0  0  0  0  0  0  0  0  0  0  0  0
  191.9670  170.8380  140.0140 C   0  0  0  0  0  2  0  0  0  0  0  0
  190.1400  171.3600  142.2670 C   0  0  0  0  0  3  0  0  0  0  0  0
  192.0160  172.8250  141.4980 C   0  0  0  0  0  0  0  0  0  0  0  0
  192.8720  174.2450  142.0990 Cl  0  0  0  0  0  0  0  0  0  0  0  0
  191.6740  169.8180  141.0630 C   0  0  0  0  0  0  0  0  0  0  0  0
  189.3370  174.8070  146.3520 C   0  0  0  0  0  2  0  0  0  0  0  0
  190.6000  175.2840  147.0500 C   0  0  0  0  0  1  0  0  0  0  0  0
  187.2250  176.7210  147.1130 C   0  0  0  0  0  2  0  0  0  0  0  0
  185.9470  177.5250  147.3100 C   0  0  0  0  0  1  0  0  0  0  0  0
  185.4840  178.7290  142.5520 N   0  0  0  0  0  2  0  0  0  0  0  0
  184.0510  178.4780  142.6760 C   0  0  0  0  0  1  0  0  0  0  0  0
  1  4  1  0  0  0  0
  1 13  2  0  0  0  0
  2  5  1  0  0  0  0
  2  6  1  0  0  0  0
  3  1  1  0  0  0  0
  4  2  2  0  0  0  0
  5  9  1  1  0  0  0
  6 14  1  0  0  0  0
  7 29  1  1  0  0  0
  8 10  1  0  0  0  0
  8  4  1  0  0  0  0
  9  7  1  0  0  0  0
 10 15  1  0  0  0  0
 11  8  2  0  0  0  0
 12  6  2  0  0  0  0
 13 12  1  0  0  0  0
 14  7  1  0  0  0  0
 14 27  1  1  0  0  0
 15 31  1  6  0  0  0
 15  5  1  0  0  0  0
 16 11  1  0  0  0  0
 16  3  2  0  0  0  0
 17 24  2  0  0  0  0
 18 26  1  0  0  0  0
 19 17  1  0  0  0  0
 20 23  1  0  0  0  0
 21 13  1  0  0  0  0
 21 23  2  0  0  0  0
 22 17  1  0  0  0  0
 22 26  1  0  0  0  0
 24 21  1  0  0  0  0
 24 25  1  0  0  0  0
 26 20  2  0  0  0  0
 27 28  1  0  0  0  0
 29 30  1  0  0  0  0
 31 32  1  0  0  0  0
M  END
>  <MODEL>
7

>  <REMARK>
 VINA RESULT:      -7.3      1.895      2.293
  Name = 
  4 active torsions:
  status: ('A' for Active; 'I' for Inactive)
    1  A    between atoms: C_9  and  C_28
    2  A    between atoms: C_11  and  C_12
    3  A    between atoms: N_13  and  C_29
    4  A    between atoms: C_16  and  C_27
                            x       y       z     vdW  Elec       q    Type
                         _______ _______ _______ _____ _____    ______ ____

>  <TORSDO>
F 4

$$$$
=
 OpenBabel11052419033D

 32 36  0  0  1  0  0  0  0  0999 V2000
  190.2270  173.8410  142.2380 C   0  0  0  0  0  0  0  0  0  0  0  0
  188.8620  175.4940  143.4330 C   0  0  0  0  0  0  0  0  0  0  0  0
  190.5000  173.1440  141.0530 C   0  0  0  0  0  3  0  0  0  0  0  0
  189.1920  174.8100  142.2400 C   0  0  0  0  0  0  0  0  0  0  0  0
  187.8110  176.5930  143.4190 C   0  0  2  0  0  3  0  0  0  0  0  0
  189.5650  175.2060  144.6190 C   0  0  0  0  0  0  0  0  0  0  0  0
  187.6720  176.0710  145.9650 C   0  0  1  0  0  3  0  0  0  0  0  0
  188.4850  175.0540  141.0420 C   0  0  0  0  0  0  0  0  0  0  0  0
  187.1160  176.8540  144.7690 C   0  0  0  0  0  2  0  0  0  0  0  0
  187.4350  176.1210  140.9580 C   0  0  0  0  0  2  0  0  0  0  0  0
  188.8000  174.3650  139.9130 N   0  0  0  0  0  0  0  0  0  0  0  0
  190.6050  174.2680  144.5910 C   0  0  0  0  0  3  0  0  0  0  0  0
  190.9510  173.5820  143.4240 C   0  0  0  0  0  0  0  0  0  0  0  0
  189.2000  175.9290  145.8980 C   0  0  1  0  0  3  0  0  0  0  0  0
  186.7690  176.3600  142.3130 C   0  0  2  0  0  3  0  0  0  0  0  0
  189.7760  173.4210  139.8970 C   0  0  0  0  0  3  0  0  0  0  0  0
  194.2760  172.2080  142.3950 C   0  0  0  0  0  0  0  0  0  0  0  0
  194.6120  168.9520  143.6090 O   0  0  0  0  0  1  0  0  0  0  0  0
  195.5290  172.6720  142.0080 O   0  0  0  0  0  1  0  0  0  0  0  0
  192.7700  170.2820  144.1990 C   0  0  0  0  0  3  0  0  0  0  0  0
  192.0690  172.6080  143.5020 C   0  0  0  0  0  0  0  0  0  0  0  0
  193.9280  170.7920  142.0840 C   0  0  0  0  0  2  0  0  0  0  0  0
  191.8230  171.4050  144.0540 C   0  0  0  0  0  3  0  0  0  0  0  0
  193.4180  173.0310  143.0200 C   0  0  0  0  0  0  0  0  0  0  0  0
  193.8960  174.7090  143.2800 Cl  0  0  0  0  0  0  0  0  0  0  0  0
  193.7540  170.0090  143.3430 C   0  0  0  0  0  0  0  0  0  0  0  0
  189.7170  175.2090  147.1500 C   0  0  0  0  0  2  0  0  0  0  0  0
  190.9210  175.9400  147.7200 C   0  0  0  0  0  1  0  0  0  0  0  0
  187.1750  176.6990  147.2710 C   0  0  0  0  0  2  0  0  0  0  0  0
  185.7490  177.2220  147.1580 C   0  0  0  0  0  1  0  0  0  0  0  0
  185.7740  177.4350  142.2350 N   0  0  0  0  0  2  0  0  0  0  0  0
  185.7800  178.0560  140.9130 C   0  0  0  0  0  1  0  0  0  0  0  0
  1  4  1  0  0  0  0
  1 13  2  0  0  0  0
  2  6  1  0  0  0  0
  3  1  1  0  0  0  0
  4  2  2  0  0  0  0
  5  2  1  0  0  0  0
  5  9  1  1  0  0  0
  6 14  1  0  0  0  0
  7 29  1  1  0  0  0
  8  4  1  0  0  0  0
  9  7  1  0  0  0  0
 10  8  1  0  0  0  0
 10 15  1  0  0  0  0
 11  8  2  0  0  0  0
 12  6  2  0  0  0  0
 13 21  1  0  0  0  0
 13 12  1  0  0  0  0
 14  7  1  0  0  0  0
 14 27  1  1  0  0  0
 15 31  1  6  0  0  0
 15  5  1  0  0  0  0
 16 11  1  0  0  0  0
 16  3  2  0  0  0  0
 17 24  2  0  0  0  0
 19 17  1  0  0  0  0
 21 23  2  0  0  0  0
 22 17  1  0  0  0  0
 22 26  1  0  0  0  0
 23 20  1  0  0  0  0
 24 25  1  0  0  0  0
 24 21  1  0  0  0  0
 26 18  1  0  0  0  0
 26 20  2  0  0  0  0
 27 28  1  0  0  0  0
 30 29  1  0  0  0  0
 32 31  1  0  0  0  0
M  END
>  <MODEL>
8

>  <REMARK>
 VINA RESULT:      -7.2      1.592      2.347
  Name = 
  4 active torsions:
  status: ('A' for Active; 'I' for Inactive)
    1  A    between atoms: C_9  and  C_28
    2  A    between atoms: C_11  and  C_12
    3  A    between atoms: N_13  and  C_29
    4  A    between atoms: C_16  and  C_27
                            x       y       z     vdW  Elec       q    Type
                         _______ _______ _______ _____ _____    ______ ____

>  <TORSDO>
F 4

$$$$
=
 OpenBabel11052419033D

 32 36  0  0  1  0  0  0  0  0999 V2000
  190.2270  174.8020  143.2140 C   0  0  0  0  0  0  0  0  0  0  0  0
  188.9520  176.1030  144.8590 C   0  0  0  0  0  0  0  0  0  0  0  0
  191.4480  174.2410  142.8160 C   0  0  0  0  0  3  0  0  0  0  0  0
  190.1580  175.4860  144.4530 C   0  0  0  0  0  0  0  0  0  0  0  0
  188.8520  176.7640  146.2240 C   0  0  2  0  0  3  0  0  0  0  0  0
  187.8200  176.0360  144.0220 C   0  0  0  0  0  0  0  0  0  0  0  0
  186.8780  178.0500  145.1180 C   0  0  1  0  0  3  0  0  0  0  0  0
  191.3190  175.5620  145.2550 C   0  0  0  0  0  0  0  0  0  0  0  0
  187.7820  177.8670  146.3430 C   0  0  0  0  0  2  0  0  0  0  0  0
  191.2920  176.2010  146.6110 C   0  0  0  0  0  2  0  0  0  0  0  0
  192.4760  174.9860  144.8330 N   0  0  0  0  0  0  0  0  0  0  0  0
  187.8980  175.3300  142.8160 C   0  0  0  0  0  3  0  0  0  0  0  0
  189.0780  174.7090  142.3960 C   0  0  0  0  0  0  0  0  0  0  0  0
  186.5340  176.7100  144.4520 C   0  0  1  0  0  3  0  0  0  0  0  0
  190.2170  177.2850  146.6980 C   0  0  2  0  0  3  0  0  0  0  0  0
  192.5650  174.3420  143.6420 C   0  0  0  0  0  3  0  0  0  0  0  0
  190.2320  172.0670  140.0120 C   0  0  0  0  0  0  0  0  0  0  0  0
  189.1010  172.8300  136.7980 O   0  0  0  0  0  1  0  0  0  0  0  0
  190.6450  170.7390  140.0360 O   0  0  0  0  0  1  0  0  0  0  0  0
  188.4290  174.1000  138.6540 C   0  0  0  0  0  3  0  0  0  0  0  0
  189.0540  173.9860  141.1000 C   0  0  0  0  0  0  0  0  0  0  0  0
  190.5640  172.8800  138.8070 C   0  0  0  0  0  2  0  0  0  0  0  0
  188.5210  174.6140  140.0350 C   0  0  0  0  0  3  0  0  0  0  0  0
  189.5640  172.5830  141.0570 C   0  0  0  0  0  0  0  0  0  0  0  0
  189.2810  171.5600  142.4650 Cl  0  0  0  0  0  0  0  0  0  0  0  0
  189.3190  173.2840  138.0910 C   0  0  0  0  0  0  0  0  0  0  0  0
  185.5680  176.9350  143.2810 C   0  0  0  0  0  2  0  0  0  0  0  0
  186.1120  178.0030  142.3470 C   0  0  0  0  0  1  0  0  0  0  0  0
  185.6450  178.8730  145.5030 C   0  0  0  0  0  2  0  0  0  0  0  0
  184.9140  178.2950  146.7070 C   0  0  0  0  0  1  0  0  0  0  0  0
  190.1660  177.8770  148.0390 N   0  0  0  0  0  2  0  0  0  0  0  0
  191.3550  177.5240  148.8110 C   0  0  0  0  0  1  0  0  0  0  0  0
  1  4  1  0  0  0  0
  2  5  1  0  0  0  0
  3  1  2  0  0  0  0
  3 16  1  0  0  0  0
  4  2  1  0  0  0  0
  4  8  2  0  0  0  0
  5  9  1  6  0  0  0
  5 15  1  0  0  0  0
  6 14  1  0  0  0  0
  6  2  2  0  0  0  0
  7 29  1  1  0  0  0
  7  9  1  0  0  0  0
  8 10  1  0  0  0  0
 10 15  1  0  0  0  0
 11  8  1  0  0  0  0
 12  6  1  0  0  0  0
 13 12  2  0  0  0  0
 13  1  1  0  0  0  0
 14 27  1  6  0  0  0
 14  7  1  0  0  0  0
 15 31  1  1  0  0  0
 16 11  2  0  0  0  0
 17 19  1  0  0  0  0
 17 24  2  0  0  0  0
 18 26  1  0  0  0  0
 20 23  1  0  0  0  0
 21 13  1  0  0  0  0
 22 17  1  0  0  0  0
 23 21  2  0  0  0  0
 24 21  1  0  0  0  0
 24 25  1  0  0  0  0
 26 20  2  0  0  0  0
 26 22  1  0  0  0  0
 28 27  1  0  0  0  0
 29 30  1  0  0  0  0
 31 32  1  0  0  0  0
M  END
>  <MODEL>
9

>  <REMARK>
 VINA RESULT:      -7.1      3.246      5.328
  Name = 
  4 active torsions:
  status: ('A' for Active; 'I' for Inactive)
    1  A    between atoms: C_9  and  C_28
    2  A    between atoms: C_11  and  C_12
    3  A    between atoms: N_13  and  C_29
    4  A    between atoms: C_16  and  C_27
                            x       y       z     vdW  Elec       q    Type
                         _______ _______ _______ _____ _____    ______ ____

>  <TORSDO>
F 4

$$$$
