=
 OpenBabel11052419143D

 32 37  0  0  1  0  0  0  0  0999 V2000
  190.1070  176.4440  144.6100 C   0  0  1  0  0  3  0  0  0  0  0  0
  187.8680  177.5950  144.1440 C   0  0  2  0  0  3  0  0  0  0  0  0
  191.3400  176.4460  145.5140 C   0  0  0  0  0  2  0  0  0  0  0  0
  189.1280  177.5530  145.0340 C   0  0  1  0  0  3  0  0  0  0  0  0
  186.5740  177.1200  144.8350 C   0  0  2  0  0  3  0  0  0  0  0  0
  185.7420  177.6210  139.8960 O   0  0  0  0  0  0  0  0  0  0  0  0
  188.0020  176.8050  142.8460 C   0  0  2  0  0  3  0  0  0  0  0  0
  184.3920  177.8270  141.9000 C   0  0  0  0  0  2  0  0  0  0  0  0
  185.6480  177.7280  142.7500 C   0  0  1  0  0  3  0  0  0  0  0  0
  188.8440  177.5050  146.5230 C   0  0  0  0  0  0  0  0  0  0  0  0
  185.3950  177.1560  144.0210 O   0  0  0  0  0  0  0  0  0  0  0  0
  187.6080  177.6600  147.0280 C   0  0  0  0  0  3  0  0  0  0  0  0
  190.0070  177.3420  147.4550 C   0  0  0  0  0  2  0  0  0  0  0  0
  189.3620  177.0350  142.1900 C   0  0  0  0  0  2  0  0  0  0  0  0
  190.5080  176.5820  143.1210 C   0  0  2  0  0  3  0  0  0  0  0  0
  186.7410  176.9660  141.9770 C   0  0  1  0  0  3  0  0  0  0  0  0
  186.3990  177.8740  146.1510 C   0  0  2  0  0  3  0  0  0  0  0  0
  190.9200  176.2160  146.9660 C   0  0  0  0  0  2  0  0  0  0  0  0
  184.7920  178.4350  140.5500 C   0  0  0  0  0  2  0  0  0  0  0  0
  186.9420  177.6790  140.6370 C   0  0  0  0  0  2  0  0  0  0  0  0
  192.9970  174.0870  141.6500 C   0  0  0  0  0  0  0  0  0  0  0  0
  194.1690  174.1020  141.1950 O   0  0  0  0  0  0  0  0  0  0  0  0
  191.1190  175.3090  142.6140 C   0  0  0  0  0  0  0  0  0  0  0  0
  192.2500  172.8280  141.7020 C   0  0  0  0  0  3  0  0  0  0  0  0
  190.2950  174.0370  142.6570 C   0  0  0  0  0  2  0  0  0  0  0  0
  192.3710  175.3240  142.1330 C   0  0  0  0  0  0  0  0  0  0  0  0
  193.0770  176.4830  142.0960 F   0  0  0  0  0  0  0  0  0  0  0  0
  190.9970  172.7970  142.1610 C   0  0  0  0  0  0  0  0  0  0  0  0
  189.1150  171.6270  142.9910 O   0  0  0  0  0  1  0  0  0  0  0  0
  190.2680  171.4980  142.2140 C   0  0  0  0  0  2  0  0  0  0  0  0
  185.1330  177.4550  146.8900 C   0  0  0  0  0  2  0  0  0  0  0  0
  184.1520  178.4460  146.8030 O   0  0  0  0  0  1  0  0  0  0  0  0
  1  4  1  0  0  0  0
  1  3  1  1  0  0  0
  2  5  1  0  0  0  0
  2  4  1  0  0  0  0
  3 18  1  0  0  0  0
  4 10  1  0  0  0  0
  5 17  1  0  0  0  0
  6 19  1  0  0  0  0
  6 20  1  0  0  0  0
  7  2  1  0  0  0  0
  8  9  1  0  0  0  0
  9 11  1  0  0  0  0
 10 12  2  0  0  0  0
 10 13  1  0  0  0  0
 11  5  1  0  0  0  0
 14  7  1  0  0  0  0
 14 15  1  0  0  0  0
 15  1  1  0  0  0  0
 16  9  1  0  0  0  0
 16  7  1  0  0  0  0
 17 31  1  0  0  0  0
 17 12  1  0  0  0  0
 18 13  1  0  0  0  0
 19  8  1  0  0  0  0
 20 16  1  0  0  0  0
 21 24  1  0  0  0  0
 21 26  1  0  0  0  0
 22 21  2  0  0  0  0
 23 25  1  0  0  0  0
 23 15  1  0  0  0  0
 24 28  2  0  0  0  0
 26 23  2  0  0  0  0
 27 26  1  0  0  0  0
 28 30  1  0  0  0  0
 28 25  1  0  0  0  0
 30 29  1  0  0  0  0
 32 31  1  0  0  0  0
M  END
>  <MODEL>
1

>  <REMARK>
 VINA RESULT:      -8.5      0.000      0.000
  Name = 
  3 active torsions:
  status: ('A' for Active; 'I' for Inactive)
    1  A    between atoms: C_13  and  C_29
    2  A    between atoms: C_15  and  C_26
    3  A    between atoms: C_16  and  C_27
                            x       y       z     vdW  Elec       q    Type
                         _______ _______ _______ _____ _____    ______ ____

>  <TORSDO>
F 3

$$$$
=
 OpenBabel11052419143D

 32 37  0  0  1  0  0  0  0  0999 V2000
  189.9420  174.5840  142.9520 C   0  0  1  0  0  3  0  0  0  0  0  0
  187.8290  175.9460  143.4400 C   0  0  2  0  0  3  0  0  0  0  0  0
  190.5200  173.4490  142.1070 C   0  0  0  0  0  2  0  0  0  0  0  0
  188.4600  174.8110  142.6060 C   0  0  1  0  0  3  0  0  0  0  0  0
  187.5130  177.2300  142.6480 C   0  0  2  0  0  3  0  0  0  0  0  0
  186.9900  178.1340  147.5720 O   0  0  0  0  0  0  0  0  0  0  0  0
  188.6600  176.3550  144.6520 C   0  0  2  0  0  3  0  0  0  0  0  0
  185.9770  178.9960  145.5440 C   0  0  0  0  0  2  0  0  0  0  0  0
  186.6560  177.8980  144.7440 C   0  0  1  0  0  3  0  0  0  0  0  0
  188.2520  174.9420  141.1080 C   0  0  0  0  0  0  0  0  0  0  0  0
  186.9250  178.2920  143.4100 O   0  0  0  0  0  0  0  0  0  0  0  0
  187.4430  175.8700  140.5710 C   0  0  0  0  0  3  0  0  0  0  0  0
  188.9320  173.9490  140.2160 C   0  0  0  0  0  2  0  0  0  0  0  0
  189.2160  175.1380  145.3860 C   0  0  0  0  0  2  0  0  0  0  0  0
  190.1340  174.3080  144.4620 C   0  0  2  0  0  3  0  0  0  0  0  0
  187.9250  177.4280  145.4780 C   0  0  1  0  0  3  0  0  0  0  0  0
  186.6910  176.8710  141.4120 C   0  0  2  0  0  3  0  0  0  0  0  0
  190.3990  173.7920  140.6220 C   0  0  0  0  0  2  0  0  0  0  0  0
  185.7580  178.4660  146.9670 C   0  0  0  0  0  2  0  0  0  0  0  0
  187.5140  177.0130  146.8930 C   0  0  0  0  0  2  0  0  0  0  0  0
  193.7560  173.5580  145.4130 C   0  0  0  0  0  0  0  0  0  0  0  0
  194.4800  172.5450  145.5910 O   0  0  0  0  0  0  0  0  0  0  0  0
  191.5700  174.4870  144.8590 C   0  0  0  0  0  0  0  0  0  0  0  0
  194.3260  174.8990  145.5690 C   0  0  0  0  0  3  0  0  0  0  0  0
  192.1060  175.8940  145.0410 C   0  0  0  0  0  2  0  0  0  0  0  0
  192.3430  173.4070  145.0450 C   0  0  0  0  0  0  0  0  0  0  0  0
  191.8290  172.1600  144.8860 F   0  0  0  0  0  0  0  0  0  0  0  0
  193.5670  175.9850  145.4050 C   0  0  0  0  0  0  0  0  0  0  0  0
  194.5670  177.5360  146.8840 O   0  0  0  0  0  1  0  0  0  0  0  0
  194.1790  177.3350  145.5580 C   0  0  0  0  0  2  0  0  0  0  0  0
  186.3390  178.1000  140.5800 C   0  0  0  0  0  2  0  0  0  0  0  0
  184.9550  178.2740  140.5050 O   0  0  0  0  0  1  0  0  0  0  0  0
  1  3  1  6  0  0  0
  1 15  1  0  0  0  0
  2  7  1  0  0  0  0
  4  1  1  0  0  0  0
  4  2  1  0  0  0  0
  5 11  1  0  0  0  0
  5  2  1  0  0  0  0
  7 14  1  0  0  0  0
  7 16  1  0  0  0  0
  8 19  1  0  0  0  0
  9 16  1  0  0  0  0
  9  8  1  0  0  0  0
 10  4  1  0  0  0  0
 11  9  1  0  0  0  0
 12 10  2  0  0  0  0
 12 17  1  0  0  0  0
 13 18  1  0  0  0  0
 13 10  1  0  0  0  0
 15 23  1  0  0  0  0
 15 14  1  0  0  0  0
 16 20  1  0  0  0  0
 17  5  1  0  0  0  0
 18  3  1  0  0  0  0
 19  6  1  0  0  0  0
 20  6  1  0  0  0  0
 21 24  1  0  0  0  0
 21 22  2  0  0  0  0
 23 25  1  0  0  0  0
 23 26  2  0  0  0  0
 25 28  1  0  0  0  0
 26 21  1  0  0  0  0
 27 26  1  0  0  0  0
 28 30  1  0  0  0  0
 28 24  2  0  0  0  0
 30 29  1  0  0  0  0
 31 17  1  0  0  0  0
 32 31  1  0  0  0  0
M  END
>  <MODEL>
2

>  <REMARK>
 VINA RESULT:      -8.1      2.544      5.132
  Name = 
  3 active torsions:
  status: ('A' for Active; 'I' for Inactive)
    1  A    between atoms: C_13  and  C_29
    2  A    between atoms: C_15  and  C_26
    3  A    between atoms: C_16  and  C_27
                            x       y       z     vdW  Elec       q    Type
                         _______ _______ _______ _____ _____    ______ ____

>  <TORSDO>
F 3

$$$$
=
 OpenBabel11052419143D

 32 37  0  0  1  0  0  0  0  0999 V2000
  189.9250  176.2670  144.6390 C   0  0  1  0  0  3  0  0  0  0  0  0
  187.7650  177.5430  144.1310 C   0  0  2  0  0  3  0  0  0  0  0  0
  191.1600  176.2230  145.5400 C   0  0  0  0  0  2  0  0  0  0  0  0
  189.0240  177.4540  145.0200 C   0  0  1  0  0  3  0  0  0  0  0  0
  186.4460  177.1840  144.8440 C   0  0  2  0  0  3  0  0  0  0  0  0
  185.6260  177.5410  139.8900 O   0  0  0  0  0  0  0  0  0  0  0  0
  187.8410  176.6960  142.8660 C   0  0  2  0  0  3  0  0  0  0  0  0
  184.3020  177.9160  141.8870 C   0  0  0  0  0  2  0  0  0  0  0  0
  185.5530  177.7680  142.7370 C   0  0  1  0  0  3  0  0  0  0  0  0
  188.7440  177.4850  146.5110 C   0  0  0  0  0  0  0  0  0  0  0  0
  185.2680  177.2650  144.0310 O   0  0  0  0  0  0  0  0  0  0  0  0
  187.5240  177.7410  147.0110 C   0  0  0  0  0  3  0  0  0  0  0  0
  189.8980  177.2820  147.4450 C   0  0  0  0  0  2  0  0  0  0  0  0
  189.2100  176.8080  142.1990 C   0  0  0  0  0  2  0  0  0  0  0  0
  190.3280  176.3180  143.1450 C   0  0  2  0  0  3  0  0  0  0  0  0
  186.5900  176.9050  141.9940 C   0  0  1  0  0  3  0  0  0  0  0  0
  186.3280  178.0000  146.1290 C   0  0  2  0  0  3  0  0  0  0  0  0
  190.7330  176.0790  147.0010 C   0  0  0  0  0  2  0  0  0  0  0  0
  184.7350  178.4420  140.5130 C   0  0  0  0  0  2  0  0  0  0  0  0
  186.8300  177.5490  140.6260 C   0  0  0  0  0  2  0  0  0  0  0  0
  190.6040  172.5730  142.4470 C   0  0  0  0  0  0  0  0  0  0  0  0
  189.9240  171.5360  142.6550 O   0  0  0  0  0  0  0  0  0  0  0  0
  190.8510  174.9880  142.6880 C   0  0  0  0  0  0  0  0  0  0  0  0
  191.8840  172.4770  141.7410 C   0  0  0  0  0  3  0  0  0  0  0  0
  192.1960  174.9340  141.9910 C   0  0  0  0  0  2  0  0  0  0  0  0
  190.1230  173.8830  142.9050 C   0  0  0  0  0  0  0  0  0  0  0  0
  188.9270  173.9630  143.5440 F   0  0  0  0  0  0  0  0  0  0  0  0
  192.6300  173.5650  141.5310 C   0  0  0  0  0  0  0  0  0  0  0  0
  194.3910  174.6990  140.4310 O   0  0  0  0  0  1  0  0  0  0  0  0
  193.9210  173.4360  140.7990 C   0  0  0  0  0  2  0  0  0  0  0  0
  185.0400  177.6950  146.8860 C   0  0  0  0  0  2  0  0  0  0  0  0
  184.0680  178.6660  146.6300 O   0  0  0  0  0  1  0  0  0  0  0  0
  1  4  1  0  0  0  0
  1  3  1  1  0  0  0
  2  5  1  0  0  0  0
  2  4  1  0  0  0  0
  3 18  1  0  0  0  0
  4 10  1  0  0  0  0
  5 17  1  0  0  0  0
  6 19  1  0  0  0  0
  6 20  1  0  0  0  0
  7  2  1  0  0  0  0
  8  9  1  0  0  0  0
  9 11  1  0  0  0  0
 10 12  2  0  0  0  0
 10 13  1  0  0  0  0
 11  5  1  0  0  0  0
 14  7  1  0  0  0  0
 14 15  1  0  0  0  0
 15  1  1  0  0  0  0
 16  9  1  0  0  0  0
 16  7  1  0  0  0  0
 17 31  1  0  0  0  0
 17 12  1  0  0  0  0
 18 13  1  0  0  0  0
 19  8  1  0  0  0  0
 20 16  1  0  0  0  0
 21 22  2  0  0  0  0
 21 26  1  0  0  0  0
 23 26  2  0  0  0  0
 23 15  1  0  0  0  0
 24 21  1  0  0  0  0
 25 23  1  0  0  0  0
 26 27  1  0  0  0  0
 28 24  2  0  0  0  0
 28 25  1  0  0  0  0
 29 30  1  0  0  0  0
 30 28  1  0  0  0  0
 32 31  1  0  0  0  0
M  END
>  <MODEL>
3

>  <REMARK>
 VINA RESULT:      -8.0      0.996      2.103
  Name = 
  3 active torsions:
  status: ('A' for Active; 'I' for Inactive)
    1  A    between atoms: C_13  and  C_29
    2  A    between atoms: C_15  and  C_26
    3  A    between atoms: C_16  and  C_27
                            x       y       z     vdW  Elec       q    Type
                         _______ _______ _______ _____ _____    ______ ____

>  <TORSDO>
F 3

$$$$
=
 OpenBabel11052419143D

 32 37  0  0  1  0  0  0  0  0999 V2000
  190.0450  173.7640  143.8340 C   0  0  1  0  0  3  0  0  0  0  0  0
  188.2000  174.5820  142.2590 C   0  0  2  0  0  3  0  0  0  0  0  0
  190.7250  172.5220  144.4110 C   0  0  0  0  0  2  0  0  0  0  0  0
  188.9230  173.3600  142.8630 C   0  0  1  0  0  3  0  0  0  0  0  0
  188.4860  174.8270  140.7640 C   0  0  2  0  0  3  0  0  0  0  0  0
  186.0480  178.7980  142.6700 O   0  0  0  0  0  0  0  0  0  0  0  0
  188.4810  175.8890  142.9920 C   0  0  2  0  0  3  0  0  0  0  0  0
  186.1790  177.7380  140.4930 C   0  0  0  0  0  2  0  0  0  0  0  0
  186.9360  176.5750  141.1100 C   0  0  1  0  0  3  0  0  0  0  0  0
  189.4090  172.3490  141.8410 C   0  0  0  0  0  0  0  0  0  0  0  0
  187.8190  175.9580  140.1890 O   0  0  0  0  0  0  0  0  0  0  0  0
  189.0860  172.4280  140.5390 C   0  0  0  0  0  3  0  0  0  0  0  0
  190.2250  171.1920  142.3310 C   0  0  0  0  0  2  0  0  0  0  0  0
  188.4450  175.7000  144.5070 C   0  0  0  0  0  2  0  0  0  0  0  0
  189.5140  174.6820  144.9620 C   0  0  2  0  0  3  0  0  0  0  0  0
  187.6600  177.0420  142.3860 C   0  0  1  0  0  3  0  0  0  0  0  0
  188.2310  173.5390  139.9840 C   0  0  2  0  0  3  0  0  0  0  0  0
  191.3200  171.6830  143.2800 C   0  0  0  0  0  2  0  0  0  0  0  0
  185.2780  178.3350  141.5810 C   0  0  0  0  0  2  0  0  0  0  0  0
  186.6120  177.6710  143.3080 C   0  0  0  0  0  2  0  0  0  0  0  0
  191.6420  176.3480  147.6600 C   0  0  0  0  0  0  0  0  0  0  0  0
  191.5430  176.6250  148.8830 O   0  0  0  0  0  0  0  0  0  0  0  0
  190.6430  175.3870  145.6530 C   0  0  0  0  0  0  0  0  0  0  0  0
  192.8640  176.6940  146.9300 C   0  0  0  0  0  3  0  0  0  0  0  0
  191.8750  175.7540  144.8470 C   0  0  0  0  0  2  0  0  0  0  0  0
  190.5400  175.6770  146.9580 C   0  0  0  0  0  0  0  0  0  0  0  0
  189.4180  175.3470  147.6480 F   0  0  0  0  0  0  0  0  0  0  0  0
  192.9770  176.4270  145.6260 C   0  0  0  0  0  0  0  0  0  0  0  0
  194.9570  177.7220  145.6540 O   0  0  0  0  0  1  0  0  0  0  0  0
  194.2380  176.7800  144.9150 C   0  0  0  0  0  2  0  0  0  0  0  0
  188.4920  173.7100  138.4910 C   0  0  0  0  0  2  0  0  0  0  0  0
  189.8620  173.7890  138.2290 O   0  0  0  0  0  1  0  0  0  0  0  0
  1  3  1  1  0  0  0
  1 15  1  0  0  0  0
  2  4  1  0  0  0  0
  2  7  1  0  0  0  0
  4  1  1  0  0  0  0
  5  2  1  0  0  0  0
  6 20  1  0  0  0  0
  7 14  1  0  0  0  0
  8  9  1  0  0  0  0
  8 19  1  0  0  0  0
  9 16  1  0  0  0  0
 10 13  1  0  0  0  0
 10  4  1  0  0  0  0
 11  5  1  0  0  0  0
 11  9  1  0  0  0  0
 12 10  2  0  0  0  0
 13 18  1  0  0  0  0
 14 15  1  0  0  0  0
 15 23  1  0  0  0  0
 16  7  1  0  0  0  0
 16 20  1  0  0  0  0
 17 12  1  0  0  0  0
 17  5  1  0  0  0  0
 18  3  1  0  0  0  0
 19  6  1  0  0  0  0
 21 22  2  0  0  0  0
 23 26  2  0  0  0  0
 24 21  1  0  0  0  0
 25 28  1  0  0  0  0
 25 23  1  0  0  0  0
 26 27  1  0  0  0  0
 26 21  1  0  0  0  0
 28 24  2  0  0  0  0
 30 28  1  0  0  0  0
 30 29  1  0  0  0  0
 31 17  1  0  0  0  0
 32 31  1  0  0  0  0
M  END
>  <MODEL>
4

>  <REMARK>
 VINA RESULT:      -7.9      2.933      5.770
  Name = 
  3 active torsions:
  status: ('A' for Active; 'I' for Inactive)
    1  A    between atoms: C_13  and  C_29
    2  A    between atoms: C_15  and  C_26
    3  A    between atoms: C_16  and  C_27
                            x       y       z     vdW  Elec       q    Type
                         _______ _______ _______ _____ _____    ______ ____

>  <TORSDO>
F 3

$$$$
=
 OpenBabel11052419143D

 32 37  0  0  1  0  0  0  0  0999 V2000
  191.3500  175.6120  145.4440 C   0  0  1  0  0  3  0  0  0  0  0  0
  192.3260  174.4720  143.3700 C   0  0  2  0  0  3  0  0  0  0  0  0
  191.6120  175.9600  146.9090 C   0  0  0  0  0  2  0  0  0  0  0  0
  192.5470  174.8520  144.8490 C   0  0  1  0  0  3  0  0  0  0  0  0
  193.1910  175.2610  142.3650 C   0  0  2  0  0  3  0  0  0  0  0  0
  189.6880  172.6490  139.8650 O   0  0  0  0  0  0  0  0  0  0  0  0
  190.8770  174.5950  142.9120 C   0  0  2  0  0  3  0  0  0  0  0  0
  191.9370  173.4160  139.3820 C   0  0  0  0  0  2  0  0  0  0  0  0
  192.1030  173.8280  140.8350 C   0  0  1  0  0  3  0  0  0  0  0  0
  193.8550  175.5700  145.1250 C   0  0  0  0  0  0  0  0  0  0  0  0
  192.9970  174.9170  140.9870 O   0  0  0  0  0  0  0  0  0  0  0  0
  194.8120  175.7090  144.1920 C   0  0  0  0  0  3  0  0  0  0  0  0
  194.0960  176.0810  146.5130 C   0  0  0  0  0  2  0  0  0  0  0  0
  189.9120  174.0390  143.9560 C   0  0  0  0  0  2  0  0  0  0  0  0
  190.0360  174.8090  145.2890 C   0  0  2  0  0  3  0  0  0  0  0  0
  190.7230  174.1180  141.4550 C   0  0  1  0  0  3  0  0  0  0  0  0
  194.6550  175.1800  142.7890 C   0  0  2  0  0  3  0  0  0  0  0  0
  192.8640  176.8310  147.0210 C   0  0  0  0  0  2  0  0  0  0  0  0
  190.9370  172.2530  139.3410 C   0  0  0  0  0  2  0  0  0  0  0  0
  189.8530  172.8750  141.2480 C   0  0  0  0  0  2  0  0  0  0  0  0
  187.0320  176.5400  146.8910 C   0  0  0  0  0  0  0  0  0  0  0  0
  186.4190  176.5100  147.9890 O   0  0  0  0  0  0  0  0  0  0  0  0
  188.8420  175.6950  145.4910 C   0  0  0  0  0  0  0  0  0  0  0  0
  186.5920  177.4530  145.8340 C   0  0  0  0  0  3  0  0  0  0  0  0
  188.4040  176.5990  144.3550 C   0  0  0  0  0  2  0  0  0  0  0  0
  188.1910  175.6660  146.6630 C   0  0  0  0  0  0  0  0  0  0  0  0
  188.6000  174.8360  147.6560 F   0  0  0  0  0  0  0  0  0  0  0  0
  187.2180  177.4820  144.6550 C   0  0  0  0  0  0  0  0  0  0  0  0
  185.9420  179.4140  144.1720 O   0  0  0  0  0  1  0  0  0  0  0  0
  186.7550  178.4310  143.6040 C   0  0  0  0  0  2  0  0  0  0  0  0
  195.5720  175.9380  141.8340 C   0  0  0  0  0  2  0  0  0  0  0  0
  196.4370  176.7810  142.5350 O   0  0  0  0  0  1  0  0  0  0  0  0
  1  3  1  1  0  0  0
  2  4  1  0  0  0  0
  3 18  1  0  0  0  0
  4 10  1  0  0  0  0
  4  1  1  0  0  0  0
  5 17  1  0  0  0  0
  5  2  1  0  0  0  0
  6 20  1  0  0  0  0
  7  2  1  0  0  0  0
  7 14  1  0  0  0  0
  8  9  1  0  0  0  0
  9 11  1  0  0  0  0
  9 16  1  0  0  0  0
 10 13  1  0  0  0  0
 11  5  1  0  0  0  0
 12 10  2  0  0  0  0
 13 18  1  0  0  0  0
 14 15  1  0  0  0  0
 15  1  1  0  0  0  0
 15 23  1  0  0  0  0
 16  7  1  0  0  0  0
 17 12  1  0  0  0  0
 19  8  1  0  0  0  0
 19  6  1  0  0  0  0
 20 16  1  0  0  0  0
 21 22  2  0  0  0  0
 23 26  2  0  0  0  0
 24 21  1  0  0  0  0
 25 28  1  0  0  0  0
 25 23  1  0  0  0  0
 26 21  1  0  0  0  0
 26 27  1  0  0  0  0
 28 24  2  0  0  0  0
 30 29  1  0  0  0  0
 30 28  1  0  0  0  0
 31 32  1  0  0  0  0
 31 17  1  0  0  0  0
M  END
>  <MODEL>
5

>  <REMARK>
 VINA RESULT:      -7.7      2.427      7.051
  Name = 
  3 active torsions:
  status: ('A' for Active; 'I' for Inactive)
    1  A    between atoms: C_13  and  C_29
    2  A    between atoms: C_15  and  C_26
    3  A    between atoms: C_16  and  C_27
                            x       y       z     vdW  Elec       q    Type
                         _______ _______ _______ _____ _____    ______ ____

>  <TORSDO>
F 3

$$$$
=
 OpenBabel11052419143D

 32 37  0  0  1  0  0  0  0  0999 V2000
  188.9580  174.8580  142.9410 C   0  0  1  0  0  3  0  0  0  0  0  0
  191.4200  174.3860  143.4620 C   0  0  2  0  0  3  0  0  0  0  0  0
  187.8160  174.5660  141.9670 C   0  0  0  0  0  2  0  0  0  0  0  0
  190.2340  174.1160  142.5110 C   0  0  1  0  0  3  0  0  0  0  0  0
  191.8280  173.1870  144.3420 C   0  0  2  0  0  3  0  0  0  0  0  0
  194.2070  177.3230  145.9460 O   0  0  0  0  0  0  0  0  0  0  0  0
  191.2050  175.5760  144.3920 C   0  0  2  0  0  3  0  0  0  0  0  0
  194.6990  174.9480  145.9310 C   0  0  0  0  0  2  0  0  0  0  0  0
  193.4930  174.7090  145.0380 C   0  0  1  0  0  3  0  0  0  0  0  0
  189.9620  172.6460  142.2490 C   0  0  0  0  0  0  0  0  0  0  0  0
  192.9290  173.4240  145.2280 O   0  0  0  0  0  0  0  0  0  0  0  0
  190.7870  171.6730  142.6700 C   0  0  0  0  0  3  0  0  0  0  0  0
  188.7560  172.2910  141.4330 C   0  0  0  0  0  2  0  0  0  0  0  0
  190.5840  176.7580  143.6520 C   0  0  0  0  0  2  0  0  0  0  0  0
  189.2040  176.3810  143.0680 C   0  0  2  0  0  3  0  0  0  0  0  0
  192.4610  175.8340  145.2450 C   0  0  1  0  0  3  0  0  0  0  0  0
  192.0420  171.9620  143.4560 C   0  0  2  0  0  3  0  0  0  0  0  0
  187.5340  173.0630  141.9330 C   0  0  0  0  0  2  0  0  0  0  0  0
  195.2070  176.3690  145.6550 C   0  0  0  0  0  2  0  0  0  0  0  0
  193.1730  177.1660  144.9980 C   0  0  0  0  0  2  0  0  0  0  0  0
  186.3060  178.6670  144.0470 C   0  0  0  0  0  0  0  0  0  0  0  0
  185.6410  179.6000  143.5270 O   0  0  0  0  0  0  0  0  0  0  0  0
  188.1090  177.0350  143.8570 C   0  0  0  0  0  0  0  0  0  0  0  0
  185.9890  178.2130  145.4030 C   0  0  0  0  0  3  0  0  0  0  0  0
  187.8400  176.5530  145.2700 C   0  0  0  0  0  2  0  0  0  0  0  0
  187.3970  178.0270  143.3010 C   0  0  0  0  0  0  0  0  0  0  0  0
  187.6710  178.4440  142.0390 F   0  0  0  0  0  0  0  0  0  0  0  0
  186.6990  177.2390  145.9780 C   0  0  0  0  0  0  0  0  0  0  0  0
  185.9410  177.8840  148.1250 O   0  0  0  0  0  1  0  0  0  0  0  0
  186.3430  176.7910  147.3540 C   0  0  0  0  0  2  0  0  0  0  0  0
  192.4520  170.7350  144.2630 C   0  0  0  0  0  2  0  0  0  0  0  0
  193.7850  170.3960  144.0160 O   0  0  0  0  0  1  0  0  0  0  0  0
  1  3  1  6  0  0  0
  1 15  1  0  0  0  0
  2  5  1  0  0  0  0
  2  7  1  0  0  0  0
  4  1  1  0  0  0  0
  4  2  1  0  0  0  0
  5 11  1  0  0  0  0
  7 16  1  0  0  0  0
  9 11  1  0  0  0  0
  9 16  1  0  0  0  0
  9  8  1  0  0  0  0
 10  4  1  0  0  0  0
 10 12  2  0  0  0  0
 12 17  1  0  0  0  0
 13 18  1  0  0  0  0
 13 10  1  0  0  0  0
 14  7  1  0  0  0  0
 15 14  1  0  0  0  0
 15 23  1  0  0  0  0
 17 31  1  0  0  0  0
 17  5  1  0  0  0  0
 18  3  1  0  0  0  0
 19  8  1  0  0  0  0
 19  6  1  0  0  0  0
 20 16  1  0  0  0  0
 20  6  1  0  0  0  0
 21 24  1  0  0  0  0
 22 21  2  0  0  0  0
 23 25  1  0  0  0  0
 24 28  2  0  0  0  0
 25 28  1  0  0  0  0
 26 23  2  0  0  0  0
 26 21  1  0  0  0  0
 27 26  1  0  0  0  0
 28 30  1  0  0  0  0
 30 29  1  0  0  0  0
 32 31  1  0  0  0  0
M  END
>  <MODEL>
6

>  <REMARK>
 VINA RESULT:      -7.7      2.602      7.689
  Name = 
  3 active torsions:
  status: ('A' for Active; 'I' for Inactive)
    1  A    between atoms: C_13  and  C_29
    2  A    between atoms: C_15  and  C_26
    3  A    between atoms: C_16  and  C_27
                            x       y       z     vdW  Elec       q    Type
                         _______ _______ _______ _____ _____    ______ ____

>  <TORSDO>
F 3

$$$$
=
 OpenBabel11052419143D

 32 37  0  0  1  0  0  0  0  0999 V2000
  190.0100  174.6410  142.9390 C   0  0  1  0  0  3  0  0  0  0  0  0
  187.8780  175.9650  143.4460 C   0  0  2  0  0  3  0  0  0  0  0  0
  190.5970  173.5050  142.1000 C   0  0  0  0  0  2  0  0  0  0  0  0
  188.5180  174.8310  142.6160 C   0  0  1  0  0  3  0  0  0  0  0  0
  187.5210  177.2300  142.6400 C   0  0  2  0  0  3  0  0  0  0  0  0
  187.0670  178.1980  147.5590 O   0  0  0  0  0  0  0  0  0  0  0  0
  188.7210  176.4100  144.6360 C   0  0  2  0  0  3  0  0  0  0  0  0
  185.9990  179.0070  145.5380 C   0  0  0  0  0  2  0  0  0  0  0  0
  186.6880  177.9110  144.7420 C   0  0  1  0  0  3  0  0  0  0  0  0
  188.2800  174.9340  141.1220 C   0  0  0  0  0  0  0  0  0  0  0  0
  186.9230  178.2910  143.3970 O   0  0  0  0  0  0  0  0  0  0  0  0
  187.4410  175.8370  140.5850 C   0  0  0  0  0  3  0  0  0  0  0  0
  188.9650  173.9430  140.2320 C   0  0  0  0  0  2  0  0  0  0  0  0
  189.3170  175.2160  145.3770 C   0  0  0  0  0  2  0  0  0  0  0  0
  190.2360  174.3920  144.4490 C   0  0  2  0  0  3  0  0  0  0  0  0
  187.9800  177.4790  145.4590 C   0  0  1  0  0  3  0  0  0  0  0  0
  186.6840  176.8350  141.4250 C   0  0  2  0  0  3  0  0  0  0  0  0
  190.4420  173.8230  140.6130 C   0  0  0  0  0  2  0  0  0  0  0  0
  185.8170  178.4940  146.9720 C   0  0  0  0  0  2  0  0  0  0  0  0
  187.6030  177.0780  146.8880 C   0  0  0  0  0  2  0  0  0  0  0  0
  193.5480  176.0940  145.2970 C   0  0  0  0  0  0  0  0  0  0  0  0
  193.9940  177.2660  145.3880 O   0  0  0  0  0  0  0  0  0  0  0  0
  191.6750  174.6080  144.8170 C   0  0  0  0  0  0  0  0  0  0  0  0
  194.4270  174.9550  145.5740 C   0  0  0  0  0  3  0  0  0  0  0  0
  192.5540  173.3970  145.0620 C   0  0  0  0  0  2  0  0  0  0  0  0
  192.1490  175.8580  144.9180 C   0  0  0  0  0  0  0  0  0  0  0  0
  191.3390  176.9210  144.6790 F   0  0  0  0  0  0  0  0  0  0  0  0
  193.9760  173.7030  145.4620 C   0  0  0  0  0  0  0  0  0  0  0  0
  194.2590  171.3550  145.4760 O   0  0  0  0  0  1  0  0  0  0  0  0
  194.8910  172.5670  145.7630 C   0  0  0  0  0  2  0  0  0  0  0  0
  186.2910  178.0430  140.5810 C   0  0  0  0  0  2  0  0  0  0  0  0
  184.9190  178.2890  140.6700 O   0  0  0  0  0  1  0  0  0  0  0  0
  1  3  1  6  0  0  0
  1 15  1  0  0  0  0
  2  7  1  0  0  0  0
  4  1  1  0  0  0  0
  4  2  1  0  0  0  0
  5 11  1  0  0  0  0
  5  2  1  0  0  0  0
  7 14  1  0  0  0  0
  7 16  1  0  0  0  0
  8 19  1  0  0  0  0
  9 16  1  0  0  0  0
  9  8  1  0  0  0  0
 10  4  1  0  0  0  0
 11  9  1  0  0  0  0
 12 10  2  0  0  0  0
 12 17  1  0  0  0  0
 13 18  1  0  0  0  0
 13 10  1  0  0  0  0
 15 23  1  0  0  0  0
 15 14  1  0  0  0  0
 16 20  1  0  0  0  0
 17  5  1  0  0  0  0
 18  3  1  0  0  0  0
 19  6  1  0  0  0  0
 20  6  1  0  0  0  0
 21 22  2  0  0  0  0
 21 24  1  0  0  0  0
 23 26  2  0  0  0  0
 23 25  1  0  0  0  0
 25 28  1  0  0  0  0
 26 21  1  0  0  0  0
 27 26  1  0  0  0  0
 28 24  2  0  0  0  0
 28 30  1  0  0  0  0
 29 30  1  0  0  0  0
 31 32  1  0  0  0  0
 31 17  1  0  0  0  0
M  END
>  <MODEL>
7

>  <REMARK>
 VINA RESULT:      -7.4      2.444      4.824
  Name = 
  3 active torsions:
  status: ('A' for Active; 'I' for Inactive)
    1  A    between atoms: C_13  and  C_29
    2  A    between atoms: C_15  and  C_26
    3  A    between atoms: C_16  and  C_27
                            x       y       z     vdW  Elec       q    Type
                         _______ _______ _______ _____ _____    ______ ____

>  <TORSDO>
F 3

$$$$
=
 OpenBabel11052419143D

 32 37  0  0  1  0  0  0  0  0999 V2000
  189.8020  176.5790  146.2680 C   0  0  1  0  0  3  0  0  0  0  0  0
  191.4270  175.2200  144.8300 C   0  0  2  0  0  3  0  0  0  0  0  0
  189.4980  177.0510  147.6900 C   0  0  0  0  0  2  0  0  0  0  0  0
  191.0820  175.7270  146.2470 C   0  0  1  0  0  3  0  0  0  0  0  0
  192.6640  175.8830  144.1910 C   0  0  2  0  0  3  0  0  0  0  0  0
  190.2370  173.1710  140.7130 O   0  0  0  0  0  0  0  0  0  0  0  0
  190.2800  175.3490  143.8330 C   0  0  2  0  0  3  0  0  0  0  0  0
  192.5440  173.8130  141.0970 C   0  0  0  0  0  2  0  0  0  0  0  0
  192.1600  174.3530  142.4650 C   0  0  1  0  0  3  0  0  0  0  0  0
  192.2260  176.4230  146.9600 C   0  0  0  0  0  0  0  0  0  0  0  0
  192.9970  175.4200  142.8760 O   0  0  0  0  0  0  0  0  0  0  0  0
  193.4770  176.4430  146.4700 C   0  0  0  0  0  3  0  0  0  0  0  0
  191.9440  177.0510  148.2910 C   0  0  0  0  0  2  0  0  0  0  0  0
  188.9510  174.9240  144.4530 C   0  0  0  0  0  2  0  0  0  0  0  0
  188.6000  175.8100  145.6690 C   0  0  2  0  0  3  0  0  0  0  0  0
  190.6710  174.7450  142.4720 C   0  0  1  0  0  3  0  0  0  0  0  0
  193.8410  175.7920  145.1590 C   0  0  2  0  0  3  0  0  0  0  0  0
  190.6640  177.8860  148.2210 C   0  0  0  0  0  2  0  0  0  0  0  0
  191.5620  172.6860  140.7510 C   0  0  0  0  0  2  0  0  0  0  0  0
  189.8680  173.5180  142.0300 C   0  0  0  0  0  2  0  0  0  0  0  0
  185.4400  177.9390  145.9230 C   0  0  0  0  0  0  0  0  0  0  0  0
  184.5440  178.1750  146.7740 O   0  0  0  0  0  0  0  0  0  0  0  0
  187.4830  176.7500  145.3230 C   0  0  0  0  0  0  0  0  0  0  0  0
  185.3980  178.6000  144.6160 C   0  0  0  0  0  3  0  0  0  0  0  0
  187.4650  177.3850  143.9460 C   0  0  0  0  0  2  0  0  0  0  0  0
  186.5310  177.0050  146.2320 C   0  0  0  0  0  0  0  0  0  0  0  0
  186.5690  176.4110  147.4520 F   0  0  0  0  0  0  0  0  0  0  0  0
  186.3290  178.3440  143.6940 C   0  0  0  0  0  0  0  0  0  0  0  0
  186.8660  178.2580  141.3910 O   0  0  0  0  0  1  0  0  0  0  0  0
  186.2660  179.0430  142.3790 C   0  0  0  0  0  2  0  0  0  0  0  0
  195.1040  176.4280  144.5880 C   0  0  0  0  0  2  0  0  0  0  0  0
  196.0790  175.4600  144.3310 O   0  0  0  0  0  1  0  0  0  0  0  0
  1  3  1  1  0  0  0
  2  4  1  0  0  0  0
  3 18  1  0  0  0  0
  4  1  1  0  0  0  0
  4 10  1  0  0  0  0
  5  2  1  0  0  0  0
  5 17  1  0  0  0  0
  6 19  1  0  0  0  0
  6 20  1  0  0  0  0
  7 14  1  0  0  0  0
  7  2  1  0  0  0  0
  8  9  1  0  0  0  0
  9 16  1  0  0  0  0
  9 11  1  0  0  0  0
 10 13  1  0  0  0  0
 11  5  1  0  0  0  0
 12 10  2  0  0  0  0
 14 15  1  0  0  0  0
 15  1  1  0  0  0  0
 16  7  1  0  0  0  0
 17 12  1  0  0  0  0
 18 13  1  0  0  0  0
 19  8  1  0  0  0  0
 20 16  1  0  0  0  0
 21 26  1  0  0  0  0
 21 22  2  0  0  0  0
 23 15  1  0  0  0  0
 23 26  2  0  0  0  0
 24 21  1  0  0  0  0
 25 23  1  0  0  0  0
 26 27  1  0  0  0  0
 28 25  1  0  0  0  0
 28 24  2  0  0  0  0
 29 30  1  0  0  0  0
 30 28  1  0  0  0  0
 31 17  1  0  0  0  0
 32 31  1  0  0  0  0
M  END
>  <MODEL>
8

>  <REMARK>
 VINA RESULT:      -7.4      2.319      6.898
  Name = 
  3 active torsions:
  status: ('A' for Active; 'I' for Inactive)
    1  A    between atoms: C_13  and  C_29
    2  A    between atoms: C_15  and  C_26
    3  A    between atoms: C_16  and  C_27
                            x       y       z     vdW  Elec       q    Type
                         _______ _______ _______ _____ _____    ______ ____

>  <TORSDO>
F 3

$$$$
=
 OpenBabel11052419143D

 32 37  0  0  1  0  0  0  0  0999 V2000
  189.7200  175.4240  143.9960 C   0  0  1  0  0  3  0  0  0  0  0  0
  187.3450  176.3350  143.7060 C   0  0  2  0  0  3  0  0  0  0  0  0
  190.7130  174.3670  143.5120 C   0  0  0  0  0  2  0  0  0  0  0  0
  188.3840  175.2910  143.2460 C   0  0  1  0  0  3  0  0  0  0  0  0
  187.0410  177.4400  142.6750 C   0  0  2  0  0  3  0  0  0  0  0  0
  184.9740  178.6670  147.0990 O   0  0  0  0  0  0  0  0  0  0  0  0
  187.7050  177.0270  145.0170 C   0  0  2  0  0  3  0  0  0  0  0  0
  184.4440  179.0950  144.7710 C   0  0  0  0  0  2  0  0  0  0  0  0
  185.5130  178.1000  144.3500 C   0  0  1  0  0  3  0  0  0  0  0  0
  188.5930  175.2320  141.7440 C   0  0  0  0  0  0  0  0  0  0  0  0
  186.0750  178.4160  143.0890 O   0  0  0  0  0  0  0  0  0  0  0  0
  187.8160  175.9080  140.8800 C   0  0  0  0  0  3  0  0  0  0  0  0
  189.6690  174.3310  141.2200 C   0  0  0  0  0  2  0  0  0  0  0  0
  188.2400  176.0330  146.0450 C   0  0  0  0  0  2  0  0  0  0  0  0
  189.5200  175.3390  145.5290 C   0  0  2  0  0  3  0  0  0  0  0  0
  186.5820  177.9870  145.4520 C   0  0  1  0  0  3  0  0  0  0  0  0
  186.6860  176.7970  141.3360 C   0  0  2  0  0  3  0  0  0  0  0  0
  190.9620  174.5350  142.0130 C   0  0  0  0  0  2  0  0  0  0  0  0
  183.9280  178.6660  146.1500 C   0  0  0  0  0  2  0  0  0  0  0  0
  185.8660  177.6280  146.7570 C   0  0  0  0  0  2  0  0  0  0  0  0
  191.7220  177.1050  148.1010 C   0  0  0  0  0  0  0  0  0  0  0  0
  191.5660  177.8010  149.1360 O   0  0  0  0  0  0  0  0  0  0  0  0
  190.7240  175.8610  146.2550 C   0  0  0  0  0  0  0  0  0  0  0  0
  193.0730  176.7910  147.6280 C   0  0  0  0  0  3  0  0  0  0  0  0
  192.1020  175.5380  145.7090 C   0  0  0  0  0  2  0  0  0  0  0  0
  190.5580  176.6000  147.3610 C   0  0  0  0  0  0  0  0  0  0  0  0
  189.3100  176.8830  147.8170 F   0  0  0  0  0  0  0  0  0  0  0  0
  193.2570  176.0710  146.5190 C   0  0  0  0  0  0  0  0  0  0  0  0
  195.0290  176.6380  145.0580 O   0  0  0  0  0  1  0  0  0  0  0  0
  194.6430  175.7580  146.0720 C   0  0  0  0  0  2  0  0  0  0  0  0
  186.3700  177.8370  140.2660 C   0  0  0  0  0  2  0  0  0  0  0  0
  184.9910  177.9530  140.0750 O   0  0  0  0  0  1  0  0  0  0  0  0
  1  3  1  6  0  0  0
  1 15  1  0  0  0  0
  2  7  1  0  0  0  0
  4  2  1  0  0  0  0
  4  1  1  0  0  0  0
  5 11  1  0  0  0  0
  5  2  1  0  0  0  0
  7 16  1  0  0  0  0
  7 14  1  0  0  0  0
  8 19  1  0  0  0  0
  9  8  1  0  0  0  0
  9 16  1  0  0  0  0
 10  4  1  0  0  0  0
 11  9  1  0  0  0  0
 12 17  1  0  0  0  0
 12 10  2  0  0  0  0
 13 10  1  0  0  0  0
 13 18  1  0  0  0  0
 15 14  1  0  0  0  0
 15 23  1  0  0  0  0
 16 20  1  0  0  0  0
 17  5  1  0  0  0  0
 18  3  1  0  0  0  0
 19  6  1  0  0  0  0
 20  6  1  0  0  0  0
 21 22  2  0  0  0  0
 23 26  2  0  0  0  0
 24 21  1  0  0  0  0
 25 23  1  0  0  0  0
 25 28  1  0  0  0  0
 26 27  1  0  0  0  0
 26 21  1  0  0  0  0
 28 24  2  0  0  0  0
 29 30  1  0  0  0  0
 30 28  1  0  0  0  0
 31 17  1  0  0  0  0
 32 31  1  0  0  0  0
M  END
>  <MODEL>
9

>  <REMARK>
 VINA RESULT:      -7.2      2.509      5.352
  Name = 
  3 active torsions:
  status: ('A' for Active; 'I' for Inactive)
    1  A    between atoms: C_13  and  C_29
    2  A    between atoms: C_15  and  C_26
    3  A    between atoms: C_16  and  C_27
                            x       y       z     vdW  Elec       q    Type
                         _______ _______ _______ _____ _____    ______ ____

>  <TORSDO>
F 3

$$$$
