=
 OpenBabel11052421243D

 32 38  0  0  1  0  0  0  0  0999 V2000
  190.4250  173.2710  139.4140 C   0  0  0  0  0  0  0  0  0  0  0  0
  188.6020  175.5310  143.4140 C   0  0  0  0  0  0  0  0  0  0  0  0
  192.2070  174.9710  146.6750 C   0  0  0  0  0  3  0  0  0  0  0  0
  191.4590  175.6610  147.6260 C   0  0  0  0  0  3  0  0  0  0  0  0
  186.4530  176.7470  144.0580 C   0  0  0  0  0  0  0  0  0  0  0  0
  185.7940  177.4080  145.0060 C   0  0  0  0  0  0  0  0  0  0  0  0
  188.7830  174.6510  141.1360 C   0  0  0  0  0  0  0  0  0  0  0  0
  190.6180  174.3760  142.8310 C   0  0  0  0  0  3  0  0  0  0  0  0
  185.4000  178.3070  147.1100 C   0  0  2  0  0  3  0  0  0  0  0  0
  190.9880  173.4010  140.5820 C   0  0  0  0  0  3  0  0  0  0  0  0
  191.6880  174.7670  145.3970 C   0  0  0  0  0  3  0  0  0  0  0  0
  189.8900  175.0410  143.7490 C   0  0  0  0  0  0  0  0  0  0  0  0
  190.4110  175.2480  145.0440 C   0  0  0  0  0  0  0  0  0  0  0  0
  188.3690  176.4440  145.6830 C   0  0  0  0  0  0  0  0  0  0  0  0
  184.1620  178.5080  146.2030 C   0  0  0  0  0  3  0  0  0  0  0  0
  189.0440  173.7920  139.0200 C   0  0  0  0  0  0  0  0  0  0  0  0
  190.1310  174.1430  141.5060 N   0  0  0  0  0  0  0  0  0  0  0  0
  184.4830  177.9160  144.9030 N   0  0  0  0  0  0  0  0  0  0  0  0
  188.1920  174.4560  139.7550 C   0  0  0  0  0  3  0  0  0  0  0  0
  190.1170  173.7150  138.1030 C   0  0  2  0  0  3  0  0  0  0  0  0
  190.1940  176.1460  147.2970 C   0  0  0  0  0  3  0  0  0  0  0  0
  189.6500  175.9510  146.0120 C   0  0  0  0  0  0  0  0  0  0  0  0
  187.6510  177.1180  146.6060 C   0  0  0  0  0  3  0  0  0  0  0  0
  188.0730  175.3060  142.0480 C   0  0  0  0  0  3  0  0  0  0  0  0
  185.8510  176.5410  142.8600 F   0  0  0  0  0  0  0  0  0  0  0  0
  185.9410  179.6610  147.5300 C   0  0  0  0  0  1  0  0  0  0  0  0
  187.8320  176.2310  144.3760 C   0  0  0  0  0  0  0  0  0  0  0  0
  186.3640  177.6290  146.2640 N   0  0  0  0  0  0  0  0  0  0  0  0
  189.9250  172.5120  137.2010 C   0  0  0  0  0  2  0  0  0  0  0  0
  189.6880  172.9550  135.7990 C   0  0  0  0  0  0  0  0  0  0  0  0
  189.3420  172.0280  134.8260 O   0  0  0  0  0  0  0  0  0  0  0  0
  189.7680  174.1750  135.5030 O   0  0  0  0  0  1  0  0  0  0  0  0
  1 10  2  3  0  0  0
  2 12  1  0  0  0  0
  2 27  2  0  0  0  0
  3  4  1  0  0  0  0
  5 27  1  0  0  0  0
  5  6  2  0  0  0  0
  6 28  1  0  0  0  0
  7 17  1  0  0  0  0
  7 24  2  0  0  0  0
  8 12  2  0  0  0  0
  9 26  1  6  0  0  0
 10 17  1  0  0  0  0
 11  3  2  0  0  0  0
 12 13  1  0  0  0  0
 13 11  1  0  0  0  0
 13 22  2  0  0  0  0
 14 22  1  0  0  0  0
 14 23  2  0  0  0  0
 15  9  1  0  0  0  0
 16  1  1  0  0  0  0
 16 19  2  0  0  0  0
 17  8  1  0  0  0  0
 18  6  1  0  0  0  0
 18 15  2  0  0  0  0
 19  7  1  0  0  0  0
 20 29  1  6  0  0  0
 20 16  1  0  0  0  0
 20  1  1  0  0  0  0
 21  4  2  0  0  0  0
 22 21  1  0  0  0  0
 24  2  1  0  0  0  0
 25  5  1  0  0  0  0
 27 14  1  0  0  0  0
 28 23  1  0  0  0  0
 28  9  1  0  0  0  0
 30 29  1  0  0  0  0
 31 30  2  0  0  0  0
 32 30  1  0  0  0  0
M  END
>  <MODEL>
1

>  <REMARK>
 VINA RESULT:      -8.7      0.000      0.000
  Name = 
  2 active torsions:
  status: ('A' for Active; 'I' for Inactive)
    1  A    between atoms: C_1  and  C_10
    2  A    between atoms: C_10  and  C_24
                            x       y       z     vdW  Elec       q    Type
                         _______ _______ _______ _____ _____    ______ ____

>  <TORSDO>
F 2

$$$$
=
 OpenBabel11052421243D

 32 38  0  0  1  0  0  0  0  0999 V2000
  193.0880  176.0740  146.4890 C   0  0  0  0  0  0  0  0  0  0  0  0
  188.7740  176.9690  144.2480 C   0  0  0  0  0  0  0  0  0  0  0  0
  185.8510  178.1010  148.0050 C   0  0  0  0  0  3  0  0  0  0  0  0
  184.7880  178.2930  147.1260 C   0  0  0  0  0  3  0  0  0  0  0  0
  187.8660  176.9460  141.8640 C   0  0  0  0  0  0  0  0  0  0  0  0
  186.8150  177.1570  141.0750 C   0  0  0  0  0  0  0  0  0  0  0  0
  191.1310  176.3940  144.5830 C   0  0  0  0  0  0  0  0  0  0  0  0
  189.6070  176.9780  146.4940 C   0  0  0  0  0  3  0  0  0  0  0  0
  184.6140  177.6520  140.5280 C   0  0  2  0  0  3  0  0  0  0  0  0
  191.9570  176.4110  147.0420 C   0  0  0  0  0  3  0  0  0  0  0  0
  187.1010  177.7270  147.5140 C   0  0  0  0  0  3  0  0  0  0  0  0
  188.5810  177.1590  145.6410 C   0  0  0  0  0  0  0  0  0  0  0  0
  187.3130  177.5360  146.1340 C   0  0  0  0  0  0  0  0  0  0  0  0
  186.4190  177.5480  143.8520 C   0  0  0  0  0  0  0  0  0  0  0  0
  185.4050  177.2610  139.2560 C   0  0  0  0  0  3  0  0  0  0  0  0
  193.3310  175.8680  144.9940 C   0  0  0  0  0  0  0  0  0  0  0  0
  190.9090  176.5950  146.0400 N   0  0  0  0  0  0  0  0  0  0  0  0
  186.7750  176.9610  139.6790 N   0  0  0  0  0  0  0  0  0  0  0  0
  192.4770  175.9960  144.0130 C   0  0  0  0  0  3  0  0  0  0  0  0
  194.3260  176.3690  145.8640 C   0  0  2  0  0  3  0  0  0  0  0  0
  184.9770  178.1100  145.7560 C   0  0  0  0  0  3  0  0  0  0  0  0
  186.2330  177.7310  145.2390 C   0  0  0  0  0  0  0  0  0  0  0  0
  185.3880  177.7420  143.0030 C   0  0  0  0  0  3  0  0  0  0  0  0
  190.1130  176.5750  143.7480 C   0  0  0  0  0  3  0  0  0  0  0  0
  189.0310  176.5260  141.3100 F   0  0  0  0  0  0  0  0  0  0  0  0
  184.1110  179.0760  140.3890 C   0  0  0  0  0  1  0  0  0  0  0  0
  187.6980  177.1580  143.3460 C   0  0  0  0  0  0  0  0  0  0  0  0
  185.5870  177.5710  141.6000 N   0  0  0  0  0  0  0  0  0  0  0  0
  195.3200  175.2670  146.1800 C   0  0  0  0  0  2  0  0  0  0  0  0
  195.9680  174.7870  144.9290 C   0  0  0  0  0  0  0  0  0  0  0  0
  196.6360  175.6830  144.1040 O   0  0  0  0  0  0  0  0  0  0  0  0
  195.9380  173.5640  144.6340 O   0  0  0  0  0  1  0  0  0  0  0  0
  1 10  2  3  0  0  0
  2 12  1  0  0  0  0
  4  3  2  0  0  0  0
  5 27  1  0  0  0  0
  6 28  1  0  0  0  0
  6  5  2  0  0  0  0
  7 17  1  0  0  0  0
  9 26  1  6  0  0  0
  9 28  1  0  0  0  0
 11  3  1  0  0  0  0
 12 13  1  0  0  0  0
 12  8  2  0  0  0  0
 13 11  2  0  0  0  0
 14 22  1  0  0  0  0
 15 18  2  0  0  0  0
 15  9  1  0  0  0  0
 16 20  1  0  0  0  0
 16  1  1  0  0  0  0
 17  8  1  0  0  0  0
 17 10  1  0  0  0  0
 18  6  1  0  0  0  0
 19  7  1  0  0  0  0
 19 16  2  0  0  0  0
 20 29  1  1  0  0  0
 20  1  1  0  0  0  0
 21  4  1  0  0  0  0
 22 21  2  0  0  0  0
 22 13  1  0  0  0  0
 23 14  2  0  0  0  0
 24  2  1  0  0  0  0
 24  7  2  0  0  0  0
 25  5  1  0  0  0  0
 27 14  1  0  0  0  0
 27  2  2  0  0  0  0
 28 23  1  0  0  0  0
 30 29  1  0  0  0  0
 31 30  2  0  0  0  0
 32 30  1  0  0  0  0
M  END
>  <MODEL>
2

>  <REMARK>
 VINA RESULT:      -8.6      4.235      6.569
  Name = 
  2 active torsions:
  status: ('A' for Active; 'I' for Inactive)
    1  A    between atoms: C_1  and  C_10
    2  A    between atoms: C_10  and  C_24
                            x       y       z     vdW  Elec       q    Type
                         _______ _______ _______ _____ _____    ______ ____

>  <TORSDO>
F 2

$$$$
=
 OpenBabel11052421243D

 32 38  0  0  1  0  0  0  0  0999 V2000
  181.1050  179.2710  141.9630 C   0  0  0  0  0  0  0  0  0  0  0  0
  185.5590  177.6250  143.3380 C   0  0  0  0  0  0  0  0  0  0  0  0
  185.8480  179.1260  147.9860 C   0  0  0  0  0  3  0  0  0  0  0  0
  187.1140  178.5560  148.0960 C   0  0  0  0  0  3  0  0  0  0  0  0
  187.4920  176.3470  142.2690 C   0  0  0  0  0  0  0  0  0  0  0  0
  188.6980  175.8120  142.4410 C   0  0  0  0  0  0  0  0  0  0  0  0
  183.5850  178.0810  141.9620 C   0  0  0  0  0  0  0  0  0  0  0  0
  183.7610  178.8420  144.3500 C   0  0  0  0  0  3  0  0  0  0  0  0
  190.6670  175.2850  143.5520 C   0  0  2  0  0  3  0  0  0  0  0  0
  181.6860  179.4140  143.1210 C   0  0  0  0  0  3  0  0  0  0  0  0
  185.1480  179.0390  146.7830 C   0  0  0  0  0  3  0  0  0  0  0  0
  184.9860  178.2910  144.4520 C   0  0  0  0  0  0  0  0  0  0  0  0
  185.6990  178.3790  145.6670 C   0  0  0  0  0  0  0  0  0  0  0  0
  187.5600  177.1310  144.6750 C   0  0  0  0  0  0  0  0  0  0  0  0
  190.7360  174.8000  142.0830 C   0  0  0  0  0  3  0  0  0  0  0  0
  181.6910  178.5540  140.7480 C   0  0  0  0  0  0  0  0  0  0  0  0
  183.0020  178.7770  143.1390 N   0  0  0  0  0  0  0  0  0  0  0  0
  189.4680  175.1700  141.4500 N   0  0  0  0  0  0  0  0  0  0  0  0
  182.8500  177.9580  140.6430 C   0  0  0  0  0  3  0  0  0  0  0  0
  180.3070  178.5630  141.0290 C   0  0  2  0  0  3  0  0  0  0  0  0
  187.6770  177.8980  147.0030 C   0  0  0  0  0  3  0  0  0  0  0  0
  186.9860  177.7980  145.7780 C   0  0  0  0  0  0  0  0  0  0  0  0
  188.7840  176.5730  144.7880 C   0  0  0  0  0  3  0  0  0  0  0  0
  184.7940  177.5400  142.0710 C   0  0  0  0  0  3  0  0  0  0  0  0
  186.9050  176.2680  141.0480 F   0  0  0  0  0  0  0  0  0  0  0  0
  190.7820  174.0920  144.4810 C   0  0  0  0  0  1  0  0  0  0  0  0
  186.8480  177.0440  143.4380 C   0  0  0  0  0  0  0  0  0  0  0  0
  189.3520  175.8850  143.6740 N   0  0  0  0  0  0  0  0  0  0  0  0
  179.6120  179.5540  140.1150 C   0  0  0  0  0  2  0  0  0  0  0  0
  178.3870  180.0860  140.7740 C   0  0  0  0  0  0  0  0  0  0  0  0
  177.6920  179.3030  141.6850 O   0  0  0  0  0  1  0  0  0  0  0  0
  178.0000  181.2580  140.5300 O   0  0  0  0  0  0  0  0  0  0  0  0
  1 10  2  3  0  0  0
  2 27  2  0  0  0  0
  2 12  1  0  0  0  0
  3  4  1  0  0  0  0
  5  6  2  0  0  0  0
  5 27  1  0  0  0  0
  6 28  1  0  0  0  0
  7 24  2  0  0  0  0
  7 17  1  0  0  0  0
  8 12  2  0  0  0  0
  9 28  1  0  0  0  0
  9 26  1  1  0  0  0
 10 17  1  0  0  0  0
 11  3  2  0  0  0  0
 12 13  1  0  0  0  0
 13 22  2  0  0  0  0
 13 11  1  0  0  0  0
 14 23  2  0  0  0  0
 14 22  1  0  0  0  0
 15  9  1  0  0  0  0
 16 20  1  0  0  0  0
 16  1  1  0  0  0  0
 17  8  1  0  0  0  0
 18 15  2  0  0  0  0
 18  6  1  0  0  0  0
 19 16  2  0  0  0  0
 19  7  1  0  0  0  0
 20 29  1  6  0  0  0
 20  1  1  0  0  0  0
 21  4  2  0  0  0  0
 22 21  1  0  0  0  0
 24  2  1  0  0  0  0
 25  5  1  0  0  0  0
 27 14  1  0  0  0  0
 28 23  1  0  0  0  0
 29 30  1  0  0  0  0
 30 31  1  0  0  0  0
 32 30  2  0  0  0  0
M  END
>  <MODEL>
3

>  <REMARK>
 VINA RESULT:      -8.4      4.880      8.028
  Name = 
  2 active torsions:
  status: ('A' for Active; 'I' for Inactive)
    1  A    between atoms: C_1  and  C_10
    2  A    between atoms: C_10  and  C_24
                            x       y       z     vdW  Elec       q    Type
                         _______ _______ _______ _____ _____    ______ ____

>  <TORSDO>
F 2

$$$$
=
 OpenBabel11052421243D

 32 38  0  0  1  0  0  0  0  0999 V2000
  186.0370  177.1520  144.3730 C   0  0  0  0  0  0  0  0  0  0  0  0
  190.5040  175.6710  142.8630 C   0  0  0  0  0  0  0  0  0  0  0  0
  189.4120  172.4700  139.3270 C   0  0  0  0  0  3  0  0  0  0  0  0
  190.7690  172.2430  139.1070 C   0  0  0  0  0  3  0  0  0  0  0  0
  192.9360  176.1440  143.4730 C   0  0  0  0  0  0  0  0  0  0  0  0
  194.2160  175.8930  143.2070 C   0  0  0  0  0  0  0  0  0  0  0  0
  188.7580  176.8520  144.1090 C   0  0  0  0  0  0  0  0  0  0  0  0
  188.2260  175.2020  142.2900 C   0  0  0  0  0  3  0  0  0  0  0  0
  196.0280  174.8780  142.1700 C   0  0  2  0  0  3  0  0  0  0  0  0
  186.3160  176.2830  143.4430 C   0  0  0  0  0  3  0  0  0  0  0  0
  189.0080  173.3740  140.3080 C   0  0  0  0  0  3  0  0  0  0  0  0
  189.5390  174.9830  142.0830 C   0  0  0  0  0  0  0  0  0  0  0  0
  189.9520  174.0680  141.0910 C   0  0  0  0  0  0  0  0  0  0  0  0
  192.2980  174.5220  141.6380 C   0  0  0  0  0  0  0  0  0  0  0  0
  196.5160  175.8190  143.2980 C   0  0  0  0  0  3  0  0  0  0  0  0
  187.0520  177.9140  145.2240 C   0  0  0  0  0  0  0  0  0  0  0  0
  187.7610  176.1200  143.2840 N   0  0  0  0  0  0  0  0  0  0  0  0
  195.3240  176.4160  143.9040 N   0  0  0  0  0  0  0  0  0  0  0  0
  188.3560  177.8470  145.1780 C   0  0  0  0  0  3  0  0  0  0  0  0
  185.8100  178.4710  144.8430 C   0  0  2  0  0  3  0  0  0  0  0  0
  191.7190  172.9210  139.8700 C   0  0  0  0  0  3  0  0  0  0  0  0
  191.3320  173.8380  140.8680 C   0  0  0  0  0  0  0  0  0  0  0  0
  193.6110  174.3050  141.4170 C   0  0  0  0  0  3  0  0  0  0  0  0
  190.0510  176.6300  143.8980 C   0  0  0  0  0  3  0  0  0  0  0  0
  192.6290  176.9930  144.4850 F   0  0  0  0  0  0  0  0  0  0  0  0
  196.5780  175.3580  140.8400 C   0  0  0  0  0  1  0  0  0  0  0  0
  191.8870  175.4440  142.6500 C   0  0  0  0  0  0  0  0  0  0  0  0
  194.5830  175.0110  142.1870 N   0  0  0  0  0  0  0  0  0  0  0  0
  184.8530  178.4240  146.0180 C   0  0  0  0  0  2  0  0  0  0  0  0
  185.5960  178.6310  147.2920 C   0  0  0  0  0  0  0  0  0  0  0  0
  185.9400  177.5420  148.0810 O   0  0  0  0  0  1  0  0  0  0  0  0
  185.9410  179.7900  147.6380 O   0  0  0  0  0  0  0  0  0  0  0  0
  1 20  1  0  0  0  0
  1 16  1  0  0  0  0
  2 24  1  0  0  0  0
  3 11  1  0  0  0  0
  4  3  2  0  0  0  0
  4 21  1  0  0  0  0
  5 25  1  0  0  0  0
  6  5  2  0  0  0  0
  6 18  1  0  0  0  0
  7 19  1  0  0  0  0
  8 17  1  0  0  0  0
  9 26  1  6  0  0  0
  9 28  1  0  0  0  0
  9 15  1  0  0  0  0
 10  1  2  3  0  0  0
 11 13  2  0  0  0  0
 12  8  2  0  0  0  0
 12  2  1  0  0  0  0
 13 12  1  0  0  0  0
 14 27  1  0  0  0  0
 15 18  2  0  0  0  0
 17 10  1  0  0  0  0
 17  7  1  0  0  0  0
 19 16  2  0  0  0  0
 20 16  1  0  0  0  0
 20 29  1  1  0  0  0
 21 22  2  0  0  0  0
 22 13  1  0  0  0  0
 22 14  1  0  0  0  0
 23 14  2  0  0  0  0
 23 28  1  0  0  0  0
 24  7  2  0  0  0  0
 27  2  2  0  0  0  0
 27  5  1  0  0  0  0
 28  6  1  0  0  0  0
 29 30  1  0  0  0  0
 30 32  2  0  0  0  0
 30 31  1  0  0  0  0
M  END
>  <MODEL>
4

>  <REMARK>
 VINA RESULT:      -8.0      4.501      8.606
  Name = 
  2 active torsions:
  status: ('A' for Active; 'I' for Inactive)
    1  A    between atoms: C_1  and  C_10
    2  A    between atoms: C_10  and  C_24
                            x       y       z     vdW  Elec       q    Type
                         _______ _______ _______ _____ _____    ______ ____

>  <TORSDO>
F 2

$$$$
=
 OpenBabel11052421243D

 32 38  0  0  1  0  0  0  0  0999 V2000
  186.6920  177.7600  146.0350 C   0  0  0  0  0  0  0  0  0  0  0  0
  190.2870  175.4310  143.5690 C   0  0  0  0  0  0  0  0  0  0  0  0
  194.1480  176.0370  146.5130 C   0  0  0  0  0  3  0  0  0  0  0  0
  194.9450  175.3240  145.6210 C   0  0  0  0  0  3  0  0  0  0  0  0
  190.5270  174.1660  141.3660 C   0  0  0  0  0  0  0  0  0  0  0  0
  191.3370  173.4830  140.5610 C   0  0  0  0  0  0  0  0  0  0  0  0
  188.0830  176.3330  144.1400 C   0  0  0  0  0  0  0  0  0  0  0  0
  190.0820  176.6310  145.6320 C   0  0  0  0  0  3  0  0  0  0  0  0
  193.3320  172.5590  139.8140 C   0  0  2  0  0  3  0  0  0  0  0  0
  187.9420  177.6320  146.3810 C   0  0  0  0  0  3  0  0  0  0  0  0
  192.7980  176.2410  146.2300 C   0  0  0  0  0  3  0  0  0  0  0  0
  190.8510  175.9440  144.7650 C   0  0  0  0  0  0  0  0  0  0  0  0
  192.2180  175.7370  145.0480 C   0  0  0  0  0  0  0  0  0  0  0  0
  192.4730  174.4950  142.9510 C   0  0  0  0  0  0  0  0  0  0  0  0
  192.2150  172.3410  138.7640 C   0  0  0  0  0  3  0  0  0  0  0  0
  186.0520  177.2150  144.7590 C   0  0  0  0  0  0  0  0  0  0  0  0
  188.6920  176.8650  145.3870 N   0  0  0  0  0  0  0  0  0  0  0  0
  190.9970  172.9500  139.3010 N   0  0  0  0  0  0  0  0  0  0  0  0
  186.6180  176.5270  143.8030 C   0  0  0  0  0  3  0  0  0  0  0  0
  185.3450  177.3200  145.9780 C   0  0  2  0  0  3  0  0  0  0  0  0
  194.3910  174.8160  144.4470 C   0  0  0  0  0  3  0  0  0  0  0  0
  193.0290  175.0110  144.1400 C   0  0  0  0  0  0  0  0  0  0  0  0
  193.2480  173.7980  142.0930 C   0  0  0  0  0  3  0  0  0  0  0  0
  188.8480  175.6560  143.2900 C   0  0  0  0  0  3  0  0  0  0  0  0
  189.2400  174.3690  140.9860 F   0  0  0  0  0  0  0  0  0  0  0  0
  193.8370  171.2140  140.2990 C   0  0  0  0  0  1  0  0  0  0  0  0
  191.0910  174.7070  142.6530 C   0  0  0  0  0  0  0  0  0  0  0  0
  192.6760  173.2640  140.8990 N   0  0  0  0  0  0  0  0  0  0  0  0
  184.4280  178.5270  145.9260 C   0  0  0  0  0  2  0  0  0  0  0  0
  184.4430  179.1240  144.5620 C   0  0  0  0  0  0  0  0  0  0  0  0
  185.3140  180.1650  144.2690 O   0  0  0  0  0  1  0  0  0  0  0  0
  183.6910  178.6640  143.6650 O   0  0  0  0  0  0  0  0  0  0  0  0
  1 10  2  3  0  0  0
  2 12  1  0  0  0  0
  4  3  2  0  0  0  0
  5 27  1  0  0  0  0
  6 28  1  0  0  0  0
  6  5  2  0  0  0  0
  7 17  1  0  0  0  0
  9 26  1  1  0  0  0
  9 28  1  0  0  0  0
 11  3  1  0  0  0  0
 12 13  1  0  0  0  0
 12  8  2  0  0  0  0
 13 11  2  0  0  0  0
 14 22  1  0  0  0  0
 15 18  2  0  0  0  0
 15  9  1  0  0  0  0
 16 20  1  0  0  0  0
 16  1  1  0  0  0  0
 17  8  1  0  0  0  0
 17 10  1  0  0  0  0
 18  6  1  0  0  0  0
 19  7  1  0  0  0  0
 19 16  2  0  0  0  0
 20 29  1  6  0  0  0
 20  1  1  0  0  0  0
 21  4  1  0  0  0  0
 22 21  2  0  0  0  0
 22 13  1  0  0  0  0
 23 14  2  0  0  0  0
 24  2  1  0  0  0  0
 24  7  2  0  0  0  0
 25  5  1  0  0  0  0
 27 14  1  0  0  0  0
 27  2  2  0  0  0  0
 28 23  1  0  0  0  0
 30 29  1  0  0  0  0
 31 30  1  0  0  0  0
 32 30  2  0  0  0  0
M  END
>  <MODEL>
5

>  <REMARK>
 VINA RESULT:      -8.0      3.573      7.758
  Name = 
  2 active torsions:
  status: ('A' for Active; 'I' for Inactive)
    1  A    between atoms: C_1  and  C_10
    2  A    between atoms: C_10  and  C_24
                            x       y       z     vdW  Elec       q    Type
                         _______ _______ _______ _____ _____    ______ ____

>  <TORSDO>
F 2

$$$$
=
 OpenBabel11052421243D

 32 38  0  0  1  0  0  0  0  0999 V2000
  185.8450  177.6720  143.6480 C   0  0  0  0  0  0  0  0  0  0  0  0
  189.6090  174.4940  143.2440 C   0  0  0  0  0  0  0  0  0  0  0  0
  188.6940  172.3160  138.9590 C   0  0  0  0  0  3  0  0  0  0  0  0
  189.8380  171.5370  139.1060 C   0  0  0  0  0  3  0  0  0  0  0  0
  191.6460  173.8240  144.6260 C   0  0  0  0  0  0  0  0  0  0  0  0
  192.7330  173.0600  144.7020 C   0  0  0  0  0  0  0  0  0  0  0  0
  188.1380  176.2360  144.1390 C   0  0  0  0  0  0  0  0  0  0  0  0
  187.6910  175.1000  141.9430 C   0  0  0  0  0  3  0  0  0  0  0  0
  194.2500  171.4250  144.0560 C   0  0  2  0  0  3  0  0  0  0  0  0
  186.0750  176.8280  142.6820 C   0  0  0  0  0  3  0  0  0  0  0  0
  188.3510  173.2420  139.9440 C   0  0  0  0  0  3  0  0  0  0  0  0
  188.7970  174.3450  142.0900 C   0  0  0  0  0  0  0  0  0  0  0  0
  189.1460  173.4060  141.0960 C   0  0  0  0  0  0  0  0  0  0  0  0
  191.1250  172.7600  142.3890 C   0  0  0  0  0  0  0  0  0  0  0  0
  194.6310  171.9870  145.4470 C   0  0  0  0  0  3  0  0  0  0  0  0
  186.7020  177.8610  144.8990 C   0  0  0  0  0  0  0  0  0  0  0  0
  187.2980  176.0640  142.9240 N   0  0  0  0  0  0  0  0  0  0  0  0
  193.6320  173.0030  145.7870 N   0  0  0  0  0  0  0  0  0  0  0  0
  187.8020  177.2380  145.2250 C   0  0  0  0  0  3  0  0  0  0  0  0
  185.9950  178.9250  144.2940 C   0  0  2  0  0  3  0  0  0  0  0  0
  190.6390  171.6840  140.2380 C   0  0  0  0  0  3  0  0  0  0  0  0
  190.3110  172.6140  141.2460 C   0  0  0  0  0  0  0  0  0  0  0  0
  192.2380  172.0080  142.5240 C   0  0  0  0  0  3  0  0  0  0  0  0
  189.2280  175.4880  144.2760 C   0  0  0  0  0  3  0  0  0  0  0  0
  191.3550  174.6560  145.6570 F   0  0  0  0  0  0  0  0  0  0  0  0
  195.3750  171.7010  143.0770 C   0  0  0  0  0  1  0  0  0  0  0  0
  190.7740  173.7030  143.4040 C   0  0  0  0  0  0  0  0  0  0  0  0
  193.0660  172.1710  143.6740 N   0  0  0  0  0  0  0  0  0  0  0  0
  184.7460  179.2250  145.1000 C   0  0  0  0  0  2  0  0  0  0  0  0
  184.8880  178.6900  146.4820 C   0  0  0  0  0  0  0  0  0  0  0  0
  185.6970  179.3450  147.4010 O   0  0  0  0  0  1  0  0  0  0  0  0
  184.2490  177.6630  146.8280 O   0  0  0  0  0  0  0  0  0  0  0  0
  1 20  1  0  0  0  0
  1 16  1  0  0  0  0
  2 27  2  0  0  0  0
  2 24  1  0  0  0  0
  3  4  2  0  0  0  0
  3 11  1  0  0  0  0
  4 21  1  0  0  0  0
  5  6  2  0  0  0  0
  5 25  1  0  0  0  0
  6 18  1  0  0  0  0
  7 24  2  0  0  0  0
  7 19  1  0  0  0  0
  8 12  2  0  0  0  0
  8 17  1  0  0  0  0
  9 26  1  6  0  0  0
  9 15  1  0  0  0  0
 10 17  1  0  0  0  0
 10  1  2  3  0  0  0
 11 13  2  0  0  0  0
 12  2  1  0  0  0  0
 13 22  1  0  0  0  0
 13 12  1  0  0  0  0
 14 23  2  0  0  0  0
 14 27  1  0  0  0  0
 15 18  2  0  0  0  0
 16 19  2  0  0  0  0
 17  7  1  0  0  0  0
 20 16  1  0  0  0  0
 20 29  1  1  0  0  0
 21 22  2  0  0  0  0
 22 14  1  0  0  0  0
 23 28  1  0  0  0  0
 27  5  1  0  0  0  0
 28  9  1  0  0  0  0
 28  6  1  0  0  0  0
 29 30  1  0  0  0  0
 30 32  2  0  0  0  0
 30 31  1  0  0  0  0
M  END
>  <MODEL>
6

>  <REMARK>
 VINA RESULT:      -8.0      4.218      8.422
  Name = 
  2 active torsions:
  status: ('A' for Active; 'I' for Inactive)
    1  A    between atoms: C_1  and  C_10
    2  A    between atoms: C_10  and  C_24
                            x       y       z     vdW  Elec       q    Type
                         _______ _______ _______ _____ _____    ______ ____

>  <TORSDO>
F 2

$$$$
=
 OpenBabel11052421243D

 32 38  0  0  1  0  0  0  0  0999 V2000
  186.6030  177.3870  145.8770 C   0  0  0  0  0  0  0  0  0  0  0  0
  189.5410  174.7260  142.9240 C   0  0  0  0  0  0  0  0  0  0  0  0
  193.4450  173.9270  145.7630 C   0  0  0  0  0  3  0  0  0  0  0  0
  194.0490  173.2060  144.7360 C   0  0  0  0  0  3  0  0  0  0  0  0
  189.4680  173.8200  140.5390 C   0  0  0  0  0  0  0  0  0  0  0  0
  190.0920  173.1100  139.6030 C   0  0  0  0  0  0  0  0  0  0  0  0
  187.6130  176.0080  143.7220 C   0  0  0  0  0  0  0  0  0  0  0  0
  189.6310  175.5840  145.1580 C   0  0  0  0  0  3  0  0  0  0  0  0
  191.8100  171.8840  138.6350 C   0  0  2  0  0  3  0  0  0  0  0  0
  187.7890  176.9170  146.1460 C   0  0  0  0  0  3  0  0  0  0  0  0
  192.1800  174.4820  145.5720 C   0  0  0  0  0  3  0  0  0  0  0  0
  190.2140  174.8900  144.1620 C   0  0  0  0  0  0  0  0  0  0  0  0
  191.4940  174.3280  144.3500 C   0  0  0  0  0  0  0  0  0  0  0  0
  191.4420  173.4230  142.0730 C   0  0  0  0  0  0  0  0  0  0  0  0
  190.6710  172.1060  137.6120 C   0  0  0  0  0  3  0  0  0  0  0  0
  185.8490  177.2220  144.5590 C   0  0  0  0  0  0  0  0  0  0  0  0
  188.3350  176.1710  145.0120 N   0  0  0  0  0  0  0  0  0  0  0  0
  189.6320  172.8850  138.2900 N   0  0  0  0  0  0  0  0  0  0  0  0
  186.2340  176.5890  143.4830 C   0  0  0  0  0  3  0  0  0  0  0  0
  185.1910  177.2870  145.8080 C   0  0  2  0  0  3  0  0  0  0  0  0
  193.3870  173.0400  143.5200 C   0  0  0  0  0  3  0  0  0  0  0  0
  192.1080  173.5930  143.3060 C   0  0  0  0  0  0  0  0  0  0  0  0
  192.0280  172.7170  141.0840 C   0  0  0  0  0  3  0  0  0  0  0  0
  188.1950  175.3210  142.7450 C   0  0  0  0  0  3  0  0  0  0  0  0
  188.2650  174.3760  140.2510 F   0  0  0  0  0  0  0  0  0  0  0  0
  191.9860  170.3980  138.8790 C   0  0  0  0  0  1  0  0  0  0  0  0
  190.1480  173.9960  141.8720 C   0  0  0  0  0  0  0  0  0  0  0  0
  191.3430  172.5340  139.8460 N   0  0  0  0  0  0  0  0  0  0  0  0
  184.5840  178.6660  145.9870 C   0  0  0  0  0  2  0  0  0  0  0  0
  184.4470  179.3400  144.6670 C   0  0  0  0  0  0  0  0  0  0  0  0
  185.3910  180.2750  144.2630 O   0  0  0  0  0  1  0  0  0  0  0  0
  183.4940  179.0410  143.9030 O   0  0  0  0  0  0  0  0  0  0  0  0
  1 10  2  3  0  0  0
  2 12  1  0  0  0  0
  4  3  2  0  0  0  0
  5 27  1  0  0  0  0
  6 28  1  0  0  0  0
  6  5  2  0  0  0  0
  7 17  1  0  0  0  0
  9 26  1  1  0  0  0
  9 28  1  0  0  0  0
 11  3  1  0  0  0  0
 12 13  1  0  0  0  0
 12  8  2  0  0  0  0
 13 11  2  0  0  0  0
 14 22  1  0  0  0  0
 15 18  2  0  0  0  0
 15  9  1  0  0  0  0
 16 20  1  0  0  0  0
 16  1  1  0  0  0  0
 17  8  1  0  0  0  0
 17 10  1  0  0  0  0
 18  6  1  0  0  0  0
 19  7  1  0  0  0  0
 19 16  2  0  0  0  0
 20  1  1  0  0  0  0
 20 29  1  6  0  0  0
 21  4  1  0  0  0  0
 22 21  2  0  0  0  0
 22 13  1  0  0  0  0
 23 14  2  0  0  0  0
 24  2  1  0  0  0  0
 24  7  2  0  0  0  0
 25  5  1  0  0  0  0
 27 14  1  0  0  0  0
 27  2  2  0  0  0  0
 28 23  1  0  0  0  0
 30 29  1  0  0  0  0
 31 30  1  0  0  0  0
 32 30  2  0  0  0  0
M  END
>  <MODEL>
7

>  <REMARK>
 VINA RESULT:      -7.9      3.501      7.790
  Name = 
  2 active torsions:
  status: ('A' for Active; 'I' for Inactive)
    1  A    between atoms: C_1  and  C_10
    2  A    between atoms: C_10  and  C_24
                            x       y       z     vdW  Elec       q    Type
                         _______ _______ _______ _____ _____    ______ ____

>  <TORSDO>
F 2

$$$$
=
 OpenBabel11052421243D

 32 38  0  0  1  0  0  0  0  0999 V2000
  185.8520  177.5540  143.7500 C   0  0  0  0  0  0  0  0  0  0  0  0
  190.2650  175.3350  143.5680 C   0  0  0  0  0  0  0  0  0  0  0  0
  189.7210  172.2120  139.8410 C   0  0  0  0  0  3  0  0  0  0  0  0
  191.0280  171.7670  140.0170 C   0  0  0  0  0  3  0  0  0  0  0  0
  192.4670  175.4440  144.8530 C   0  0  0  0  0  0  0  0  0  0  0  0
  193.7120  174.9870  144.9610 C   0  0  0  0  0  0  0  0  0  0  0  0
  188.4510  176.8220  144.2730 C   0  0  0  0  0  0  0  0  0  0  0  0
  188.1980  175.2070  142.3640 C   0  0  0  0  0  3  0  0  0  0  0  0
  195.5560  173.6610  144.4770 C   0  0  2  0  0  3  0  0  0  0  0  0
  186.2400  176.6170  142.9320 C   0  0  0  0  0  3  0  0  0  0  0  0
  189.2050  173.2040  140.6740 C   0  0  0  0  0  3  0  0  0  0  0  0
  189.4630  174.7780  142.5390 C   0  0  0  0  0  0  0  0  0  0  0  0
  189.9880  173.7720  141.7000 C   0  0  0  0  0  0  0  0  0  0  0  0
  192.1230  173.8730  142.8980 C   0  0  0  0  0  0  0  0  0  0  0  0
  195.8490  174.5560  145.7060 C   0  0  0  0  0  3  0  0  0  0  0  0
  186.6930  178.1800  144.8620 C   0  0  0  0  0  0  0  0  0  0  0  0
  187.6250  176.2240  143.1910 N   0  0  0  0  0  0  0  0  0  0  0  0
  194.6460  175.3560  145.9510 N   0  0  0  0  0  0  0  0  0  0  0  0
  187.9280  177.9080  145.1900 C   0  0  0  0  0  3  0  0  0  0  0  0
  185.7170  178.9090  144.1460 C   0  0  2  0  0  3  0  0  0  0  0  0
  191.8200  172.3170  141.0260 C   0  0  0  0  0  3  0  0  0  0  0  0
  191.3190  173.3200  141.8790 C   0  0  0  0  0  0  0  0  0  0  0  0
  193.3930  173.4450  143.0600 C   0  0  0  0  0  3  0  0  0  0  0  0
  189.6980  176.3920  144.4390 C   0  0  0  0  0  3  0  0  0  0  0  0
  192.0260  176.3690  145.7420 F   0  0  0  0  0  0  0  0  0  0  0  0
  196.5300  173.9990  143.3650 C   0  0  0  0  0  1  0  0  0  0  0  0
  191.5960  174.8870  143.7580 C   0  0  0  0  0  0  0  0  0  0  0  0
  194.2070  174.0200  144.0810 N   0  0  0  0  0  0  0  0  0  0  0  0
  184.4710  179.0570  144.9990 C   0  0  0  0  0  2  0  0  0  0  0  0
  184.7490  178.6150  146.3930 C   0  0  0  0  0  0  0  0  0  0  0  0
  185.5180  179.4090  147.2340 O   0  0  0  0  0  1  0  0  0  0  0  0
  184.2610  177.5370  146.8200 O   0  0  0  0  0  0  0  0  0  0  0  0
  1 20  1  0  0  0  0
  1 16  1  0  0  0  0
  2 27  2  0  0  0  0
  2 24  1  0  0  0  0
  3  4  2  0  0  0  0
  3 11  1  0  0  0  0
  4 21  1  0  0  0  0
  5  6  2  0  0  0  0
  5 25  1  0  0  0  0
  6 18  1  0  0  0  0
  7 24  2  0  0  0  0
  7 19  1  0  0  0  0
  8 12  2  0  0  0  0
  8 17  1  0  0  0  0
  9 26  1  6  0  0  0
  9 15  1  0  0  0  0
 10 17  1  0  0  0  0
 10  1  2  3  0  0  0
 11 13  2  0  0  0  0
 12  2  1  0  0  0  0
 13 22  1  0  0  0  0
 13 12  1  0  0  0  0
 14 23  2  0  0  0  0
 14 27  1  0  0  0  0
 15 18  2  0  0  0  0
 16 19  2  0  0  0  0
 17  7  1  0  0  0  0
 20 16  1  0  0  0  0
 20 29  1  1  0  0  0
 21 22  2  0  0  0  0
 22 14  1  0  0  0  0
 23 28  1  0  0  0  0
 27  5  1  0  0  0  0
 28  9  1  0  0  0  0
 28  6  1  0  0  0  0
 29 30  1  0  0  0  0
 30 32  2  0  0  0  0
 30 31  1  0  0  0  0
M  END
>  <MODEL>
8

>  <REMARK>
 VINA RESULT:      -7.8      4.277      8.251
  Name = 
  2 active torsions:
  status: ('A' for Active; 'I' for Inactive)
    1  A    between atoms: C_1  and  C_10
    2  A    between atoms: C_10  and  C_24
                            x       y       z     vdW  Elec       q    Type
                         _______ _______ _______ _____ _____    ______ ____

>  <TORSDO>
F 2

$$$$
=
 OpenBabel11052421243D

 32 38  0  0  1  0  0  0  0  0999 V2000
  187.2230  176.8630  144.0230 C   0  0  0  0  0  0  0  0  0  0  0  0
  191.7340  175.4410  142.5880 C   0  0  0  0  0  0  0  0  0  0  0  0
  190.7430  172.0910  139.1630 C   0  0  0  0  0  3  0  0  0  0  0  0
  192.1060  171.8900  138.9580 C   0  0  0  0  0  3  0  0  0  0  0  0
  194.1500  175.9960  143.1940 C   0  0  0  0  0  0  0  0  0  0  0  0
  195.4370  175.7680  142.9430 C   0  0  0  0  0  0  0  0  0  0  0  0
  189.9520  176.6220  143.7840 C   0  0  0  0  0  0  0  0  0  0  0  0
  189.4720  174.8960  142.0210 C   0  0  0  0  0  3  0  0  0  0  0  0
  197.2800  174.7630  141.9520 C   0  0  2  0  0  3  0  0  0  0  0  0
  187.5290  175.9690  143.1260 C   0  0  0  0  0  3  0  0  0  0  0  0
  190.3110  173.0180  140.1100 C   0  0  0  0  0  3  0  0  0  0  0  0
  190.7910  174.7020  141.8290 C   0  0  0  0  0  0  0  0  0  0  0  0
  191.2320  173.7630  140.8720 C   0  0  0  0  0  0  0  0  0  0  0  0
  193.5630  174.2950  141.4140 C   0  0  0  0  0  0  0  0  0  0  0  0
  197.7380  175.7540  143.0480 C   0  0  0  0  0  3  0  0  0  0  0  0
  188.2130  177.6800  144.8520 C   0  0  0  0  0  0  0  0  0  0  0  0
  188.9780  175.8370  142.9800 N   0  0  0  0  0  0  0  0  0  0  0  0
  196.5280  176.3430  143.6270 N   0  0  0  0  0  0  0  0  0  0  0  0
  189.5190  177.6440  144.8150 C   0  0  0  0  0  3  0  0  0  0  0  0
  186.9610  178.1910  144.4450 C   0  0  2  0  0  3  0  0  0  0  0  0
  193.0350  172.6190  139.7020 C   0  0  0  0  0  3  0  0  0  0  0  0
  192.6190  173.5600  140.6640 C   0  0  0  0  0  0  0  0  0  0  0  0
  194.8830  174.1030  141.2070 C   0  0  0  0  0  3  0  0  0  0  0  0
  191.2520  176.4250  143.5870 C   0  0  0  0  0  3  0  0  0  0  0  0
  193.8160  176.8720  144.1740 F   0  0  0  0  0  0  0  0  0  0  0  0
  197.8250  175.2090  140.6090 C   0  0  0  0  0  1  0  0  0  0  0  0
  193.1230  175.2420  142.3900 C   0  0  0  0  0  0  0  0  0  0  0  0
  195.8320  174.8600  141.9560 N   0  0  0  0  0  0  0  0  0  0  0  0
  185.9980  178.1620  145.6160 C   0  0  0  0  0  2  0  0  0  0  0  0
  184.7850  178.9660  145.3030 C   0  0  0  0  0  0  0  0  0  0  0  0
  184.8130  179.8900  144.2670 O   0  0  0  0  0  0  0  0  0  0  0  0
  183.7250  178.7870  145.9550 O   0  0  0  0  0  1  0  0  0  0  0  0
  1 20  1  0  0  0  0
  1 16  1  0  0  0  0
  2 24  1  0  0  0  0
  3 11  1  0  0  0  0
  4  3  2  0  0  0  0
  4 21  1  0  0  0  0
  5 25  1  0  0  0  0
  6  5  2  0  0  0  0
  6 18  1  0  0  0  0
  7 19  1  0  0  0  0
  8 17  1  0  0  0  0
  9 26  1  6  0  0  0
  9 28  1  0  0  0  0
  9 15  1  0  0  0  0
 10  1  2  3  0  0  0
 11 13  2  0  0  0  0
 12  8  2  0  0  0  0
 12  2  1  0  0  0  0
 13 12  1  0  0  0  0
 14 27  1  0  0  0  0
 15 18  2  0  0  0  0
 17 10  1  0  0  0  0
 17  7  1  0  0  0  0
 19 16  2  0  0  0  0
 20 16  1  0  0  0  0
 20 29  1  1  0  0  0
 21 22  2  0  0  0  0
 22 13  1  0  0  0  0
 22 14  1  0  0  0  0
 23 14  2  0  0  0  0
 23 28  1  0  0  0  0
 24  7  2  0  0  0  0
 27  2  2  0  0  0  0
 27  5  1  0  0  0  0
 28  6  1  0  0  0  0
 30 29  1  0  0  0  0
 30 32  1  0  0  0  0
 31 30  2  0  0  0  0
M  END
>  <MODEL>
9

>  <REMARK>
 VINA RESULT:      -7.8      4.666      8.786
  Name = 
  2 active torsions:
  status: ('A' for Active; 'I' for Inactive)
    1  A    between atoms: C_1  and  C_10
    2  A    between atoms: C_10  and  C_24
                            x       y       z     vdW  Elec       q    Type
                         _______ _______ _______ _____ _____    ______ ____

>  <TORSDO>
F 2

$$$$
