=
 OpenBabel11052417163D

 30 33  0  0  0  0  0  0  0  0999 V2000
  188.6450  176.4760  144.7680 C   0  0  0  0  0  3  0  0  0  0  0  0
  187.2100  176.5890  146.7290 C   0  0  0  0  0  0  0  0  0  0  0  0
  185.4690  177.6480  142.3310 N   0  0  0  0  0  0  0  0  0  0  0  0
  188.8470  176.5990  143.3880 C   0  0  0  0  0  0  0  0  0  0  0  0
  185.6250  177.8150  140.9910 C   0  0  0  0  0  3  0  0  0  0  0  0
  185.9550  176.8350  147.2920 C   0  0  0  0  0  3  0  0  0  0  0  0
  188.2640  176.2100  147.5540 O   0  0  0  0  0  1  0  0  0  0  0  0
  186.5000  177.2570  143.1350 C   0  0  0  0  0  0  0  0  0  0  0  0
  184.8820  177.2160  146.4850 C   0  0  0  0  0  3  0  0  0  0  0  0
  187.3960  176.7250  145.3430 C   0  0  0  0  0  0  0  0  0  0  0  0
  187.7740  177.0060  142.5670 C   0  0  0  0  0  0  0  0  0  0  0  0
  186.8650  177.5920  140.3960 C   0  0  0  0  0  3  0  0  0  0  0  0
  187.9390  177.1890  141.1890 C   0  0  0  0  0  3  0  0  0  0  0  0
  185.0580  177.3550  145.1060 C   0  0  0  0  0  3  0  0  0  0  0  0
  186.3100  177.1120  144.5210 C   0  0  0  0  0  0  0  0  0  0  0  0
  191.4710  174.8440  141.6080 O   0  0  0  0  0  0  0  0  0  0  0  0
  190.5730  174.9910  142.4790 C   0  0  0  0  0  0  0  0  0  0  0  0
  190.1520  176.3210  142.8450 N   0  0  0  0  0  0  0  0  0  0  0  0
  189.1050  172.9890  142.5160 N   0  0  0  0  0  0  0  0  0  0  0  0
  190.3400  173.3410  144.3420 N   0  0  0  0  0  0  0  0  0  0  0  0
  190.0030  173.7870  143.1160 C   0  0  0  0  0  0  0  0  0  0  0  0
  188.8440  172.0140  143.3680 N   0  0  0  0  0  2  0  0  0  0  0  0
  189.5910  172.2280  144.4690 C   0  0  0  0  0  3  0  0  0  0  0  0
  191.0860  177.4290  142.6830 C   0  0  0  0  0  2  0  0  0  0  0  0
  191.5290  177.9420  144.0430 C   0  0  0  0  0  2  0  0  0  0  0  0
  192.3860  176.9030  144.7410 C   0  0  0  0  0  2  0  0  0  0  0  0
  191.8040  176.5630  146.0310 N   0  0  0  0  0  0  0  0  0  0  0  0
  193.1130  174.5940  146.1900 N   0  0  0  0  0  1  0  0  0  0  0  0
  192.1380  175.5030  146.6970 C   0  0  0  0  0  0  0  0  0  0  0  0
  191.5220  175.2400  147.9520 N   0  0  0  0  0  1  0  0  0  0  0  0
  1 10  1  0  0  0  0
  2  6  1  0  0  0  0
  2  7  1  0  0  0  0
  3  8  1  0  0  0  0
  4  1  2  0  0  0  0
  5  3  2  0  0  0  0
  8 15  1  0  0  0  0
  9  6  2  0  0  0  0
 10  2  2  0  0  0  0
 11  8  2  0  0  0  0
 11  4  1  0  0  0  0
 12  5  1  0  0  0  0
 12 13  2  0  0  0  0
 13 11  1  0  0  0  0
 14  9  1  0  0  0  0
 15 14  2  0  0  0  0
 15 10  1  0  0  0  0
 16 17  2  0  0  0  0
 17 18  1  0  0  0  0
 17 21  1  0  0  0  0
 18  4  1  0  0  0  0
 19 21  2  0  0  0  0
 19 22  1  0  0  0  0
 20 23  2  0  0  0  0
 21 20  1  0  0  0  0
 22 23  1  0  0  0  0
 24 18  1  0  0  0  0
 24 25  1  0  0  0  0
 25 26  1  0  0  0  0
 26 27  1  0  0  0  0
 27 29  2  0  0  0  0
 28 29  1  0  0  0  0
 29 30  1  0  0  0  0
M  END
>  <MODEL>
1

>  <REMARK>
 VINA RESULT:      -7.0      0.000      0.000
  Name = 
  6 active torsions:
  status: ('A' for Active; 'I' for Inactive)
    1  A    between atoms: C_4  and  N_13
    2  A    between atoms: N_7  and  C_16
    3  A    between atoms: C_8  and  C_12
    4  A    between atoms: N_13  and  C_27
    5  A    between atoms: C_16  and  C_30
    6  A    between atoms: C_27  and  C_30
                            x       y       z     vdW  Elec       q    Type
                         _______ _______ _______ _____ _____    ______ ____

>  <TORSDO>
F 6

$$$$
=
 OpenBabel11052417163D

 30 33  0  0  0  0  0  0  0  0999 V2000
  188.0170  177.1090  141.9610 C   0  0  0  0  0  3  0  0  0  0  0  0
  186.0220  177.8050  140.7560 C   0  0  0  0  0  0  0  0  0  0  0  0
  185.8850  177.0790  145.5460 N   0  0  0  0  0  0  0  0  0  0  0  0
  188.6740  176.7650  143.1480 C   0  0  0  0  0  0  0  0  0  0  0  0
  186.4700  176.7190  146.7190 C   0  0  0  0  0  3  0  0  0  0  0  0
  184.6690  178.1550  140.7630 C   0  0  0  0  0  3  0  0  0  0  0  0
  186.7190  177.8070  139.5520 O   0  0  0  0  0  1  0  0  0  0  0  0
  186.5760  177.1000  144.3700 C   0  0  0  0  0  0  0  0  0  0  0  0
  183.9490  178.1600  141.9590 C   0  0  0  0  0  3  0  0  0  0  0  0
  186.6630  177.4560  141.9560 C   0  0  0  0  0  0  0  0  0  0  0  0
  187.9480  176.7450  144.3580 C   0  0  0  0  0  0  0  0  0  0  0  0
  187.8140  176.3500  146.7470 C   0  0  0  0  0  3  0  0  0  0  0  0
  188.5500  176.3630  145.5640 C   0  0  0  0  0  3  0  0  0  0  0  0
  184.5780  177.8130  143.1570 C   0  0  0  0  0  3  0  0  0  0  0  0
  185.9350  177.4590  143.1700 C   0  0  0  0  0  0  0  0  0  0  0  0
  191.7200  175.0880  142.1270 O   0  0  0  0  0  0  0  0  0  0  0  0
  190.5500  175.1660  142.5870 C   0  0  0  0  0  0  0  0  0  0  0  0
  190.0730  176.4260  143.1000 N   0  0  0  0  0  0  0  0  0  0  0  0
  189.6930  173.0880  143.6410 N   0  0  0  0  0  0  0  0  0  0  0  0
  188.8760  173.5810  141.6240 N   0  0  0  0  0  2  0  0  0  0  0  0
  189.7170  173.9470  142.6090 C   0  0  0  0  0  0  0  0  0  0  0  0
  188.8300  172.1410  143.3190 N   0  0  0  0  0  0  0  0  0  0  0  0
  188.3380  172.4410  142.1010 C   0  0  0  0  0  3  0  0  0  0  0  0
  191.0380  177.3930  143.6130 C   0  0  0  0  0  2  0  0  0  0  0  0
  191.7710  176.8120  144.8110 C   0  0  0  0  0  2  0  0  0  0  0  0
  193.2640  177.0360  144.6710 C   0  0  0  0  0  2  0  0  0  0  0  0
  193.9920  176.0320  145.4350 N   0  0  0  0  0  0  0  0  0  0  0  0
  195.8850  176.2170  144.0210 N   0  0  0  0  0  1  0  0  0  0  0  0
  195.1950  175.6560  145.1360 C   0  0  0  0  0  0  0  0  0  0  0  0
  195.8390  174.6690  145.9320 N   0  0  0  0  0  1  0  0  0  0  0  0
  1  4  1  0  0  0  0
  2  6  2  0  0  0  0
  2 10  1  0  0  0  0
  3  5  2  0  0  0  0
  4 11  2  0  0  0  0
  5 12  1  0  0  0  0
  6  9  1  0  0  0  0
  7  2  1  0  0  0  0
  8  3  1  0  0  0  0
  9 14  2  0  0  0  0
 10  1  2  0  0  0  0
 10 15  1  0  0  0  0
 11  8  1  0  0  0  0
 11 13  1  0  0  0  0
 13 12  2  0  0  0  0
 14 15  1  0  0  0  0
 15  8  2  0  0  0  0
 16 17  2  0  0  0  0
 17 21  1  0  0  0  0
 17 18  1  0  0  0  0
 18  4  1  0  0  0  0
 18 24  1  0  0  0  0
 20 23  1  0  0  0  0
 20 21  1  0  0  0  0
 21 19  2  0  0  0  0
 22 19  1  0  0  0  0
 23 22  2  0  0  0  0
 24 25  1  0  0  0  0
 26 25  1  0  0  0  0
 26 27  1  0  0  0  0
 28 29  1  0  0  0  0
 29 27  2  0  0  0  0
 29 30  1  0  0  0  0
M  END
>  <MODEL>
2

>  <REMARK>
 VINA RESULT:      -6.9      1.885      3.629
  Name = 
  6 active torsions:
  status: ('A' for Active; 'I' for Inactive)
    1  A    between atoms: C_4  and  N_13
    2  A    between atoms: N_7  and  C_16
    3  A    between atoms: C_8  and  C_12
    4  A    between atoms: N_13  and  C_27
    5  A    between atoms: C_16  and  C_30
    6  A    between atoms: C_27  and  C_30
                            x       y       z     vdW  Elec       q    Type
                         _______ _______ _______ _____ _____    ______ ____

>  <TORSDO>
F 6

$$$$
=
 OpenBabel11052417163D

 30 33  0  0  0  0  0  0  0  0999 V2000
  191.8190  175.9080  142.9430 C   0  0  0  0  0  3  0  0  0  0  0  0
  194.2360  176.0670  143.1570 C   0  0  0  0  0  0  0  0  0  0  0  0
  191.4610  175.2460  147.0450 N   0  0  0  0  0  0  0  0  0  0  0  0
  190.5490  175.7110  143.4980 C   0  0  0  0  0  0  0  0  0  0  0  0
  190.2480  175.0840  147.6370 C   0  0  0  0  0  3  0  0  0  0  0  0
  195.3810  176.0250  143.9570 C   0  0  0  0  0  3  0  0  0  0  0  0
  194.3680  176.3000  141.7930 O   0  0  0  0  0  1  0  0  0  0  0  0
  191.5890  175.4550  145.7030 C   0  0  0  0  0  0  0  0  0  0  0  0
  195.2740  175.7930  145.3300 C   0  0  0  0  0  3  0  0  0  0  0  0
  192.9700  175.8740  143.7340 C   0  0  0  0  0  0  0  0  0  0  0  0
  190.4300  175.4980  144.8880 C   0  0  0  0  0  0  0  0  0  0  0  0
  189.0830  175.1330  146.8720 C   0  0  0  0  0  3  0  0  0  0  0  0
  189.1790  175.3420  145.4980 C   0  0  0  0  0  3  0  0  0  0  0  0
  194.0190  175.6010  145.9120 C   0  0  0  0  0  3  0  0  0  0  0  0
  192.8580  175.6390  145.1260 C   0  0  0  0  0  0  0  0  0  0  0  0
  187.4730  174.6370  141.9120 O   0  0  0  0  0  0  0  0  0  0  0  0
  188.6860  174.5540  142.2410 C   0  0  0  0  0  0  0  0  0  0  0  0
  189.3960  175.7450  142.6370 N   0  0  0  0  0  0  0  0  0  0  0  0
  189.2290  172.3060  143.1420 N   0  0  0  0  0  0  0  0  0  0  0  0
  190.1020  172.8080  141.1510 N   0  0  0  0  0  2  0  0  0  0  0  0
  189.3460  173.2350  142.1800 C   0  0  0  0  0  0  0  0  0  0  0  0
  189.9290  171.2600  142.7390 N   0  0  0  0  0  0  0  0  0  0  0  0
  190.4550  171.5660  141.5370 C   0  0  0  0  0  3  0  0  0  0  0  0
  188.9470  177.0380  142.1300 C   0  0  0  0  0  2  0  0  0  0  0  0
  188.4600  177.9070  143.2780 C   0  0  0  0  0  2  0  0  0  0  0  0
  186.9570  177.7780  143.4320 C   0  0  0  0  0  2  0  0  0  0  0  0
  186.5750  178.0350  144.8140 N   0  0  0  0  0  0  0  0  0  0  0  0
  185.3580  179.9740  144.1970 N   0  0  0  0  0  1  0  0  0  0  0  0
  185.8410  179.0440  145.1640 C   0  0  0  0  0  0  0  0  0  0  0  0
  185.5110  179.2270  146.5360 N   0  0  0  0  0  1  0  0  0  0  0  0
  1  4  2  0  0  0  0
  1 10  1  0  0  0  0
  2 10  2  0  0  0  0
  2  6  1  0  0  0  0
  3  5  1  0  0  0  0
  4 11  1  0  0  0  0
  6  9  2  0  0  0  0
  7  2  1  0  0  0  0
  8  3  2  0  0  0  0
  9 14  1  0  0  0  0
 10 15  1  0  0  0  0
 11 13  2  0  0  0  0
 11  8  1  0  0  0  0
 12  5  2  0  0  0  0
 13 12  1  0  0  0  0
 15  8  1  0  0  0  0
 15 14  2  0  0  0  0
 16 17  2  0  0  0  0
 17 18  1  0  0  0  0
 18  4  1  0  0  0  0
 20 23  1  0  0  0  0
 20 21  1  0  0  0  0
 21 17  1  0  0  0  0
 21 19  2  0  0  0  0
 22 19  1  0  0  0  0
 23 22  2  0  0  0  0
 24 18  1  0  0  0  0
 24 25  1  0  0  0  0
 25 26  1  0  0  0  0
 26 27  1  0  0  0  0
 27 29  2  0  0  0  0
 28 29  1  0  0  0  0
 29 30  1  0  0  0  0
M  END
>  <MODEL>
3

>  <REMARK>
 VINA RESULT:      -6.7      2.218      6.097
  Name = 
  6 active torsions:
  status: ('A' for Active; 'I' for Inactive)
    1  A    between atoms: C_4  and  N_13
    2  A    between atoms: N_7  and  C_16
    3  A    between atoms: C_8  and  C_12
    4  A    between atoms: N_13  and  C_27
    5  A    between atoms: C_16  and  C_30
    6  A    between atoms: C_27  and  C_30
                            x       y       z     vdW  Elec       q    Type
                         _______ _______ _______ _____ _____    ______ ____

>  <TORSDO>
F 6

$$$$
=
 OpenBabel11052417163D

 30 33  0  0  0  0  0  0  0  0999 V2000
  189.6340  174.1480  144.5160 C   0  0  0  0  0  3  0  0  0  0  0  0
  190.0970  172.2010  143.1330 C   0  0  0  0  0  0  0  0  0  0  0  0
  188.1910  176.2120  141.1910 N   0  0  0  0  0  0  0  0  0  0  0  0
  189.1780  175.4620  144.6680 C   0  0  0  0  0  0  0  0  0  0  0  0
  187.7050  177.4770  141.2940 C   0  0  0  0  0  3  0  0  0  0  0  0
  190.0910  171.5830  141.8800 C   0  0  0  0  0  3  0  0  0  0  0  0
  190.5700  171.4980  144.2360 O   0  0  0  0  0  1  0  0  0  0  0  0
  188.6730  175.5320  142.2710 C   0  0  0  0  0  0  0  0  0  0  0  0
  189.6220  172.2680  140.7580 C   0  0  0  0  0  3  0  0  0  0  0  0
  189.6280  173.5180  143.2680 C   0  0  0  0  0  0  0  0  0  0  0  0
  188.6800  176.1550  143.5430 C   0  0  0  0  0  0  0  0  0  0  0  0
  187.6820  178.1200  142.5310 C   0  0  0  0  0  3  0  0  0  0  0  0
  188.1690  177.4540  143.6540 C   0  0  0  0  0  3  0  0  0  0  0  0
  189.1530  173.5780  140.8830 C   0  0  0  0  0  3  0  0  0  0  0  0
  189.1500  174.2160  142.1330 C   0  0  0  0  0  0  0  0  0  0  0  0
  190.1860  177.6960  147.3380 O   0  0  0  0  0  0  0  0  0  0  0  0
  190.3520  176.8180  146.4500 C   0  0  0  0  0  0  0  0  0  0  0  0
  189.2150  176.0690  145.9740 N   0  0  0  0  0  0  0  0  0  0  0  0
  192.1960  177.1010  144.8120 N   0  0  0  0  0  0  0  0  0  0  0  0
  192.6380  175.8180  146.5840 N   0  0  0  0  0  0  0  0  0  0  0  0
  191.7180  176.5690  145.9490 C   0  0  0  0  0  0  0  0  0  0  0  0
  193.4430  176.6810  144.6980 N   0  0  0  0  0  2  0  0  0  0  0  0
  193.7070  175.9070  145.7690 C   0  0  0  0  0  3  0  0  0  0  0  0
  188.0640  175.8950  146.8530 C   0  0  0  0  0  2  0  0  0  0  0  0
  187.2060  177.1490  146.8420 C   0  0  0  0  0  2  0  0  0  0  0  0
  185.7460  176.7830  146.6550 C   0  0  0  0  0  2  0  0  0  0  0  0
  185.3360  177.0600  145.2850 N   0  0  0  0  0  0  0  0  0  0  0  0
  184.1490  179.0010  145.9510 N   0  0  0  0  0  1  0  0  0  0  0  0
  184.6020  178.0790  144.9630 C   0  0  0  0  0  0  0  0  0  0  0  0
  184.2440  178.2810  143.6010 N   0  0  0  0  0  1  0  0  0  0  0  0
  1  4  1  0  0  0  0
  2 10  1  0  0  0  0
  2  7  1  0  0  0  0
  3  5  2  0  0  0  0
  3  8  1  0  0  0  0
  4 18  1  0  0  0  0
  5 12  1  0  0  0  0
  6  2  2  0  0  0  0
  8 11  1  0  0  0  0
  9 14  2  0  0  0  0
  9  6  1  0  0  0  0
 10  1  2  0  0  0  0
 11 13  1  0  0  0  0
 11  4  2  0  0  0  0
 12 13  2  0  0  0  0
 14 15  1  0  0  0  0
 15  8  2  0  0  0  0
 15 10  1  0  0  0  0
 17 16  2  0  0  0  0
 18 17  1  0  0  0  0
 18 24  1  0  0  0  0
 19 21  2  0  0  0  0
 21 17  1  0  0  0  0
 21 20  1  0  0  0  0
 22 19  1  0  0  0  0
 22 23  1  0  0  0  0
 23 20  2  0  0  0  0
 25 24  1  0  0  0  0
 26 25  1  0  0  0  0
 27 26  1  0  0  0  0
 29 27  2  0  0  0  0
 29 28  1  0  0  0  0
 30 29  1  0  0  0  0
M  END
>  <MODEL>
4

>  <REMARK>
 VINA RESULT:      -6.7      2.099      5.718
  Name = 
  6 active torsions:
  status: ('A' for Active; 'I' for Inactive)
    1  A    between atoms: C_4  and  N_13
    2  A    between atoms: N_7  and  C_16
    3  A    between atoms: C_8  and  C_12
    4  A    between atoms: N_13  and  C_27
    5  A    between atoms: C_16  and  C_30
    6  A    between atoms: C_27  and  C_30
                            x       y       z     vdW  Elec       q    Type
                         _______ _______ _______ _____ _____    ______ ____

>  <TORSDO>
F 6

$$$$
=
 OpenBabel11052417163D

 30 33  0  0  0  0  0  0  0  0999 V2000
  187.1520  176.1130  144.5590 C   0  0  0  0  0  3  0  0  0  0  0  0
  185.8870  177.1780  146.3430 C   0  0  0  0  0  0  0  0  0  0  0  0
  185.1300  178.3950  141.7130 N   0  0  0  0  0  0  0  0  0  0  0  0
  187.4510  175.9410  143.2030 C   0  0  0  0  0  0  0  0  0  0  0  0
  185.4090  178.2900  140.3870 C   0  0  0  0  0  3  0  0  0  0  0  0
  184.9080  178.0880  146.7500 C   0  0  0  0  0  3  0  0  0  0  0  0
  186.5620  176.4310  147.3030 O   0  0  0  0  0  1  0  0  0  0  0  0
  185.7800  177.6470  142.6500 C   0  0  0  0  0  0  0  0  0  0  0  0
  184.2170  178.8490  145.8050 C   0  0  0  0  0  3  0  0  0  0  0  0
  186.1790  177.0240  144.9770 C   0  0  0  0  0  0  0  0  0  0  0  0
  186.7730  176.7230  142.2420 C   0  0  0  0  0  0  0  0  0  0  0  0
  186.3890  177.4020  139.9460 C   0  0  0  0  0  3  0  0  0  0  0  0
  187.0710  176.6210  140.8780 C   0  0  0  0  0  3  0  0  0  0  0  0
  184.5010  178.7040  144.4450 C   0  0  0  0  0  3  0  0  0  0  0  0
  185.4800  177.7950  144.0170 C   0  0  0  0  0  0  0  0  0  0  0  0
  190.5720  174.0990  143.2650 O   0  0  0  0  0  0  0  0  0  0  0  0
  189.8430  175.1250  143.1860 C   0  0  0  0  0  0  0  0  0  0  0  0
  188.4550  174.9810  142.8240 N   0  0  0  0  0  0  0  0  0  0  0  0
  190.2680  177.5100  142.6450 N   0  0  0  0  0  0  0  0  0  0  0  0
  191.2270  176.7340  144.5060 N   0  0  0  0  0  0  0  0  0  0  0  0
  190.4530  176.4450  143.4420 C   0  0  0  0  0  0  0  0  0  0  0  0
  190.9410  178.5070  143.1930 N   0  0  0  0  0  2  0  0  0  0  0  0
  191.5180  178.0360  144.3150 C   0  0  0  0  0  3  0  0  0  0  0  0
  188.0480  173.8320  142.0230 C   0  0  0  0  0  2  0  0  0  0  0  0
  188.9780  173.6690  140.8320 C   0  0  0  0  0  2  0  0  0  0  0  0
  188.2370  173.0390  139.6690 C   0  0  0  0  0  2  0  0  0  0  0  0
  189.0190  173.1760  138.4490 N   0  0  0  0  0  0  0  0  0  0  0  0
  187.6060  174.9020  137.6460 N   0  0  0  0  0  1  0  0  0  0  0  0
  188.7280  174.0310  137.5190 C   0  0  0  0  0  0  0  0  0  0  0  0
  189.5420  174.1040  136.3550 N   0  0  0  0  0  1  0  0  0  0  0  0
  1 10  1  0  0  0  0
  2  6  1  0  0  0  0
  2  7  1  0  0  0  0
  3  8  1  0  0  0  0
  4  1  2  0  0  0  0
  5  3  2  0  0  0  0
  8 15  1  0  0  0  0
  9  6  2  0  0  0  0
 10  2  2  0  0  0  0
 11  8  2  0  0  0  0
 11  4  1  0  0  0  0
 12  5  1  0  0  0  0
 12 13  2  0  0  0  0
 13 11  1  0  0  0  0
 14  9  1  0  0  0  0
 15 14  2  0  0  0  0
 15 10  1  0  0  0  0
 17 16  2  0  0  0  0
 17 21  1  0  0  0  0
 18 17  1  0  0  0  0
 18  4  1  0  0  0  0
 19 22  1  0  0  0  0
 19 21  2  0  0  0  0
 21 20  1  0  0  0  0
 22 23  1  0  0  0  0
 23 20  2  0  0  0  0
 24 18  1  0  0  0  0
 25 24  1  0  0  0  0
 26 25  1  0  0  0  0
 27 26  1  0  0  0  0
 29 28  1  0  0  0  0
 29 27  2  0  0  0  0
 30 29  1  0  0  0  0
M  END
>  <MODEL>
5

>  <REMARK>
 VINA RESULT:      -6.6      2.439      4.818
  Name = 
  6 active torsions:
  status: ('A' for Active; 'I' for Inactive)
    1  A    between atoms: C_4  and  N_13
    2  A    between atoms: N_7  and  C_16
    3  A    between atoms: C_8  and  C_12
    4  A    between atoms: N_13  and  C_27
    5  A    between atoms: C_16  and  C_30
    6  A    between atoms: C_27  and  C_30
                            x       y       z     vdW  Elec       q    Type
                         _______ _______ _______ _____ _____    ______ ____

>  <TORSDO>
F 6

$$$$
=
 OpenBabel11052417163D

 30 33  0  0  0  0  0  0  0  0999 V2000
  188.7640  177.1920  143.1030 C   0  0  0  0  0  3  0  0  0  0  0  0
  186.6870  178.4400  142.8950 C   0  0  0  0  0  0  0  0  0  0  0  0
  187.6980  175.9870  146.9520 N   0  0  0  0  0  0  0  0  0  0  0  0
  189.6380  176.3790  143.8350 C   0  0  0  0  0  0  0  0  0  0  0  0
  188.4960  175.1710  147.6880 C   0  0  0  0  0  3  0  0  0  0  0  0
  185.4750  178.8660  143.4460 C   0  0  0  0  0  3  0  0  0  0  0  0
  187.0250  178.8400  141.6070 O   0  0  0  0  0  1  0  0  0  0  0  0
  188.0420  176.3930  145.6960 C   0  0  0  0  0  0  0  0  0  0  0  0
  185.1130  178.4780  144.7380 C   0  0  0  0  0  3  0  0  0  0  0  0
  187.5470  177.6190  143.6430 C   0  0  0  0  0  0  0  0  0  0  0  0
  189.2700  175.9650  145.1330 C   0  0  0  0  0  0  0  0  0  0  0  0
  189.7060  174.7150  147.1660 C   0  0  0  0  0  3  0  0  0  0  0  0
  190.0880  175.1130  145.8860 C   0  0  0  0  0  3  0  0  0  0  0  0
  185.9630  177.6610  145.4880 C   0  0  0  0  0  3  0  0  0  0  0  0
  187.1830  177.2240  144.9520 C   0  0  0  0  0  0  0  0  0  0  0  0
  191.9250  174.7920  141.5150 O   0  0  0  0  0  0  0  0  0  0  0  0
  190.9930  174.8360  142.3620 C   0  0  0  0  0  0  0  0  0  0  0  0
  190.8840  175.9760  143.2370 N   0  0  0  0  0  0  0  0  0  0  0  0
  190.2360  172.6540  143.2730 N   0  0  0  0  0  0  0  0  0  0  0  0
  188.9240  173.5870  141.7270 N   0  0  0  0  0  2  0  0  0  0  0  0
  190.0590  173.6950  142.4430 C   0  0  0  0  0  0  0  0  0  0  0  0
  189.2050  171.8490  143.0880 N   0  0  0  0  0  0  0  0  0  0  0  0
  188.4150  172.4140  142.1540 C   0  0  0  0  0  3  0  0  0  0  0  0
  192.0840  176.7440  143.5520 C   0  0  0  0  0  2  0  0  0  0  0  0
  192.9680  175.9610  144.5090 C   0  0  0  0  0  2  0  0  0  0  0  0
  194.2110  176.7610  144.8480 C   0  0  0  0  0  2  0  0  0  0  0  0
  195.3650  175.8760  144.9280 N   0  0  0  0  0  0  0  0  0  0  0  0
  196.1180  176.5370  142.7800 N   0  0  0  0  0  1  0  0  0  0  0  0
  196.2400  175.7730  143.9780 C   0  0  0  0  0  0  0  0  0  0  0  0
  197.3400  174.8850  144.1320 N   0  0  0  0  0  1  0  0  0  0  0  0
  1 10  2  0  0  0  0
  1  4  1  0  0  0  0
  2  6  2  0  0  0  0
  2 10  1  0  0  0  0
  3  5  2  0  0  0  0
  4 11  2  0  0  0  0
  6  9  1  0  0  0  0
  7  2  1  0  0  0  0
  8  3  1  0  0  0  0
  9 14  2  0  0  0  0
 10 15  1  0  0  0  0
 11  8  1  0  0  0  0
 11 13  1  0  0  0  0
 12  5  1  0  0  0  0
 13 12  2  0  0  0  0
 15 14  1  0  0  0  0
 15  8  2  0  0  0  0
 16 17  2  0  0  0  0
 17 21  1  0  0  0  0
 17 18  1  0  0  0  0
 18 24  1  0  0  0  0
 18  4  1  0  0  0  0
 20 23  1  0  0  0  0
 20 21  1  0  0  0  0
 21 19  2  0  0  0  0
 22 19  1  0  0  0  0
 23 22  2  0  0  0  0
 24 25  1  0  0  0  0
 25 26  1  0  0  0  0
 26 27  1  0  0  0  0
 28 29  1  0  0  0  0
 29 30  1  0  0  0  0
 29 27  2  0  0  0  0
M  END
>  <MODEL>
6

>  <REMARK>
 VINA RESULT:      -6.5      2.369      3.834
  Name = 
  6 active torsions:
  status: ('A' for Active; 'I' for Inactive)
    1  A    between atoms: C_4  and  N_13
    2  A    between atoms: N_7  and  C_16
    3  A    between atoms: C_8  and  C_12
    4  A    between atoms: N_13  and  C_27
    5  A    between atoms: C_16  and  C_30
    6  A    between atoms: C_27  and  C_30
                            x       y       z     vdW  Elec       q    Type
                         _______ _______ _______ _____ _____    ______ ____

>  <TORSDO>
F 6

$$$$
=
 OpenBabel11052417163D

 30 33  0  0  0  0  0  0  0  0999 V2000
  187.6540  177.1700  143.3260 C   0  0  0  0  0  3  0  0  0  0  0  0
  186.1010  178.8560  144.1380 C   0  0  0  0  0  0  0  0  0  0  0  0
  188.1540  175.7100  147.2010 N   0  0  0  0  0  0  0  0  0  0  0  0
  188.5220  176.0940  143.5470 C   0  0  0  0  0  0  0  0  0  0  0  0
  188.9580  174.6460  147.4620 C   0  0  0  0  0  3  0  0  0  0  0  0
  185.4190  179.4550  145.2000 C   0  0  0  0  0  3  0  0  0  0  0  0
  185.9170  179.3450  142.8490 O   0  0  0  0  0  1  0  0  0  0  0  0
  187.9910  176.2000  145.9380 C   0  0  0  0  0  0  0  0  0  0  0  0
  185.5870  178.9820  146.5030 C   0  0  0  0  0  3  0  0  0  0  0  0
  186.9630  177.7730  144.3800 C   0  0  0  0  0  0  0  0  0  0  0  0
  188.6810  175.5950  144.8580 C   0  0  0  0  0  0  0  0  0  0  0  0
  189.6450  174.0150  146.4250 C   0  0  0  0  0  3  0  0  0  0  0  0
  189.5010  174.4920  145.1240 C   0  0  0  0  0  3  0  0  0  0  0  0
  186.4410  177.9050  146.7520 C   0  0  0  0  0  3  0  0  0  0  0  0
  187.1350  177.2910  145.6990 C   0  0  0  0  0  0  0  0  0  0  0  0
  191.1910  174.5270  141.6620 O   0  0  0  0  0  0  0  0  0  0  0  0
  190.6570  175.4180  142.3750 C   0  0  0  0  0  0  0  0  0  0  0  0
  189.2190  175.5160  142.4280 N   0  0  0  0  0  0  0  0  0  0  0  0
  191.4300  177.6880  143.0170 N   0  0  0  0  0  0  0  0  0  0  0  0
  192.4980  175.9750  143.9700 N   0  0  0  0  0  0  0  0  0  0  0  0
  191.5320  176.3520  143.1100 C   0  0  0  0  0  0  0  0  0  0  0  0
  192.3510  178.1900  143.8210 N   0  0  0  0  0  2  0  0  0  0  0  0
  192.9940  177.1540  144.3950 C   0  0  0  0  0  3  0  0  0  0  0  0
  188.4340  175.0320  141.2970 C   0  0  0  0  0  2  0  0  0  0  0  0
  187.7950  173.6970  141.6390 C   0  0  0  0  0  2  0  0  0  0  0  0
  188.4070  172.5930  140.7980 C   0  0  0  0  0  2  0  0  0  0  0  0
  188.2640  172.9080  139.3840 N   0  0  0  0  0  0  0  0  0  0  0  0
  190.4970  172.2520  138.9330 N   0  0  0  0  0  1  0  0  0  0  0  0
  189.2250  172.7520  138.5280 C   0  0  0  0  0  0  0  0  0  0  0  0
  189.0060  173.0840  137.1620 N   0  0  0  0  0  1  0  0  0  0  0  0
  1  4  2  0  0  0  0
  1 10  1  0  0  0  0
  2 10  2  0  0  0  0
  2  6  1  0  0  0  0
  3  5  1  0  0  0  0
  4 11  1  0  0  0  0
  6  9  2  0  0  0  0
  7  2  1  0  0  0  0
  8  3  2  0  0  0  0
  9 14  1  0  0  0  0
 10 15  1  0  0  0  0
 11 13  2  0  0  0  0
 11  8  1  0  0  0  0
 12  5  2  0  0  0  0
 13 12  1  0  0  0  0
 15  8  1  0  0  0  0
 15 14  2  0  0  0  0
 16 17  2  0  0  0  0
 17 18  1  0  0  0  0
 17 21  1  0  0  0  0
 18  4  1  0  0  0  0
 19 21  2  0  0  0  0
 19 22  1  0  0  0  0
 20 23  2  0  0  0  0
 21 20  1  0  0  0  0
 22 23  1  0  0  0  0
 24 25  1  0  0  0  0
 24 18  1  0  0  0  0
 26 25  1  0  0  0  0
 27 26  1  0  0  0  0
 29 28  1  0  0  0  0
 29 27  2  0  0  0  0
 30 29  1  0  0  0  0
M  END
>  <MODEL>
7

>  <REMARK>
 VINA RESULT:      -6.5      2.614      5.362
  Name = 
  6 active torsions:
  status: ('A' for Active; 'I' for Inactive)
    1  A    between atoms: C_4  and  N_13
    2  A    between atoms: N_7  and  C_16
    3  A    between atoms: C_8  and  C_12
    4  A    between atoms: N_13  and  C_27
    5  A    between atoms: C_16  and  C_30
    6  A    between atoms: C_27  and  C_30
                            x       y       z     vdW  Elec       q    Type
                         _______ _______ _______ _____ _____    ______ ____

>  <TORSDO>
F 6

$$$$
=
 OpenBabel11052417163D

 30 33  0  0  0  0  0  0  0  0999 V2000
  187.1880  176.1500  144.6390 C   0  0  0  0  0  3  0  0  0  0  0  0
  185.9070  177.1580  146.4440 C   0  0  0  0  0  0  0  0  0  0  0  0
  185.0890  178.4150  141.8350 N   0  0  0  0  0  0  0  0  0  0  0  0
  187.4830  176.0040  143.2780 C   0  0  0  0  0  0  0  0  0  0  0  0
  185.3620  178.3330  140.5060 C   0  0  0  0  0  3  0  0  0  0  0  0
  184.9070  178.0370  146.8680 C   0  0  0  0  0  3  0  0  0  0  0  0
  186.6080  176.4180  147.3900 O   0  0  0  0  0  1  0  0  0  0  0  0
  185.7640  177.6720  142.7580 C   0  0  0  0  0  0  0  0  0  0  0  0
  184.1900  178.7920  145.9380 C   0  0  0  0  0  3  0  0  0  0  0  0
  186.1940  177.0300  145.0750 C   0  0  0  0  0  0  0  0  0  0  0  0
  186.7780  176.7790  142.3320 C   0  0  0  0  0  0  0  0  0  0  0  0
  186.3620  177.4770  140.0470 C   0  0  0  0  0  3  0  0  0  0  0  0
  187.0700  176.7030  140.9650 C   0  0  0  0  0  3  0  0  0  0  0  0
  184.4700  178.6720  144.5740 C   0  0  0  0  0  3  0  0  0  0  0  0
  185.4690  177.7940  144.1290 C   0  0  0  0  0  0  0  0  0  0  0  0
  190.6270  174.2020  143.3340 O   0  0  0  0  0  0  0  0  0  0  0  0
  189.8860  175.2200  143.2830 C   0  0  0  0  0  0  0  0  0  0  0  0
  188.5090  175.0750  142.8810 N   0  0  0  0  0  0  0  0  0  0  0  0
  191.0250  176.8180  144.8030 N   0  0  0  0  0  0  0  0  0  0  0  0
  190.5410  177.5740  142.7600 N   0  0  0  0  0  2  0  0  0  0  0  0
  190.4710  176.5350  143.6140 C   0  0  0  0  0  0  0  0  0  0  0  0
  191.4550  178.0660  144.7270 N   0  0  0  0  0  0  0  0  0  0  0  0
  191.1610  178.5190  143.4930 C   0  0  0  0  0  3  0  0  0  0  0  0
  188.1370  173.9580  142.0190 C   0  0  0  0  0  2  0  0  0  0  0  0
  188.8610  174.0650  140.6870 C   0  0  0  0  0  2  0  0  0  0  0  0
  189.1090  172.6830  140.1130 C   0  0  0  0  0  2  0  0  0  0  0  0
  189.6200  171.7990  141.1510 N   0  0  0  0  0  0  0  0  0  0  0  0
  191.7950  171.8240  140.2080 N   0  0  0  0  0  1  0  0  0  0  0  0
  190.8540  171.4040  141.1940 C   0  0  0  0  0  0  0  0  0  0  0  0
  191.2760  170.5390  142.2410 N   0  0  0  0  0  1  0  0  0  0  0  0
  1 10  1  0  0  0  0
  2  6  1  0  0  0  0
  2  7  1  0  0  0  0
  3  8  1  0  0  0  0
  4  1  2  0  0  0  0
  5  3  2  0  0  0  0
  8 15  1  0  0  0  0
  9  6  2  0  0  0  0
 10  2  2  0  0  0  0
 11  8  2  0  0  0  0
 11  4  1  0  0  0  0
 12  5  1  0  0  0  0
 12 13  2  0  0  0  0
 13 11  1  0  0  0  0
 14  9  1  0  0  0  0
 15 14  2  0  0  0  0
 15 10  1  0  0  0  0
 17 16  2  0  0  0  0
 17 21  1  0  0  0  0
 18  4  1  0  0  0  0
 18 17  1  0  0  0  0
 20 23  1  0  0  0  0
 20 21  1  0  0  0  0
 21 19  2  0  0  0  0
 22 19  1  0  0  0  0
 23 22  2  0  0  0  0
 24 18  1  0  0  0  0
 25 24  1  0  0  0  0
 26 25  1  0  0  0  0
 26 27  1  0  0  0  0
 27 29  2  0  0  0  0
 28 29  1  0  0  0  0
 29 30  1  0  0  0  0
M  END
>  <MODEL>
8

>  <REMARK>
 VINA RESULT:      -6.4      1.850      4.000
  Name = 
  6 active torsions:
  status: ('A' for Active; 'I' for Inactive)
    1  A    between atoms: C_4  and  N_13
    2  A    between atoms: N_7  and  C_16
    3  A    between atoms: C_8  and  C_12
    4  A    between atoms: N_13  and  C_27
    5  A    between atoms: C_16  and  C_30
    6  A    between atoms: C_27  and  C_30
                            x       y       z     vdW  Elec       q    Type
                         _______ _______ _______ _____ _____    ______ ____

>  <TORSDO>
F 6

$$$$
=
 OpenBabel11052417163D

 30 33  0  0  0  0  0  0  0  0999 V2000
  187.1140  176.9410  143.4770 C   0  0  0  0  0  3  0  0  0  0  0  0
  185.3220  178.3570  144.3100 C   0  0  0  0  0  0  0  0  0  0  0  0
  187.9610  175.6680  147.3580 N   0  0  0  0  0  0  0  0  0  0  0  0
  188.1580  176.0320  143.6900 C   0  0  0  0  0  0  0  0  0  0  0  0
  188.9410  174.7610  147.6120 C   0  0  0  0  0  3  0  0  0  0  0  0
  184.5770  178.8550  145.3830 C   0  0  0  0  0  3  0  0  0  0  0  0
  185.0210  178.7810  143.0200 O   0  0  0  0  0  1  0  0  0  0  0  0
  187.6830  176.0970  146.0940 C   0  0  0  0  0  0  0  0  0  0  0  0
  184.8590  178.4450  146.6870 C   0  0  0  0  0  3  0  0  0  0  0  0
  186.3600  177.4410  144.5420 C   0  0  0  0  0  0  0  0  0  0  0  0
  188.4350  175.5950  145.0030 C   0  0  0  0  0  0  0  0  0  0  0  0
  189.6950  174.2330  146.5650 C   0  0  0  0  0  3  0  0  0  0  0  0
  189.4380  174.6510  145.2610 C   0  0  0  0  0  3  0  0  0  0  0  0
  185.8900  177.5330  146.9270 C   0  0  0  0  0  3  0  0  0  0  0  0
  186.6480  177.0220  145.8640 C   0  0  0  0  0  0  0  0  0  0  0  0
  191.0060  174.9310  141.7390 O   0  0  0  0  0  0  0  0  0  0  0  0
  190.3380  175.7300  142.4480 C   0  0  0  0  0  0  0  0  0  0  0  0
  188.9120  175.5560  142.5590 N   0  0  0  0  0  0  0  0  0  0  0  0
  192.1670  176.6710  143.8380 N   0  0  0  0  0  0  0  0  0  0  0  0
  190.6690  178.1310  143.0570 N   0  0  0  0  0  2  0  0  0  0  0  0
  191.0460  176.8390  143.1180 C   0  0  0  0  0  0  0  0  0  0  0  0
  192.5210  177.8720  144.2630 N   0  0  0  0  0  0  0  0  0  0  0  0
  191.6160  178.7500  143.7900 C   0  0  0  0  0  3  0  0  0  0  0  0
  188.1930  174.8920  141.4770 C   0  0  0  0  0  2  0  0  0  0  0  0
  187.6500  173.5550  141.9540 C   0  0  0  0  0  2  0  0  0  0  0  0
  188.6210  172.4420  141.6120 C   0  0  0  0  0  2  0  0  0  0  0  0
  189.4030  172.0860  142.7880 N   0  0  0  0  0  0  0  0  0  0  0  0
  191.2640  171.4640  141.4570 N   0  0  0  0  0  1  0  0  0  0  0  0
  190.6170  171.6370  142.7160 C   0  0  0  0  0  0  0  0  0  0  0  0
  191.3150  171.3110  143.9110 N   0  0  0  0  0  1  0  0  0  0  0  0
  1  4  2  0  0  0  0
  1 10  1  0  0  0  0
  2 10  2  0  0  0  0
  2  6  1  0  0  0  0
  3  5  1  0  0  0  0
  4 11  1  0  0  0  0
  6  9  2  0  0  0  0
  7  2  1  0  0  0  0
  8  3  2  0  0  0  0
  9 14  1  0  0  0  0
 10 15  1  0  0  0  0
 11 13  2  0  0  0  0
 11  8  1  0  0  0  0
 12  5  2  0  0  0  0
 13 12  1  0  0  0  0
 15  8  1  0  0  0  0
 15 14  2  0  0  0  0
 16 17  2  0  0  0  0
 17 18  1  0  0  0  0
 17 21  1  0  0  0  0
 18  4  1  0  0  0  0
 19 22  1  0  0  0  0
 20 21  1  0  0  0  0
 20 23  1  0  0  0  0
 21 19  2  0  0  0  0
 23 22  2  0  0  0  0
 24 25  1  0  0  0  0
 24 18  1  0  0  0  0
 26 25  1  0  0  0  0
 26 27  1  0  0  0  0
 28 29  1  0  0  0  0
 29 27  2  0  0  0  0
 29 30  1  0  0  0  0
M  END
>  <MODEL>
9

>  <REMARK>
 VINA RESULT:      -6.3      2.223      4.729
  Name = 
  6 active torsions:
  status: ('A' for Active; 'I' for Inactive)
    1  A    between atoms: C_4  and  N_13
    2  A    between atoms: N_7  and  C_16
    3  A    between atoms: C_8  and  C_12
    4  A    between atoms: N_13  and  C_27
    5  A    between atoms: C_16  and  C_30
    6  A    between atoms: C_27  and  C_30
                            x       y       z     vdW  Elec       q    Type
                         _______ _______ _______ _____ _____    ______ ____

>  <TORSDO>
F 6

$$$$
