=
 OpenBabel11052418053D

 28 31  0  0  1  0  0  0  0  0999 V2000
  187.4890  177.5080  146.6280 C   0  0  2  0  0  3  0  0  0  0  0  0
  183.4300  178.7850  145.7270 C   0  0  0  0  0  1  0  0  0  0  0  0
  187.2690  176.6970  142.8550 C   0  0  1  0  0  3  0  0  0  0  0  0
  185.5950  177.6940  144.9710 C   0  0  0  0  0  0  0  0  0  0  0  0
  187.9270  177.0800  144.1750 C   0  0  0  0  0  2  0  0  0  0  0  0
  185.2580  178.3860  147.3470 C   0  0  0  0  0  2  0  0  0  0  0  0
  185.2540  177.9350  143.6870 C   0  0  0  0  0  3  0  0  0  0  0  0
  184.5800  177.8540  146.0860 C   0  0  1  0  0  3  0  0  0  0  0  0
  186.2150  177.7580  142.5420 C   0  0  0  0  0  2  0  0  0  0  0  0
  186.4400  177.5090  147.7400 C   0  0  0  0  0  2  0  0  0  0  0  0
  186.9010  176.9870  145.3070 C   0  0  1  0  0  3  0  0  0  0  0  0
  188.2050  175.2870  140.9240 C   0  0  0  0  0  2  0  0  0  0  0  0
  190.6440  175.6380  142.4400 C   0  0  0  0  0  2  0  0  0  0  0  0
  189.0150  173.7150  142.7710 C   0  0  0  0  0  0  0  0  0  0  0  0
  188.3100  176.5910  141.7270 C   0  0  2  0  0  3  0  0  0  0  0  0
  190.1240  177.9270  142.4370 O   0  0  0  0  0  0  0  0  0  0  0  0
  190.0070  174.6560  143.4080 C   0  0  0  0  0  2  0  0  0  0  0  0
  189.7190  176.7970  142.2240 C   0  0  0  0  0  0  0  0  0  0  0  0
  188.8380  172.3860  143.4170 C   0  0  0  0  0  1  0  0  0  0  0  0
  188.1950  174.0230  141.7490 C   0  0  0  0  0  3  0  0  0  0  0  0
  188.7030  176.7250  147.0530 C   0  0  0  0  0  0  0  0  0  0  0  0
  188.7670  175.3440  146.8050 C   0  0  0  0  0  3  0  0  0  0  0  0
  190.9190  176.6220  148.0540 C   0  0  0  0  0  0  0  0  0  0  0  0
  189.8930  174.6090  147.1790 C   0  0  0  0  0  3  0  0  0  0  0  0
  189.7530  178.8390  147.9540 C   0  0  0  0  0  1  0  0  0  0  0  0
  189.7890  177.3680  147.6810 C   0  0  0  0  0  0  0  0  0  0  0  0
  192.0010  177.2370  148.6740 O   0  0  0  0  0  1  0  0  0  0  0  0
  190.9670  175.2480  147.8020 C   0  0  0  0  0  3  0  0  0  0  0  0
  1 21  1  1  0  0  0
  1 10  1  0  0  0  0
  3  9  1  6  0  0  0
  3  5  1  0  0  0  0
  4 11  1  0  0  0  0
  4  8  1  0  0  0  0
  6 10  1  0  0  0  0
  7  4  2  0  0  0  0
  8  2  1  6  0  0  0
  8  6  1  0  0  0  0
  9  7  1  0  0  0  0
 11  5  1  6  0  0  0
 11  1  1  0  0  0  0
 12 20  1  0  0  0  0
 13 17  1  0  0  0  0
 14 17  1  0  0  0  0
 14 19  1  0  0  0  0
 15 12  1  1  0  0  0
 15 18  1  0  0  0  0
 15  3  1  0  0  0  0
 18 16  2  0  0  0  0
 18 13  1  0  0  0  0
 20 14  2  0  0  0  0
 21 26  1  0  0  0  0
 22 21  2  0  0  0  0
 22 24  1  0  0  0  0
 23 27  1  0  0  0  0
 24 28  2  0  0  0  0
 26 25  1  0  0  0  0
 26 23  2  0  0  0  0
 28 23  1  0  0  0  0
M  END
>  <MODEL>
1

>  <REMARK>
 VINA RESULT:      -7.9      0.000      0.000
  Name = 
  2 active torsions:
  status: ('A' for Active; 'I' for Inactive)
    1  A    between atoms: C_1  and  C_2
    2  A    between atoms: C_10  and  C_13
                            x       y       z     vdW  Elec       q    Type
                         _______ _______ _______ _____ _____    ______ ____

>  <TORSDO>
F 2

$$$$
=
 OpenBabel11052418053D

 28 31  0  0  1  0  0  0  0  0999 V2000
  188.6920  176.5050  144.5880 C   0  0  2  0  0  3  0  0  0  0  0  0
  191.9780  175.6310  147.3000 C   0  0  0  0  0  1  0  0  0  0  0  0
  190.0270  173.1950  143.1040 C   0  0  1  0  0  3  0  0  0  0  0  0
  190.6570  175.0500  145.2100 C   0  0  0  0  0  0  0  0  0  0  0  0
  189.0020  174.2700  143.4480 C   0  0  0  0  0  2  0  0  0  0  0  0
  190.1660  177.1220  146.5150 C   0  0  0  0  0  2  0  0  0  0  0  0
  191.1380  173.7900  145.2710 C   0  0  0  0  0  3  0  0  0  0  0  0
  191.2550  176.1510  146.0650 C   0  0  1  0  0  3  0  0  0  0  0  0
  190.6020  172.6710  144.4190 C   0  0  0  0  0  2  0  0  0  0  0  0
  189.3850  177.6550  145.3200 C   0  0  0  0  0  2  0  0  0  0  0  0
  189.7100  175.4650  144.0930 C   0  0  1  0  0  3  0  0  0  0  0  0
  190.4060  171.2470  141.4730 C   0  0  0  0  0  2  0  0  0  0  0  0
  188.4900  172.7600  139.9210 C   0  0  0  0  0  2  0  0  0  0  0  0
  191.0090  173.0780  139.7910 C   0  0  0  0  0  0  0  0  0  0  0  0
  189.3870  172.0630  142.2820 C   0  0  2  0  0  3  0  0  0  0  0  0
  187.1750  172.7810  141.8640 O   0  0  0  0  0  0  0  0  0  0  0  0
  189.6480  173.7210  139.7060 C   0  0  0  0  0  2  0  0  0  0  0  0
  188.2760  172.5580  141.3890 C   0  0  0  0  0  0  0  0  0  0  0  0
  192.1040  173.7100  139.0070 C   0  0  0  0  0  1  0  0  0  0  0  0
  191.3400  172.0600  140.6090 C   0  0  0  0  0  3  0  0  0  0  0  0
  187.8380  177.0360  143.4670 C   0  0  0  0  0  0  0  0  0  0  0  0
  188.4260  177.3720  142.2370 C   0  0  0  0  0  3  0  0  0  0  0  0
  185.6640  177.6620  142.5680 C   0  0  0  0  0  0  0  0  0  0  0  0
  187.6440  177.8500  141.1850 C   0  0  0  0  0  3  0  0  0  0  0  0
  185.7880  176.8270  144.9290 C   0  0  0  0  0  1  0  0  0  0  0  0
  186.4450  177.1810  143.6320 C   0  0  0  0  0  0  0  0  0  0  0  0
  184.2890  177.8120  142.7100 O   0  0  0  0  0  1  0  0  0  0  0  0
  186.2650  177.9940  141.3510 C   0  0  0  0  0  3  0  0  0  0  0  0
  1 21  1  6  0  0  0
  1 10  1  0  0  0  0
  3  5  1  1  0  0  0
  3  9  1  0  0  0  0
  4  7  2  0  0  0  0
  4  8  1  0  0  0  0
  8  6  1  0  0  0  0
  8  2  1  1  0  0  0
  9  7  1  0  0  0  0
 10  6  1  0  0  0  0
 11  5  1  1  0  0  0
 11  1  1  0  0  0  0
 11  4  1  0  0  0  0
 13 18  1  0  0  0  0
 14 20  2  0  0  0  0
 15 12  1  6  0  0  0
 15  3  1  0  0  0  0
 17 14  1  0  0  0  0
 17 13  1  0  0  0  0
 18 16  2  0  0  0  0
 18 15  1  0  0  0  0
 19 14  1  0  0  0  0
 20 12  1  0  0  0  0
 21 26  1  0  0  0  0
 22 21  2  0  0  0  0
 23 27  1  0  0  0  0
 23 26  2  0  0  0  0
 24 28  2  0  0  0  0
 24 22  1  0  0  0  0
 26 25  1  0  0  0  0
 28 23  1  0  0  0  0
M  END
>  <MODEL>
2

>  <REMARK>
 VINA RESULT:      -7.5      2.721      5.743
  Name = 
  2 active torsions:
  status: ('A' for Active; 'I' for Inactive)
    1  A    between atoms: C_1  and  C_2
    2  A    between atoms: C_10  and  C_13
                            x       y       z     vdW  Elec       q    Type
                         _______ _______ _______ _____ _____    ______ ____

>  <TORSDO>
F 2

$$$$
=
 OpenBabel11052418053D

 28 31  0  0  1  0  0  0  0  0999 V2000
  188.4610  177.3730  146.2950 C   0  0  2  0  0  3  0  0  0  0  0  0
  184.2220  178.3270  146.4850 C   0  0  0  0  0  1  0  0  0  0  0  0
  187.1150  175.4180  143.2440 C   0  0  1  0  0  3  0  0  0  0  0  0
  186.1240  177.0400  145.4020 C   0  0  0  0  0  0  0  0  0  0  0  0
  188.1230  176.1930  144.0850 C   0  0  0  0  0  2  0  0  0  0  0  0
  186.5060  178.4470  147.4300 C   0  0  0  0  0  2  0  0  0  0  0  0
  185.3640  176.8670  144.3000 C   0  0  0  0  0  3  0  0  0  0  0  0
  185.5140  177.5490  146.6940 C   0  0  1  0  0  3  0  0  0  0  0  0
  185.9150  176.3330  143.0060 C   0  0  0  0  0  2  0  0  0  0  0  0
  187.8330  177.7300  147.6420 C   0  0  0  0  0  2  0  0  0  0  0  0
  187.5330  176.4670  145.4700 C   0  0  1  0  0  3  0  0  0  0  0  0
  187.7890  173.4280  141.7670 C   0  0  0  0  0  2  0  0  0  0  0  0
  190.3530  174.7610  141.9140 C   0  0  0  0  0  2  0  0  0  0  0  0
  189.5600  172.9940  143.5600 C   0  0  0  0  0  0  0  0  0  0  0  0
  187.7400  174.9560  141.9160 C   0  0  2  0  0  3  0  0  0  0  0  0
  189.1970  176.7040  141.2810 O   0  0  0  0  0  0  0  0  0  0  0  0
  190.3700  174.2480  143.3430 C   0  0  0  0  0  2  0  0  0  0  0  0
  189.1050  175.5560  141.6830 C   0  0  0  0  0  0  0  0  0  0  0  0
  189.9960  172.0920  144.6610 C   0  0  0  0  0  1  0  0  0  0  0  0
  188.4130  172.6880  142.9250 C   0  0  0  0  0  3  0  0  0  0  0  0
  189.8190  176.7560  146.4960 C   0  0  0  0  0  0  0  0  0  0  0  0
  190.0140  175.8080  147.5140 C   0  0  0  0  0  3  0  0  0  0  0  0
  192.1530  176.5040  145.8510 C   0  0  0  0  0  0  0  0  0  0  0  0
  191.2640  175.2160  147.7000 C   0  0  0  0  0  3  0  0  0  0  0  0
  190.7210  178.1070  144.5610 C   0  0  0  0  0  1  0  0  0  0  0  0
  190.8990  177.1050  145.6580 C   0  0  0  0  0  0  0  0  0  0  0  0
  193.2300  176.8340  145.0350 O   0  0  0  0  0  1  0  0  0  0  0  0
  192.3310  175.5640  146.8700 C   0  0  0  0  0  3  0  0  0  0  0  0
  1 21  1  1  0  0  0
  1 10  1  0  0  0  0
  3  9  1  6  0  0  0
  3  5  1  0  0  0  0
  4 11  1  0  0  0  0
  4  8  1  0  0  0  0
  6 10  1  0  0  0  0
  7  4  2  0  0  0  0
  8  2  1  6  0  0  0
  8  6  1  0  0  0  0
  9  7  1  0  0  0  0
 11  5  1  6  0  0  0
 11  1  1  0  0  0  0
 12 20  1  0  0  0  0
 13 17  1  0  0  0  0
 14 19  1  0  0  0  0
 15 12  1  1  0  0  0
 15  3  1  0  0  0  0
 16 18  2  0  0  0  0
 17 14  1  0  0  0  0
 18 13  1  0  0  0  0
 18 15  1  0  0  0  0
 20 14  2  0  0  0  0
 21 22  1  0  0  0  0
 22 24  2  0  0  0  0
 23 28  2  0  0  0  0
 25 26  1  0  0  0  0
 26 23  1  0  0  0  0
 26 21  2  0  0  0  0
 27 23  1  0  0  0  0
 28 24  1  0  0  0  0
M  END
>  <MODEL>
3

>  <REMARK>
 VINA RESULT:      -7.5      1.528      1.760
  Name = 
  2 active torsions:
  status: ('A' for Active; 'I' for Inactive)
    1  A    between atoms: C_1  and  C_2
    2  A    between atoms: C_10  and  C_13
                            x       y       z     vdW  Elec       q    Type
                         _______ _______ _______ _____ _____    ______ ____

>  <TORSDO>
F 2

$$$$
=
 OpenBabel11052418053D

 28 31  0  0  1  0  0  0  0  0999 V2000
  188.4370  177.0840  144.3340 C   0  0  2  0  0  3  0  0  0  0  0  0
  185.3620  178.3250  141.5190 C   0  0  0  0  0  1  0  0  0  0  0  0
  188.7810  174.3700  141.6030 C   0  0  1  0  0  3  0  0  0  0  0  0
  187.1310  176.6430  142.2190 C   0  0  0  0  0  0  0  0  0  0  0  0
  189.2260  175.3000  142.7250 C   0  0  0  0  0  2  0  0  0  0  0  0
  186.5420  178.5830  143.6790 C   0  0  0  0  0  2  0  0  0  0  0  0
  187.1830  176.1870  140.9500 C   0  0  0  0  0  3  0  0  0  0  0  0
  186.0150  177.5680  142.6670 C   0  0  1  0  0  3  0  0  0  0  0  0
  188.2500  175.2420  140.4660 C   0  0  0  0  0  2  0  0  0  0  0  0
  187.2360  177.8820  144.8410 C   0  0  0  0  0  2  0  0  0  0  0  0
  188.0090  176.0280  143.3010 C   0  0  1  0  0  3  0  0  0  0  0  0
  189.7420  171.9920  141.4600 C   0  0  0  0  0  2  0  0  0  0  0  0
  191.9610  173.2890  142.7880 C   0  0  0  0  0  2  0  0  0  0  0  0
  190.0090  172.1970  143.9960 C   0  0  0  0  0  0  0  0  0  0  0  0
  189.9420  173.4780  141.1290 C   0  0  2  0  0  3  0  0  0  0  0  0
  191.8300  174.8980  141.0840 O   0  0  0  0  0  0  0  0  0  0  0  0
  191.0390  173.2980  143.9950 C   0  0  0  0  0  2  0  0  0  0  0  0
  191.2800  173.9590  141.6340 C   0  0  0  0  0  0  0  0  0  0  0  0
  189.5250  171.7280  145.3220 C   0  0  0  0  0  1  0  0  0  0  0  0
  189.4060  171.6940  142.9010 C   0  0  0  0  0  3  0  0  0  0  0  0
  189.1850  176.4720  145.4880 C   0  0  0  0  0  0  0  0  0  0  0  0
  188.5180  175.6170  146.3810 C   0  0  0  0  0  3  0  0  0  0  0  0
  191.2420  176.1360  146.7460 C   0  0  0  0  0  0  0  0  0  0  0  0
  189.2040  175.0310  147.4460 C   0  0  0  0  0  3  0  0  0  0  0  0
  191.2990  177.6320  144.7350 C   0  0  0  0  0  1  0  0  0  0  0  0
  190.5590  176.7310  145.6720 C   0  0  0  0  0  0  0  0  0  0  0  0
  192.5970  176.3790  146.9450 O   0  0  0  0  0  1  0  0  0  0  0  0
  190.5630  175.2900  147.6270 C   0  0  0  0  0  3  0  0  0  0  0  0
  1 10  1  0  0  0  0
  1 21  1  1  0  0  0
  3  9  1  6  0  0  0
  3  5  1  0  0  0  0
  4  8  1  0  0  0  0
  4 11  1  0  0  0  0
  6 10  1  0  0  0  0
  7  4  2  0  0  0  0
  8  2  1  6  0  0  0
  8  6  1  0  0  0  0
  9  7  1  0  0  0  0
 11  5  1  6  0  0  0
 11  1  1  0  0  0  0
 12 20  1  0  0  0  0
 13 17  1  0  0  0  0
 14 19  1  0  0  0  0
 15 12  1  1  0  0  0
 15  3  1  0  0  0  0
 15 18  1  0  0  0  0
 16 18  2  0  0  0  0
 17 14  1  0  0  0  0
 18 13  1  0  0  0  0
 20 14  2  0  0  0  0
 21 26  2  0  0  0  0
 21 22  1  0  0  0  0
 22 24  2  0  0  0  0
 23 27  1  0  0  0  0
 23 28  2  0  0  0  0
 24 28  1  0  0  0  0
 25 26  1  0  0  0  0
 26 23  1  0  0  0  0
M  END
>  <MODEL>
4

>  <REMARK>
 VINA RESULT:      -7.5      1.904      2.910
  Name = 
  2 active torsions:
  status: ('A' for Active; 'I' for Inactive)
    1  A    between atoms: C_1  and  C_2
    2  A    between atoms: C_10  and  C_13
                            x       y       z     vdW  Elec       q    Type
                         _______ _______ _______ _____ _____    ______ ____

>  <TORSDO>
F 2

$$$$
=
 OpenBabel11052418053D

 28 31  0  0  1  0  0  0  0  0999 V2000
  189.8860  173.8010  143.2550 C   0  0  2  0  0  3  0  0  0  0  0  0
  191.4380  170.9220  140.3880 C   0  0  0  0  0  1  0  0  0  0  0  0
  193.6230  174.7830  143.1570 C   0  0  1  0  0  3  0  0  0  0  0  0
  191.8610  172.8020  142.0430 C   0  0  0  0  0  0  0  0  0  0  0  0
  192.1210  174.9810  143.3210 C   0  0  0  0  0  2  0  0  0  0  0  0
  189.5830  171.8160  141.7600 C   0  0  0  0  0  2  0  0  0  0  0  0
  193.0430  173.0500  141.4410 C   0  0  0  0  0  3  0  0  0  0  0  0
  191.0840  171.5360  141.7350 C   0  0  1  0  0  3  0  0  0  0  0  0
  193.8680  174.2730  141.7370 C   0  0  0  0  0  2  0  0  0  0  0  0
  189.1720  172.4610  143.0780 C   0  0  0  0  0  2  0  0  0  0  0  0
  191.4130  173.6260  143.2420 C   0  0  1  0  0  3  0  0  0  0  0  0
  195.9130  175.9250  143.3810 C   0  0  0  0  0  2  0  0  0  0  0  0
  194.7960  176.6600  145.9470 C   0  0  0  0  0  2  0  0  0  0  0  0
  196.1350  174.5410  145.5210 C   0  0  0  0  0  0  0  0  0  0  0  0
  194.3870  176.0920  143.4230 C   0  0  2  0  0  3  0  0  0  0  0  0
  192.9250  177.4000  144.7390 O   0  0  0  0  0  0  0  0  0  0  0  0
  195.0200  175.1980  146.2950 C   0  0  0  0  0  2  0  0  0  0  0  0
  193.9600  176.7560  144.7080 C   0  0  0  0  0  0  0  0  0  0  0  0
  196.8370  173.4080  146.1820 C   0  0  0  0  0  1  0  0  0  0  0  0
  196.4610  174.8140  144.2430 C   0  0  0  0  0  3  0  0  0  0  0  0
  189.4070  174.4890  144.5060 C   0  0  0  0  0  0  0  0  0  0  0  0
  189.6870  173.9300  145.7630 C   0  0  0  0  0  3  0  0  0  0  0  0
  188.2740  176.3390  145.6100 C   0  0  0  0  0  0  0  0  0  0  0  0
  189.2640  174.5660  146.9310 C   0  0  0  0  0  3  0  0  0  0  0  0
  188.3870  176.3280  143.1060 C   0  0  0  0  0  1  0  0  0  0  0  0
  188.6960  175.7050  144.4300 C   0  0  0  0  0  0  0  0  0  0  0  0
  187.5720  177.5380  145.5570 O   0  0  0  0  0  1  0  0  0  0  0  0
  188.5590  175.7680  146.8540 C   0  0  0  0  0  3  0  0  0  0  0  0
  1 21  1  1  0  0  0
  3  9  1  6  0  0  0
  3  5  1  0  0  0  0
  3 15  1  0  0  0  0
  4 11  1  0  0  0  0
  6 10  1  0  0  0  0
  7  9  1  0  0  0  0
  7  4  2  0  0  0  0
  8  2  1  6  0  0  0
  8  6  1  0  0  0  0
  8  4  1  0  0  0  0
 10  1  1  0  0  0  0
 11  1  1  0  0  0  0
 11  5  1  6  0  0  0
 12 20  1  0  0  0  0
 13 17  1  0  0  0  0
 14 19  1  0  0  0  0
 14 17  1  0  0  0  0
 15 12  1  1  0  0  0
 15 18  1  0  0  0  0
 18 16  2  0  0  0  0
 18 13  1  0  0  0  0
 20 14  2  0  0  0  0
 21 22  1  0  0  0  0
 22 24  2  0  0  0  0
 23 28  2  0  0  0  0
 25 26  1  0  0  0  0
 26 21  2  0  0  0  0
 26 23  1  0  0  0  0
 27 23  1  0  0  0  0
 28 24  1  0  0  0  0
M  END
>  <MODEL>
5

>  <REMARK>
 VINA RESULT:      -7.3      3.454      6.804
  Name = 
  2 active torsions:
  status: ('A' for Active; 'I' for Inactive)
    1  A    between atoms: C_1  and  C_2
    2  A    between atoms: C_10  and  C_13
                            x       y       z     vdW  Elec       q    Type
                         _______ _______ _______ _____ _____    ______ ____

>  <TORSDO>
F 2

$$$$
=
 OpenBabel11052418053D

 28 31  0  0  1  0  0  0  0  0999 V2000
  192.1990  175.4780  145.7720 C   0  0  2  0  0  3  0  0  0  0  0  0
  196.3400  174.1660  145.9880 C   0  0  0  0  0  1  0  0  0  0  0  0
  192.0950  172.3050  143.5660 C   0  0  1  0  0  3  0  0  0  0  0  0
  194.0060  173.8810  145.0290 C   0  0  0  0  0  0  0  0  0  0  0  0
  191.5700  173.3760  144.5160 C   0  0  0  0  0  2  0  0  0  0  0  0
  194.5660  175.8100  146.5130 C   0  0  0  0  0  2  0  0  0  0  0  0
  194.3050  172.6040  144.7110 C   0  0  0  0  0  3  0  0  0  0  0  0
  195.0930  174.8520  145.4470 C   0  0  1  0  0  3  0  0  0  0  0  0
  193.2680  171.6120  144.2580 C   0  0  0  0  0  2  0  0  0  0  0  0
  193.2970  176.5070  146.0380 C   0  0  0  0  0  2  0  0  0  0  0  0
  192.6350  174.4590  144.7070 C   0  0  1  0  0  3  0  0  0  0  0  0
  191.2180  170.6150  141.8420 C   0  0  0  0  0  2  0  0  0  0  0  0
  188.8930  172.3290  142.0080 C   0  0  0  0  0  2  0  0  0  0  0  0
  190.8120  172.6720  140.3770 C   0  0  0  0  0  0  0  0  0  0  0  0
  190.9890  171.3010  143.1970 C   0  0  2  0  0  3  0  0  0  0  0  0
  189.0630  172.0630  144.3340 O   0  0  0  0  0  0  0  0  0  0  0  0
  189.7490  173.3150  141.2320 C   0  0  0  0  0  2  0  0  0  0  0  0
  189.6120  171.9160  143.2550 C   0  0  0  0  0  0  0  0  0  0  0  0
  191.2400  173.4160  139.1620 C   0  0  0  0  0  1  0  0  0  0  0  0
  191.4860  171.5480  140.6870 C   0  0  0  0  0  3  0  0  0  0  0  0
  190.9130  176.1680  145.4010 C   0  0  0  0  0  0  0  0  0  0  0  0
  190.8870  177.0660  144.3220 C   0  0  0  0  0  3  0  0  0  0  0  0
  188.5320  176.5450  145.7380 C   0  0  0  0  0  0  0  0  0  0  0  0
  189.6980  177.7000  143.9560 C   0  0  0  0  0  3  0  0  0  0  0  0
  189.7180  174.9480  147.2630 C   0  0  0  0  0  1  0  0  0  0  0  0
  189.7240  175.9050  146.1130 C   0  0  0  0  0  0  0  0  0  0  0  0
  187.3490  176.3000  146.4280 O   0  0  0  0  0  1  0  0  0  0  0  0
  188.5230  177.4390  144.6640 C   0  0  0  0  0  3  0  0  0  0  0  0
  1 21  1  6  0  0  0
  1 10  1  0  0  0  0
  3  9  1  1  0  0  0
  3  5  1  0  0  0  0
  4  8  1  0  0  0  0
  7  4  2  0  0  0  0
  8  2  1  1  0  0  0
  8  6  1  0  0  0  0
  9  7  1  0  0  0  0
 10  6  1  0  0  0  0
 11  5  1  1  0  0  0
 11  4  1  0  0  0  0
 11  1  1  0  0  0  0
 13 18  1  0  0  0  0
 14 20  2  0  0  0  0
 14 17  1  0  0  0  0
 15 12  1  6  0  0  0
 15 18  1  0  0  0  0
 15  3  1  0  0  0  0
 17 13  1  0  0  0  0
 18 16  2  0  0  0  0
 19 14  1  0  0  0  0
 20 12  1  0  0  0  0
 21 26  1  0  0  0  0
 22 21  2  0  0  0  0
 23 26  2  0  0  0  0
 23 27  1  0  0  0  0
 24 22  1  0  0  0  0
 24 28  2  0  0  0  0
 26 25  1  0  0  0  0
 28 23  1  0  0  0  0
M  END
>  <MODEL>
6

>  <REMARK>
 VINA RESULT:      -7.2      3.400      6.560
  Name = 
  2 active torsions:
  status: ('A' for Active; 'I' for Inactive)
    1  A    between atoms: C_1  and  C_2
    2  A    between atoms: C_10  and  C_13
                            x       y       z     vdW  Elec       q    Type
                         _______ _______ _______ _____ _____    ______ ____

>  <TORSDO>
F 2

$$$$
=
 OpenBabel11052418053D

 28 31  0  0  1  0  0  0  0  0999 V2000
  191.3930  175.9340  144.8650 C   0  0  2  0  0  3  0  0  0  0  0  0
  195.5840  175.4000  143.8280 C   0  0  0  0  0  1  0  0  0  0  0  0
  191.1100  173.6850  141.7340 C   0  0  1  0  0  3  0  0  0  0  0  0
  193.1330  175.0220  143.2800 C   0  0  0  0  0  0  0  0  0  0  0  0
  190.7130  174.2750  143.0820 C   0  0  0  0  0  2  0  0  0  0  0  0
  193.8200  176.4340  145.2230 C   0  0  0  0  0  2  0  0  0  0  0  0
  193.4830  173.9940  142.4790 C   0  0  0  0  0  3  0  0  0  0  0  0
  194.1780  175.9860  143.8070 C   0  0  1  0  0  3  0  0  0  0  0  0
  192.4800  173.0300  141.9040 C   0  0  0  0  0  2  0  0  0  0  0  0
  192.4080  177.0040  145.2710 C   0  0  0  0  0  2  0  0  0  0  0  0
  191.6710  175.4130  143.4450 C   0  0  1  0  0  3  0  0  0  0  0  0
  189.3570  173.1040  139.9490 C   0  0  0  0  0  2  0  0  0  0  0  0
  187.6760  172.9250  142.2980 C   0  0  0  0  0  2  0  0  0  0  0  0
  188.0320  175.0500  140.9490 C   0  0  0  0  0  0  0  0  0  0  0  0
  190.0610  172.6710  141.2440 C   0  0  2  0  0  3  0  0  0  0  0  0
  189.3460  171.5360  143.1880 O   0  0  0  0  0  0  0  0  0  0  0  0
  187.7820  174.4400  142.3050 C   0  0  0  0  0  2  0  0  0  0  0  0
  189.0500  172.3280  142.3090 C   0  0  0  0  0  0  0  0  0  0  0  0
  187.5320  176.4340  140.7290 C   0  0  0  0  0  1  0  0  0  0  0  0
  188.7720  174.4950  139.9700 C   0  0  0  0  0  3  0  0  0  0  0  0
  189.9900  176.4610  145.0080 C   0  0  0  0  0  0  0  0  0  0  0  0
  189.4890  177.3810  144.0730 C   0  0  0  0  0  3  0  0  0  0  0  0
  187.8510  176.5140  146.1680 C   0  0  0  0  0  0  0  0  0  0  0  0
  188.1840  177.8650  144.1850 C   0  0  0  0  0  3  0  0  0  0  0  0
  189.6660  175.0390  147.0710 C   0  0  0  0  0  1  0  0  0  0  0  0
  189.1630  176.0230  146.0630 C   0  0  0  0  0  0  0  0  0  0  0  0
  187.0190  176.0940  147.2010 O   0  0  0  0  0  1  0  0  0  0  0  0
  187.3670  177.4310  145.2310 C   0  0  0  0  0  3  0  0  0  0  0  0
  1 21  1  6  0  0  0
  1 10  1  0  0  0  0
  3  9  1  1  0  0  0
  3  5  1  0  0  0  0
  4 11  1  0  0  0  0
  4  8  1  0  0  0  0
  6 10  1  0  0  0  0
  7  4  2  0  0  0  0
  8  2  1  1  0  0  0
  8  6  1  0  0  0  0
  9  7  1  0  0  0  0
 11  5  1  1  0  0  0
 11  1  1  0  0  0  0
 12 20  1  0  0  0  0
 13 17  1  0  0  0  0
 13 18  1  0  0  0  0
 14 17  1  0  0  0  0
 15 12  1  6  0  0  0
 15  3  1  0  0  0  0
 15 18  1  0  0  0  0
 18 16  2  0  0  0  0
 19 14  1  0  0  0  0
 20 14  2  0  0  0  0
 21 26  1  0  0  0  0
 22 24  1  0  0  0  0
 22 21  2  0  0  0  0
 23 27  1  0  0  0  0
 24 28  2  0  0  0  0
 26 23  2  0  0  0  0
 26 25  1  0  0  0  0
 28 23  1  0  0  0  0
M  END
>  <MODEL>
7

>  <REMARK>
 VINA RESULT:      -7.1      2.726      5.868
  Name = 
  2 active torsions:
  status: ('A' for Active; 'I' for Inactive)
    1  A    between atoms: C_1  and  C_2
    2  A    between atoms: C_10  and  C_13
                            x       y       z     vdW  Elec       q    Type
                         _______ _______ _______ _____ _____    ______ ____

>  <TORSDO>
F 2

$$$$
=
 OpenBabel11052418053D

 28 31  0  0  1  0  0  0  0  0999 V2000
  188.7880  174.7410  143.0950 C   0  0  2  0  0  3  0  0  0  0  0  0
  186.3090  178.1340  144.2190 C   0  0  0  0  0  1  0  0  0  0  0  0
  191.2530  176.7870  145.2600 C   0  0  1  0  0  3  0  0  0  0  0  0
  188.5720  176.9820  144.2380 C   0  0  0  0  0  0  0  0  0  0  0  0
  190.6310  175.5470  144.6280 C   0  0  0  0  0  2  0  0  0  0  0  0
  186.6510  176.0360  142.9520 C   0  0  0  0  0  2  0  0  0  0  0  0
  188.9320  177.7320  145.3000 C   0  0  0  0  0  3  0  0  0  0  0  0
  187.3280  177.3160  143.4370 C   0  0  1  0  0  3  0  0  0  0  0  0
  190.1740  177.4620  146.1050 C   0  0  0  0  0  2  0  0  0  0  0  0
  187.6330  175.1590  142.1850 C   0  0  0  0  0  2  0  0  0  0  0  0
  189.5380  175.9670  143.6410 C   0  0  1  0  0  3  0  0  0  0  0  0
  193.8130  176.8350  145.4660 C   0  0  0  0  0  2  0  0  0  0  0  0
  193.3970  173.9870  145.7620 C   0  0  0  0  0  2  0  0  0  0  0  0
  193.7690  175.1570  143.5360 C   0  0  0  0  0  0  0  0  0  0  0  0
  192.4820  176.4180  146.1090 C   0  0  2  0  0  3  0  0  0  0  0  0
  191.8060  174.5530  147.3930 O   0  0  0  0  0  0  0  0  0  0  0  0
  193.0940  174.0280  144.2740 C   0  0  0  0  0  2  0  0  0  0  0  0
  192.5080  174.9560  146.4800 C   0  0  0  0  0  0  0  0  0  0  0  0
  194.0700  174.9360  142.0960 C   0  0  0  0  0  1  0  0  0  0  0  0
  194.0070  176.3840  144.0390 C   0  0  0  0  0  3  0  0  0  0  0  0
  189.7080  173.7930  142.3730 C   0  0  0  0  0  0  0  0  0  0  0  0
  190.2970  174.1780  141.1580 C   0  0  0  0  0  3  0  0  0  0  0  0
  190.8770  171.6630  142.2350 C   0  0  0  0  0  0  0  0  0  0  0  0
  191.1640  173.3140  140.4870 C   0  0  0  0  0  3  0  0  0  0  0  0
  189.3960  172.0890  144.2120 C   0  0  0  0  0  1  0  0  0  0  0  0
  190.0030  172.5250  142.9170 C   0  0  0  0  0  0  0  0  0  0  0  0
  191.1810  170.4080  142.7540 O   0  0  0  0  0  1  0  0  0  0  0  0
  191.4540  172.0590  141.0260 C   0  0  0  0  0  3  0  0  0  0  0  0
  1 21  1  6  0  0  0
  1 11  1  0  0  0  0
  3  5  1  1  0  0  0
  3  9  1  0  0  0  0
  3 15  1  0  0  0  0
  4  7  2  0  0  0  0
  6  8  1  0  0  0  0
  7  9  1  0  0  0  0
  8  2  1  1  0  0  0
  8  4  1  0  0  0  0
 10  6  1  0  0  0  0
 10  1  1  0  0  0  0
 11  4  1  0  0  0  0
 11  5  1  1  0  0  0
 13 18  1  0  0  0  0
 14 20  2  0  0  0  0
 14 17  1  0  0  0  0
 15 12  1  6  0  0  0
 15 18  1  0  0  0  0
 17 13  1  0  0  0  0
 18 16  2  0  0  0  0
 19 14  1  0  0  0  0
 20 12  1  0  0  0  0
 21 26  1  0  0  0  0
 22 21  2  0  0  0  0
 23 27  1  0  0  0  0
 23 26  2  0  0  0  0
 24 28  2  0  0  0  0
 24 22  1  0  0  0  0
 26 25  1  0  0  0  0
 28 23  1  0  0  0  0
M  END
>  <MODEL>
8

>  <REMARK>
 VINA RESULT:      -7.0      2.747      5.744
  Name = 
  2 active torsions:
  status: ('A' for Active; 'I' for Inactive)
    1  A    between atoms: C_1  and  C_2
    2  A    between atoms: C_10  and  C_13
                            x       y       z     vdW  Elec       q    Type
                         _______ _______ _______ _____ _____    ______ ____

>  <TORSDO>
F 2

$$$$
=
 OpenBabel11052418053D

 28 31  0  0  1  0  0  0  0  0999 V2000
  188.1390  175.6840  142.4920 C   0  0  2  0  0  3  0  0  0  0  0  0
  185.3940  179.0250  142.9610 C   0  0  0  0  0  1  0  0  0  0  0  0
  189.1630  177.0130  145.9750 C   0  0  1  0  0  3  0  0  0  0  0  0
  187.3540  177.6700  143.8380 C   0  0  0  0  0  0  0  0  0  0  0  0
  188.9560  175.9880  144.8660 C   0  0  0  0  0  2  0  0  0  0  0  0
  186.3480  177.1890  141.6030 C   0  0  0  0  0  2  0  0  0  0  0  0
  187.1250  178.1600  145.0740 C   0  0  0  0  0  3  0  0  0  0  0  0
  186.6760  178.2760  142.6240 C   0  0  1  0  0  3  0  0  0  0  0  0
  187.7980  177.6160  146.3050 C   0  0  0  0  0  2  0  0  0  0  0  0
  187.5910  176.3840  141.2480 C   0  0  0  0  0  2  0  0  0  0  0  0
  188.5000  176.6990  143.5890 C   0  0  1  0  0  3  0  0  0  0  0  0
  191.1580  176.9830  147.5920 C   0  0  0  0  0  2  0  0  0  0  0  0
  191.2300  174.2170  146.7480 C   0  0  0  0  0  2  0  0  0  0  0  0
  192.4760  176.1020  145.5840 C   0  0  0  0  0  0  0  0  0  0  0  0
  189.8040  176.3650  147.2150 C   0  0  2  0  0  3  0  0  0  0  0  0
  188.9430  174.1660  147.2750 O   0  0  0  0  0  0  0  0  0  0  0  0
  191.7560  174.7850  145.4410 C   0  0  0  0  0  2  0  0  0  0  0  0
  189.9230  174.8670  147.0850 C   0  0  0  0  0  0  0  0  0  0  0  0
  193.5270  176.4090  144.5770 C   0  0  0  0  0  1  0  0  0  0  0  0
  192.1610  177.0690  146.4670 C   0  0  0  0  0  3  0  0  0  0  0  0
  189.3070  174.8070  142.1290 C   0  0  0  0  0  0  0  0  0  0  0  0
  190.5940  175.3600  142.0280 C   0  0  0  0  0  3  0  0  0  0  0  0
  190.2330  172.6210  141.5880 C   0  0  0  0  0  0  0  0  0  0  0  0
  191.6880  174.5540  141.7080 C   0  0  0  0  0  3  0  0  0  0  0  0
  187.7700  172.8050  142.0150 C   0  0  0  0  0  1  0  0  0  0  0  0
  189.1270  173.4250  141.9080 C   0  0  0  0  0  0  0  0  0  0  0  0
  190.0760  171.2570  141.3670 O   0  0  0  0  0  1  0  0  0  0  0  0
  191.5070  173.1880  141.4890 C   0  0  0  0  0  3  0  0  0  0  0  0
  1 21  1  6  0  0  0
  1 11  1  0  0  0  0
  3  5  1  6  0  0  0
  3  9  1  0  0  0  0
  3 15  1  0  0  0  0
  4  7  2  0  0  0  0
  6  8  1  0  0  0  0
  7  9  1  0  0  0  0
  8  2  1  1  0  0  0
  8  4  1  0  0  0  0
 10  6  1  0  0  0  0
 10  1  1  0  0  0  0
 11  4  1  0  0  0  0
 11  5  1  1  0  0  0
 13 18  1  0  0  0  0
 14 20  2  0  0  0  0
 15 12  1  6  0  0  0
 17 14  1  0  0  0  0
 17 13  1  0  0  0  0
 18 15  1  0  0  0  0
 18 16  2  0  0  0  0
 19 14  1  0  0  0  0
 20 12  1  0  0  0  0
 22 21  1  0  0  0  0
 23 26  1  0  0  0  0
 24 22  2  0  0  0  0
 26 25  1  0  0  0  0
 26 21  2  0  0  0  0
 27 23  1  0  0  0  0
 28 23  2  0  0  0  0
 28 24  1  0  0  0  0
M  END
>  <MODEL>
9

>  <REMARK>
 VINA RESULT:      -7.0      2.192      5.609
  Name = 
  2 active torsions:
  status: ('A' for Active; 'I' for Inactive)
    1  A    between atoms: C_1  and  C_2
    2  A    between atoms: C_10  and  C_13
                            x       y       z     vdW  Elec       q    Type
                         _______ _______ _______ _____ _____    ______ ____

>  <TORSDO>
F 2

$$$$
