=
 OpenBabel11052419483D

 55 59  0  0  1  0  0  0  0  0999 V2000
  189.8360  171.6800  143.1210 O   0  0  0  0  0  0  0  0  0  0  0  0
  189.7640  172.7950  141.0210 C   0  0  1  0  0  3  0  0  0  0  0  0
  190.4240  170.8280  142.1760 C   0  0  0  0  0  2  0  0  0  0  0  0
  189.1030  172.6140  142.3700 C   0  0  2  0  0  3  0  0  0  0  0  0
  190.6990  171.6240  140.9210 C   0  0  0  0  0  2  0  0  0  0  0  0
  188.7150  172.7270  139.9270 C   0  0  0  0  0  2  0  0  0  0  0  0
  189.0600  173.7080  138.8220 C   0  0  0  0  0  2  0  0  0  0  0  0
  189.1600  172.9860  137.4930 C   0  0  0  0  0  2  0  0  0  0  0  0
  189.2820  174.1850  136.1300 S   0  0  0  0  0  0  0  0  0  0  0  0
  190.7330  173.4820  135.5340 O   0  0  0  0  0  0  0  0  0  0  0  0
  191.7500  174.0600  136.2980 C   0  0  0  0  0  2  0  0  0  0  0  0
  192.6740  172.3470  137.6580 O   0  0  0  0  0  1  0  0  0  0  0  0
  192.8960  173.0730  136.4880 C   0  0  0  0  0  0  0  0  0  0  0  0
  192.9410  172.1830  135.4150 O   0  0  0  0  0  1  0  0  0  0  0  0
  194.2390  173.7990  136.6370 C   0  0  0  0  0  2  0  0  0  0  0  0
  195.4590  172.9920  137.1280 C   0  0  2  0  0  3  0  0  0  0  0  0
  195.3460  171.6250  136.8640 O   0  0  0  0  0  1  0  0  0  0  0  0
  196.0480  173.2940  138.5390 C   0  0  2  0  0  0  0  0  0  0  0  0
  196.4620  174.0340  141.2870 O   0  0  0  0  0  1  0  0  0  0  0  0
  194.2240  173.7930  140.3050 C   0  0  1  0  0  3  0  0  0  0  0  0
  195.1610  176.1450  141.0660 C   0  0  0  0  0  1  0  0  0  0  0  0
  195.3980  174.6940  140.6710 C   0  0  1  0  0  0  0  0  0  0  0  0
  192.8940  174.5270  140.2860 C   0  0  0  0  0  1  0  0  0  0  0  0
  195.1320  174.3600  139.2050 C   0  0  1  0  0  3  0  0  0  0  0  0
  197.4250  175.3290  137.7730 C   0  0  0  0  0  2  0  0  0  0  0  0
  197.9270  174.1420  136.9780 C   0  0  0  0  0  2  0  0  0  0  0  0
  197.4560  173.9510  138.4120 C   0  0  0  0  0  3  0  0  0  0  0  0
  196.0640  172.1090  139.3320 O   0  0  0  0  0  0  0  0  0  0  0  0
  197.3060  171.6600  139.3940 O   0  0  0  0  0  1  0  0  0  0  0  0
  188.9680  173.9490  143.1080 C   0  0  2  0  0  3  0  0  0  0  0  0
  189.4200  175.1370  142.2610 C   0  0  0  0  0  2  0  0  0  0  0  0
  188.5690  177.2760  141.6690 O   0  0  0  0  0  1  0  0  0  0  0  0
  188.2310  175.9240  141.7340 C   0  0  2  0  0  3  0  0  0  0  0  0
  187.0370  175.7370  142.6550 C   0  0  0  0  0  2  0  0  0  0  0  0
  186.0820  176.9070  142.5220 C   0  0  0  0  0  1  0  0  0  0  0  0
  189.7660  173.8980  144.3990 C   0  0  0  0  0  2  0  0  0  0  0  0
  193.8880  172.2450  144.0620 C   0  0  0  0  0  1  0  0  0  0  0  0
  193.7140  174.3400  145.6000 C   0  0  2  0  0  3  0  0  0  0  0  0
  192.9990  173.3110  144.6780 C   0  0  1  0  0  3  0  0  0  0  0  0
  191.3600  175.3470  145.6960 C   0  0  2  0  0  3  0  0  0  0  0  0
  192.8690  175.6040  145.8200 C   0  0  0  0  0  2  0  0  0  0  0  0
  192.1430  174.0060  143.6290 C   0  0  0  0  0  2  0  0  0  0  0  0
  191.0000  174.7860  144.2980 C   0  0  1  0  0  3  0  0  0  0  0  0
  189.3210  176.3670  146.7780 C   0  0  0  0  0  2  0  0  0  0  0  0
  190.1100  177.3320  144.7330 C   0  0  0  0  0  2  0  0  0  0  0  0
  188.8140  177.9230  145.0210 N   0  0  0  0  0  2  0  0  0  0  0  0
  188.2060  177.0480  146.0140 C   0  0  2  0  0  3  0  0  0  0  0  0
  190.5890  176.6430  145.9960 C   0  0  2  0  0  3  0  0  0  0  0  0
  187.3470  177.8590  146.9710 C   0  0  0  0  0  2  0  0  0  0  0  0
  185.9900  177.9760  146.4580 N   0  0  0  0  0  0  0  0  0  0  0  0
  185.1570  178.3750  147.5770 C   0  0  0  0  0  1  0  0  0  0  0  0
  185.5610  176.6410  146.0800 C   0  0  0  0  0  1  0  0  0  0  0  0
  195.0680  176.1700  144.8830 C   0  0  0  0  0  1  0  0  0  0  0  0
  195.0660  174.7490  145.1880 N   0  0  0  0  0  0  0  0  0  0  0  0
  195.9470  174.5320  146.1960 O   0  0  0  0  0  1  0  0  0  0  0  0
  2  6  1  6  0  0  0
  2  4  1  0  0  0  0
  3  1  1  0  0  0  0
  4 30  1  1  0  0  0
  4  1  1  0  0  0  0
  5  2  1  0  0  0  0
  5  3  1  0  0  0  0
  7  6  1  0  0  0  0
  8  7  1  0  0  0  0
  9  8  1  0  0  0  0
 10  9  1  0  0  0  0
 10 11  1  0  0  0  0
 11 13  1  0  0  0  0
 13 15  1  0  0  0  0
 13 12  1  0  0  0  0
 14 13  1  0  0  0  0
 15 16  1  0  0  0  0
 16 17  1  1  0  0  0
 16 18  1  0  0  0  0
 18 28  1  1  0  0  0
 20 23  1  6  0  0  0
 20 22  1  0  0  0  0
 22 21  1  1  0  0  0
 22 19  1  0  0  0  0
 24 18  1  1  0  0  0
 24 20  1  0  0  0  0
 24 22  1  0  0  0  0
 25 27  1  0  0  0  0
 26 25  1  0  0  0  0
 26 27  1  0  0  0  0
 27 18  1  0  0  0  0
 28 29  1  0  0  0  0
 30 31  1  6  0  0  0
 30 36  1  0  0  0  0
 33 32  1  1  0  0  0
 33 31  1  0  0  0  0
 33 34  1  0  0  0  0
 35 34  1  0  0  0  0
 38 54  1  6  0  0  0
 38 41  1  0  0  0  0
 39 37  1  6  0  0  0
 39 38  1  0  0  0  0
 40 41  1  6  0  0  0
 40 48  1  0  0  0  0
 42 43  1  0  0  0  0
 42 39  1  0  0  0  0
 43 36  1  1  0  0  0
 43 40  1  0  0  0  0
 45 46  1  0  0  0  0
 46 47  1  0  0  0  0
 47 44  1  0  0  0  0
 47 49  1  1  0  0  0
 48 45  1  6  0  0  0
 48 44  1  0  0  0  0
 50 49  1  0  0  0  0
 50 51  1  0  0  0  0
 52 50  1  0  0  0  0
 53 54  1  0  0  0  0
 54 55  1  0  0  0  0
M  END
>  <MODEL>
1

>  <REMARK>
 VINA RESULT:      -5.2      0.000      0.000
  Name = 
  23 active torsions:
  status: ('A' for Active; 'I' for Inactive)
    1  A    between atoms: C_1  and  C_21
    2  A    between atoms: C_1  and  O_29
    3  A    between atoms: C_1  and  C_38
    4  A    between atoms: C_1  and  C_53
    5  A    between atoms: C_2  and  C_19
    6  A    between atoms: C_2  and  C_28
    7  A    between atoms: C_2  and  C_44
    8  A    between atoms: C_4  and  C_40
    9  A    between atoms: C_8  and  C_20
   10  A    between atoms: C_8  and  O_43
   11  A    between atoms: N_10  and  C_32
   12  A    between atoms: C_16  and  N_17
   13  A    between atoms: C_19  and  C_40
   14  A    between atoms: C_20  and  C_42
   15  A    between atoms: C_21  and  C_42
   16  A    between atoms: C_27  and  C_31
   17  A    between atoms: C_28  and  C_49
   18  A    between atoms: C_31  and  C_54
   19  A    between atoms: C_32  and  C_48
   20  A    between atoms: C_33  and  C_52
   21  A    between atoms: S_35  and  O_43
   22  A    between atoms: S_35  and  C_51
   23  A    between atoms: C_51  and  C_54
                            x       y       z     vdW  Elec       q    Type
                         _______ _______ _______ _____ _____    ______ ____

>  <TORSDO>
F 23

$$$$
=
 OpenBabel11052419483D

 55 59  0  0  1  0  0  0  0  0999 V2000
  189.7640  172.9390  138.0070 O   0  0  0  0  0  0  0  0  0  0  0  0
  189.1710  173.7760  140.1530 C   0  0  1  0  0  3  0  0  0  0  0  0
  188.5360  173.6000  137.8720 C   0  0  0  0  0  2  0  0  0  0  0  0
  189.9050  172.6990  139.3840 C   0  0  2  0  0  3  0  0  0  0  0  0
  188.2960  174.4210  139.1170 C   0  0  0  0  0  2  0  0  0  0  0  0
  188.3220  173.1380  141.2380 C   0  0  0  0  0  2  0  0  0  0  0  0
  188.9250  173.4280  142.5990 C   0  0  0  0  0  2  0  0  0  0  0  0
  189.3650  172.1390  143.2630 C   0  0  0  0  0  2  0  0  0  0  0  0
  189.7340  172.4260  145.0210 S   0  0  0  0  0  0  0  0  0  0  0  0
  189.4710  174.1180  144.8830 O   0  0  0  0  0  0  0  0  0  0  0  0
  190.4800  174.7000  145.6560 C   0  0  0  0  0  2  0  0  0  0  0  0
  190.1800  175.6740  147.8020 O   0  0  0  0  0  1  0  0  0  0  0  0
  189.9270  175.8820  146.4460 C   0  0  0  0  0  0  0  0  0  0  0  0
  190.5630  177.0580  146.0500 O   0  0  0  0  0  1  0  0  0  0  0  0
  188.4090  176.0090  146.2670 C   0  0  0  0  0  2  0  0  0  0  0  0
  187.8040  177.4210  146.1190 C   0  0  2  0  0  3  0  0  0  0  0  0
  187.5310  178.0260  147.3480 O   0  0  0  0  0  1  0  0  0  0  0  0
  186.6830  177.6560  145.0610 C   0  0  2  0  0  0  0  0  0  0  0  0
  186.1620  176.0470  142.7360 O   0  0  0  0  0  1  0  0  0  0  0  0
  188.3930  176.9250  143.2620 C   0  0  1  0  0  3  0  0  0  0  0  0
  187.0240  177.7760  141.1670 C   0  0  0  0  0  1  0  0  0  0  0  0
  187.0700  177.0840  142.5210 C   0  0  1  0  0  0  0  0  0  0  0  0
  189.5550  177.6050  142.5580 C   0  0  0  0  0  1  0  0  0  0  0  0
  187.3810  177.9880  143.7120 C   0  0  1  0  0  3  0  0  0  0  0  0
  184.5280  179.0070  144.6670 C   0  0  0  0  0  2  0  0  0  0  0  0
  185.6820  179.9160  144.3010 C   0  0  0  0  0  2  0  0  0  0  0  0
  185.8370  178.9120  145.4330 C   0  0  0  0  0  3  0  0  0  0  0  0
  185.8870  176.4820  144.9150 O   0  0  0  0  0  0  0  0  0  0  0  0
  185.1600  176.3260  146.0090 O   0  0  0  0  0  1  0  0  0  0  0  0
  191.3780  172.6250  139.7960 C   0  0  2  0  0  3  0  0  0  0  0  0
  191.6670  171.4570  140.7370 C   0  0  0  0  0  2  0  0  0  0  0  0
  191.5050  169.3640  139.6230 O   0  0  0  0  0  1  0  0  0  0  0  0
  192.4140  170.3430  140.0230 C   0  0  2  0  0  3  0  0  0  0  0  0
  193.4480  169.7330  140.9550 C   0  0  0  0  0  2  0  0  0  0  0  0
  192.9620  169.7900  142.3890 C   0  0  0  0  0  1  0  0  0  0  0  0
  191.7880  173.9330  140.4490 C   0  0  0  0  0  2  0  0  0  0  0  0
  193.2130  176.2320  143.9880 C   0  0  0  0  0  1  0  0  0  0  0  0
  194.9420  176.1110  142.0430 C   0  0  2  0  0  3  0  0  0  0  0  0
  193.5340  175.7350  142.5890 C   0  0  1  0  0  3  0  0  0  0  0  0
  194.1540  174.6930  140.0590 C   0  0  2  0  0  3  0  0  0  0  0  0
  195.3530  175.2310  140.8530 C   0  0  0  0  0  2  0  0  0  0  0  0
  193.2630  174.2440  142.4450 C   0  0  0  0  0  2  0  0  0  0  0  0
  193.2210  173.8460  140.9610 C   0  0  1  0  0  3  0  0  0  0  0  0
  195.2060  172.5370  139.2770 C   0  0  0  0  0  2  0  0  0  0  0  0
  195.8120  174.5590  138.1450 C   0  0  0  0  0  2  0  0  0  0  0  0
  196.7130  173.5160  137.6840 N   0  0  0  0  0  2  0  0  0  0  0  0
  196.5830  172.4400  138.6570 C   0  0  2  0  0  3  0  0  0  0  0  0
  194.6540  173.8830  138.8520 C   0  0  2  0  0  3  0  0  0  0  0  0
  196.7480  171.0930  137.9740 C   0  0  0  0  0  2  0  0  0  0  0  0
  195.7160  170.9070  136.9650 N   0  0  0  0  0  0  0  0  0  0  0  0
  195.0790  169.6350  137.2530 C   0  0  0  0  0  1  0  0  0  0  0  0
  196.3910  170.7500  135.6880 C   0  0  0  0  0  1  0  0  0  0  0  0
  196.6180  174.7810  143.1000 C   0  0  0  0  0  1  0  0  0  0  0  0
  196.0380  176.1120  143.0230 N   0  0  0  0  0  0  0  0  0  0  0  0
  197.0110  176.9740  142.6350 O   0  0  0  0  0  1  0  0  0  0  0  0
  1  4  1  0  0  0  0
  2  6  1  1  0  0  0
  3  1  1  0  0  0  0
  3  5  1  0  0  0  0
  4 30  1  1  0  0  0
  4  2  1  0  0  0  0
  5  2  1  0  0  0  0
  6  7  1  0  0  0  0
  7  8  1  0  0  0  0
  8  9  1  0  0  0  0
 10  9  1  0  0  0  0
 10 11  1  0  0  0  0
 11 13  1  0  0  0  0
 13 12  1  0  0  0  0
 14 13  1  0  0  0  0
 15 13  1  0  0  0  0
 16 15  1  0  0  0  0
 16 17  1  1  0  0  0
 18 28  1  6  0  0  0
 18 27  1  0  0  0  0
 18 16  1  0  0  0  0
 20 23  1  6  0  0  0
 20 24  1  0  0  0  0
 22 21  1  6  0  0  0
 22 19  1  0  0  0  0
 22 20  1  0  0  0  0
 22 24  1  0  0  0  0
 24 18  1  1  0  0  0
 25 27  1  0  0  0  0
 26 25  1  0  0  0  0
 26 27  1  0  0  0  0
 28 29  1  0  0  0  0
 30 36  1  1  0  0  0
 30 31  1  0  0  0  0
 33 32  1  1  0  0  0
 33 31  1  0  0  0  0
 33 34  1  0  0  0  0
 34 35  1  0  0  0  0
 38 39  1  0  0  0  0
 38 54  1  1  0  0  0
 39 37  1  1  0  0  0
 40 41  1  1  0  0  0
 40 43  1  0  0  0  0
 41 38  1  0  0  0  0
 42 39  1  0  0  0  0
 43 36  1  6  0  0  0
 43 42  1  0  0  0  0
 46 45  1  0  0  0  0
 46 47  1  0  0  0  0
 47 49  1  6  0  0  0
 47 44  1  0  0  0  0
 48 45  1  1  0  0  0
 48 44  1  0  0  0  0
 48 40  1  0  0  0  0
 50 51  1  0  0  0  0
 50 49  1  0  0  0  0
 52 50  1  0  0  0  0
 54 53  1  0  0  0  0
 55 54  1  0  0  0  0
M  END
>  <MODEL>
2

>  <REMARK>
 VINA RESULT:      -5.2      3.214      9.506
  Name = 
  23 active torsions:
  status: ('A' for Active; 'I' for Inactive)
    1  A    between atoms: C_1  and  C_21
    2  A    between atoms: C_1  and  O_29
    3  A    between atoms: C_1  and  C_38
    4  A    between atoms: C_1  and  C_53
    5  A    between atoms: C_2  and  C_19
    6  A    between atoms: C_2  and  C_28
    7  A    between atoms: C_2  and  C_44
    8  A    between atoms: C_4  and  C_40
    9  A    between atoms: C_8  and  C_20
   10  A    between atoms: C_8  and  O_43
   11  A    between atoms: N_10  and  C_32
   12  A    between atoms: C_16  and  N_17
   13  A    between atoms: C_19  and  C_40
   14  A    between atoms: C_20  and  C_42
   15  A    between atoms: C_21  and  C_42
   16  A    between atoms: C_27  and  C_31
   17  A    between atoms: C_28  and  C_49
   18  A    between atoms: C_31  and  C_54
   19  A    between atoms: C_32  and  C_48
   20  A    between atoms: C_33  and  C_52
   21  A    between atoms: S_35  and  O_43
   22  A    between atoms: S_35  and  C_51
   23  A    between atoms: C_51  and  C_54
                            x       y       z     vdW  Elec       q    Type
                         _______ _______ _______ _____ _____    ______ ____

>  <TORSDO>
F 23

$$$$
=
 OpenBabel11052419483D

 55 59  0  0  1  0  0  0  0  0999 V2000
  188.0630  175.0040  139.4760 O   0  0  0  0  0  0  0  0  0  0  0  0
  188.6280  173.3700  141.1090 C   0  0  1  0  0  3  0  0  0  0  0  0
  188.1570  173.7700  138.8170 C   0  0  0  0  0  2  0  0  0  0  0  0
  188.7330  174.8220  140.6970 C   0  0  2  0  0  3  0  0  0  0  0  0
  188.1800  172.6740  139.8560 C   0  0  0  0  0  2  0  0  0  0  0  0
  189.9940  172.8620  141.5350 C   0  0  0  0  0  2  0  0  0  0  0  0
  189.8400  171.8640  142.6680 C   0  0  0  0  0  2  0  0  0  0  0  0
  190.7030  170.6450  142.4120 C   0  0  0  0  0  2  0  0  0  0  0  0
  192.2220  170.7230  143.4090 S   0  0  0  0  0  0  0  0  0  0  0  0
  193.1080  169.7760  142.2810 O   0  0  0  0  0  0  0  0  0  0  0  0
  193.1170  170.5340  141.1080 C   0  0  0  0  0  2  0  0  0  0  0  0
  195.1580  171.4650  140.3280 O   0  0  0  0  0  1  0  0  0  0  0  0
  194.4060  170.2900  140.3300 C   0  0  0  0  0  0  0  0  0  0  0  0
  195.1520  169.2860  140.9470 O   0  0  0  0  0  1  0  0  0  0  0  0
  194.1140  169.9180  138.8710 C   0  0  0  0  0  2  0  0  0  0  0  0
  192.6420  169.7540  138.4370 C   0  0  2  0  0  3  0  0  0  0  0  0
  192.2200  168.4230  138.4440 O   0  0  0  0  0  1  0  0  0  0  0  0
  192.1250  170.5510  137.2010 C   0  0  2  0  0  0  0  0  0  0  0  0
  192.6310  172.8430  135.5390 O   0  0  0  0  0  1  0  0  0  0  0  0
  192.9430  172.8810  137.9740 C   0  0  1  0  0  3  0  0  0  0  0  0
  191.0400  174.2870  136.7950 C   0  0  0  0  0  1  0  0  0  0  0  0
  192.0470  173.1460  136.7690 C   0  0  1  0  0  0  0  0  0  0  0  0
  192.6310  173.7810  139.1570 C   0  0  0  0  0  1  0  0  0  0  0  0
  191.7370  171.9740  137.6960 C   0  0  1  0  0  3  0  0  0  0  0  0
  189.7230  170.9270  136.3560 C   0  0  0  0  0  2  0  0  0  0  0  0
  189.6180  170.0420  137.5790 C   0  0  0  0  0  2  0  0  0  0  0  0
  190.8150  169.9110  136.6490 C   0  0  0  0  0  3  0  0  0  0  0  0
  193.1480  170.6480  136.2120 O   0  0  0  0  0  0  0  0  0  0  0  0
  193.0780  169.5860  135.4270 O   0  0  0  0  0  1  0  0  0  0  0  0
  188.1850  175.7510  141.7840 C   0  0  2  0  0  3  0  0  0  0  0  0
  187.1400  176.7290  141.2490 C   0  0  0  0  0  2  0  0  0  0  0  0
  184.9390  177.5440  141.6220 O   0  0  0  0  0  1  0  0  0  0  0  0
  186.0340  176.9650  142.2640 C   0  0  2  0  0  3  0  0  0  0  0  0
  186.5300  177.8890  143.3650 C   0  0  0  0  0  2  0  0  0  0  0  0
  185.8110  179.2220  143.2960 C   0  0  0  0  0  1  0  0  0  0  0  0
  189.3310  176.5140  142.4240 C   0  0  0  0  0  2  0  0  0  0  0  0
  188.2870  177.5040  146.6390 C   0  0  0  0  0  1  0  0  0  0  0  0
  190.7870  176.8570  146.2950 C   0  0  2  0  0  3  0  0  0  0  0  0
  189.3800  177.0850  145.6720 C   0  0  1  0  0  3  0  0  0  0  0  0
  191.3480  176.1820  143.8880 C   0  0  2  0  0  3  0  0  0  0  0  0
  191.7000  176.0330  145.3750 C   0  0  0  0  0  2  0  0  0  0  0  0
  188.9520  175.8990  144.8190 C   0  0  0  0  0  2  0  0  0  0  0  0
  189.8900  175.7390  143.6110 C   0  0  1  0  0  3  0  0  0  0  0  0
  193.1580  174.4240  143.8860 C   0  0  0  0  0  2  0  0  0  0  0  0
  193.3850  176.2730  142.3800 C   0  0  0  0  0  2  0  0  0  0  0  0
  194.6420  175.5440  142.3660 N   0  0  0  0  0  2  0  0  0  0  0  0
  194.6080  174.6990  143.5520 C   0  0  2  0  0  3  0  0  0  0  0  0
  192.3480  175.3830  143.0370 C   0  0  2  0  0  3  0  0  0  0  0  0
  195.3330  173.3900  143.2840 C   0  0  0  0  0  2  0  0  0  0  0  0
  196.3050  173.1240  144.3330 N   0  0  0  0  0  0  0  0  0  0  0  0
  196.6620  174.4110  144.9010 C   0  0  0  0  0  1  0  0  0  0  0  0
  197.5010  172.6130  143.6860 C   0  0  0  0  0  1  0  0  0  0  0  0
  191.6400  175.0610  147.6150 C   0  0  0  0  0  1  0  0  0  0  0  0
  190.8110  176.2540  147.6370 N   0  0  0  0  0  0  0  0  0  0  0  0
  191.3470  177.1240  148.5300 O   0  0  0  0  0  1  0  0  0  0  0  0
  1  4  1  0  0  0  0
  2  6  1  6  0  0  0
  3  1  1  0  0  0  0
  3  5  1  0  0  0  0
  4  2  1  0  0  0  0
  4 30  1  1  0  0  0
  5  2  1  0  0  0  0
  6  7  1  0  0  0  0
  8  7  1  0  0  0  0
  8  9  1  0  0  0  0
 10  9  1  0  0  0  0
 11 10  1  0  0  0  0
 12 13  1  0  0  0  0
 13 14  1  0  0  0  0
 13 11  1  0  0  0  0
 15 13  1  0  0  0  0
 16 17  1  6  0  0  0
 16 15  1  0  0  0  0
 18 28  1  6  0  0  0
 18 16  1  0  0  0  0
 19 22  1  0  0  0  0
 20 23  1  1  0  0  0
 22 21  1  1  0  0  0
 22 24  1  0  0  0  0
 22 20  1  0  0  0  0
 24 18  1  6  0  0  0
 24 20  1  0  0  0  0
 25 27  1  0  0  0  0
 25 26  1  0  0  0  0
 27 18  1  0  0  0  0
 27 26  1  0  0  0  0
 29 28  1  0  0  0  0
 30 31  1  6  0  0  0
 30 36  1  0  0  0  0
 31 33  1  0  0  0  0
 33 32  1  6  0  0  0
 33 34  1  0  0  0  0
 35 34  1  0  0  0  0
 38 54  1  1  0  0  0
 39 38  1  0  0  0  0
 39 37  1  1  0  0  0
 40 41  1  1  0  0  0
 41 38  1  0  0  0  0
 42 39  1  0  0  0  0
 43 36  1  6  0  0  0
 43 40  1  0  0  0  0
 43 42  1  0  0  0  0
 46 45  1  0  0  0  0
 46 47  1  0  0  0  0
 47 49  1  6  0  0  0
 47 44  1  0  0  0  0
 48 45  1  1  0  0  0
 48 44  1  0  0  0  0
 48 40  1  0  0  0  0
 49 50  1  0  0  0  0
 50 51  1  0  0  0  0
 52 50  1  0  0  0  0
 53 54  1  0  0  0  0
 54 55  1  0  0  0  0
M  END
>  <MODEL>
3

>  <REMARK>
 VINA RESULT:      -5.0      2.698      5.853
  Name = 
  23 active torsions:
  status: ('A' for Active; 'I' for Inactive)
    1  A    between atoms: C_1  and  C_21
    2  A    between atoms: C_1  and  O_29
    3  A    between atoms: C_1  and  C_38
    4  A    between atoms: C_1  and  C_53
    5  A    between atoms: C_2  and  C_19
    6  A    between atoms: C_2  and  C_28
    7  A    between atoms: C_2  and  C_44
    8  A    between atoms: C_4  and  C_40
    9  A    between atoms: C_8  and  C_20
   10  A    between atoms: C_8  and  O_43
   11  A    between atoms: N_10  and  C_32
   12  A    between atoms: C_16  and  N_17
   13  A    between atoms: C_19  and  C_40
   14  A    between atoms: C_20  and  C_42
   15  A    between atoms: C_21  and  C_42
   16  A    between atoms: C_27  and  C_31
   17  A    between atoms: C_28  and  C_49
   18  A    between atoms: C_31  and  C_54
   19  A    between atoms: C_32  and  C_48
   20  A    between atoms: C_33  and  C_52
   21  A    between atoms: S_35  and  O_43
   22  A    between atoms: S_35  and  C_51
   23  A    between atoms: C_51  and  C_54
                            x       y       z     vdW  Elec       q    Type
                         _______ _______ _______ _____ _____    ______ ____

>  <TORSDO>
F 23

$$$$
=
 OpenBabel11052419483D

 55 59  0  0  1  0  0  0  0  0999 V2000
  190.3180  175.6920  147.3230 O   0  0  0  0  0  0  0  0  0  0  0  0
  192.2370  175.7230  145.9180 C   0  0  1  0  0  3  0  0  0  0  0  0
  191.3930  176.1550  148.0940 C   0  0  0  0  0  2  0  0  0  0  0  0
  190.9050  175.0680  146.2100 C   0  0  2  0  0  3  0  0  0  0  0  0
  192.5320  176.5040  147.1660 C   0  0  0  0  0  2  0  0  0  0  0  0
  193.2940  174.6550  145.7010 C   0  0  0  0  0  2  0  0  0  0  0  0
  194.6510  175.1820  146.1270 C   0  0  0  0  0  2  0  0  0  0  0  0
  195.4410  175.6350  144.9150 C   0  0  0  0  0  2  0  0  0  0  0  0
  196.3400  174.2320  144.1850 S   0  0  0  0  0  0  0  0  0  0  0  0
  196.9220  175.1810  142.8760 O   0  0  0  0  0  0  0  0  0  0  0  0
  196.2300  174.7100  141.7580 C   0  0  0  0  0  2  0  0  0  0  0  0
  194.1630  175.8740  141.6250 O   0  0  0  0  0  1  0  0  0  0  0  0
  195.4550  175.8460  141.0980 C   0  0  0  0  0  0  0  0  0  0  0  0
  196.0730  177.0660  141.3710 O   0  0  0  0  0  1  0  0  0  0  0  0
  195.3370  175.6330  139.5840 C   0  0  0  0  0  2  0  0  0  0  0  0
  195.7990  174.2840  138.9950 C   0  0  2  0  0  3  0  0  0  0  0  0
  196.9360  174.4030  138.1930 O   0  0  0  0  0  1  0  0  0  0  0  0
  194.7330  173.3130  138.4020 C   0  0  2  0  0  0  0  0  0  0  0  0
  193.6280  172.5040  135.8730 O   0  0  0  0  0  1  0  0  0  0  0  0
  194.1170  174.8490  136.4130 C   0  0  1  0  0  3  0  0  0  0  0  0
  191.6390  173.9820  136.1050 C   0  0  0  0  0  1  0  0  0  0  0  0
  193.1120  173.7040  136.3650 C   0  0  1  0  0  0  0  0  0  0  0  0
  193.4680  176.2160  136.2830 C   0  0  0  0  0  1  0  0  0  0  0  0
  193.6450  174.1840  137.7130 C   0  0  1  0  0  3  0  0  0  0  0  0
  192.6730  171.9470  139.1200 C   0  0  0  0  0  2  0  0  0  0  0  0
  192.7080  173.1760  140.0040 C   0  0  0  0  0  2  0  0  0  0  0  0
  194.0090  172.5360  139.5430 C   0  0  0  0  0  3  0  0  0  0  0  0
  195.3340  172.4460  137.4420 O   0  0  0  0  0  0  0  0  0  0  0  0
  195.8580  171.4110  138.0780 O   0  0  0  0  0  1  0  0  0  0  0  0
  189.9820  175.1110  144.9890 C   0  0  2  0  0  3  0  0  0  0  0  0
  188.6780  175.8580  145.2640 C   0  0  0  0  0  2  0  0  0  0  0  0
  189.6880  177.9850  144.9380 O   0  0  0  0  0  1  0  0  0  0  0  0
  188.6300  177.1800  144.5150 C   0  0  2  0  0  3  0  0  0  0  0  0
  187.3100  177.8820  144.7870 C   0  0  0  0  0  2  0  0  0  0  0  0
  186.1490  176.9880  144.3980 C   0  0  0  0  0  1  0  0  0  0  0  0
  189.6830  173.6950  144.5280 C   0  0  0  0  0  2  0  0  0  0  0  0
  188.0280  175.9170  141.0400 C   0  0  0  0  0  1  0  0  0  0  0  0
  188.5350  173.4100  140.5500 C   0  0  2  0  0  3  0  0  0  0  0  0
  188.5320  174.5860  141.5690 C   0  0  1  0  0  3  0  0  0  0  0  0
  189.5890  172.1710  142.5300 C   0  0  2  0  0  3  0  0  0  0  0  0
  189.4400  172.2540  141.0040 C   0  0  0  0  0  2  0  0  0  0  0  0
  189.8810  174.7270  142.2580 C   0  0  0  0  0  2  0  0  0  0  0  0
  190.1850  173.4800  143.1060 C   0  0  1  0  0  3  0  0  0  0  0  0
  191.8300  171.3700  143.3670 C   0  0  0  0  0  2  0  0  0  0  0  0
  190.7140  170.0510  141.7090 C   0  0  0  0  0  2  0  0  0  0  0  0
  192.0620  169.5270  141.8460 N   0  0  0  0  0  2  0  0  0  0  0  0
  192.8100  170.5680  142.5380 C   0  0  2  0  0  3  0  0  0  0  0  0
  190.4510  170.9530  142.9000 C   0  0  2  0  0  3  0  0  0  0  0  0
  193.8610  169.9450  143.4410 C   0  0  0  0  0  2  0  0  0  0  0  0
  195.1300  169.8290  142.7370 N   0  0  0  0  0  0  0  0  0  0  0  0
  195.4500  168.4140  142.6910 C   0  0  0  0  0  1  0  0  0  0  0  0
  196.1400  170.4530  143.5730 C   0  0  0  0  0  1  0  0  0  0  0  0
  189.1820  172.5410  138.4230 C   0  0  0  0  0  1  0  0  0  0  0  0
  188.8810  173.7560  139.1630 N   0  0  0  0  0  0  0  0  0  0  0  0
  187.8320  174.3690  138.5590 O   0  0  0  0  0  1  0  0  0  0  0  0
  1  3  1  0  0  0  0
  2  6  1  1  0  0  0
  2  4  1  0  0  0  0
  2  5  1  0  0  0  0
  4 30  1  6  0  0  0
  4  1  1  0  0  0  0
  5  3  1  0  0  0  0
  6  7  1  0  0  0  0
  8  7  1  0  0  0  0
  9  8  1  0  0  0  0
 10  9  1  0  0  0  0
 11 10  1  0  0  0  0
 13 14  1  0  0  0  0
 13 12  1  0  0  0  0
 13 11  1  0  0  0  0
 15 13  1  0  0  0  0
 16 17  1  6  0  0  0
 16 15  1  0  0  0  0
 18 28  1  6  0  0  0
 18 16  1  0  0  0  0
 18 27  1  0  0  0  0
 19 22  1  0  0  0  0
 20 23  1  1  0  0  0
 20 24  1  0  0  0  0
 22 21  1  6  0  0  0
 22 20  1  0  0  0  0
 22 24  1  0  0  0  0
 24 18  1  6  0  0  0
 25 27  1  0  0  0  0
 25 26  1  0  0  0  0
 27 26  1  0  0  0  0
 28 29  1  0  0  0  0
 30 36  1  1  0  0  0
 30 31  1  0  0  0  0
 33 34  1  0  0  0  0
 33 32  1  1  0  0  0
 33 31  1  0  0  0  0
 35 34  1  0  0  0  0
 38 54  1  6  0  0  0
 38 41  1  0  0  0  0
 38 39  1  0  0  0  0
 39 37  1  6  0  0  0
 39 42  1  0  0  0  0
 40 41  1  6  0  0  0
 40 48  1  0  0  0  0
 40 43  1  0  0  0  0
 42 43  1  0  0  0  0
 43 36  1  1  0  0  0
 45 46  1  0  0  0  0
 46 47  1  0  0  0  0
 47 44  1  0  0  0  0
 47 49  1  1  0  0  0
 48 45  1  6  0  0  0
 48 44  1  0  0  0  0
 50 49  1  0  0  0  0
 50 52  1  0  0  0  0
 51 50  1  0  0  0  0
 53 54  1  0  0  0  0
 55 54  1  0  0  0  0
M  END
>  <MODEL>
4

>  <REMARK>
 VINA RESULT:      -4.8      2.862      6.988
  Name = 
  23 active torsions:
  status: ('A' for Active; 'I' for Inactive)
    1  A    between atoms: C_1  and  C_21
    2  A    between atoms: C_1  and  O_29
    3  A    between atoms: C_1  and  C_38
    4  A    between atoms: C_1  and  C_53
    5  A    between atoms: C_2  and  C_19
    6  A    between atoms: C_2  and  C_28
    7  A    between atoms: C_2  and  C_44
    8  A    between atoms: C_4  and  C_40
    9  A    between atoms: C_8  and  C_20
   10  A    between atoms: C_8  and  O_43
   11  A    between atoms: N_10  and  C_32
   12  A    between atoms: C_16  and  N_17
   13  A    between atoms: C_19  and  C_40
   14  A    between atoms: C_20  and  C_42
   15  A    between atoms: C_21  and  C_42
   16  A    between atoms: C_27  and  C_31
   17  A    between atoms: C_28  and  C_49
   18  A    between atoms: C_31  and  C_54
   19  A    between atoms: C_32  and  C_48
   20  A    between atoms: C_33  and  C_52
   21  A    between atoms: S_35  and  O_43
   22  A    between atoms: S_35  and  C_51
   23  A    between atoms: C_51  and  C_54
                            x       y       z     vdW  Elec       q    Type
                         _______ _______ _______ _____ _____    ______ ____

>  <TORSDO>
F 23

$$$$
=
 OpenBabel11052419483D

 55 59  0  0  1  0  0  0  0  0999 V2000
  194.9420  175.9600  141.6340 O   0  0  0  0  0  0  0  0  0  0  0  0
  196.8390  174.5730  141.9940 C   0  0  1  0  0  3  0  0  0  0  0  0
  195.5380  176.3720  142.8340 C   0  0  0  0  0  2  0  0  0  0  0  0
  195.4580  174.6780  141.3860 C   0  0  2  0  0  3  0  0  0  0  0  0
  196.9120  175.7510  142.9220 C   0  0  0  0  0  2  0  0  0  0  0  0
  196.9550  173.2770  142.7760 C   0  0  0  0  0  2  0  0  0  0  0  0
  195.5880  172.8620  143.2870 C   0  0  0  0  0  2  0  0  0  0  0  0
  195.6710  172.4760  144.7510 C   0  0  0  0  0  2  0  0  0  0  0  0
  194.0380  172.6230  145.5370 S   0  0  0  0  0  0  0  0  0  0  0  0
  194.0940  174.3400  145.5200 O   0  0  0  0  0  0  0  0  0  0  0  0
  192.7620  174.7400  145.3830 C   0  0  0  0  0  2  0  0  0  0  0  0
  191.9950  176.1860  147.1040 O   0  0  0  0  0  1  0  0  0  0  0  0
  192.5920  176.1840  145.8430 C   0  0  0  0  0  0  0  0  0  0  0  0
  193.8380  176.8020  145.9400 O   0  0  0  0  0  1  0  0  0  0  0  0
  191.6790  176.9670  144.8920 C   0  0  0  0  0  2  0  0  0  0  0  0
  191.1200  176.2420  143.6490 C   0  0  2  0  0  3  0  0  0  0  0  0
  191.8910  176.4570  142.5050 O   0  0  0  0  0  1  0  0  0  0  0  0
  189.5870  176.2920  143.3710 C   0  0  2  0  0  0  0  0  0  0  0  0
  188.9570  175.2540  145.9780 O   0  0  0  0  0  1  0  0  0  0  0  0
  187.5050  176.8480  144.8030 C   0  0  1  0  0  3  0  0  0  0  0  0
  188.8090  177.5180  147.0020 C   0  0  0  0  0  1  0  0  0  0  0  0
  188.6280  176.5990  145.8030 C   0  0  1  0  0  0  0  0  0  0  0  0
  186.7190  178.1150  145.0930 C   0  0  0  0  0  1  0  0  0  0  0  0
  188.9500  177.2190  144.4450 C   0  0  1  0  0  3  0  0  0  0  0  0
  189.8400  173.7430  143.1140 C   0  0  0  0  0  2  0  0  0  0  0  0
  188.6360  174.1440  142.2880 C   0  0  0  0  0  2  0  0  0  0  0  0
  188.9500  174.8840  143.5800 C   0  0  0  0  0  3  0  0  0  0  0  0
  189.3370  176.8190  142.0700 O   0  0  0  0  0  0  0  0  0  0  0  0
  189.2710  178.1370  142.1540 O   0  0  0  0  0  1  0  0  0  0  0  0
  195.4820  174.3600  139.8890 C   0  0  2  0  0  3  0  0  0  0  0  0
  196.7510  174.8610  139.2020 C   0  0  0  0  0  2  0  0  0  0  0  0
  197.0820  173.9510  137.0320 O   0  0  0  0  0  1  0  0  0  0  0  0
  197.4030  173.7640  138.3770 C   0  0  2  0  0  3  0  0  0  0  0  0
  196.9060  172.4030  138.8380 C   0  0  0  0  0  2  0  0  0  0  0  0
  196.5490  171.5410  137.6430 C   0  0  0  0  0  1  0  0  0  0  0  0
  194.2580  174.9620  139.2220 C   0  0  0  0  0  2  0  0  0  0  0  0
  192.4340  175.9140  135.2710 C   0  0  0  0  0  1  0  0  0  0  0  0
  191.0140  174.2830  136.7240 C   0  0  2  0  0  3  0  0  0  0  0  0
  192.2950  175.1540  136.5790 C   0  0  1  0  0  3  0  0  0  0  0  0
  192.1260  173.6570  138.9450 C   0  0  2  0  0  3  0  0  0  0  0  0
  191.1510  173.2340  137.8370 C   0  0  0  0  0  2  0  0  0  0  0  0
  193.5490  174.3550  136.9020 C   0  0  0  0  0  2  0  0  0  0  0  0
  193.5440  173.9160  138.3750 C   0  0  1  0  0  3  0  0  0  0  0  0
  193.1840  171.5140  139.7550 C   0  0  0  0  0  2  0  0  0  0  0  0
  190.8420  171.8300  140.1470 C   0  0  0  0  0  2  0  0  0  0  0  0
  191.1560  170.4500  140.4780 N   0  0  0  0  0  2  0  0  0  0  0  0
  192.4510  170.1940  139.8640 C   0  0  2  0  0  3  0  0  0  0  0  0
  192.1530  172.5860  140.0470 C   0  0  2  0  0  3  0  0  0  0  0  0
  193.2550  169.2280  140.7190 C   0  0  0  0  0  2  0  0  0  0  0  0
  194.0530  169.9560  141.6940 N   0  0  0  0  0  0  0  0  0  0  0  0
  195.3240  169.2630  141.7880 C   0  0  0  0  0  1  0  0  0  0  0  0
  193.4000  169.7980  142.9820 C   0  0  0  0  0  1  0  0  0  0  0  0
  190.3200  172.2020  135.7850 C   0  0  0  0  0  1  0  0  0  0  0  0
  190.5470  173.6100  135.5020 N   0  0  0  0  0  0  0  0  0  0  0  0
  189.3740  174.1520  135.0890 O   0  0  0  0  0  1  0  0  0  0  0  0
  1  3  1  0  0  0  0
  2  6  1  1  0  0  0
  2  5  1  0  0  0  0
  3  5  1  0  0  0  0
  4 30  1  6  0  0  0
  4  1  1  0  0  0  0
  4  2  1  0  0  0  0
  6  7  1  0  0  0  0
  7  8  1  0  0  0  0
  8  9  1  0  0  0  0
 10  9  1  0  0  0  0
 11 10  1  0  0  0  0
 11 13  1  0  0  0  0
 13 14  1  0  0  0  0
 13 12  1  0  0  0  0
 15 13  1  0  0  0  0
 16 17  1  6  0  0  0
 16 15  1  0  0  0  0
 18 28  1  6  0  0  0
 18 27  1  0  0  0  0
 18 16  1  0  0  0  0
 20 23  1  1  0  0  0
 20 22  1  0  0  0  0
 22 19  1  0  0  0  0
 22 21  1  1  0  0  0
 24 18  1  6  0  0  0
 24 20  1  0  0  0  0
 24 22  1  0  0  0  0
 25 27  1  0  0  0  0
 26 25  1  0  0  0  0
 26 27  1  0  0  0  0
 28 29  1  0  0  0  0
 30 31  1  6  0  0  0
 33 32  1  6  0  0  0
 33 34  1  0  0  0  0
 33 31  1  0  0  0  0
 35 34  1  0  0  0  0
 36 30  1  0  0  0  0
 38 54  1  6  0  0  0
 38 41  1  0  0  0  0
 39 37  1  6  0  0  0
 39 38  1  0  0  0  0
 39 42  1  0  0  0  0
 40 41  1  6  0  0  0
 40 48  1  0  0  0  0
 42 43  1  0  0  0  0
 43 40  1  0  0  0  0
 43 36  1  1  0  0  0
 44 47  1  0  0  0  0
 45 46  1  0  0  0  0
 47 46  1  0  0  0  0
 47 49  1  1  0  0  0
 48 44  1  6  0  0  0
 48 45  1  0  0  0  0
 49 50  1  0  0  0  0
 50 51  1  0  0  0  0
 50 52  1  0  0  0  0
 54 53  1  0  0  0  0
 55 54  1  0  0  0  0
M  END
>  <MODEL>
5

>  <REMARK>
 VINA RESULT:      -4.8      3.203      9.460
  Name = 
  23 active torsions:
  status: ('A' for Active; 'I' for Inactive)
    1  A    between atoms: C_1  and  C_21
    2  A    between atoms: C_1  and  O_29
    3  A    between atoms: C_1  and  C_38
    4  A    between atoms: C_1  and  C_53
    5  A    between atoms: C_2  and  C_19
    6  A    between atoms: C_2  and  C_28
    7  A    between atoms: C_2  and  C_44
    8  A    between atoms: C_4  and  C_40
    9  A    between atoms: C_8  and  C_20
   10  A    between atoms: C_8  and  O_43
   11  A    between atoms: N_10  and  C_32
   12  A    between atoms: C_16  and  N_17
   13  A    between atoms: C_19  and  C_40
   14  A    between atoms: C_20  and  C_42
   15  A    between atoms: C_21  and  C_42
   16  A    between atoms: C_27  and  C_31
   17  A    between atoms: C_28  and  C_49
   18  A    between atoms: C_31  and  C_54
   19  A    between atoms: C_32  and  C_48
   20  A    between atoms: C_33  and  C_52
   21  A    between atoms: S_35  and  O_43
   22  A    between atoms: S_35  and  C_51
   23  A    between atoms: C_51  and  C_54
                            x       y       z     vdW  Elec       q    Type
                         _______ _______ _______ _____ _____    ______ ____

>  <TORSDO>
F 23

$$$$
=
 OpenBabel11052419483D

 55 59  0  0  1  0  0  0  0  0999 V2000
  195.7750  176.2260  140.9700 O   0  0  0  0  0  0  0  0  0  0  0  0
  197.5970  174.7170  141.2210 C   0  0  1  0  0  3  0  0  0  0  0  0
  196.4450  176.5720  142.1520 C   0  0  0  0  0  2  0  0  0  0  0  0
  196.2000  174.9200  140.6750 C   0  0  2  0  0  3  0  0  0  0  0  0
  197.7810  175.8670  142.1680 C   0  0  0  0  0  2  0  0  0  0  0  0
  197.6640  173.3990  141.9710 C   0  0  0  0  0  2  0  0  0  0  0  0
  196.3770  173.1810  142.7420 C   0  0  0  0  0  2  0  0  0  0  0  0
  196.6080  172.2120  143.8850 C   0  0  0  0  0  2  0  0  0  0  0  0
  196.5150  173.0800  145.4800 S   0  0  0  0  0  0  0  0  0  0  0  0
  195.4730  174.2940  144.8510 O   0  0  0  0  0  0  0  0  0  0  0  0
  195.2360  175.1530  145.9270 C   0  0  0  0  0  2  0  0  0  0  0  0
  193.3180  176.3480  146.6600 O   0  0  0  0  0  1  0  0  0  0  0  0
  194.1620  176.1730  145.5630 C   0  0  0  0  0  0  0  0  0  0  0  0
  194.7530  177.3990  145.2570 O   0  0  0  0  0  1  0  0  0  0  0  0
  193.3060  175.6840  144.3880 C   0  0  0  0  0  2  0  0  0  0  0  0
  191.9030  175.1160  144.6890 C   0  0  2  0  0  3  0  0  0  0  0  0
  191.9110  173.7360  144.8980 O   0  0  0  0  0  1  0  0  0  0  0  0
  190.6920  175.5970  143.8320 C   0  0  2  0  0  0  0  0  0  0  0  0
  188.1500  175.5840  142.4880 O   0  0  0  0  0  1  0  0  0  0  0  0
  189.2080  173.5360  143.3350 C   0  0  1  0  0  3  0  0  0  0  0  0
  188.9160  173.9800  140.7460 C   0  0  0  0  0  1  0  0  0  0  0  0
  188.9680  174.4970  142.1760 C   0  0  1  0  0  0  0  0  0  0  0  0
  189.4790  172.1120  142.8810 C   0  0  0  0  0  1  0  0  0  0  0  0
  190.3400  174.4490  142.8430 C   0  0  1  0  0  3  0  0  0  0  0  0
  191.1900  178.1200  143.7320 C   0  0  0  0  0  2  0  0  0  0  0  0
  190.0120  177.8740  142.8130 C   0  0  0  0  0  2  0  0  0  0  0  0
  191.0980  176.8180  142.9520 C   0  0  0  0  0  3  0  0  0  0  0  0
  189.5720  175.8720  144.6700 O   0  0  0  0  0  0  0  0  0  0  0  0
  189.9910  175.9560  145.9210 O   0  0  0  0  0  1  0  0  0  0  0  0
  196.1420  174.6350  139.1720 C   0  0  2  0  0  3  0  0  0  0  0  0
  197.2540  175.3420  138.3970 C   0  0  0  0  0  2  0  0  0  0  0  0
  197.2600  174.5060  136.1720 O   0  0  0  0  0  1  0  0  0  0  0  0
  197.9150  174.4040  137.4000 C   0  0  2  0  0  3  0  0  0  0  0  0
  197.8370  172.9720  137.9050 C   0  0  0  0  0  2  0  0  0  0  0  0
  197.9410  172.0000  136.7470 C   0  0  0  0  0  1  0  0  0  0  0  0
  194.7860  175.0490  138.6280 C   0  0  0  0  0  2  0  0  0  0  0  0
  191.5460  175.2380  135.5780 C   0  0  0  0  0  1  0  0  0  0  0  0
  191.0080  173.6790  137.5940 C   0  0  2  0  0  3  0  0  0  0  0  0
  192.0020  174.6560  136.9050 C   0  0  1  0  0  3  0  0  0  0  0  0
  192.9240  173.4920  139.2850 C   0  0  2  0  0  3  0  0  0  0  0  0
  191.6930  172.8150  138.6640 C   0  0  0  0  0  2  0  0  0  0  0  0
  193.3950  174.0510  136.8050 C   0  0  0  0  0  2  0  0  0  0  0  0
  193.9850  173.8240  138.2060 C   0  0  1  0  0  3  0  0  0  0  0  0
  194.4760  171.5760  139.8200 C   0  0  0  0  0  2  0  0  0  0  0  0
  192.4430  171.7590  141.0730 C   0  0  0  0  0  2  0  0  0  0  0  0
  193.0330  170.4690  141.3890 N   0  0  0  0  0  2  0  0  0  0  0  0
  194.0160  170.2310  140.3410 C   0  0  2  0  0  3  0  0  0  0  0  0
  193.5070  172.5940  140.3870 C   0  0  2  0  0  3  0  0  0  0  0  0
  195.2020  169.4620  140.9000 C   0  0  0  0  0  2  0  0  0  0  0  0
  196.4330  169.8860  140.2500 N   0  0  0  0  0  0  0  0  0  0  0  0
  196.6810  168.9410  139.1770 C   0  0  0  0  0  1  0  0  0  0  0  0
  197.5060  169.7080  141.2120 C   0  0  0  0  0  1  0  0  0  0  0  0
  190.8320  171.4660  136.7190 C   0  0  0  0  0  1  0  0  0  0  0  0
  190.2440  172.7950  136.7010 N   0  0  0  0  0  0  0  0  0  0  0  0
  188.9600  172.6930  137.1300 O   0  0  0  0  0  1  0  0  0  0  0  0
  1  3  1  0  0  0  0
  2  6  1  1  0  0  0
  2  5  1  0  0  0  0
  3  5  1  0  0  0  0
  4 30  1  6  0  0  0
  4  1  1  0  0  0  0
  4  2  1  0  0  0  0
  6  7  1  0  0  0  0
  7  8  1  0  0  0  0
  8  9  1  0  0  0  0
 10  9  1  0  0  0  0
 10 11  1  0  0  0  0
 13 11  1  0  0  0  0
 13 12  1  0  0  0  0
 14 13  1  0  0  0  0
 15 16  1  0  0  0  0
 15 13  1  0  0  0  0
 16 17  1  6  0  0  0
 18 28  1  1  0  0  0
 18 16  1  0  0  0  0
 20 23  1  6  0  0  0
 22 21  1  6  0  0  0
 22 19  1  0  0  0  0
 22 24  1  0  0  0  0
 22 20  1  0  0  0  0
 24 20  1  0  0  0  0
 24 18  1  1  0  0  0
 26 27  1  0  0  0  0
 26 25  1  0  0  0  0
 27 25  1  0  0  0  0
 27 18  1  0  0  0  0
 28 29  1  0  0  0  0
 30 31  1  6  0  0  0
 33 32  1  6  0  0  0
 33 34  1  0  0  0  0
 33 31  1  0  0  0  0
 35 34  1  0  0  0  0
 36 30  1  0  0  0  0
 38 54  1  6  0  0  0
 38 41  1  0  0  0  0
 39 37  1  6  0  0  0
 39 38  1  0  0  0  0
 40 41  1  6  0  0  0
 40 48  1  0  0  0  0
 42 39  1  0  0  0  0
 42 43  1  0  0  0  0
 43 36  1  1  0  0  0
 43 40  1  0  0  0  0
 44 47  1  0  0  0  0
 45 46  1  0  0  0  0
 47 49  1  1  0  0  0
 47 46  1  0  0  0  0
 48 44  1  6  0  0  0
 48 45  1  0  0  0  0
 50 49  1  0  0  0  0
 50 52  1  0  0  0  0
 51 50  1  0  0  0  0
 54 53  1  0  0  0  0
 54 55  1  0  0  0  0
M  END
>  <MODEL>
6

>  <REMARK>
 VINA RESULT:      -4.8      3.636      9.611
  Name = 
  23 active torsions:
  status: ('A' for Active; 'I' for Inactive)
    1  A    between atoms: C_1  and  C_21
    2  A    between atoms: C_1  and  O_29
    3  A    between atoms: C_1  and  C_38
    4  A    between atoms: C_1  and  C_53
    5  A    between atoms: C_2  and  C_19
    6  A    between atoms: C_2  and  C_28
    7  A    between atoms: C_2  and  C_44
    8  A    between atoms: C_4  and  C_40
    9  A    between atoms: C_8  and  C_20
   10  A    between atoms: C_8  and  O_43
   11  A    between atoms: N_10  and  C_32
   12  A    between atoms: C_16  and  N_17
   13  A    between atoms: C_19  and  C_40
   14  A    between atoms: C_20  and  C_42
   15  A    between atoms: C_21  and  C_42
   16  A    between atoms: C_27  and  C_31
   17  A    between atoms: C_28  and  C_49
   18  A    between atoms: C_31  and  C_54
   19  A    between atoms: C_32  and  C_48
   20  A    between atoms: C_33  and  C_52
   21  A    between atoms: S_35  and  O_43
   22  A    between atoms: S_35  and  C_51
   23  A    between atoms: C_51  and  C_54
                            x       y       z     vdW  Elec       q    Type
                         _______ _______ _______ _____ _____    ______ ____

>  <TORSDO>
F 23

$$$$
=
 OpenBabel11052419483D

 55 59  0  0  1  0  0  0  0  0999 V2000
  193.7960  171.4540  145.3640 O   0  0  0  0  0  0  0  0  0  0  0  0
  195.4580  172.5850  144.0950 C   0  0  1  0  0  3  0  0  0  0  0  0
  194.9220  170.6210  145.3150 C   0  0  0  0  0  2  0  0  0  0  0  0
  193.9770  172.3820  144.3250 C   0  0  2  0  0  3  0  0  0  0  0  0
  196.0940  171.4320  144.8160 C   0  0  0  0  0  2  0  0  0  0  0  0
  195.7580  172.5090  142.6090 C   0  0  0  0  0  2  0  0  0  0  0  0
  196.6380  173.6760  142.2020 C   0  0  0  0  0  2  0  0  0  0  0  0
  195.9780  174.4670  141.0900 C   0  0  0  0  0  2  0  0  0  0  0  0
  197.2090  174.9510  139.8410 S   0  0  0  0  0  0  0  0  0  0  0  0
  196.0050  175.2550  138.6530 O   0  0  0  0  0  0  0  0  0  0  0  0
  196.5780  174.8390  137.4490 C   0  0  0  0  0  2  0  0  0  0  0  0
  195.3520  176.0740  135.8330 O   0  0  0  0  0  1  0  0  0  0  0  0
  195.5230  174.7890  136.3490 C   0  0  0  0  0  0  0  0  0  0  0  0
  195.9480  173.9490  135.3200 O   0  0  0  0  0  1  0  0  0  0  0  0
  194.1700  174.3210  136.8970 C   0  0  0  0  0  2  0  0  0  0  0  0
  193.4730  173.1280  136.2090 C   0  0  2  0  0  3  0  0  0  0  0  0
  192.4240  173.5200  135.3750 O   0  0  0  0  0  1  0  0  0  0  0  0
  193.1420  171.8580  137.0510 C   0  0  2  0  0  0  0  0  0  0  0  0
  191.8840  169.3540  137.6980 O   0  0  0  0  0  1  0  0  0  0  0  0
  190.9340  170.9300  136.0710 C   0  0  1  0  0  3  0  0  0  0  0  0
  189.7500  170.4380  138.3830 C   0  0  0  0  0  1  0  0  0  0  0  0
  190.9910  170.4100  137.5030 C   0  0  1  0  0  0  0  0  0  0  0  0
  189.5890  171.5380  135.7120 C   0  0  0  0  0  1  0  0  0  0  0  0
  191.5940  171.7720  137.1720 C   0  0  1  0  0  3  0  0  0  0  0  0
  195.1780  171.7630  138.6230 C   0  0  0  0  0  2  0  0  0  0  0  0
  194.2010  170.7180  139.1170 C   0  0  0  0  0  2  0  0  0  0  0  0
  193.6830  172.0110  138.5050 C   0  0  0  0  0  3  0  0  0  0  0  0
  193.6390  170.6900  136.4010 O   0  0  0  0  0  0  0  0  0  0  0  0
  194.3500  171.0630  135.3490 O   0  0  0  0  0  1  0  0  0  0  0  0
  193.2710  173.7070  144.6240 C   0  0  2  0  0  3  0  0  0  0  0  0
  194.1960  174.7290  145.2830 C   0  0  0  0  0  2  0  0  0  0  0  0
  195.5950  176.3190  144.2040 O   0  0  0  0  0  1  0  0  0  0  0  0
  194.2610  176.0160  144.4780 C   0  0  2  0  0  3  0  0  0  0  0  0
  193.6280  177.1530  145.2660 C   0  0  0  0  0  2  0  0  0  0  0  0
  193.4690  176.7580  146.7210 C   0  0  0  0  0  1  0  0  0  0  0  0
  192.0640  173.4520  145.5090 C   0  0  0  0  0  2  0  0  0  0  0  0
  191.4830  171.6180  141.4910 C   0  0  0  0  0  1  0  0  0  0  0  0
  190.4950  174.0180  141.7080 C   0  0  2  0  0  3  0  0  0  0  0  0
  191.2580  172.8350  142.3710 C   0  0  1  0  0  3  0  0  0  0  0  0
  190.7380  175.0170  144.0550 C   0  0  2  0  0  3  0  0  0  0  0  0
  189.9310  174.9970  142.7490 C   0  0  0  0  0  2  0  0  0  0  0  0
  190.6400  172.4560  143.7090 C   0  0  0  0  0  2  0  0  0  0  0  0
  190.7760  173.6150  144.7110 C   0  0  1  0  0  3  0  0  0  0  0  0
  188.9300  175.5350  145.7380 C   0  0  0  0  0  2  0  0  0  0  0  0
  189.6430  177.2940  144.2770 C   0  0  0  0  0  2  0  0  0  0  0  0
  188.4530  177.7590  144.9690 N   0  0  0  0  0  2  0  0  0  0  0  0
  187.8380  176.5600  145.5220 C   0  0  2  0  0  3  0  0  0  0  0  0
  190.1480  176.0670  145.0110 C   0  0  2  0  0  3  0  0  0  0  0  0
  187.1630  176.8800  146.8460 C   0  0  0  0  0  2  0  0  0  0  0  0
  186.3180  178.0580  146.7130 N   0  0  0  0  0  0  0  0  0  0  0  0
  186.3450  178.7340  147.9960 C   0  0  0  0  0  1  0  0  0  0  0  0
  184.9580  177.5870  146.5220 C   0  0  0  0  0  1  0  0  0  0  0  0
  188.2780  174.5330  140.9900 C   0  0  0  0  0  1  0  0  0  0  0  0
  189.4160  173.6530  140.7780 N   0  0  0  0  0  0  0  0  0  0  0  0
  189.8340  173.8050  139.4960 O   0  0  0  0  0  1  0  0  0  0  0  0
  2  6  1  6  0  0  0
  2  4  1  0  0  0  0
  2  5  1  0  0  0  0
  3  1  1  0  0  0  0
  4 30  1  1  0  0  0
  4  1  1  0  0  0  0
  5  3  1  0  0  0  0
  7  6  1  0  0  0  0
  8  7  1  0  0  0  0
  9  8  1  0  0  0  0
 10  9  1  0  0  0  0
 11 10  1  0  0  0  0
 12 13  1  0  0  0  0
 13 15  1  0  0  0  0
 13 11  1  0  0  0  0
 14 13  1  0  0  0  0
 16 17  1  1  0  0  0
 16 15  1  0  0  0  0
 16 18  1  0  0  0  0
 18 28  1  6  0  0  0
 18 27  1  0  0  0  0
 20 23  1  1  0  0  0
 20 24  1  0  0  0  0
 20 22  1  0  0  0  0
 22 19  1  0  0  0  0
 22 21  1  1  0  0  0
 24 18  1  6  0  0  0
 24 22  1  0  0  0  0
 25 26  1  0  0  0  0
 27 25  1  0  0  0  0
 27 26  1  0  0  0  0
 29 28  1  0  0  0  0
 30 31  1  1  0  0  0
 30 36  1  0  0  0  0
 33 32  1  1  0  0  0
 33 34  1  0  0  0  0
 33 31  1  0  0  0  0
 34 35  1  0  0  0  0
 38 54  1  1  0  0  0
 38 39  1  0  0  0  0
 38 41  1  0  0  0  0
 39 37  1  6  0  0  0
 39 42  1  0  0  0  0
 40 41  1  6  0  0  0
 40 43  1  0  0  0  0
 40 48  1  0  0  0  0
 42 43  1  0  0  0  0
 43 36  1  6  0  0  0
 45 46  1  0  0  0  0
 46 47  1  0  0  0  0
 47 44  1  0  0  0  0
 47 49  1  1  0  0  0
 48 45  1  6  0  0  0
 48 44  1  0  0  0  0
 50 49  1  0  0  0  0
 50 51  1  0  0  0  0
 52 50  1  0  0  0  0
 54 53  1  0  0  0  0
 55 54  1  0  0  0  0
M  END
>  <MODEL>
7

>  <REMARK>
 VINA RESULT:      -4.6      2.439      5.264
  Name = 
  23 active torsions:
  status: ('A' for Active; 'I' for Inactive)
    1  A    between atoms: C_1  and  C_21
    2  A    between atoms: C_1  and  O_29
    3  A    between atoms: C_1  and  C_38
    4  A    between atoms: C_1  and  C_53
    5  A    between atoms: C_2  and  C_19
    6  A    between atoms: C_2  and  C_28
    7  A    between atoms: C_2  and  C_44
    8  A    between atoms: C_4  and  C_40
    9  A    between atoms: C_8  and  C_20
   10  A    between atoms: C_8  and  O_43
   11  A    between atoms: N_10  and  C_32
   12  A    between atoms: C_16  and  N_17
   13  A    between atoms: C_19  and  C_40
   14  A    between atoms: C_20  and  C_42
   15  A    between atoms: C_21  and  C_42
   16  A    between atoms: C_27  and  C_31
   17  A    between atoms: C_28  and  C_49
   18  A    between atoms: C_31  and  C_54
   19  A    between atoms: C_32  and  C_48
   20  A    between atoms: C_33  and  C_52
   21  A    between atoms: S_35  and  O_43
   22  A    between atoms: S_35  and  C_51
   23  A    between atoms: C_51  and  C_54
                            x       y       z     vdW  Elec       q    Type
                         _______ _______ _______ _____ _____    ______ ____

>  <TORSDO>
F 23

$$$$
=
 OpenBabel11052419483D

 55 59  0  0  1  0  0  0  0  0999 V2000
  195.6280  176.3950  141.6470 O   0  0  0  0  0  0  0  0  0  0  0  0
  197.1170  174.6220  142.1930 C   0  0  1  0  0  3  0  0  0  0  0  0
  196.4080  176.8230  142.7300 C   0  0  0  0  0  2  0  0  0  0  0  0
  195.7670  174.9970  141.6220 C   0  0  2  0  0  3  0  0  0  0  0  0
  197.5730  175.8740  142.8850 C   0  0  0  0  0  2  0  0  0  0  0  0
  196.9510  173.4950  143.1960 C   0  0  0  0  0  2  0  0  0  0  0  0
  195.4930  173.0840  143.2700 C   0  0  0  0  0  2  0  0  0  0  0  0
  195.0110  173.1160  144.7070 C   0  0  0  0  0  2  0  0  0  0  0  0
  196.1500  174.0950  145.7340 S   0  0  0  0  0  0  0  0  0  0  0  0
  195.1630  175.4990  145.6330 O   0  0  0  0  0  0  0  0  0  0  0  0
  193.8530  175.0130  145.6030 C   0  0  0  0  0  2  0  0  0  0  0  0
  192.2530  175.0590  147.3580 O   0  0  0  0  0  1  0  0  0  0  0  0
  192.9470  175.8810  146.4690 C   0  0  0  0  0  0  0  0  0  0  0  0
  193.7140  176.7840  147.2050 O   0  0  0  0  0  1  0  0  0  0  0  0
  191.9120  176.6280  145.6190 C   0  0  0  0  0  2  0  0  0  0  0  0
  190.5220  176.9020  146.2290 C   0  0  2  0  0  3  0  0  0  0  0  0
  190.5680  177.1200  147.6080 O   0  0  0  0  0  1  0  0  0  0  0  0
  189.3160  176.0150  145.7920 C   0  0  2  0  0  0  0  0  0  0  0  0
  189.6000  177.5330  143.3660 O   0  0  0  0  0  1  0  0  0  0  0  0
  188.6080  175.2870  143.4130 C   0  0  1  0  0  3  0  0  0  0  0  0
  190.9300  175.7560  142.2400 C   0  0  0  0  0  1  0  0  0  0  0  0
  189.8380  176.1660  143.2170 C   0  0  1  0  0  0  0  0  0  0  0  0
  188.6760  173.9860  142.6320 C   0  0  0  0  0  1  0  0  0  0  0  0
  189.7200  175.3020  144.4710 C   0  0  1  0  0  3  0  0  0  0  0  0
  187.5780  177.7220  146.6250 C   0  0  0  0  0  2  0  0  0  0  0  0
  186.8040  176.5040  146.1670 C   0  0  0  0  0  2  0  0  0  0  0  0
  188.0830  176.9040  145.4470 C   0  0  0  0  0  3  0  0  0  0  0  0
  189.0280  175.0430  146.7950 O   0  0  0  0  0  0  0  0  0  0  0  0
  189.4200  173.8580  146.3600 O   0  0  0  0  0  1  0  0  0  0  0  0
  195.5840  174.4380  140.2090 C   0  0  2  0  0  3  0  0  0  0  0  0
  196.7340  174.8120  139.2760 C   0  0  0  0  0  2  0  0  0  0  0  0
  197.3330  173.5640  137.3440 O   0  0  0  0  0  1  0  0  0  0  0  0
  197.4320  173.5740  138.7350 C   0  0  2  0  0  3  0  0  0  0  0  0
  196.7820  172.3230  139.3040 C   0  0  0  0  0  2  0  0  0  0  0  0
  197.7950  171.5200  140.0980 C   0  0  0  0  0  1  0  0  0  0  0  0
  194.2670  174.9300  139.6340 C   0  0  0  0  0  2  0  0  0  0  0  0
  192.5900  175.5020  135.5480 C   0  0  0  0  0  1  0  0  0  0  0  0
  191.1000  174.0370  137.1050 C   0  0  2  0  0  3  0  0  0  0  0  0
  192.3970  174.8770  136.9190 C   0  0  1  0  0  3  0  0  0  0  0  0
  192.1290  173.6240  139.4150 C   0  0  2  0  0  3  0  0  0  0  0  0
  191.1860  173.1030  138.3210 C   0  0  0  0  0  2  0  0  0  0  0  0
  193.6290  174.1010  137.3630 C   0  0  0  0  0  2  0  0  0  0  0  0
  193.5680  173.8120  138.8710 C   0  0  1  0  0  3  0  0  0  0  0  0
  193.2900  171.7240  140.6010 C   0  0  0  0  0  2  0  0  0  0  0  0
  190.8950  171.7530  140.6020 C   0  0  0  0  0  2  0  0  0  0  0  0
  191.3140  170.4630  141.1230 N   0  0  0  0  0  2  0  0  0  0  0  0
  192.7130  170.3320  140.7410 C   0  0  2  0  0  3  0  0  0  0  0  0
  192.1050  172.6680  140.6180 C   0  0  2  0  0  3  0  0  0  0  0  0
  193.4770  169.5620  141.8060 C   0  0  0  0  0  2  0  0  0  0  0  0
  194.9050  169.5910  141.5270 N   0  0  0  0  0  0  0  0  0  0  0  0
  195.1770  168.4710  140.6450 C   0  0  0  0  0  1  0  0  0  0  0  0
  195.5890  169.3090  142.7760 C   0  0  0  0  0  1  0  0  0  0  0  0
  190.9040  171.8390  136.1970 C   0  0  0  0  0  1  0  0  0  0  0  0
  190.6660  173.2500  135.9410 N   0  0  0  0  0  0  0  0  0  0  0  0
  189.3360  173.4220  135.7300 O   0  0  0  0  0  1  0  0  0  0  0  0
  1  3  1  0  0  0  0
  2  5  1  0  0  0  0
  2  6  1  1  0  0  0
  3  5  1  0  0  0  0
  4 30  1  6  0  0  0
  4  1  1  0  0  0  0
  4  2  1  0  0  0  0
  6  7  1  0  0  0  0
  7  8  1  0  0  0  0
  8  9  1  0  0  0  0
 10  9  1  0  0  0  0
 11 10  1  0  0  0  0
 11 13  1  0  0  0  0
 13 14  1  0  0  0  0
 13 12  1  0  0  0  0
 15 16  1  0  0  0  0
 15 13  1  0  0  0  0
 16 17  1  1  0  0  0
 18 16  1  0  0  0  0
 18 28  1  1  0  0  0
 20 23  1  6  0  0  0
 20 24  1  0  0  0  0
 22 21  1  6  0  0  0
 22 19  1  0  0  0  0
 22 20  1  0  0  0  0
 22 24  1  0  0  0  0
 24 18  1  1  0  0  0
 26 25  1  0  0  0  0
 27 18  1  0  0  0  0
 27 26  1  0  0  0  0
 27 25  1  0  0  0  0
 29 28  1  0  0  0  0
 30 31  1  6  0  0  0
 33 32  1  6  0  0  0
 33 31  1  0  0  0  0
 33 34  1  0  0  0  0
 34 35  1  0  0  0  0
 36 30  1  0  0  0  0
 38 54  1  6  0  0  0
 38 41  1  0  0  0  0
 39 37  1  6  0  0  0
 39 38  1  0  0  0  0
 39 42  1  0  0  0  0
 40 41  1  6  0  0  0
 40 48  1  0  0  0  0
 42 43  1  0  0  0  0
 43 40  1  0  0  0  0
 43 36  1  1  0  0  0
 44 47  1  0  0  0  0
 45 48  1  0  0  0  0
 45 46  1  0  0  0  0
 47 46  1  0  0  0  0
 47 49  1  1  0  0  0
 48 44  1  6  0  0  0
 50 49  1  0  0  0  0
 50 52  1  0  0  0  0
 51 50  1  0  0  0  0
 54 53  1  0  0  0  0
 55 54  1  0  0  0  0
M  END
>  <MODEL>
8

>  <REMARK>
 VINA RESULT:      -4.5      3.350      9.794
  Name = 
  23 active torsions:
  status: ('A' for Active; 'I' for Inactive)
    1  A    between atoms: C_1  and  C_21
    2  A    between atoms: C_1  and  O_29
    3  A    between atoms: C_1  and  C_38
    4  A    between atoms: C_1  and  C_53
    5  A    between atoms: C_2  and  C_19
    6  A    between atoms: C_2  and  C_28
    7  A    between atoms: C_2  and  C_44
    8  A    between atoms: C_4  and  C_40
    9  A    between atoms: C_8  and  C_20
   10  A    between atoms: C_8  and  O_43
   11  A    between atoms: N_10  and  C_32
   12  A    between atoms: C_16  and  N_17
   13  A    between atoms: C_19  and  C_40
   14  A    between atoms: C_20  and  C_42
   15  A    between atoms: C_21  and  C_42
   16  A    between atoms: C_27  and  C_31
   17  A    between atoms: C_28  and  C_49
   18  A    between atoms: C_31  and  C_54
   19  A    between atoms: C_32  and  C_48
   20  A    between atoms: C_33  and  C_52
   21  A    between atoms: S_35  and  O_43
   22  A    between atoms: S_35  and  C_51
   23  A    between atoms: C_51  and  C_54
                            x       y       z     vdW  Elec       q    Type
                         _______ _______ _______ _____ _____    ______ ____

>  <TORSDO>
F 23

$$$$
=
 OpenBabel11052419483D

 55 59  0  0  1  0  0  0  0  0999 V2000
  195.7420  171.8230  142.0800 O   0  0  0  0  0  0  0  0  0  0  0  0
  195.7870  173.4650  143.8000 C   0  0  1  0  0  3  0  0  0  0  0  0
  196.4380  172.9330  141.5800 C   0  0  0  0  0  2  0  0  0  0  0  0
  195.0310  172.3040  143.1930 C   0  0  2  0  0  3  0  0  0  0  0  0
  196.7750  173.8450  142.7350 C   0  0  0  0  0  2  0  0  0  0  0  0
  194.8300  174.6130  144.0660 C   0  0  0  0  0  2  0  0  0  0  0  0
  194.4500  174.6360  145.5340 C   0  0  0  0  0  2  0  0  0  0  0  0
  193.1280  175.3530  145.7220 C   0  0  0  0  0  2  0  0  0  0  0  0
  192.8970  176.6060  144.4240 S   0  0  0  0  0  0  0  0  0  0  0  0
  191.2950  176.9600  144.9370 O   0  0  0  0  0  0  0  0  0  0  0  0
  191.4130  177.2530  146.2980 C   0  0  0  0  0  2  0  0  0  0  0  0
  190.0110  175.7420  147.4790 O   0  0  0  0  0  1  0  0  0  0  0  0
  190.0740  177.0510  147.0000 C   0  0  0  0  0  0  0  0  0  0  0  0
  189.9670  177.9260  148.0820 O   0  0  0  0  0  1  0  0  0  0  0  0
  188.9020  177.2520  146.0320 C   0  0  0  0  0  2  0  0  0  0  0  0
  187.4700  177.2710  146.6090 C   0  0  2  0  0  3  0  0  0  0  0  0
  187.2690  176.2990  147.5910 O   0  0  0  0  0  1  0  0  0  0  0  0
  186.2630  177.4090  145.6310 C   0  0  2  0  0  0  0  0  0  0  0  0
  184.4960  177.8090  143.3980 O   0  0  0  0  0  1  0  0  0  0  0  0
  186.5070  176.4060  143.2580 C   0  0  1  0  0  3  0  0  0  0  0  0
  186.3090  178.6860  141.9350 C   0  0  0  0  0  1  0  0  0  0  0  0
  185.8490  177.7670  143.0570 C   0  0  1  0  0  0  0  0  0  0  0  0
  187.6750  176.1650  142.3180 C   0  0  0  0  0  1  0  0  0  0  0  0
  186.8440  177.5720  144.1980 C   0  0  1  0  0  3  0  0  0  0  0  0
  186.2800  179.7590  146.6820 C   0  0  0  0  0  2  0  0  0  0  0  0
  185.2130  178.9670  147.4070 C   0  0  0  0  0  2  0  0  0  0  0  0
  185.4690  178.7170  145.9290 C   0  0  0  0  0  3  0  0  0  0  0  0
  185.4440  176.2440  145.6890 O   0  0  0  0  0  0  0  0  0  0  0  0
  184.4430  176.4720  146.5220 O   0  0  0  0  0  1  0  0  0  0  0  0
  194.7830  171.1990  144.2230 C   0  0  2  0  0  3  0  0  0  0  0  0
  195.4220  169.8700  143.8250 C   0  0  0  0  0  2  0  0  0  0  0  0
  197.4740  168.6840  144.0000 O   0  0  0  0  0  1  0  0  0  0  0  0
  196.6320  169.5580  144.6890 C   0  0  2  0  0  3  0  0  0  0  0  0
  196.1870  168.9180  145.9940 C   0  0  0  0  0  2  0  0  0  0  0  0
  197.1710  169.2400  147.1000 C   0  0  0  0  0  1  0  0  0  0  0  0
  193.2890  171.0190  144.4240 C   0  0  0  0  0  2  0  0  0  0  0  0
  189.8720  173.8720  144.5640 C   0  0  0  0  0  1  0  0  0  0  0  0
  189.5310  171.8990  142.8980 C   0  0  2  0  0  3  0  0  0  0  0  0
  190.4330  172.6000  143.9540 C   0  0  1  0  0  3  0  0  0  0  0  0
  191.5490  170.3270  142.7450 C   0  0  2  0  0  3  0  0  0  0  0  0
  190.3210  170.9080  142.0290 C   0  0  0  0  0  2  0  0  0  0  0  0
  191.8470  172.8040  143.4290 C   0  0  0  0  0  2  0  0  0  0  0  0
  192.5280  171.4480  143.1760 C   0  0  1  0  0  3  0  0  0  0  0  0
  193.0400  169.9760  140.7400 C   0  0  0  0  0  2  0  0  0  0  0  0
  191.2460  168.4290  141.0910 C   0  0  0  0  0  2  0  0  0  0  0  0
  191.7950  168.1660  139.7720 N   0  0  0  0  0  2  0  0  0  0  0  0
  192.5840  169.3450  139.4430 C   0  0  2  0  0  3  0  0  0  0  0  0
  192.2400  169.3000  141.8350 C   0  0  2  0  0  3  0  0  0  0  0  0
  193.7920  168.9520  138.6080 C   0  0  0  0  0  2  0  0  0  0  0  0
  194.2900  170.1000  137.8650 N   0  0  0  0  0  0  0  0  0  0  0  0
  193.1640  170.6300  137.1190 C   0  0  0  0  0  1  0  0  0  0  0  0
  195.2340  169.5950  136.8840 C   0  0  0  0  0  1  0  0  0  0  0  0
  189.1950  172.5890  140.6380 C   0  0  0  0  0  1  0  0  0  0  0  0
  188.7620  172.7860  142.0110 N   0  0  0  0  0  0  0  0  0  0  0  0
  187.4410  172.4880  142.0840 O   0  0  0  0  0  1  0  0  0  0  0  0
  1  4  1  0  0  0  0
  2  6  1  6  0  0  0
  3  1  1  0  0  0  0
  3  5  1  0  0  0  0
  4  2  1  0  0  0  0
  4 30  1  1  0  0  0
  5  2  1  0  0  0  0
  6  7  1  0  0  0  0
  7  8  1  0  0  0  0
  9 10  1  0  0  0  0
  9  8  1  0  0  0  0
 10 11  1  0  0  0  0
 11 13  1  0  0  0  0
 13 12  1  0  0  0  0
 13 14  1  0  0  0  0
 15 16  1  0  0  0  0
 15 13  1  0  0  0  0
 16 17  1  6  0  0  0
 18 28  1  1  0  0  0
 18 27  1  0  0  0  0
 18 16  1  0  0  0  0
 20 23  1  6  0  0  0
 20 24  1  0  0  0  0
 22 21  1  6  0  0  0
 22 20  1  0  0  0  0
 22 19  1  0  0  0  0
 22 24  1  0  0  0  0
 24 18  1  1  0  0  0
 25 26  1  0  0  0  0
 27 25  1  0  0  0  0
 27 26  1  0  0  0  0
 28 29  1  0  0  0  0
 30 31  1  6  0  0  0
 30 36  1  0  0  0  0
 31 33  1  0  0  0  0
 33 32  1  6  0  0  0
 33 34  1  0  0  0  0
 34 35  1  0  0  0  0
 38 54  1  6  0  0  0
 38 39  1  0  0  0  0
 39 37  1  6  0  0  0
 40 41  1  6  0  0  0
 40 43  1  0  0  0  0
 41 38  1  0  0  0  0
 42 39  1  0  0  0  0
 43 42  1  0  0  0  0
 43 36  1  1  0  0  0
 45 48  1  0  0  0  0
 46 45  1  0  0  0  0
 47 49  1  6  0  0  0
 47 46  1  0  0  0  0
 47 44  1  0  0  0  0
 48 44  1  6  0  0  0
 48 40  1  0  0  0  0
 50 49  1  0  0  0  0
 51 50  1  0  0  0  0
 52 50  1  0  0  0  0
 53 54  1  0  0  0  0
 54 55  1  0  0  0  0
M  END
>  <MODEL>
9

>  <REMARK>
 VINA RESULT:      -4.4      3.699     10.481
  Name = 
  23 active torsions:
  status: ('A' for Active; 'I' for Inactive)
    1  A    between atoms: C_1  and  C_21
    2  A    between atoms: C_1  and  O_29
    3  A    between atoms: C_1  and  C_38
    4  A    between atoms: C_1  and  C_53
    5  A    between atoms: C_2  and  C_19
    6  A    between atoms: C_2  and  C_28
    7  A    between atoms: C_2  and  C_44
    8  A    between atoms: C_4  and  C_40
    9  A    between atoms: C_8  and  C_20
   10  A    between atoms: C_8  and  O_43
   11  A    between atoms: N_10  and  C_32
   12  A    between atoms: C_16  and  N_17
   13  A    between atoms: C_19  and  C_40
   14  A    between atoms: C_20  and  C_42
   15  A    between atoms: C_21  and  C_42
   16  A    between atoms: C_27  and  C_31
   17  A    between atoms: C_28  and  C_49
   18  A    between atoms: C_31  and  C_54
   19  A    between atoms: C_32  and  C_48
   20  A    between atoms: C_33  and  C_52
   21  A    between atoms: S_35  and  O_43
   22  A    between atoms: S_35  and  C_51
   23  A    between atoms: C_51  and  C_54
                            x       y       z     vdW  Elec       q    Type
                         _______ _______ _______ _____ _____    ______ ____

>  <TORSDO>
F 23

$$$$
