=
 OpenBabel11052417123D

 30 35  0  0  1  0  0  0  0  0999 V2000
  188.0320  176.5910  142.0120 C   0  0  1  0  0  3  0  0  0  0  0  0
  185.8660  177.5540  141.0480 C   0  0  0  0  0  0  0  0  0  0  0  0
  186.4940  176.8800  145.7880 C   0  0  0  0  0  2  0  0  0  0  0  0
  188.6220  176.0430  143.3220 C   0  0  1  0  0  3  0  0  0  0  0  0
  187.9560  175.5190  141.0750 O   0  0  0  0  0  0  0  0  0  0  0  0
  191.2680  174.1360  141.5500 O   0  0  0  0  0  0  0  0  0  0  0  0
  191.2750  175.8950  145.2770 C   0  0  1  0  0  3  0  0  0  0  0  0
  190.1840  174.7310  141.7970 C   0  0  0  0  0  0  0  0  0  0  0  0
  188.9590  173.8220  139.8180 C   0  0  0  0  0  3  0  0  0  0  0  0
  190.2290  176.4140  146.2690 C   0  0  2  0  0  3  0  0  0  0  0  0
  187.6680  176.3190  146.4760 C   0  0  0  0  0  0  0  0  0  0  0  0
  189.0390  174.6660  140.8530 C   0  0  0  0  0  0  0  0  0  0  0  0
  190.0750  175.5850  143.0410 C   0  0  2  0  0  3  0  0  0  0  0  0
  184.6790  178.1950  141.2210 N   0  0  0  0  0  0  0  0  0  0  0  0
  190.3880  175.5400  147.4970 C   0  0  0  0  0  2  0  0  0  0  0  0
  192.3630  175.2440  146.1180 C   0  0  0  0  0  2  0  0  0  0  0  0
  186.3400  177.1710  139.3980 Cl  0  0  0  0  0  0  0  0  0  0  0  0
  187.1490  177.6550  144.6500 C   0  0  1  0  0  3  0  0  0  0  0  0
  184.2550  178.6150  142.4370 C   0  0  0  0  0  3  0  0  0  0  0  0
  186.6860  177.2680  142.1690 C   0  0  0  0  0  0  0  0  0  0  0  0
  188.5660  177.0760  144.4530 C   0  0  1  0  0  3  0  0  0  0  0  0
  187.6060  175.7980  147.6200 O   0  0  0  0  0  0  0  0  0  0  0  0
  188.8690  176.4140  145.7160 N   0  0  0  0  0  0  0  0  0  0  0  0
  191.8640  175.2130  147.5520 C   0  0  0  0  0  2  0  0  0  0  0  0
  189.9660  173.7170  144.7960 C   0  0  0  0  0  1  0  0  0  0  0  0
  185.0540  178.4150  143.5570 C   0  0  0  0  0  3  0  0  0  0  0  0
  186.2770  177.7520  143.4300 C   0  0  0  0  0  0  0  0  0  0  0  0
  190.7600  174.8940  144.2290 C   0  0  2  0  0  3  0  0  0  0  0  0
  190.6960  173.3040  138.1440 C   0  0  0  0  0  1  0  0  0  0  0  0
  190.0080  172.8380  139.4130 C   0  0  0  0  0  2  0  0  0  0  0  0
  1  5  1  6  0  0  0
  1 20  1  0  0  0  0
  1  4  1  0  0  0  0
  2 14  2  0  0  0  0
  2 20  1  0  0  0  0
  3 11  1  0  0  0  0
  4 21  1  0  0  0  0
  6  8  2  0  0  0  0
  7 16  1  0  0  0  0
  7 10  1  0  0  0  0
  8 13  1  0  0  0  0
  9 12  2  0  0  0  0
 10 15  1  0  0  0  0
 11 22  2  0  0  0  0
 12  5  1  0  0  0  0
 12  8  1  0  0  0  0
 13  4  1  0  0  0  0
 13 28  1  0  0  0  0
 14 19  1  0  0  0  0
 15 24  1  0  0  0  0
 16 24  1  0  0  0  0
 17  2  1  0  0  0  0
 18  3  1  0  0  0  0
 19 26  2  0  0  0  0
 20 27  2  0  0  0  0
 21 18  1  0  0  0  0
 21 23  1  0  0  0  0
 23 10  1  0  0  0  0
 23 11  1  0  0  0  0
 27 26  1  0  0  0  0
 27 18  1  0  0  0  0
 28 25  1  0  0  0  0
 28  7  1  0  0  0  0
 29 30  1  0  0  0  0
 30  9  1  0  0  0  0
M  END
>  <MODEL>
1

>  <REMARK>
 VINA RESULT:      -8.8      0.000      0.000
  Name = 
  1 active torsions:
  status: ('A' for Active; 'I' for Inactive)
    1  A    between atoms: C_9  and  C_21
                            x       y       z     vdW  Elec       q    Type
                         _______ _______ _______ _____ _____    ______ ____

>  <TORSDO>
F 1

$$$$
=
 OpenBabel11052417123D

 30 35  0  0  1  0  0  0  0  0999 V2000
  188.4080  176.4850  141.9640 C   0  0  1  0  0  3  0  0  0  0  0  0
  186.2270  177.7940  141.6810 C   0  0  0  0  0  0  0  0  0  0  0  0
  188.1680  176.9380  146.0190 C   0  0  0  0  0  2  0  0  0  0  0  0
  189.2790  175.8260  143.0460 C   0  0  1  0  0  3  0  0  0  0  0  0
  187.8830  175.4560  141.1280 O   0  0  0  0  0  0  0  0  0  0  0  0
  190.9240  173.5620  140.6070 O   0  0  0  0  0  0  0  0  0  0  0  0
  192.3470  175.2260  144.0980 C   0  0  1  0  0  3  0  0  0  0  0  0
  190.0740  174.3150  141.1560 C   0  0  0  0  0  0  0  0  0  0  0  0
  188.1750  173.6470  139.6750 C   0  0  0  0  0  3  0  0  0  0  0  0
  191.7500  175.8830  145.3460 C   0  0  2  0  0  3  0  0  0  0  0  0
  189.3940  176.1870  146.3310 C   0  0  0  0  0  0  0  0  0  0  0  0
  188.6990  174.4490  140.6110 C   0  0  0  0  0  0  0  0  0  0  0  0
  190.4860  175.1510  142.3480 C   0  0  2  0  0  3  0  0  0  0  0  0
  185.2650  178.6100  142.1890 N   0  0  0  0  0  0  0  0  0  0  0  0
  192.1410  174.9720  146.4930 C   0  0  0  0  0  2  0  0  0  0  0  0
  193.5260  174.3960  144.5850 C   0  0  0  0  0  2  0  0  0  0  0  0
  186.1070  177.3730  139.9770 Cl  0  0  0  0  0  0  0  0  0  0  0  0
  188.5530  177.6220  144.7120 C   0  0  1  0  0  3  0  0  0  0  0  0
  185.3060  179.0670  143.4640 C   0  0  0  0  0  3  0  0  0  0  0  0
  187.2970  177.3610  142.5050 C   0  0  0  0  0  0  0  0  0  0  0  0
  189.7340  176.8330  144.1080 C   0  0  1  0  0  3  0  0  0  0  0  0
  189.6070  175.6600  147.4540 O   0  0  0  0  0  0  0  0  0  0  0  0
  190.3030  176.1070  145.2370 N   0  0  0  0  0  0  0  0  0  0  0  0
  193.4930  174.4160  146.1030 C   0  0  0  0  0  2  0  0  0  0  0  0
  190.6330  173.2890  144.1070 C   0  0  0  0  0  1  0  0  0  0  0  0
  186.3680  178.7230  144.2910 C   0  0  0  0  0  3  0  0  0  0  0  0
  187.3750  177.8790  143.8160 C   0  0  0  0  0  0  0  0  0  0  0  0
  191.3860  174.3380  143.2890 C   0  0  2  0  0  3  0  0  0  0  0  0
  189.0940  172.8430  137.5320 C   0  0  0  0  0  1  0  0  0  0  0  0
  188.8830  172.5190  138.9990 C   0  0  0  0  0  2  0  0  0  0  0  0
  1  5  1  1  0  0  0
  1 20  1  0  0  0  0
  1  4  1  0  0  0  0
  2 14  2  0  0  0  0
  2 20  1  0  0  0  0
  3 11  1  0  0  0  0
  4 21  1  0  0  0  0
  6  8  2  0  0  0  0
  7 16  1  0  0  0  0
  7 10  1  0  0  0  0
  8 13  1  0  0  0  0
  9 12  2  0  0  0  0
 10 15  1  0  0  0  0
 11 22  2  0  0  0  0
 12  5  1  0  0  0  0
 12  8  1  0  0  0  0
 13  4  1  0  0  0  0
 13 28  1  0  0  0  0
 14 19  1  0  0  0  0
 16 24  1  0  0  0  0
 17  2  1  0  0  0  0
 18  3  1  0  0  0  0
 19 26  2  0  0  0  0
 20 27  2  0  0  0  0
 21 18  1  0  0  0  0
 21 23  1  0  0  0  0
 23 10  1  0  0  0  0
 23 11  1  0  0  0  0
 24 15  1  0  0  0  0
 27 26  1  0  0  0  0
 27 18  1  0  0  0  0
 28  7  1  0  0  0  0
 28 25  1  0  0  0  0
 29 30  1  0  0  0  0
 30  9  1  0  0  0  0
M  END
>  <MODEL>
2

>  <REMARK>
 VINA RESULT:      -8.5      1.109      1.382
  Name = 
  1 active torsions:
  status: ('A' for Active; 'I' for Inactive)
    1  A    between atoms: C_9  and  C_21
                            x       y       z     vdW  Elec       q    Type
                         _______ _______ _______ _____ _____    ______ ____

>  <TORSDO>
F 1

$$$$
=
 OpenBabel11052417123D

 30 35  0  0  1  0  0  0  0  0999 V2000
  187.1350  176.8050  145.4990 C   0  0  1  0  0  3  0  0  0  0  0  0
  185.2810  178.4610  146.1070 C   0  0  0  0  0  0  0  0  0  0  0  0
  186.3010  177.3100  141.5300 C   0  0  0  0  0  2  0  0  0  0  0  0
  187.9260  176.2820  144.2890 C   0  0  1  0  0  3  0  0  0  0  0  0
  188.0340  177.5230  146.3420 O   0  0  0  0  0  0  0  0  0  0  0  0
  190.7600  175.1420  146.3970 O   0  0  0  0  0  0  0  0  0  0  0  0
  189.2970  173.6520  142.8450 C   0  0  1  0  0  3  0  0  0  0  0  0
  189.7520  175.7820  145.9920 C   0  0  0  0  0  0  0  0  0  0  0  0
  189.9630  177.6330  147.6580 C   0  0  0  0  0  3  0  0  0  0  0  0
  188.3950  174.1510  141.7120 C   0  0  2  0  0  3  0  0  0  0  0  0
  187.3450  176.3990  141.0350 C   0  0  0  0  0  0  0  0  0  0  0  0
  189.2730  176.9940  146.7060 C   0  0  0  0  0  0  0  0  0  0  0  0
  188.9750  175.2650  144.8020 C   0  0  2  0  0  3  0  0  0  0  0  0
  184.1840  179.1850  145.7600 N   0  0  0  0  0  0  0  0  0  0  0  0
  189.2820  174.1660  140.4830 C   0  0  0  0  0  2  0  0  0  0  0  0
  190.3880  172.8270  142.1790 C   0  0  0  0  0  2  0  0  0  0  0  0
  185.7880  178.5270  147.7910 Cl  0  0  0  0  0  0  0  0  0  0  0  0
  185.8660  176.6090  142.8120 C   0  0  1  0  0  3  0  0  0  0  0  0
  183.6540  179.1400  144.5130 C   0  0  0  0  0  3  0  0  0  0  0  0
  185.9350  177.6560  145.1400 C   0  0  0  0  0  0  0  0  0  0  0  0
  187.0090  175.6600  143.2300 C   0  0  1  0  0  3  0  0  0  0  0  0
  187.8160  176.4670  139.8700 O   0  0  0  0  0  0  0  0  0  0  0  0
  187.7730  175.4480  142.0060 N   0  0  0  0  0  0  0  0  0  0  0  0
  190.2340  173.0060  140.6790 C   0  0  0  0  0  2  0  0  0  0  0  0
  190.6490  175.8530  142.9490 C   0  0  0  0  0  1  0  0  0  0  0  0
  184.2210  178.3160  143.5480 C   0  0  0  0  0  3  0  0  0  0  0  0
  185.3560  177.5610  143.8560 C   0  0  0  0  0  0  0  0  0  0  0  0
  189.9330  174.7450  143.7200 C   0  0  2  0  0  3  0  0  0  0  0  0
  191.5660  177.9160  149.5120 C   0  0  0  0  0  1  0  0  0  0  0  0
  191.2990  177.2250  148.1880 C   0  0  0  0  0  2  0  0  0  0  0  0
  1 20  1  6  0  0  0
  1  5  1  0  0  0  0
  2 17  1  0  0  0  0
  3 18  1  0  0  0  0
  4 13  1  0  0  0  0
  4  1  1  0  0  0  0
  5 12  1  0  0  0  0
  7 28  1  0  0  0  0
  8  6  2  0  0  0  0
  8 12  1  0  0  0  0
  9 30  1  0  0  0  0
 10 23  1  0  0  0  0
 10  7  1  0  0  0  0
 11  3  1  0  0  0  0
 11 23  1  0  0  0  0
 12  9  2  0  0  0  0
 13  8  1  0  0  0  0
 14  2  1  0  0  0  0
 15 24  1  0  0  0  0
 15 10  1  0  0  0  0
 16  7  1  0  0  0  0
 18 21  1  0  0  0  0
 18 27  1  0  0  0  0
 19 14  2  0  0  0  0
 20  2  2  0  0  0  0
 21  4  1  0  0  0  0
 22 11  2  0  0  0  0
 23 21  1  0  0  0  0
 24 16  1  0  0  0  0
 25 28  1  0  0  0  0
 26 27  2  0  0  0  0
 26 19  1  0  0  0  0
 27 20  1  0  0  0  0
 28 13  1  0  0  0  0
 30 29  1  0  0  0  0
M  END
>  <MODEL>
3

>  <REMARK>
 VINA RESULT:      -8.4      2.471      5.538
  Name = 
  1 active torsions:
  status: ('A' for Active; 'I' for Inactive)
    1  A    between atoms: C_9  and  C_21
                            x       y       z     vdW  Elec       q    Type
                         _______ _______ _______ _____ _____    ______ ____

>  <TORSDO>
F 1

$$$$
=
 OpenBabel11052417123D

 30 35  0  0  1  0  0  0  0  0999 V2000
  188.7370  175.0930  143.2880 C   0  0  1  0  0  3  0  0  0  0  0  0
  190.9220  173.8760  142.7420 C   0  0  0  0  0  0  0  0  0  0  0  0
  190.4230  176.6170  146.6860 C   0  0  0  0  0  2  0  0  0  0  0  0
  188.1630  176.1560  144.2380 C   0  0  1  0  0  3  0  0  0  0  0  0
  188.7160  175.6210  141.9640 O   0  0  0  0  0  0  0  0  0  0  0  0
  185.3470  176.9460  141.9520 O   0  0  0  0  0  0  0  0  0  0  0  0
  185.5770  177.0840  146.0640 C   0  0  1  0  0  3  0  0  0  0  0  0
  186.4730  176.5700  142.3780 C   0  0  0  0  0  0  0  0  0  0  0  0
  187.5710  176.5190  140.1340 C   0  0  0  0  0  3  0  0  0  0  0  0
  186.6860  177.1130  147.1210 C   0  0  2  0  0  3  0  0  0  0  0  0
  189.2430  177.3860  147.1120 C   0  0  0  0  0  0  0  0  0  0  0  0
  187.5780  176.2390  141.4430 C   0  0  0  0  0  0  0  0  0  0  0  0
  186.6760  176.3830  143.8660 C   0  0  2  0  0  3  0  0  0  0  0  0
  192.1500  173.4290  143.1160 N   0  0  0  0  0  0  0  0  0  0  0  0
  186.5200  178.4450  147.8250 C   0  0  0  0  0  2  0  0  0  0  0  0
  184.4830  178.0070  146.5800 C   0  0  0  0  0  2  0  0  0  0  0  0
  190.3670  173.4460  141.1280 Cl  0  0  0  0  0  0  0  0  0  0  0  0
  189.7750  175.3840  146.0640 C   0  0  1  0  0  3  0  0  0  0  0  0
  192.6410  173.6260  144.3640 C   0  0  0  0  0  3  0  0  0  0  0  0
  190.1260  174.6130  143.6560 C   0  0  0  0  0  0  0  0  0  0  0  0
  188.3200  175.7570  145.7100 C   0  0  1  0  0  3  0  0  0  0  0  0
  189.3140  178.3740  147.8890 O   0  0  0  0  0  0  0  0  0  0  0  0
  188.0240  176.9110  146.5490 N   0  0  0  0  0  0  0  0  0  0  0  0
  185.0300  178.7070  147.8120 C   0  0  0  0  0  2  0  0  0  0  0  0
  186.7360  178.8490  144.5710 C   0  0  0  0  0  1  0  0  0  0  0  0
  191.8720  174.2860  145.3150 C   0  0  0  0  0  3  0  0  0  0  0  0
  190.6070  174.7730  144.9730 C   0  0  0  0  0  0  0  0  0  0  0  0
  185.9940  177.5140  144.6480 C   0  0  2  0  0  3  0  0  0  0  0  0
  186.3470  176.5880  137.9930 C   0  0  0  0  0  1  0  0  0  0  0  0
  186.4510  177.1710  139.3890 C   0  0  0  0  0  2  0  0  0  0  0  0
  1  5  1  6  0  0  0
  1 20  1  0  0  0  0
  1  4  1  0  0  0  0
  2 14  2  0  0  0  0
  2 20  1  0  0  0  0
  3 11  1  0  0  0  0
  4 21  1  0  0  0  0
  6  8  2  0  0  0  0
  7 16  1  0  0  0  0
  7 10  1  0  0  0  0
  8 13  1  0  0  0  0
  9 12  2  0  0  0  0
 10 15  1  0  0  0  0
 11 22  2  0  0  0  0
 12  5  1  0  0  0  0
 12  8  1  0  0  0  0
 13  4  1  0  0  0  0
 13 28  1  0  0  0  0
 14 19  1  0  0  0  0
 16 24  1  0  0  0  0
 17  2  1  0  0  0  0
 18  3  1  0  0  0  0
 19 26  2  0  0  0  0
 20 27  2  0  0  0  0
 21 18  1  0  0  0  0
 21 23  1  0  0  0  0
 23 11  1  0  0  0  0
 23 10  1  0  0  0  0
 24 15  1  0  0  0  0
 25 28  1  0  0  0  0
 27 26  1  0  0  0  0
 27 18  1  0  0  0  0
 28  7  1  0  0  0  0
 29 30  1  0  0  0  0
 30  9  1  0  0  0  0
M  END
>  <MODEL>
4

>  <REMARK>
 VINA RESULT:      -8.3      2.479      5.310
  Name = 
  1 active torsions:
  status: ('A' for Active; 'I' for Inactive)
    1  A    between atoms: C_9  and  C_21
                            x       y       z     vdW  Elec       q    Type
                         _______ _______ _______ _____ _____    ______ ____

>  <TORSDO>
F 1

$$$$
=
 OpenBabel11052417123D

 30 35  0  0  1  0  0  0  0  0999 V2000
  187.8360  176.3770  145.2500 C   0  0  1  0  0  3  0  0  0  0  0  0
  186.3890  178.2670  146.1900 C   0  0  0  0  0  0  0  0  0  0  0  0
  186.5200  177.2290  141.4750 C   0  0  0  0  0  2  0  0  0  0  0  0
  188.3430  175.8050  143.9160 C   0  0  1  0  0  3  0  0  0  0  0  0
  188.9550  176.8960  145.9660 O   0  0  0  0  0  0  0  0  0  0  0  0
  191.2310  174.1160  145.5240 O   0  0  0  0  0  0  0  0  0  0  0  0
  189.0350  173.0770  142.1950 C   0  0  1  0  0  3  0  0  0  0  0  0
  190.2930  174.9290  145.3000 C   0  0  0  0  0  0  0  0  0  0  0  0
  191.0480  176.6270  146.9710 C   0  0  0  0  0  3  0  0  0  0  0  0
  188.0710  173.7750  141.2310 C   0  0  2  0  0  3  0  0  0  0  0  0
  187.3160  176.1950  140.7970 C   0  0  0  0  0  0  0  0  0  0  0  0
  190.1300  176.1580  146.1170 C   0  0  0  0  0  0  0  0  0  0  0  0
  189.2750  174.6080  144.2280 C   0  0  2  0  0  3  0  0  0  0  0  0
  185.3870  179.1730  146.0390 N   0  0  0  0  0  0  0  0  0  0  0  0
  188.7580  173.7190  139.8810 C   0  0  0  0  0  2  0  0  0  0  0  0
  189.8660  172.1290  141.3430 C   0  0  0  0  0  2  0  0  0  0  0  0
  187.1420  178.1580  147.7760 Cl  0  0  0  0  0  0  0  0  0  0  0  0
  186.1700  176.5350  142.7870 C   0  0  1  0  0  3  0  0  0  0  0  0
  184.6790  179.2830  144.8890 C   0  0  0  0  0  3  0  0  0  0  0  0
  186.7520  177.4250  145.1080 C   0  0  0  0  0  0  0  0  0  0  0  0
  187.1910  175.3950  142.9920 C   0  0  1  0  0  3  0  0  0  0  0  0
  187.6160  176.2530  139.5750 O   0  0  0  0  0  0  0  0  0  0  0  0
  187.7210  175.1360  141.6590 N   0  0  0  0  0  0  0  0  0  0  0  0
  189.5250  172.4150  139.8910 C   0  0  0  0  0  2  0  0  0  0  0  0
  190.7320  175.0290  142.1590 C   0  0  0  0  0  1  0  0  0  0  0  0
  184.9540  178.4350  143.8220 C   0  0  0  0  0  3  0  0  0  0  0  0
  185.9830  177.4950  143.9270 C   0  0  0  0  0  0  0  0  0  0  0  0
  189.9640  174.0050  142.9950 C   0  0  2  0  0  3  0  0  0  0  0  0
  193.4700  176.6760  146.5030 C   0  0  0  0  0  1  0  0  0  0  0  0
  192.3630  175.9840  147.2750 C   0  0  0  0  0  2  0  0  0  0  0  0
  1 20  1  6  0  0  0
  1  5  1  0  0  0  0
  2 17  1  0  0  0  0
  3 18  1  0  0  0  0
  4 13  1  0  0  0  0
  4  1  1  0  0  0  0
  5 12  1  0  0  0  0
  7 28  1  0  0  0  0
  8  6  2  0  0  0  0
  8 12  1  0  0  0  0
  9 30  1  0  0  0  0
 10 23  1  0  0  0  0
 10  7  1  0  0  0  0
 11  3  1  0  0  0  0
 11 23  1  0  0  0  0
 12  9  2  0  0  0  0
 13  8  1  0  0  0  0
 14  2  1  0  0  0  0
 15 24  1  0  0  0  0
 15 10  1  0  0  0  0
 16  7  1  0  0  0  0
 18 21  1  0  0  0  0
 18 27  1  0  0  0  0
 19 14  2  0  0  0  0
 20  2  2  0  0  0  0
 21  4  1  0  0  0  0
 22 11  2  0  0  0  0
 23 21  1  0  0  0  0
 24 16  1  0  0  0  0
 25 28  1  0  0  0  0
 26 27  2  0  0  0  0
 26 19  1  0  0  0  0
 27 20  1  0  0  0  0
 28 13  1  0  0  0  0
 29 30  1  0  0  0  0
M  END
>  <MODEL>
5

>  <REMARK>
 VINA RESULT:      -8.3      2.389      5.365
  Name = 
  1 active torsions:
  status: ('A' for Active; 'I' for Inactive)
    1  A    between atoms: C_9  and  C_21
                            x       y       z     vdW  Elec       q    Type
                         _______ _______ _______ _____ _____    ______ ____

>  <TORSDO>
F 1

$$$$
=
 OpenBabel11052417123D

 30 35  0  0  1  0  0  0  0  0999 V2000
  188.5190  176.3920  143.5420 C   0  0  1  0  0  3  0  0  0  0  0  0
  186.1320  177.1310  144.0970 C   0  0  0  0  0  0  0  0  0  0  0  0
  189.5000  176.5400  147.5070 C   0  0  0  0  0  2  0  0  0  0  0  0
  189.8130  175.9100  144.2180 C   0  0  1  0  0  3  0  0  0  0  0  0
  187.9920  175.3140  142.7720 O   0  0  0  0  0  0  0  0  0  0  0  0
  191.0410  174.2700  141.1240 O   0  0  0  0  0  0  0  0  0  0  0  0
  193.1100  176.0340  144.2210 C   0  0  1  0  0  3  0  0  0  0  0  0
  190.2700  174.7550  141.9960 C   0  0  0  0  0  0  0  0  0  0  0  0
  188.1900  173.7210  141.0720 C   0  0  0  0  0  3  0  0  0  0  0  0
  192.8160  176.4500  145.6660 C   0  0  2  0  0  3  0  0  0  0  0  0
  190.8940  176.1010  147.3380 C   0  0  0  0  0  0  0  0  0  0  0  0
  188.7980  174.5730  141.9070 C   0  0  0  0  0  0  0  0  0  0  0  0
  190.8490  175.5980  143.1100 C   0  0  2  0  0  3  0  0  0  0  0  0
  185.2310  177.6510  144.9720 N   0  0  0  0  0  0  0  0  0  0  0  0
  193.7430  175.6010  146.5130 C   0  0  0  0  0  2  0  0  0  0  0  0
  194.5330  175.4970  144.2200 C   0  0  0  0  0  2  0  0  0  0  0  0
  185.5670  176.7910  142.4660 Cl  0  0  0  0  0  0  0  0  0  0  0  0
  189.2860  177.3710  146.2480 C   0  0  1  0  0  3  0  0  0  0  0  0
  185.5770  178.0310  146.2250 C   0  0  0  0  0  3  0  0  0  0  0  0
  187.4780  176.9310  144.5000 C   0  0  0  0  0  0  0  0  0  0  0  0
  190.3530  176.9370  145.2210 C   0  0  1  0  0  3  0  0  0  0  0  0
  191.5650  175.5810  148.2670 O   0  0  0  0  0  0  0  0  0  0  0  0
  191.3980  176.3120  146.0220 N   0  0  0  0  0  0  0  0  0  0  0  0
  194.9850  175.4220  145.6680 C   0  0  0  0  0  2  0  0  0  0  0  0
  191.9560  173.7340  144.4830 C   0  0  0  0  0  1  0  0  0  0  0  0
  186.8970  177.9160  146.6450 C   0  0  0  0  0  3  0  0  0  0  0  0
  187.8570  177.3770  145.7840 C   0  0  0  0  0  0  0  0  0  0  0  0
  192.1580  174.9830  143.6250 C   0  0  2  0  0  3  0  0  0  0  0  0
  188.5660  173.3240  138.6660 C   0  0  0  0  0  1  0  0  0  0  0  0
  188.8730  172.8450  140.0720 C   0  0  0  0  0  2  0  0  0  0  0  0
  1  5  1  1  0  0  0
  1  4  1  0  0  0  0
  1 20  1  0  0  0  0
  2 20  2  0  0  0  0
  2 14  1  0  0  0  0
  4 21  1  0  0  0  0
  6  8  2  0  0  0  0
  7 10  1  0  0  0  0
  8 13  1  0  0  0  0
  9 12  2  0  0  0  0
 10 23  1  0  0  0  0
 10 15  1  0  0  0  0
 11  3  1  0  0  0  0
 11 22  2  0  0  0  0
 12  8  1  0  0  0  0
 12  5  1  0  0  0  0
 13 28  1  0  0  0  0
 13  4  1  0  0  0  0
 14 19  2  0  0  0  0
 16  7  1  0  0  0  0
 16 24  1  0  0  0  0
 17  2  1  0  0  0  0
 18  3  1  0  0  0  0
 19 26  1  0  0  0  0
 20 27  1  0  0  0  0
 21 23  1  0  0  0  0
 21 18  1  0  0  0  0
 23 11  1  0  0  0  0
 24 15  1  0  0  0  0
 27 18  1  0  0  0  0
 27 26  2  0  0  0  0
 28  7  1  0  0  0  0
 28 25  1  0  0  0  0
 29 30  1  0  0  0  0
 30  9  1  0  0  0  0
M  END
>  <MODEL>
6

>  <REMARK>
 VINA RESULT:      -8.3      1.895      2.619
  Name = 
  1 active torsions:
  status: ('A' for Active; 'I' for Inactive)
    1  A    between atoms: C_9  and  C_21
                            x       y       z     vdW  Elec       q    Type
                         _______ _______ _______ _____ _____    ______ ____

>  <TORSDO>
F 1

$$$$
=
 OpenBabel11052417123D

 30 35  0  0  1  0  0  0  0  0999 V2000
  188.8770  174.5360  141.2270 C   0  0  1  0  0  3  0  0  0  0  0  0
  189.4280  173.7910  138.8410 C   0  0  0  0  0  0  0  0  0  0  0  0
  192.8070  174.1260  142.2750 C   0  0  0  0  0  2  0  0  0  0  0  0
  189.5590  174.9590  142.5380 C   0  0  1  0  0  3  0  0  0  0  0  0
  188.1860  175.6660  140.7000 O   0  0  0  0  0  0  0  0  0  0  0  0
  186.5520  176.7770  143.7330 O   0  0  0  0  0  0  0  0  0  0  0  0
  189.4940  174.7970  145.8330 C   0  0  1  0  0  3  0  0  0  0  0  0
  187.4060  176.2470  142.9710 C   0  0  0  0  0  0  0  0  0  0  0  0
  186.5870  177.3610  140.8890 C   0  0  0  0  0  3  0  0  0  0  0  0
  190.9140  174.2940  145.5590 C   0  0  2  0  0  3  0  0  0  0  0  0
  192.6400  174.5580  143.6710 C   0  0  0  0  0  0  0  0  0  0  0  0
  187.3550  176.4510  141.5000 C   0  0  0  0  0  0  0  0  0  0  0  0
  188.4540  175.3290  143.5590 C   0  0  2  0  0  3  0  0  0  0  0  0
  190.2850  173.2270  137.9480 N   0  0  0  0  0  0  0  0  0  0  0  0
  191.7960  175.0770  146.5110 C   0  0  0  0  0  2  0  0  0  0  0  0
  189.5010  175.3160  147.2630 C   0  0  0  0  0  2  0  0  0  0  0  0
  187.8320  174.2400  138.2520 Cl  0  0  0  0  0  0  0  0  0  0  0  0
  191.5010  173.3780  142.0290 C   0  0  1  0  0  3  0  0  0  0  0  0
  191.5050  172.7640  138.3120 C   0  0  0  0  0  3  0  0  0  0  0  0
  189.8180  173.9490  140.1960 C   0  0  0  0  0  0  0  0  0  0  0  0
  190.4850  173.8650  143.0830 C   0  0  1  0  0  3  0  0  0  0  0  0
  193.5880  175.0120  144.3650 O   0  0  0  0  0  0  0  0  0  0  0  0
  191.3050  174.4250  144.1500 N   0  0  0  0  0  0  0  0  0  0  0  0
  190.9420  175.2940  147.7410 C   0  0  0  0  0  2  0  0  0  0  0  0
  189.9210  177.0880  144.7130 C   0  0  0  0  0  1  0  0  0  0  0  0
  191.9070  172.8380  139.6400 C   0  0  0  0  0  3  0  0  0  0  0  0
  191.0650  173.4190  140.5920 C   0  0  0  0  0  0  0  0  0  0  0  0
  188.9820  175.8950  144.8850 C   0  0  2  0  0  3  0  0  0  0  0  0
  184.3020  178.2910  140.8350 C   0  0  0  0  0  1  0  0  0  0  0  0
  185.6320  178.2910  141.5650 C   0  0  0  0  0  2  0  0  0  0  0  0
  1 20  1  6  0  0  0
  1  4  1  0  0  0  0
  2 20  1  0  0  0  0
  3 11  1  0  0  0  0
  4 21  1  0  0  0  0
  4 13  1  0  0  0  0
  5  1  1  0  0  0  0
  5 12  1  0  0  0  0
  7 16  1  0  0  0  0
  8 13  1  0  0  0  0
  8  6  2  0  0  0  0
  9 12  2  0  0  0  0
  9 30  1  0  0  0  0
 10  7  1  0  0  0  0
 10 15  1  0  0  0  0
 11 23  1  0  0  0  0
 11 22  2  0  0  0  0
 12  8  1  0  0  0  0
 13 28  1  0  0  0  0
 14 19  1  0  0  0  0
 14  2  2  0  0  0  0
 15 24  1  0  0  0  0
 16 24  1  0  0  0  0
 17  2  1  0  0  0  0
 18  3  1  0  0  0  0
 18 21  1  0  0  0  0
 19 26  2  0  0  0  0
 20 27  2  0  0  0  0
 21 23  1  0  0  0  0
 23 10  1  0  0  0  0
 25 28  1  0  0  0  0
 26 27  1  0  0  0  0
 27 18  1  0  0  0  0
 28  7  1  0  0  0  0
 29 30  1  0  0  0  0
M  END
>  <MODEL>
7

>  <REMARK>
 VINA RESULT:      -7.9      2.387      5.310
  Name = 
  1 active torsions:
  status: ('A' for Active; 'I' for Inactive)
    1  A    between atoms: C_9  and  C_21
                            x       y       z     vdW  Elec       q    Type
                         _______ _______ _______ _____ _____    ______ ____

>  <TORSDO>
F 1

$$$$
=
 OpenBabel11052417123D

 30 35  0  0  1  0  0  0  0  0999 V2000
  189.3050  175.4350  144.6880 C   0  0  1  0  0  3  0  0  0  0  0  0
  187.7720  177.3710  145.3590 C   0  0  0  0  0  0  0  0  0  0  0  0
  187.7690  175.5150  140.9010 C   0  0  0  0  0  2  0  0  0  0  0  0
  189.7920  174.6650  143.4500 C   0  0  1  0  0  3  0  0  0  0  0  0
  190.4150  176.1410  145.2380 O   0  0  0  0  0  0  0  0  0  0  0  0
  192.8580  173.4700  145.1680 O   0  0  0  0  0  0  0  0  0  0  0  0
  190.5960  171.7200  142.2000 C   0  0  1  0  0  3  0  0  0  0  0  0
  191.8560  174.1710  144.8560 C   0  0  0  0  0  0  0  0  0  0  0  0
  192.5640  176.1840  146.1580 C   0  0  0  0  0  3  0  0  0  0  0  0
  189.5440  172.1730  141.1840 C   0  0  2  0  0  3  0  0  0  0  0  0
  188.6050  174.4260  140.3720 C   0  0  0  0  0  0  0  0  0  0  0  0
  191.6440  175.5150  145.4520 C   0  0  0  0  0  0  0  0  0  0  0  0
  190.8170  173.6020  143.9160 C   0  0  2  0  0  3  0  0  0  0  0  0
  186.7040  178.1730  145.1070 N   0  0  0  0  0  0  0  0  0  0  0  0
  190.1740  171.9180  139.8290 C   0  0  0  0  0  2  0  0  0  0  0  0
  191.4530  170.6870  141.4840 C   0  0  0  0  0  2  0  0  0  0  0  0
  188.6000  177.5940  146.8960 Cl  0  0  0  0  0  0  0  0  0  0  0  0
  187.5260  175.0470  142.3320 C   0  0  1  0  0  3  0  0  0  0  0  0
  185.9400  178.0320  143.9960 C   0  0  0  0  0  3  0  0  0  0  0  0
  188.1460  176.3720  144.4240 C   0  0  0  0  0  0  0  0  0  0  0  0
  188.6310  174.0270  142.6780 C   0  0  1  0  0  3  0  0  0  0  0  0
  188.8460  174.2820  139.1450 O   0  0  0  0  0  0  0  0  0  0  0  0
  189.1190  173.5650  141.3840 N   0  0  0  0  0  0  0  0  0  0  0  0
  191.0290  170.6860  140.0250 C   0  0  0  0  0  2  0  0  0  0  0  0
  192.1490  173.7330  141.7270 C   0  0  0  0  0  1  0  0  0  0  0  0
  186.2270  177.0250  143.0820 C   0  0  0  0  0  3  0  0  0  0  0  0
  187.3220  176.1830  143.2930 C   0  0  0  0  0  0  0  0  0  0  0  0
  191.4920  172.8310  142.7720 C   0  0  2  0  0  3  0  0  0  0  0  0
  194.9490  176.2660  145.5310 C   0  0  0  0  0  1  0  0  0  0  0  0
  193.9320  175.6870  146.4970 C   0  0  0  0  0  2  0  0  0  0  0  0
  1 20  1  6  0  0  0
  1  5  1  0  0  0  0
  2 17  1  0  0  0  0
  3 18  1  0  0  0  0
  4 13  1  0  0  0  0
  4  1  1  0  0  0  0
  5 12  1  0  0  0  0
  7 28  1  0  0  0  0
  8  6  2  0  0  0  0
  8 12  1  0  0  0  0
  9 30  1  0  0  0  0
 10 23  1  0  0  0  0
 10  7  1  0  0  0  0
 11  3  1  0  0  0  0
 11 23  1  0  0  0  0
 12  9  2  0  0  0  0
 13  8  1  0  0  0  0
 14  2  1  0  0  0  0
 15 24  1  0  0  0  0
 15 10  1  0  0  0  0
 16  7  1  0  0  0  0
 18 21  1  0  0  0  0
 18 27  1  0  0  0  0
 19 14  2  0  0  0  0
 20  2  2  0  0  0  0
 21  4  1  0  0  0  0
 22 11  2  0  0  0  0
 23 21  1  0  0  0  0
 24 16  1  0  0  0  0
 25 28  1  0  0  0  0
 26 27  2  0  0  0  0
 26 19  1  0  0  0  0
 27 20  1  0  0  0  0
 28 13  1  0  0  0  0
 29 30  1  0  0  0  0
M  END
>  <MODEL>
8

>  <REMARK>
 VINA RESULT:      -7.7      2.633      5.536
  Name = 
  1 active torsions:
  status: ('A' for Active; 'I' for Inactive)
    1  A    between atoms: C_9  and  C_21
                            x       y       z     vdW  Elec       q    Type
                         _______ _______ _______ _____ _____    ______ ____

>  <TORSDO>
F 1

$$$$
=
 OpenBabel11052417123D

 30 35  0  0  1  0  0  0  0  0999 V2000
  189.3960  175.9330  143.2280 C   0  0  1  0  0  3  0  0  0  0  0  0
  187.1890  176.5160  144.3860 C   0  0  0  0  0  0  0  0  0  0  0  0
  191.3770  176.3240  146.7820 C   0  0  0  0  0  2  0  0  0  0  0  0
  190.8580  175.5780  143.5440 C   0  0  1  0  0  3  0  0  0  0  0  0
  188.7740  174.7870  142.6510 O   0  0  0  0  0  0  0  0  0  0  0  0
  191.3540  173.9010  140.2700 O   0  0  0  0  0  0  0  0  0  0  0  0
  194.0150  175.9460  142.6610 C   0  0  1  0  0  3  0  0  0  0  0  0
  190.8030  174.3640  141.3060 C   0  0  0  0  0  0  0  0  0  0  0  0
  188.6470  173.1400  140.9960 C   0  0  0  0  0  3  0  0  0  0  0  0
  194.0820  176.4020  144.1220 C   0  0  2  0  0  3  0  0  0  0  0  0
  192.7080  175.9840  146.2550 C   0  0  0  0  0  0  0  0  0  0  0  0
  189.3810  174.0700  141.6190 C   0  0  0  0  0  0  0  0  0  0  0  0
  191.5850  175.2960  142.2060 C   0  0  2  0  0  3  0  0  0  0  0  0
  186.5110  177.0050  145.4580 N   0  0  0  0  0  0  0  0  0  0  0  0
  195.2670  175.6610  144.7090 C   0  0  0  0  0  2  0  0  0  0  0  0
  195.4270  175.5170  142.2910 C   0  0  0  0  0  2  0  0  0  0  0  0
  186.2410  176.0640  142.9740 Cl  0  0  0  0  0  0  0  0  0  0  0  0
  190.7680  177.0830  145.6070 C   0  0  1  0  0  3  0  0  0  0  0  0
  187.1450  177.4640  146.5650 C   0  0  0  0  0  3  0  0  0  0  0  0
  188.6050  176.4340  144.4180 C   0  0  0  0  0  0  0  0  0  0  0  0
  191.5570  176.6840  144.3420 C   0  0  1  0  0  3  0  0  0  0  0  0
  193.6420  175.5550  146.9820 O   0  0  0  0  0  0  0  0  0  0  0  0
  192.8260  176.1740  144.8480 N   0  0  0  0  0  0  0  0  0  0  0  0
  196.2510  175.5390  143.5660 C   0  0  0  0  0  2  0  0  0  0  0  0
  193.1670  173.5810  143.2730 C   0  0  0  0  0  1  0  0  0  0  0  0
  188.5340  177.4650  146.6180 C   0  0  0  0  0  3  0  0  0  0  0  0
  189.2720  176.9620  145.5440 C   0  0  0  0  0  0  0  0  0  0  0  0
  193.0310  174.8020  142.3640 C   0  0  2  0  0  3  0  0  0  0  0  0
  188.4630  172.7200  138.5720 C   0  0  0  0  0  1  0  0  0  0  0  0
  189.1100  172.2750  139.8690 C   0  0  0  0  0  2  0  0  0  0  0  0
  1  5  1  1  0  0  0
  1  4  1  0  0  0  0
  1 20  1  0  0  0  0
  2 20  2  0  0  0  0
  2 14  1  0  0  0  0
  4 21  1  0  0  0  0
  6  8  2  0  0  0  0
  7 10  1  0  0  0  0
  8 12  1  0  0  0  0
  8 13  1  0  0  0  0
  9 12  2  0  0  0  0
 10 15  1  0  0  0  0
 10 23  1  0  0  0  0
 11  3  1  0  0  0  0
 11 22  2  0  0  0  0
 12  5  1  0  0  0  0
 13 28  1  0  0  0  0
 13  4  1  0  0  0  0
 14 19  2  0  0  0  0
 16  7  1  0  0  0  0
 16 24  1  0  0  0  0
 17  2  1  0  0  0  0
 18  3  1  0  0  0  0
 19 26  1  0  0  0  0
 20 27  1  0  0  0  0
 21 23  1  0  0  0  0
 21 18  1  0  0  0  0
 23 11  1  0  0  0  0
 24 15  1  0  0  0  0
 27 18  1  0  0  0  0
 27 26  2  0  0  0  0
 28  7  1  0  0  0  0
 28 25  1  0  0  0  0
 29 30  1  0  0  0  0
 30  9  1  0  0  0  0
M  END
>  <MODEL>
9

>  <REMARK>
 VINA RESULT:      -7.5      2.572      3.763
  Name = 
  1 active torsions:
  status: ('A' for Active; 'I' for Inactive)
    1  A    between atoms: C_9  and  C_21
                            x       y       z     vdW  Elec       q    Type
                         _______ _______ _______ _____ _____    ______ ____

>  <TORSDO>
F 1

$$$$
