=
 OpenBabel11052418363D

 34 38  0  0  1  0  0  0  0  0999 V2000
  191.0680  174.9670  145.1870 C   0  0  2  0  0  3  0  0  0  0  0  0
  191.7700  177.0680  143.9720 C   0  0  1  0  0  3  0  0  0  0  0  0
  189.7940  175.6460  143.1920 C   0  0  0  0  0  0  0  0  0  0  0  0
  187.8530  175.6360  140.7710 C   0  0  0  0  0  3  0  0  0  0  0  0
  192.6190  177.3210  145.0510 O   0  0  0  0  0  1  0  0  0  0  0  0
  189.9500  178.0640  142.5800 C   0  0  0  0  0  2  0  0  0  0  0  0
  190.9040  175.8420  144.1710 C   0  0  2  0  0  3  0  0  0  0  0  0
  188.0630  176.6070  141.6700 C   0  0  0  0  0  0  0  0  0  0  0  0
  189.2430  174.2590  142.9300 C   0  0  1  0  0  3  0  0  0  0  0  0
  189.7280  173.8260  145.5980 S   0  0  0  0  0  0  0  0  0  0  0  0
  190.8470  178.2610  143.7970 C   0  0  0  0  0  2  0  0  0  0  0  0
  188.7370  174.4790  140.5340 C   0  0  0  0  0  3  0  0  0  0  0  0
  189.4480  173.8610  141.4830 C   0  0  0  0  0  0  0  0  0  0  0  0
  189.2780  176.7100  142.5280 C   0  0  0  0  0  0  0  0  0  0  0  0
  189.6950  173.1740  143.9130 C   0  0  0  0  0  2  0  0  0  0  0  0
  191.0180  170.6110  140.3160 C   0  0  0  0  0  0  0  0  0  0  0  0
  192.3760  170.9400  140.3250 C   0  0  0  0  0  3  0  0  0  0  0  0
  190.4590  172.8590  141.0620 C   0  0  0  0  0  0  0  0  0  0  0  0
  192.7810  172.2210  140.7070 C   0  0  0  0  0  3  0  0  0  0  0  0
  190.0660  171.5640  140.6860 C   0  0  0  0  0  3  0  0  0  0  0  0
  191.8280  173.1750  141.0770 C   0  0  0  0  0  3  0  0  0  0  0  0
  190.6250  169.3670  139.9510 F   0  0  0  0  0  0  0  0  0  0  0  0
  193.2580  173.9710  145.7550 C   0  0  0  0  0  1  0  0  0  0  0  0
  192.2490  174.9530  145.9360 O   0  0  0  0  0  0  0  0  0  0  0  0
  187.0560  177.7050  141.7290 C   0  0  0  0  0  2  0  0  0  0  0  0
  185.6520  177.1960  142.7620 S   0  0  0  0  0  0  0  0  0  0  0  0
  185.6650  178.7740  143.6600 C   0  0  0  0  0  2  0  0  0  0  0  0
  183.9650  178.8860  145.8320 O   0  0  0  0  0  1  0  0  0  0  0  0
  186.2540  178.5820  145.0510 C   0  0  1  0  0  3  0  0  0  0  0  0
  185.3070  179.0220  146.2000 C   0  0  2  0  0  3  0  0  0  0  0  0
  186.9560  177.9990  147.6330 C   0  0  0  0  0  2  0  0  0  0  0  0
  187.4440  176.9900  146.5880 C   0  0  0  0  0  2  0  0  0  0  0  0
  186.7170  177.1440  145.2470 C   0  0  0  0  0  2  0  0  0  0  0  0
  185.5320  178.2760  147.4470 N   0  0  0  0  0  2  0  0  0  0  0  0
  1 10  1  0  0  0  0
  1 24  1  1  0  0  0
  2  7  1  0  0  0  0
  2  5  1  1  0  0  0
  4  8  2  0  0  0  0
  6 11  1  0  0  0  0
  7  3  1  1  0  0  0
  7  1  1  0  0  0  0
  8 25  1  0  0  0  0
  8 14  1  0  0  0  0
  9  3  1  0  0  0  0
  9 15  1  1  0  0  0
 11  2  1  0  0  0  0
 12  4  1  0  0  0  0
 12 13  2  0  0  0  0
 13  9  1  0  0  0  0
 14  6  1  0  0  0  0
 14  3  2  0  0  0  0
 15 10  1  0  0  0  0
 16 17  2  0  0  0  0
 16 20  1  0  0  0  0
 17 19  1  0  0  0  0
 18 21  1  0  0  0  0
 18 13  1  0  0  0  0
 19 21  2  0  0  0  0
 20 18  2  0  0  0  0
 22 16  1  0  0  0  0
 23 24  1  0  0  0  0
 25 26  1  0  0  0  0
 26 27  1  0  0  0  0
 29 27  1  6  0  0  0
 29 33  1  0  0  0  0
 29 30  1  0  0  0  0
 30 28  1  6  0  0  0
 30 34  1  0  0  0  0
 32 31  1  0  0  0  0
 33 32  1  0  0  0  0
 34 31  1  0  0  0  0
M  END
>  <MODEL>
1

>  <REMARK>
 VINA RESULT:      -7.4      0.000      0.000
  Name = 
  6 active torsions:
  status: ('A' for Active; 'I' for Inactive)
    1  A    between atoms: C_1  and  O_19
    2  A    between atoms: C_3  and  C_13
    3  A    between atoms: C_3  and  S_17
    4  A    between atoms: C_12  and  C_28
    5  A    between atoms: S_17  and  C_29
    6  A    between atoms: C_18  and  C_29
                            x       y       z     vdW  Elec       q    Type
                         _______ _______ _______ _____ _____    ______ ____

>  <TORSDO>
F 6

$$$$
=
 OpenBabel11052418363D

 34 38  0  0  1  0  0  0  0  0999 V2000
  193.3380  174.8800  141.1530 C   0  0  2  0  0  3  0  0  0  0  0  0
  191.1170  173.8140  141.7140 C   0  0  1  0  0  3  0  0  0  0  0  0
  192.3060  175.4010  143.3270 C   0  0  0  0  0  0  0  0  0  0  0  0
  191.8580  176.4010  146.2290 C   0  0  0  0  0  3  0  0  0  0  0  0
  191.0700  173.3840  140.3860 O   0  0  0  0  0  1  0  0  0  0  0  0
  189.8350  175.0550  143.4620 C   0  0  0  0  0  2  0  0  0  0  0  0
  192.3150  174.6920  142.0140 C   0  0  2  0  0  3  0  0  0  0  0  0
  191.0430  176.5140  145.1720 C   0  0  0  0  0  0  0  0  0  0  0  0
  193.6090  175.8250  143.9740 C   0  0  1  0  0  3  0  0  0  0  0  0
  194.4580  176.2750  141.4010 S   0  0  0  0  0  0  0  0  0  0  0  0
  189.8660  174.6270  141.9990 C   0  0  0  0  0  2  0  0  0  0  0  0
  193.0090  175.4860  146.3340 C   0  0  0  0  0  3  0  0  0  0  0  0
  193.7970  175.1370  145.3100 C   0  0  0  0  0  0  0  0  0  0  0  0
  191.1310  175.6640  143.9490 C   0  0  0  0  0  0  0  0  0  0  0  0
  194.8500  175.7300  143.0790 C   0  0  0  0  0  2  0  0  0  0  0  0
  195.3080  171.6660  145.5520 C   0  0  0  0  0  0  0  0  0  0  0  0
  196.6070  171.9590  145.9740 C   0  0  0  0  0  3  0  0  0  0  0  0
  194.7750  174.0400  145.5190 C   0  0  0  0  0  0  0  0  0  0  0  0
  196.9940  173.2860  146.1760 C   0  0  0  0  0  3  0  0  0  0  0  0
  194.3960  172.7010  145.3300 C   0  0  0  0  0  3  0  0  0  0  0  0
  196.0810  174.3220  145.9530 C   0  0  0  0  0  3  0  0  0  0  0  0
  194.9310  170.3790  145.3620 F   0  0  0  0  0  0  0  0  0  0  0  0
  193.9430  174.4890  138.7880 C   0  0  0  0  0  1  0  0  0  0  0  0
  193.5220  174.0240  140.0620 O   0  0  0  0  0  0  0  0  0  0  0  0
  189.9170  177.4850  145.2830 C   0  0  0  0  0  2  0  0  0  0  0  0
  189.0690  177.2610  146.8730 S   0  0  0  0  0  0  0  0  0  0  0  0
  187.6650  176.4320  146.0740 C   0  0  0  0  0  2  0  0  0  0  0  0
  186.4190  176.3960  143.6120 O   0  0  0  0  0  1  0  0  0  0  0  0
  186.5420  177.4280  145.8170 C   0  0  1  0  0  3  0  0  0  0  0  0
  186.1660  177.5760  144.3180 C   0  0  2  0  0  3  0  0  0  0  0  0
  184.3220  178.8860  145.1530 C   0  0  0  0  0  2  0  0  0  0  0  0
  184.2450  178.1730  146.5080 C   0  0  0  0  0  2  0  0  0  0  0  0
  185.3170  177.0870  146.6550 C   0  0  0  0  0  2  0  0  0  0  0  0
  184.7610  177.9570  144.1130 N   0  0  0  0  0  2  0  0  0  0  0  0
  1 24  1  6  0  0  0
  1 10  1  0  0  0  0
  1  7  1  0  0  0  0
  2  5  1  6  0  0  0
  2 11  1  0  0  0  0
  2  7  1  0  0  0  0
  3 14  2  0  0  0  0
  3  9  1  0  0  0  0
  4 12  1  0  0  0  0
  6 14  1  0  0  0  0
  7  3  1  6  0  0  0
  8 25  1  0  0  0  0
  8  4  2  0  0  0  0
  9 15  1  6  0  0  0
  9 13  1  0  0  0  0
 10 15  1  0  0  0  0
 11  6  1  0  0  0  0
 13 18  1  0  0  0  0
 13 12  2  0  0  0  0
 14  8  1  0  0  0  0
 16 17  1  0  0  0  0
 17 19  2  0  0  0  0
 18 21  2  0  0  0  0
 20 18  1  0  0  0  0
 20 16  2  0  0  0  0
 21 19  1  0  0  0  0
 22 16  1  0  0  0  0
 23 24  1  0  0  0  0
 25 26  1  0  0  0  0
 27 26  1  0  0  0  0
 29 27  1  6  0  0  0
 29 33  1  0  0  0  0
 30 28  1  6  0  0  0
 30 29  1  0  0  0  0
 31 32  1  0  0  0  0
 32 33  1  0  0  0  0
 34 30  1  0  0  0  0
 34 31  1  0  0  0  0
M  END
>  <MODEL>
2

>  <REMARK>
 VINA RESULT:      -7.4      3.103      5.206
  Name = 
  6 active torsions:
  status: ('A' for Active; 'I' for Inactive)
    1  A    between atoms: C_1  and  O_19
    2  A    between atoms: C_3  and  C_13
    3  A    between atoms: C_3  and  S_17
    4  A    between atoms: C_12  and  C_28
    5  A    between atoms: S_17  and  C_29
    6  A    between atoms: C_18  and  C_29
                            x       y       z     vdW  Elec       q    Type
                         _______ _______ _______ _____ _____    ______ ____

>  <TORSDO>
F 6

$$$$
=
 OpenBabel11052418363D

 34 38  0  0  1  0  0  0  0  0999 V2000
  191.7470  172.9420  141.7010 C   0  0  2  0  0  3  0  0  0  0  0  0
  189.4730  172.4200  142.6720 C   0  0  1  0  0  3  0  0  0  0  0  0
  190.2350  174.8170  142.2140 C   0  0  0  0  0  0  0  0  0  0  0  0
  189.1160  177.6640  142.7280 C   0  0  0  0  0  3  0  0  0  0  0  0
  189.7390  171.0790  142.3870 O   0  0  0  0  0  1  0  0  0  0  0  0
  187.8040  174.2460  142.3260 C   0  0  0  0  0  2  0  0  0  0  0  0
  190.5560  173.3590  142.1830 C   0  0  2  0  0  3  0  0  0  0  0  0
  188.5640  176.6640  142.0280 C   0  0  0  0  0  0  0  0  0  0  0  0
  191.3470  175.8420  142.2980 C   0  0  1  0  0  3  0  0  0  0  0  0
  192.7580  174.0820  140.7320 S   0  0  0  0  0  0  0  0  0  0  0  0
  188.1780  172.8090  141.9810 C   0  0  0  0  0  2  0  0  0  0  0  0
  190.2260  177.5300  143.6890 C   0  0  0  0  0  3  0  0  0  0  0  0
  191.2330  176.6580  143.5690 C   0  0  0  0  0  0  0  0  0  0  0  0
  188.9430  175.2290  142.1710 C   0  0  0  0  0  0  0  0  0  0  0  0
  192.7620  175.2990  142.0670 C   0  0  0  0  0  2  0  0  0  0  0  0
  194.1350  177.1640  145.9590 C   0  0  0  0  0  0  0  0  0  0  0  0
  193.9340  176.1190  146.8640 C   0  0  0  0  0  3  0  0  0  0  0  0
  192.1540  176.4850  144.7200 C   0  0  0  0  0  0  0  0  0  0  0  0
  192.8510  175.2520  146.6990 C   0  0  0  0  0  3  0  0  0  0  0  0
  193.2520  177.3430  144.8910 C   0  0  0  0  0  3  0  0  0  0  0  0
  191.9670  175.4310  145.6310 C   0  0  0  0  0  3  0  0  0  0  0  0
  195.1880  178.0010  146.1150 F   0  0  0  0  0  0  0  0  0  0  0  0
  193.4690  171.3420  142.4660 C   0  0  0  0  0  1  0  0  0  0  0  0
  192.1900  171.6340  141.9250 O   0  0  0  0  0  0  0  0  0  0  0  0
  187.4280  177.0120  141.1280 C   0  0  0  0  0  2  0  0  0  0  0  0
  186.4770  178.3840  141.8420 S   0  0  0  0  0  0  0  0  0  0  0  0
  185.6600  177.2790  143.0280 C   0  0  0  0  0  2  0  0  0  0  0  0
  183.6500  178.8170  144.1280 O   0  0  0  0  0  1  0  0  0  0  0  0
  185.8430  177.8020  144.4460 C   0  0  1  0  0  3  0  0  0  0  0  0
  184.8530  178.9350  144.8300 C   0  0  2  0  0  3  0  0  0  0  0  0
  185.7500  178.6450  147.0500 C   0  0  0  0  0  2  0  0  0  0  0  0
  186.1160  177.1680  146.8610 C   0  0  0  0  0  2  0  0  0  0  0  0
  185.7820  176.6610  145.4540 C   0  0  0  0  0  2  0  0  0  0  0  0
  184.5590  178.9770  146.2700 N   0  0  0  0  0  2  0  0  0  0  0  0
  1 24  1  6  0  0  0
  1  7  1  0  0  0  0
  2  5  1  6  0  0  0
  3  9  1  0  0  0  0
  4 12  1  0  0  0  0
  7  3  1  6  0  0  0
  7  2  1  0  0  0  0
  8 14  1  0  0  0  0
  8  4  2  0  0  0  0
  9 15  1  1  0  0  0
  9 13  1  0  0  0  0
 10  1  1  0  0  0  0
 10 15  1  0  0  0  0
 11  6  1  0  0  0  0
 11  2  1  0  0  0  0
 13 12  2  0  0  0  0
 13 18  1  0  0  0  0
 14  3  2  0  0  0  0
 14  6  1  0  0  0  0
 16 22  1  0  0  0  0
 16 17  1  0  0  0  0
 18 20  1  0  0  0  0
 18 21  2  0  0  0  0
 19 17  2  0  0  0  0
 20 16  2  0  0  0  0
 21 19  1  0  0  0  0
 24 23  1  0  0  0  0
 25 26  1  0  0  0  0
 25  8  1  0  0  0  0
 26 27  1  0  0  0  0
 29 27  1  6  0  0  0
 29 30  1  0  0  0  0
 29 33  1  0  0  0  0
 30 28  1  6  0  0  0
 30 34  1  0  0  0  0
 32 31  1  0  0  0  0
 33 32  1  0  0  0  0
 34 31  1  0  0  0  0
M  END
>  <MODEL>
3

>  <REMARK>
 VINA RESULT:      -7.3      2.973      4.836
  Name = 
  6 active torsions:
  status: ('A' for Active; 'I' for Inactive)
    1  A    between atoms: C_1  and  O_19
    2  A    between atoms: C_3  and  C_13
    3  A    between atoms: C_3  and  S_17
    4  A    between atoms: C_12  and  C_28
    5  A    between atoms: S_17  and  C_29
    6  A    between atoms: C_18  and  C_29
                            x       y       z     vdW  Elec       q    Type
                         _______ _______ _______ _____ _____    ______ ____

>  <TORSDO>
F 6

$$$$
=
 OpenBabel11052418363D

 34 38  0  0  1  0  0  0  0  0999 V2000
  189.8770  176.9620  145.4200 C   0  0  2  0  0  3  0  0  0  0  0  0
  189.3140  174.5620  145.9710 C   0  0  1  0  0  3  0  0  0  0  0  0
  189.5580  175.3780  143.5610 C   0  0  0  0  0  0  0  0  0  0  0  0
  189.1380  174.1780  140.7310 C   0  0  0  0  0  3  0  0  0  0  0  0
  189.5960  174.8770  147.3020 O   0  0  0  0  0  1  0  0  0  0  0  0
  189.8670  172.9650  144.1320 C   0  0  0  0  0  2  0  0  0  0  0  0
  189.5850  175.7060  145.0170 C   0  0  2  0  0  3  0  0  0  0  0  0
  189.9530  173.7540  141.7060 C   0  0  0  0  0  0  0  0  0  0  0  0
  189.2570  176.4580  142.5410 C   0  0  1  0  0  3  0  0  0  0  0  0
  190.6280  178.1150  144.2480 S   0  0  0  0  0  0  0  0  0  0  0  0
  190.1950  173.3970  145.5570 C   0  0  0  0  0  2  0  0  0  0  0  0
  188.0120  175.1150  140.9000 C   0  0  0  0  0  3  0  0  0  0  0  0
  187.9950  176.1320  141.7690 C   0  0  0  0  0  0  0  0  0  0  0  0
  189.7980  174.1100  143.1460 C   0  0  0  0  0  0  0  0  0  0  0  0
  189.2690  177.8930  143.0780 C   0  0  0  0  0  2  0  0  0  0  0  0
  184.9370  178.2910  141.1510 C   0  0  0  0  0  0  0  0  0  0  0  0
  184.3220  178.2640  142.4050 C   0  0  0  0  0  3  0  0  0  0  0  0
  186.7140  176.8510  141.9830 C   0  0  0  0  0  0  0  0  0  0  0  0
  184.8990  177.5410  143.4510 C   0  0  0  0  0  3  0  0  0  0  0  0
  186.1290  177.5910  140.9430 C   0  0  0  0  0  3  0  0  0  0  0  0
  186.0910  176.8400  143.2430 C   0  0  0  0  0  3  0  0  0  0  0  0
  184.3810  178.9970  140.1380 F   0  0  0  0  0  0  0  0  0  0  0  0
  188.3830  177.9110  147.1450 C   0  0  0  0  0  1  0  0  0  0  0  0
  189.6290  177.3680  146.7350 O   0  0  0  0  0  0  0  0  0  0  0  0
  191.0160  172.7800  141.3260 C   0  0  0  0  0  2  0  0  0  0  0  0
  192.6340  173.6030  141.3320 S   0  0  0  0  0  0  0  0  0  0  0  0
  193.2250  172.5630  142.6970 C   0  0  0  0  0  2  0  0  0  0  0  0
  195.9080  172.9870  143.1860 O   0  0  0  0  0  1  0  0  0  0  0  0
  193.6160  173.4290  143.8870 C   0  0  1  0  0  3  0  0  0  0  0  0
  195.1110  173.3060  144.2890 C   0  0  2  0  0  3  0  0  0  0  0  0
  194.6220  175.1530  145.7610 C   0  0  0  0  0  2  0  0  0  0  0  0
  193.4910  175.7250  144.8990 C   0  0  0  0  0  2  0  0  0  0  0  0
  193.2350  174.8840  143.6440 C   0  0  0  0  0  2  0  0  0  0  0  0
  195.6380  174.5260  144.9180 N   0  0  0  0  0  2  0  0  0  0  0  0
  1 24  1  1  0  0  0
  2  5  1  1  0  0  0
  4 12  1  0  0  0  0
  4  8  2  0  0  0  0
  6 11  1  0  0  0  0
  7  3  1  1  0  0  0
  7  1  1  0  0  0  0
  7  2  1  0  0  0  0
  8 14  1  0  0  0  0
  9 15  1  1  0  0  0
  9  3  1  0  0  0  0
 10  1  1  0  0  0  0
 11  2  1  0  0  0  0
 12 13  2  0  0  0  0
 13 18  1  0  0  0  0
 13  9  1  0  0  0  0
 14  3  2  0  0  0  0
 14  6  1  0  0  0  0
 15 10  1  0  0  0  0
 16 17  1  0  0  0  0
 17 19  2  0  0  0  0
 18 21  2  0  0  0  0
 20 16  2  0  0  0  0
 20 18  1  0  0  0  0
 21 19  1  0  0  0  0
 22 16  1  0  0  0  0
 24 23  1  0  0  0  0
 25 26  1  0  0  0  0
 25  8  1  0  0  0  0
 26 27  1  0  0  0  0
 29 27  1  6  0  0  0
 29 30  1  0  0  0  0
 30 28  1  6  0  0  0
 30 34  1  0  0  0  0
 32 31  1  0  0  0  0
 33 29  1  0  0  0  0
 33 32  1  0  0  0  0
 34 31  1  0  0  0  0
M  END
>  <MODEL>
4

>  <REMARK>
 VINA RESULT:      -7.1      3.540      7.075
  Name = 
  6 active torsions:
  status: ('A' for Active; 'I' for Inactive)
    1  A    between atoms: C_1  and  O_19
    2  A    between atoms: C_3  and  C_13
    3  A    between atoms: C_3  and  S_17
    4  A    between atoms: C_12  and  C_28
    5  A    between atoms: S_17  and  C_29
    6  A    between atoms: C_18  and  C_29
                            x       y       z     vdW  Elec       q    Type
                         _______ _______ _______ _____ _____    ______ ____

>  <TORSDO>
F 6

$$$$
=
 OpenBabel11052418363D

 34 38  0  0  1  0  0  0  0  0999 V2000
  191.5720  176.5250  144.6330 C   0  0  2  0  0  3  0  0  0  0  0  0
  191.0650  174.1840  145.4370 C   0  0  1  0  0  3  0  0  0  0  0  0
  189.7480  175.2820  143.5400 C   0  0  0  0  0  0  0  0  0  0  0  0
  187.2670  174.5640  141.8220 C   0  0  0  0  0  3  0  0  0  0  0  0
  192.2400  174.2650  146.1870 O   0  0  0  0  0  1  0  0  0  0  0  0
  189.8620  172.7930  143.7460 C   0  0  0  0  0  2  0  0  0  0  0  0
  190.8340  175.3960  144.5580 C   0  0  2  0  0  3  0  0  0  0  0  0
  188.4180  173.8900  141.9500 C   0  0  0  0  0  0  0  0  0  0  0  0
  189.0590  176.5250  143.0170 C   0  0  1  0  0  3  0  0  0  0  0  0
  191.5270  177.7030  143.2640 S   0  0  0  0  0  0  0  0  0  0  0  0
  191.1570  172.9680  144.5310 C   0  0  0  0  0  2  0  0  0  0  0  0
  186.7890  175.6270  142.7250 C   0  0  0  0  0  3  0  0  0  0  0  0
  187.5820  176.5040  143.3510 C   0  0  0  0  0  0  0  0  0  0  0  0
  189.3710  174.0620  143.0830 C   0  0  0  0  0  0  0  0  0  0  0  0
  189.7310  177.8540  143.3820 C   0  0  0  0  0  2  0  0  0  0  0  0
  186.4180  177.7840  146.7270 C   0  0  0  0  0  0  0  0  0  0  0  0
  185.7930  178.9810  146.3680 C   0  0  0  0  0  3  0  0  0  0  0  0
  186.9820  177.3710  144.3960 C   0  0  0  0  0  0  0  0  0  0  0  0
  185.7530  179.3740  145.0290 C   0  0  0  0  0  3  0  0  0  0  0  0
  187.0050  176.9820  145.7450 C   0  0  0  0  0  3  0  0  0  0  0  0
  186.3420  178.5720  144.0470 C   0  0  0  0  0  3  0  0  0  0  0  0
  186.4510  177.3990  148.0250 F   0  0  0  0  0  0  0  0  0  0  0  0
  193.7700  177.0630  145.6280 C   0  0  0  0  0  1  0  0  0  0  0  0
  192.3840  176.7770  145.7440 O   0  0  0  0  0  0  0  0  0  0  0  0
  188.6990  172.8300  140.9400 C   0  0  0  0  0  2  0  0  0  0  0  0
  189.9420  173.4230  139.7560 S   0  0  0  0  0  0  0  0  0  0  0  0
  191.0760  172.0700  140.1770 C   0  0  0  0  0  2  0  0  0  0  0  0
  193.5820  171.7800  139.0580 O   0  0  0  0  0  1  0  0  0  0  0  0
  192.2760  172.6090  140.9430 C   0  0  1  0  0  3  0  0  0  0  0  0
  193.6410  172.0810  140.4220 C   0  0  2  0  0  3  0  0  0  0  0  0
  194.5790  173.7140  141.9290 C   0  0  0  0  0  2  0  0  0  0  0  0
  193.3800  174.6670  141.8690 C   0  0  0  0  0  2  0  0  0  0  0  0
  192.2570  174.1320  140.9730 C   0  0  0  0  0  2  0  0  0  0  0  0
  194.7460  173.0240  140.6510 N   0  0  0  0  0  2  0  0  0  0  0  0
  1 24  1  6  0  0  0
  2  5  1  6  0  0  0
  4  8  2  0  0  0  0
  4 12  1  0  0  0  0
  6 11  1  0  0  0  0
  7  3  1  6  0  0  0
  7  1  1  0  0  0  0
  7  2  1  0  0  0  0
  8 14  1  0  0  0  0
  9 13  1  0  0  0  0
  9 15  1  1  0  0  0
  9  3  1  0  0  0  0
 10 15  1  0  0  0  0
 10  1  1  0  0  0  0
 11  2  1  0  0  0  0
 12 13  2  0  0  0  0
 13 18  1  0  0  0  0
 14  3  2  0  0  0  0
 14  6  1  0  0  0  0
 16 22  1  0  0  0  0
 17 16  1  0  0  0  0
 18 20  1  0  0  0  0
 19 17  2  0  0  0  0
 20 16  2  0  0  0  0
 21 18  2  0  0  0  0
 21 19  1  0  0  0  0
 23 24  1  0  0  0  0
 25  8  1  0  0  0  0
 26 27  1  0  0  0  0
 26 25  1  0  0  0  0
 29 27  1  6  0  0  0
 29 33  1  0  0  0  0
 30 28  1  6  0  0  0
 30 34  1  0  0  0  0
 30 29  1  0  0  0  0
 32 31  1  0  0  0  0
 33 32  1  0  0  0  0
 34 31  1  0  0  0  0
M  END
>  <MODEL>
5

>  <REMARK>
 VINA RESULT:      -7.0      3.750      7.400
  Name = 
  6 active torsions:
  status: ('A' for Active; 'I' for Inactive)
    1  A    between atoms: C_1  and  O_19
    2  A    between atoms: C_3  and  C_13
    3  A    between atoms: C_3  and  S_17
    4  A    between atoms: C_12  and  C_28
    5  A    between atoms: S_17  and  C_29
    6  A    between atoms: C_18  and  C_29
                            x       y       z     vdW  Elec       q    Type
                         _______ _______ _______ _____ _____    ______ ____

>  <TORSDO>
F 6

$$$$
=
 OpenBabel11052418363D

 34 38  0  0  1  0  0  0  0  0999 V2000
  192.1860  173.0010  141.6910 C   0  0  2  0  0  3  0  0  0  0  0  0
  190.6470  171.5040  143.0230 C   0  0  1  0  0  3  0  0  0  0  0  0
  191.5500  173.7030  143.9650 C   0  0  0  0  0  0  0  0  0  0  0  0
  191.4440  175.1910  146.6850 C   0  0  0  0  0  3  0  0  0  0  0  0
  190.4560  170.7760  141.8470 O   0  0  0  0  0  1  0  0  0  0  0  0
  189.4410  172.6990  144.8560 C   0  0  0  0  0  2  0  0  0  0  0  0
  191.5070  172.7350  142.8290 C   0  0  2  0  0  3  0  0  0  0  0  0
  190.4270  174.8080  145.9020 C   0  0  0  0  0  0  0  0  0  0  0  0
  192.7380  174.6270  144.1360 C   0  0  1  0  0  3  0  0  0  0  0  0
  192.7880  174.6780  141.3920 S   0  0  0  0  0  0  0  0  0  0  0  0
  189.2910  171.9640  143.5290 C   0  0  0  0  0  2  0  0  0  0  0  0
  192.8320  174.6990  146.5920 C   0  0  0  0  0  3  0  0  0  0  0  0
  193.4420  174.3610  145.4520 C   0  0  0  0  0  0  0  0  0  0  0  0
  190.5250  173.7550  144.8510 C   0  0  0  0  0  0  0  0  0  0  0  0
  193.7050  174.6850  142.9480 C   0  0  0  0  0  2  0  0  0  0  0  0
  196.0740  171.6300  145.5310 C   0  0  0  0  0  0  0  0  0  0  0  0
  197.2360  172.3720  145.7560 C   0  0  0  0  0  3  0  0  0  0  0  0
  194.7560  173.6760  145.5350 C   0  0  0  0  0  0  0  0  0  0  0  0
  197.1640  173.7620  145.8770 C   0  0  0  0  0  3  0  0  0  0  0  0
  194.8410  172.2780  145.4250 C   0  0  0  0  0  3  0  0  0  0  0  0
  195.9300  174.4110  145.7710 C   0  0  0  0  0  3  0  0  0  0  0  0
  196.1430  170.2820  145.4180 F   0  0  0  0  0  0  0  0  0  0  0  0
  193.6860  171.4400  140.4970 C   0  0  0  0  0  1  0  0  0  0  0  0
  192.4040  172.0010  140.7380 O   0  0  0  0  0  0  0  0  0  0  0  0
  189.0910  175.4090  146.1830 C   0  0  0  0  0  2  0  0  0  0  0  0
  189.2920  177.1400  146.6920 S   0  0  0  0  0  0  0  0  0  0  0  0
  189.2640  177.7120  144.9690 C   0  0  0  0  0  2  0  0  0  0  0  0
  186.8230  178.3640  143.8600 O   0  0  0  0  0  1  0  0  0  0  0  0
  188.5740  176.6830  144.0850 C   0  0  1  0  0  3  0  0  0  0  0  0
  187.0750  176.9900  143.8170 C   0  0  2  0  0  3  0  0  0  0  0  0
  187.2290  175.1730  142.2390 C   0  0  0  0  0  2  0  0  0  0  0  0
  188.7240  175.3590  141.9550 C   0  0  0  0  0  2  0  0  0  0  0  0
  189.3340  176.5000  142.7770 C   0  0  0  0  0  2  0  0  0  0  0  0
  186.6020  176.4610  142.5300 N   0  0  0  0  0  2  0  0  0  0  0  0
  1 24  1  6  0  0  0
  1  7  1  0  0  0  0
  2  5  1  6  0  0  0
  2 11  1  0  0  0  0
  3  9  1  0  0  0  0
  3 14  2  0  0  0  0
  7  2  1  0  0  0  0
  7  3  1  6  0  0  0
  8 25  1  0  0  0  0
  8  4  2  0  0  0  0
  9 15  1  6  0  0  0
  9 13  1  0  0  0  0
 10  1  1  0  0  0  0
 10 15  1  0  0  0  0
 11  6  1  0  0  0  0
 12  4  1  0  0  0  0
 13 18  1  0  0  0  0
 13 12  2  0  0  0  0
 14  6  1  0  0  0  0
 14  8  1  0  0  0  0
 16 17  1  0  0  0  0
 17 19  2  0  0  0  0
 18 21  2  0  0  0  0
 20 16  2  0  0  0  0
 20 18  1  0  0  0  0
 21 19  1  0  0  0  0
 22 16  1  0  0  0  0
 23 24  1  0  0  0  0
 25 26  1  0  0  0  0
 27 26  1  0  0  0  0
 29 27  1  6  0  0  0
 30 28  1  6  0  0  0
 30 29  1  0  0  0  0
 31 34  1  0  0  0  0
 32 31  1  0  0  0  0
 32 33  1  0  0  0  0
 33 29  1  0  0  0  0
 34 30  1  0  0  0  0
M  END
>  <MODEL>
6

>  <REMARK>
 VINA RESULT:      -7.0      3.125      5.605
  Name = 
  6 active torsions:
  status: ('A' for Active; 'I' for Inactive)
    1  A    between atoms: C_1  and  O_19
    2  A    between atoms: C_3  and  C_13
    3  A    between atoms: C_3  and  S_17
    4  A    between atoms: C_12  and  C_28
    5  A    between atoms: S_17  and  C_29
    6  A    between atoms: C_18  and  C_29
                            x       y       z     vdW  Elec       q    Type
                         _______ _______ _______ _____ _____    ______ ____

>  <TORSDO>
F 6

$$$$
=
 OpenBabel11052418363D

 34 38  0  0  1  0  0  0  0  0999 V2000
  190.7380  172.7580  142.6020 C   0  0  2  0  0  3  0  0  0  0  0  0
  192.2260  174.1230  141.0840 C   0  0  1  0  0  3  0  0  0  0  0  0
  191.4730  174.9790  143.3720 C   0  0  0  0  0  0  0  0  0  0  0  0
  191.7330  177.6220  144.9770 C   0  0  0  0  0  3  0  0  0  0  0  0
  192.3450  172.9790  140.2920 O   0  0  0  0  0  1  0  0  0  0  0  0
  193.5450  175.8660  142.2930 C   0  0  0  0  0  2  0  0  0  0  0  0
  191.4310  173.8900  142.3520 C   0  0  2  0  0  3  0  0  0  0  0  0
  192.7070  176.8340  144.5010 C   0  0  0  0  0  0  0  0  0  0  0  0
  190.3420  175.1350  144.3680 C   0  0  1  0  0  3  0  0  0  0  0  0
  190.2220  172.3930  144.2950 S   0  0  0  0  0  0  0  0  0  0  0  0
  193.6190  174.5730  141.4890 C   0  0  0  0  0  2  0  0  0  0  0  0
  190.3190  177.5860  144.5610 C   0  0  0  0  0  3  0  0  0  0  0  0
  189.6610  176.4780  144.2040 C   0  0  0  0  0  0  0  0  0  0  0  0
  192.5220  175.8370  143.4070 C   0  0  0  0  0  0  0  0  0  0  0  0
  189.3490  173.9690  144.4260 C   0  0  0  0  0  2  0  0  0  0  0  0
  186.8910  176.8180  141.6340 C   0  0  0  0  0  0  0  0  0  0  0  0
  185.7700  176.9690  142.4540 C   0  0  0  0  0  3  0  0  0  0  0  0
  188.3130  176.6260  143.6000 C   0  0  0  0  0  0  0  0  0  0  0  0
  185.9140  176.9560  143.8430 C   0  0  0  0  0  3  0  0  0  0  0  0
  188.1550  176.6520  142.2050 C   0  0  0  0  0  3  0  0  0  0  0  0
  187.1790  176.7890  144.4140 C   0  0  0  0  0  3  0  0  0  0  0  0
  186.7520  176.8360  140.2870 F   0  0  0  0  0  0  0  0  0  0  0  0
  190.5810  170.4540  141.7200 C   0  0  0  0  0  1  0  0  0  0  0  0
  190.4390  171.8590  141.5730 O   0  0  0  0  0  0  0  0  0  0  0  0
  194.0800  177.0530  145.0370 C   0  0  0  0  0  2  0  0  0  0  0  0
  194.4790  175.7620  146.2510 S   0  0  0  0  0  0  0  0  0  0  0  0
  195.7570  175.0590  145.1710 C   0  0  0  0  0  2  0  0  0  0  0  0
  197.1830  173.1820  146.6080 O   0  0  0  0  0  1  0  0  0  0  0  0
  195.4760  173.5850  144.9140 C   0  0  1  0  0  3  0  0  0  0  0  0
  196.5600  172.6300  145.4840 C   0  0  2  0  0  3  0  0  0  0  0  0
  195.0030  170.8870  144.8870 C   0  0  0  0  0  2  0  0  0  0  0  0
  193.7520  171.7610  145.0320 C   0  0  0  0  0  2  0  0  0  0  0  0
  194.0920  173.2030  145.4250 C   0  0  0  0  0  2  0  0  0  0  0  0
  196.0300  171.3060  145.8400 N   0  0  0  0  0  2  0  0  0  0  0  0
  1 24  1  1  0  0  0
  1 10  1  0  0  0  0
  2  5  1  1  0  0  0
  2 11  1  0  0  0  0
  2  7  1  0  0  0  0
  3 14  2  0  0  0  0
  3  9  1  0  0  0  0
  6 14  1  0  0  0  0
  7  1  1  0  0  0  0
  7  3  1  1  0  0  0
  8  4  2  0  0  0  0
  8 25  1  0  0  0  0
  9 15  1  6  0  0  0
 10 15  1  0  0  0  0
 11  6  1  0  0  0  0
 12  4  1  0  0  0  0
 13  9  1  0  0  0  0
 13 12  2  0  0  0  0
 14  8  1  0  0  0  0
 16 20  2  0  0  0  0
 16 17  1  0  0  0  0
 17 19  2  0  0  0  0
 18 13  1  0  0  0  0
 18 21  2  0  0  0  0
 19 21  1  0  0  0  0
 20 18  1  0  0  0  0
 22 16  1  0  0  0  0
 24 23  1  0  0  0  0
 25 26  1  0  0  0  0
 27 26  1  0  0  0  0
 29 27  1  1  0  0  0
 29 33  1  0  0  0  0
 29 30  1  0  0  0  0
 30 34  1  0  0  0  0
 30 28  1  1  0  0  0
 31 32  1  0  0  0  0
 31 34  1  0  0  0  0
 32 33  1  0  0  0  0
M  END
>  <MODEL>
7

>  <REMARK>
 VINA RESULT:      -6.7      4.009      7.473
  Name = 
  6 active torsions:
  status: ('A' for Active; 'I' for Inactive)
    1  A    between atoms: C_1  and  O_19
    2  A    between atoms: C_3  and  C_13
    3  A    between atoms: C_3  and  S_17
    4  A    between atoms: C_12  and  C_28
    5  A    between atoms: S_17  and  C_29
    6  A    between atoms: C_18  and  C_29
                            x       y       z     vdW  Elec       q    Type
                         _______ _______ _______ _____ _____    ______ ____

>  <TORSDO>
F 6

$$$$
=
 OpenBabel11052418363D

 34 38  0  0  1  0  0  0  0  0999 V2000
  187.9650  176.5380  145.4610 C   0  0  2  0  0  3  0  0  0  0  0  0
  189.3130  174.9910  146.9350 C   0  0  1  0  0  3  0  0  0  0  0  0
  190.3010  176.0680  144.8380 C   0  0  0  0  0  0  0  0  0  0  0  0
  192.9640  175.8760  143.2580 C   0  0  0  0  0  3  0  0  0  0  0  0
  188.2600  175.0620  147.8490 O   0  0  0  0  0  1  0  0  0  0  0  0
  191.7810  175.2940  146.6970 C   0  0  0  0  0  2  0  0  0  0  0  0
  189.1180  175.8880  145.7300 C   0  0  2  0  0  3  0  0  0  0  0  0
  192.7750  176.2230  144.5380 C   0  0  0  0  0  0  0  0  0  0  0  0
  190.1090  176.4420  143.3820 C   0  0  1  0  0  3  0  0  0  0  0  0
  187.9780  177.9160  144.2930 S   0  0  0  0  0  0  0  0  0  0  0  0
  190.5870  175.4300  147.6350 C   0  0  0  0  0  2  0  0  0  0  0  0
  191.9810  175.1870  142.4000 C   0  0  0  0  0  3  0  0  0  0  0  0
  190.6570  175.3630  142.4720 C   0  0  0  0  0  0  0  0  0  0  0  0
  191.5530  175.8940  145.3270 C   0  0  0  0  0  0  0  0  0  0  0  0
  188.6910  176.8800  142.9960 C   0  0  0  0  0  2  0  0  0  0  0  0
  187.8990  172.9060  141.6080 C   0  0  0  0  0  0  0  0  0  0  0  0
  188.1690  172.6480  140.2620 C   0  0  0  0  0  3  0  0  0  0  0  0
  189.7840  174.4410  141.7020 C   0  0  0  0  0  0  0  0  0  0  0  0
  189.2470  173.2760  139.6340 C   0  0  0  0  0  3  0  0  0  0  0  0
  188.7040  173.7950  142.3240 C   0  0  0  0  0  3  0  0  0  0  0  0
  190.0530  174.1650  140.3510 C   0  0  0  0  0  3  0  0  0  0  0  0
  186.8570  172.2930  142.2200 F   0  0  0  0  0  0  0  0  0  0  0  0
  185.5720  176.9160  145.9520 C   0  0  0  0  0  1  0  0  0  0  0  0
  186.7720  176.1720  146.0930 O   0  0  0  0  0  0  0  0  0  0  0  0
  193.9120  176.8900  145.2340 C   0  0  0  0  0  2  0  0  0  0  0  0
  195.4860  176.2800  144.5650 S   0  0  0  0  0  0  0  0  0  0  0  0
  195.5350  174.9160  145.7610 C   0  0  0  0  0  2  0  0  0  0  0  0
  197.1890  172.8360  146.5050 O   0  0  0  0  0  1  0  0  0  0  0  0
  195.3860  173.5810  145.0430 C   0  0  1  0  0  3  0  0  0  0  0  0
  196.5790  172.6120  145.2680 C   0  0  2  0  0  3  0  0  0  0  0  0
  195.1760  171.0020  144.1480 C   0  0  0  0  0  2  0  0  0  0  0  0
  193.8520  171.6470  144.5750 C   0  0  0  0  0  2  0  0  0  0  0  0
  194.0670  172.9140  145.4110 C   0  0  0  0  0  2  0  0  0  0  0  0
  196.1930  171.1960  145.1790 N   0  0  0  0  0  2  0  0  0  0  0  0
  1  7  1  0  0  0  0
  1 24  1  1  0  0  0
  2 11  1  0  0  0  0
  2  5  1  1  0  0  0
  3 14  2  0  0  0  0
  4  8  2  0  0  0  0
  6 11  1  0  0  0  0
  7  3  1  1  0  0  0
  7  2  1  0  0  0  0
  8 25  1  0  0  0  0
  8 14  1  0  0  0  0
  9 15  1  1  0  0  0
  9  3  1  0  0  0  0
 10  1  1  0  0  0  0
 12 13  2  0  0  0  0
 12  4  1  0  0  0  0
 13  9  1  0  0  0  0
 14  6  1  0  0  0  0
 15 10  1  0  0  0  0
 16 22  1  0  0  0  0
 16 20  1  0  0  0  0
 17 16  2  0  0  0  0
 18 20  2  0  0  0  0
 18 13  1  0  0  0  0
 19 17  1  0  0  0  0
 19 21  2  0  0  0  0
 21 18  1  0  0  0  0
 23 24  1  0  0  0  0
 26 25  1  0  0  0  0
 26 27  1  0  0  0  0
 29 30  1  0  0  0  0
 29 33  1  0  0  0  0
 29 27  1  1  0  0  0
 30 28  1  1  0  0  0
 31 32  1  0  0  0  0
 31 34  1  0  0  0  0
 32 33  1  0  0  0  0
 34 30  1  0  0  0  0
M  END
>  <MODEL>
8

>  <REMARK>
 VINA RESULT:      -6.6      3.496      7.005
  Name = 
  6 active torsions:
  status: ('A' for Active; 'I' for Inactive)
    1  A    between atoms: C_1  and  O_19
    2  A    between atoms: C_3  and  C_13
    3  A    between atoms: C_3  and  S_17
    4  A    between atoms: C_12  and  C_28
    5  A    between atoms: S_17  and  C_29
    6  A    between atoms: C_18  and  C_29
                            x       y       z     vdW  Elec       q    Type
                         _______ _______ _______ _____ _____    ______ ____

>  <TORSDO>
F 6

$$$$
=
 OpenBabel11052418363D

 34 38  0  0  1  0  0  0  0  0999 V2000
  192.2130  173.6950  143.7790 C   0  0  2  0  0  3  0  0  0  0  0  0
  192.8010  176.0600  143.1130 C   0  0  1  0  0  3  0  0  0  0  0  0
  190.4480  175.1100  142.8060 C   0  0  0  0  0  0  0  0  0  0  0  0
  187.7900  176.0690  141.5250 C   0  0  0  0  0  3  0  0  0  0  0  0
  194.0180  175.8650  143.7690 O   0  0  0  0  0  1  0  0  0  0  0  0
  190.8200  177.5760  142.9800 C   0  0  0  0  0  2  0  0  0  0  0  0
  191.8550  174.8860  143.2520 C   0  0  2  0  0  3  0  0  0  0  0  0
  188.4930  176.6360  142.5140 C   0  0  0  0  0  0  0  0  0  0  0  0
  189.5890  173.9400  142.3710 C   0  0  1  0  0  3  0  0  0  0  0  0
  190.9290  172.5450  144.3200 S   0  0  0  0  0  0  0  0  0  0  0  0
  192.1200  177.2760  143.7170 C   0  0  0  0  0  2  0  0  0  0  0  0
  188.2910  175.0390  140.5960 C   0  0  0  0  0  3  0  0  0  0  0  0
  189.1710  174.0870  140.9220 C   0  0  0  0  0  0  0  0  0  0  0  0
  189.9340  176.3650  142.7840 C   0  0  0  0  0  0  0  0  0  0  0  0
  190.1590  172.5520  142.6860 C   0  0  0  0  0  2  0  0  0  0  0  0
  191.6050  172.7150  138.3560 C   0  0  0  0  0  0  0  0  0  0  0  0
  190.8240  171.7430  137.7260 C   0  0  0  0  0  3  0  0  0  0  0  0
  189.7500  173.2620  139.8320 C   0  0  0  0  0  0  0  0  0  0  0  0
  189.5070  171.5300  138.1390 C   0  0  0  0  0  3  0  0  0  0  0  0
  191.0690  173.4720  139.4000 C   0  0  0  0  0  3  0  0  0  0  0  0
  188.9700  172.2880  139.1840 C   0  0  0  0  0  3  0  0  0  0  0  0
  192.8810  172.9250  137.9520 F   0  0  0  0  0  0  0  0  0  0  0  0
  194.1290  172.1930  143.3500 C   0  0  0  0  0  1  0  0  0  0  0  0
  193.5620  173.3570  143.9320 O   0  0  0  0  0  0  0  0  0  0  0  0
  187.8030  177.6820  143.3230 C   0  0  0  0  0  2  0  0  0  0  0  0
  186.3410  178.2840  142.4310 S   0  0  0  0  0  0  0  0  0  0  0  0
  185.2210  177.6140  143.6930 C   0  0  0  0  0  2  0  0  0  0  0  0
  183.6620  179.0220  145.4830 O   0  0  0  0  0  1  0  0  0  0  0  0
  185.7790  177.8800  145.0850 C   0  0  1  0  0  3  0  0  0  0  0  0
  185.0030  178.9700  145.8730 C   0  0  2  0  0  3  0  0  0  0  0  0
  186.3760  178.2700  147.7280 C   0  0  0  0  0  2  0  0  0  0  0  0
  186.5660  176.8330  147.2280 C   0  0  0  0  0  2  0  0  0  0  0  0
  185.8680  176.5880  145.8870 C   0  0  0  0  0  2  0  0  0  0  0  0
  185.0650  178.7790  147.3300 N   0  0  0  0  0  2  0  0  0  0  0  0
  1 24  1  1  0  0  0
  1 10  1  0  0  0  0
  2  7  1  0  0  0  0
  2 11  1  0  0  0  0
  2  5  1  1  0  0  0
  4  8  2  0  0  0  0
  6 11  1  0  0  0  0
  7  3  1  1  0  0  0
  7  1  1  0  0  0  0
  8 14  1  0  0  0  0
  8 25  1  0  0  0  0
  9 15  1  6  0  0  0
  9  3  1  0  0  0  0
 12 13  2  0  0  0  0
 12  4  1  0  0  0  0
 13  9  1  0  0  0  0
 14  3  2  0  0  0  0
 14  6  1  0  0  0  0
 15 10  1  0  0  0  0
 16 20  1  0  0  0  0
 17 19  1  0  0  0  0
 17 16  2  0  0  0  0
 18 13  1  0  0  0  0
 19 21  2  0  0  0  0
 20 18  2  0  0  0  0
 21 18  1  0  0  0  0
 22 16  1  0  0  0  0
 23 24  1  0  0  0  0
 26 25  1  0  0  0  0
 26 27  1  0  0  0  0
 29 27  1  6  0  0  0
 29 30  1  0  0  0  0
 29 33  1  0  0  0  0
 30 28  1  6  0  0  0
 30 34  1  0  0  0  0
 32 31  1  0  0  0  0
 33 32  1  0  0  0  0
 34 31  1  0  0  0  0
M  END
>  <MODEL>
9

>  <REMARK>
 VINA RESULT:      -6.6      1.797      2.025
  Name = 
  6 active torsions:
  status: ('A' for Active; 'I' for Inactive)
    1  A    between atoms: C_1  and  O_19
    2  A    between atoms: C_3  and  C_13
    3  A    between atoms: C_3  and  S_17
    4  A    between atoms: C_12  and  C_28
    5  A    between atoms: S_17  and  C_29
    6  A    between atoms: C_18  and  C_29
                            x       y       z     vdW  Elec       q    Type
                         _______ _______ _______ _____ _____    ______ ____

>  <TORSDO>
F 6

$$$$
