=
 OpenBabel11052417063D

 30 34  0  0  1  0  0  0  0  0999 V2000
  187.0430  177.0970  141.9390 C   0  0  0  0  0  0  0  0  0  0  0  0
  184.7730  178.1640  141.8300 C   0  0  0  0  0  0  0  0  0  0  0  0
  187.6230  176.7070  143.0760 C   0  0  0  0  0  0  0  0  0  0  0  0
  187.3230  176.4790  140.5940 C   0  0  0  0  0  3  0  0  0  0  0  0
  190.1390  173.6830  141.7460 S   0  0  0  0  0  0  0  0  0  0  0  0
  190.7690  176.4220  144.3920 C   0  0  0  0  0  3  0  0  0  0  0  0
  188.9250  174.9770  141.9580 C   0  0  0  0  0  0  0  0  0  0  0  0
  188.5180  174.4850  139.7240 C   0  0  0  0  0  2  0  0  0  0  0  0
  188.4610  177.5500  146.1560 N   0  0  0  0  0  2  0  0  0  0  0  0
  188.2090  175.2750  140.7310 C   0  0  0  0  0  0  0  0  0  0  0  0
  188.7000  175.6640  143.0920 C   0  0  0  0  0  0  0  0  0  0  0  0
  183.8050  178.5840  142.6750 C   0  0  0  0  0  3  0  0  0  0  0  0
  189.1360  176.6910  146.8240 C   0  0  0  0  0  2  0  0  0  0  0  0
  191.2180  176.9690  145.5410 C   0  0  0  0  0  3  0  0  0  0  0  0
  188.7850  172.0530  140.0080 C   0  0  0  0  0  1  0  0  0  0  0  0
  184.4130  177.7250  140.5960 F   0  0  0  0  0  0  0  0  0  0  0  0
  185.8470  179.9220  145.5310 F   0  0  0  0  0  0  0  0  0  0  0  0
  184.0810  179.1010  144.0760 C   0  0  0  0  0  2  0  0  0  0  0  0
  189.4910  173.3930  140.0550 C   0  0  2  0  0  3  0  0  0  0  0  0
  186.2480  178.3410  142.1470 C   0  0  1  0  0  3  0  0  0  0  0  0
  187.0970  177.5400  144.1700 C   0  0  0  0  0  0  0  0  0  0  0  0
  187.1860  177.1540  145.6310 C   0  0  2  0  0  3  0  0  0  0  0  0
  190.6140  176.8280  146.9220 C   0  0  0  0  0  2  0  0  0  0  0  0
  189.4630  174.5300  145.0230 O   0  0  0  0  0  0  0  0  0  0  0  0
  185.5240  179.5800  144.2320 C   0  0  2  0  0  3  0  0  0  0  0  0
  186.4280  178.5620  143.6120 C   0  0  0  0  0  0  0  0  0  0  0  0
  189.6190  175.5000  144.2350 C   0  0  0  0  0  0  0  0  0  0  0  0
  186.3690  177.4860  148.0080 C   0  0  0  0  0  1  0  0  0  0  0  0
  185.9830  177.4430  146.5400 C   0  0  0  0  0  3  0  0  0  0  0  0
  184.9340  176.3620  146.3570 C   0  0  0  0  0  1  0  0  0  0  0  0
  1 20  1  0  0  0  0
  1  3  1  0  0  0  0
  2 12  2  0  0  0  0
  3 11  2  0  0  0  0
  3 21  1  0  0  0  0
  4 10  1  0  0  0  0
  4  1  2  0  0  0  0
  5  7  1  0  0  0  0
  6 14  2  0  0  0  0
  7 11  1  0  0  0  0
  8 19  1  0  0  0  0
  8 10  1  0  0  0  0
  9 13  1  0  0  0  0
 10  7  2  0  0  0  0
 11 27  1  0  0  0  0
 12 18  1  0  0  0  0
 13 23  1  0  0  0  0
 14 23  1  0  0  0  0
 16  2  1  0  0  0  0
 18 25  1  0  0  0  0
 19 15  1  1  0  0  0
 19  5  1  0  0  0  0
 20  2  1  1  0  0  0
 20 26  1  0  0  0  0
 21 22  1  0  0  0  0
 22  9  1  0  0  0  0
 22 29  1  1  0  0  0
 25 17  1  1  0  0  0
 26 21  2  0  0  0  0
 26 25  1  0  0  0  0
 27  6  1  0  0  0  0
 27 24  2  0  0  0  0
 29 28  1  0  0  0  0
 30 29  1  0  0  0  0
M  END
>  <MODEL>
1

>  <REMARK>
 VINA RESULT:      -9.1      0.000      0.000
  Name = 
  1 active torsions:
  status: ('A' for Active; 'I' for Inactive)
    1  A    between atoms: C_11  and  C_25
                            x       y       z     vdW  Elec       q    Type
                         _______ _______ _______ _____ _____    ______ ____

>  <TORSDO>
F 1

$$$$
=
 OpenBabel11052417063D

 30 34  0  0  1  0  0  0  0  0999 V2000
  188.7940  177.0020  146.6970 C   0  0  0  0  0  0  0  0  0  0  0  0
  187.1190  178.5770  147.7060 C   0  0  0  0  0  0  0  0  0  0  0  0
  188.8330  176.6960  145.3990 C   0  0  0  0  0  0  0  0  0  0  0  0
  189.9920  176.9610  147.6100 C   0  0  0  0  0  3  0  0  0  0  0  0
  192.8280  175.6870  144.8890 S   0  0  0  0  0  0  0  0  0  0  0  0
  189.6670  174.0420  143.4060 C   0  0  0  0  0  3  0  0  0  0  0  0
  191.2230  176.2270  145.4590 C   0  0  0  0  0  0  0  0  0  0  0  0
  192.4500  176.7140  147.3710 C   0  0  0  0  0  2  0  0  0  0  0  0
  187.1100  175.7040  142.7630 N   0  0  0  0  0  2  0  0  0  0  0  0
  191.2480  176.6920  146.8340 C   0  0  0  0  0  0  0  0  0  0  0  0
  190.0810  176.1790  144.7500 C   0  0  0  0  0  0  0  0  0  0  0  0
  186.0440  179.3020  147.3220 C   0  0  0  0  0  3  0  0  0  0  0  0
  187.7740  175.4970  141.6870 C   0  0  0  0  0  2  0  0  0  0  0  0
  188.8850  173.4490  142.4800 C   0  0  0  0  0  3  0  0  0  0  0  0
  194.4150  177.5400  146.1380 C   0  0  0  0  0  1  0  0  0  0  0  0
  187.8840  179.0410  148.7300 F   0  0  0  0  0  0  0  0  0  0  0  0
  184.4650  177.0020  144.8050 F   0  0  0  0  0  0  0  0  0  0  0  0
  185.1130  178.8870  146.1970 C   0  0  0  0  0  2  0  0  0  0  0  0
  193.5620  176.3260  146.4440 C   0  0  2  0  0  3  0  0  0  0  0  0
  187.3880  177.1860  147.1590 C   0  0  1  0  0  3  0  0  0  0  0  0
  187.4770  176.8530  144.8480 C   0  0  0  0  0  0  0  0  0  0  0  0
  187.1870  177.0010  143.3700 C   0  0  2  0  0  3  0  0  0  0  0  0
  188.1710  174.1110  141.3210 C   0  0  0  0  0  2  0  0  0  0  0  0
  190.4500  176.0650  142.4160 O   0  0  0  0  0  0  0  0  0  0  0  0
  185.1920  177.3870  145.9150 C   0  0  2  0  0  3  0  0  0  0  0  0
  186.6340  176.9890  145.8850 C   0  0  0  0  0  0  0  0  0  0  0  0
  190.0590  175.4710  143.4560 C   0  0  0  0  0  0  0  0  0  0  0  0
  185.7080  177.8130  141.4770 C   0  0  0  0  0  1  0  0  0  0  0  0
  186.1030  177.9970  142.9320 C   0  0  0  0  0  3  0  0  0  0  0  0
  186.6120  179.4160  143.1080 C   0  0  0  0  0  1  0  0  0  0  0  0
  1 20  1  0  0  0  0
  1  4  1  0  0  0  0
  2 16  1  0  0  0  0
  3  1  2  0  0  0  0
  5  7  1  0  0  0  0
  5 19  1  0  0  0  0
  6 27  1  0  0  0  0
  7 10  1  0  0  0  0
  9 22  1  0  0  0  0
 10  8  1  0  0  0  0
 10  4  2  0  0  0  0
 11  3  1  0  0  0  0
 11  7  2  0  0  0  0
 12  2  2  0  0  0  0
 13  9  1  0  0  0  0
 14  6  2  0  0  0  0
 18 12  1  0  0  0  0
 19 15  1  6  0  0  0
 19  8  1  0  0  0  0
 20 26  1  6  0  0  0
 20  2  1  0  0  0  0
 21  3  1  0  0  0  0
 21 26  2  0  0  0  0
 22 29  1  1  0  0  0
 22 21  1  0  0  0  0
 23 13  1  0  0  0  0
 23 14  1  0  0  0  0
 24 27  2  0  0  0  0
 25 17  1  6  0  0  0
 25 18  1  0  0  0  0
 26 25  1  0  0  0  0
 27 11  1  0  0  0  0
 28 29  1  0  0  0  0
 29 30  1  0  0  0  0
M  END
>  <MODEL>
2

>  <REMARK>
 VINA RESULT:      -8.9      2.043      5.344
  Name = 
  1 active torsions:
  status: ('A' for Active; 'I' for Inactive)
    1  A    between atoms: C_11  and  C_25
                            x       y       z     vdW  Elec       q    Type
                         _______ _______ _______ _____ _____    ______ ____

>  <TORSDO>
F 1

$$$$
=
 OpenBabel11052417063D

 30 34  0  0  1  0  0  0  0  0999 V2000
  188.3750  176.1080  142.8410 C   0  0  0  0  0  0  0  0  0  0  0  0
  186.3690  176.7280  144.2160 C   0  0  0  0  0  0  0  0  0  0  0  0
  189.5190  175.6590  143.3610 C   0  0  0  0  0  0  0  0  0  0  0  0
  187.8950  175.7790  141.4510 C   0  0  0  0  0  3  0  0  0  0  0  0
  191.0560  173.4210  140.2200 S   0  0  0  0  0  0  0  0  0  0  0  0
  192.8720  175.7690  142.6870 C   0  0  0  0  0  3  0  0  0  0  0  0
  190.0850  174.4100  141.3470 C   0  0  0  0  0  0  0  0  0  0  0  0
  188.5290  174.2140  139.6320 C   0  0  0  0  0  2  0  0  0  0  0  0
  191.8800  176.1400  145.6180 N   0  0  0  0  0  2  0  0  0  0  0  0
  188.7850  174.7590  140.8030 C   0  0  0  0  0  0  0  0  0  0  0  0
  190.4890  174.8510  142.5520 C   0  0  0  0  0  0  0  0  0  0  0  0
  186.0150  176.8160  145.5180 C   0  0  0  0  0  3  0  0  0  0  0  0
  192.8710  175.3290  145.5960 C   0  0  0  0  0  2  0  0  0  0  0  0
  193.8490  176.2010  143.5120 C   0  0  0  0  0  3  0  0  0  0  0  0
  189.0760  171.8640  139.1400 C   0  0  0  0  0  1  0  0  0  0  0  0
  185.4090  176.4320  143.3000 F   0  0  0  0  0  0  0  0  0  0  0  0
  189.2100  178.0420  147.0690 F   0  0  0  0  0  0  0  0  0  0  0  0
  186.9940  177.1440  146.6320 C   0  0  0  0  0  2  0  0  0  0  0  0
  189.5920  173.2880  139.1220 C   0  0  2  0  0  3  0  0  0  0  0  0
  187.7510  177.1290  143.7300 C   0  0  1  0  0  3  0  0  0  0  0  0
  189.6420  176.1900  144.7290 C   0  0  0  0  0  0  0  0  0  0  0  0
  190.5620  175.5990  145.7760 C   0  0  2  0  0  3  0  0  0  0  0  0
  194.1360  175.7270  144.9210 C   0  0  0  0  0  2  0  0  0  0  0  0
  192.2790  173.5880  143.4430 O   0  0  0  0  0  0  0  0  0  0  0  0
  188.2380  177.8570  146.1050 C   0  0  2  0  0  3  0  0  0  0  0  0
  188.7070  177.1420  144.8770 C   0  0  0  0  0  0  0  0  0  0  0  0
  191.8990  174.6830  142.9520 C   0  0  0  0  0  0  0  0  0  0  0  0
  191.1910  175.2860  148.2120 C   0  0  0  0  0  1  0  0  0  0  0  0
  190.0590  175.5050  147.2240 C   0  0  0  0  0  3  0  0  0  0  0  0
  189.0880  174.3460  147.3530 C   0  0  0  0  0  1  0  0  0  0  0  0
  1  3  1  0  0  0  0
  2 12  2  0  0  0  0
  3 21  1  0  0  0  0
  4  1  2  0  0  0  0
  5  7  1  0  0  0  0
  6 27  1  0  0  0  0
  6 14  2  0  0  0  0
  7 11  1  0  0  0  0
  8 10  1  0  0  0  0
  9 22  1  0  0  0  0
 10  7  2  0  0  0  0
 10  4  1  0  0  0  0
 11 27  1  0  0  0  0
 11  3  2  0  0  0  0
 12 18  1  0  0  0  0
 13  9  1  0  0  0  0
 14 23  1  0  0  0  0
 16  2  1  0  0  0  0
 19 15  1  1  0  0  0
 19  8  1  0  0  0  0
 19  5  1  0  0  0  0
 20  1  1  6  0  0  0
 20  2  1  0  0  0  0
 20 26  1  0  0  0  0
 21 26  2  0  0  0  0
 21 22  1  0  0  0  0
 22 29  1  1  0  0  0
 23 13  1  0  0  0  0
 25 18  1  0  0  0  0
 25 17  1  1  0  0  0
 26 25  1  0  0  0  0
 27 24  2  0  0  0  0
 29 30  1  0  0  0  0
 29 28  1  0  0  0  0
M  END
>  <MODEL>
3

>  <REMARK>
 VINA RESULT:      -8.4      2.111      3.183
  Name = 
  1 active torsions:
  status: ('A' for Active; 'I' for Inactive)
    1  A    between atoms: C_11  and  C_25
                            x       y       z     vdW  Elec       q    Type
                         _______ _______ _______ _____ _____    ______ ____

>  <TORSDO>
F 1

$$$$
=
 OpenBabel11052417063D

 30 34  0  0  1  0  0  0  0  0999 V2000
  188.3400  174.8650  142.5910 C   0  0  0  0  0  0  0  0  0  0  0  0
  189.1460  173.9420  140.4010 C   0  0  0  0  0  0  0  0  0  0  0  0
  189.1530  175.3100  143.5510 C   0  0  0  0  0  0  0  0  0  0  0  0
  186.9260  175.3480  142.3930 C   0  0  0  0  0  3  0  0  0  0  0  0
  186.7240  178.0410  145.5190 S   0  0  0  0  0  0  0  0  0  0  0  0
  189.2420  175.5000  146.9670 C   0  0  0  0  0  3  0  0  0  0  0  0
  187.4800  176.8520  144.4220 C   0  0  0  0  0  0  0  0  0  0  0  0
  185.4930  177.1800  143.2600 C   0  0  0  0  0  2  0  0  0  0  0  0
  191.8110  174.6770  145.4050 N   0  0  0  0  0  2  0  0  0  0  0  0
  186.6200  176.4980  143.3060 C   0  0  0  0  0  0  0  0  0  0  0  0
  188.6840  176.2790  144.5950 C   0  0  0  0  0  0  0  0  0  0  0  0
  190.3150  173.6570  139.7850 C   0  0  0  0  0  3  0  0  0  0  0  0
  192.1070  175.5430  146.3000 C   0  0  0  0  0  2  0  0  0  0  0  0
  190.2090  175.0230  147.7780 C   0  0  0  0  0  3  0  0  0  0  0  0
  185.4170  179.6040  143.6850 C   0  0  0  0  0  1  0  0  0  0  0  0
  188.0790  174.2980  139.6380 F   0  0  0  0  0  0  0  0  0  0  0  0
  192.3900  172.4350  142.6690 F   0  0  0  0  0  0  0  0  0  0  0  0
  191.5740  173.2430  140.5260 C   0  0  0  0  0  2  0  0  0  0  0  0
  185.3490  178.2300  144.3200 C   0  0  2  0  0  3  0  0  0  0  0  0
  188.9390  173.6960  141.8850 C   0  0  1  0  0  3  0  0  0  0  0  0
  190.4420  174.6080  143.4240 C   0  0  0  0  0  0  0  0  0  0  0  0
  191.7310  175.1090  144.0400 C   0  0  2  0  0  3  0  0  0  0  0  0
  191.6930  175.3190  147.7110 C   0  0  0  0  0  2  0  0  0  0  0  0
  190.0970  177.5190  146.0300 O   0  0  0  0  0  0  0  0  0  0  0  0
  191.2610  172.6870  141.9140 C   0  0  2  0  0  3  0  0  0  0  0  0
  190.2620  173.5880  142.5690 C   0  0  0  0  0  0  0  0  0  0  0  0
  189.4070  176.4780  145.8650 C   0  0  0  0  0  0  0  0  0  0  0  0
  194.2430  174.7790  144.1220 C   0  0  0  0  0  1  0  0  0  0  0  0
  193.0290  174.9760  143.2310 C   0  0  0  0  0  3  0  0  0  0  0  0
  193.2470  176.2300  142.4050 C   0  0  0  0  0  1  0  0  0  0  0  0
  1  3  1  0  0  0  0
  3 11  2  0  0  0  0
  4  1  2  0  0  0  0
  4 10  1  0  0  0  0
  6 14  2  0  0  0  0
  7 11  1  0  0  0  0
  7  5  1  0  0  0  0
  8 10  1  0  0  0  0
  8 19  1  0  0  0  0
  9 13  1  0  0  0  0
 10  7  2  0  0  0  0
 11 27  1  0  0  0  0
 12  2  2  0  0  0  0
 12 18  1  0  0  0  0
 13 23  1  0  0  0  0
 16  2  1  0  0  0  0
 18 25  1  0  0  0  0
 19 15  1  6  0  0  0
 19  5  1  0  0  0  0
 20  2  1  6  0  0  0
 20 26  1  0  0  0  0
 20  1  1  0  0  0  0
 21  3  1  0  0  0  0
 21 22  1  0  0  0  0
 22 29  1  6  0  0  0
 22  9  1  0  0  0  0
 23 14  1  0  0  0  0
 25 26  1  0  0  0  0
 25 17  1  1  0  0  0
 26 21  2  0  0  0  0
 27 24  2  0  0  0  0
 27  6  1  0  0  0  0
 29 28  1  0  0  0  0
 30 29  1  0  0  0  0
M  END
>  <MODEL>
4

>  <REMARK>
 VINA RESULT:      -8.2      3.061      6.090
  Name = 
  1 active torsions:
  status: ('A' for Active; 'I' for Inactive)
    1  A    between atoms: C_11  and  C_25
                            x       y       z     vdW  Elec       q    Type
                         _______ _______ _______ _____ _____    ______ ____

>  <TORSDO>
F 1

$$$$
=
 OpenBabel11052417063D

 30 34  0  0  1  0  0  0  0  0999 V2000
  191.4540  175.2710  146.1440 C   0  0  0  0  0  0  0  0  0  0  0  0
  190.4410  177.0160  147.6380 C   0  0  0  0  0  0  0  0  0  0  0  0
  191.0500  175.0430  144.8930 C   0  0  0  0  0  0  0  0  0  0  0  0
  192.8490  174.9940  146.6430 C   0  0  0  0  0  3  0  0  0  0  0  0
  194.4860  173.4770  143.1660 S   0  0  0  0  0  0  0  0  0  0  0  0
  190.8020  172.4210  142.7070 C   0  0  0  0  0  3  0  0  0  0  0  0
  193.2370  174.2170  144.2080 C   0  0  0  0  0  0  0  0  0  0  0  0
  195.0470  174.3950  145.6560 C   0  0  0  0  0  2  0  0  0  0  0  0
  188.4750  174.4850  142.9030 N   0  0  0  0  0  2  0  0  0  0  0  0
  193.7510  174.5870  145.5150 C   0  0  0  0  0  0  0  0  0  0  0  0
  191.9430  174.3850  143.8840 C   0  0  0  0  0  0  0  0  0  0  0  0
  189.4330  177.9160  147.6130 C   0  0  0  0  0  3  0  0  0  0  0  0
  188.7400  174.2470  141.6730 C   0  0  0  0  0  2  0  0  0  0  0  0
  189.6910  172.0100  142.0600 C   0  0  0  0  0  3  0  0  0  0  0  0
  196.6540  174.9900  143.8880 C   0  0  0  0  0  1  0  0  0  0  0  0
  191.5440  177.2950  148.3820 F   0  0  0  0  0  0  0  0  0  0  0  0
  186.8170  176.0390  145.6760 F   0  0  0  0  0  0  0  0  0  0  0  0
  188.1510  177.7160  146.8240 C   0  0  0  0  0  2  0  0  0  0  0  0
  195.7480  173.9020  144.4270 C   0  0  2  0  0  3  0  0  0  0  0  0
  190.3030  175.6360  147.0180 C   0  0  1  0  0  3  0  0  0  0  0  0
  189.6350  175.4360  144.7880 C   0  0  0  0  0  0  0  0  0  0  0  0
  188.9400  175.7160  143.4730 C   0  0  2  0  0  3  0  0  0  0  0  0
  188.7780  172.8420  141.1850 C   0  0  0  0  0  2  0  0  0  0  0  0
  191.5660  174.3600  141.5490 O   0  0  0  0  0  0  0  0  0  0  0  0
  187.8970  176.2410  146.5130 C   0  0  2  0  0  3  0  0  0  0  0  0
  189.1780  175.6330  146.0360 C   0  0  0  0  0  0  0  0  0  0  0  0
  191.4170  173.7690  142.6520 C   0  0  0  0  0  0  0  0  0  0  0  0
  186.6330  176.4900  142.7630 C   0  0  0  0  0  1  0  0  0  0  0  0
  187.9510  176.8890  143.4020 C   0  0  0  0  0  3  0  0  0  0  0  0
  188.5530  178.0150  142.5820 C   0  0  0  0  0  1  0  0  0  0  0  0
  1  4  1  0  0  0  0
  1 20  1  0  0  0  0
  2 16  1  0  0  0  0
  3  1  2  0  0  0  0
  5  7  1  0  0  0  0
  5 19  1  0  0  0  0
  7 10  1  0  0  0  0
  9 22  1  0  0  0  0
 10  8  1  0  0  0  0
 10  4  2  0  0  0  0
 11  7  2  0  0  0  0
 11  3  1  0  0  0  0
 12  2  2  0  0  0  0
 13  9  1  0  0  0  0
 14  6  2  0  0  0  0
 18 12  1  0  0  0  0
 19 15  1  6  0  0  0
 19  8  1  0  0  0  0
 20 26  1  6  0  0  0
 20  2  1  0  0  0  0
 21  3  1  0  0  0  0
 21 26  2  0  0  0  0
 22 29  1  1  0  0  0
 22 21  1  0  0  0  0
 23 13  1  0  0  0  0
 23 14  1  0  0  0  0
 24 27  2  0  0  0  0
 25 17  1  6  0  0  0
 25 18  1  0  0  0  0
 26 25  1  0  0  0  0
 27  6  1  0  0  0  0
 27 11  1  0  0  0  0
 28 29  1  0  0  0  0
 30 29  1  0  0  0  0
M  END
>  <MODEL>
5

>  <REMARK>
 VINA RESULT:      -7.9      3.120      6.089
  Name = 
  1 active torsions:
  status: ('A' for Active; 'I' for Inactive)
    1  A    between atoms: C_11  and  C_25
                            x       y       z     vdW  Elec       q    Type
                         _______ _______ _______ _____ _____    ______ ____

>  <TORSDO>
F 1

$$$$
=
 OpenBabel11052417063D

 30 34  0  0  1  0  0  0  0  0999 V2000
  189.6300  177.0220  146.0050 C   0  0  0  0  0  0  0  0  0  0  0  0
  191.5950  175.8910  147.0810 C   0  0  0  0  0  0  0  0  0  0  0  0
  188.9890  176.5370  144.9400 C   0  0  0  0  0  0  0  0  0  0  0  0
  188.9930  177.9160  147.0380 C   0  0  0  0  0  3  0  0  0  0  0  0
  185.2060  178.1840  145.4090 S   0  0  0  0  0  0  0  0  0  0  0  0
  187.2990  177.7040  142.2010 C   0  0  0  0  0  3  0  0  0  0  0  0
  186.8960  177.6240  145.5540 C   0  0  0  0  0  0  0  0  0  0  0  0
  186.7040  178.6830  147.6140 C   0  0  0  0  0  2  0  0  0  0  0  0
  189.2780  175.3170  141.8860 N   0  0  0  0  0  2  0  0  0  0  0  0
  187.5190  178.0490  146.7960 C   0  0  0  0  0  0  0  0  0  0  0  0
  187.5770  176.9310  144.6240 C   0  0  0  0  0  0  0  0  0  0  0  0
  192.3740  174.8030  146.8880 C   0  0  0  0  0  3  0  0  0  0  0  0
  188.1890  175.0610  141.2630 C   0  0  0  0  0  2  0  0  0  0  0  0
  187.5560  177.4130  140.9090 C   0  0  0  0  0  3  0  0  0  0  0  0
  184.3990  177.9160  148.0140 C   0  0  0  0  0  1  0  0  0  0  0  0
  191.3990  176.3320  148.3520 F   0  0  0  0  0  0  0  0  0  0  0  0
  192.5810  174.7020  143.1370 F   0  0  0  0  0  0  0  0  0  0  0  0
  192.6720  174.2190  145.5180 C   0  0  0  0  0  2  0  0  0  0  0  0
  185.2850  178.7810  147.1410 C   0  0  2  0  0  3  0  0  0  0  0  0
  191.0910  176.7340  145.9230 C   0  0  1  0  0  3  0  0  0  0  0  0
  189.9340  175.7120  144.1700 C   0  0  0  0  0  0  0  0  0  0  0  0
  189.5040  174.6790  143.1510 C   0  0  2  0  0  3  0  0  0  0  0  0
  187.6540  176.0400  140.2790 C   0  0  0  0  0  2  0  0  0  0  0  0
  186.1640  175.8080  143.0960 O   0  0  0  0  0  0  0  0  0  0  0  0
  192.4580  175.2420  144.4030 C   0  0  2  0  0  3  0  0  0  0  0  0
  191.1640  175.9490  144.6550 C   0  0  0  0  0  0  0  0  0  0  0  0
  186.9880  176.7410  143.2850 C   0  0  0  0  0  0  0  0  0  0  0  0
  190.1850  172.7020  141.7180 C   0  0  0  0  0  1  0  0  0  0  0  0
  190.2690  173.3490  143.0890 C   0  0  0  0  0  3  0  0  0  0  0  0
  189.6920  172.3810  144.1050 C   0  0  0  0  0  1  0  0  0  0  0  0
  1  4  1  0  0  0  0
  2 16  1  0  0  0  0
  3  1  2  0  0  0  0
  5  7  1  0  0  0  0
  5 19  1  0  0  0  0
  6 27  1  0  0  0  0
  7 10  1  0  0  0  0
  9 22  1  0  0  0  0
 10  4  2  0  0  0  0
 10  8  1  0  0  0  0
 11  3  1  0  0  0  0
 11  7  2  0  0  0  0
 12  2  2  0  0  0  0
 13  9  1  0  0  0  0
 14  6  2  0  0  0  0
 18 12  1  0  0  0  0
 19  8  1  0  0  0  0
 19 15  1  1  0  0  0
 20 26  1  6  0  0  0
 20  1  1  0  0  0  0
 20  2  1  0  0  0  0
 21 26  2  0  0  0  0
 21  3  1  0  0  0  0
 22 29  1  6  0  0  0
 22 21  1  0  0  0  0
 23 14  1  0  0  0  0
 23 13  1  0  0  0  0
 24 27  2  0  0  0  0
 25 17  1  6  0  0  0
 25 26  1  0  0  0  0
 25 18  1  0  0  0  0
 27 11  1  0  0  0  0
 28 29  1  0  0  0  0
 29 30  1  0  0  0  0
M  END
>  <MODEL>
6

>  <REMARK>
 VINA RESULT:      -7.8      3.187      7.080
  Name = 
  1 active torsions:
  status: ('A' for Active; 'I' for Inactive)
    1  A    between atoms: C_11  and  C_25
                            x       y       z     vdW  Elec       q    Type
                         _______ _______ _______ _____ _____    ______ ____

>  <TORSDO>
F 1

$$$$
=
 OpenBabel11052417063D

 30 34  0  0  1  0  0  0  0  0999 V2000
  189.8320  174.8850  142.3020 C   0  0  0  0  0  0  0  0  0  0  0  0
  187.6440  175.9950  142.8340 C   0  0  0  0  0  0  0  0  0  0  0  0
  190.7640  174.6110  143.2150 C   0  0  0  0  0  0  0  0  0  0  0  0
  189.6530  174.1100  141.0210 C   0  0  0  0  0  3  0  0  0  0  0  0
  192.7250  171.3870  141.4820 S   0  0  0  0  0  0  0  0  0  0  0  0
  194.1730  174.3900  143.4270 C   0  0  0  0  0  3  0  0  0  0  0  0
  191.6370  172.7300  141.9360 C   0  0  0  0  0  0  0  0  0  0  0  0
  190.5110  171.9980  140.0390 C   0  0  0  0  0  2  0  0  0  0  0  0
  192.5760  175.7750  145.7180 N   0  0  0  0  0  2  0  0  0  0  0  0
  190.5470  172.9060  140.9930 C   0  0  0  0  0  0  0  0  0  0  0  0
  191.7970  173.5470  142.9920 C   0  0  0  0  0  0  0  0  0  0  0  0
  187.0100  176.5350  143.8990 C   0  0  0  0  0  3  0  0  0  0  0  0
  193.4470  174.9790  146.2170 C   0  0  0  0  0  2  0  0  0  0  0  0
  194.9740  175.0520  144.2880 C   0  0  0  0  0  3  0  0  0  0  0  0
  190.8870  169.6080  140.4990 C   0  0  0  0  0  1  0  0  0  0  0  0
  186.8960  175.4280  141.8510 F   0  0  0  0  0  0  0  0  0  0  0  0
  189.8760  178.1320  145.7310 F   0  0  0  0  0  0  0  0  0  0  0  0
  187.7340  177.2000  145.0570 C   0  0  0  0  0  2  0  0  0  0  0  0
  191.5510  170.9250  140.1510 C   0  0  2  0  0  3  0  0  0  0  0  0
  189.1370  176.1660  142.6170 C   0  0  1  0  0  3  0  0  0  0  0  0
  190.6260  175.5760  144.3180 C   0  0  0  0  0  0  0  0  0  0  0  0
  191.2040  175.3570  145.6990 C   0  0  2  0  0  3  0  0  0  0  0  0
  194.8700  175.0850  145.7980 C   0  0  0  0  0  2  0  0  0  0  0  0
  193.1770  172.6190  144.6740 O   0  0  0  0  0  0  0  0  0  0  0  0
  189.1400  177.6540  144.6650 C   0  0  2  0  0  3  0  0  0  0  0  0
  189.7960  176.5470  143.9010 C   0  0  0  0  0  0  0  0  0  0  0  0
  193.0480  173.4890  143.7720 C   0  0  0  0  0  0  0  0  0  0  0  0
  191.2270  175.9810  148.1560 C   0  0  0  0  0  1  0  0  0  0  0  0
  190.3720  175.7810  146.9180 C   0  0  0  0  0  3  0  0  0  0  0  0
  189.3370  174.7150  147.2250 C   0  0  0  0  0  1  0  0  0  0  0  0
  1  3  1  0  0  0  0
  2 12  2  0  0  0  0
  3 21  1  0  0  0  0
  4  1  2  0  0  0  0
  5  7  1  0  0  0  0
  6 27  1  0  0  0  0
  6 14  2  0  0  0  0
  7 11  1  0  0  0  0
  8 19  1  0  0  0  0
  8 10  1  0  0  0  0
  9 13  1  0  0  0  0
 10  4  1  0  0  0  0
 10  7  2  0  0  0  0
 11  3  2  0  0  0  0
 11 27  1  0  0  0  0
 12 18  1  0  0  0  0
 14 23  1  0  0  0  0
 16  2  1  0  0  0  0
 19 15  1  1  0  0  0
 19  5  1  0  0  0  0
 20  1  1  1  0  0  0
 20  2  1  0  0  0  0
 20 26  1  0  0  0  0
 21 22  1  0  0  0  0
 22  9  1  0  0  0  0
 22 29  1  1  0  0  0
 23 13  1  0  0  0  0
 25 18  1  0  0  0  0
 25 17  1  1  0  0  0
 26 21  2  0  0  0  0
 26 25  1  0  0  0  0
 27 24  2  0  0  0  0
 29 30  1  0  0  0  0
 29 28  1  0  0  0  0
M  END
>  <MODEL>
7

>  <REMARK>
 VINA RESULT:      -7.7      2.754      4.025
  Name = 
  1 active torsions:
  status: ('A' for Active; 'I' for Inactive)
    1  A    between atoms: C_11  and  C_25
                            x       y       z     vdW  Elec       q    Type
                         _______ _______ _______ _____ _____    ______ ____

>  <TORSDO>
F 1

$$$$
=
 OpenBabel11052417063D

 30 34  0  0  1  0  0  0  0  0999 V2000
  190.6040  176.2670  144.1860 C   0  0  0  0  0  0  0  0  0  0  0  0
  192.7050  175.9900  145.5310 C   0  0  0  0  0  0  0  0  0  0  0  0
  190.0810  175.3050  143.4240 C   0  0  0  0  0  0  0  0  0  0  0  0
  189.8000  177.3750  144.8150 C   0  0  0  0  0  3  0  0  0  0  0  0
  186.0640  176.3530  143.3790 S   0  0  0  0  0  0  0  0  0  0  0  0
  188.2860  175.0080  140.5250 C   0  0  0  0  0  3  0  0  0  0  0  0
  187.8200  176.1830  143.6570 C   0  0  0  0  0  0  0  0  0  0  0  0
  187.4000  177.9160  145.1480 C   0  0  0  0  0  2  0  0  0  0  0  0
  190.6480  173.0520  141.0780 N   0  0  0  0  0  2  0  0  0  0  0  0
  188.3310  177.1570  144.6060 C   0  0  0  0  0  0  0  0  0  0  0  0
  188.6310  175.3040  143.0420 C   0  0  0  0  0  0  0  0  0  0  0  0
  193.6630  175.0590  145.7420 C   0  0  0  0  0  3  0  0  0  0  0  0
  189.6340  172.3960  140.6530 C   0  0  0  0  0  2  0  0  0  0  0  0
  188.6200  174.2810  139.4380 C   0  0  0  0  0  3  0  0  0  0  0  0
  185.2490  176.9970  145.9160 C   0  0  0  0  0  1  0  0  0  0  0  0
  192.4060  176.8540  146.5360 F   0  0  0  0  0  0  0  0  0  0  0  0
  193.9760  173.5330  142.3230 F   0  0  0  0  0  0  0  0  0  0  0  0
  194.0890  174.0420  144.6970 C   0  0  0  0  0  2  0  0  0  0  0  0
  185.9980  177.5850  144.7370 C   0  0  2  0  0  3  0  0  0  0  0  0
  192.0940  176.2160  144.1590 C   0  0  1  0  0  3  0  0  0  0  0  0
  191.1710  174.4130  142.9960 C   0  0  0  0  0  0  0  0  0  0  0  0
  190.9480  173.0070  142.4800 C   0  0  2  0  0  3  0  0  0  0  0  0
  188.9660  172.8080  139.3900 C   0  0  0  0  0  2  0  0  0  0  0  0
  187.4670  173.4540  142.1370 O   0  0  0  0  0  0  0  0  0  0  0  0
  193.7310  174.4960  143.2820 C   0  0  2  0  0  3  0  0  0  0  0  0
  192.3310  175.0210  143.2960 C   0  0  0  0  0  0  0  0  0  0  0  0
  188.1160  174.5100  141.9110 C   0  0  0  0  0  0  0  0  0  0  0  0
  191.9480  170.7440  141.9310 C   0  0  0  0  0  1  0  0  0  0  0  0
  191.9280  171.9060  142.9080 C   0  0  0  0  0  3  0  0  0  0  0  0
  191.5310  171.3700  144.2710 C   0  0  0  0  0  1  0  0  0  0  0  0
  1  4  1  0  0  0  0
  2 12  2  0  0  0  0
  2 16  1  0  0  0  0
  3  1  2  0  0  0  0
  5  7  1  0  0  0  0
  5 19  1  0  0  0  0
  6 27  1  0  0  0  0
  7 10  1  0  0  0  0
  9 22  1  0  0  0  0
 10  4  2  0  0  0  0
 10  8  1  0  0  0  0
 11  3  1  0  0  0  0
 11  7  2  0  0  0  0
 13  9  1  0  0  0  0
 14  6  2  0  0  0  0
 18 12  1  0  0  0  0
 19  8  1  0  0  0  0
 19 15  1  1  0  0  0
 20 26  1  6  0  0  0
 20  1  1  0  0  0  0
 20  2  1  0  0  0  0
 21 26  2  0  0  0  0
 21  3  1  0  0  0  0
 22 29  1  6  0  0  0
 22 21  1  0  0  0  0
 23 14  1  0  0  0  0
 23 13  1  0  0  0  0
 25 17  1  6  0  0  0
 25 26  1  0  0  0  0
 25 18  1  0  0  0  0
 27 24  2  0  0  0  0
 27 11  1  0  0  0  0
 28 29  1  0  0  0  0
 29 30  1  0  0  0  0
M  END
>  <MODEL>
8

>  <REMARK>
 VINA RESULT:      -7.5      3.581      7.326
  Name = 
  1 active torsions:
  status: ('A' for Active; 'I' for Inactive)
    1  A    between atoms: C_11  and  C_25
                            x       y       z     vdW  Elec       q    Type
                         _______ _______ _______ _____ _____    ______ ____

>  <TORSDO>
F 1

$$$$
=
 OpenBabel11052417063D

 30 34  0  0  1  0  0  0  0  0999 V2000
  190.8100  173.8090  142.1180 C   0  0  0  0  0  0  0  0  0  0  0  0
  192.6850  172.8360  140.7620 C   0  0  0  0  0  0  0  0  0  0  0  0
  190.9940  174.5190  143.2320 C   0  0  0  0  0  0  0  0  0  0  0  0
  189.6170  173.9580  141.2090 C   0  0  0  0  0  3  0  0  0  0  0  0
  187.5800  176.8810  143.3010 S   0  0  0  0  0  0  0  0  0  0  0  0
  189.3990  175.1040  146.2040 C   0  0  0  0  0  3  0  0  0  0  0  0
  188.9200  175.7620  142.9250 C   0  0  0  0  0  0  0  0  0  0  0  0
  187.7160  175.5330  140.9500 C   0  0  0  0  0  2  0  0  0  0  0  0
  192.4850  174.6700  146.1740 N   0  0  0  0  0  2  0  0  0  0  0  0
  188.7600  175.1130  141.6360 C   0  0  0  0  0  0  0  0  0  0  0  0
  189.9560  175.4780  143.7350 C   0  0  0  0  0  0  0  0  0  0  0  0
  194.0330  172.7380  140.8130 C   0  0  0  0  0  3  0  0  0  0  0  0
  192.1970  175.6740  146.9140 C   0  0  0  0  0  2  0  0  0  0  0  0
  189.9090  174.9350  147.4420 C   0  0  0  0  0  3  0  0  0  0  0  0
  187.1250  177.9190  140.8050 C   0  0  0  0  0  1  0  0  0  0  0  0
  192.0820  172.8730  139.5450 F   0  0  0  0  0  0  0  0  0  0  0  0
  194.6020  172.3080  144.5020 F   0  0  0  0  0  0  0  0  0  0  0  0
  194.8210  172.6830  142.1100 C   0  0  0  0  0  2  0  0  0  0  0  0
  186.9410  176.6410  141.5980 C   0  0  2  0  0  3  0  0  0  0  0  0
  191.8240  172.7210  142.0070 C   0  0  1  0  0  3  0  0  0  0  0  0
  192.2630  174.0940  143.8450 C   0  0  0  0  0  0  0  0  0  0  0  0
  193.0170  174.9200  144.8650 C   0  0  2  0  0  3  0  0  0  0  0  0
  191.1880  175.5270  147.9970 C   0  0  0  0  0  2  0  0  0  0  0  0
  190.3250  177.1400  145.3770 O   0  0  0  0  0  0  0  0  0  0  0  0
  193.9540  172.2310  143.2850 C   0  0  2  0  0  3  0  0  0  0  0  0
  192.6540  172.9700  143.2230 C   0  0  0  0  0  0  0  0  0  0  0  0
  189.9440  175.9650  145.1270 C   0  0  0  0  0  0  0  0  0  0  0  0
  195.1940  175.2130  146.1310 C   0  0  0  0  0  1  0  0  0  0  0  0
  194.5490  174.9730  144.7770 C   0  0  0  0  0  3  0  0  0  0  0  0
  194.9680  176.0980  143.8480 C   0  0  0  0  0  1  0  0  0  0  0  0
  1  3  1  0  0  0  0
  2 12  2  0  0  0  0
  3 11  2  0  0  0  0
  3 21  1  0  0  0  0
  4 10  1  0  0  0  0
  4  1  2  0  0  0  0
  6 14  2  0  0  0  0
  7  5  1  0  0  0  0
  7 11  1  0  0  0  0
  8 19  1  0  0  0  0
  8 10  1  0  0  0  0
  9 13  1  0  0  0  0
 10  7  2  0  0  0  0
 11 27  1  0  0  0  0
 12 18  1  0  0  0  0
 13 23  1  0  0  0  0
 14 23  1  0  0  0  0
 16  2  1  0  0  0  0
 18 25  1  0  0  0  0
 19 15  1  6  0  0  0
 19  5  1  0  0  0  0
 20  2  1  6  0  0  0
 20  1  1  0  0  0  0
 20 26  1  0  0  0  0
 21 22  1  0  0  0  0
 22 29  1  1  0  0  0
 22  9  1  0  0  0  0
 25 17  1  1  0  0  0
 26 25  1  0  0  0  0
 26 21  2  0  0  0  0
 27 24  2  0  0  0  0
 27  6  1  0  0  0  0
 29 28  1  0  0  0  0
 30 29  1  0  0  0  0
M  END
>  <MODEL>
9

>  <REMARK>
 VINA RESULT:      -7.1      4.035      6.899
  Name = 
  1 active torsions:
  status: ('A' for Active; 'I' for Inactive)
    1  A    between atoms: C_11  and  C_25
                            x       y       z     vdW  Elec       q    Type
                         _______ _______ _______ _____ _____    ______ ____

>  <TORSDO>
F 1

$$$$
