=
 OpenBabel11052420153D

 34 39  0  0  1  0  0  0  0  0999 V2000
  190.2810  177.0290  144.5520 C   0  0  0  0  0  0  0  0  0  0  0  0
  187.9530  177.6680  144.1000 C   0  0  0  0  0  0  0  0  0  0  0  0
  189.5750  177.7120  142.3120 C   0  0  0  0  0  3  0  0  0  0  0  0
  191.1610  176.3260  146.7320 O   0  0  0  0  0  1  0  0  0  0  0  0
  192.6200  176.4280  144.8220 C   0  0  0  0  0  0  0  0  0  0  0  0
  192.8230  176.6960  143.5070 N   0  0  0  0  0  0  0  0  0  0  0  0
  190.5720  177.2800  143.1870 C   0  0  0  0  0  0  0  0  0  0  0  0
  191.3460  176.5940  145.3780 C   0  0  0  0  0  0  0  0  0  0  0  0
  191.8320  177.1060  142.7180 N   0  0  0  0  0  0  0  0  0  0  0  0
  186.6380  177.8720  144.5290 C   0  0  0  0  0  3  0  0  0  0  0  0
  186.2850  177.6450  145.8600 C   0  0  0  0  0  0  0  0  0  0  0  0
  187.2580  177.2110  146.7700 C   0  0  0  0  0  3  0  0  0  0  0  0
  188.2740  177.9040  142.7650 C   0  0  0  0  0  3  0  0  0  0  0  0
  188.5720  177.0050  146.3470 C   0  0  0  0  0  3  0  0  0  0  0  0
  188.9480  177.2280  145.0120 C   0  0  0  0  0  0  0  0  0  0  0  0
  184.8670  177.8740  146.2860 C   0  0  0  0  0  3  0  0  0  0  0  0
  184.1180  178.7110  145.2650 C   0  0  0  0  0  1  0  0  0  0  0  0
  184.8070  178.5350  147.6500 C   0  0  0  0  0  1  0  0  0  0  0  0
  193.7760  176.0020  145.6630 C   0  0  0  0  0  2  0  0  0  0  0  0
  194.3860  174.8180  145.0880 N   0  0  0  0  0  2  0  0  0  0  0  0
  193.8150  173.6710  145.7780 C   0  0  0  0  0  2  0  0  0  0  0  0
  192.4780  173.5600  141.2370 C   0  0  0  0  0  3  0  0  0  0  0  0
  191.5880  173.0260  144.7670 C   0  0  0  0  0  2  0  0  0  0  0  0
  190.1880  173.9630  141.3460 C   0  0  0  0  0  0  0  0  0  0  0  0
  188.8910  174.2860  141.0620 C   0  0  0  0  0  0  0  0  0  0  0  0
  191.3160  173.9070  140.5970 N   0  0  0  0  0  0  0  0  0  0  0  0
  188.1510  174.2110  142.1970 N   0  0  0  0  0  0  0  0  0  0  0  0
  192.4740  173.2850  142.5840 N   0  0  0  0  0  0  0  0  0  0  0  0
  188.3770  174.6640  139.7900 N   0  0  0  0  0  1  0  0  0  0  0  0
  190.1710  173.6870  142.7330 C   0  0  0  0  0  0  0  0  0  0  0  0
  191.3600  173.3420  143.3430 C   0  0  0  0  0  0  0  0  0  0  0  0
  188.9290  173.8450  143.2200 N   0  0  0  0  0  0  0  0  0  0  0  0
  193.0980  172.7430  144.8010 C   0  0  1  0  0  3  0  0  0  0  0  0
  193.6320  172.9230  143.3680 C   0  0  0  0  0  2  0  0  0  0  0  0
  1 15  1  0  0  0  0
  1  8  2  0  0  0  0
  2 10  2  0  0  0  0
  2 15  1  0  0  0  0
  3 13  2  0  0  0  0
  3  7  1  0  0  0  0
  5  8  1  0  0  0  0
  5 19  1  0  0  0  0
  6  5  2  0  0  0  0
  7  1  1  0  0  0  0
  8  4  1  0  0  0  0
  9  7  2  0  0  0  0
  9  6  1  0  0  0  0
 10 11  1  0  0  0  0
 11 16  1  0  0  0  0
 11 12  2  0  0  0  0
 13  2  1  0  0  0  0
 14 12  1  0  0  0  0
 15 14  2  0  0  0  0
 16 18  1  0  0  0  0
 17 16  1  0  0  0  0
 20 19  1  0  0  0  0
 20 21  1  0  0  0  0
 22 28  1  0  0  0  0
 23 33  1  0  0  0  0
 24 30  1  0  0  0  0
 25 24  2  0  0  0  0
 25 27  1  0  0  0  0
 26 22  2  0  0  0  0
 26 24  1  0  0  0  0
 27 32  2  0  0  0  0
 28 31  1  0  0  0  0
 28 34  1  0  0  0  0
 29 25  1  0  0  0  0
 30 32  1  0  0  0  0
 30 31  2  0  0  0  0
 31 23  1  0  0  0  0
 33 21  1  1  0  0  0
 34 33  1  0  0  0  0
M  END
>  <MODEL>
1

>  <REMARK>
 VINA RESULT:      -8.0      0.000      0.000
  Name = 
  5 active torsions:
  status: ('A' for Active; 'I' for Inactive)
    1  A    between atoms: C_3  and  C_25
    2  A    between atoms: N_8  and  C_17
    3  A    between atoms: N_8  and  C_18
    4  A    between atoms: C_10  and  C_17
    5  A    between atoms: C_18  and  C_30
                            x       y       z     vdW  Elec       q    Type
                         _______ _______ _______ _____ _____    ______ ____

>  <TORSDO>
F 5

$$$$
=
 OpenBabel11052420153D

 34 39  0  0  1  0  0  0  0  0999 V2000
  190.2020  175.6600  142.5580 C   0  0  0  0  0  0  0  0  0  0  0  0
  187.7470  175.6650  142.5230 C   0  0  0  0  0  0  0  0  0  0  0  0
  188.9530  173.7650  141.6490 C   0  0  0  0  0  3  0  0  0  0  0  0
  191.6120  177.4730  143.4230 O   0  0  0  0  0  1  0  0  0  0  0  0
  192.6260  175.4890  142.5160 C   0  0  0  0  0  0  0  0  0  0  0  0
  192.5130  174.2690  141.9330 N   0  0  0  0  0  0  0  0  0  0  0  0
  190.1680  174.3780  141.9550 C   0  0  0  0  0  0  0  0  0  0  0  0
  191.4740  176.2170  142.8370 C   0  0  0  0  0  0  0  0  0  0  0  0
  191.3250  173.7320  141.6640 N   0  0  0  0  0  0  0  0  0  0  0  0
  186.5240  176.2860  142.7940 C   0  0  0  0  0  3  0  0  0  0  0  0
  186.4870  177.5500  143.3850 C   0  0  0  0  0  0  0  0  0  0  0  0
  187.6860  178.1980  143.7070 C   0  0  0  0  0  3  0  0  0  0  0  0
  187.7500  174.4040  141.9320 C   0  0  0  0  0  3  0  0  0  0  0  0
  188.9110  177.5840  143.4390 C   0  0  0  0  0  3  0  0  0  0  0  0
  188.9690  176.3120  142.8450 C   0  0  0  0  0  0  0  0  0  0  0  0
  185.1590  178.1860  143.6600 C   0  0  0  0  0  3  0  0  0  0  0  0
  184.2340  178.0590  142.4640 C   0  0  0  0  0  1  0  0  0  0  0  0
  185.3220  179.6450  144.0440 C   0  0  0  0  0  1  0  0  0  0  0  0
  193.9850  176.0520  142.7640 C   0  0  0  0  0  2  0  0  0  0  0  0
  194.7310  175.1580  143.6310 N   0  0  0  0  0  2  0  0  0  0  0  0
  195.0220  175.8980  144.8500 C   0  0  0  0  0  2  0  0  0  0  0  0
  190.8220  173.8540  145.6260 C   0  0  0  0  0  3  0  0  0  0  0  0
  193.2260  176.4880  146.5320 C   0  0  0  0  0  2  0  0  0  0  0  0
  189.5170  175.6050  146.4340 C   0  0  0  0  0  0  0  0  0  0  0  0
  188.4830  176.4130  146.8100 C   0  0  0  0  0  0  0  0  0  0  0  0
  189.5780  174.3550  145.9140 N   0  0  0  0  0  0  0  0  0  0  0  0
  188.9750  177.6000  147.2470 N   0  0  0  0  0  0  0  0  0  0  0  0
  191.9460  174.6080  145.8640 N   0  0  0  0  0  0  0  0  0  0  0  0
  187.0980  176.0930  146.7440 N   0  0  0  0  0  1  0  0  0  0  0  0
  190.6670  176.3920  146.6780 C   0  0  0  0  0  0  0  0  0  0  0  0
  191.9020  175.8550  146.3760 C   0  0  0  0  0  0  0  0  0  0  0  0
  190.3090  177.5920  147.1690 N   0  0  0  0  0  0  0  0  0  0  0  0
  194.1740  175.3940  146.0140 C   0  0  1  0  0  3  0  0  0  0  0  0
  193.3040  174.1950  145.5910 C   0  0  0  0  0  2  0  0  0  0  0  0
  1  8  2  0  0  0  0
  1 15  1  0  0  0  0
  2 10  2  0  0  0  0
  2 15  1  0  0  0  0
  3 13  2  0  0  0  0
  3  7  1  0  0  0  0
  5 19  1  0  0  0  0
  5  8  1  0  0  0  0
  6  5  2  0  0  0  0
  7  1  1  0  0  0  0
  8  4  1  0  0  0  0
  9  6  1  0  0  0  0
  9  7  2  0  0  0  0
 10 11  1  0  0  0  0
 11 16  1  0  0  0  0
 11 12  2  0  0  0  0
 13  2  1  0  0  0  0
 14 12  1  0  0  0  0
 15 14  2  0  0  0  0
 16 18  1  0  0  0  0
 17 16  1  0  0  0  0
 19 20  1  0  0  0  0
 20 21  1  0  0  0  0
 22 28  1  0  0  0  0
 22 26  2  0  0  0  0
 24 30  1  0  0  0  0
 24 25  2  0  0  0  0
 25 27  1  0  0  0  0
 26 24  1  0  0  0  0
 28 31  1  0  0  0  0
 29 25  1  0  0  0  0
 30 32  1  0  0  0  0
 31 23  1  0  0  0  0
 31 30  2  0  0  0  0
 32 27  2  0  0  0  0
 33 21  1  6  0  0  0
 33 23  1  0  0  0  0
 34 28  1  0  0  0  0
 34 33  1  0  0  0  0
M  END
>  <MODEL>
2

>  <REMARK>
 VINA RESULT:      -7.6      2.223      3.875
  Name = 
  5 active torsions:
  status: ('A' for Active; 'I' for Inactive)
    1  A    between atoms: C_3  and  C_25
    2  A    between atoms: N_8  and  C_17
    3  A    between atoms: N_8  and  C_18
    4  A    between atoms: C_10  and  C_17
    5  A    between atoms: C_18  and  C_30
                            x       y       z     vdW  Elec       q    Type
                         _______ _______ _______ _____ _____    ______ ____

>  <TORSDO>
F 5

$$$$
=
 OpenBabel11052420153D

 34 39  0  0  1  0  0  0  0  0999 V2000
  190.4260  176.6430  145.4490 C   0  0  0  0  0  0  0  0  0  0  0  0
  188.0960  176.7930  144.6870 C   0  0  0  0  0  0  0  0  0  0  0  0
  188.5930  175.7980  146.8300 C   0  0  0  0  0  3  0  0  0  0  0  0
  192.3820  177.4310  144.1940 O   0  0  0  0  0  1  0  0  0  0  0  0
  192.6690  176.4160  146.3560 C   0  0  0  0  0  0  0  0  0  0  0  0
  192.1450  175.8210  147.4580 N   0  0  0  0  0  0  0  0  0  0  0  0
  189.9550  176.0220  146.6340 C   0  0  0  0  0  0  0  0  0  0  0  0
  191.8230  176.8350  145.3220 C   0  0  0  0  0  0  0  0  0  0  0  0
  190.8330  175.6330  147.5920 N   0  0  0  0  0  0  0  0  0  0  0  0
  187.1460  177.1670  143.7320 C   0  0  0  0  0  3  0  0  0  0  0  0
  187.5420  177.7800  142.5420 C   0  0  0  0  0  0  0  0  0  0  0  0
  188.9020  178.0220  142.3080 C   0  0  0  0  0  3  0  0  0  0  0  0
  187.6690  176.1820  145.8640 C   0  0  0  0  0  3  0  0  0  0  0  0
  189.8550  177.6530  143.2580 C   0  0  0  0  0  3  0  0  0  0  0  0
  189.4770  177.0330  144.4610 C   0  0  0  0  0  0  0  0  0  0  0  0
  186.4980  178.1660  141.5400 C   0  0  0  0  0  3  0  0  0  0  0  0
  185.1050  177.8560  142.0540 C   0  0  0  0  0  1  0  0  0  0  0  0
  186.7330  177.4700  140.2120 C   0  0  0  0  0  1  0  0  0  0  0  0
  194.1490  176.5710  146.2490 C   0  0  0  0  0  2  0  0  0  0  0  0
  194.7880  175.2830  146.4430 N   0  0  0  0  0  2  0  0  0  0  0  0
  195.6680  175.0730  145.3030 C   0  0  0  0  0  2  0  0  0  0  0  0
  192.5410  174.9410  141.7500 C   0  0  0  0  0  3  0  0  0  0  0  0
  193.7760  173.4480  144.8780 C   0  0  0  0  0  2  0  0  0  0  0  0
  190.6710  173.9510  142.7220 C   0  0  0  0  0  0  0  0  0  0  0  0
  189.4070  173.5220  143.0100 C   0  0  0  0  0  0  0  0  0  0  0  0
  191.1980  174.6640  141.6980 N   0  0  0  0  0  0  0  0  0  0  0  0
  189.4160  172.8620  144.1970 N   0  0  0  0  0  0  0  0  0  0  0  0
  193.2990  174.5040  142.8110 N   0  0  0  0  0  0  0  0  0  0  0  0
  188.2440  173.7370  142.2190 N   0  0  0  0  0  1  0  0  0  0  0  0
  191.4400  173.5000  143.8210 C   0  0  0  0  0  0  0  0  0  0  0  0
  192.7870  173.7980  143.8400 C   0  0  0  0  0  0  0  0  0  0  0  0
  190.6550  172.8460  144.6950 N   0  0  0  0  0  0  0  0  0  0  0  0
  195.0670  174.0700  144.3220 C   0  0  1  0  0  3  0  0  0  0  0  0
  194.7130  174.7440  142.9840 C   0  0  0  0  0  2  0  0  0  0  0  0
  1  7  2  0  0  0  0
  2 13  1  0  0  0  0
  4  8  1  0  0  0  0
  5  6  1  0  0  0  0
  6  9  2  0  0  0  0
  7  3  1  0  0  0  0
  7  9  1  0  0  0  0
  8  1  1  0  0  0  0
  8  5  2  0  0  0  0
 10  2  2  0  0  0  0
 11 10  1  0  0  0  0
 12 11  2  0  0  0  0
 12 14  1  0  0  0  0
 13  3  2  0  0  0  0
 14 15  2  0  0  0  0
 15  2  1  0  0  0  0
 15  1  1  0  0  0  0
 16 17  1  0  0  0  0
 16 11  1  0  0  0  0
 18 16  1  0  0  0  0
 19  5  1  0  0  0  0
 19 20  1  0  0  0  0
 21 20  1  0  0  0  0
 22 28  1  0  0  0  0
 24 25  2  0  0  0  0
 24 30  1  0  0  0  0
 25 27  1  0  0  0  0
 26 22  2  0  0  0  0
 26 24  1  0  0  0  0
 27 32  2  0  0  0  0
 28 34  1  0  0  0  0
 28 31  1  0  0  0  0
 29 25  1  0  0  0  0
 30 31  2  0  0  0  0
 30 32  1  0  0  0  0
 31 23  1  0  0  0  0
 33 23  1  0  0  0  0
 33 21  1  1  0  0  0
 34 33  1  0  0  0  0
M  END
>  <MODEL>
3

>  <REMARK>
 VINA RESULT:      -7.6      1.808      3.064
  Name = 
  5 active torsions:
  status: ('A' for Active; 'I' for Inactive)
    1  A    between atoms: C_3  and  C_25
    2  A    between atoms: N_8  and  C_17
    3  A    between atoms: N_8  and  C_18
    4  A    between atoms: C_10  and  C_17
    5  A    between atoms: C_18  and  C_30
                            x       y       z     vdW  Elec       q    Type
                         _______ _______ _______ _____ _____    ______ ____

>  <TORSDO>
F 5

$$$$
=
 OpenBabel11052420153D

 34 39  0  0  1  0  0  0  0  0999 V2000
  189.2320  174.4110  143.8080 C   0  0  0  0  0  0  0  0  0  0  0  0
  188.3360  176.0370  145.4150 C   0  0  0  0  0  0  0  0  0  0  0  0
  189.7010  174.2060  146.2000 C   0  0  0  0  0  3  0  0  0  0  0  0
  188.8580  174.4590  141.3830 O   0  0  0  0  0  1  0  0  0  0  0  0
  190.1990  172.7170  142.3590 C   0  0  0  0  0  0  0  0  0  0  0  0
  190.7480  172.1220  143.4490 N   0  0  0  0  0  0  0  0  0  0  0  0
  189.8440  173.7360  144.8940 C   0  0  0  0  0  0  0  0  0  0  0  0
  189.4230  173.8720  142.5130 C   0  0  0  0  0  0  0  0  0  0  0  0
  190.5770  172.6170  144.6730 N   0  0  0  0  0  0  0  0  0  0  0  0
  187.5870  177.1820  145.7040 C   0  0  0  0  0  3  0  0  0  0  0  0
  186.9560  177.8920  144.6810 C   0  0  0  0  0  0  0  0  0  0  0  0
  187.0770  177.4510  143.3570 C   0  0  0  0  0  3  0  0  0  0  0  0
  188.9520  175.3500  146.4590 C   0  0  0  0  0  3  0  0  0  0  0  0
  187.8240  176.3090  143.0620 C   0  0  0  0  0  3  0  0  0  0  0  0
  188.4650  175.5800  144.0770 C   0  0  0  0  0  0  0  0  0  0  0  0
  186.1610  179.1130  145.0260 C   0  0  0  0  0  3  0  0  0  0  0  0
  185.0920  178.7970  146.0560 C   0  0  0  0  0  1  0  0  0  0  0  0
  185.5300  179.7220  143.7880 C   0  0  0  0  0  1  0  0  0  0  0  0
  190.4000  172.0980  141.0160 C   0  0  0  0  0  2  0  0  0  0  0  0
  191.7870  171.7020  140.8650 N   0  0  0  0  0  2  0  0  0  0  0  0
  192.4030  172.6610  139.9600 C   0  0  0  0  0  2  0  0  0  0  0  0
  194.1160  173.3110  144.3260 C   0  0  0  0  0  3  0  0  0  0  0  0
  192.8180  174.8110  141.2270 C   0  0  0  0  0  2  0  0  0  0  0  0
  193.1260  175.3080  144.9950 C   0  0  0  0  0  0  0  0  0  0  0  0
  192.6340  176.3580  145.7160 C   0  0  0  0  0  0  0  0  0  0  0  0
  193.7910  174.1780  145.3370 N   0  0  0  0  0  0  0  0  0  0  0  0
  192.0150  177.2280  144.8780 N   0  0  0  0  0  0  0  0  0  0  0  0
  193.7690  173.5970  143.0270 N   0  0  0  0  0  0  0  0  0  0  0  0
  192.7230  176.5270  147.1260 N   0  0  0  0  0  1  0  0  0  0  0  0
  192.7600  175.6110  143.6630 C   0  0  0  0  0  0  0  0  0  0  0  0
  193.1030  174.7140  142.6720 C   0  0  0  0  0  0  0  0  0  0  0  0
  192.0890  176.7760  143.6230 N   0  0  0  0  0  0  0  0  0  0  0  0
  193.4400  173.5140  140.6840 C   0  0  1  0  0  3  0  0  0  0  0  0
  194.0440  172.7570  141.8820 C   0  0  0  0  0  2  0  0  0  0  0  0
  1 15  2  0  0  0  0
  1  7  1  0  0  0  0
  2 10  1  0  0  0  0
  2 13  2  0  0  0  0
  3 13  1  0  0  0  0
  4  8  1  0  0  0  0
  5  8  2  0  0  0  0
  5  6  1  0  0  0  0
  6  9  2  0  0  0  0
  7  3  2  0  0  0  0
  8  1  1  0  0  0  0
  9  7  1  0  0  0  0
 11 16  1  0  0  0  0
 11 10  2  0  0  0  0
 12 11  1  0  0  0  0
 14 12  2  0  0  0  0
 14 15  1  0  0  0  0
 15  2  1  0  0  0  0
 16 17  1  0  0  0  0
 18 16  1  0  0  0  0
 19  5  1  0  0  0  0
 20 19  1  0  0  0  0
 21 20  1  0  0  0  0
 22 26  2  0  0  0  0
 23 31  1  0  0  0  0
 24 26  1  0  0  0  0
 24 25  2  0  0  0  0
 25 29  1  0  0  0  0
 27 25  1  0  0  0  0
 28 22  1  0  0  0  0
 30 24  1  0  0  0  0
 31 28  1  0  0  0  0
 31 30  2  0  0  0  0
 32 30  1  0  0  0  0
 32 27  2  0  0  0  0
 33 21  1  1  0  0  0
 33 23  1  0  0  0  0
 33 34  1  0  0  0  0
 34 28  1  0  0  0  0
M  END
>  <MODEL>
4

>  <REMARK>
 VINA RESULT:      -7.3      2.054      4.445
  Name = 
  5 active torsions:
  status: ('A' for Active; 'I' for Inactive)
    1  A    between atoms: C_3  and  C_25
    2  A    between atoms: N_8  and  C_17
    3  A    between atoms: N_8  and  C_18
    4  A    between atoms: C_10  and  C_17
    5  A    between atoms: C_18  and  C_30
                            x       y       z     vdW  Elec       q    Type
                         _______ _______ _______ _____ _____    ______ ____

>  <TORSDO>
F 5

$$$$
=
 OpenBabel11052420153D

 34 39  0  0  1  0  0  0  0  0999 V2000
  190.7440  176.3610  145.7350 C   0  0  0  0  0  0  0  0  0  0  0  0
  188.3370  176.2570  146.2080 C   0  0  0  0  0  0  0  0  0  0  0  0
  189.8700  174.9180  147.5050 C   0  0  0  0  0  3  0  0  0  0  0  0
  191.7890  177.7440  143.9980 O   0  0  0  0  0  1  0  0  0  0  0  0
  193.1510  176.3430  145.4020 C   0  0  0  0  0  0  0  0  0  0  0  0
  193.2660  175.4360  146.4050 N   0  0  0  0  0  0  0  0  0  0  0  0
  190.9470  175.4200  146.7750 C   0  0  0  0  0  0  0  0  0  0  0  0
  191.8870  176.8230  145.0380 C   0  0  0  0  0  0  0  0  0  0  0  0
  192.2010  174.9920  147.0690 N   0  0  0  0  0  0  0  0  0  0  0  0
  187.0230  176.6570  145.9450 C   0  0  0  0  0  3  0  0  0  0  0  0
  186.7520  177.5790  144.9330 C   0  0  0  0  0  0  0  0  0  0  0  0
  187.8080  178.1060  144.1770 C   0  0  0  0  0  3  0  0  0  0  0  0
  188.5730  175.3350  147.2250 C   0  0  0  0  0  3  0  0  0  0  0  0
  189.1220  177.7120  144.4350 C   0  0  0  0  0  3  0  0  0  0  0  0
  189.4150  176.7840  145.4490 C   0  0  0  0  0  0  0  0  0  0  0  0
  185.3330  177.9840  144.6780 C   0  0  0  0  0  3  0  0  0  0  0  0
  185.2620  179.3680  144.0580 C   0  0  0  0  0  1  0  0  0  0  0  0
  184.5140  177.9390  145.9540 C   0  0  0  0  0  1  0  0  0  0  0  0
  194.3780  176.7800  144.6740 C   0  0  0  0  0  2  0  0  0  0  0  0
  195.0650  175.6190  144.1390 N   0  0  0  0  0  2  0  0  0  0  0  0
  194.8680  175.6400  142.6980 C   0  0  0  0  0  2  0  0  0  0  0  0
  192.5480  173.7450  139.0300 C   0  0  0  0  0  3  0  0  0  0  0  0
  193.0160  173.9160  142.6760 C   0  0  0  0  0  2  0  0  0  0  0  0
  190.4630  173.2290  139.9280 C   0  0  0  0  0  0  0  0  0  0  0  0
  189.1450  172.9220  140.1060 C   0  0  0  0  0  0  0  0  0  0  0  0
  191.2330  173.4140  138.8280 N   0  0  0  0  0  0  0  0  0  0  0  0
  188.8680  172.8830  141.4350 N   0  0  0  0  0  0  0  0  0  0  0  0
  193.0420  173.8800  140.3060 N   0  0  0  0  0  0  0  0  0  0  0  0
  188.1870  172.6960  139.0790 N   0  0  0  0  0  1  0  0  0  0  0  0
  190.9590  173.3690  141.2460 C   0  0  0  0  0  0  0  0  0  0  0  0
  192.2870  173.7040  141.4100 C   0  0  0  0  0  0  0  0  0  0  0  0
  189.9730  173.1550  142.1340 N   0  0  0  0  0  0  0  0  0  0  0  0
  194.4290  174.2720  142.1840 C   0  0  1  0  0  3  0  0  0  0  0  0
  194.4010  174.2380  140.6440 C   0  0  0  0  0  2  0  0  0  0  0  0
  1  7  1  0  0  0  0
  2 13  2  0  0  0  0
  4  8  1  0  0  0  0
  5  6  1  0  0  0  0
  6  9  2  0  0  0  0
  7  9  1  0  0  0  0
  7  3  2  0  0  0  0
  8  5  2  0  0  0  0
  8  1  1  0  0  0  0
 10  2  1  0  0  0  0
 11 10  2  0  0  0  0
 12 14  2  0  0  0  0
 12 11  1  0  0  0  0
 13  3  1  0  0  0  0
 14 15  1  0  0  0  0
 15  1  2  0  0  0  0
 15  2  1  0  0  0  0
 16 11  1  0  0  0  0
 16 18  1  0  0  0  0
 17 16  1  0  0  0  0
 19  5  1  0  0  0  0
 20 19  1  0  0  0  0
 21 20  1  0  0  0  0
 22 28  1  0  0  0  0
 24 25  2  0  0  0  0
 24 30  1  0  0  0  0
 25 27  1  0  0  0  0
 26 22  2  0  0  0  0
 26 24  1  0  0  0  0
 27 32  2  0  0  0  0
 28 34  1  0  0  0  0
 28 31  1  0  0  0  0
 29 25  1  0  0  0  0
 30 31  2  0  0  0  0
 30 32  1  0  0  0  0
 31 23  1  0  0  0  0
 33 23  1  0  0  0  0
 33 21  1  6  0  0  0
 34 33  1  0  0  0  0
M  END
>  <MODEL>
5

>  <REMARK>
 VINA RESULT:      -7.2      1.781      2.667
  Name = 
  5 active torsions:
  status: ('A' for Active; 'I' for Inactive)
    1  A    between atoms: C_3  and  C_25
    2  A    between atoms: N_8  and  C_17
    3  A    between atoms: N_8  and  C_18
    4  A    between atoms: C_10  and  C_17
    5  A    between atoms: C_18  and  C_30
                            x       y       z     vdW  Elec       q    Type
                         _______ _______ _______ _____ _____    ______ ____

>  <TORSDO>
F 5

$$$$
=
 OpenBabel11052420153D

 34 39  0  0  1  0  0  0  0  0999 V2000
  189.8450  175.9650  145.2790 C   0  0  0  0  0  0  0  0  0  0  0  0
  191.9670  175.4320  144.1630 C   0  0  0  0  0  0  0  0  0  0  0  0
  189.8870  175.1760  142.9640 C   0  0  0  0  0  3  0  0  0  0  0  0
  189.6190  176.7610  147.5890 O   0  0  0  0  0  1  0  0  0  0  0  0
  187.6610  176.4480  146.2270 C   0  0  0  0  0  0  0  0  0  0  0  0
  187.0890  176.0820  145.0520 N   0  0  0  0  0  0  0  0  0  0  0  0
  189.1740  175.6080  144.0820 C   0  0  0  0  0  0  0  0  0  0  0  0
  189.0520  176.3930  146.3710 C   0  0  0  0  0  0  0  0  0  0  0  0
  187.8210  175.6780  144.0160 N   0  0  0  0  0  0  0  0  0  0  0  0
  193.3620  175.3340  144.1760 C   0  0  0  0  0  3  0  0  0  0  0  0
  194.0850  175.6690  145.3220 C   0  0  0  0  0  0  0  0  0  0  0  0
  193.4040  176.1060  146.4660 C   0  0  0  0  0  3  0  0  0  0  0  0
  191.2750  175.0900  143.0040 C   0  0  0  0  0  3  0  0  0  0  0  0
  192.0110  176.2080  146.4590 C   0  0  0  0  0  3  0  0  0  0  0  0
  191.2660  175.8740  145.3160 C   0  0  0  0  0  0  0  0  0  0  0  0
  195.5770  175.5500  145.3020 C   0  0  0  0  0  3  0  0  0  0  0  0
  196.1120  175.6190  143.8830 C   0  0  0  0  0  1  0  0  0  0  0  0
  196.0320  174.2660  145.9710 C   0  0  0  0  0  1  0  0  0  0  0  0
  186.7860  176.8630  147.3620 C   0  0  0  0  0  2  0  0  0  0  0  0
  186.5630  178.2960  147.3060 N   0  0  0  0  0  2  0  0  0  0  0  0
  185.1830  178.4920  146.8880 C   0  0  0  0  0  2  0  0  0  0  0  0
  183.5770  178.2680  142.4400 C   0  0  0  0  0  3  0  0  0  0  0  0
  186.3240  179.1400  144.7260 C   0  0  0  0  0  2  0  0  0  0  0  0
  185.5160  177.9720  141.1870 C   0  0  0  0  0  0  0  0  0  0  0  0
  186.4190  177.6820  140.2040 C   0  0  0  0  0  0  0  0  0  0  0  0
  184.1640  177.9160  141.2520 N   0  0  0  0  0  0  0  0  0  0  0  0
  187.6760  177.8850  140.6740 N   0  0  0  0  0  0  0  0  0  0  0  0
  184.3490  178.6570  143.5080 N   0  0  0  0  0  0  0  0  0  0  0  0
  186.1160  177.2170  138.8940 N   0  0  0  0  0  1  0  0  0  0  0  0
  186.3220  178.3670  142.2800 C   0  0  0  0  0  0  0  0  0  0  0  0
  185.6960  178.7140  143.4600 C   0  0  0  0  0  0  0  0  0  0  0  0
  187.6220  178.3040  141.9420 N   0  0  0  0  0  0  0  0  0  0  0  0
  185.1060  179.3620  145.6370 C   0  0  1  0  0  3  0  0  0  0  0  0
  183.8490  179.0360  144.8090 C   0  0  0  0  0  2  0  0  0  0  0  0
  1 15  1  0  0  0  0
  1  8  2  0  0  0  0
  2 10  2  0  0  0  0
  2 15  1  0  0  0  0
  3 13  2  0  0  0  0
  3  7  1  0  0  0  0
  5  8  1  0  0  0  0
  5 19  1  0  0  0  0
  6  5  2  0  0  0  0
  7  1  1  0  0  0  0
  8  4  1  0  0  0  0
  9  7  2  0  0  0  0
  9  6  1  0  0  0  0
 10 11  1  0  0  0  0
 11 12  2  0  0  0  0
 13  2  1  0  0  0  0
 14 12  1  0  0  0  0
 15 14  2  0  0  0  0
 16 11  1  0  0  0  0
 16 18  1  0  0  0  0
 17 16  1  0  0  0  0
 20 19  1  0  0  0  0
 21 20  1  0  0  0  0
 22 28  1  0  0  0  0
 23 33  1  0  0  0  0
 24 26  1  0  0  0  0
 24 30  1  0  0  0  0
 25 27  1  0  0  0  0
 25 24  2  0  0  0  0
 26 22  2  0  0  0  0
 27 32  2  0  0  0  0
 28 34  1  0  0  0  0
 29 25  1  0  0  0  0
 30 31  2  0  0  0  0
 31 28  1  0  0  0  0
 31 23  1  0  0  0  0
 32 30  1  0  0  0  0
 33 21  1  1  0  0  0
 34 33  1  0  0  0  0
M  END
>  <MODEL>
6

>  <REMARK>
 VINA RESULT:      -6.9      2.744      7.182
  Name = 
  5 active torsions:
  status: ('A' for Active; 'I' for Inactive)
    1  A    between atoms: C_3  and  C_25
    2  A    between atoms: N_8  and  C_17
    3  A    between atoms: N_8  and  C_18
    4  A    between atoms: C_10  and  C_17
    5  A    between atoms: C_18  and  C_30
                            x       y       z     vdW  Elec       q    Type
                         _______ _______ _______ _____ _____    ______ ____

>  <TORSDO>
F 5

$$$$
=
 OpenBabel11052420153D

 34 39  0  0  1  0  0  0  0  0999 V2000
  190.1860  177.0030  144.7940 C   0  0  0  0  0  0  0  0  0  0  0  0
  188.0350  177.9020  144.0230 C   0  0  0  0  0  0  0  0  0  0  0  0
  189.7970  177.4810  142.4270 C   0  0  0  0  0  3  0  0  0  0  0  0
  190.7480  176.4720  147.1230 O   0  0  0  0  0  1  0  0  0  0  0  0
  192.3700  176.1140  145.3830 C   0  0  0  0  0  0  0  0  0  0  0  0
  192.7290  176.1770  144.0750 N   0  0  0  0  0  0  0  0  0  0  0  0
  190.6330  177.0290  143.4490 C   0  0  0  0  0  0  0  0  0  0  0  0
  191.0920  176.5310  145.7750 C   0  0  0  0  0  0  0  0  0  0  0  0
  191.8880  176.6170  143.1420 N   0  0  0  0  0  0  0  0  0  0  0  0
  186.7350  178.3460  144.2820 C   0  0  0  0  0  3  0  0  0  0  0  0
  186.2330  178.3470  145.5840 C   0  0  0  0  0  0  0  0  0  0  0  0
  187.0420  177.9010  146.6370 C   0  0  0  0  0  3  0  0  0  0  0  0
  188.5060  177.9140  142.7120 C   0  0  0  0  0  3  0  0  0  0  0  0
  188.3410  177.4570  146.3860 C   0  0  0  0  0  3  0  0  0  0  0  0
  188.8640  177.4480  145.0820 C   0  0  0  0  0  0  0  0  0  0  0  0
  184.8360  178.8300  145.8250 C   0  0  0  0  0  3  0  0  0  0  0  0
  184.1070  177.9290  146.8040 C   0  0  0  0  0  1  0  0  0  0  0  0
  184.0590  178.9260  144.5250 C   0  0  0  0  0  1  0  0  0  0  0  0
  193.3660  175.6410  146.3870 C   0  0  0  0  0  2  0  0  0  0  0  0
  194.0220  174.4440  145.8950 N   0  0  0  0  0  2  0  0  0  0  0  0
  195.4540  174.6570  146.0410 C   0  0  0  0  0  2  0  0  0  0  0  0
  196.4610  176.2910  141.7130 C   0  0  0  0  0  3  0  0  0  0  0  0
  195.2740  173.5020  143.7970 C   0  0  0  0  0  2  0  0  0  0  0  0
  195.0180  175.0880  140.3390 C   0  0  0  0  0  0  0  0  0  0  0  0
  194.2420  174.6510  139.3030 C   0  0  0  0  0  0  0  0  0  0  0  0
  195.8490  176.1460  140.4940 N   0  0  0  0  0  0  0  0  0  0  0  0
  193.5680  173.5370  139.6860 N   0  0  0  0  0  0  0  0  0  0  0  0
  196.2240  175.3870  142.7210 N   0  0  0  0  0  0  0  0  0  0  0  0
  194.1250  175.2620  138.0240 N   0  0  0  0  0  1  0  0  0  0  0  0
  194.7620  174.1530  141.3700 C   0  0  0  0  0  0  0  0  0  0  0  0
  195.3950  174.3320  142.5830 C   0  0  0  0  0  0  0  0  0  0  0  0
  193.8820  173.2290  140.9470 N   0  0  0  0  0  0  0  0  0  0  0  0
  196.2040  174.2270  144.7830 C   0  0  1  0  0  3  0  0  0  0  0  0
  196.7970  175.4420  144.0460 C   0  0  0  0  0  2  0  0  0  0  0  0
  1 15  1  0  0  0  0
  1  8  2  0  0  0  0
  2 10  2  0  0  0  0
  2 15  1  0  0  0  0
  3 13  2  0  0  0  0
  3  7  1  0  0  0  0
  5  8  1  0  0  0  0
  5 19  1  0  0  0  0
  6  5  2  0  0  0  0
  7  1  1  0  0  0  0
  8  4  1  0  0  0  0
  9  7  2  0  0  0  0
  9  6  1  0  0  0  0
 10 11  1  0  0  0  0
 11 16  1  0  0  0  0
 11 12  2  0  0  0  0
 13  2  1  0  0  0  0
 14 12  1  0  0  0  0
 15 14  2  0  0  0  0
 16 17  1  0  0  0  0
 18 16  1  0  0  0  0
 20 21  1  0  0  0  0
 20 19  1  0  0  0  0
 22 28  1  0  0  0  0
 23 33  1  0  0  0  0
 24 26  1  0  0  0  0
 24 30  1  0  0  0  0
 25 27  1  0  0  0  0
 25 24  2  0  0  0  0
 26 22  2  0  0  0  0
 27 32  2  0  0  0  0
 28 34  1  0  0  0  0
 29 25  1  0  0  0  0
 30 31  2  0  0  0  0
 31 28  1  0  0  0  0
 31 23  1  0  0  0  0
 32 30  1  0  0  0  0
 33 21  1  1  0  0  0
 34 33  1  0  0  0  0
M  END
>  <MODEL>
7

>  <REMARK>
 VINA RESULT:      -6.8      2.202      3.146
  Name = 
  5 active torsions:
  status: ('A' for Active; 'I' for Inactive)
    1  A    between atoms: C_3  and  C_25
    2  A    between atoms: N_8  and  C_17
    3  A    between atoms: N_8  and  C_18
    4  A    between atoms: C_10  and  C_17
    5  A    between atoms: C_18  and  C_30
                            x       y       z     vdW  Elec       q    Type
                         _______ _______ _______ _____ _____    ______ ____

>  <TORSDO>
F 5

$$$$
=
 OpenBabel11052420153D

 34 39  0  0  1  0  0  0  0  0999 V2000
  190.5780  176.2340  145.3410 C   0  0  0  0  0  0  0  0  0  0  0  0
  188.2680  176.3640  146.1640 C   0  0  0  0  0  0  0  0  0  0  0  0
  189.8520  174.9160  147.2690 C   0  0  0  0  0  3  0  0  0  0  0  0
  191.4730  177.4760  143.4240 O   0  0  0  0  0  1  0  0  0  0  0  0
  192.8990  175.9860  144.6620 C   0  0  0  0  0  0  0  0  0  0  0  0
  193.0800  175.0930  145.6690 N   0  0  0  0  0  0  0  0  0  0  0  0
  190.8490  175.3000  146.3730 C   0  0  0  0  0  0  0  0  0  0  0  0
  191.6420  176.5730  144.4700 C   0  0  0  0  0  0  0  0  0  0  0  0
  192.0890  174.7640  146.4960 N   0  0  0  0  0  0  0  0  0  0  0  0
  186.9710  176.8780  146.0810 C   0  0  0  0  0  3  0  0  0  0  0  0
  186.6360  177.8000  145.0880 C   0  0  0  0  0  0  0  0  0  0  0  0
  187.6100  178.2100  144.1690 C   0  0  0  0  0  3  0  0  0  0  0  0
  188.5700  175.4450  147.1660 C   0  0  0  0  0  3  0  0  0  0  0  0
  188.9080  177.7010  144.2460 C   0  0  0  0  0  3  0  0  0  0  0  0
  189.2640  176.7720  145.2380 C   0  0  0  0  0  0  0  0  0  0  0  0
  185.2360  178.3290  145.0280 C   0  0  0  0  0  3  0  0  0  0  0  0
  184.4070  177.8170  146.1910 C   0  0  0  0  0  1  0  0  0  0  0  0
  184.5710  177.9680  143.7130 C   0  0  0  0  0  1  0  0  0  0  0  0
  194.0370  176.2910  143.7490 C   0  0  0  0  0  2  0  0  0  0  0  0
  195.2820  176.2560  144.4940 N   0  0  0  0  0  2  0  0  0  0  0  0
  196.3480  176.5500  143.5490 C   0  0  0  0  0  2  0  0  0  0  0  0
  196.1060  172.0420  142.1180 C   0  0  0  0  0  3  0  0  0  0  0  0
  197.2990  174.4630  144.6190 C   0  0  0  0  0  2  0  0  0  0  0  0
  196.2110  170.8440  144.1120 C   0  0  0  0  0  0  0  0  0  0  0  0
  196.1320  169.8800  145.0750 C   0  0  0  0  0  0  0  0  0  0  0  0
  195.9240  170.8590  142.7870 N   0  0  0  0  0  0  0  0  0  0  0  0
  196.5170  170.4030  146.2670 N   0  0  0  0  0  0  0  0  0  0  0  0
  196.5590  173.1550  142.7860 N   0  0  0  0  0  0  0  0  0  0  0  0
  195.6960  168.5380  144.8900 N   0  0  0  0  0  1  0  0  0  0  0  0
  196.6740  171.9830  144.8110 C   0  0  0  0  0  0  0  0  0  0  0  0
  196.8440  173.1570  144.1050 C   0  0  0  0  0  0  0  0  0  0  0  0
  196.8500  171.6870  146.1100 N   0  0  0  0  0  0  0  0  0  0  0  0
  197.2610  175.3420  143.3580 C   0  0  1  0  0  3  0  0  0  0  0  0
  196.7760  174.4560  142.1950 C   0  0  0  0  0  2  0  0  0  0  0  0
  1  7  1  0  0  0  0
  2 13  2  0  0  0  0
  4  8  1  0  0  0  0
  5  6  1  0  0  0  0
  6  9  2  0  0  0  0
  7  9  1  0  0  0  0
  7  3  2  0  0  0  0
  8  5  2  0  0  0  0
  8  1  1  0  0  0  0
 10  2  1  0  0  0  0
 11 10  2  0  0  0  0
 12 14  2  0  0  0  0
 12 11  1  0  0  0  0
 13  3  1  0  0  0  0
 14 15  1  0  0  0  0
 15  1  2  0  0  0  0
 15  2  1  0  0  0  0
 16 11  1  0  0  0  0
 16 17  1  0  0  0  0
 18 16  1  0  0  0  0
 19 20  1  0  0  0  0
 19  5  1  0  0  0  0
 21 20  1  0  0  0  0
 22 28  1  0  0  0  0
 22 26  2  0  0  0  0
 24 30  1  0  0  0  0
 24 25  2  0  0  0  0
 25 27  1  0  0  0  0
 26 24  1  0  0  0  0
 28 31  1  0  0  0  0
 29 25  1  0  0  0  0
 30 32  1  0  0  0  0
 31 23  1  0  0  0  0
 31 30  2  0  0  0  0
 32 27  2  0  0  0  0
 33 21  1  1  0  0  0
 33 23  1  0  0  0  0
 34 28  1  0  0  0  0
 34 33  1  0  0  0  0
M  END
>  <MODEL>
8

>  <REMARK>
 VINA RESULT:      -6.7      3.114      4.978
  Name = 
  5 active torsions:
  status: ('A' for Active; 'I' for Inactive)
    1  A    between atoms: C_3  and  C_25
    2  A    between atoms: N_8  and  C_17
    3  A    between atoms: N_8  and  C_18
    4  A    between atoms: C_10  and  C_17
    5  A    between atoms: C_18  and  C_30
                            x       y       z     vdW  Elec       q    Type
                         _______ _______ _______ _____ _____    ______ ____

>  <TORSDO>
F 5

$$$$
=
 OpenBabel11052420153D

 34 39  0  0  1  0  0  0  0  0999 V2000
  190.2960  177.1780  144.7220 C   0  0  0  0  0  0  0  0  0  0  0  0
  187.9890  177.7090  144.0710 C   0  0  0  0  0  0  0  0  0  0  0  0
  189.7290  177.6830  142.3970 C   0  0  0  0  0  3  0  0  0  0  0  0
  191.0430  176.6540  147.0000 O   0  0  0  0  0  1  0  0  0  0  0  0
  192.6270  176.6720  145.1900 C   0  0  0  0  0  0  0  0  0  0  0  0
  192.9130  176.8560  143.8760 N   0  0  0  0  0  0  0  0  0  0  0  0
  190.6740  177.3440  143.3650 C   0  0  0  0  0  0  0  0  0  0  0  0
  191.3130  176.8340  145.6460 C   0  0  0  0  0  0  0  0  0  0  0  0
  191.9680  177.1790  142.9950 N   0  0  0  0  0  0  0  0  0  0  0  0
  186.6420  177.8980  144.3960 C   0  0  0  0  0  3  0  0  0  0  0  0
  186.2040  177.7520  145.7130 C   0  0  0  0  0  0  0  0  0  0  0  0
  187.1240  177.4120  146.7140 C   0  0  0  0  0  3  0  0  0  0  0  0
  188.3940  177.8630  142.7470 C   0  0  0  0  0  3  0  0  0  0  0  0
  188.4690  177.2210  146.3960 C   0  0  0  0  0  3  0  0  0  0  0  0
  188.9300  177.3640  145.0770 C   0  0  0  0  0  0  0  0  0  0  0  0
  184.7550  177.9630  146.0260 C   0  0  0  0  0  3  0  0  0  0  0  0
  184.1130  178.9090  145.0280 C   0  0  0  0  0  1  0  0  0  0  0  0
  184.5720  178.4890  147.4370 C   0  0  0  0  0  1  0  0  0  0  0  0
  193.7330  176.3420  146.1340 C   0  0  0  0  0  2  0  0  0  0  0  0
  194.0670  174.9340  146.0190 N   0  0  0  0  0  2  0  0  0  0  0  0
  195.5180  174.8500  145.9430 C   0  0  0  0  0  2  0  0  0  0  0  0
  193.7440  172.3080  142.3630 C   0  0  0  0  0  3  0  0  0  0  0  0
  195.6540  172.3620  145.5070 C   0  0  0  0  0  2  0  0  0  0  0  0
  193.3790  170.2190  143.3220 C   0  0  0  0  0  0  0  0  0  0  0  0
  192.9460  168.9540  143.6000 C   0  0  0  0  0  0  0  0  0  0  0  0
  193.1450  171.0760  142.2990 N   0  0  0  0  0  0  0  0  0  0  0  0
  193.4640  168.5530  144.7890 N   0  0  0  0  0  0  0  0  0  0  0  0
  194.5440  172.6370  143.4310 N   0  0  0  0  0  0  0  0  0  0  0  0
  192.0730  168.1680  142.7980 N   0  0  0  0  0  1  0  0  0  0  0  0
  194.1970  170.5470  144.4290 C   0  0  0  0  0  0  0  0  0  0  0  0
  194.7820  171.7970  144.4590 C   0  0  0  0  0  0  0  0  0  0  0  0
  194.2290  169.5230  145.2990 N   0  0  0  0  0  0  0  0  0  0  0  0
  195.9540  173.7670  144.9600 C   0  0  1  0  0  3  0  0  0  0  0  0
  195.2150  173.9040  143.6160 C   0  0  0  0  0  2  0  0  0  0  0  0
  1 15  1  0  0  0  0
  1  8  2  0  0  0  0
  2 10  2  0  0  0  0
  2 15  1  0  0  0  0
  3 13  2  0  0  0  0
  3  7  1  0  0  0  0
  5  8  1  0  0  0  0
  5 19  1  0  0  0  0
  6  5  2  0  0  0  0
  7  1  1  0  0  0  0
  8  4  1  0  0  0  0
  9  7  2  0  0  0  0
  9  6  1  0  0  0  0
 10 11  1  0  0  0  0
 11 16  1  0  0  0  0
 11 12  2  0  0  0  0
 13  2  1  0  0  0  0
 14 12  1  0  0  0  0
 15 14  2  0  0  0  0
 16 18  1  0  0  0  0
 17 16  1  0  0  0  0
 20 19  1  0  0  0  0
 21 20  1  0  0  0  0
 22 28  1  0  0  0  0
 24 25  2  0  0  0  0
 24 30  1  0  0  0  0
 25 27  1  0  0  0  0
 26 22  2  0  0  0  0
 26 24  1  0  0  0  0
 27 32  2  0  0  0  0
 28 34  1  0  0  0  0
 28 31  1  0  0  0  0
 29 25  1  0  0  0  0
 30 31  2  0  0  0  0
 30 32  1  0  0  0  0
 31 23  1  0  0  0  0
 33 23  1  0  0  0  0
 33 21  1  1  0  0  0
 34 33  1  0  0  0  0
M  END
>  <MODEL>
9

>  <REMARK>
 VINA RESULT:      -6.7      2.250      3.290
  Name = 
  5 active torsions:
  status: ('A' for Active; 'I' for Inactive)
    1  A    between atoms: C_3  and  C_25
    2  A    between atoms: N_8  and  C_17
    3  A    between atoms: N_8  and  C_18
    4  A    between atoms: C_10  and  C_17
    5  A    between atoms: C_18  and  C_30
                            x       y       z     vdW  Elec       q    Type
                         _______ _______ _______ _____ _____    ______ ____

>  <TORSDO>
F 5

$$$$
