=
 OpenBabel11052419293D

 55 61  0  0  1  0  0  0  0  0999 V2000
  191.6770  170.8830  138.1140 C   0  0  0  0  0  2  0  0  0  0  0  0
  193.4890  174.7740  141.4910 O   0  0  0  0  0  0  0  0  0  0  0  0
  193.4310  174.7980  137.6380 C   0  0  0  0  0  1  0  0  0  0  0  0
  195.5730  173.6410  135.8490 C   0  0  0  0  0  2  0  0  0  0  0  0
  196.7450  173.8000  134.8890 C   0  0  0  0  0  2  0  0  0  0  0  0
  196.8520  171.7660  137.0090 C   0  0  1  0  0  3  0  0  0  0  0  0
  197.9410  171.8900  135.9400 C   0  0  0  0  0  2  0  0  0  0  0  0
  194.0990  173.9170  138.6840 C   0  0  2  0  0  3  0  0  0  0  0  0
  197.3830  172.4460  134.6300 C   0  0  0  0  0  2  0  0  0  0  0  0
  191.1300  171.8460  140.3570 O   0  0  0  0  0  0  0  0  0  0  0  0
  196.0150  173.0390  137.1890 C   0  0  2  0  0  3  0  0  0  0  0  0
  188.1630  173.3420  139.9390 C   0  0  0  0  0  3  0  0  0  0  0  0
  193.1230  171.1170  138.5490 C   0  0  0  0  0  2  0  0  0  0  0  0
  189.4340  171.6150  138.6030 C   0  0  0  0  0  3  0  0  0  0  0  0
  194.5180  170.6580  136.7090 C   0  0  1  0  0  3  0  0  0  0  0  0
  192.1870  174.6600  140.9860 C   0  0  0  0  0  2  0  0  0  0  0  0
  196.0420  170.4740  136.8750 C   0  0  0  0  0  2  0  0  0  0  0  0
  194.1630  175.5790  140.5630 C   0  0  0  0  0  2  0  0  0  0  0  0
  194.9970  174.7220  139.6110 C   0  0  0  0  0  2  0  0  0  0  0  0
  190.2850  172.0880  141.4790 C   0  0  0  0  0  2  0  0  0  0  0  0
  191.1980  174.3670  142.1080 C   0  0  2  0  0  3  0  0  0  0  0  0
  190.6950  171.5010  139.0630 C   0  0  0  0  0  0  0  0  0  0  0  0
  194.8240  172.6960  138.0950 C   0  0  2  0  0  3  0  0  0  0  0  0
  193.8770  171.7520  137.4710 N   0  0  2  0  0  0  0  0  0  0  0  0
  189.9690  173.5740  141.6120 C   0  0  1  0  0  3  0  0  0  0  0  0
  189.3570  174.1410  140.3330 C   0  0  0  0  0  2  0  0  0  0  0  0
  188.2260  172.2400  139.1900 C   0  0  0  0  0  3  0  0  0  0  0  0
  189.3670  177.5470  143.3580 C   0  0  1  0  0  3  0  0  0  0  0  0
  189.7510  177.0610  146.9060 C   0  0  0  0  0  3  0  0  0  0  0  0
  189.1640  177.4330  145.7950 C   0  0  0  0  0  0  0  0  0  0  0  0
  193.1660  174.0600  144.3300 O   0  0  0  0  0  0  0  0  0  0  0  0
  190.9160  175.6470  142.9360 C   0  0  2  0  0  0  0  0  0  0  0  0
  190.0050  175.6100  147.1600 C   0  0  0  0  0  2  0  0  0  0  0  0
  191.5030  175.3240  147.2230 C   0  0  0  0  0  2  0  0  0  0  0  0
  192.2460  174.6090  144.9210 C   0  0  0  0  0  0  0  0  0  0  0  0
  189.5040  176.0580  142.9960 C   0  0  1  0  0  3  0  0  0  0  0  0
  191.5040  175.7500  144.2880 C   0  0  2  0  0  3  0  0  0  0  0  0
  188.7610  178.2190  142.3080 F   0  0  0  0  0  0  0  0  0  0  0  0
  191.8690  174.1520  146.3070 C   0  0  0  0  0  2  0  0  0  0  0  0
  190.0970  175.3210  144.1270 N   0  0  2  0  0  0  0  0  0  0  0  0
  188.6080  177.7590  144.6500 C   0  0  0  0  0  0  0  0  0  0  0  0
  187.2740  178.4380  144.6410 C   0  0  0  0  0  2  0  0  0  0  0  0
  186.1870  176.2170  143.4950 O   0  0  0  0  0  0  0  0  0  0  0  0
  184.4700  178.0240  144.2910 O   0  0  0  0  0  1  0  0  0  0  0  0
  185.9270  177.2190  144.5970 P   0  0  0  0  0  0  0  0  0  0  0  0
  185.8310  176.4160  146.0840 O   0  0  0  0  0  1  0  0  0  0  0  0
  194.1250  169.5830  134.6290 O   0  0  0  0  0  0  0  0  0  0  0  0
  194.0690  170.6160  135.2770 C   0  0  0  0  0  0  0  0  0  0  0  0
  193.5240  171.8490  134.6450 C   0  0  0  0  0  2  0  0  0  0  0  0
  191.3060  173.0520  134.6960 C   0  0  0  0  0  0  0  0  0  0  0  0
  192.0720  171.8470  134.7490 N   0  0  0  0  0  2  0  0  0  0  0  0
  191.8790  174.1710  134.5830 O   0  0  0  0  0  0  0  0  0  0  0  0
  189.8210  173.0050  134.8320 C   0  0  0  0  0  3  0  0  0  0  0  0
  189.3530  173.9530  135.9210 C   0  0  0  0  0  1  0  0  0  0  0  0
  189.3520  171.5940  135.1370 C   0  0  0  0  0  1  0  0  0  0  0  0
  1 13  1  0  0  0  0
  1 22  1  0  0  0  0
  5  4  1  0  0  0  0
  6  7  1  6  0  0  0
  6 11  1  0  0  0  0
  8  3  1  6  0  0  0
  8 19  1  0  0  0  0
  9  5  1  0  0  0  0
  9  7  1  0  0  0  0
 10 20  1  0  0  0  0
 11  4  1  6  0  0  0
 11 23  1  0  0  0  0
 12 26  1  0  0  0  0
 14 22  2  0  0  0  0
 14 27  1  0  0  0  0
 15 48  1  6  0  0  0
 15 17  1  0  0  0  0
 15 24  1  0  0  0  0
 16  2  1  0  0  0  0
 17  6  1  0  0  0  0
 18  2  1  0  0  0  0
 19 18  1  0  0  0  0
 20 25  1  0  0  0  0
 21 16  1  6  0  0  0
 21 32  1  0  0  0  0
 22 10  1  0  0  0  0
 23  8  1  0  0  0  0
 24 23  1  0  0  0  0
 24 13  1  0  0  0  0
 25 21  1  0  0  0  0
 26 25  1  0  0  0  0
 27 12  2  0  0  0  0
 28 41  1  0  0  0  0
 29 33  1  0  0  0  0
 30 29  2  0  0  0  0
 31 35  2  0  0  0  0
 32 36  1  0  0  0  0
 32 40  1  0  0  0  0
 32 37  1  0  0  0  0
 33 34  1  0  0  0  0
 35 39  1  0  0  0  0
 36 28  1  0  0  0  0
 36 40  1  0  0  0  0
 37 35  1  0  0  0  0
 38 28  1  0  0  0  0
 39 34  1  0  0  0  0
 40 37  1  0  0  0  0
 41 30  2  0  0  0  0
 42 41  1  0  0  0  0
 43 45  2  0  0  0  0
 44 45  1  0  0  0  0
 45 42  1  0  0  0  0
 45 46  1  0  0  0  0
 47 48  2  0  0  0  0
 49 51  1  0  0  0  0
 49 48  1  0  0  0  0
 50 51  1  0  0  0  0
 50 53  1  0  0  0  0
 52 50  2  0  0  0  0
 53 55  1  0  0  0  0
 53 54  1  0  0  0  0
M  END
>  <MODEL>
1

>  <REMARK>
 VINA RESULT:      -7.3      0.000      0.000
  Name = 
  7 active torsions:
  status: ('A' for Active; 'I' for Inactive)
    1  A    between atoms: C_8  and  C_43
    2  A    between atoms: C_10  and  C_32
    3  A    between atoms: P_29  and  C_38
    4  A    between atoms: C_33  and  C_52
    5  A    between atoms: C_34  and  N_39
    6  A    between atoms: C_34  and  C_52
    7  A    between atoms: C_38  and  C_53
                            x       y       z     vdW  Elec       q    Type
                         _______ _______ _______ _____ _____    ______ ____

>  <TORSDO>
F 7

$$$$
=
 OpenBabel11052419293D

 55 61  0  0  1  0  0  0  0  0999 V2000
  191.6480  170.0120  142.4680 C   0  0  0  0  0  2  0  0  0  0  0  0
  191.2050  174.5330  145.5010 O   0  0  0  0  0  0  0  0  0  0  0  0
  194.1910  173.3860  143.3520 C   0  0  0  0  0  1  0  0  0  0  0  0
  196.3850  171.5170  144.2600 C   0  0  0  0  0  2  0  0  0  0  0  0
  197.8170  171.2510  144.7020 C   0  0  0  0  0  2  0  0  0  0  0  0
  195.5840  169.9620  146.1120 C   0  0  1  0  0  3  0  0  0  0  0  0
  197.0470  169.6370  146.4290 C   0  0  0  0  0  2  0  0  0  0  0  0
  193.4590  172.8000  144.5520 C   0  0  2  0  0  3  0  0  0  0  0  0
  197.9410  169.8230  145.2050 C   0  0  0  0  0  2  0  0  0  0  0  0
  189.9000  171.6660  143.1550 O   0  0  0  0  0  0  0  0  0  0  0  0
  195.3880  171.3100  145.4080 C   0  0  2  0  0  3  0  0  0  0  0  0
  189.0910  173.2690  140.3280 C   0  0  0  0  0  3  0  0  0  0  0  0
  192.1630  170.2120  143.8930 C   0  0  0  0  0  2  0  0  0  0  0  0
  190.2820  171.0920  140.8030 C   0  0  0  0  0  3  0  0  0  0  0  0
  194.2100  169.0690  144.0930 C   0  0  1  0  0  3  0  0  0  0  0  0
  190.8600  174.4090  144.1490 C   0  0  0  0  0  2  0  0  0  0  0  0
  194.8470  168.7830  145.4700 C   0  0  0  0  0  2  0  0  0  0  0  0
  192.5450  174.9390  145.4920 C   0  0  0  0  0  2  0  0  0  0  0  0
  193.4720  173.7500  145.7400 C   0  0  0  0  0  2  0  0  0  0  0  0
  188.6430  172.3270  143.0400 C   0  0  0  0  0  2  0  0  0  0  0  0
  189.3570  174.5790  143.9580 C   0  0  2  0  0  3  0  0  0  0  0  0
  190.5680  170.9910  142.1150 C   0  0  0  0  0  0  0  0  0  0  0  0
  193.9300  171.3880  144.9360 C   0  0  2  0  0  3  0  0  0  0  0  0
  193.6110  170.4050  143.8820 N   0  0  2  0  0  0  0  0  0  0  0  0
  188.8330  173.8070  142.7280 C   0  0  1  0  0  3  0  0  0  0  0  0
  189.6780  174.0190  141.4740 C   0  0  0  0  0  2  0  0  0  0  0  0
  189.3660  171.9910  140.0630 C   0  0  0  0  0  3  0  0  0  0  0  0
  188.0610  178.0740  142.8960 C   0  0  1  0  0  3  0  0  0  0  0  0
  185.9480  178.7760  145.7270 C   0  0  0  0  0  3  0  0  0  0  0  0
  186.3290  178.7860  144.4740 C   0  0  0  0  0  0  0  0  0  0  0  0
  189.2850  174.9370  146.9200 O   0  0  0  0  0  0  0  0  0  0  0  0
  188.9580  176.0720  144.0700 C   0  0  2  0  0  0  0  0  0  0  0  0
  185.5930  177.4820  146.3860 C   0  0  0  0  0  2  0  0  0  0  0  0
  186.5640  177.1650  147.5190 C   0  0  0  0  0  2  0  0  0  0  0  0
  188.3850  175.6930  146.5820 C   0  0  0  0  0  0  0  0  0  0  0  0
  188.0030  176.5450  143.0530 C   0  0  1  0  0  3  0  0  0  0  0  0
  188.5480  176.5910  145.3910 C   0  0  2  0  0  3  0  0  0  0  0  0
  188.4660  178.3870  141.6080 F   0  0  0  0  0  0  0  0  0  0  0  0
  187.1080  175.7400  147.3820 C   0  0  0  0  0  2  0  0  0  0  0  0
  187.5200  176.1990  144.4030 N   0  0  2  0  0  0  0  0  0  0  0  0
  186.7410  178.7380  143.2270 C   0  0  0  0  0  0  0  0  0  0  0  0
  185.9580  179.4360  142.1600 C   0  0  0  0  0  2  0  0  0  0  0  0
  184.4900  177.1420  142.0660 O   0  0  0  0  0  1  0  0  0  0  0  0
  186.0210  177.5800  139.9900 O   0  0  0  0  0  0  0  0  0  0  0  0
  185.0070  178.2440  141.1700 P   0  0  0  0  0  0  0  0  0  0  0  0
  183.7040  179.0280  140.4240 O   0  0  0  0  0  1  0  0  0  0  0  0
  196.2720  168.4640  143.0830 O   0  0  0  0  0  0  0  0  0  0  0  0
  195.0730  168.6400  142.9410 C   0  0  0  0  0  0  0  0  0  0  0  0
  194.4490  168.4020  141.6090 C   0  0  0  0  0  2  0  0  0  0  0  0
  193.7170  169.8220  139.6570 C   0  0  0  0  0  0  0  0  0  0  0  0
  194.5350  169.6150  140.8090 N   0  0  0  0  0  2  0  0  0  0  0  0
  192.9040  168.9320  139.2800 O   0  0  0  0  0  0  0  0  0  0  0  0
  193.8570  171.0690  138.8510 C   0  0  0  0  0  3  0  0  0  0  0  0
  193.9690  172.2820  139.7560 C   0  0  0  0  0  1  0  0  0  0  0  0
  192.6800  171.2350  137.9070 C   0  0  0  0  0  1  0  0  0  0  0  0
  1 13  1  0  0  0  0
  4  5  1  0  0  0  0
  5  9  1  0  0  0  0
  6 17  1  6  0  0  0
  6  7  1  0  0  0  0
  8  3  1  6  0  0  0
  8 23  1  0  0  0  0
  8 19  1  0  0  0  0
  9  7  1  0  0  0  0
 11  4  1  6  0  0  0
 11  6  1  0  0  0  0
 12 26  1  0  0  0  0
 14 22  2  0  0  0  0
 15 48  1  6  0  0  0
 15 17  1  0  0  0  0
 16  2  1  0  0  0  0
 18  2  1  0  0  0  0
 18 19  1  0  0  0  0
 20 10  1  0  0  0  0
 21 32  1  0  0  0  0
 21 16  1  6  0  0  0
 22  1  1  0  0  0  0
 22 10  1  0  0  0  0
 23 11  1  0  0  0  0
 24 13  1  0  0  0  0
 24 15  1  0  0  0  0
 24 23  1  0  0  0  0
 25 20  1  0  0  0  0
 25 21  1  0  0  0  0
 26 25  1  0  0  0  0
 27 12  2  0  0  0  0
 27 14  1  0  0  0  0
 28 36  1  0  0  0  0
 28 41  1  0  0  0  0
 29 33  1  0  0  0  0
 30 29  2  0  0  0  0
 32 40  1  0  0  0  0
 32 37  1  0  0  0  0
 33 34  1  0  0  0  0
 35 31  2  0  0  0  0
 35 39  1  0  0  0  0
 36 32  1  0  0  0  0
 36 40  1  0  0  0  0
 37 35  1  0  0  0  0
 38 28  1  0  0  0  0
 39 34  1  0  0  0  0
 40 37  1  0  0  0  0
 41 30  2  0  0  0  0
 42 41  1  0  0  0  0
 44 45  2  0  0  0  0
 45 43  1  0  0  0  0
 45 42  1  0  0  0  0
 46 45  1  0  0  0  0
 48 47  2  0  0  0  0
 49 48  1  0  0  0  0
 50 51  1  0  0  0  0
 51 49  1  0  0  0  0
 52 50  2  0  0  0  0
 53 50  1  0  0  0  0
 53 54  1  0  0  0  0
 55 53  1  0  0  0  0
M  END
>  <MODEL>
2

>  <REMARK>
 VINA RESULT:      -7.2      3.479      5.690
  Name = 
  7 active torsions:
  status: ('A' for Active; 'I' for Inactive)
    1  A    between atoms: C_8  and  C_43
    2  A    between atoms: C_10  and  C_32
    3  A    between atoms: P_29  and  C_38
    4  A    between atoms: C_33  and  C_52
    5  A    between atoms: C_34  and  N_39
    6  A    between atoms: C_34  and  C_52
    7  A    between atoms: C_38  and  C_53
                            x       y       z     vdW  Elec       q    Type
                         _______ _______ _______ _____ _____    ______ ____

>  <TORSDO>
F 7

$$$$
=
 OpenBabel11052419293D

 55 61  0  0  1  0  0  0  0  0999 V2000
  191.2680  170.4600  138.6850 C   0  0  0  0  0  2  0  0  0  0  0  0
  192.7970  174.2760  142.2810 O   0  0  0  0  0  0  0  0  0  0  0  0
  193.6250  174.0730  138.5230 C   0  0  0  0  0  1  0  0  0  0  0  0
  195.9310  172.5360  137.3200 C   0  0  0  0  0  2  0  0  0  0  0  0
  197.3010  172.4800  136.6580 C   0  0  0  0  0  2  0  0  0  0  0  0
  196.6300  170.5830  138.8000 C   0  0  1  0  0  3  0  0  0  0  0  0
  197.9410  170.4960  138.0140 C   0  0  0  0  0  2  0  0  0  0  0  0
  193.9040  173.1760  139.7220 C   0  0  2  0  0  3  0  0  0  0  0  0
  197.7820  171.0410  136.5950 C   0  0  0  0  0  2  0  0  0  0  0  0
  190.3660  171.6210  140.7090 O   0  0  0  0  0  0  0  0  0  0  0  0
  195.9640  171.9630  138.7430 C   0  0  2  0  0  3  0  0  0  0  0  0
  187.8180  173.4690  139.5640 C   0  0  0  0  0  3  0  0  0  0  0  0
  192.5950  170.5270  139.4400 C   0  0  0  0  0  2  0  0  0  0  0  0
  189.1010  171.5100  138.6130 C   0  0  0  0  0  3  0  0  0  0  0  0
  194.2930  169.7770  137.9930 C   0  0  1  0  0  3  0  0  0  0  0  0
  191.6420  174.3040  141.4880 C   0  0  0  0  0  2  0  0  0  0  0  0
  195.6960  169.4030  138.5170 C   0  0  0  0  0  2  0  0  0  0  0  0
  193.7720  174.9260  141.5150 C   0  0  0  0  0  2  0  0  0  0  0  0
  194.6710  173.9110  140.8100 C   0  0  0  0  0  2  0  0  0  0  0  0
  189.3310  172.0410  141.5940 C   0  0  0  0  0  2  0  0  0  0  0  0
  190.3910  174.2140  142.3550 C   0  0  2  0  0  3  0  0  0  0  0  0
  190.1930  171.2600  139.3590 C   0  0  0  0  0  0  0  0  0  0  0  0
  194.5620  171.8370  139.3540 C   0  0  2  0  0  3  0  0  0  0  0  0
  193.6570  170.9900  138.5510 N   0  0  2  0  0  0  0  0  0  0  0  0
  189.2080  173.5600  141.6070 C   0  0  1  0  0  3  0  0  0  0  0  0
  188.9920  174.1250  140.2050 C   0  0  0  0  0  2  0  0  0  0  0  0
  187.8920  172.3250  138.8820 C   0  0  0  0  0  3  0  0  0  0  0  0
  188.9170  177.7450  142.9660 C   0  0  1  0  0  3  0  0  0  0  0  0
  188.0260  177.3920  146.4370 C   0  0  0  0  0  3  0  0  0  0  0  0
  187.9170  177.8070  145.1990 C   0  0  0  0  0  0  0  0  0  0  0  0
  191.4320  173.6640  145.0970 O   0  0  0  0  0  0  0  0  0  0  0  0
  190.1140  175.5670  143.0570 C   0  0  2  0  0  0  0  0  0  0  0  0
  187.8940  175.9360  146.7470 C   0  0  0  0  0  2  0  0  0  0  0  0
  189.2040  175.3770  147.2950 C   0  0  0  0  0  2  0  0  0  0  0  0
  190.4970  174.4080  145.3580 C   0  0  0  0  0  0  0  0  0  0  0  0
  188.8680  176.2400  142.6540 C   0  0  1  0  0  3  0  0  0  0  0  0
  190.2400  175.6320  144.5280 C   0  0  2  0  0  3  0  0  0  0  0  0
  188.8280  178.4610  141.7810 F   0  0  0  0  0  0  0  0  0  0  0  0
  189.6090  174.1080  146.5390 C   0  0  0  0  0  2  0  0  0  0  0  0
  188.9060  175.4680  143.9090 N   0  0  2  0  0  0  0  0  0  0  0  0
  187.8370  178.1680  143.9380 C   0  0  0  0  0  0  0  0  0  0  0  0
  186.7390  179.0850  143.4980 C   0  0  0  0  0  2  0  0  0  0  0  0
  184.1560  178.5100  144.1500 O   0  0  0  0  0  1  0  0  0  0  0  0
  185.5580  176.4970  143.2390 O   0  0  0  0  0  1  0  0  0  0  0  0
  185.2210  178.1520  143.1380 P   0  0  0  0  0  0  0  0  0  0  0  0
  184.6740  178.5270  141.5800 O   0  0  0  0  0  0  0  0  0  0  0  0
  195.1450  169.4190  135.8060 O   0  0  0  0  0  0  0  0  0  0  0  0
  194.1810  169.7070  136.4970 C   0  0  0  0  0  0  0  0  0  0  0  0
  192.8660  169.9710  135.8490 C   0  0  0  0  0  2  0  0  0  0  0  0
  191.4210  171.9740  135.3360 C   0  0  0  0  0  0  0  0  0  0  0  0
  192.6830  171.4060  135.6890 N   0  0  0  0  0  2  0  0  0  0  0  0
  190.4210  171.2330  135.1230 O   0  0  0  0  0  0  0  0  0  0  0  0
  191.2840  173.4490  135.1570 C   0  0  0  0  0  3  0  0  0  0  0  0
  192.6360  174.0830  134.8860 C   0  0  0  0  0  1  0  0  0  0  0  0
  190.6510  174.0830  136.3820 C   0  0  0  0  0  1  0  0  0  0  0  0
  1 22  1  0  0  0  0
  1 13  1  0  0  0  0
  5  4  1  0  0  0  0
  6  7  1  6  0  0  0
  8  3  1  6  0  0  0
  8 19  1  0  0  0  0
  9  5  1  0  0  0  0
  9  7  1  0  0  0  0
 10 20  1  0  0  0  0
 11  4  1  6  0  0  0
 11  6  1  0  0  0  0
 11 23  1  0  0  0  0
 12 26  1  0  0  0  0
 14 27  1  0  0  0  0
 14 22  2  0  0  0  0
 15 48  1  6  0  0  0
 15 17  1  0  0  0  0
 15 24  1  0  0  0  0
 16  2  1  0  0  0  0
 17  6  1  0  0  0  0
 18  2  1  0  0  0  0
 19 18  1  0  0  0  0
 20 25  1  0  0  0  0
 21 16  1  6  0  0  0
 21 32  1  0  0  0  0
 22 10  1  0  0  0  0
 23  8  1  0  0  0  0
 24 23  1  0  0  0  0
 24 13  1  0  0  0  0
 25 21  1  0  0  0  0
 26 25  1  0  0  0  0
 27 12  2  0  0  0  0
 28 41  1  0  0  0  0
 29 33  1  0  0  0  0
 30 29  2  0  0  0  0
 31 35  2  0  0  0  0
 32 40  1  0  0  0  0
 32 37  1  0  0  0  0
 33 34  1  0  0  0  0
 35 39  1  0  0  0  0
 36 28  1  0  0  0  0
 36 32  1  0  0  0  0
 36 40  1  0  0  0  0
 37 35  1  0  0  0  0
 38 28  1  0  0  0  0
 39 34  1  0  0  0  0
 40 37  1  0  0  0  0
 41 30  2  0  0  0  0
 42 41  1  0  0  0  0
 45 44  1  0  0  0  0
 45 42  1  0  0  0  0
 45 43  1  0  0  0  0
 46 45  2  0  0  0  0
 47 48  2  0  0  0  0
 49 48  1  0  0  0  0
 50 51  1  0  0  0  0
 51 49  1  0  0  0  0
 52 50  2  0  0  0  0
 53 50  1  0  0  0  0
 53 55  1  0  0  0  0
 54 53  1  0  0  0  0
M  END
>  <MODEL>
3

>  <REMARK>
 VINA RESULT:      -7.0      1.402      1.823
  Name = 
  7 active torsions:
  status: ('A' for Active; 'I' for Inactive)
    1  A    between atoms: C_8  and  C_43
    2  A    between atoms: C_10  and  C_32
    3  A    between atoms: P_29  and  C_38
    4  A    between atoms: C_33  and  C_52
    5  A    between atoms: C_34  and  N_39
    6  A    between atoms: C_34  and  C_52
    7  A    between atoms: C_38  and  C_53
                            x       y       z     vdW  Elec       q    Type
                         _______ _______ _______ _____ _____    ______ ____

>  <TORSDO>
F 7

$$$$
=
 OpenBabel11052419293D

 55 61  0  0  1  0  0  0  0  0999 V2000
  194.5720  175.0390  141.8030 C   0  0  0  0  0  2  0  0  0  0  0  0
  189.1720  174.2370  141.6610 O   0  0  0  0  0  0  0  0  0  0  0  0
  191.9410  171.6840  142.4770 C   0  0  0  0  0  1  0  0  0  0  0  0
  193.4720  170.0530  140.4460 C   0  0  0  0  0  2  0  0  0  0  0  0
  193.7780  168.7370  139.7440 C   0  0  0  0  0  2  0  0  0  0  0  0
  193.5550  171.2160  138.1810 C   0  0  1  0  0  3  0  0  0  0  0  0
  193.9830  169.8880  137.5490 C   0  0  0  0  0  2  0  0  0  0  0  0
  191.6050  172.5310  141.2580 C   0  0  2  0  0  3  0  0  0  0  0  0
  194.6950  168.9890  138.5600 C   0  0  0  0  0  2  0  0  0  0  0  0
  192.4620  176.2790  142.3180 O   0  0  0  0  0  0  0  0  0  0  0  0
  192.7950  171.0560  139.5030 C   0  0  2  0  0  3  0  0  0  0  0  0
  192.4960  176.6670  145.6450 C   0  0  0  0  0  3  0  0  0  0  0  0
  193.7620  174.4730  140.6380 C   0  0  0  0  0  2  0  0  0  0  0  0
  194.2790  176.0890  143.9520 C   0  0  0  0  0  3  0  0  0  0  0  0
  195.0510  172.7990  139.6010 C   0  0  1  0  0  3  0  0  0  0  0  0
  189.9210  174.6170  142.7820 C   0  0  0  0  0  2  0  0  0  0  0  0
  194.6880  172.2450  138.2070 C   0  0  0  0  0  2  0  0  0  0  0  0
  189.1540  172.8370  141.7020 C   0  0  0  0  0  2  0  0  0  0  0  0
  190.1980  172.2540  140.7500 C   0  0  0  0  0  2  0  0  0  0  0  0
  191.6990  177.3180  142.9270 C   0  0  0  0  0  2  0  0  0  0  0  0
  189.5410  176.0230  143.2320 C   0  0  2  0  0  3  0  0  0  0  0  0
  193.7210  175.8250  142.7550 C   0  0  0  0  0  0  0  0  0  0  0  0
  192.6510  172.4470  140.1360 C   0  0  2  0  0  3  0  0  0  0  0  0
  193.9430  173.0260  140.5540 N   0  0  2  0  0  0  0  0  0  0  0  0
  190.7090  176.7470  143.9360 C   0  0  1  0  0  3  0  0  0  0  0  0
  191.4050  175.8900  144.9910 C   0  0  0  0  0  2  0  0  0  0  0  0
  193.7380  176.7430  145.1660 C   0  0  0  0  0  3  0  0  0  0  0  0
  186.9990  176.1760  146.1530 C   0  0  1  0  0  3  0  0  0  0  0  0
  184.5520  178.3560  144.6580 C   0  0  0  0  0  3  0  0  0  0  0  0
  185.2780  177.8330  145.6150 C   0  0  0  0  0  0  0  0  0  0  0  0
  187.6490  176.3660  140.9500 O   0  0  0  0  0  0  0  0  0  0  0  0
  188.1780  176.0120  143.9690 C   0  0  2  0  0  0  0  0  0  0  0  0
  185.2140  179.1300  143.5630 C   0  0  0  0  0  2  0  0  0  0  0  0
  185.0310  178.4320  142.2190 C   0  0  0  0  0  2  0  0  0  0  0  0
  187.0540  176.9770  141.8270 C   0  0  0  0  0  0  0  0  0  0  0  0
  188.1720  176.6670  145.2880 C   0  0  1  0  0  3  0  0  0  0  0  0
  186.9740  176.4270  143.2210 C   0  0  2  0  0  3  0  0  0  0  0  0
  187.4960  175.5430  147.2810 F   0  0  0  0  0  0  0  0  0  0  0  0
  186.3750  178.2830  141.4990 C   0  0  0  0  0  2  0  0  0  0  0  0
  187.6570  177.3910  144.1110 N   0  0  2  0  0  0  0  0  0  0  0  0
  186.0530  177.2960  146.5310 C   0  0  0  0  0  0  0  0  0  0  0  0
  185.9150  177.7200  147.9590 C   0  0  0  0  0  2  0  0  0  0  0  0
  186.9850  179.4110  149.8090 O   0  0  0  0  0  1  0  0  0  0  0  0
  186.4140  180.4940  147.4960 O   0  0  0  0  0  0  0  0  0  0  0  0
  186.9950  179.1360  148.3220 P   0  0  0  0  0  0  0  0  0  0  0  0
  188.5750  178.7970  147.8170 O   0  0  0  0  0  1  0  0  0  0  0  0
  197.2860  171.9990  139.6540 O   0  0  0  0  0  0  0  0  0  0  0  0
  196.2160  172.0940  140.2340 C   0  0  0  0  0  0  0  0  0  0  0  0
  196.0690  171.5200  141.6000 C   0  0  0  0  0  2  0  0  0  0  0  0
  196.4460  172.7080  143.7950 C   0  0  0  0  0  0  0  0  0  0  0  0
  196.9210  172.2500  142.5280 N   0  0  0  0  0  2  0  0  0  0  0  0
  195.2460  172.5120  144.1380 O   0  0  0  0  0  0  0  0  0  0  0  0
  197.3460  173.4750  144.7030 C   0  0  0  0  0  3  0  0  0  0  0  0
  196.6470  173.7850  146.0140 C   0  0  0  0  0  1  0  0  0  0  0  0
  197.8050  174.7630  144.0440 C   0  0  0  0  0  1  0  0  0  0  0  0
  1 22  1  0  0  0  0
  2 18  1  0  0  0  0
  2 16  1  0  0  0  0
  5  4  1  0  0  0  0
  6  7  1  1  0  0  0
  6 17  1  0  0  0  0
  6 11  1  0  0  0  0
  7  9  1  0  0  0  0
  8  3  1  1  0  0  0
  9  5  1  0  0  0  0
 10 22  1  0  0  0  0
 10 20  1  0  0  0  0
 11 23  1  0  0  0  0
 11  4  1  1  0  0  0
 13  1  1  0  0  0  0
 14 27  1  0  0  0  0
 15 48  1  1  0  0  0
 15 24  1  0  0  0  0
 17 15  1  0  0  0  0
 19  8  1  0  0  0  0
 19 18  1  0  0  0  0
 20 25  1  0  0  0  0
 21 16  1  1  0  0  0
 21 25  1  0  0  0  0
 21 32  1  0  0  0  0
 22 14  2  0  0  0  0
 23 24  1  0  0  0  0
 23  8  1  0  0  0  0
 24 13  1  0  0  0  0
 25 26  1  0  0  0  0
 26 12  1  0  0  0  0
 27 12  2  0  0  0  0
 28 41  1  0  0  0  0
 28 38  1  0  0  0  0
 29 30  2  0  0  0  0
 30 41  2  0  0  0  0
 31 35  2  0  0  0  0
 32 40  1  0  0  0  0
 32 36  1  0  0  0  0
 33 29  1  0  0  0  0
 34 33  1  0  0  0  0
 35 37  1  0  0  0  0
 36 28  1  0  0  0  0
 37 32  1  0  0  0  0
 37 40  1  0  0  0  0
 39 35  1  0  0  0  0
 39 34  1  0  0  0  0
 40 36  1  0  0  0  0
 41 42  1  0  0  0  0
 42 45  1  0  0  0  0
 44 45  2  0  0  0  0
 45 43  1  0  0  0  0
 46 45  1  0  0  0  0
 47 48  2  0  0  0  0
 48 49  1  0  0  0  0
 49 51  1  0  0  0  0
 50 52  2  0  0  0  0
 50 53  1  0  0  0  0
 51 50  1  0  0  0  0
 53 54  1  0  0  0  0
 55 53  1  0  0  0  0
M  END
>  <MODEL>
4

>  <REMARK>
 VINA RESULT:      -7.0      3.202      6.396
  Name = 
  7 active torsions:
  status: ('A' for Active; 'I' for Inactive)
    1  A    between atoms: C_8  and  C_43
    2  A    between atoms: C_10  and  C_32
    3  A    between atoms: P_29  and  C_38
    4  A    between atoms: C_33  and  C_52
    5  A    between atoms: C_34  and  N_39
    6  A    between atoms: C_34  and  C_52
    7  A    between atoms: C_38  and  C_53
                            x       y       z     vdW  Elec       q    Type
                         _______ _______ _______ _____ _____    ______ ____

>  <TORSDO>
F 7

$$$$
=
 OpenBabel11052419293D

 55 61  0  0  1  0  0  0  0  0999 V2000
  195.1760  174.5730  143.4580 C   0  0  0  0  0  2  0  0  0  0  0  0
  189.8360  173.9740  142.4860 O   0  0  0  0  0  0  0  0  0  0  0  0
  192.3060  171.3820  143.9100 C   0  0  0  0  0  1  0  0  0  0  0  0
  194.0590  169.5480  142.2680 C   0  0  0  0  0  2  0  0  0  0  0  0
  194.4070  168.1740  141.7140 C   0  0  0  0  0  2  0  0  0  0  0  0
  194.5630  170.5390  139.9760 C   0  0  1  0  0  3  0  0  0  0  0  0
  195.0200  169.1530  139.5110 C   0  0  0  0  0  2  0  0  0  0  0  0
  192.2120  172.1500  142.5990 C   0  0  2  0  0  3  0  0  0  0  0  0
  195.5140  168.3040  140.6820 C   0  0  0  0  0  2  0  0  0  0  0  0
  193.0750  175.9290  143.5380 O   0  0  0  0  0  0  0  0  0  0  0  0
  193.5940  170.5060  141.1630 C   0  0  2  0  0  3  0  0  0  0  0  0
  192.5930  176.5570  146.7930 C   0  0  0  0  0  3  0  0  0  0  0  0
  194.5360  173.9570  142.2150 C   0  0  0  0  0  2  0  0  0  0  0  0
  194.5940  175.7880  145.4560 C   0  0  0  0  0  3  0  0  0  0  0  0
  195.8890  172.1620  141.5160 C   0  0  1  0  0  3  0  0  0  0  0  0
  190.4120  174.4050  143.6870 C   0  0  0  0  0  2  0  0  0  0  0  0
  195.7280  171.5230  140.1200 C   0  0  0  0  0  2  0  0  0  0  0  0
  189.7400  172.5820  142.6150 C   0  0  0  0  0  2  0  0  0  0  0  0
  190.8930  171.8920  141.8870 C   0  0  0  0  0  2  0  0  0  0  0  0
  192.2780  177.0380  143.9440 C   0  0  0  0  0  2  0  0  0  0  0  0
  190.0370  175.8540  143.9750 C   0  0  2  0  0  3  0  0  0  0  0  0
  194.2230  175.4590  144.2040 C   0  0  0  0  0  0  0  0  0  0  0  0
  193.4200  171.9430  141.6720 C   0  0  2  0  0  3  0  0  0  0  0  0
  194.6550  172.5010  142.2570 N   0  0  2  0  0  0  0  0  0  0  0  0
  191.1110  176.5810  144.8130 C   0  0  1  0  0  3  0  0  0  0  0  0
  191.5840  175.7760  146.0220 C   0  0  0  0  0  2  0  0  0  0  0  0
  193.8980  176.5490  146.5200 C   0  0  0  0  0  3  0  0  0  0  0  0
  187.0680  176.2360  146.4370 C   0  0  1  0  0  3  0  0  0  0  0  0
  185.0570  178.5470  144.5430 C   0  0  0  0  0  3  0  0  0  0  0  0
  185.5790  177.9950  145.6100 C   0  0  0  0  0  0  0  0  0  0  0  0
  188.5710  176.2800  141.4110 O   0  0  0  0  0  0  0  0  0  0  0  0
  188.5740  175.9490  144.4790 C   0  0  2  0  0  0  0  0  0  0  0  0
  185.9410  179.2530  143.5660 C   0  0  0  0  0  2  0  0  0  0  0  0
  185.9330  178.5430  142.2150 C   0  0  0  0  0  2  0  0  0  0  0  0
  187.8860  176.9470  142.1730 C   0  0  0  0  0  0  0  0  0  0  0  0
  188.3980  176.6290  145.7730 C   0  0  1  0  0  3  0  0  0  0  0  0
  187.5400  176.4310  143.5390 C   0  0  2  0  0  3  0  0  0  0  0  0
  187.3280  175.5920  147.6370 F   0  0  0  0  0  0  0  0  0  0  0  0
  187.3630  178.2890  141.7280 C   0  0  0  0  0  2  0  0  0  0  0  0
  188.1350  177.3640  144.5220 N   0  0  2  0  0  0  0  0  0  0  0  0
  186.1530  177.4250  146.6460 C   0  0  0  0  0  0  0  0  0  0  0  0
  185.8140  177.8850  148.0280 C   0  0  0  0  0  2  0  0  0  0  0  0
  186.3270  180.5520  147.8020 O   0  0  0  0  0  0  0  0  0  0  0  0
  188.4350  179.0200  148.0430 O   0  0  0  0  0  1  0  0  0  0  0  0
  186.8340  179.3120  148.5050 P   0  0  0  0  0  0  0  0  0  0  0  0
  186.7570  179.5380  150.1810 O   0  0  0  0  0  1  0  0  0  0  0  0
  197.7760  170.7680  141.8810 O   0  0  0  0  0  0  0  0  0  0  0  0
  196.9010  171.4600  142.3750 C   0  0  0  0  0  0  0  0  0  0  0  0
  196.8480  171.6310  143.8540 C   0  0  0  0  0  2  0  0  0  0  0  0
  195.7320  170.1100  145.5300 C   0  0  0  0  0  0  0  0  0  0  0  0
  196.6840  170.3310  144.4880 N   0  0  0  0  0  2  0  0  0  0  0  0
  195.0160  171.0590  145.9560 O   0  0  0  0  0  0  0  0  0  0  0  0
  195.6160  168.7670  146.1690 C   0  0  0  0  0  3  0  0  0  0  0  0
  194.1860  168.2630  146.0990 C   0  0  0  0  0  1  0  0  0  0  0  0
  196.0780  168.8170  147.6140 C   0  0  0  0  0  1  0  0  0  0  0  0
  1 22  1  0  0  0  0
  2 18  1  0  0  0  0
  2 16  1  0  0  0  0
  5  4  1  0  0  0  0
  6  7  1  1  0  0  0
  6 17  1  0  0  0  0
  6 11  1  0  0  0  0
  7  9  1  0  0  0  0
  8  3  1  1  0  0  0
  9  5  1  0  0  0  0
 10 20  1  0  0  0  0
 10 22  1  0  0  0  0
 11 23  1  0  0  0  0
 11  4  1  1  0  0  0
 13 24  1  0  0  0  0
 13  1  1  0  0  0  0
 14 27  1  0  0  0  0
 15 24  1  0  0  0  0
 15 48  1  1  0  0  0
 17 15  1  0  0  0  0
 19  8  1  0  0  0  0
 19 18  1  0  0  0  0
 20 25  1  0  0  0  0
 21 16  1  1  0  0  0
 21 32  1  0  0  0  0
 21 25  1  0  0  0  0
 22 14  2  0  0  0  0
 23 24  1  0  0  0  0
 23  8  1  0  0  0  0
 25 26  1  0  0  0  0
 26 12  1  0  0  0  0
 27 12  2  0  0  0  0
 28 41  1  0  0  0  0
 28 38  1  0  0  0  0
 29 30  2  0  0  0  0
 30 41  2  0  0  0  0
 31 35  2  0  0  0  0
 32 40  1  0  0  0  0
 32 36  1  0  0  0  0
 33 29  1  0  0  0  0
 34 33  1  0  0  0  0
 35 37  1  0  0  0  0
 36 28  1  0  0  0  0
 37 32  1  0  0  0  0
 37 40  1  0  0  0  0
 39 35  1  0  0  0  0
 39 34  1  0  0  0  0
 40 36  1  0  0  0  0
 41 42  1  0  0  0  0
 42 45  1  0  0  0  0
 43 45  2  0  0  0  0
 44 45  1  0  0  0  0
 45 46  1  0  0  0  0
 47 48  2  0  0  0  0
 48 49  1  0  0  0  0
 49 51  1  0  0  0  0
 50 52  2  0  0  0  0
 50 53  1  0  0  0  0
 51 50  1  0  0  0  0
 53 55  1  0  0  0  0
 54 53  1  0  0  0  0
M  END
>  <MODEL>
5

>  <REMARK>
 VINA RESULT:      -6.7      4.072      7.069
  Name = 
  7 active torsions:
  status: ('A' for Active; 'I' for Inactive)
    1  A    between atoms: C_8  and  C_43
    2  A    between atoms: C_10  and  C_32
    3  A    between atoms: P_29  and  C_38
    4  A    between atoms: C_33  and  C_52
    5  A    between atoms: C_34  and  N_39
    6  A    between atoms: C_34  and  C_52
    7  A    between atoms: C_38  and  C_53
                            x       y       z     vdW  Elec       q    Type
                         _______ _______ _______ _____ _____    ______ ____

>  <TORSDO>
F 7

$$$$
=
 OpenBabel11052419293D

 55 61  0  0  1  0  0  0  0  0999 V2000
  188.1460  176.1860  141.6270 C   0  0  0  0  0  2  0  0  0  0  0  0
  191.7710  175.9790  145.7060 O   0  0  0  0  0  0  0  0  0  0  0  0
  188.0320  175.0510  145.7900 C   0  0  0  0  0  1  0  0  0  0  0  0
  185.7600  176.9830  146.2730 C   0  0  0  0  0  2  0  0  0  0  0  0
  184.6640  177.5650  147.1550 C   0  0  0  0  0  2  0  0  0  0  0  0
  186.3830  179.3550  145.5800 C   0  0  1  0  0  3  0  0  0  0  0  0
  185.1870  179.8710  146.3860 C   0  0  0  0  0  2  0  0  0  0  0  0
  188.8020  176.3310  145.4930 C   0  0  2  0  0  3  0  0  0  0  0  0
  184.0910  178.8120  146.5050 C   0  0  0  0  0  2  0  0  0  0  0  0
  190.5740  175.6930  141.9770 O   0  0  0  0  0  0  0  0  0  0  0  0
  186.8980  177.9870  146.0450 C   0  0  2  0  0  3  0  0  0  0  0  0
  190.8830  172.4270  141.3000 C   0  0  0  0  0  3  0  0  0  0  0  0
  188.3750  177.2470  142.7020 C   0  0  0  0  0  2  0  0  0  0  0  0
  189.1000  174.1410  140.7830 C   0  0  0  0  0  3  0  0  0  0  0  0
  186.2860  178.1750  143.2640 C   0  0  1  0  0  3  0  0  0  0  0  0
  191.4700  174.9400  144.8170 C   0  0  0  0  0  2  0  0  0  0  0  0
  186.1740  179.4880  144.0690 C   0  0  0  0  0  2  0  0  0  0  0  0
  190.8900  175.7980  146.7790 C   0  0  0  0  0  2  0  0  0  0  0  0
  189.6900  176.7380  146.6580 C   0  0  0  0  0  2  0  0  0  0  0  0
  191.8400  175.1540  141.6080 C   0  0  0  0  0  2  0  0  0  0  0  0
  192.6740  174.6150  143.9400 C   0  0  2  0  0  3  0  0  0  0  0  0
  189.3280  175.2760  141.4700 C   0  0  0  0  0  0  0  0  0  0  0  0
  187.9160  177.4890  145.0090 C   0  0  2  0  0  3  0  0  0  0  0  0
  187.3070  177.1950  143.6970 N   0  0  2  0  0  0  0  0  0  0  0  0
  192.2600  174.0440  142.5660 C   0  0  1  0  0  3  0  0  0  0  0  0
  191.2040  172.9450  142.6600 C   0  0  0  0  0  2  0  0  0  0  0  0
  189.9660  172.9720  140.5000 C   0  0  0  0  0  3  0  0  0  0  0  0
  194.5590  171.5670  145.4160 C   0  0  1  0  0  3  0  0  0  0  0  0
  197.9400  172.6260  144.7680 C   0  0  0  0  0  3  0  0  0  0  0  0
  196.9420  171.7870  144.8990 C   0  0  0  0  0  0  0  0  0  0  0  0
  194.7150  176.7260  144.4750 O   0  0  0  0  0  0  0  0  0  0  0  0
  193.7320  173.8130  144.7410 C   0  0  2  0  0  0  0  0  0  0  0  0
  197.9160  173.6420  143.6720 C   0  0  0  0  0  2  0  0  0  0  0  0
  197.8590  175.0560  144.2450 C   0  0  0  0  0  2  0  0  0  0  0  0
  195.4350  175.7450  144.3520 C   0  0  0  0  0  0  0  0  0  0  0  0
  193.9280  172.4210  144.3040 C   0  0  1  0  0  3  0  0  0  0  0  0
  195.0520  174.4340  144.9740 C   0  0  2  0  0  3  0  0  0  0  0  0
  193.6760  170.5600  145.7770 F   0  0  0  0  0  0  0  0  0  0  0  0
  196.7310  175.8600  143.5910 C   0  0  0  0  0  2  0  0  0  0  0  0
  194.8790  173.4620  143.8720 N   0  0  2  0  0  0  0  0  0  0  0  0
  195.9010  170.9930  145.0120 C   0  0  0  0  0  0  0  0  0  0  0  0
  196.0740  169.5160  144.8490 C   0  0  0  0  0  2  0  0  0  0  0  0
  197.1060  168.1670  142.7180 O   0  0  0  0  0  1  0  0  0  0  0  0
  195.9310  170.4340  142.1470 O   0  0  0  0  0  0  0  0  0  0  0  0
  195.9300  169.0360  143.1010 P   0  0  0  0  0  0  0  0  0  0  0  0
  194.4890  168.1830  142.8570 O   0  0  0  0  0  1  0  0  0  0  0  0
  184.4740  176.7240  143.7630 O   0  0  0  0  0  0  0  0  0  0  0  0
  184.9570  177.5340  142.9880 C   0  0  0  0  0  0  0  0  0  0  0  0
  184.2050  177.9120  141.7590 C   0  0  0  0  0  2  0  0  0  0  0  0
  181.7780  178.3790  141.2500 C   0  0  0  0  0  0  0  0  0  0  0  0
  182.9010  178.4420  142.1310 N   0  0  0  0  0  2  0  0  0  0  0  0
  181.8960  177.8790  140.0960 O   0  0  0  0  0  0  0  0  0  0  0  0
  180.4670  178.9580  141.6620 C   0  0  0  0  0  3  0  0  0  0  0  0
  179.4340  177.8620  141.8550 C   0  0  0  0  0  1  0  0  0  0  0  0
  179.9730  179.9590  140.6340 C   0  0  0  0  0  1  0  0  0  0  0  0
  1 13  1  0  0  0  0
  2 18  1  0  0  0  0
  4  5  1  0  0  0  0
  6 17  1  6  0  0  0
  6 11  1  0  0  0  0
  6  7  1  0  0  0  0
  7  9  1  0  0  0  0
  8  3  1  1  0  0  0
  8 19  1  0  0  0  0
  9  5  1  0  0  0  0
 11  4  1  6  0  0  0
 12 26  1  0  0  0  0
 13 24  1  0  0  0  0
 14 22  2  0  0  0  0
 15 48  1  1  0  0  0
 15 24  1  0  0  0  0
 15 17  1  0  0  0  0
 16  2  1  0  0  0  0
 19 18  1  0  0  0  0
 20 10  1  0  0  0  0
 20 25  1  0  0  0  0
 21 32  1  0  0  0  0
 21 16  1  1  0  0  0
 22  1  1  0  0  0  0
 22 10  1  0  0  0  0
 23  8  1  0  0  0  0
 23 11  1  0  0  0  0
 24 23  1  0  0  0  0
 25 26  1  0  0  0  0
 25 21  1  0  0  0  0
 27 14  1  0  0  0  0
 27 12  2  0  0  0  0
 28 38  1  0  0  0  0
 29 30  2  0  0  0  0
 30 41  2  0  0  0  0
 32 37  1  0  0  0  0
 33 34  1  0  0  0  0
 33 29  1  0  0  0  0
 35 31  2  0  0  0  0
 35 37  1  0  0  0  0
 36 32  1  0  0  0  0
 36 28  1  0  0  0  0
 39 34  1  0  0  0  0
 39 35  1  0  0  0  0
 40 36  1  0  0  0  0
 40 32  1  0  0  0  0
 40 37  1  0  0  0  0
 41 28  1  0  0  0  0
 42 41  1  0  0  0  0
 43 45  1  0  0  0  0
 44 45  2  0  0  0  0
 45 42  1  0  0  0  0
 46 45  1  0  0  0  0
 48 47  2  0  0  0  0
 49 51  1  0  0  0  0
 49 48  1  0  0  0  0
 50 53  1  0  0  0  0
 50 51  1  0  0  0  0
 52 50  2  0  0  0  0
 53 54  1  0  0  0  0
 55 53  1  0  0  0  0
M  END
>  <MODEL>
6

>  <REMARK>
 VINA RESULT:      -6.4      5.030     10.456
  Name = 
  7 active torsions:
  status: ('A' for Active; 'I' for Inactive)
    1  A    between atoms: C_8  and  C_43
    2  A    between atoms: C_10  and  C_32
    3  A    between atoms: P_29  and  C_38
    4  A    between atoms: C_33  and  C_52
    5  A    between atoms: C_34  and  N_39
    6  A    between atoms: C_34  and  C_52
    7  A    between atoms: C_38  and  C_53
                            x       y       z     vdW  Elec       q    Type
                         _______ _______ _______ _____ _____    ______ ____

>  <TORSDO>
F 7

$$$$
=
 OpenBabel11052419293D

 55 61  0  0  1  0  0  0  0  0999 V2000
  191.6590  171.0960  142.3340 C   0  0  0  0  0  2  0  0  0  0  0  0
  190.4380  176.0000  144.4030 O   0  0  0  0  0  0  0  0  0  0  0  0
  193.5330  174.9840  142.3430 C   0  0  0  0  0  1  0  0  0  0  0  0
  196.0660  173.7810  143.4680 C   0  0  0  0  0  2  0  0  0  0  0  0
  197.5330  173.8790  143.8610 C   0  0  0  0  0  2  0  0  0  0  0  0
  195.6250  172.5360  145.6470 C   0  0  1  0  0  3  0  0  0  0  0  0
  197.1300  172.5570  145.9280 C   0  0  0  0  0  2  0  0  0  0  0  0
  192.9570  174.5440  143.6820 C   0  0  2  0  0  3  0  0  0  0  0  0
  197.9410  172.6380  144.6350 C   0  0  0  0  0  2  0  0  0  0  0  0
  189.6460  172.5120  142.7810 O   0  0  0  0  0  0  0  0  0  0  0  0
  195.1570  173.6450  144.6970 C   0  0  2  0  0  3  0  0  0  0  0  0
  188.4730  173.3040  139.7450 C   0  0  0  0  0  3  0  0  0  0  0  0
  192.1630  171.6840  143.6510 C   0  0  0  0  0  2  0  0  0  0  0  0
  190.0700  171.5300  140.5760 C   0  0  0  0  0  3  0  0  0  0  0  0
  194.3950  171.0000  143.9460 C   0  0  1  0  0  3  0  0  0  0  0  0
  190.0890  175.5310  143.1300 C   0  0  0  0  0  2  0  0  0  0  0  0
  195.1100  171.1340  145.3080 C   0  0  0  0  0  2  0  0  0  0  0  0
  191.6760  176.6320  144.2240 C   0  0  0  0  0  2  0  0  0  0  0  0
  192.8190  175.7110  144.6480 C   0  0  0  0  0  2  0  0  0  0  0  0
  188.2830  172.8940  142.6170 C   0  0  0  0  0  2  0  0  0  0  0  0
  188.5770  175.3820  143.0070 C   0  0  2  0  0  3  0  0  0  0  0  0
  190.4040  171.7650  141.8590 C   0  0  0  0  0  0  0  0  0  0  0  0
  193.6990  173.3550  144.3150 C   0  0  2  0  0  3  0  0  0  0  0  0
  193.5460  172.1290  143.5070 N   0  0  2  0  0  0  0  0  0  0  0  0
  188.1780  174.2840  141.9970 C   0  0  1  0  0  3  0  0  0  0  0  0
  188.9360  174.3740  140.6740 C   0  0  0  0  0  2  0  0  0  0  0  0
  188.9800  172.0700  139.7290 C   0  0  0  0  0  3  0  0  0  0  0  0
  186.5950  178.2700  141.3480 C   0  0  1  0  0  3  0  0  0  0  0  0
  184.4940  179.1820  144.1270 C   0  0  0  0  0  3  0  0  0  0  0  0
  184.8190  178.9860  142.8740 C   0  0  0  0  0  0  0  0  0  0  0  0
  188.5480  176.3590  145.8270 O   0  0  0  0  0  0  0  0  0  0  0  0
  187.9030  176.7670  142.8370 C   0  0  2  0  0  0  0  0  0  0  0  0
  184.4180  178.0200  145.0650 C   0  0  0  0  0  2  0  0  0  0  0  0
  185.4740  178.1380  146.1610 C   0  0  0  0  0  2  0  0  0  0  0  0
  187.5080  176.8480  145.4100 C   0  0  0  0  0  0  0  0  0  0  0  0
  186.8380  176.8270  141.8220 C   0  0  1  0  0  3  0  0  0  0  0  0
  187.4510  177.4790  144.0500 C   0  0  2  0  0  3  0  0  0  0  0  0
  186.8840  178.3610  139.9950 F   0  0  0  0  0  0  0  0  0  0  0  0
  186.2770  176.8380  146.2800 C   0  0  0  0  0  2  0  0  0  0  0  0
  186.4810  176.7020  143.2470 N   0  0  2  0  0  0  0  0  0  0  0  0
  185.1860  178.7420  141.6350 C   0  0  0  0  0  0  0  0  0  0  0  0
  184.2430  179.0380  140.5110 C   0  0  0  0  0  2  0  0  0  0  0  0
  182.4200  177.1640  139.7410 O   0  0  0  0  0  0  0  0  0  0  0  0
  181.4130  179.4000  140.6550 O   0  0  0  0  0  1  0  0  0  0  0  0
  182.6350  178.2360  140.7860 P   0  0  0  0  0  0  0  0  0  0  0  0
  182.5960  177.5420  142.3290 O   0  0  0  0  0  1  0  0  0  0  0  0
  196.3530  169.9480  143.1090 O   0  0  0  0  0  0  0  0  0  0  0  0
  195.2950  170.4990  142.8520 C   0  0  0  0  0  0  0  0  0  0  0  0
  194.8760  170.6580  141.4320 C   0  0  0  0  0  2  0  0  0  0  0  0
  195.3140  172.6220  139.9100 C   0  0  0  0  0  0  0  0  0  0  0  0
  195.7850  171.5720  140.7560 N   0  0  0  0  0  2  0  0  0  0  0  0
  194.0770  172.7700  139.6990 O   0  0  0  0  0  0  0  0  0  0  0  0
  196.2820  173.5200  139.2160 C   0  0  0  0  0  3  0  0  0  0  0  0
  196.1800  174.9360  139.7550 C   0  0  0  0  0  1  0  0  0  0  0  0
  196.0410  173.5170  137.7180 C   0  0  0  0  0  1  0  0  0  0  0  0
  1 13  1  0  0  0  0
  4  5  1  0  0  0  0
  5  9  1  0  0  0  0
  6 17  1  6  0  0  0
  6  7  1  0  0  0  0
  8  3  1  6  0  0  0
  8 23  1  0  0  0  0
  8 19  1  0  0  0  0
  9  7  1  0  0  0  0
 11  4  1  6  0  0  0
 11  6  1  0  0  0  0
 12 26  1  0  0  0  0
 14 22  2  0  0  0  0
 15 48  1  6  0  0  0
 15 17  1  0  0  0  0
 16  2  1  0  0  0  0
 18  2  1  0  0  0  0
 18 19  1  0  0  0  0
 20 10  1  0  0  0  0
 21 16  1  6  0  0  0
 22  1  1  0  0  0  0
 22 10  1  0  0  0  0
 23 11  1  0  0  0  0
 24 13  1  0  0  0  0
 24 15  1  0  0  0  0
 24 23  1  0  0  0  0
 25 20  1  0  0  0  0
 25 21  1  0  0  0  0
 26 25  1  0  0  0  0
 27 12  2  0  0  0  0
 27 14  1  0  0  0  0
 28 41  1  0  0  0  0
 28 36  1  0  0  0  0
 29 33  1  0  0  0  0
 30 29  2  0  0  0  0
 32 21  1  0  0  0  0
 32 40  1  0  0  0  0
 32 37  1  0  0  0  0
 33 34  1  0  0  0  0
 34 39  1  0  0  0  0
 35 31  2  0  0  0  0
 35 39  1  0  0  0  0
 36 32  1  0  0  0  0
 36 40  1  0  0  0  0
 37 35  1  0  0  0  0
 38 28  1  0  0  0  0
 40 37  1  0  0  0  0
 41 30  2  0  0  0  0
 42 45  1  0  0  0  0
 42 41  1  0  0  0  0
 43 45  2  0  0  0  0
 44 45  1  0  0  0  0
 45 46  1  0  0  0  0
 48 47  2  0  0  0  0
 49 48  1  0  0  0  0
 50 51  1  0  0  0  0
 51 49  1  0  0  0  0
 52 50  2  0  0  0  0
 53 54  1  0  0  0  0
 53 50  1  0  0  0  0
 55 53  1  0  0  0  0
M  END
>  <MODEL>
7

>  <REMARK>
 VINA RESULT:      -6.4      3.210      5.822
  Name = 
  7 active torsions:
  status: ('A' for Active; 'I' for Inactive)
    1  A    between atoms: C_8  and  C_43
    2  A    between atoms: C_10  and  C_32
    3  A    between atoms: P_29  and  C_38
    4  A    between atoms: C_33  and  C_52
    5  A    between atoms: C_34  and  N_39
    6  A    between atoms: C_34  and  C_52
    7  A    between atoms: C_38  and  C_53
                            x       y       z     vdW  Elec       q    Type
                         _______ _______ _______ _____ _____    ______ ____

>  <TORSDO>
F 7

$$$$
=
 OpenBabel11052419293D

 55 61  0  0  1  0  0  0  0  0999 V2000
  189.6600  174.6490  144.5290 C   0  0  0  0  0  2  0  0  0  0  0  0
  187.8170  174.5520  139.3890 O   0  0  0  0  0  0  0  0  0  0  0  0
  188.6960  177.6190  141.5490 C   0  0  0  0  0  1  0  0  0  0  0  0
  186.8280  178.9870  143.4900 C   0  0  0  0  0  2  0  0  0  0  0  0
  185.9290  180.1490  143.8880 C   0  0  0  0  0  2  0  0  0  0  0  0
  185.0490  177.3860  144.3650 C   0  0  1  0  0  3  0  0  0  0  0  0
  184.2460  178.5940  144.8550 C   0  0  0  0  0  2  0  0  0  0  0  0
  187.6890  176.4850  141.6770 C   0  0  2  0  0  3  0  0  0  0  0  0
  185.1520  179.7910  145.1430 C   0  0  0  0  0  2  0  0  0  0  0  0
  189.8640  173.2380  142.4730 O   0  0  0  0  0  0  0  0  0  0  0  0
  186.0210  177.7100  143.2240 C   0  0  2  0  0  3  0  0  0  0  0  0
  193.0520  173.5950  141.5110 C   0  0  0  0  0  3  0  0  0  0  0  0
  188.2110  174.8140  144.0740 C   0  0  0  0  0  2  0  0  0  0  0  0
  191.8350  174.0600  143.6750 C   0  0  0  0  0  3  0  0  0  0  0  0
  187.1850  176.4020  145.4760 C   0  0  1  0  0  3  0  0  0  0  0  0
  189.1610  174.5460  139.7840 C   0  0  0  0  0  2  0  0  0  0  0  0
  185.6520  176.5750  145.5160 C   0  0  0  0  0  2  0  0  0  0  0  0
  187.4930  175.9070  139.2430 C   0  0  0  0  0  2  0  0  0  0  0  0
  186.7550  176.4230  140.4780 C   0  0  0  0  0  2  0  0  0  0  0  0
  190.4780  172.2520  141.6490 C   0  0  0  0  0  2  0  0  0  0  0  0
  189.8290  173.2300  139.4030 C   0  0  2  0  0  3  0  0  0  0  0  0
  190.5040  173.9670  143.4940 C   0  0  0  0  0  0  0  0  0  0  0  0
  186.9210  176.4850  143.0080 C   0  0  2  0  0  3  0  0  0  0  0  0
  187.8160  176.2180  144.1500 N   0  0  2  0  0  0  0  0  0  0  0  0
  190.9910  172.8680  140.3520 C   0  0  1  0  0  3  0  0  0  0  0  0
  191.9440  174.0320  140.6150 C   0  0  0  0  0  2  0  0  0  0  0  0
  192.9750  173.6100  142.8420 C   0  0  0  0  0  3  0  0  0  0  0  0
  191.2950  174.2670  135.9680 C   0  0  1  0  0  3  0  0  0  0  0  0
  192.3720  171.0310  134.8130 C   0  0  0  0  0  3  0  0  0  0  0  0
  192.4110  172.3310  134.9700 C   0  0  0  0  0  0  0  0  0  0  0  0
  188.9410  170.4650  138.7130 O   0  0  0  0  0  0  0  0  0  0  0  0
  190.1280  173.1900  137.8830 C   0  0  2  0  0  0  0  0  0  0  0  0
  192.5360  170.1350  135.9990 C   0  0  0  0  0  2  0  0  0  0  0  0
  191.2640  169.3330  136.2530 C   0  0  0  0  0  2  0  0  0  0  0  0
  189.8800  170.5980  137.9400 C   0  0  0  0  0  0  0  0  0  0  0  0
  191.3430  173.9070  137.4630 C   0  0  1  0  0  3  0  0  0  0  0  0
  190.0790  171.8840  137.1930 C   0  0  2  0  0  3  0  0  0  0  0  0
  191.3130  175.6470  135.8290 F   0  0  0  0  0  0  0  0  0  0  0  0
  190.8330  169.4500  137.7180 C   0  0  0  0  0  2  0  0  0  0  0  0
  191.3810  172.4420  137.6230 N   0  0  2  0  0  0  0  0  0  0  0  0
  192.4200  173.6270  135.1830 C   0  0  0  0  0  0  0  0  0  0  0  0
  193.4830  174.4750  134.5570 C   0  0  0  0  0  2  0  0  0  0  0  0
  195.9980  175.4380  134.9710 O   0  0  0  0  0  0  0  0  0  0  0  0
  195.5260  173.0680  135.9730 O   0  0  0  0  0  1  0  0  0  0  0  0
  194.9270  174.6170  135.6520 P   0  0  0  0  0  0  0  0  0  0  0  0
  194.4750  175.3640  137.1030 O   0  0  0  0  0  1  0  0  0  0  0  0
  187.4520  177.7860  147.3870 O   0  0  0  0  0  0  0  0  0  0  0  0
  187.9160  177.4010  146.3260 C   0  0  0  0  0  0  0  0  0  0  0  0
  189.2420  177.9110  145.8780 C   0  0  0  0  0  2  0  0  0  0  0  0
  191.5900  177.0050  146.0560 C   0  0  0  0  0  0  0  0  0  0  0  0
  190.2980  177.2370  146.6190 N   0  0  0  0  0  2  0  0  0  0  0  0
  191.8460  177.3580  144.8710 O   0  0  0  0  0  0  0  0  0  0  0  0
  192.6350  176.2870  146.8430 C   0  0  0  0  0  3  0  0  0  0  0  0
  193.9160  176.1570  146.0390 C   0  0  0  0  0  1  0  0  0  0  0  0
  192.1450  174.9140  147.2620 C   0  0  0  0  0  1  0  0  0  0  0  0
  2 16  1  0  0  0  0
  4  5  1  0  0  0  0
  5  9  1  0  0  0  0
  6  7  1  1  0  0  0
  6 17  1  0  0  0  0
  7  9  1  0  0  0  0
  8  3  1  6  0  0  0
  8 23  1  0  0  0  0
 10 22  1  0  0  0  0
 11  4  1  1  0  0  0
 11  6  1  0  0  0  0
 12 27  2  0  0  0  0
 13 24  1  0  0  0  0
 13  1  1  0  0  0  0
 15 17  1  0  0  0  0
 15 48  1  6  0  0  0
 18  2  1  0  0  0  0
 18 19  1  0  0  0  0
 19  8  1  0  0  0  0
 20 10  1  0  0  0  0
 21 16  1  1  0  0  0
 21 25  1  0  0  0  0
 22 14  2  0  0  0  0
 22  1  1  0  0  0  0
 23 11  1  0  0  0  0
 23 24  1  0  0  0  0
 24 15  1  0  0  0  0
 25 26  1  0  0  0  0
 25 20  1  0  0  0  0
 26 12  1  0  0  0  0
 27 14  1  0  0  0  0
 28 36  1  0  0  0  0
 29 30  2  0  0  0  0
 29 33  1  0  0  0  0
 30 41  2  0  0  0  0
 32 21  1  0  0  0  0
 33 34  1  0  0  0  0
 34 39  1  0  0  0  0
 35 31  2  0  0  0  0
 36 40  1  0  0  0  0
 36 32  1  0  0  0  0
 37 40  1  0  0  0  0
 37 32  1  0  0  0  0
 37 35  1  0  0  0  0
 38 28  1  0  0  0  0
 39 35  1  0  0  0  0
 40 32  1  0  0  0  0
 41 28  1  0  0  0  0
 42 41  1  0  0  0  0
 42 45  1  0  0  0  0
 43 45  2  0  0  0  0
 45 44  1  0  0  0  0
 45 46  1  0  0  0  0
 48 47  2  0  0  0  0
 49 48  1  0  0  0  0
 49 51  1  0  0  0  0
 50 51  1  0  0  0  0
 50 53  1  0  0  0  0
 52 50  2  0  0  0  0
 53 55  1  0  0  0  0
 54 53  1  0  0  0  0
M  END
>  <MODEL>
8

>  <REMARK>
 VINA RESULT:      -6.2      3.296     10.696
  Name = 
  7 active torsions:
  status: ('A' for Active; 'I' for Inactive)
    1  A    between atoms: C_8  and  C_43
    2  A    between atoms: C_10  and  C_32
    3  A    between atoms: P_29  and  C_38
    4  A    between atoms: C_33  and  C_52
    5  A    between atoms: C_34  and  N_39
    6  A    between atoms: C_34  and  C_52
    7  A    between atoms: C_38  and  C_53
                            x       y       z     vdW  Elec       q    Type
                         _______ _______ _______ _____ _____    ______ ____

>  <TORSDO>
F 7

$$$$
=
 OpenBabel11052419293D

 55 61  0  0  1  0  0  0  0  0999 V2000
  191.1480  171.0100  140.7280 C   0  0  0  0  0  2  0  0  0  0  0  0
  191.2120  175.0350  144.4190 O   0  0  0  0  0  0  0  0  0  0  0  0
  193.5900  174.4990  141.4350 C   0  0  0  0  0  1  0  0  0  0  0  0
  196.0730  172.7780  141.4630 C   0  0  0  0  0  2  0  0  0  0  0  0
  197.5860  172.6130  141.4810 C   0  0  0  0  0  2  0  0  0  0  0  0
  195.9080  170.9220  143.2020 C   0  0  1  0  0  3  0  0  0  0  0  0
  197.4210  170.7190  143.0840 C   0  0  0  0  0  2  0  0  0  0  0  0
  193.2480  173.6900  142.6780 C   0  0  2  0  0  3  0  0  0  0  0  0
  197.9410  171.1550  141.7150 C   0  0  0  0  0  2  0  0  0  0  0  0
  189.5350  172.3650  142.0770 O   0  0  0  0  0  0  0  0  0  0  0  0
  195.4360  172.3200  142.7820 C   0  0  2  0  0  3  0  0  0  0  0  0
  187.8890  174.2170  139.8230 C   0  0  0  0  0  3  0  0  0  0  0  0
  192.0090  171.0820  141.9890 C   0  0  0  0  0  2  0  0  0  0  0  0
  189.3150  172.1390  139.6470 C   0  0  0  0  0  3  0  0  0  0  0  0
  194.1110  170.1500  141.4870 C   0  0  1  0  0  3  0  0  0  0  0  0
  190.5280  175.0470  143.1960 C   0  0  0  0  0  2  0  0  0  0  0  0
  195.1110  169.7620  142.5970 C   0  0  0  0  0  2  0  0  0  0  0  0
  192.4690  175.5820  144.1310 C   0  0  0  0  0  2  0  0  0  0  0  0
  193.5100  174.4770  143.9530 C   0  0  0  0  0  2  0  0  0  0  0  0
  188.2490  172.8950  142.3870 C   0  0  0  0  0  2  0  0  0  0  0  0
  189.0210  175.0770  143.4220 C   0  0  2  0  0  3  0  0  0  0  0  0
  189.9470  171.9040  140.8120 C   0  0  0  0  0  0  0  0  0  0  0  0
  193.9030  172.3000  142.7130 C   0  0  2  0  0  3  0  0  0  0  0  0
  193.3840  171.4290  141.6390 N   0  0  2  0  0  0  0  0  0  0  0  0
  188.2430  174.4150  142.2630 C   0  0  1  0  0  3  0  0  0  0  0  0
  188.7060  174.8740  140.8820 C   0  0  0  0  0  2  0  0  0  0  0  0
  188.1730  173.0200  139.3080 C   0  0  0  0  0  3  0  0  0  0  0  0
  187.2470  178.5190  143.2620 C   0  0  1  0  0  3  0  0  0  0  0  0
  185.9150  178.6240  146.6070 C   0  0  0  0  0  3  0  0  0  0  0  0
  185.9490  178.8340  145.3140 C   0  0  0  0  0  0  0  0  0  0  0  0
  189.7110  175.0450  146.3250 O   0  0  0  0  0  0  0  0  0  0  0  0
  188.5620  176.4930  143.8540 C   0  0  2  0  0  0  0  0  0  0  0  0
  185.8390  177.2260  147.1300 C   0  0  0  0  0  2  0  0  0  0  0  0
  187.0950  176.8730  147.9200 C   0  0  0  0  0  2  0  0  0  0  0  0
  188.7020  175.7360  146.3430 C   0  0  0  0  0  0  0  0  0  0  0  0
  187.3410  176.9860  143.1950 C   0  0  1  0  0  3  0  0  0  0  0  0
  188.4810  176.7910  145.2990 C   0  0  2  0  0  3  0  0  0  0  0  0
  187.2740  179.0360  141.9750 F   0  0  0  0  0  0  0  0  0  0  0  0
  187.6830  175.5430  147.4370 C   0  0  0  0  0  2  0  0  0  0  0  0
  187.2570  176.4200  144.5540 N   0  0  2  0  0  0  0  0  0  0  0  0
  186.0180  178.9900  144.0110 C   0  0  0  0  0  0  0  0  0  0  0  0
  184.9330  179.7300  143.2940 C   0  0  0  0  0  2  0  0  0  0  0  0
  184.0950  177.1820  142.8140 O   0  0  0  0  0  1  0  0  0  0  0  0
  184.4320  178.6720  140.6890 O   0  0  0  0  0  0  0  0  0  0  0  0
  183.9210  178.5940  142.3000 P   0  0  0  0  0  0  0  0  0  0  0  0
  182.2910  179.0390  142.4020 O   0  0  0  0  0  1  0  0  0  0  0  0
  195.5220  169.1290  139.8720 O   0  0  0  0  0  0  0  0  0  0  0  0
  194.6640  169.9660  140.1020 C   0  0  0  0  0  0  0  0  0  0  0  0
  194.1380  170.8030  138.9880 C   0  0  0  0  0  2  0  0  0  0  0  0
  192.2430  170.6600  137.3280 C   0  0  0  0  0  0  0  0  0  0  0  0
  193.1680  170.0360  138.2200 N   0  0  0  0  0  2  0  0  0  0  0  0
  192.2230  171.9160  137.2020 O   0  0  0  0  0  0  0  0  0  0  0  0
  191.2490  169.8370  136.5800 C   0  0  0  0  0  3  0  0  0  0  0  0
  191.8070  169.4170  135.2320 C   0  0  0  0  0  1  0  0  0  0  0  0
  189.9530  170.6020  136.3880 C   0  0  0  0  0  1  0  0  0  0  0  0
  1 22  1  0  0  0  0
  1 13  1  0  0  0  0
  4  5  1  0  0  0  0
  5  9  1  0  0  0  0
  6 17  1  6  0  0  0
  7  6  1  0  0  0  0
  8  3  1  6  0  0  0
  8 23  1  0  0  0  0
  8 19  1  0  0  0  0
  9  7  1  0  0  0  0
 10 20  1  0  0  0  0
 11  4  1  6  0  0  0
 11  6  1  0  0  0  0
 12 26  1  0  0  0  0
 14 22  2  0  0  0  0
 15 48  1  6  0  0  0
 15 24  1  0  0  0  0
 15 17  1  0  0  0  0
 16  2  1  0  0  0  0
 18  2  1  0  0  0  0
 19 18  1  0  0  0  0
 21 16  1  6  0  0  0
 21 32  1  0  0  0  0
 22 10  1  0  0  0  0
 23 11  1  0  0  0  0
 24 13  1  0  0  0  0
 24 23  1  0  0  0  0
 25 20  1  0  0  0  0
 25 21  1  0  0  0  0
 26 25  1  0  0  0  0
 27 14  1  0  0  0  0
 27 12  2  0  0  0  0
 28 41  1  0  0  0  0
 29 33  1  0  0  0  0
 30 29  2  0  0  0  0
 31 35  2  0  0  0  0
 32 40  1  0  0  0  0
 32 37  1  0  0  0  0
 33 34  1  0  0  0  0
 35 39  1  0  0  0  0
 36 28  1  0  0  0  0
 36 32  1  0  0  0  0
 36 40  1  0  0  0  0
 37 35  1  0  0  0  0
 38 28  1  0  0  0  0
 39 34  1  0  0  0  0
 40 37  1  0  0  0  0
 41 30  2  0  0  0  0
 42 41  1  0  0  0  0
 44 45  2  0  0  0  0
 45 46  1  0  0  0  0
 45 43  1  0  0  0  0
 45 42  1  0  0  0  0
 47 48  2  0  0  0  0
 49 48  1  0  0  0  0
 50 51  1  0  0  0  0
 51 49  1  0  0  0  0
 52 50  2  0  0  0  0
 53 50  1  0  0  0  0
 54 53  1  0  0  0  0
 55 53  1  0  0  0  0
M  END
>  <MODEL>
9

>  <REMARK>
 VINA RESULT:      -5.9      2.742      4.050
  Name = 
  7 active torsions:
  status: ('A' for Active; 'I' for Inactive)
    1  A    between atoms: C_8  and  C_43
    2  A    between atoms: C_10  and  C_32
    3  A    between atoms: P_29  and  C_38
    4  A    between atoms: C_33  and  C_52
    5  A    between atoms: C_34  and  N_39
    6  A    between atoms: C_34  and  C_52
    7  A    between atoms: C_38  and  C_53
                            x       y       z     vdW  Elec       q    Type
                         _______ _______ _______ _____ _____    ______ ____

>  <TORSDO>
F 7

$$$$
