=
 OpenBabel11052421383D

 32 38  0  0  1  0  0  0  0  0999 V2000
  193.4650  175.6230  146.5170 C   0  0  1  0  0  3  0  0  0  0  0  0
  188.7610  176.2960  144.5860 C   0  0  1  0  0  3  0  0  0  0  0  0
  186.7200  179.0980  148.0990 C   0  0  0  0  0  2  0  0  0  0  0  0
  185.3970  179.0010  147.3650 C   0  0  0  0  0  2  0  0  0  0  0  0
  187.9170  176.4830  142.3230 C   0  0  0  0  0  0  0  0  0  0  0  0
  186.9460  176.9830  141.4510 C   0  0  0  0  0  0  0  0  0  0  0  0
  190.9480  175.3980  144.9410 C   0  0  0  0  0  0  0  0  0  0  0  0
  189.8490  176.5350  146.7660 N   0  0  0  0  0  0  0  0  0  0  0  0
  185.0080  177.9800  139.7320 C   0  0  0  0  0  3  0  0  0  0  0  0
  192.1660  176.0580  147.1820 C   0  0  0  0  0  2  0  0  0  0  0  0
  187.5060  177.8200  147.8530 C   0  0  0  0  0  2  0  0  0  0  0  0
  188.5620  176.4340  146.0720 C   0  0  1  0  0  3  0  0  0  0  0  0
  187.6790  177.5460  146.4230 N   0  0  1  0  0  0  0  0  0  0  0  0
  186.7770  177.5980  144.1700 C   0  0  0  0  0  0  0  0  0  0  0  0
  186.0220  177.2070  139.2570 N   0  0  0  0  0  0  0  0  0  0  0  0
  193.2530  174.0340  145.6430 S   0  0  0  0  0  0  0  0  0  0  0  0
  190.9490  176.0200  146.2990 C   0  0  0  0  0  0  0  0  0  0  0  0
  186.9830  176.7070  140.0790 C   0  0  0  0  0  3  0  0  0  0  0  0
  192.1590  174.7330  144.3670 C   0  0  0  0  0  2  0  0  0  0  0  0
  185.6510  179.0020  145.8660 C   0  0  0  0  0  2  0  0  0  0  0  0
  186.6890  177.9820  145.4620 C   0  0  2  0  0  3  0  0  0  0  0  0
  185.8560  178.0660  143.2790 N   0  0  0  0  0  0  0  0  0  0  0  0
  189.9330  175.5890  144.1530 N   0  0  0  0  0  0  0  0  0  0  0  0
  188.9060  175.7040  141.8100 F   0  0  0  0  0  0  0  0  0  0  0  0
  184.9320  178.2810  141.0930 C   0  0  0  0  0  3  0  0  0  0  0  0
  187.8400  176.7660  143.7120 C   0  0  0  0  0  0  0  0  0  0  0  0
  185.9060  177.7780  141.9570 C   0  0  0  0  0  0  0  0  0  0  0  0
  194.0290  176.7200  145.6230 C   0  0  0  0  0  2  0  0  0  0  0  0
  195.3690  176.3680  145.1870 N   0  0  0  0  0  2  0  0  0  0  0  0
  195.3690  176.4350  143.7380 C   0  0  0  0  0  3  0  0  0  0  0  0
  196.2820  175.3560  143.1910 C   0  0  0  0  0  2  0  0  0  0  0  0
  196.7620  176.7890  143.2580 C   0  0  0  0  0  2  0  0  0  0  0  0
  1 28  1  6  0  0  0
  1 10  1  0  0  0  0
  2 26  1  1  0  0  0
  2 12  1  0  0  0  0
  4  3  1  0  0  0  0
  5 26  1  0  0  0  0
  6 27  1  0  0  0  0
  6  5  2  0  0  0  0
  7 17  1  0  0  0  0
  9 25  2  0  0  0  0
 11  3  1  0  0  0  0
 12 13  1  0  0  0  0
 12  8  1  1  0  0  0
 13 11  1  1  0  0  0
 14 21  1  0  0  0  0
 15  9  1  0  0  0  0
 15 18  2  0  0  0  0
 16  1  1  0  0  0  0
 17  8  2  0  0  0  0
 17 10  1  0  0  0  0
 18  6  1  0  0  0  0
 19  7  1  0  0  0  0
 19 16  1  0  0  0  0
 20  4  1  0  0  0  0
 21 20  1  6  0  0  0
 21 13  1  0  0  0  0
 22 14  1  0  0  0  0
 23  2  1  0  0  0  0
 23  7  2  0  0  0  0
 24  5  1  0  0  0  0
 25 27  1  0  0  0  0
 26 14  2  0  0  0  0
 27 22  2  0  0  0  0
 29 28  1  0  0  0  0
 30 29  1  0  0  0  0
 31 32  1  0  0  0  0
 31 30  1  0  0  0  0
 32 30  1  0  0  0  0
M  END
>  <MODEL>
1

>  <REMARK>
 VINA RESULT:      -7.9      0.000      0.000
  Name = 
  3 active torsions:
  status: ('A' for Active; 'I' for Inactive)
    1  A    between atoms: C_1  and  N_10
    2  A    between atoms: C_2  and  C_24
    3  A    between atoms: N_10  and  C_24
                            x       y       z     vdW  Elec       q    Type
                         _______ _______ _______ _____ _____    ______ ____

>  <TORSDO>
F 3

$$$$
=
 OpenBabel11052421383D

 32 38  0  0  1  0  0  0  0  0999 V2000
  186.7150  178.0440  142.4060 C   0  0  1  0  0  3  0  0  0  0  0  0
  190.5040  174.5950  142.6710 C   0  0  1  0  0  3  0  0  0  0  0  0
  193.0660  176.3420  146.5100 C   0  0  0  0  0  2  0  0  0  0  0  0
  194.1170  175.2800  146.2540 C   0  0  0  0  0  2  0  0  0  0  0  0
  190.6140  172.2240  142.1920 C   0  0  0  0  0  0  0  0  0  0  0  0
  191.2060  170.9830  142.4440 C   0  0  0  0  0  0  0  0  0  0  0  0
  188.6660  175.8700  141.8250 C   0  0  0  0  0  0  0  0  0  0  0  0
  190.0790  176.8530  143.5180 N   0  0  0  0  0  0  0  0  0  0  0  0
  192.3950  168.5270  142.9530 C   0  0  0  0  0  3  0  0  0  0  0  0
  188.0770  178.1070  143.0840 C   0  0  0  0  0  2  0  0  0  0  0  0
  192.4320  176.7270  145.1830 C   0  0  0  0  0  2  0  0  0  0  0  0
  191.1080  175.8390  143.2680 C   0  0  1  0  0  3  0  0  0  0  0  0
  191.8880  175.5640  144.4750 N   0  0  1  0  0  0  0  0  0  0  0  0
  192.0750  173.2200  143.8730 C   0  0  0  0  0  0  0  0  0  0  0  0
  191.4060  168.6370  142.0240 N   0  0  0  0  0  0  0  0  0  0  0  0
  186.8850  177.6250  140.6370 S   0  0  0  0  0  0  0  0  0  0  0  0
  188.9750  176.9270  142.8340 C   0  0  0  0  0  0  0  0  0  0  0  0
  190.8080  169.8300  141.7580 C   0  0  0  0  0  3  0  0  0  0  0  0
  187.4470  175.9230  140.9590 C   0  0  0  0  0  2  0  0  0  0  0  0
  193.4370  174.0040  145.7820 C   0  0  0  0  0  2  0  0  0  0  0  0
  192.4810  174.2550  144.6400 C   0  0  2  0  0  3  0  0  0  0  0  0
  192.6190  171.9880  144.0860 N   0  0  0  0  0  0  0  0  0  0  0  0
  189.3690  174.7770  141.8110 N   0  0  0  0  0  0  0  0  0  0  0  0
  189.6370  172.2930  141.2470 F   0  0  0  0  0  0  0  0  0  0  0  0
  192.8230  169.6510  143.6610 C   0  0  0  0  0  3  0  0  0  0  0  0
  191.0530  173.3770  142.8910 C   0  0  0  0  0  0  0  0  0  0  0  0
  192.2250  170.8860  143.4040 C   0  0  0  0  0  0  0  0  0  0  0  0
  185.7660  177.1110  143.1480 C   0  0  0  0  0  2  0  0  0  0  0  0
  184.7630  177.8840  143.8580 N   0  0  0  0  0  2  0  0  0  0  0  0
  185.0270  177.7130  145.2740 C   0  0  0  0  0  3  0  0  0  0  0  0
  184.0960  178.6100  146.0660 C   0  0  0  0  0  2  0  0  0  0  0  0
  185.5360  179.0210  145.8460 C   0  0  0  0  0  2  0  0  0  0  0  0
  1 10  1  0  0  0  0
  1 28  1  1  0  0  0
  2 23  1  6  0  0  0
  2 26  1  0  0  0  0
  2 12  1  0  0  0  0
  4  3  1  0  0  0  0
  5  6  2  0  0  0  0
  5 26  1  0  0  0  0
  6 27  1  0  0  0  0
  7 17  1  0  0  0  0
  9 25  2  0  0  0  0
 11  3  1  0  0  0  0
 12  8  1  1  0  0  0
 12 13  1  0  0  0  0
 13 21  1  0  0  0  0
 13 11  1  6  0  0  0
 14 22  1  0  0  0  0
 14 21  1  0  0  0  0
 15  9  1  0  0  0  0
 16 19  1  0  0  0  0
 16  1  1  0  0  0  0
 17 10  1  0  0  0  0
 17  8  2  0  0  0  0
 18 15  2  0  0  0  0
 18  6  1  0  0  0  0
 19  7  1  0  0  0  0
 20  4  1  0  0  0  0
 21 20  1  1  0  0  0
 23  7  2  0  0  0  0
 24  5  1  0  0  0  0
 26 14  2  0  0  0  0
 27 25  1  0  0  0  0
 27 22  2  0  0  0  0
 28 29  1  0  0  0  0
 29 30  1  0  0  0  0
 30 32  1  0  0  0  0
 30 31  1  0  0  0  0
 32 31  1  0  0  0  0
M  END
>  <MODEL>
2

>  <REMARK>
 VINA RESULT:      -7.8      3.384      7.988
  Name = 
  3 active torsions:
  status: ('A' for Active; 'I' for Inactive)
    1  A    between atoms: C_1  and  N_10
    2  A    between atoms: C_2  and  C_24
    3  A    between atoms: N_10  and  C_24
                            x       y       z     vdW  Elec       q    Type
                         _______ _______ _______ _____ _____    ______ ____

>  <TORSDO>
F 3

$$$$
=
 OpenBabel11052421383D

 32 38  0  0  1  0  0  0  0  0999 V2000
  192.0650  172.4950  140.1040 C   0  0  1  0  0  3  0  0  0  0  0  0
  189.0060  174.8880  143.4550 C   0  0  1  0  0  3  0  0  0  0  0  0
  192.2530  176.0690  146.9790 C   0  0  0  0  0  2  0  0  0  0  0  0
  191.1040  176.5830  147.8240 C   0  0  0  0  0  2  0  0  0  0  0  0
  187.0310  176.2650  143.1950 C   0  0  0  0  0  0  0  0  0  0  0  0
  186.2200  177.2910  143.6890 C   0  0  0  0  0  0  0  0  0  0  0  0
  189.7210  173.5220  141.6270 C   0  0  0  0  0  0  0  0  0  0  0  0
  191.2320  173.8680  143.4790 N   0  0  0  0  0  0  0  0  0  0  0  0
  184.6170  179.3280  144.6840 C   0  0  0  0  0  3  0  0  0  0  0  0
  192.2580  172.8130  141.5810 C   0  0  0  0  0  2  0  0  0  0  0  0
  191.7460  174.9270  146.1130 C   0  0  0  0  0  2  0  0  0  0  0  0
  190.1250  174.3540  144.3090 C   0  0  1  0  0  3  0  0  0  0  0  0
  190.5900  175.3220  145.3020 N   0  0  1  0  0  0  0  0  0  0  0  0
  188.5300  176.5900  145.0920 C   0  0  0  0  0  0  0  0  0  0  0  0
  184.2820  178.6840  143.5330 N   0  0  0  0  0  0  0  0  0  0  0  0
  190.5150  171.5710  139.8310 S   0  0  0  0  0  0  0  0  0  0  0  0
  191.0680  173.4280  142.2660 C   0  0  0  0  0  0  0  0  0  0  0  0
  185.0520  177.6840  143.0250 C   0  0  0  0  0  3  0  0  0  0  0  0
  189.4450  172.9800  140.2610 C   0  0  0  0  0  2  0  0  0  0  0  0
  190.0660  177.2320  146.9210 C   0  0  0  0  0  2  0  0  0  0  0  0
  189.6720  176.3380  145.7690 C   0  0  2  0  0  3  0  0  0  0  0  0
  187.7100  177.5870  145.5320 N   0  0  0  0  0  0  0  0  0  0  0  0
  188.8010  174.2510  142.1850 N   0  0  0  0  0  0  0  0  0  0  0  0
  186.6530  175.6390  142.0480 F   0  0  0  0  0  0  0  0  0  0  0  0
  185.7740  178.9690  145.3790 C   0  0  0  0  0  3  0  0  0  0  0  0
  188.1990  175.8790  143.9020 C   0  0  0  0  0  0  0  0  0  0  0  0
  186.5780  177.9440  144.8780 C   0  0  0  0  0  0  0  0  0  0  0  0
  192.1660  173.7500  139.2450 C   0  0  0  0  0  2  0  0  0  0  0  0
  193.4590  173.7990  138.5870 N   0  0  0  0  0  2  0  0  0  0  0  0
  194.1550  174.9580  139.1150 C   0  0  0  0  0  3  0  0  0  0  0  0
  195.5810  174.9590  138.6030 C   0  0  0  0  0  2  0  0  0  0  0  0
  195.2840  174.4940  140.0120 C   0  0  0  0  0  2  0  0  0  0  0  0
  1 28  1  6  0  0  0
  1 10  1  0  0  0  0
  2 23  1  1  0  0  0
  2 26  1  0  0  0  0
  2 12  1  0  0  0  0
  3  4  1  0  0  0  0
  5  6  2  0  0  0  0
  5 26  1  0  0  0  0
  6 27  1  0  0  0  0
  7 23  2  0  0  0  0
  7 17  1  0  0  0  0
  9 25  2  0  0  0  0
 10 17  1  0  0  0  0
 11  3  1  0  0  0  0
 12  8  1  6  0  0  0
 12 13  1  0  0  0  0
 13 21  1  0  0  0  0
 13 11  1  1  0  0  0
 14 22  1  0  0  0  0
 14 21  1  0  0  0  0
 15  9  1  0  0  0  0
 16  1  1  0  0  0  0
 16 19  1  0  0  0  0
 17  8  2  0  0  0  0
 18 15  2  0  0  0  0
 18  6  1  0  0  0  0
 19  7  1  0  0  0  0
 20  4  1  0  0  0  0
 21 20  1  6  0  0  0
 24  5  1  0  0  0  0
 26 14  2  0  0  0  0
 27 25  1  0  0  0  0
 27 22  2  0  0  0  0
 29 30  1  0  0  0  0
 29 28  1  0  0  0  0
 30 32  1  0  0  0  0
 31 30  1  0  0  0  0
 31 32  1  0  0  0  0
M  END
>  <MODEL>
3

>  <REMARK>
 VINA RESULT:      -7.6      3.028      4.670
  Name = 
  3 active torsions:
  status: ('A' for Active; 'I' for Inactive)
    1  A    between atoms: C_1  and  N_10
    2  A    between atoms: C_2  and  C_24
    3  A    between atoms: N_10  and  C_24
                            x       y       z     vdW  Elec       q    Type
                         _______ _______ _______ _____ _____    ______ ____

>  <TORSDO>
F 3

$$$$
=
 OpenBabel11052421383D

 32 38  0  0  1  0  0  0  0  0999 V2000
  191.8970  172.4290  140.0090 C   0  0  1  0  0  3  0  0  0  0  0  0
  188.9420  174.8810  143.4090 C   0  0  1  0  0  3  0  0  0  0  0  0
  192.2660  175.9810  146.8880 C   0  0  0  0  0  2  0  0  0  0  0  0
  191.1400  176.5190  147.7500 C   0  0  0  0  0  2  0  0  0  0  0  0
  186.9940  176.3030  143.1820 C   0  0  0  0  0  0  0  0  0  0  0  0
  186.2140  177.3460  143.6890 C   0  0  0  0  0  0  0  0  0  0  0  0
  189.5990  173.5050  141.5680 C   0  0  0  0  0  0  0  0  0  0  0  0
  191.1440  173.8120  143.3990 N   0  0  0  0  0  0  0  0  0  0  0  0
  184.6720  179.4160  144.7120 C   0  0  0  0  0  3  0  0  0  0  0  0
  192.1180  172.7390  141.4830 C   0  0  0  0  0  2  0  0  0  0  0  0
  191.7200  174.8530  146.0270 C   0  0  0  0  0  2  0  0  0  0  0  0
  190.0610  174.3200  144.2460 C   0  0  1  0  0  3  0  0  0  0  0  0
  190.5620  175.2760  145.2330 N   0  0  1  0  0  0  0  0  0  0  0  0
  188.5280  176.5900  145.0570 C   0  0  0  0  0  0  0  0  0  0  0  0
  184.3060  178.7820  143.5640 N   0  0  0  0  0  0  0  0  0  0  0  0
  190.3220  171.5400  139.7570 S   0  0  0  0  0  0  0  0  0  0  0  0
  190.9530  173.3780  142.1870 C   0  0  0  0  0  0  0  0  0  0  0  0
  185.0450  177.7660  143.0440 C   0  0  0  0  0  3  0  0  0  0  0  0
  189.2910  172.9720  140.2050 C   0  0  0  0  0  2  0  0  0  0  0  0
  190.1050  177.1930  146.8640 C   0  0  0  0  0  2  0  0  0  0  0  0
  189.6740  176.3110  145.7170 C   0  0  2  0  0  3  0  0  0  0  0  0
  187.7370  177.6030  145.5100 N   0  0  0  0  0  0  0  0  0  0  0  0
  188.7040  174.2520  142.1410 N   0  0  0  0  0  0  0  0  0  0  0  0
  186.5860  175.6880  142.0390 F   0  0  0  0  0  0  0  0  0  0  0  0
  185.8300  179.0290  145.3890 C   0  0  0  0  0  3  0  0  0  0  0  0
  188.1630  175.8890  143.8710 C   0  0  0  0  0  0  0  0  0  0  0  0
  186.6040  177.9880  144.8740 C   0  0  0  0  0  0  0  0  0  0  0  0
  192.0130  173.6830  139.1510 C   0  0  0  0  0  2  0  0  0  0  0  0
  192.0100  173.3250  137.7440 N   0  0  0  0  0  2  0  0  0  0  0  0
  191.0170  174.1660  137.1000 C   0  0  0  0  0  3  0  0  0  0  0  0
  190.8190  173.6960  135.6720 C   0  0  0  0  0  2  0  0  0  0  0  0
  191.6680  174.9160  135.9560 C   0  0  0  0  0  2  0  0  0  0  0  0
  1 28  1  6  0  0  0
  1 10  1  0  0  0  0
  2 23  1  1  0  0  0
  2 26  1  0  0  0  0
  2 12  1  0  0  0  0
  3  4  1  0  0  0  0
  5  6  2  0  0  0  0
  5 26  1  0  0  0  0
  6 27  1  0  0  0  0
  7 23  2  0  0  0  0
  7 17  1  0  0  0  0
  9 25  2  0  0  0  0
 10 17  1  0  0  0  0
 11  3  1  0  0  0  0
 12  8  1  6  0  0  0
 12 13  1  0  0  0  0
 13 21  1  0  0  0  0
 13 11  1  1  0  0  0
 14 22  1  0  0  0  0
 14 21  1  0  0  0  0
 15  9  1  0  0  0  0
 16  1  1  0  0  0  0
 16 19  1  0  0  0  0
 17  8  2  0  0  0  0
 18 15  2  0  0  0  0
 18  6  1  0  0  0  0
 19  7  1  0  0  0  0
 20  4  1  0  0  0  0
 21 20  1  6  0  0  0
 24  5  1  0  0  0  0
 26 14  2  0  0  0  0
 27 25  1  0  0  0  0
 27 22  2  0  0  0  0
 29 28  1  0  0  0  0
 30 29  1  0  0  0  0
 31 32  1  0  0  0  0
 31 30  1  0  0  0  0
 32 30  1  0  0  0  0
M  END
>  <MODEL>
4

>  <REMARK>
 VINA RESULT:      -7.5      3.381      5.339
  Name = 
  3 active torsions:
  status: ('A' for Active; 'I' for Inactive)
    1  A    between atoms: C_1  and  N_10
    2  A    between atoms: C_2  and  C_24
    3  A    between atoms: N_10  and  C_24
                            x       y       z     vdW  Elec       q    Type
                         _______ _______ _______ _____ _____    ______ ____

>  <TORSDO>
F 3

$$$$
=
 OpenBabel11052421383D

 32 38  0  0  1  0  0  0  0  0999 V2000
  196.0730  172.8760  144.3250 C   0  0  1  0  0  3  0  0  0  0  0  0
  191.6320  175.3690  143.7190 C   0  0  1  0  0  3  0  0  0  0  0  0
  189.7970  173.0320  139.7790 C   0  0  0  0  0  2  0  0  0  0  0  0
  188.6510  174.0240  139.7620 C   0  0  0  0  0  2  0  0  0  0  0  0
  190.0860  176.3910  145.2790 C   0  0  0  0  0  0  0  0  0  0  0  0
  188.7760  176.7730  145.5820 C   0  0  0  0  0  0  0  0  0  0  0  0
  193.8500  174.8530  144.4480 C   0  0  0  0  0  0  0  0  0  0  0  0
  193.0620  173.9120  142.3680 N   0  0  0  0  0  0  0  0  0  0  0  0
  186.1700  177.5300  146.1660 C   0  0  0  0  0  3  0  0  0  0  0  0
  195.1390  172.9750  143.1260 C   0  0  0  0  0  2  0  0  0  0  0  0
  191.0330  173.7290  140.3250 C   0  0  0  0  0  2  0  0  0  0  0  0
  191.9580  174.8760  142.3350 C   0  0  1  0  0  3  0  0  0  0  0  0
  190.7920  174.3260  141.6420 N   0  0  1  0  0  0  0  0  0  0  0  0
  189.2910  175.4810  143.1600 C   0  0  0  0  0  0  0  0  0  0  0  0
  187.1770  177.7840  147.0450 N   0  0  0  0  0  0  0  0  0  0  0  0
  196.5600  174.5340  144.9130 S   0  0  0  0  0  0  0  0  0  0  0  0
  193.9760  173.9140  143.2930 C   0  0  0  0  0  0  0  0  0  0  0  0
  188.4620  177.4220  146.7810 C   0  0  0  0  0  3  0  0  0  0  0  0
  194.8940  174.9530  145.5150 C   0  0  0  0  0  2  0  0  0  0  0  0
  188.2750  174.3830  141.1910 C   0  0  0  0  0  2  0  0  0  0  0  0
  189.4750  174.7970  142.0090 C   0  0  2  0  0  3  0  0  0  0  0  0
  188.0290  175.8700  143.5010 N   0  0  0  0  0  0  0  0  0  0  0  0
  192.7260  175.4770  144.6420 N   0  0  0  0  0  0  0  0  0  0  0  0
  191.0660  176.6750  146.1800 F   0  0  0  0  0  0  0  0  0  0  0  0
  186.4380  176.8850  144.9570 C   0  0  0  0  0  3  0  0  0  0  0  0
  190.3740  175.7510  144.0460 C   0  0  0  0  0  0  0  0  0  0  0  0
  187.7490  176.5050  144.6640 C   0  0  0  0  0  0  0  0  0  0  0  0
  195.4770  172.0080  145.4260 C   0  0  0  0  0  2  0  0  0  0  0  0
  196.5360  171.3340  146.1560 N   0  0  0  0  0  2  0  0  0  0  0  0
  196.3000  169.9080  146.0170 C   0  0  0  0  0  3  0  0  0  0  0  0
  196.7140  169.2090  147.2970 C   0  0  0  0  0  2  0  0  0  0  0  0
  197.6240  169.1760  146.0890 C   0  0  0  0  0  2  0  0  0  0  0  0
  1 16  1  0  0  0  0
  1 28  1  1  0  0  0
  2 26  1  6  0  0  0
  2 23  1  0  0  0  0
  3 11  1  0  0  0  0
  4  3  1  0  0  0  0
  4 20  1  0  0  0  0
  5  6  1  0  0  0  0
  5 24  1  0  0  0  0
  6 18  1  0  0  0  0
  7 23  2  0  0  0  0
  7 19  1  0  0  0  0
  8 17  2  0  0  0  0
  9 15  1  0  0  0  0
 10 17  1  0  0  0  0
 10  1  1  0  0  0  0
 12  8  1  1  0  0  0
 12  2  1  0  0  0  0
 13 11  1  6  0  0  0
 13 21  1  0  0  0  0
 13 12  1  0  0  0  0
 14 22  2  0  0  0  0
 14 26  1  0  0  0  0
 16 19  1  0  0  0  0
 17  7  1  0  0  0  0
 18 15  2  0  0  0  0
 21 20  1  1  0  0  0
 21 14  1  0  0  0  0
 22 27  1  0  0  0  0
 25  9  2  0  0  0  0
 26  5  2  0  0  0  0
 27 25  1  0  0  0  0
 27  6  2  0  0  0  0
 28 29  1  0  0  0  0
 30 32  1  0  0  0  0
 30 29  1  0  0  0  0
 30 31  1  0  0  0  0
 32 31  1  0  0  0  0
M  END
>  <MODEL>
5

>  <REMARK>
 VINA RESULT:      -7.1      3.356      5.863
  Name = 
  3 active torsions:
  status: ('A' for Active; 'I' for Inactive)
    1  A    between atoms: C_1  and  N_10
    2  A    between atoms: C_2  and  C_24
    3  A    between atoms: N_10  and  C_24
                            x       y       z     vdW  Elec       q    Type
                         _______ _______ _______ _____ _____    ______ ____

>  <TORSDO>
F 3

$$$$
=
 OpenBabel11052421383D

 32 38  0  0  1  0  0  0  0  0999 V2000
  186.9530  177.9060  144.1330 C   0  0  1  0  0  3  0  0  0  0  0  0
  190.1950  174.5410  142.0160 C   0  0  1  0  0  3  0  0  0  0  0  0
  193.3850  173.8840  145.7240 C   0  0  0  0  0  2  0  0  0  0  0  0
  194.2330  173.0290  144.8030 C   0  0  0  0  0  2  0  0  0  0  0  0
  189.9000  172.7490  140.4140 C   0  0  0  0  0  0  0  0  0  0  0  0
  190.3250  171.5140  139.9160 C   0  0  0  0  0  0  0  0  0  0  0  0
  188.4860  176.2000  142.2340 C   0  0  0  0  0  0  0  0  0  0  0  0
  190.2030  176.0720  143.9270 N   0  0  0  0  0  0  0  0  0  0  0  0
  191.1850  169.0640  138.9330 C   0  0  0  0  0  3  0  0  0  0  0  0
  188.3750  177.5140  144.5150 C   0  0  0  0  0  2  0  0  0  0  0  0
  192.6760  174.9390  144.8900 C   0  0  0  0  0  2  0  0  0  0  0  0
  191.0370  175.2560  143.0400 C   0  0  1  0  0  3  0  0  0  0  0  0
  191.8930  174.3460  143.8010 N   0  0  1  0  0  0  0  0  0  0  0  0
  191.6640  172.6340  142.0960 C   0  0  0  0  0  0  0  0  0  0  0  0
  190.1290  169.7060  138.3630 N   0  0  0  0  0  0  0  0  0  0  0  0
  186.8680  178.4410  142.3900 S   0  0  0  0  0  0  0  0  0  0  0  0
  189.0560  176.5660  143.5660 C   0  0  0  0  0  0  0  0  0  0  0  0
  189.6900  170.9070  138.8260 C   0  0  0  0  0  3  0  0  0  0  0  0
  187.2030  176.7780  141.7270 C   0  0  0  0  0  2  0  0  0  0  0  0
  193.3250  172.2280  143.8830 C   0  0  0  0  0  2  0  0  0  0  0  0
  192.3000  173.0980  143.1940 C   0  0  2  0  0  3  0  0  0  0  0  0
  192.0400  171.4300  141.5760 N   0  0  0  0  0  0  0  0  0  0  0  0
  189.0140  175.2200  141.5630 N   0  0  0  0  0  0  0  0  0  0  0  0
  188.8490  173.3630  139.8070 F   0  0  0  0  0  0  0  0  0  0  0  0
  191.8480  169.6330  140.0220 C   0  0  0  0  0  3  0  0  0  0  0  0
  190.5780  173.3460  141.5090 C   0  0  0  0  0  0  0  0  0  0  0  0
  191.4160  170.8650  140.5150 C   0  0  0  0  0  0  0  0  0  0  0  0
  185.9610  176.7980  144.4630 C   0  0  0  0  0  2  0  0  0  0  0  0
  185.5390  176.9040  145.8480 N   0  0  0  0  0  2  0  0  0  0  0  0
  185.4520  178.3210  146.1520 C   0  0  0  0  0  3  0  0  0  0  0  0
  185.9210  178.5540  147.5740 C   0  0  0  0  0  2  0  0  0  0  0  0
  184.4410  178.5290  147.2620 C   0  0  0  0  0  2  0  0  0  0  0  0
  1 28  1  6  0  0  0
  1 10  1  0  0  0  0
  2 26  1  6  0  0  0
  2 12  1  0  0  0  0
  4  3  1  0  0  0  0
  5 26  1  0  0  0  0
  6  5  2  0  0  0  0
  6 27  1  0  0  0  0
  7 17  1  0  0  0  0
  9 25  2  0  0  0  0
 11  3  1  0  0  0  0
 12 13  1  0  0  0  0
 12  8  1  1  0  0  0
 13 11  1  6  0  0  0
 14 21  1  0  0  0  0
 15 18  2  0  0  0  0
 15  9  1  0  0  0  0
 16  1  1  0  0  0  0
 17  8  2  0  0  0  0
 17 10  1  0  0  0  0
 18  6  1  0  0  0  0
 19  7  1  0  0  0  0
 19 16  1  0  0  0  0
 20  4  1  0  0  0  0
 21 13  1  0  0  0  0
 21 20  1  1  0  0  0
 22 14  1  0  0  0  0
 23  2  1  0  0  0  0
 23  7  2  0  0  0  0
 24  5  1  0  0  0  0
 25 27  1  0  0  0  0
 26 14  2  0  0  0  0
 27 22  2  0  0  0  0
 28 29  1  0  0  0  0
 29 30  1  0  0  0  0
 30 32  1  0  0  0  0
 30 31  1  0  0  0  0
 32 31  1  0  0  0  0
M  END
>  <MODEL>
6

>  <REMARK>
 VINA RESULT:      -7.0      3.939      7.813
  Name = 
  3 active torsions:
  status: ('A' for Active; 'I' for Inactive)
    1  A    between atoms: C_1  and  N_10
    2  A    between atoms: C_2  and  C_24
    3  A    between atoms: N_10  and  C_24
                            x       y       z     vdW  Elec       q    Type
                         _______ _______ _______ _____ _____    ______ ____

>  <TORSDO>
F 3

$$$$
=
 OpenBabel11052421383D

 32 38  0  0  1  0  0  0  0  0999 V2000
  186.9150  176.8690  144.7600 C   0  0  1  0  0  3  0  0  0  0  0  0
  191.4350  175.0820  143.1190 C   0  0  1  0  0  3  0  0  0  0  0  0
  190.1370  173.1740  138.7560 C   0  0  0  0  0  2  0  0  0  0  0  0
  191.5460  172.6330  138.6080 C   0  0  0  0  0  2  0  0  0  0  0  0
  193.7160  175.8400  143.4170 C   0  0  0  0  0  0  0  0  0  0  0  0
  195.0220  175.9090  142.9250 C   0  0  0  0  0  0  0  0  0  0  0  0
  189.7310  175.9190  144.5730 C   0  0  0  0  0  0  0  0  0  0  0  0
  189.0730  174.7440  142.5700 N   0  0  0  0  0  0  0  0  0  0  0  0
  197.6140  176.0340  141.9370 C   0  0  0  0  0  3  0  0  0  0  0  0
  187.2520  175.8440  143.6850 C   0  0  0  0  0  2  0  0  0  0  0  0
  189.7830  173.2050  140.2340 C   0  0  0  0  0  2  0  0  0  0  0  0
  190.4280  174.2040  142.4240 C   0  0  1  0  0  3  0  0  0  0  0  0
  190.7590  173.9680  141.0190 N   0  0  1  0  0  0  0  0  0  0  0  0
  193.0660  174.6150  141.4090 C   0  0  0  0  0  0  0  0  0  0  0  0
  197.3030  176.5940  143.1380 N   0  0  0  0  0  0  0  0  0  0  0  0
  187.6730  176.4160  146.3570 S   0  0  0  0  0  0  0  0  0  0  0  0
  188.7090  175.4860  143.5740 C   0  0  0  0  0  0  0  0  0  0  0  0
  196.0410  176.5460  143.6420 C   0  0  0  0  0  3  0  0  0  0  0  0
  189.3740  176.7200  145.7850 C   0  0  0  0  0  2  0  0  0  0  0  0
  192.5310  173.6240  139.2070 C   0  0  0  0  0  2  0  0  0  0  0  0
  192.1440  174.0400  140.6060 C   0  0  2  0  0  3  0  0  0  0  0  0
  194.3530  174.7110  140.9700 N   0  0  0  0  0  0  0  0  0  0  0  0
  190.9930  175.7590  144.3060 N   0  0  0  0  0  0  0  0  0  0  0  0
  193.4500  176.4020  144.6270 F   0  0  0  0  0  0  0  0  0  0  0  0
  196.6290  175.3880  141.1880 C   0  0  0  0  0  3  0  0  0  0  0  0
  192.7100  175.1700  142.6730 C   0  0  0  0  0  0  0  0  0  0  0  0
  195.3260  175.3250  141.6850 C   0  0  0  0  0  0  0  0  0  0  0  0
  187.2710  178.2820  144.3140 C   0  0  0  0  0  2  0  0  0  0  0  0
  186.1120  179.1490  144.4340 N   0  0  0  0  0  2  0  0  0  0  0  0
  184.9610  178.2850  144.6210 C   0  0  0  0  0  3  0  0  0  0  0  0
  183.7040  179.0410  144.2350 C   0  0  0  0  0  2  0  0  0  0  0  0
  184.0680  178.8730  145.6950 C   0  0  0  0  0  2  0  0  0  0  0  0
  1 28  1  6  0  0  0
  1 16  1  0  0  0  0
  2 26  1  1  0  0  0
  2 23  1  0  0  0  0
  3 11  1  0  0  0  0
  4  3  1  0  0  0  0
  4 20  1  0  0  0  0
  5 24  1  0  0  0  0
  6  5  1  0  0  0  0
  6 18  1  0  0  0  0
  7 19  1  0  0  0  0
  8 17  2  0  0  0  0
  9 15  1  0  0  0  0
 10  1  1  0  0  0  0
 12  8  1  6  0  0  0
 12  2  1  0  0  0  0
 13 11  1  1  0  0  0
 13 12  1  0  0  0  0
 14 26  1  0  0  0  0
 15 18  2  0  0  0  0
 17 10  1  0  0  0  0
 17  7  1  0  0  0  0
 19 16  1  0  0  0  0
 21 20  1  6  0  0  0
 21 13  1  0  0  0  0
 21 14  1  0  0  0  0
 22 14  2  0  0  0  0
 22 27  1  0  0  0  0
 23  7  2  0  0  0  0
 25 27  1  0  0  0  0
 25  9  2  0  0  0  0
 26  5  2  0  0  0  0
 27  6  2  0  0  0  0
 28 29  1  0  0  0  0
 29 30  1  0  0  0  0
 30 32  1  0  0  0  0
 31 30  1  0  0  0  0
 31 32  1  0  0  0  0
M  END
>  <MODEL>
7

>  <REMARK>
 VINA RESULT:      -6.8      3.038      8.606
  Name = 
  3 active torsions:
  status: ('A' for Active; 'I' for Inactive)
    1  A    between atoms: C_1  and  N_10
    2  A    between atoms: C_2  and  C_24
    3  A    between atoms: N_10  and  C_24
                            x       y       z     vdW  Elec       q    Type
                         _______ _______ _______ _____ _____    ______ ____

>  <TORSDO>
F 3

$$$$
=
 OpenBabel11052421383D

 32 38  0  0  1  0  0  0  0  0999 V2000
  189.1480  176.5280  143.1540 C   0  0  1  0  0  3  0  0  0  0  0  0
  193.2560  173.4790  143.5370 C   0  0  1  0  0  3  0  0  0  0  0  0
  196.8950  176.7910  143.1430 C   0  0  0  0  0  2  0  0  0  0  0  0
  197.8930  175.6490  143.1380 C   0  0  0  0  0  2  0  0  0  0  0  0
  193.6850  171.4320  144.7570 C   0  0  0  0  0  0  0  0  0  0  0  0
  194.6060  170.5910  145.3880 C   0  0  0  0  0  0  0  0  0  0  0  0
  190.9970  174.1930  143.2180 C   0  0  0  0  0  0  0  0  0  0  0  0
  192.7830  175.7510  142.7560 N   0  0  0  0  0  0  0  0  0  0  0  0
  196.4480  168.9290  146.6340 C   0  0  0  0  0  3  0  0  0  0  0  0
  190.6020  176.7580  142.7630 C   0  0  0  0  0  2  0  0  0  0  0  0
  195.6030  176.3080  142.5030 C   0  0  0  0  0  2  0  0  0  0  0  0
  193.7540  174.6530  142.7350 C   0  0  1  0  0  3  0  0  0  0  0  0
  195.0790  175.1060  143.1600 N   0  0  1  0  0  0  0  0  0  0  0  0
  195.5010  172.9820  144.2560 C   0  0  0  0  0  0  0  0  0  0  0  0
  195.1330  168.5840  146.5780 N   0  0  0  0  0  0  0  0  0  0  0  0
  188.4930  175.0150  142.3710 S   0  0  0  0  0  0  0  0  0  0  0  0
  191.5060  175.5650  142.9180 C   0  0  0  0  0  0  0  0  0  0  0  0
  194.2120  169.3820  145.9730 C   0  0  0  0  0  3  0  0  0  0  0  0
  189.5370  173.8940  143.3550 C   0  0  0  0  0  2  0  0  0  0  0  0
  197.4040  174.5500  144.0680 C   0  0  0  0  0  2  0  0  0  0  0  0
  195.9730  174.1570  143.7870 C   0  0  2  0  0  3  0  0  0  0  0  0
  196.3610  172.1300  144.8850 N   0  0  0  0  0  0  0  0  0  0  0  0
  191.8380  173.2600  143.5490 N   0  0  0  0  0  0  0  0  0  0  0  0
  192.3820  171.0440  144.7130 F   0  0  0  0  0  0  0  0  0  0  0  0
  196.8860  170.1260  146.0640 C   0  0  0  0  0  3  0  0  0  0  0  0
  194.1200  172.6420  144.1580 C   0  0  0  0  0  0  0  0  0  0  0  0
  195.9590  170.9600  145.4370 C   0  0  0  0  0  0  0  0  0  0  0  0
  188.9700  176.5370  144.6670 C   0  0  0  0  0  2  0  0  0  0  0  0
  187.5710  176.7420  145.0010 N   0  0  0  0  0  2  0  0  0  0  0  0
  187.4410  176.5010  146.4260 C   0  0  0  0  0  3  0  0  0  0  0  0
  186.0150  176.7910  146.8510 C   0  0  0  0  0  2  0  0  0  0  0  0
  187.1060  177.8050  147.1220 C   0  0  0  0  0  2  0  0  0  0  0  0
  1 28  1  1  0  0  0
  2 23  1  6  0  0  0
  2 26  1  0  0  0  0
  4  3  1  0  0  0  0
  4 20  1  0  0  0  0
  5  6  1  0  0  0  0
  6 27  2  0  0  0  0
  6 18  1  0  0  0  0
  7 19  1  0  0  0  0
  7 23  2  0  0  0  0
  8 17  2  0  0  0  0
 10 17  1  0  0  0  0
 10  1  1  0  0  0  0
 11  3  1  0  0  0  0
 12  8  1  1  0  0  0
 12 13  1  0  0  0  0
 12  2  1  0  0  0  0
 13 11  1  6  0  0  0
 13 21  1  0  0  0  0
 14 22  2  0  0  0  0
 15  9  1  0  0  0  0
 16  1  1  0  0  0  0
 16 19  1  0  0  0  0
 17  7  1  0  0  0  0
 18 15  2  0  0  0  0
 21 20  1  1  0  0  0
 21 14  1  0  0  0  0
 22 27  1  0  0  0  0
 24  5  1  0  0  0  0
 25  9  2  0  0  0  0
 26 14  1  0  0  0  0
 26  5  2  0  0  0  0
 27 25  1  0  0  0  0
 28 29  1  0  0  0  0
 29 30  1  0  0  0  0
 30 31  1  0  0  0  0
 30 32  1  0  0  0  0
 31 32  1  0  0  0  0
M  END
>  <MODEL>
8

>  <REMARK>
 VINA RESULT:      -6.8      3.681      9.498
  Name = 
  3 active torsions:
  status: ('A' for Active; 'I' for Inactive)
    1  A    between atoms: C_1  and  N_10
    2  A    between atoms: C_2  and  C_24
    3  A    between atoms: N_10  and  C_24
                            x       y       z     vdW  Elec       q    Type
                         _______ _______ _______ _____ _____    ______ ____

>  <TORSDO>
F 3

$$$$
=
 OpenBabel11052421383D

 32 38  0  0  1  0  0  0  0  0999 V2000
  196.7160  174.0060  145.6830 C   0  0  1  0  0  3  0  0  0  0  0  0
  192.1020  173.6610  143.4670 C   0  0  1  0  0  3  0  0  0  0  0  0
  190.0660  177.9160  144.9210 C   0  0  0  0  0  2  0  0  0  0  0  0
  188.7630  177.4750  144.2830 C   0  0  0  0  0  2  0  0  0  0  0  0
  191.3350  172.6600  141.3990 C   0  0  0  0  0  0  0  0  0  0  0  0
  190.4110  172.6510  140.3500 C   0  0  0  0  0  0  0  0  0  0  0  0
  194.2410  173.0400  144.3370 C   0  0  0  0  0  0  0  0  0  0  0  0
  193.1320  174.9780  145.2560 N   0  0  0  0  0  0  0  0  0  0  0  0
  188.5660  172.6440  138.2750 C   0  0  0  0  0  3  0  0  0  0  0  0
  195.4150  174.7460  145.9650 C   0  0  0  0  0  2  0  0  0  0  0  0
  190.8090  176.6820  145.4090 C   0  0  0  0  0  2  0  0  0  0  0  0
  191.8630  174.5540  144.6560 C   0  0  1  0  0  3  0  0  0  0  0  0
  191.0150  175.7020  144.3380 N   0  0  1  0  0  0  0  0  0  0  0  0
  190.1840  174.5920  142.3460 C   0  0  0  0  0  0  0  0  0  0  0  0
  189.5640  171.7190  138.3180 N   0  0  0  0  0  0  0  0  0  0  0  0
  196.4680  172.1990  145.7500 S   0  0  0  0  0  0  0  0  0  0  0  0
  194.2240  174.2770  145.1750 C   0  0  0  0  0  0  0  0  0  0  0  0
  190.4790  171.7030  139.3240 C   0  0  0  0  0  3  0  0  0  0  0  0
  195.4410  172.1510  144.2470 C   0  0  0  0  0  2  0  0  0  0  0  0
  189.0630  176.6930  143.0140 C   0  0  0  0  0  2  0  0  0  0  0  0
  190.0720  175.5930  143.2460 C   0  0  2  0  0  3  0  0  0  0  0  0
  189.3090  174.5450  141.3000 N   0  0  0  0  0  0  0  0  0  0  0  0
  193.2580  172.8110  143.5180 N   0  0  0  0  0  0  0  0  0  0  0  0
  192.3080  171.7100  141.4100 F   0  0  0  0  0  0  0  0  0  0  0  0
  188.4610  173.6100  139.2790 C   0  0  0  0  0  3  0  0  0  0  0  0
  191.2270  173.6250  142.4340 C   0  0  0  0  0  0  0  0  0  0  0  0
  189.3880  173.6120  140.3220 C   0  0  0  0  0  0  0  0  0  0  0  0
  197.3480  174.4690  144.3770 C   0  0  0  0  0  2  0  0  0  0  0  0
  196.6670  175.6550  143.8880 N   0  0  0  0  0  2  0  0  0  0  0  0
  196.4250  175.4460  142.4720 C   0  0  0  0  0  3  0  0  0  0  0  0
  196.3350  176.7910  141.7790 C   0  0  0  0  0  2  0  0  0  0  0  0
  195.0730  176.0240  142.1090 C   0  0  0  0  0  2  0  0  0  0  0  0
  1 28  1  6  0  0  0
  1 16  1  0  0  0  0
  1 10  1  0  0  0  0
  2 26  1  1  0  0  0
  2 23  1  0  0  0  0
  2 12  1  0  0  0  0
  3 11  1  0  0  0  0
  4  3  1  0  0  0  0
  5 24  1  0  0  0  0
  5 26  1  0  0  0  0
  6  5  2  0  0  0  0
  7 17  1  0  0  0  0
  9 15  1  0  0  0  0
  9 25  2  0  0  0  0
 12  8  1  6  0  0  0
 13 12  1  0  0  0  0
 13 11  1  1  0  0  0
 14 26  2  0  0  0  0
 14 21  1  0  0  0  0
 15 18  2  0  0  0  0
 17  8  2  0  0  0  0
 17 10  1  0  0  0  0
 18  6  1  0  0  0  0
 19  7  1  0  0  0  0
 19 16  1  0  0  0  0
 20  4  1  0  0  0  0
 21 20  1  6  0  0  0
 21 13  1  0  0  0  0
 22 14  1  0  0  0  0
 23  7  2  0  0  0  0
 25 27  1  0  0  0  0
 27  6  1  0  0  0  0
 27 22  2  0  0  0  0
 29 28  1  0  0  0  0
 30 29  1  0  0  0  0
 31 32  1  0  0  0  0
 31 30  1  0  0  0  0
 32 30  1  0  0  0  0
M  END
>  <MODEL>
9

>  <REMARK>
 VINA RESULT:      -6.8      3.185      4.615
  Name = 
  3 active torsions:
  status: ('A' for Active; 'I' for Inactive)
    1  A    between atoms: C_1  and  N_10
    2  A    between atoms: C_2  and  C_24
    3  A    between atoms: N_10  and  C_24
                            x       y       z     vdW  Elec       q    Type
                         _______ _______ _______ _____ _____    ______ ____

>  <TORSDO>
F 3

$$$$
