=
 OpenBabel11052420063D

 37 44  0  0  1  0  0  0  0  0999 V2000
  190.0750  171.7790  141.5750 C   0  0  1  0  0  3  0  0  0  0  0  0
  194.5330  172.9300  145.6110 C   0  0  0  0  0  2  0  0  0  0  0  0
  191.6540  175.8000  143.4510 C   0  0  2  0  0  3  0  0  0  0  0  0
  190.1800  171.4150  140.0850 C   0  0  1  0  0  3  0  0  0  0  0  0
  188.0680  174.9110  142.4700 C   0  0  0  0  0  2  0  0  0  0  0  0
  194.0140  174.9950  144.2180 C   0  0  1  0  0  3  0  0  0  0  0  0
  190.3210  175.0900  143.5680 C   0  0  1  0  0  3  0  0  0  0  0  0
  190.8160  169.4350  141.4190 C   0  0  0  0  0  1  0  0  0  0  0  0
  192.6900  174.6650  143.4960 C   0  0  1  0  0  3  0  0  0  0  0  0
  189.1560  175.8720  142.9520 C   0  0  2  0  0  3  0  0  0  0  0  0
  193.8640  175.9090  145.4270 C   0  0  0  0  0  2  0  0  0  0  0  0
  190.8420  172.3950  139.3070 O   0  0  0  0  0  0  0  0  0  0  0  0
  191.9230  173.4160  143.9210 C   0  0  2  0  0  3  0  0  0  0  0  0
  192.7310  171.4820  144.6380 C   0  0  0  0  0  2  0  0  0  0  0  0
  190.9010  178.0250  144.2350 C   0  0  0  0  0  2  0  0  0  0  0  0
  191.1790  170.8660  141.0870 C   0  0  2  0  0  3  0  0  0  0  0  0
  193.1260  177.1660  144.9990 C   0  0  0  0  0  2  0  0  0  0  0  0
  192.5650  172.2530  143.4830 O   0  0  0  0  0  0  0  0  0  0  0  0
  190.1320  173.6200  139.3500 C   0  0  2  0  0  3  0  0  0  0  0  0
  188.3690  174.3410  141.0870 C   0  0  0  0  0  2  0  0  0  0  0  0
  191.7040  176.7890  144.6170 C   0  0  2  0  0  3  0  0  0  0  0  0
  190.5410  173.6000  143.2920 C   0  0  2  0  0  3  0  0  0  0  0  0
  194.9590  173.8140  144.4450 C   0  0  0  0  0  2  0  0  0  0  0  0
  188.6340  176.8910  143.9580 C   0  0  0  0  0  0  0  0  0  0  0  0
  194.1760  171.5380  145.1140 C   0  0  0  0  0  2  0  0  0  0  0  0
  189.8660  174.1430  140.7900 C   0  0  1  0  0  3  0  0  0  0  0  0
  190.5650  173.2070  141.7930 C   0  0  2  0  0  3  0  0  0  0  0  0
  189.4340  177.8320  144.5110 C   0  0  0  0  0  3  0  0  0  0  0  0
  186.3710  177.9840  143.7620 C   0  0  0  0  0  2  0  0  0  0  0  0
  187.1880  176.8520  144.3850 C   0  0  2  0  0  3  0  0  0  0  0  0
  187.0520  176.8000  145.8860 C   0  0  0  0  0  3  0  0  0  0  0  0
  185.9410  177.2340  148.0120 C   0  0  0  0  0  1  0  0  0  0  0  0
  184.9460  178.1370  145.8100 C   0  0  0  0  0  2  0  0  0  0  0  0
  185.9930  177.3180  146.5270 C   0  0  0  0  0  0  0  0  0  0  0  0
  184.9480  177.9160  144.2970 C   0  0  0  0  0  2  0  0  0  0  0  0
  188.9600  173.6320  138.3680 C   0  0  0  0  0  2  0  0  0  0  0  0
  189.4680  173.7920  136.9480 C   0  0  0  0  0  1  0  0  0  0  0  0
  1 27  1  0  0  0  0
  3  9  1  0  0  0  0
  3  7  1  0  0  0  0
  3 21  1  0  0  0  0
  4 16  1  0  0  0  0
  4  1  1  0  0  0  0
  5 10  1  0  0  0  0
  6 23  1  0  0  0  0
  6 11  1  0  0  0  0
  9 13  1  0  0  0  0
  9  6  1  0  0  0  0
 10  7  1  0  0  0  0
 10 24  1  0  0  0  0
 12 19  1  0  0  0  0
 12  4  1  0  0  0  0
 14 25  1  0  0  0  0
 15 28  1  0  0  0  0
 15 21  1  0  0  0  0
 16  8  1  0  0  0  0
 16  1  1  0  0  0  0
 17 11  1  0  0  0  0
 18 13  1  0  0  0  0
 18 14  1  0  0  0  0
 19 26  1  0  0  0  0
 20  5  1  0  0  0  0
 21 17  1  0  0  0  0
 22  7  1  0  0  0  0
 22 13  1  0  0  0  0
 23  2  1  0  0  0  0
 24 30  1  0  0  0  0
 24 28  2  0  0  0  0
 25  2  1  0  0  0  0
 26 20  1  0  0  0  0
 26 27  1  0  0  0  0
 27 22  1  0  0  0  0
 29 35  1  0  0  0  0
 29 30  1  0  0  0  0
 30 31  1  0  0  0  0
 31 34  2  0  0  0  0
 33 34  1  0  0  0  0
 34 32  1  0  0  0  0
 35 33  1  0  0  0  0
 36 19  1  0  0  0  0
 37 36  1  0  0  0  0
M  END
>  <MODEL>
1

>  <REMARK>
 VINA RESULT:      -9.3      0.000      0.000
  Name = 
  2 active torsions:
  status: ('A' for Active; 'I' for Inactive)
    1  A    between atoms: C_6  and  C_31
    2  A    between atoms: C_11  and  C_26
                            x       y       z     vdW  Elec       q    Type
                         _______ _______ _______ _____ _____    ______ ____

>  <TORSDO>
F 2

$$$$
=
 OpenBabel11052420063D

 37 44  0  0  1  0  0  0  0  0999 V2000
  190.2980  173.7940  140.9220 C   0  0  1  0  0  3  0  0  0  0  0  0
  186.5260  178.0990  143.0970 C   0  0  0  0  0  2  0  0  0  0  0  0
  189.6250  175.4780  145.2690 C   0  0  2  0  0  3  0  0  0  0  0  0
  189.9840  172.3520  140.4910 C   0  0  1  0  0  3  0  0  0  0  0  0
  192.8910  174.2620  143.6960 C   0  0  0  0  0  2  0  0  0  0  0  0
  187.2510  176.5080  144.9460 C   0  0  1  0  0  3  0  0  0  0  0  0
  190.8220  175.5340  144.3420 C   0  0  1  0  0  3  0  0  0  0  0  0
  189.1530  173.8870  138.7420 C   0  0  0  0  0  1  0  0  0  0  0  0
  188.4200  175.7020  144.3410 C   0  0  1  0  0  3  0  0  0  0  0  0
  192.0370  174.7600  144.8630 C   0  0  2  0  0  3  0  0  0  0  0  0
  187.6740  177.6240  145.8910 C   0  0  0  0  0  2  0  0  0  0  0  0
  189.4260  171.5590  141.5230 O   0  0  0  0  0  0  0  0  0  0  0  0
  188.9990  176.1550  143.0040 C   0  0  2  0  0  3  0  0  0  0  0  0
  187.9480  177.0890  141.2940 C   0  0  0  0  0  2  0  0  0  0  0  0
  190.8230  176.0170  147.3680 C   0  0  0  0  0  2  0  0  0  0  0  0
  189.0110  173.4760  140.1910 C   0  0  2  0  0  3  0  0  0  0  0  0
  188.5710  177.0360  146.9680 C   0  0  0  0  0  2  0  0  0  0  0  0
  188.1270  175.8680  141.9490 O   0  0  0  0  0  0  0  0  0  0  0  0
  190.3360  171.4440  142.6020 C   0  0  2  0  0  3  0  0  0  0  0  0
  192.3610  172.9590  143.1040 C   0  0  0  0  0  2  0  0  0  0  0  0
  189.8610  176.5630  146.3210 C   0  0  2  0  0  3  0  0  0  0  0  0
  190.3240  175.3960  142.9000 C   0  0  2  0  0  3  0  0  0  0  0  0
  186.1450  176.9090  143.9680 C   0  0  0  0  0  2  0  0  0  0  0  0
  192.8230  175.6330  145.8340 C   0  0  0  0  0  0  0  0  0  0  0  0
  186.5880  177.6830  141.6350 C   0  0  0  0  0  2  0  0  0  0  0  0
  190.8300  172.8100  143.1580 C   0  0  1  0  0  3  0  0  0  0  0  0
  190.0840  173.9400  142.4260 C   0  0  2  0  0  3  0  0  0  0  0  0
  192.2550  176.1780  146.9340 C   0  0  0  0  0  3  0  0  0  0  0  0
  194.5150  176.3790  144.1220 C   0  0  0  0  0  2  0  0  0  0  0  0
  194.2760  175.9340  145.5650 C   0  0  2  0  0  3  0  0  0  0  0  0
  195.1680  174.7880  145.9700 C   0  0  0  0  0  3  0  0  0  0  0  0
  197.1500  173.3780  145.8110 C   0  0  0  0  0  1  0  0  0  0  0  0
  196.7580  175.2760  144.1100 C   0  0  0  0  0  2  0  0  0  0  0  0
  196.3340  174.5360  145.3560 C   0  0  0  0  0  0  0  0  0  0  0  0
  196.0070  176.5940  143.9140 C   0  0  0  0  0  2  0  0  0  0  0  0
  191.3900  170.3660  142.3450 C   0  0  0  0  0  2  0  0  0  0  0  0
  190.7450  169.1410  141.7250 C   0  0  0  0  0  1  0  0  0  0  0  0
  1 27  1  0  0  0  0
  2 23  1  0  0  0  0
  3 21  1  0  0  0  0
  4  1  1  0  0  0  0
  4 12  1  0  0  0  0
  5 10  1  0  0  0  0
  6 11  1  0  0  0  0
  7 10  1  0  0  0  0
  7  3  1  0  0  0  0
  8 16  1  0  0  0  0
  9  6  1  0  0  0  0
  9  3  1  0  0  0  0
 10 24  1  0  0  0  0
 11 17  1  0  0  0  0
 12 19  1  0  0  0  0
 13  9  1  0  0  0  0
 14 25  1  0  0  0  0
 14 18  1  0  0  0  0
 16  4  1  0  0  0  0
 16  1  1  0  0  0  0
 18 13  1  0  0  0  0
 19 26  1  0  0  0  0
 20 26  1  0  0  0  0
 20  5  1  0  0  0  0
 21 17  1  0  0  0  0
 21 15  1  0  0  0  0
 22 13  1  0  0  0  0
 22  7  1  0  0  0  0
 23  6  1  0  0  0  0
 24 28  2  0  0  0  0
 25  2  1  0  0  0  0
 27 22  1  0  0  0  0
 27 26  1  0  0  0  0
 28 15  1  0  0  0  0
 29 30  1  0  0  0  0
 30 24  1  0  0  0  0
 30 31  1  0  0  0  0
 33 34  1  0  0  0  0
 34 32  1  0  0  0  0
 34 31  2  0  0  0  0
 35 33  1  0  0  0  0
 35 29  1  0  0  0  0
 36 19  1  0  0  0  0
 37 36  1  0  0  0  0
M  END
>  <MODEL>
2

>  <REMARK>
 VINA RESULT:      -8.8      1.786      6.498
  Name = 
  2 active torsions:
  status: ('A' for Active; 'I' for Inactive)
    1  A    between atoms: C_6  and  C_31
    2  A    between atoms: C_11  and  C_26
                            x       y       z     vdW  Elec       q    Type
                         _______ _______ _______ _____ _____    ______ ____

>  <TORSDO>
F 2

$$$$
=
 OpenBabel11052420063D

 37 44  0  0  1  0  0  0  0  0999 V2000
  193.8270  176.4690  143.9420 C   0  0  1  0  0  3  0  0  0  0  0  0
  193.6770  172.9520  138.9320 C   0  0  0  0  0  2  0  0  0  0  0  0
  190.4840  173.6630  142.1720 C   0  0  2  0  0  3  0  0  0  0  0  0
  194.5450  176.2290  145.2800 C   0  0  1  0  0  3  0  0  0  0  0  0
  190.0340  176.9580  144.0590 C   0  0  0  0  0  2  0  0  0  0  0  0
  191.9760  172.1590  140.6510 C   0  0  1  0  0  3  0  0  0  0  0  0
  190.5370  175.1640  142.3720 C   0  0  1  0  0  3  0  0  0  0  0  0
  196.2330  176.8700  143.5940 C   0  0  0  0  0  1  0  0  0  0  0  0
  191.8970  173.2990  141.6880 C   0  0  1  0  0  3  0  0  0  0  0  0
  189.5180  175.6810  143.3930 C   0  0  2  0  0  3  0  0  0  0  0  0
  190.8220  172.1270  139.6580 C   0  0  0  0  0  2  0  0  0  0  0  0
  194.1370  175.0430  145.9380 O   0  0  0  0  0  0  0  0  0  0  0  0
  192.5830  174.6230  141.3650 C   0  0  2  0  0  3  0  0  0  0  0  0
  194.4470  174.9640  140.2180 C   0  0  0  0  0  2  0  0  0  0  0  0
  188.0300  173.4610  141.9150 C   0  0  0  0  0  2  0  0  0  0  0  0
  195.1990  175.8310  143.9700 C   0  0  2  0  0  3  0  0  0  0  0  0
  189.5140  172.0970  140.4300 C   0  0  0  0  0  2  0  0  0  0  0  0
  193.9740  174.5090  141.4520 O   0  0  0  0  0  0  0  0  0  0  0  0
  192.7580  175.1030  146.2520 C   0  0  2  0  0  3  0  0  0  0  0  0
  190.9880  176.6650  145.2130 C   0  0  0  0  0  2  0  0  0  0  0  0
  189.3560  173.4150  141.1690 C   0  0  2  0  0  3  0  0  0  0  0  0
  192.0050  175.5980  142.3920 C   0  0  2  0  0  3  0  0  0  0  0  0
  193.3490  171.9330  140.0160 C   0  0  0  0  0  2  0  0  0  0  0  0
  188.1670  175.8790  142.7160 C   0  0  0  0  0  0  0  0  0  0  0  0
  194.8760  173.7920  139.3450 C   0  0  0  0  0  2  0  0  0  0  0  0
  191.8460  175.4000  145.0280 C   0  0  1  0  0  3  0  0  0  0  0  0
  192.7170  175.4380  143.7600 C   0  0  2  0  0  3  0  0  0  0  0  0
  187.5340  174.8750  142.0650 C   0  0  0  0  0  3  0  0  0  0  0  0
  186.8390  177.5330  144.0760 C   0  0  0  0  0  2  0  0  0  0  0  0
  187.5090  177.2350  142.7350 C   0  0  2  0  0  3  0  0  0  0  0  0
  186.5710  177.4160  141.5680 C   0  0  0  0  0  3  0  0  0  0  0  0
  184.6060  178.3190  140.4420 C   0  0  0  0  0  1  0  0  0  0  0  0
  185.0360  178.8330  142.9320 C   0  0  0  0  0  2  0  0  0  0  0  0
  185.4870  178.2040  141.6360 C   0  0  0  0  0  0  0  0  0  0  0  0
  186.1420  178.8830  143.9880 C   0  0  0  0  0  2  0  0  0  0  0  0
  192.5010  175.9010  147.5320 C   0  0  0  0  0  2  0  0  0  0  0  0
  191.3190  175.3190  148.2830 C   0  0  0  0  0  1  0  0  0  0  0  0
  1 16  1  0  0  0  0
  1  4  1  0  0  0  0
  2 25  1  0  0  0  0
  2 23  1  0  0  0  0
  3  7  1  0  0  0  0
  4 12  1  0  0  0  0
  5 20  1  0  0  0  0
  6  9  1  0  0  0  0
  7 22  1  0  0  0  0
  7 10  1  0  0  0  0
  8 16  1  0  0  0  0
  9  3  1  0  0  0  0
 10  5  1  0  0  0  0
 11 17  1  0  0  0  0
 11  6  1  0  0  0  0
 12 19  1  0  0  0  0
 13 18  1  0  0  0  0
 13  9  1  0  0  0  0
 13 22  1  0  0  0  0
 14 18  1  0  0  0  0
 15 28  1  0  0  0  0
 16  4  1  0  0  0  0
 17 21  1  0  0  0  0
 19 36  1  0  0  0  0
 21 15  1  0  0  0  0
 21  3  1  0  0  0  0
 22 27  1  0  0  0  0
 23  6  1  0  0  0  0
 24 30  1  0  0  0  0
 24 10  1  0  0  0  0
 25 14  1  0  0  0  0
 26 20  1  0  0  0  0
 26 19  1  0  0  0  0
 27  1  1  0  0  0  0
 27 26  1  0  0  0  0
 28 24  2  0  0  0  0
 30 29  1  0  0  0  0
 31 34  2  0  0  0  0
 31 30  1  0  0  0  0
 32 34  1  0  0  0  0
 33 35  1  0  0  0  0
 34 33  1  0  0  0  0
 35 29  1  0  0  0  0
 36 37  1  0  0  0  0
M  END
>  <MODEL>
3

>  <REMARK>
 VINA RESULT:      -8.2      2.186      5.723
  Name = 
  2 active torsions:
  status: ('A' for Active; 'I' for Inactive)
    1  A    between atoms: C_6  and  C_31
    2  A    between atoms: C_11  and  C_26
                            x       y       z     vdW  Elec       q    Type
                         _______ _______ _______ _____ _____    ______ ____

>  <TORSDO>
F 2

$$$$
=
 OpenBabel11052420063D

 37 44  0  0  1  0  0  0  0  0999 V2000
  192.7500  176.0410  145.2290 C   0  0  1  0  0  3  0  0  0  0  0  0
  196.3540  171.1070  144.8470 C   0  0  0  0  0  2  0  0  0  0  0  0
  191.9170  171.6490  143.7460 C   0  0  2  0  0  3  0  0  0  0  0  0
  192.0990  176.6780  146.4680 C   0  0  1  0  0  3  0  0  0  0  0  0
  190.4150  174.9050  142.4200 C   0  0  0  0  0  2  0  0  0  0  0  0
  193.9000  170.4360  144.9280 C   0  0  1  0  0  3  0  0  0  0  0  0
  191.9120  172.9770  143.0160 C   0  0  1  0  0  3  0  0  0  0  0  0
  194.5070  177.2320  146.4810 C   0  0  0  0  0  1  0  0  0  0  0  0
  193.1220  171.7480  144.6960 C   0  0  1  0  0  3  0  0  0  0  0  0
  190.5300  173.3820  142.4930 C   0  0  2  0  0  3  0  0  0  0  0  0
  193.9930  169.5320  143.7060 C   0  0  0  0  0  2  0  0  0  0  0  0
  191.2340  175.8030  147.1690 O   0  0  0  0  0  0  0  0  0  0  0  0
  193.8990  172.9860  144.2590 C   0  0  2  0  0  3  0  0  0  0  0  0
  195.9600  173.5840  144.8090 C   0  0  0  0  0  2  0  0  0  0  0  0
  190.6290  170.3580  142.0720 C   0  0  0  0  0  2  0  0  0  0  0  0
  193.5010  176.1040  146.5420 C   0  0  2  0  0  3  0  0  0  0  0  0
  192.5900  169.2710  143.1850 C   0  0  0  0  0  2  0  0  0  0  0  0
  194.6580  173.5080  145.3120 O   0  0  0  0  0  0  0  0  0  0  0  0
  190.1590  175.4030  146.3380 C   0  0  2  0  0  3  0  0  0  0  0  0
  190.0480  175.5250  143.7650 C   0  0  0  0  0  2  0  0  0  0  0  0
  192.0150  170.5760  142.6610 C   0  0  2  0  0  3  0  0  0  0  0  0
  192.8140  173.9510  143.7770 C   0  0  2  0  0  3  0  0  0  0  0  0
  195.2130  170.5700  145.7020 C   0  0  0  0  0  2  0  0  0  0  0  0
  190.2710  172.7090  141.1500 C   0  0  0  0  0  0  0  0  0  0  0  0
  196.8160  172.4570  145.3720 C   0  0  0  0  0  2  0  0  0  0  0  0
  190.6080  174.7760  144.9870 C   0  0  1  0  0  3  0  0  0  0  0  0
  192.1430  174.6640  144.9790 C   0  0  2  0  0  3  0  0  0  0  0  0
  190.3260  171.3660  140.9950 C   0  0  0  0  0  3  0  0  0  0  0  0
  188.5530  173.3210  139.4110 C   0  0  0  0  0  2  0  0  0  0  0  0
  189.9710  173.5500  139.9350 C   0  0  2  0  0  3  0  0  0  0  0  0
  191.0180  173.3740  138.8630 C   0  0  0  0  0  3  0  0  0  0  0  0
  191.8250  173.3080  136.5640 C   0  0  0  0  0  1  0  0  0  0  0  0
  189.3210  173.6800  137.0590 C   0  0  0  0  0  2  0  0  0  0  0  0
  190.7360  173.5090  137.5590 C   0  0  0  0  0  0  0  0  0  0  0  0
  188.3560  174.1490  138.1490 C   0  0  0  0  0  2  0  0  0  0  0  0
  189.0530  176.4580  146.2920 C   0  0  0  0  0  2  0  0  0  0  0  0
  187.7870  175.9160  146.9260 C   0  0  0  0  0  1  0  0  0  0  0  0
  1  4  1  0  0  0  0
  1 16  1  0  0  0  0
  2 25  1  0  0  0  0
  2 23  1  0  0  0  0
  3  9  1  0  0  0  0
  4 16  1  0  0  0  0
  4 12  1  0  0  0  0
  5 10  1  0  0  0  0
  5 20  1  0  0  0  0
  6 23  1  0  0  0  0
  7  3  1  0  0  0  0
  7 22  1  0  0  0  0
  8 16  1  0  0  0  0
  9  6  1  0  0  0  0
 10  7  1  0  0  0  0
 11  6  1  0  0  0  0
 13  9  1  0  0  0  0
 13 18  1  0  0  0  0
 14 18  1  0  0  0  0
 14 25  1  0  0  0  0
 15 21  1  0  0  0  0
 17 11  1  0  0  0  0
 19 12  1  0  0  0  0
 20 26  1  0  0  0  0
 21 17  1  0  0  0  0
 21  3  1  0  0  0  0
 22 13  1  0  0  0  0
 22 27  1  0  0  0  0
 24 10  1  0  0  0  0
 26 19  1  0  0  0  0
 27 26  1  0  0  0  0
 27  1  1  0  0  0  0
 28 24  2  0  0  0  0
 28 15  1  0  0  0  0
 29 30  1  0  0  0  0
 30 24  1  0  0  0  0
 31 30  1  0  0  0  0
 32 34  1  0  0  0  0
 33 34  1  0  0  0  0
 33 35  1  0  0  0  0
 34 31  2  0  0  0  0
 35 29  1  0  0  0  0
 36 19  1  0  0  0  0
 36 37  1  0  0  0  0
M  END
>  <MODEL>
4

>  <REMARK>
 VINA RESULT:      -7.8      2.225      6.757
  Name = 
  2 active torsions:
  status: ('A' for Active; 'I' for Inactive)
    1  A    between atoms: C_6  and  C_31
    2  A    between atoms: C_11  and  C_26
                            x       y       z     vdW  Elec       q    Type
                         _______ _______ _______ _____ _____    ______ ____

>  <TORSDO>
F 2

$$$$
=
 OpenBabel11052420063D

 37 44  0  0  1  0  0  0  0  0999 V2000
  191.2120  170.8160  142.4760 C   0  0  1  0  0  3  0  0  0  0  0  0
  196.1680  169.6640  145.8810 C   0  0  0  0  0  2  0  0  0  0  0  0
  194.3780  173.6670  144.4830 C   0  0  2  0  0  3  0  0  0  0  0  0
  191.0170  170.6660  140.9580 C   0  0  1  0  0  3  0  0  0  0  0  0
  190.6400  174.2900  143.9740 C   0  0  0  0  0  2  0  0  0  0  0  0
  196.3250  171.9610  144.7970 C   0  0  1  0  0  3  0  0  0  0  0  0
  192.8950  173.4770  144.7290 C   0  0  1  0  0  3  0  0  0  0  0  0
  190.9940  168.4130  141.9740 C   0  0  0  0  0  1  0  0  0  0  0  0
  194.9070  172.2420  144.2560 C   0  0  1  0  0  3  0  0  0  0  0  0
  192.0540  174.7090  144.3790 C   0  0  2  0  0  3  0  0  0  0  0  0
  196.6570  172.6750  146.1000 C   0  0  0  0  0  2  0  0  0  0  0  0
  191.9150  171.4460  140.1900 O   0  0  0  0  0  0  0  0  0  0  0  0
  193.7740  171.3050  144.6650 C   0  0  2  0  0  3  0  0  0  0  0  0
  193.8620  169.1260  145.0530 C   0  0  0  0  0  2  0  0  0  0  0  0
  194.6060  175.8700  145.5910 C   0  0  0  0  0  2  0  0  0  0  0  0
  191.8330  169.6500  141.7360 C   0  0  2  0  0  3  0  0  0  0  0  0
  196.4080  174.1630  145.9180 C   0  0  0  0  0  2  0  0  0  0  0  0
  193.8810  170.0680  144.0210 O   0  0  0  0  0  0  0  0  0  0  0  0
  191.7290  172.8230  140.4630 C   0  0  2  0  0  3  0  0  0  0  0  0
  190.5580  173.8630  142.5110 C   0  0  0  0  0  2  0  0  0  0  0  0
  194.9180  174.3860  145.7210 C   0  0  2  0  0  3  0  0  0  0  0  0
  192.5070  172.0680  144.2750 C   0  0  2  0  0  3  0  0  0  0  0  0
  196.7720  170.4980  144.7590 C   0  0  0  0  0  2  0  0  0  0  0  0
  192.0630  175.6860  145.5490 C   0  0  0  0  0  0  0  0  0  0  0  0
  195.2630  168.5850  145.3070 C   0  0  0  0  0  2  0  0  0  0  0  0
  191.8310  173.1850  141.9720 C   0  0  1  0  0  3  0  0  0  0  0  0
  192.2250  171.9220  142.7580 C   0  0  2  0  0  3  0  0  0  0  0  0
  193.2110  176.1800  146.0660 C   0  0  0  0  0  3  0  0  0  0  0  0
  189.9610  174.9140  146.7050 C   0  0  0  0  0  2  0  0  0  0  0  0
  190.7620  176.1070  146.1850 C   0  0  2  0  0  3  0  0  0  0  0  0
  189.9530  176.9900  145.2670 C   0  0  0  0  0  3  0  0  0  0  0  0
  187.8890  177.9160  144.3580 C   0  0  0  0  0  1  0  0  0  0  0  0
  187.8110  176.0640  146.1520 C   0  0  0  0  0  2  0  0  0  0  0  0
  188.6130  177.0250  145.3070 C   0  0  0  0  0  0  0  0  0  0  0  0
  188.6380  175.4160  147.2640 C   0  0  0  0  0  2  0  0  0  0  0  0
  190.5520  173.4040  139.6770 C   0  0  0  0  0  2  0  0  0  0  0  0
  190.8990  173.4890  138.2030 C   0  0  0  0  0  1  0  0  0  0  0  0
  1 27  1  0  0  0  0
  3  7  1  0  0  0  0
  3 21  1  0  0  0  0
  4 16  1  0  0  0  0
  4  1  1  0  0  0  0
  5 10  1  0  0  0  0
  6 11  1  0  0  0  0
  9  3  1  0  0  0  0
  9 13  1  0  0  0  0
  9  6  1  0  0  0  0
 10  7  1  0  0  0  0
 10 24  1  0  0  0  0
 12 19  1  0  0  0  0
 12  4  1  0  0  0  0
 14 25  1  0  0  0  0
 15 21  1  0  0  0  0
 15 28  1  0  0  0  0
 16  8  1  0  0  0  0
 16  1  1  0  0  0  0
 17 11  1  0  0  0  0
 18 13  1  0  0  0  0
 18 14  1  0  0  0  0
 19 26  1  0  0  0  0
 20  5  1  0  0  0  0
 21 17  1  0  0  0  0
 22 13  1  0  0  0  0
 22  7  1  0  0  0  0
 23  6  1  0  0  0  0
 23  2  1  0  0  0  0
 24 28  2  0  0  0  0
 24 30  1  0  0  0  0
 25  2  1  0  0  0  0
 26 20  1  0  0  0  0
 26 27  1  0  0  0  0
 27 22  1  0  0  0  0
 29 35  1  0  0  0  0
 30 29  1  0  0  0  0
 31 34  2  0  0  0  0
 31 30  1  0  0  0  0
 32 34  1  0  0  0  0
 33 35  1  0  0  0  0
 34 33  1  0  0  0  0
 36 19  1  0  0  0  0
 37 36  1  0  0  0  0
M  END
>  <MODEL>
5

>  <REMARK>
 VINA RESULT:      -7.8      1.727      3.355
  Name = 
  2 active torsions:
  status: ('A' for Active; 'I' for Inactive)
    1  A    between atoms: C_6  and  C_31
    2  A    between atoms: C_11  and  C_26
                            x       y       z     vdW  Elec       q    Type
                         _______ _______ _______ _____ _____    ______ ____

>  <TORSDO>
F 2

$$$$
=
 OpenBabel11052420063D

 37 44  0  0  1  0  0  0  0  0999 V2000
  191.6100  175.1790  146.0830 C   0  0  1  0  0  3  0  0  0  0  0  0
  185.8490  177.2430  145.8750 C   0  0  0  0  0  2  0  0  0  0  0  0
  188.7540  176.1650  142.4700 C   0  0  2  0  0  3  0  0  0  0  0  0
  192.9070  175.9420  146.3980 C   0  0  1  0  0  3  0  0  0  0  0  0
  191.4020  173.4170  142.6930 C   0  0  0  0  0  2  0  0  0  0  0  0
  187.0700  177.7340  143.6960 C   0  0  1  0  0  3  0  0  0  0  0  0
  189.3610  174.8620  142.9460 C   0  0  1  0  0  3  0  0  0  0  0  0
  191.6750  175.5920  148.5110 C   0  0  0  0  0  1  0  0  0  0  0  0
  188.3620  176.8930  143.7660 C   0  0  1  0  0  3  0  0  0  0  0  0
  190.3560  174.2510  141.9530 C   0  0  2  0  0  3  0  0  0  0  0  0
  185.9750  177.1400  142.8210 C   0  0  0  0  0  2  0  0  0  0  0  0
  193.1620  177.0180  145.5150 O   0  0  0  0  0  0  0  0  0  0  0  0
  188.4970  175.8620  144.8830 C   0  0  2  0  0  3  0  0  0  0  0  0
  187.7180  175.9630  146.9530 C   0  0  0  0  0  2  0  0  0  0  0  0
  188.1600  175.4240  140.1840 C   0  0  0  0  0  2  0  0  0  0  0  0
  191.6270  176.2530  147.1510 C   0  0  2  0  0  3  0  0  0  0  0  0
  186.5480  176.8700  141.4400 C   0  0  0  0  0  2  0  0  0  0  0  0
  188.7150  176.4770  146.1190 O   0  0  0  0  0  0  0  0  0  0  0  0
  193.3140  176.5430  144.1890 C   0  0  2  0  0  3  0  0  0  0  0  0
  192.5380  174.2710  143.2500 C   0  0  0  0  0  2  0  0  0  0  0  0
  187.5940  175.7750  141.5520 C   0  0  2  0  0  3  0  0  0  0  0  0
  189.6750  174.9910  144.4400 C   0  0  2  0  0  3  0  0  0  0  0  0
  186.5650  178.2890  145.0300 C   0  0  0  0  0  2  0  0  0  0  0  0
  189.6020  173.4460  140.9010 C   0  0  0  0  0  0  0  0  0  0  0  0
  186.6160  176.9930  147.1650 C   0  0  0  0  0  2  0  0  0  0  0  0
  192.1170  175.6850  143.6880 C   0  0  1  0  0  3  0  0  0  0  0  0
  191.0220  175.6850  144.7690 C   0  0  2  0  0  3  0  0  0  0  0  0
  188.6310  173.9940  140.1350 C   0  0  0  0  0  3  0  0  0  0  0  0
  190.1850  171.2740  142.0370 C   0  0  0  0  0  2  0  0  0  0  0  0
  189.9120  171.9830  140.7110 C   0  0  2  0  0  3  0  0  0  0  0  0
  191.0170  171.7740  139.7060 C   0  0  0  0  0  3  0  0  0  0  0  0
  192.9210  170.5960  138.7410 C   0  0  0  0  0  1  0  0  0  0  0  0
  191.8490  169.7680  140.9360 C   0  0  0  0  0  2  0  0  0  0  0  0
  191.8500  170.7230  139.7660 C   0  0  0  0  0  0  0  0  0  0  0  0
  190.5570  169.8260  141.7530 C   0  0  0  0  0  2  0  0  0  0  0  0
  194.7220  176.0030  143.9370 C   0  0  0  0  0  2  0  0  0  0  0  0
  195.7580  176.9560  144.5020 C   0  0  0  0  0  1  0  0  0  0  0  0
  1  4  1  0  0  0  0
  1 16  1  0  0  0  0
  2 25  1  0  0  0  0
  3  7  1  0  0  0  0
  3  9  1  0  0  0  0
  4 16  1  0  0  0  0
  5 20  1  0  0  0  0
  6  9  1  0  0  0  0
  6 23  1  0  0  0  0
  7 22  1  0  0  0  0
  9 13  1  0  0  0  0
 10  5  1  0  0  0  0
 10  7  1  0  0  0  0
 11  6  1  0  0  0  0
 12  4  1  0  0  0  0
 13 18  1  0  0  0  0
 14 25  1  0  0  0  0
 15 21  1  0  0  0  0
 16  8  1  0  0  0  0
 17 21  1  0  0  0  0
 17 11  1  0  0  0  0
 18 14  1  0  0  0  0
 19 12  1  0  0  0  0
 20 26  1  0  0  0  0
 21  3  1  0  0  0  0
 22 27  1  0  0  0  0
 22 13  1  0  0  0  0
 23  2  1  0  0  0  0
 24 10  1  0  0  0  0
 26 19  1  0  0  0  0
 26 27  1  0  0  0  0
 27  1  1  0  0  0  0
 28 15  1  0  0  0  0
 28 24  2  0  0  0  0
 30 24  1  0  0  0  0
 30 29  1  0  0  0  0
 31 34  2  0  0  0  0
 31 30  1  0  0  0  0
 32 34  1  0  0  0  0
 33 35  1  0  0  0  0
 34 33  1  0  0  0  0
 35 29  1  0  0  0  0
 36 19  1  0  0  0  0
 36 37  1  0  0  0  0
M  END
>  <MODEL>
6

>  <REMARK>
 VINA RESULT:      -7.6      2.245      7.473
  Name = 
  2 active torsions:
  status: ('A' for Active; 'I' for Inactive)
    1  A    between atoms: C_6  and  C_31
    2  A    between atoms: C_11  and  C_26
                            x       y       z     vdW  Elec       q    Type
                         _______ _______ _______ _____ _____    ______ ____

>  <TORSDO>
F 2

$$$$
=
 OpenBabel11052420063D

 37 44  0  0  1  0  0  0  0  0999 V2000
  195.3890  175.4940  142.1600 C   0  0  1  0  0  3  0  0  0  0  0  0
  192.8360  173.1850  137.0970 C   0  0  0  0  0  2  0  0  0  0  0  0
  191.4280  173.0410  141.4770 C   0  0  2  0  0  3  0  0  0  0  0  0
  196.6000  174.9850  142.9600 C   0  0  1  0  0  3  0  0  0  0  0  0
  192.0680  175.8100  144.0330 C   0  0  0  0  0  2  0  0  0  0  0  0
  192.0030  171.9680  139.1700 C   0  0  1  0  0  3  0  0  0  0  0  0
  191.6640  174.4590  141.9530 C   0  0  1  0  0  3  0  0  0  0  0  0
  197.4250  176.0460  140.8870 C   0  0  0  0  0  1  0  0  0  0  0  0
  192.4610  172.8440  140.3560 C   0  0  1  0  0  3  0  0  0  0  0  0
  191.2290  174.6980  143.4030 C   0  0  2  0  0  3  0  0  0  0  0  0
  190.5330  172.1190  138.8040 C   0  0  0  0  0  2  0  0  0  0  0  0
  196.4400  173.6680  143.4560 O   0  0  0  0  0  0  0  0  0  0  0  0
  193.0260  174.2290  140.0600 C   0  0  2  0  0  3  0  0  0  0  0  0
  194.2230  174.8840  138.3150 C   0  0  0  0  0  2  0  0  0  0  0  0
  189.0990  172.8160  142.2870 C   0  0  0  0  0  2  0  0  0  0  0  0
  196.5910  174.9140  141.4440 C   0  0  2  0  0  3  0  0  0  0  0  0
  189.6930  171.8710  140.0450 C   0  0  0  0  0  2  0  0  0  0  0  0
  194.3050  174.1470  139.5000 O   0  0  0  0  0  0  0  0  0  0  0  0
  195.3420  173.6080  144.3490 C   0  0  2  0  0  3  0  0  0  0  0  0
  193.4080  175.3000  144.5570 C   0  0  0  0  0  2  0  0  0  0  0  0
  189.9620  172.9840  141.0440 C   0  0  2  0  0  3  0  0  0  0  0  0
  193.0200  174.9290  141.4200 C   0  0  2  0  0  3  0  0  0  0  0  0
  192.9440  171.9380  137.9640 C   0  0  0  0  0  2  0  0  0  0  0  0
  189.7340  174.9950  143.4480 C   0  0  0  0  0  0  0  0  0  0  0  0
  194.1490  173.9530  137.1120 C   0  0  0  0  0  2  0  0  0  0  0  0
  194.0110  174.1400  143.7450 C   0  0  1  0  0  3  0  0  0  0  0  0
  194.2440  174.4920  142.2650 C   0  0  2  0  0  3  0  0  0  0  0  0
  188.8150  174.1410  142.9420 C   0  0  0  0  0  3  0  0  0  0  0  0
  188.5290  176.0730  145.3800 C   0  0  0  0  0  2  0  0  0  0  0  0
  189.2440  176.2890  144.0470 C   0  0  2  0  0  3  0  0  0  0  0  0
  188.4120  177.0760  143.0660 C   0  0  0  0  0  3  0  0  0  0  0  0
  186.6460  178.6320  142.4280 C   0  0  0  0  0  1  0  0  0  0  0  0
  186.9730  177.9690  144.8990 C   0  0  0  0  0  2  0  0  0  0  0  0
  187.4280  177.8990  143.4610 C   0  0  0  0  0  0  0  0  0  0  0  0
  188.0060  177.4120  145.8800 C   0  0  0  0  0  2  0  0  0  0  0  0
  195.7220  174.0900  145.7500 C   0  0  0  0  0  2  0  0  0  0  0  0
  196.9940  173.4050  146.2110 C   0  0  0  0  0  1  0  0  0  0  0  0
  1 27  1  0  0  0  0
  1  4  1  0  0  0  0
  2 25  1  0  0  0  0
  2 23  1  0  0  0  0
  3  7  1  0  0  0  0
  4 12  1  0  0  0  0
  5 20  1  0  0  0  0
  6  9  1  0  0  0  0
  7 10  1  0  0  0  0
  8 16  1  0  0  0  0
  9  3  1  0  0  0  0
 10 24  1  0  0  0  0
 10  5  1  0  0  0  0
 11  6  1  0  0  0  0
 11 17  1  0  0  0  0
 12 19  1  0  0  0  0
 13  9  1  0  0  0  0
 13 22  1  0  0  0  0
 14 18  1  0  0  0  0
 15 28  1  0  0  0  0
 16  1  1  0  0  0  0
 16  4  1  0  0  0  0
 17 21  1  0  0  0  0
 18 13  1  0  0  0  0
 19 36  1  0  0  0  0
 21  3  1  0  0  0  0
 21 15  1  0  0  0  0
 22  7  1  0  0  0  0
 22 27  1  0  0  0  0
 23  6  1  0  0  0  0
 24 30  1  0  0  0  0
 25 14  1  0  0  0  0
 26 19  1  0  0  0  0
 26 20  1  0  0  0  0
 27 26  1  0  0  0  0
 28 24  2  0  0  0  0
 29 35  1  0  0  0  0
 30 29  1  0  0  0  0
 31 34  2  0  0  0  0
 31 30  1  0  0  0  0
 32 34  1  0  0  0  0
 33 35  1  0  0  0  0
 34 33  1  0  0  0  0
 36 37  1  0  0  0  0
M  END
>  <MODEL>
7

>  <REMARK>
 VINA RESULT:      -7.5      2.375      6.071
  Name = 
  2 active torsions:
  status: ('A' for Active; 'I' for Inactive)
    1  A    between atoms: C_6  and  C_31
    2  A    between atoms: C_11  and  C_26
                            x       y       z     vdW  Elec       q    Type
                         _______ _______ _______ _____ _____    ______ ____

>  <TORSDO>
F 2

$$$$
=
 OpenBabel11052420063D

 37 44  0  0  1  0  0  0  0  0999 V2000
  190.7440  175.3920  145.9340 C   0  0  1  0  0  3  0  0  0  0  0  0
  185.1750  177.8780  146.4700 C   0  0  0  0  0  2  0  0  0  0  0  0
  187.8400  177.3090  142.7600 C   0  0  2  0  0  3  0  0  0  0  0  0
  192.1130  175.9740  146.3230 C   0  0  1  0  0  3  0  0  0  0  0  0
  190.2530  174.3840  142.2760 C   0  0  0  0  0  2  0  0  0  0  0  0
  186.3450  178.7140  144.3700 C   0  0  1  0  0  3  0  0  0  0  0  0
  188.3540  175.8940  142.9290 C   0  0  1  0  0  3  0  0  0  0  0  0
  190.9400  175.2910  148.3880 C   0  0  0  0  0  1  0  0  0  0  0  0
  187.5620  177.7820  144.1970 C   0  0  1  0  0  3  0  0  0  0  0  0
  189.2530  175.4290  141.7790 C   0  0  2  0  0  3  0  0  0  0  0  0
  185.1690  178.3950  143.4560 C   0  0  0  0  0  2  0  0  0  0  0  0
  192.4220  177.1870  145.6620 O   0  0  0  0  0  0  0  0  0  0  0  0
  187.6550  176.5360  145.0730 C   0  0  2  0  0  3  0  0  0  0  0  0
  186.9700  176.2680  147.1620 C   0  0  0  0  0  2  0  0  0  0  0  0
  187.0950  177.1000  140.4080 C   0  0  0  0  0  2  0  0  0  0  0  0
  190.8940  176.2180  147.1930 C   0  0  2  0  0  3  0  0  0  0  0  0
  185.6620  178.3740  142.0190 C   0  0  0  0  0  2  0  0  0  0  0  0
  187.9730  176.8670  146.3940 O   0  0  0  0  0  0  0  0  0  0  0  0
  192.4810  176.9840  144.2620 C   0  0  2  0  0  3  0  0  0  0  0  0
  191.4780  175.0180  142.9280 C   0  0  0  0  0  2  0  0  0  0  0  0
  186.6160  177.2030  141.8490 C   0  0  2  0  0  3  0  0  0  0  0  0
  188.7360  175.6900  144.3980 C   0  0  2  0  0  3  0  0  0  0  0  0
  185.9420  179.0190  145.8150 C   0  0  0  0  0  2  0  0  0  0  0  0
  188.3920  174.9160  140.6300 C   0  0  0  0  0  0  0  0  0  0  0  0
  185.9680  177.3110  147.6380 C   0  0  0  0  0  2  0  0  0  0  0  0
  191.1970  176.3390  143.6660 C   0  0  1  0  0  3  0  0  0  0  0  0
  190.1490  176.1990  144.7840 C   0  0  2  0  0  3  0  0  0  0  0  0
  187.4410  175.6800  140.0460 C   0  0  0  0  0  3  0  0  0  0  0  0
  189.7640  172.8080  140.7830 C   0  0  0  0  0  2  0  0  0  0  0  0
  188.5700  173.5040  140.1320 C   0  0  2  0  0  3  0  0  0  0  0  0
  188.6200  173.4470  138.6250 C   0  0  0  0  0  3  0  0  0  0  0  0
  189.3160  172.5240  136.4790 C   0  0  0  0  0  1  0  0  0  0  0  0
  190.2190  171.5330  138.6820 C   0  0  0  0  0  2  0  0  0  0  0  0
  189.3090  172.5030  137.9670 C   0  0  0  0  0  0  0  0  0  0  0  0
  189.9160  171.4200  140.1770 C   0  0  0  0  0  2  0  0  0  0  0  0
  193.8270  176.4040  143.8270 C   0  0  0  0  0  2  0  0  0  0  0  0
  194.9110  176.8060  144.8080 C   0  0  0  0  0  1  0  0  0  0  0  0
  1  4  1  0  0  0  0
  1 16  1  0  0  0  0
  2 25  1  0  0  0  0
  3  7  1  0  0  0  0
  3  9  1  0  0  0  0
  4 16  1  0  0  0  0
  5 20  1  0  0  0  0
  6 23  1  0  0  0  0
  7 22  1  0  0  0  0
  9  6  1  0  0  0  0
  9 13  1  0  0  0  0
 10  5  1  0  0  0  0
 10  7  1  0  0  0  0
 11  6  1  0  0  0  0
 12  4  1  0  0  0  0
 13 18  1  0  0  0  0
 14 25  1  0  0  0  0
 15 21  1  0  0  0  0
 16  8  1  0  0  0  0
 17 11  1  0  0  0  0
 18 14  1  0  0  0  0
 19 12  1  0  0  0  0
 20 26  1  0  0  0  0
 21 17  1  0  0  0  0
 21  3  1  0  0  0  0
 22 27  1  0  0  0  0
 22 13  1  0  0  0  0
 23  2  1  0  0  0  0
 24 10  1  0  0  0  0
 26 19  1  0  0  0  0
 26 27  1  0  0  0  0
 27  1  1  0  0  0  0
 28 15  1  0  0  0  0
 28 24  2  0  0  0  0
 30 24  1  0  0  0  0
 30 29  1  0  0  0  0
 31 30  1  0  0  0  0
 32 34  1  0  0  0  0
 33 35  1  0  0  0  0
 34 31  2  0  0  0  0
 34 33  1  0  0  0  0
 35 29  1  0  0  0  0
 36 19  1  0  0  0  0
 36 37  1  0  0  0  0
M  END
>  <MODEL>
8

>  <REMARK>
 VINA RESULT:      -7.5      2.390      7.468
  Name = 
  2 active torsions:
  status: ('A' for Active; 'I' for Inactive)
    1  A    between atoms: C_6  and  C_31
    2  A    between atoms: C_11  and  C_26
                            x       y       z     vdW  Elec       q    Type
                         _______ _______ _______ _____ _____    ______ ____

>  <TORSDO>
F 2

$$$$
=
 OpenBabel11052420063D

 37 44  0  0  1  0  0  0  0  0999 V2000
  190.0060  173.6980  140.4280 C   0  0  1  0  0  3  0  0  0  0  0  0
  187.9360  177.9640  144.3010 C   0  0  0  0  0  2  0  0  0  0  0  0
  190.9840  174.5750  144.9500 C   0  0  2  0  0  3  0  0  0  0  0  0
  189.3110  172.4240  139.9200 C   0  0  1  0  0  3  0  0  0  0  0  0
  193.3440  173.2600  142.2460 C   0  0  0  0  0  2  0  0  0  0  0  0
  188.8610  175.9590  145.5670 C   0  0  1  0  0  3  0  0  0  0  0  0
  191.8400  174.6500  143.7030 C   0  0  1  0  0  3  0  0  0  0  0  0
  188.3070  174.3690  138.7740 C   0  0  0  0  0  1  0  0  0  0  0  0
  189.6230  175.1370  144.5060 C   0  0  1  0  0  3  0  0  0  0  0  0
  192.9850  173.6310  143.6850 C   0  0  2  0  0  3  0  0  0  0  0  0
  189.7490  176.8010  146.4730 C   0  0  0  0  0  2  0  0  0  0  0  0
  188.9440  171.5280  140.9520 O   0  0  0  0  0  0  0  0  0  0  0  0
  189.8550  175.7600  143.1330 C   0  0  2  0  0  3  0  0  0  0  0  0
  188.5420  177.1440  142.0090 C   0  0  0  0  0  2  0  0  0  0  0  0
  192.8280  174.5270  146.6010 C   0  0  0  0  0  2  0  0  0  0  0  0
  188.5240  173.7060  140.1170 C   0  0  2  0  0  3  0  0  0  0  0  0
  190.7960  175.8990  147.1040 C   0  0  0  0  0  2  0  0  0  0  0  0
  188.6720  175.8050  142.3890 O   0  0  0  0  0  0  0  0  0  0  0  0
  190.0930  171.0820  141.6500 C   0  0  2  0  0  3  0  0  0  0  0  0
  192.4250  172.1820  141.6780 C   0  0  0  0  0  2  0  0  0  0  0  0
  191.7220  175.3910  146.0130 C   0  0  2  0  0  3  0  0  0  0  0  0
  190.9200  174.8650  142.4970 C   0  0  2  0  0  3  0  0  0  0  0  0
  187.6120  176.6900  145.0690 C   0  0  0  0  0  2  0  0  0  0  0  0
  194.1740  174.1830  144.4620 C   0  0  0  0  0  0  0  0  0  0  0  0
  187.4820  177.8380  142.8550 C   0  0  0  0  0  2  0  0  0  0  0  0
  190.9790  172.2340  142.2040 C   0  0  1  0  0  3  0  0  0  0  0  0
  190.2790  173.5750  141.9230 C   0  0  2  0  0  3  0  0  0  0  0  0
  194.0720  174.5740  145.7530 C   0  0  0  0  0  3  0  0  0  0  0  0
  196.6440  174.5690  144.7800 C   0  0  0  0  0  2  0  0  0  0  0  0
  195.5110  174.3330  143.7810 C   0  0  2  0  0  3  0  0  0  0  0  0
  195.4700  175.3790  142.6960 C   0  0  0  0  0  3  0  0  0  0  0  0
  196.4210  177.1210  141.2800 C   0  0  0  0  0  1  0  0  0  0  0  0
  197.8370  176.0330  143.1420 C   0  0  0  0  0  2  0  0  0  0  0  0
  196.5500  176.0990  142.3550 C   0  0  0  0  0  0  0  0  0  0  0  0
  197.9410  174.7800  144.0120 C   0  0  0  0  0  2  0  0  0  0  0  0
  190.7990  169.9430  140.9120 C   0  0  0  0  0  2  0  0  0  0  0  0
  190.9580  168.7450  141.8290 C   0  0  0  0  0  1  0  0  0  0  0  0
  1 27  1  0  0  0  0
  2 23  1  0  0  0  0
  3 21  1  0  0  0  0
  4 16  1  0  0  0  0
  4  1  1  0  0  0  0
  4 12  1  0  0  0  0
  5 10  1  0  0  0  0
  6 11  1  0  0  0  0
  7  3  1  0  0  0  0
  8 16  1  0  0  0  0
  9  3  1  0  0  0  0
  9  6  1  0  0  0  0
 10  7  1  0  0  0  0
 10 24  1  0  0  0  0
 11 17  1  0  0  0  0
 12 19  1  0  0  0  0
 13  9  1  0  0  0  0
 14 18  1  0  0  0  0
 14 25  1  0  0  0  0
 16  1  1  0  0  0  0
 18 13  1  0  0  0  0
 19 26  1  0  0  0  0
 20 26  1  0  0  0  0
 20  5  1  0  0  0  0
 21 15  1  0  0  0  0
 21 17  1  0  0  0  0
 22 13  1  0  0  0  0
 22  7  1  0  0  0  0
 23  6  1  0  0  0  0
 24 28  2  0  0  0  0
 25  2  1  0  0  0  0
 27 26  1  0  0  0  0
 27 22  1  0  0  0  0
 28 15  1  0  0  0  0
 30 24  1  0  0  0  0
 30 29  1  0  0  0  0
 31 30  1  0  0  0  0
 32 34  1  0  0  0  0
 33 35  1  0  0  0  0
 34 31  2  0  0  0  0
 34 33  1  0  0  0  0
 35 29  1  0  0  0  0
 36 19  1  0  0  0  0
 36 37  1  0  0  0  0
M  END
>  <MODEL>
9

>  <REMARK>
 VINA RESULT:      -7.5      2.048      6.675
  Name = 
  2 active torsions:
  status: ('A' for Active; 'I' for Inactive)
    1  A    between atoms: C_6  and  C_31
    2  A    between atoms: C_11  and  C_26
                            x       y       z     vdW  Elec       q    Type
                         _______ _______ _______ _____ _____    ______ ____

>  <TORSDO>
F 2

$$$$
