=
 OpenBabel11052419593D

 37 42  0  0  1  0  0  0  0  0999 V2000
  196.3560  173.6860  144.8550 C   0  0  0  0  0  2  0  0  0  0  0  0
  191.9220  175.0260  145.5890 C   0  0  1  0  0  3  0  0  0  0  0  0
  189.0420  173.9730  143.4540 O   0  0  0  0  0  0  0  0  0  0  0  0
  194.5250  174.7270  145.9090 C   0  0  2  0  0  3  0  0  0  0  0  0
  191.2530  174.6250  144.2930 C   0  0  2  0  0  3  0  0  0  0  0  0
  193.1240  174.0770  145.7340 C   0  0  2  0  0  3  0  0  0  0  0  0
  189.7400  174.8660  144.3040 C   0  0  1  0  0  3  0  0  0  0  0  0
  194.5630  176.1420  146.5130 C   0  0  0  0  0  2  0  0  0  0  0  0
  193.0470  173.1030  144.5530 C   0  0  1  0  0  3  0  0  0  0  0  0
  194.9660  171.6620  145.3780 C   0  0  0  0  0  2  0  0  0  0  0  0
  191.0440  177.3650  145.6660 C   0  0  0  0  0  2  0  0  0  0  0  0
  193.1950  176.7710  146.7580 C   0  0  0  0  0  2  0  0  0  0  0  0
  193.5050  171.7010  144.9330 C   0  0  0  0  0  2  0  0  0  0  0  0
  189.4340  174.1610  142.1050 C   0  0  0  0  0  2  0  0  0  0  0  0
  192.2930  176.5010  145.5740 C   0  0  1  0  0  3  0  0  0  0  0  0
  191.6000  173.1510  144.1040 C   0  0  2  0  0  3  0  0  0  0  0  0
  195.3110  174.6890  144.6810 N   0  0  0  0  0  2  0  0  0  0  0  0
  189.2950  176.3310  144.0960 C   0  0  2  0  0  3  0  0  0  0  0  0
  195.8980  172.3160  144.3620 C   0  0  0  0  0  2  0  0  0  0  0  0
  190.8740  173.6710  141.8020 C   0  0  1  0  0  3  0  0  0  0  0  0
  191.4200  172.6430  142.7250 N   0  0  0  0  0  0  0  0  0  0  0  0
  190.3520  177.4270  144.3070 C   0  0  0  0  0  2  0  0  0  0  0  0
  187.8960  176.2790  146.1660 C   0  0  0  0  0  3  0  0  0  0  0  0
  188.0190  176.6300  144.8190 C   0  0  0  0  0  0  0  0  0  0  0  0
  186.9450  177.2500  144.1630 C   0  0  0  0  0  3  0  0  0  0  0  0
  184.4240  178.2920  144.0330 Cl  0  0  0  0  0  0  0  0  0  0  0  0
  185.6430  177.1660  146.2020 C   0  0  0  0  0  3  0  0  0  0  0  0
  185.7600  177.5180  144.8550 C   0  0  0  0  0  0  0  0  0  0  0  0
  186.7110  176.5470  146.8590 C   0  0  0  0  0  3  0  0  0  0  0  0
  189.9800  173.7500  139.5760 O   0  0  0  0  0  1  0  0  0  0  0  0
  191.0900  173.3500  140.3220 C   0  0  1  0  0  3  0  0  0  0  0  0
  192.2410  173.9700  139.8320 O   0  0  0  0  0  0  0  0  0  0  0  0
  192.1850  173.7870  138.4500 C   0  0  0  0  0  1  0  0  0  0  0  0
  190.5030  171.5000  142.7880 C   0  0  0  0  0  2  0  0  0  0  0  0
  191.0770  170.2480  142.1270 C   0  0  2  0  0  3  0  0  0  0  0  0
  192.5690  170.3790  141.9140 C   0  0  0  0  0  1  0  0  0  0  0  0
  190.4410  169.9650  140.9160 O   0  0  0  0  0  1  0  0  0  0  0  0
  2  6  1  0  0  0  0
  3  7  1  0  0  0  0
  4  8  1  0  0  0  0
  5  7  1  0  0  0  0
  5  2  1  0  0  0  0
  6  4  1  0  0  0  0
  8 12  1  0  0  0  0
  9 13  1  0  0  0  0
  9  6  1  0  0  0  0
 13 10  1  0  0  0  0
 14  3  1  0  0  0  0
 15  2  1  0  0  0  0
 15 11  1  0  0  0  0
 15 12  1  0  0  0  0
 16  5  1  0  0  0  0
 16  9  1  0  0  0  0
 17  1  1  0  0  0  0
 17  4  1  0  0  0  0
 18  7  1  0  0  0  0
 18 22  1  0  0  0  0
 18 24  1  0  0  0  0
 19  1  1  0  0  0  0
 19 10  1  0  0  0  0
 20 14  1  0  0  0  0
 20 21  1  0  0  0  0
 21 34  1  0  0  0  0
 21 16  1  0  0  0  0
 22 11  1  0  0  0  0
 23 29  1  0  0  0  0
 24 23  2  0  0  0  0
 25 24  1  0  0  0  0
 25 28  2  0  0  0  0
 26 28  1  0  0  0  0
 27 29  2  0  0  0  0
 28 27  1  0  0  0  0
 30 31  1  0  0  0  0
 31 20  1  0  0  0  0
 32 31  1  0  0  0  0
 33 32  1  0  0  0  0
 35 34  1  0  0  0  0
 36 35  1  0  0  0  0
 37 35  1  0  0  0  0
M  END
>  <MODEL>
1

>  <REMARK>
 VINA RESULT:      -7.8      0.000      0.000
  Name = 
  5 active torsions:
  status: ('A' for Active; 'I' for Inactive)
    1  A    between atoms: C_1  and  C_5
    2  A    between atoms: C_1  and  N_36
    3  A    between atoms: C_6  and  C_31
    4  A    between atoms: O_11  and  C_26
    5  A    between atoms: C_26  and  C_33
                            x       y       z     vdW  Elec       q    Type
                         _______ _______ _______ _____ _____    ______ ____

>  <TORSDO>
F 5

$$$$
=
 OpenBabel11052419593D

 37 42  0  0  1  0  0  0  0  0999 V2000
  187.1420  176.7730  147.2110 C   0  0  0  0  0  2  0  0  0  0  0  0
  191.4160  176.6220  145.2840 C   0  0  1  0  0  3  0  0  0  0  0  0
  192.2130  174.8200  142.1100 O   0  0  0  0  0  0  0  0  0  0  0  0
  189.4360  177.2250  146.9230 C   0  0  2  0  0  3  0  0  0  0  0  0
  191.2610  175.5210  144.2590 C   0  0  2  0  0  3  0  0  0  0  0  0
  190.0030  177.1980  145.4760 C   0  0  2  0  0  3  0  0  0  0  0  0
  192.5140  175.3280  143.3980 C   0  0  1  0  0  3  0  0  0  0  0  0
  190.4630  177.2610  148.0700 C   0  0  0  0  0  2  0  0  0  0  0  0
  189.1010  176.4620  144.4810 C   0  0  1  0  0  3  0  0  0  0  0  0
  187.0700  177.9050  144.9700 C   0  0  0  0  0  2  0  0  0  0  0  0
  193.5150  175.7580  146.3320 C   0  0  0  0  0  2  0  0  0  0  0  0
  191.9190  177.1520  147.6300 C   0  0  0  0  0  2  0  0  0  0  0  0
  188.0220  177.3680  143.9010 C   0  0  0  0  0  2  0  0  0  0  0  0
  191.6310  173.5320  142.2060 C   0  0  0  0  0  2  0  0  0  0  0  0
  192.0480  176.0880  146.5620 C   0  0  1  0  0  3  0  0  0  0  0  0
  190.0460  175.9190  143.4270 C   0  0  2  0  0  3  0  0  0  0  0  0
  188.4660  176.1610  147.1570 N   0  0  0  0  0  2  0  0  0  0  0  0
  193.6740  174.5580  144.0680 C   0  0  2  0  0  3  0  0  0  0  0  0
  186.4840  176.7920  145.8330 C   0  0  0  0  0  2  0  0  0  0  0  0
  190.1900  173.5410  142.7780 C   0  0  1  0  0  3  0  0  0  0  0  0
  189.4430  174.8180  142.6420 N   0  0  0  0  0  0  0  0  0  0  0  0
  193.6420  174.4260  145.6000 C   0  0  0  0  0  2  0  0  0  0  0  0
  195.5010  176.2610  143.9810 C   0  0  0  0  0  3  0  0  0  0  0  0
  195.0070  175.0200  143.5680 C   0  0  0  0  0  0  0  0  0  0  0  0
  195.7620  174.2300  142.6880 C   0  0  0  0  0  3  0  0  0  0  0  0
  197.9410  173.6920  141.1330 Cl  0  0  0  0  0  0  0  0  0  0  0  0
  197.4930  175.9210  142.6480 C   0  0  0  0  0  3  0  0  0  0  0  0
  197.0030  174.6810  142.2310 C   0  0  0  0  0  0  0  0  0  0  0  0
  196.7420  176.7120  143.5230 C   0  0  0  0  0  3  0  0  0  0  0  0
  190.2070  171.3910  141.7140 O   0  0  0  0  0  1  0  0  0  0  0  0
  189.3840  172.3070  142.3700 C   0  0  1  0  0  3  0  0  0  0  0  0
  188.7870  171.7030  143.4790 O   0  0  0  0  0  0  0  0  0  0  0  0
  189.6830  171.9170  144.5270 C   0  0  0  0  0  1  0  0  0  0  0  0
  189.4280  175.2320  141.2350 C   0  0  0  0  0  2  0  0  0  0  0  0
  188.0360  175.1490  140.6120 C   0  0  2  0  0  3  0  0  0  0  0  0
  188.0870  174.5010  139.2450 C   0  0  0  0  0  1  0  0  0  0  0  0
  187.4310  176.4040  140.5260 O   0  0  0  0  0  1  0  0  0  0  0  0
  2  6  1  0  0  0  0
  2 15  1  0  0  0  0
  3 14  1  0  0  0  0
  3  7  1  0  0  0  0
  4 17  1  0  0  0  0
  4  8  1  0  0  0  0
  5  2  1  0  0  0  0
  6  4  1  0  0  0  0
  7 18  1  0  0  0  0
  7  5  1  0  0  0  0
  9  6  1  0  0  0  0
 10 19  1  0  0  0  0
 11 15  1  0  0  0  0
 12  8  1  0  0  0  0
 13  9  1  0  0  0  0
 13 10  1  0  0  0  0
 14 20  1  0  0  0  0
 15 12  1  0  0  0  0
 16  5  1  0  0  0  0
 16  9  1  0  0  0  0
 17  1  1  0  0  0  0
 18 22  1  0  0  0  0
 19  1  1  0  0  0  0
 21 20  1  0  0  0  0
 21 16  1  0  0  0  0
 22 11  1  0  0  0  0
 24 23  1  0  0  0  0
 24 18  1  0  0  0  0
 25 24  2  0  0  0  0
 26 28  1  0  0  0  0
 27 29  1  0  0  0  0
 28 27  2  0  0  0  0
 28 25  1  0  0  0  0
 29 23  2  0  0  0  0
 30 31  1  0  0  0  0
 31 20  1  0  0  0  0
 31 32  1  0  0  0  0
 32 33  1  0  0  0  0
 34 21  1  0  0  0  0
 35 34  1  0  0  0  0
 36 35  1  0  0  0  0
 37 35  1  0  0  0  0
M  END
>  <MODEL>
2

>  <REMARK>
 VINA RESULT:      -7.3      3.256      6.791
  Name = 
  5 active torsions:
  status: ('A' for Active; 'I' for Inactive)
    1  A    between atoms: C_1  and  C_5
    2  A    between atoms: C_1  and  N_36
    3  A    between atoms: C_6  and  C_31
    4  A    between atoms: O_11  and  C_26
    5  A    between atoms: C_26  and  C_33
                            x       y       z     vdW  Elec       q    Type
                         _______ _______ _______ _____ _____    ______ ____

>  <TORSDO>
F 5

$$$$
=
 OpenBabel11052419593D

 37 42  0  0  1  0  0  0  0  0999 V2000
  193.8230  171.6100  138.6420 C   0  0  0  0  0  2  0  0  0  0  0  0
  191.1480  173.8330  141.7890 C   0  0  1  0  0  3  0  0  0  0  0  0
  192.4940  175.6370  144.7700 O   0  0  0  0  0  0  0  0  0  0  0  0
  191.8740  172.4680  139.6480 C   0  0  2  0  0  3  0  0  0  0  0  0
  192.1230  174.0710  142.9190 C   0  0  2  0  0  3  0  0  0  0  0  0
  192.0130  173.7480  140.5190 C   0  0  2  0  0  3  0  0  0  0  0  0
  191.5190  174.8890  144.0650 C   0  0  1  0  0  3  0  0  0  0  0  0
  190.5400  171.7050  139.7450 C   0  0  0  0  0  2  0  0  0  0  0  0
  193.4520  174.0320  140.9610 C   0  0  1  0  0  3  0  0  0  0  0  0
  194.3690  174.0600  138.5940 C   0  0  0  0  0  2  0  0  0  0  0  0
  189.3170  172.8490  143.1780 C   0  0  0  0  0  2  0  0  0  0  0  0
  189.5620  172.2520  140.7790 C   0  0  0  0  0  2  0  0  0  0  0  0
  194.2310  174.8180  139.9140 C   0  0  0  0  0  2  0  0  0  0  0  0
  193.4320  174.7750  145.3890 C   0  0  0  0  0  2  0  0  0  0  0  0
  190.3060  172.5920  142.0510 C   0  0  1  0  0  3  0  0  0  0  0  0
  193.3160  174.7730  142.2760 C   0  0  2  0  0  3  0  0  0  0  0  0
  192.9890  171.5470  139.8370 N   0  0  0  0  0  2  0  0  0  0  0  0
  190.5830  174.1140  145.0190 C   0  0  2  0  0  3  0  0  0  0  0  0
  194.9270  172.6540  138.7900 C   0  0  0  0  0  2  0  0  0  0  0  0
  194.3820  174.0670  144.3880 C   0  0  1  0  0  3  0  0  0  0  0  0
  194.5620  174.7380  143.0750 N   0  0  0  0  0  0  0  0  0  0  0  0
  190.0290  172.7680  144.5250 C   0  0  0  0  0  2  0  0  0  0  0  0
  189.1010  174.8180  146.9050 C   0  0  0  0  0  3  0  0  0  0  0  0
  189.5110  174.9950  145.5800 C   0  0  0  0  0  0  0  0  0  0  0  0
  188.9090  175.9900  144.7940 C   0  0  0  0  0  3  0  0  0  0  0  0
  187.1600  178.0400  144.3540 Cl  0  0  0  0  0  0  0  0  0  0  0  0
  187.5030  176.6200  146.6620 C   0  0  0  0  0  3  0  0  0  0  0  0
  187.9080  176.8010  145.3360 C   0  0  0  0  0  0  0  0  0  0  0  0
  188.1000  175.6280  147.4460 C   0  0  0  0  0  3  0  0  0  0  0  0
  196.0650  174.5090  146.0410 O   0  0  0  0  0  1  0  0  0  0  0  0
  195.6930  173.6150  145.0350 C   0  0  1  0  0  3  0  0  0  0  0  0
  195.5780  172.3270  145.5620 O   0  0  0  0  0  0  0  0  0  0  0  0
  196.8930  171.8930  145.7330 C   0  0  0  0  0  1  0  0  0  0  0  0
  194.9950  176.1240  143.2850 C   0  0  0  0  0  2  0  0  0  0  0  0
  196.3060  176.4450  142.5710 C   0  0  2  0  0  3  0  0  0  0  0  0
  197.0030  175.1820  142.1160 C   0  0  0  0  0  1  0  0  0  0  0  0
  197.1600  177.2040  143.3740 O   0  0  0  0  0  1  0  0  0  0  0  0
  1 19  1  0  0  0  0
  1 17  1  0  0  0  0
  2 15  1  0  0  0  0
  2  5  1  0  0  0  0
  3 14  1  0  0  0  0
  4  8  1  0  0  0  0
  4 17  1  0  0  0  0
  4  6  1  0  0  0  0
  5  7  1  0  0  0  0
  6  9  1  0  0  0  0
  6  2  1  0  0  0  0
  7  3  1  0  0  0  0
  7 18  1  0  0  0  0
  8 12  1  0  0  0  0
  9 16  1  0  0  0  0
 10 19  1  0  0  0  0
 10 13  1  0  0  0  0
 11 22  1  0  0  0  0
 12 15  1  0  0  0  0
 13  9  1  0  0  0  0
 15 11  1  0  0  0  0
 16  5  1  0  0  0  0
 16 21  1  0  0  0  0
 18 24  1  0  0  0  0
 20 31  1  0  0  0  0
 20 14  1  0  0  0  0
 21 34  1  0  0  0  0
 21 20  1  0  0  0  0
 22 18  1  0  0  0  0
 23 29  1  0  0  0  0
 24 23  2  0  0  0  0
 25 28  2  0  0  0  0
 25 24  1  0  0  0  0
 26 28  1  0  0  0  0
 27 29  2  0  0  0  0
 28 27  1  0  0  0  0
 31 32  1  0  0  0  0
 31 30  1  0  0  0  0
 32 33  1  0  0  0  0
 35 34  1  0  0  0  0
 35 37  1  0  0  0  0
 36 35  1  0  0  0  0
M  END
>  <MODEL>
3

>  <REMARK>
 VINA RESULT:      -7.1      2.842      5.671
  Name = 
  5 active torsions:
  status: ('A' for Active; 'I' for Inactive)
    1  A    between atoms: C_1  and  C_5
    2  A    between atoms: C_1  and  N_36
    3  A    between atoms: C_6  and  C_31
    4  A    between atoms: O_11  and  C_26
    5  A    between atoms: C_26  and  C_33
                            x       y       z     vdW  Elec       q    Type
                         _______ _______ _______ _____ _____    ______ ____

>  <TORSDO>
F 5

$$$$
=
 OpenBabel11052419593D

 37 42  0  0  1  0  0  0  0  0999 V2000
  194.2190  169.8760  142.2660 C   0  0  0  0  0  2  0  0  0  0  0  0
  191.1840  173.4530  142.2490 C   0  0  1  0  0  3  0  0  0  0  0  0
  192.0380  176.9200  143.3470 O   0  0  0  0  0  0  0  0  0  0  0  0
  192.2050  171.0420  141.9040 C   0  0  2  0  0  3  0  0  0  0  0  0
  191.9090  174.4850  143.0830 C   0  0  2  0  0  3  0  0  0  0  0  0
  192.2910  172.5720  141.6430 C   0  0  2  0  0  3  0  0  0  0  0  0
  191.1640  175.8210  143.1570 C   0  0  1  0  0  3  0  0  0  0  0  0
  190.8060  170.4640  142.1870 C   0  0  0  0  0  2  0  0  0  0  0  0
  193.6210  173.1920  142.0840 C   0  0  1  0  0  3  0  0  0  0  0  0
  195.0310  171.6300  140.6640 C   0  0  0  0  0  2  0  0  0  0  0  0
  188.9960  173.5820  143.4510 C   0  0  0  0  0  2  0  0  0  0  0  0
  189.6920  171.5010  142.2850 C   0  0  0  0  0  2  0  0  0  0  0  0
  194.6930  173.0810  141.0070 C   0  0  0  0  0  2  0  0  0  0  0  0
  192.7160  176.8090  144.5850 C   0  0  0  0  0  2  0  0  0  0  0  0
  190.1730  172.6880  143.0910 C   0  0  1  0  0  3  0  0  0  0  0  0
  193.2840  174.6260  142.4360 C   0  0  2  0  0  3  0  0  0  0  0  0
  193.1420  170.6020  142.9310 N   0  0  0  0  0  2  0  0  0  0  0  0
  189.9610  175.8640  144.1260 C   0  0  2  0  0  3  0  0  0  0  0  0
  195.3720  170.8070  141.9020 C   0  0  0  0  0  2  0  0  0  0  0  0
  193.7770  175.6780  144.6150 C   0  0  1  0  0  3  0  0  0  0  0  0
  194.3130  175.2540  143.2970 N   0  0  0  0  0  0  0  0  0  0  0  0
  189.3820  174.5180  144.5920 C   0  0  0  0  0  2  0  0  0  0  0  0
  188.7860  177.0710  142.2800 C   0  0  0  0  0  3  0  0  0  0  0  0
  188.8970  176.8010  143.6470 C   0  0  0  0  0  0  0  0  0  0  0  0
  188.0160  177.4160  144.5500 C   0  0  0  0  0  3  0  0  0  0  0  0
  185.9360  179.0560  145.2120 Cl  0  0  0  0  0  0  0  0  0  0  0  0
  186.9230  178.5560  142.7150 C   0  0  0  0  0  3  0  0  0  0  0  0
  187.0310  178.2910  144.0830 C   0  0  0  0  0  0  0  0  0  0  0  0
  187.8010  177.9450  141.8130 C   0  0  0  0  0  3  0  0  0  0  0  0
  194.4900  176.9630  146.5120 O   0  0  0  0  0  1  0  0  0  0  0  0
  194.8550  175.9070  145.6760 C   0  0  1  0  0  3  0  0  0  0  0  0
  195.0730  174.7530  146.4320 O   0  0  0  0  0  0  0  0  0  0  0  0
  196.2180  174.1760  145.8810 C   0  0  0  0  0  1  0  0  0  0  0  0
  194.8410  176.4200  142.5810 C   0  0  0  0  0  2  0  0  0  0  0  0
  196.3090  176.2570  142.1910 C   0  0  2  0  0  3  0  0  0  0  0  0
  197.2120  177.0090  143.1440 C   0  0  0  0  0  1  0  0  0  0  0  0
  196.5450  176.6690  140.8780 O   0  0  0  0  0  1  0  0  0  0  0  0
  1 17  1  0  0  0  0
  2  5  1  0  0  0  0
  2 15  1  0  0  0  0
  3 14  1  0  0  0  0
  4  8  1  0  0  0  0
  4 17  1  0  0  0  0
  5  7  1  0  0  0  0
  6  4  1  0  0  0  0
  6  9  1  0  0  0  0
  6  2  1  0  0  0  0
  7  3  1  0  0  0  0
  7 18  1  0  0  0  0
  8 12  1  0  0  0  0
  9 16  1  0  0  0  0
 10 13  1  0  0  0  0
 10 19  1  0  0  0  0
 11 22  1  0  0  0  0
 12 15  1  0  0  0  0
 13  9  1  0  0  0  0
 14 20  1  0  0  0  0
 15 11  1  0  0  0  0
 16  5  1  0  0  0  0
 16 21  1  0  0  0  0
 18 22  1  0  0  0  0
 19  1  1  0  0  0  0
 20 31  1  0  0  0  0
 21 20  1  0  0  0  0
 23 24  1  0  0  0  0
 24 18  1  0  0  0  0
 24 25  2  0  0  0  0
 27 28  2  0  0  0  0
 28 25  1  0  0  0  0
 28 26  1  0  0  0  0
 29 23  2  0  0  0  0
 29 27  1  0  0  0  0
 31 32  1  0  0  0  0
 31 30  1  0  0  0  0
 33 32  1  0  0  0  0
 34 21  1  0  0  0  0
 35 34  1  0  0  0  0
 35 36  1  0  0  0  0
 37 35  1  0  0  0  0
M  END
>  <MODEL>
4

>  <REMARK>
 VINA RESULT:      -6.8      2.751      5.275
  Name = 
  5 active torsions:
  status: ('A' for Active; 'I' for Inactive)
    1  A    between atoms: C_1  and  C_5
    2  A    between atoms: C_1  and  N_36
    3  A    between atoms: C_6  and  C_31
    4  A    between atoms: O_11  and  C_26
    5  A    between atoms: C_26  and  C_33
                            x       y       z     vdW  Elec       q    Type
                         _______ _______ _______ _____ _____    ______ ____

>  <TORSDO>
F 5

$$$$
=
 OpenBabel11052419593D

 37 42  0  0  1  0  0  0  0  0999 V2000
  196.2340  173.9770  142.5460 C   0  0  0  0  0  2  0  0  0  0  0  0
  191.8710  175.1800  143.7780 C   0  0  1  0  0  3  0  0  0  0  0  0
  188.8030  174.0340  141.9810 O   0  0  0  0  0  0  0  0  0  0  0  0
  194.5020  174.9630  143.8020 C   0  0  2  0  0  3  0  0  0  0  0  0
  191.0730  174.7560  142.5660 C   0  0  2  0  0  3  0  0  0  0  0  0
  193.1110  174.2700  143.7850 C   0  0  2  0  0  3  0  0  0  0  0  0
  189.5640  174.9500  142.7480 C   0  0  1  0  0  3  0  0  0  0  0  0
  194.5630  176.3810  144.3980 C   0  0  0  0  0  2  0  0  0  0  0  0
  192.9310  173.2910  142.6200 C   0  0  1  0  0  3  0  0  0  0  0  0
  194.9750  171.9120  143.2210 C   0  0  0  0  0  2  0  0  0  0  0  0
  190.9350  177.4920  143.9560 C   0  0  0  0  0  2  0  0  0  0  0  0
  193.2130  176.9680  144.7980 C   0  0  0  0  0  2  0  0  0  0  0  0
  193.4720  171.9050  142.9440 C   0  0  0  0  0  2  0  0  0  0  0  0
  189.0340  174.2300  140.5970 C   0  0  0  0  0  2  0  0  0  0  0  0
  192.1920  176.6670  143.7220 C   0  0  1  0  0  3  0  0  0  0  0  0
  191.4420  173.2930  142.3370 C   0  0  2  0  0  3  0  0  0  0  0  0
  195.1440  174.9460  142.4920 N   0  0  0  0  0  2  0  0  0  0  0  0
  189.0520  176.4000  142.5930 C   0  0  2  0  0  3  0  0  0  0  0  0
  195.7650  172.5920  142.1070 C   0  0  0  0  0  2  0  0  0  0  0  0
  190.4450  173.7840  140.1320 C   0  0  1  0  0  3  0  0  0  0  0  0
  191.1230  172.7760  140.9860 N   0  0  0  0  0  0  0  0  0  0  0  0
  190.0920  177.5290  142.6840 C   0  0  0  0  0  2  0  0  0  0  0  0
  186.6520  177.0410  142.8580 C   0  0  0  0  0  3  0  0  0  0  0  0
  187.8570  176.6610  143.4550 C   0  0  0  0  0  0  0  0  0  0  0  0
  187.9320  176.5350  144.8510 C   0  0  0  0  0  3  0  0  0  0  0  0
  186.9010  176.6270  147.3780 Cl  0  0  0  0  0  0  0  0  0  0  0  0
  185.6010  177.1640  145.0360 C   0  0  0  0  0  3  0  0  0  0  0  0
  186.8040  176.7850  145.6380 C   0  0  0  0  0  0  0  0  0  0  0  0
  185.5250  177.2920  143.6460 C   0  0  0  0  0  3  0  0  0  0  0  0
  191.7040  172.8300  138.3260 O   0  0  0  0  0  1  0  0  0  0  0  0
  190.5010  173.4660  138.6370 C   0  0  1  0  0  3  0  0  0  0  0  0
  189.4250  172.6640  138.2500 O   0  0  0  0  0  0  0  0  0  0  0  0
  189.8390  172.0600  137.0620 C   0  0  0  0  0  1  0  0  0  0  0  0
  190.2550  171.6060  141.1520 C   0  0  0  0  0  2  0  0  0  0  0  0
  191.0090  170.2870  140.9910 C   0  0  2  0  0  3  0  0  0  0  0  0
  190.8750  169.7510  139.5820 C   0  0  0  0  0  1  0  0  0  0  0  0
  190.5790  169.3300  141.9120 O   0  0  0  0  0  1  0  0  0  0  0  0
  2  6  1  0  0  0  0
  3  7  1  0  0  0  0
  4  8  1  0  0  0  0
  5  7  1  0  0  0  0
  5  2  1  0  0  0  0
  6  4  1  0  0  0  0
  8 12  1  0  0  0  0
  9 13  1  0  0  0  0
  9  6  1  0  0  0  0
 13 10  1  0  0  0  0
 14  3  1  0  0  0  0
 15  2  1  0  0  0  0
 15 11  1  0  0  0  0
 15 12  1  0  0  0  0
 16  5  1  0  0  0  0
 16  9  1  0  0  0  0
 17  1  1  0  0  0  0
 17  4  1  0  0  0  0
 18 22  1  0  0  0  0
 18  7  1  0  0  0  0
 18 24  1  0  0  0  0
 19  1  1  0  0  0  0
 19 10  1  0  0  0  0
 20 14  1  0  0  0  0
 20 21  1  0  0  0  0
 21 34  1  0  0  0  0
 21 16  1  0  0  0  0
 22 11  1  0  0  0  0
 23 24  2  0  0  0  0
 23 29  1  0  0  0  0
 24 25  1  0  0  0  0
 25 28  2  0  0  0  0
 27 28  1  0  0  0  0
 28 26  1  0  0  0  0
 29 27  2  0  0  0  0
 30 31  1  0  0  0  0
 31 20  1  0  0  0  0
 32 31  1  0  0  0  0
 33 32  1  0  0  0  0
 35 34  1  0  0  0  0
 35 37  1  0  0  0  0
 36 35  1  0  0  0  0
M  END
>  <MODEL>
5

>  <REMARK>
 VINA RESULT:      -6.8      1.800      2.188
  Name = 
  5 active torsions:
  status: ('A' for Active; 'I' for Inactive)
    1  A    between atoms: C_1  and  C_5
    2  A    between atoms: C_1  and  N_36
    3  A    between atoms: C_6  and  C_31
    4  A    between atoms: O_11  and  C_26
    5  A    between atoms: C_26  and  C_33
                            x       y       z     vdW  Elec       q    Type
                         _______ _______ _______ _____ _____    ______ ____

>  <TORSDO>
F 5

$$$$
=
 OpenBabel11052419593D

 37 42  0  0  1  0  0  0  0  0999 V2000
  190.5020  176.2710  147.6380 C   0  0  0  0  0  2  0  0  0  0  0  0
  193.3360  175.8150  143.9280 C   0  0  1  0  0  3  0  0  0  0  0  0
  192.3440  174.1490  140.7350 O   0  0  0  0  0  0  0  0  0  0  0  0
  192.4330  176.5080  146.3110 C   0  0  2  0  0  3  0  0  0  0  0  0
  192.5920  174.8030  143.0860 C   0  0  2  0  0  3  0  0  0  0  0  0
  192.2540  176.5170  144.7670 C   0  0  2  0  0  3  0  0  0  0  0  0
  193.2670  174.5410  141.7360 C   0  0  1  0  0  3  0  0  0  0  0  0
  193.8720  176.3670  146.8410 C   0  0  0  0  0  2  0  0  0  0  0  0
  190.9120  175.9400  144.3050 C   0  0  1  0  0  3  0  0  0  0  0  0
  189.5300  177.5450  145.7050 C   0  0  0  0  0  2  0  0  0  0  0  0
  195.5620  174.6800  143.8590 C   0  0  0  0  0  2  0  0  0  0  0  0
  194.9310  176.1400  145.7680 C   0  0  0  0  0  2  0  0  0  0  0  0
  189.8040  176.9850  144.3090 C   0  0  0  0  0  2  0  0  0  0  0  0
  191.7250  172.9230  141.0810 C   0  0  0  0  0  2  0  0  0  0  0  0
  194.4210  175.1400  144.7550 C   0  0  1  0  0  3  0  0  0  0  0  0
  191.1860  175.3740  142.9260 C   0  0  2  0  0  3  0  0  0  0  0  0
  191.5650  175.5340  146.9630 N   0  0  0  0  0  2  0  0  0  0  0  0
  194.5050  173.6180  141.7750 C   0  0  2  0  0  3  0  0  0  0  0  0
  189.2850  176.4430  146.7310 C   0  0  0  0  0  2  0  0  0  0  0  0
  190.7280  173.0400  142.2630 C   0  0  1  0  0  3  0  0  0  0  0  0
  190.1610  174.3910  142.5050 N   0  0  0  0  0  0  0  0  0  0  0  0
  195.1740  173.3920  143.1410 C   0  0  0  0  0  2  0  0  0  0  0  0
  195.8760  175.3100  140.5500 C   0  0  0  0  0  3  0  0  0  0  0  0
  195.4960  173.9740  140.7120 C   0  0  0  0  0  0  0  0  0  0  0  0
  196.0430  172.9910  139.8740 C   0  0  0  0  0  3  0  0  0  0  0  0
  197.6440  172.1150  137.8420 Cl  0  0  0  0  0  0  0  0  0  0  0  0
  197.3430  174.6820  138.7280 C   0  0  0  0  0  3  0  0  0  0  0  0
  196.9650  173.3450  138.8850 C   0  0  0  0  0  0  0  0  0  0  0  0
  196.7980  175.6650  139.5610 C   0  0  0  0  0  3  0  0  0  0  0  0
  190.3070  170.6820  142.1140 O   0  0  0  0  0  1  0  0  0  0  0  0
  189.6850  171.9220  142.2700 C   0  0  1  0  0  3  0  0  0  0  0  0
  188.9370  171.9350  143.4490 O   0  0  0  0  0  0  0  0  0  0  0  0
  189.8850  171.9170  144.4730 C   0  0  0  0  0  1  0  0  0  0  0  0
  189.5420  174.8940  141.2740 C   0  0  0  0  0  2  0  0  0  0  0  0
  188.0620  175.2250  141.4530 C   0  0  2  0  0  3  0  0  0  0  0  0
  187.8070  176.7040  141.2610 C   0  0  0  0  0  1  0  0  0  0  0  0
  187.5860  174.8130  142.6990 O   0  0  0  0  0  1  0  0  0  0  0  0
  2 15  1  0  0  0  0
  2  6  1  0  0  0  0
  3 14  1  0  0  0  0
  3  7  1  0  0  0  0
  4  8  1  0  0  0  0
  4 17  1  0  0  0  0
  5  2  1  0  0  0  0
  6  4  1  0  0  0  0
  7 18  1  0  0  0  0
  7  5  1  0  0  0  0
  9 13  1  0  0  0  0
  9  6  1  0  0  0  0
 10 19  1  0  0  0  0
 11 15  1  0  0  0  0
 12  8  1  0  0  0  0
 13 10  1  0  0  0  0
 14 20  1  0  0  0  0
 15 12  1  0  0  0  0
 16  5  1  0  0  0  0
 16  9  1  0  0  0  0
 17  1  1  0  0  0  0
 18 22  1  0  0  0  0
 19  1  1  0  0  0  0
 20 31  1  0  0  0  0
 20 21  1  0  0  0  0
 21 16  1  0  0  0  0
 22 11  1  0  0  0  0
 23 24  1  0  0  0  0
 24 18  1  0  0  0  0
 25 24  2  0  0  0  0
 26 28  1  0  0  0  0
 27 28  2  0  0  0  0
 27 29  1  0  0  0  0
 28 25  1  0  0  0  0
 29 23  2  0  0  0  0
 30 31  1  0  0  0  0
 31 32  1  0  0  0  0
 32 33  1  0  0  0  0
 34 35  1  0  0  0  0
 34 21  1  0  0  0  0
 35 37  1  0  0  0  0
 36 35  1  0  0  0  0
M  END
>  <MODEL>
6

>  <REMARK>
 VINA RESULT:      -6.6      3.625      6.941
  Name = 
  5 active torsions:
  status: ('A' for Active; 'I' for Inactive)
    1  A    between atoms: C_1  and  C_5
    2  A    between atoms: C_1  and  N_36
    3  A    between atoms: C_6  and  C_31
    4  A    between atoms: O_11  and  C_26
    5  A    between atoms: C_26  and  C_33
                            x       y       z     vdW  Elec       q    Type
                         _______ _______ _______ _____ _____    ______ ____

>  <TORSDO>
F 5

$$$$
=
 OpenBabel11052419593D

 37 42  0  0  1  0  0  0  0  0999 V2000
  193.4000  171.1920  138.4100 C   0  0  0  0  0  2  0  0  0  0  0  0
  190.8070  174.0830  141.0400 C   0  0  1  0  0  3  0  0  0  0  0  0
  192.1270  175.9930  143.9660 O   0  0  0  0  0  0  0  0  0  0  0  0
  191.5150  172.4110  139.1230 C   0  0  2  0  0  3  0  0  0  0  0  0
  191.7000  174.3040  142.2390 C   0  0  2  0  0  3  0  0  0  0  0  0
  191.7620  173.7460  139.8810 C   0  0  2  0  0  3  0  0  0  0  0  0
  191.1210  175.3150  143.2350 C   0  0  1  0  0  3  0  0  0  0  0  0
  190.0810  171.8530  139.1480 C   0  0  0  0  0  2  0  0  0  0  0  0
  193.1810  173.8750  140.4440 C   0  0  1  0  0  3  0  0  0  0  0  0
  194.3030  173.5250  138.1940 C   0  0  0  0  0  2  0  0  0  0  0  0
  188.7320  173.5140  142.3130 C   0  0  0  0  0  2  0  0  0  0  0  0
  189.1040  172.6360  140.0180 C   0  0  0  0  0  2  0  0  0  0  0  0
  194.1590  174.4310  139.4160 C   0  0  0  0  0  2  0  0  0  0  0  0
  192.8680  175.0810  144.7570 C   0  0  0  0  0  2  0  0  0  0  0  0
  189.7720  173.0050  141.3250 C   0  0  1  0  0  3  0  0  0  0  0  0
  193.0360  174.7630  141.6630 C   0  0  2  0  0  3  0  0  0  0  0  0
  192.4610  171.3710  139.5120 N   0  0  0  0  0  2  0  0  0  0  0  0
  189.9980  174.7820  144.1520 C   0  0  2  0  0  3  0  0  0  0  0  0
  194.6280  172.0840  138.5770 C   0  0  0  0  0  2  0  0  0  0  0  0
  193.7910  174.1470  143.9320 C   0  0  1  0  0  3  0  0  0  0  0  0
  194.1850  174.6430  142.5890 N   0  0  0  0  0  0  0  0  0  0  0  0
  189.2990  173.4800  143.7290 C   0  0  0  0  0  2  0  0  0  0  0  0
  188.7930  176.9040  143.6160 C   0  0  0  0  0  3  0  0  0  0  0  0
  189.0210  175.8570  144.5130 C   0  0  0  0  0  0  0  0  0  0  0  0
  188.3370  175.8300  145.7380 C   0  0  0  0  0  3  0  0  0  0  0  0
  186.5800  176.8080  147.5850 Cl  0  0  0  0  0  0  0  0  0  0  0  0
  187.2050  177.8900  145.1560 C   0  0  0  0  0  3  0  0  0  0  0  0
  187.4300  176.8450  146.0570 C   0  0  0  0  0  0  0  0  0  0  0  0
  187.8860  177.9190  143.9350 C   0  0  0  0  0  3  0  0  0  0  0  0
  195.9160  173.0330  143.9070 O   0  0  0  0  0  1  0  0  0  0  0  0
  194.9560  173.5910  144.7520 C   0  0  1  0  0  3  0  0  0  0  0  0
  195.5370  174.5850  145.5430 O   0  0  0  0  0  0  0  0  0  0  0  0
  196.7150  174.0130  146.0260 C   0  0  0  0  0  1  0  0  0  0  0  0
  194.7970  175.9710  142.7140 C   0  0  0  0  0  2  0  0  0  0  0  0
  196.2350  176.0070  142.2000 C   0  0  2  0  0  3  0  0  0  0  0  0
  197.1320  176.7760  143.1450 C   0  0  0  0  0  1  0  0  0  0  0  0
  196.3120  176.5500  140.9160 O   0  0  0  0  0  1  0  0  0  0  0  0
  1 19  1  0  0  0  0
  1 17  1  0  0  0  0
  2 15  1  0  0  0  0
  2  5  1  0  0  0  0
  3 14  1  0  0  0  0
  4  8  1  0  0  0  0
  4 17  1  0  0  0  0
  4  6  1  0  0  0  0
  5  7  1  0  0  0  0
  6  9  1  0  0  0  0
  6  2  1  0  0  0  0
  7  3  1  0  0  0  0
  7 18  1  0  0  0  0
  8 12  1  0  0  0  0
  9 16  1  0  0  0  0
 10 19  1  0  0  0  0
 10 13  1  0  0  0  0
 11 22  1  0  0  0  0
 12 15  1  0  0  0  0
 13  9  1  0  0  0  0
 15 11  1  0  0  0  0
 16  5  1  0  0  0  0
 16 21  1  0  0  0  0
 18 24  1  0  0  0  0
 20 31  1  0  0  0  0
 20 14  1  0  0  0  0
 21 34  1  0  0  0  0
 21 20  1  0  0  0  0
 22 18  1  0  0  0  0
 23 29  2  0  0  0  0
 23 24  1  0  0  0  0
 24 25  2  0  0  0  0
 25 28  1  0  0  0  0
 27 28  2  0  0  0  0
 28 26  1  0  0  0  0
 29 27  1  0  0  0  0
 30 31  1  0  0  0  0
 31 32  1  0  0  0  0
 32 33  1  0  0  0  0
 35 34  1  0  0  0  0
 35 36  1  0  0  0  0
 37 35  1  0  0  0  0
M  END
>  <MODEL>
7

>  <REMARK>
 VINA RESULT:      -6.5      2.651      5.722
  Name = 
  5 active torsions:
  status: ('A' for Active; 'I' for Inactive)
    1  A    between atoms: C_1  and  C_5
    2  A    between atoms: C_1  and  N_36
    3  A    between atoms: C_6  and  C_31
    4  A    between atoms: O_11  and  C_26
    5  A    between atoms: C_26  and  C_33
                            x       y       z     vdW  Elec       q    Type
                         _______ _______ _______ _____ _____    ______ ____

>  <TORSDO>
F 5

$$$$
=
 OpenBabel11052419593D

 37 42  0  0  1  0  0  0  0  0999 V2000
  187.1050  178.3580  142.0670 C   0  0  0  0  0  2  0  0  0  0  0  0
  188.9070  174.0600  141.5380 C   0  0  1  0  0  3  0  0  0  0  0  0
  191.6110  172.6500  143.6960 O   0  0  0  0  0  0  0  0  0  0  0  0
  187.3860  176.1900  141.1900 C   0  0  2  0  0  3  0  0  0  0  0  0
  190.1490  174.1310  142.3980 C   0  0  2  0  0  3  0  0  0  0  0  0
  187.9380  175.0910  142.1410 C   0  0  2  0  0  3  0  0  0  0  0  0
  190.8910  172.7930  142.4840 C   0  0  1  0  0  3  0  0  0  0  0  0
  187.3390  175.8490  139.6900 C   0  0  0  0  0  2  0  0  0  0  0  0
  188.6300  175.6530  143.3870 C   0  0  1  0  0  3  0  0  0  0  0  0
  186.6120  177.0060  144.1240 C   0  0  0  0  0  2  0  0  0  0  0  0
  190.0110  173.1260  139.4990 C   0  0  0  0  0  2  0  0  0  0  0  0
  187.9500  174.5020  139.3190 C   0  0  0  0  0  2  0  0  0  0  0  0
  187.6440  175.9470  144.5100 C   0  0  0  0  0  2  0  0  0  0  0  0
  192.6210  173.6370  143.7950 C   0  0  0  0  0  2  0  0  0  0  0  0
  189.2460  174.3080  140.0750 C   0  0  1  0  0  3  0  0  0  0  0  0
  189.6620  174.6090  143.7630 C   0  0  2  0  0  3  0  0  0  0  0  0
  188.0480  177.4750  141.3870 N   0  0  0  0  0  2  0  0  0  0  0  0
  191.7490  172.4240  141.2530 C   0  0  2  0  0  3  0  0  0  0  0  0
  187.2630  178.2760  143.5830 C   0  0  0  0  0  2  0  0  0  0  0  0
  192.0720  175.0680  144.0360 C   0  0  1  0  0  3  0  0  0  0  0  0
  190.7200  175.1520  144.6440 N   0  0  0  0  0  0  0  0  0  0  0  0
  191.4690  173.1810  139.9450 C   0  0  0  0  0  2  0  0  0  0  0  0
  190.7990  170.1340  141.5690 C   0  0  0  0  0  3  0  0  0  0  0  0
  191.8130  170.9430  141.0480 C   0  0  0  0  0  0  0  0  0  0  0  0
  192.8770  170.3560  140.3450 C   0  0  0  0  0  3  0  0  0  0  0  0
  194.2470  168.2430  139.2900 Cl  0  0  0  0  0  0  0  0  0  0  0  0
  191.9020  168.1670  140.6890 C   0  0  0  0  0  3  0  0  0  0  0  0
  192.9190  168.9710  140.1660 C   0  0  0  0  0  0  0  0  0  0  0  0
  190.8410  168.7490  141.3900 C   0  0  0  0  0  3  0  0  0  0  0  0
  192.4700  177.1250  145.2060 O   0  0  0  0  0  1  0  0  0  0  0  0
  193.1010  175.9940  144.6860 C   0  0  1  0  0  3  0  0  0  0  0  0
  193.8080  175.3370  145.6950 O   0  0  0  0  0  0  0  0  0  0  0  0
  194.4070  176.3570  146.4350 C   0  0  0  0  0  1  0  0  0  0  0  0
  190.6940  174.3870  145.8950 C   0  0  0  0  0  2  0  0  0  0  0  0
  190.1020  175.1800  147.0590 C   0  0  2  0  0  3  0  0  0  0  0  0
  191.1560  175.4930  148.0980 C   0  0  0  0  0  1  0  0  0  0  0  0
  189.0290  174.5090  147.6490 O   0  0  0  0  0  1  0  0  0  0  0  0
  1 19  1  0  0  0  0
  2  6  1  0  0  0  0
  2  5  1  0  0  0  0
  3 14  1  0  0  0  0
  4 17  1  0  0  0  0
  4  6  1  0  0  0  0
  5  7  1  0  0  0  0
  5 16  1  0  0  0  0
  6  9  1  0  0  0  0
  7  3  1  0  0  0  0
  8  4  1  0  0  0  0
  9 16  1  0  0  0  0
  9 13  1  0  0  0  0
 10 13  1  0  0  0  0
 11 22  1  0  0  0  0
 11 15  1  0  0  0  0
 12  8  1  0  0  0  0
 12 15  1  0  0  0  0
 14 20  1  0  0  0  0
 15  2  1  0  0  0  0
 16 21  1  0  0  0  0
 17  1  1  0  0  0  0
 18  7  1  0  0  0  0
 19 10  1  0  0  0  0
 20 21  1  0  0  0  0
 20 31  1  0  0  0  0
 21 34  1  0  0  0  0
 22 18  1  0  0  0  0
 24 18  1  0  0  0  0
 24 23  2  0  0  0  0
 25 24  1  0  0  0  0
 26 28  1  0  0  0  0
 27 29  2  0  0  0  0
 28 25  2  0  0  0  0
 28 27  1  0  0  0  0
 29 23  1  0  0  0  0
 31 30  1  0  0  0  0
 31 32  1  0  0  0  0
 32 33  1  0  0  0  0
 34 35  1  0  0  0  0
 35 37  1  0  0  0  0
 35 36  1  0  0  0  0
M  END
>  <MODEL>
8

>  <REMARK>
 VINA RESULT:      -6.4      3.455      7.853
  Name = 
  5 active torsions:
  status: ('A' for Active; 'I' for Inactive)
    1  A    between atoms: C_1  and  C_5
    2  A    between atoms: C_1  and  N_36
    3  A    between atoms: C_6  and  C_31
    4  A    between atoms: O_11  and  C_26
    5  A    between atoms: C_26  and  C_33
                            x       y       z     vdW  Elec       q    Type
                         _______ _______ _______ _____ _____    ______ ____

>  <TORSDO>
F 5

$$$$
=
 OpenBabel11052419593D

 37 42  0  0  1  0  0  0  0  0999 V2000
  188.9850  177.6150  145.3090 C   0  0  0  0  0  2  0  0  0  0  0  0
  189.6360  173.7630  142.7120 C   0  0  1  0  0  3  0  0  0  0  0  0
  192.9760  172.2190  142.0700 O   0  0  0  0  0  0  0  0  0  0  0  0
  188.4400  175.7370  143.9950 C   0  0  2  0  0  3  0  0  0  0  0  0
  191.1320  173.7790  142.4950 C   0  0  2  0  0  3  0  0  0  0  0  0
  189.4110  174.5230  144.0310 C   0  0  2  0  0  3  0  0  0  0  0  0
  191.6380  172.5460  141.7400 C   0  0  1  0  0  3  0  0  0  0  0  0
  187.3620  175.7310  142.8970 C   0  0  0  0  0  2  0  0  0  0  0  0
  190.8030  174.8700  144.5690 C   0  0  1  0  0  3  0  0  0  0  0  0
  189.9260  175.7980  146.7630 C   0  0  0  0  0  2  0  0  0  0  0  0
  188.9910  173.4270  140.3210 C   0  0  0  0  0  2  0  0  0  0  0  0
  187.4610  174.5750  141.9080 C   0  0  0  0  0  2  0  0  0  0  0  0
  190.8670  174.7990  146.0890 C   0  0  0  0  0  2  0  0  0  0  0  0
  193.8520  173.2660  141.6910 C   0  0  0  0  0  2  0  0  0  0  0  0
  188.9080  174.3630  141.5180 C   0  0  1  0  0  3  0  0  0  0  0  0
  191.7370  173.8890  143.8910 C   0  0  2  0  0  3  0  0  0  0  0  0
  189.1490  177.0120  143.9900 N   0  0  0  0  0  2  0  0  0  0  0  0
  191.4020  172.5520  140.2130 C   0  0  2  0  0  3  0  0  0  0  0  0
  190.1230  177.2190  146.2450 C   0  0  0  0  0  2  0  0  0  0  0  0
  193.7160  174.5390  142.5660 C   0  0  1  0  0  3  0  0  0  0  0  0
  193.1480  174.3380  143.9230 N   0  0  0  0  0  0  0  0  0  0  0  0
  190.3630  173.5430  139.6640 C   0  0  0  0  0  2  0  0  0  0  0  0
  190.9030  170.1290  140.5610 C   0  0  0  0  0  3  0  0  0  0  0  0
  191.2040  171.1690  139.6770 C   0  0  0  0  0  0  0  0  0  0  0  0
  191.3210  170.9020  138.3050 C   0  0  0  0  0  3  0  0  0  0  0  0
  191.2830  169.2740  136.1130 Cl  0  0  0  0  0  0  0  0  0  0  0  0
  190.8330  168.5660  138.7120 C   0  0  0  0  0  3  0  0  0  0  0  0
  191.1350  169.6030  137.8250 C   0  0  0  0  0  0  0  0  0  0  0  0
  190.7160  168.8290  140.0810 C   0  0  0  0  0  3  0  0  0  0  0  0
  196.0930  174.6270  142.2480 O   0  0  0  0  0  1  0  0  0  0  0  0
  194.9750  175.4080  142.5450 C   0  0  1  0  0  3  0  0  0  0  0  0
  194.8590  176.4450  141.6170 O   0  0  0  0  0  0  0  0  0  0  0  0
  196.1710  176.7450  141.2500 C   0  0  0  0  0  1  0  0  0  0  0  0
  193.9240  173.3180  144.6360 C   0  0  0  0  0  2  0  0  0  0  0  0
  194.7530  173.9020  145.7790 C   0  0  2  0  0  3  0  0  0  0  0  0
  194.3600  175.3350  146.0610 C   0  0  0  0  0  1  0  0  0  0  0  0
  196.1220  173.8200  145.5190 O   0  0  0  0  0  1  0  0  0  0  0  0
  1 19  1  0  0  0  0
  2  6  1  0  0  0  0
  4  6  1  0  0  0  0
  5  2  1  0  0  0  0
  5 16  1  0  0  0  0
  6  9  1  0  0  0  0
  7  3  1  0  0  0  0
  7  5  1  0  0  0  0
  8  4  1  0  0  0  0
  9 13  1  0  0  0  0
 11 15  1  0  0  0  0
 12  8  1  0  0  0  0
 13 10  1  0  0  0  0
 14  3  1  0  0  0  0
 14 20  1  0  0  0  0
 15 12  1  0  0  0  0
 15  2  1  0  0  0  0
 16 21  1  0  0  0  0
 16  9  1  0  0  0  0
 17  4  1  0  0  0  0
 17  1  1  0  0  0  0
 18  7  1  0  0  0  0
 19 10  1  0  0  0  0
 20 21  1  0  0  0  0
 21 34  1  0  0  0  0
 22 18  1  0  0  0  0
 22 11  1  0  0  0  0
 24 18  1  0  0  0  0
 24 23  2  0  0  0  0
 25 24  1  0  0  0  0
 26 28  1  0  0  0  0
 27 29  2  0  0  0  0
 28 25  2  0  0  0  0
 28 27  1  0  0  0  0
 29 23  1  0  0  0  0
 30 31  1  0  0  0  0
 31 20  1  0  0  0  0
 32 31  1  0  0  0  0
 33 32  1  0  0  0  0
 34 35  1  0  0  0  0
 35 36  1  0  0  0  0
 37 35  1  0  0  0  0
M  END
>  <MODEL>
9

>  <REMARK>
 VINA RESULT:      -6.4      3.493      7.001
  Name = 
  5 active torsions:
  status: ('A' for Active; 'I' for Inactive)
    1  A    between atoms: C_1  and  C_5
    2  A    between atoms: C_1  and  N_36
    3  A    between atoms: C_6  and  C_31
    4  A    between atoms: O_11  and  C_26
    5  A    between atoms: C_26  and  C_33
                            x       y       z     vdW  Elec       q    Type
                         _______ _______ _______ _____ _____    ______ ____

>  <TORSDO>
F 5

$$$$
