=
 OpenBabel11052417223D

 30 33  0  0  1  0  0  0  0  0999 V2000
  189.1910  177.3720  145.4240 C   0  0  0  0  0  0  0  0  0  0  0  0
  190.5820  176.3460  147.0420 C   0  0  0  0  0  3  0  0  0  0  0  0
  191.5510  173.1580  144.2320 O   0  0  0  0  0  0  0  0  0  0  0  0
  188.8510  175.8790  142.9350 C   0  0  0  0  0  2  0  0  0  0  0  0
  187.9090  177.4240  145.9680 O   0  0  0  0  0  0  0  0  0  0  0  0
  185.8170  177.0220  142.9570 C   0  0  1  0  0  3  0  0  0  0  0  0
  186.4480  177.8180  144.0880 C   0  0  0  0  0  2  0  0  0  0  0  0
  185.6090  176.7740  146.1790 C   0  0  0  0  0  1  0  0  0  0  0  0
  190.3560  172.4600  143.9360 C   0  0  2  0  0  3  0  0  0  0  0  0
  186.7990  176.9020  145.2500 C   0  0  2  0  0  3  0  0  0  0  0  0
  187.6560  175.5530  142.0480 C   0  0  1  0  0  3  0  0  0  0  0  0
  191.4770  175.3280  147.6580 C   0  0  0  0  0  2  0  0  0  0  0  0
  189.8890  173.4710  141.6540 C   0  0  1  0  0  3  0  0  0  0  0  0
  184.6390  177.8040  142.4130 C   0  0  0  0  0  1  0  0  0  0  0  0
  189.5690  178.2640  144.6180 O   0  0  0  0  0  0  0  0  0  0  0  0
  191.4920  174.3880  144.8900 C   0  0  0  0  0  0  0  0  0  0  0  0
  192.7300  175.2330  146.8630 C   0  0  0  0  0  3  0  0  0  0  0  0
  186.8210  176.8080  141.8340 C   0  0  0  0  0  2  0  0  0  0  0  0
  190.0990  176.2850  145.7950 C   0  0  0  0  0  0  0  0  0  0  0  0
  189.2290  174.7250  143.8750 C   0  0  1  0  0  3  0  0  0  0  0  0
  190.6580  171.1370  143.2510 C   0  0  0  0  0  1  0  0  0  0  0  0
  189.4420  173.3720  143.1270 C   0  0  2  0  0  3  0  0  0  0  0  0
  188.1710  175.1010  140.6900 C   0  0  0  0  0  2  0  0  0  0  0  0
  192.7170  174.7890  145.6110 C   0  0  0  0  0  3  0  0  0  0  0  0
  190.3460  175.1290  144.8550 C   0  0  0  0  0  0  0  0  0  0  0  0
  188.6980  173.6690  140.7140 C   0  0  0  0  0  2  0  0  0  0  0  0
  190.8890  174.4340  141.4460 O   0  0  0  0  0  0  0  0  0  0  0  0
  191.9900  173.7240  140.9600 C   0  0  0  0  0  3  0  0  0  0  0  0
  193.2650  174.3820  141.4480 C   0  0  0  0  0  1  0  0  0  0  0  0
  191.9770  173.7370  139.4440 C   0  0  0  0  0  1  0  0  0  0  0  0
  1 19  1  0  0  0  0
  1  5  1  0  0  0  0
  2 12  1  0  0  0  0
  3 16  1  0  0  0  0
  6 14  1  6  0  0  0
  6  7  1  0  0  0  0
  7 10  1  0  0  0  0
  9 21  1  6  0  0  0
  9  3  1  0  0  0  0
 10  5  1  0  0  0  0
 10  8  1  1  0  0  0
 11 23  1  6  0  0  0
 11  4  1  0  0  0  0
 13 27  1  1  0  0  0
 13 22  1  0  0  0  0
 15  1  2  0  0  0  0
 16 24  1  0  0  0  0
 17 12  1  0  0  0  0
 18 11  1  0  0  0  0
 18  6  1  0  0  0  0
 19  2  2  0  0  0  0
 20  4  1  6  0  0  0
 20 25  1  0  0  0  0
 22 20  1  0  0  0  0
 22  9  1  0  0  0  0
 23 26  1  0  0  0  0
 24 17  2  0  0  0  0
 25 16  2  0  0  0  0
 25 19  1  0  0  0  0
 26 13  1  0  0  0  0
 28 27  1  0  0  0  0
 28 29  1  0  0  0  0
 30 28  1  0  0  0  0
M  END
>  <MODEL>
1

>  <REMARK>
 VINA RESULT:      -8.0      0.000      0.000
  Name = 
  2 active torsions:
  status: ('A' for Active; 'I' for Inactive)
    1  A    between atoms: C_7  and  O_10
    2  A    between atoms: O_10  and  C_15
                            x       y       z     vdW  Elec       q    Type
                         _______ _______ _______ _____ _____    ______ ____

>  <TORSDO>
F 2

$$$$
=
 OpenBabel11052417223D

 30 33  0  0  1  0  0  0  0  0999 V2000
  190.3260  177.3050  144.9810 C   0  0  0  0  0  0  0  0  0  0  0  0
  192.1000  176.4410  146.2890 C   0  0  0  0  0  3  0  0  0  0  0  0
  192.5130  173.0690  143.5570 O   0  0  0  0  0  0  0  0  0  0  0  0
  189.4720  175.6150  142.7530 C   0  0  0  0  0  2  0  0  0  0  0  0
  189.2070  177.3670  145.8090 O   0  0  0  0  0  0  0  0  0  0  0  0
  186.4830  176.6830  143.4180 C   0  0  1  0  0  3  0  0  0  0  0  0
  187.3290  177.5790  144.3070 C   0  0  0  0  0  2  0  0  0  0  0  0
  187.0510  176.6800  146.6060 C   0  0  0  0  0  1  0  0  0  0  0  0
  191.3130  172.3210  143.6030 C   0  0  2  0  0  3  0  0  0  0  0  0
  187.9820  176.7650  145.4130 C   0  0  2  0  0  3  0  0  0  0  0  0
  188.1170  175.1930  142.2010 C   0  0  1  0  0  3  0  0  0  0  0  0
  193.1570  175.4950  146.7430 C   0  0  0  0  0  2  0  0  0  0  0  0
  190.2800  173.1420  141.4330 C   0  0  1  0  0  3  0  0  0  0  0  0
  185.1790  177.3910  143.1160 C   0  0  0  0  0  1  0  0  0  0  0  0
  190.4660  178.1400  144.0480 O   0  0  0  0  0  0  0  0  0  0  0  0
  192.5590  174.3440  144.1240 C   0  0  0  0  0  0  0  0  0  0  0  0
  194.1900  175.3690  145.6810 C   0  0  0  0  0  3  0  0  0  0  0  0
  187.2030  176.4070  142.1060 C   0  0  0  0  0  2  0  0  0  0  0  0
  191.3400  176.2720  145.1990 C   0  0  0  0  0  0  0  0  0  0  0  0
  190.1090  174.5470  143.6550 C   0  0  1  0  0  3  0  0  0  0  0  0
  191.5000  170.9570  142.9600 C   0  0  0  0  0  1  0  0  0  0  0  0
  190.1970  173.1460  142.9740 C   0  0  2  0  0  3  0  0  0  0  0  0
  188.3160  174.6490  140.7940 C   0  0  0  0  0  2  0  0  0  0  0  0
  193.9020  174.8290  144.5030 C   0  0  0  0  0  3  0  0  0  0  0  0
  191.4080  175.0530  144.3110 C   0  0  0  0  0  0  0  0  0  0  0  0
  188.8930  173.2370  140.7920 C   0  0  0  0  0  2  0  0  0  0  0  0
  191.1620  174.1090  140.9270 O   0  0  0  0  0  0  0  0  0  0  0  0
  192.0600  173.4050  140.1210 C   0  0  0  0  0  3  0  0  0  0  0  0
  193.4610  173.9320  140.3530 C   0  0  0  0  0  1  0  0  0  0  0  0
  191.6950  173.5990  138.6610 C   0  0  0  0  0  1  0  0  0  0  0  0
  1 19  1  0  0  0  0
  1  5  1  0  0  0  0
  2 12  1  0  0  0  0
  3  9  1  0  0  0  0
  3 16  1  0  0  0  0
  6 14  1  6  0  0  0
  6  7  1  0  0  0  0
  7 10  1  0  0  0  0
  9 21  1  6  0  0  0
 10  5  1  0  0  0  0
 10  8  1  1  0  0  0
 11 23  1  6  0  0  0
 11  4  1  0  0  0  0
 13 27  1  1  0  0  0
 13 22  1  0  0  0  0
 15  1  2  0  0  0  0
 16 25  2  0  0  0  0
 16 24  1  0  0  0  0
 17 12  1  0  0  0  0
 18 11  1  0  0  0  0
 18  6  1  0  0  0  0
 19  2  2  0  0  0  0
 20  4  1  6  0  0  0
 20 25  1  0  0  0  0
 22  9  1  0  0  0  0
 22 20  1  0  0  0  0
 24 17  2  0  0  0  0
 25 19  1  0  0  0  0
 26 23  1  0  0  0  0
 26 13  1  0  0  0  0
 28 29  1  0  0  0  0
 28 27  1  0  0  0  0
 30 28  1  0  0  0  0
M  END
>  <MODEL>
2

>  <REMARK>
 VINA RESULT:      -7.5      1.050      1.135
  Name = 
  2 active torsions:
  status: ('A' for Active; 'I' for Inactive)
    1  A    between atoms: C_7  and  O_10
    2  A    between atoms: O_10  and  C_15
                            x       y       z     vdW  Elec       q    Type
                         _______ _______ _______ _____ _____    ______ ____

>  <TORSDO>
F 2

$$$$
=
 OpenBabel11052417223D

 30 33  0  0  1  0  0  0  0  0999 V2000
  192.0650  177.0530  143.8770 C   0  0  0  0  0  0  0  0  0  0  0  0
  194.1720  176.0280  143.5380 C   0  0  0  0  0  3  0  0  0  0  0  0
  192.2850  172.8350  141.2480 O   0  0  0  0  0  0  0  0  0  0  0  0
  189.7660  175.5560  142.8680 C   0  0  0  0  0  2  0  0  0  0  0  0
  191.8580  177.1060  145.2540 O   0  0  0  0  0  0  0  0  0  0  0  0
  188.1980  176.7010  145.4650 C   0  0  1  0  0  3  0  0  0  0  0  0
  189.4910  177.4990  145.5160 C   0  0  0  0  0  2  0  0  0  0  0  0
  190.8370  176.4590  147.3260 C   0  0  0  0  0  1  0  0  0  0  0  0
  191.4090  172.1370  142.1130 C   0  0  2  0  0  3  0  0  0  0  0  0
  190.6660  176.5850  145.8250 C   0  0  2  0  0  3  0  0  0  0  0  0
  188.3850  175.2300  143.4240 C   0  0  1  0  0  3  0  0  0  0  0  0
  195.1650  175.0110  143.0980 C   0  0  0  0  0  2  0  0  0  0  0  0
  189.2180  173.1460  141.3170 C   0  0  1  0  0  3  0  0  0  0  0  0
  187.1170  177.4830  146.1830 C   0  0  0  0  0  1  0  0  0  0  0  0
  191.5740  177.9430  143.1320 O   0  0  0  0  0  0  0  0  0  0  0  0
  192.8150  174.0660  141.6410 C   0  0  0  0  0  0  0  0  0  0  0  0
  195.1430  174.9130  141.6150 C   0  0  0  0  0  3  0  0  0  0  0  0
  187.7650  176.4850  144.0220 C   0  0  0  0  0  2  0  0  0  0  0  0
  192.8560  175.9660  143.2980 C   0  0  0  0  0  0  0  0  0  0  0  0
  190.7660  174.4030  143.0390 C   0  0  1  0  0  3  0  0  0  0  0  0
  190.9850  170.8130  141.4990 C   0  0  0  0  0  1  0  0  0  0  0  0
  190.2410  173.0490  142.4680 C   0  0  2  0  0  3  0  0  0  0  0  0
  187.4970  174.7750  142.2750 C   0  0  0  0  0  2  0  0  0  0  0  0
  194.0690  174.4670  140.9720 C   0  0  0  0  0  3  0  0  0  0  0  0
  192.1850  174.8080  142.5980 C   0  0  0  0  0  0  0  0  0  0  0  0
  187.7950  173.3430  141.8410 C   0  0  0  0  0  2  0  0  0  0  0  0
  189.5640  174.1070  140.3540 O   0  0  0  0  0  0  0  0  0  0  0  0
  189.3710  173.4800  139.1200 C   0  0  0  0  0  3  0  0  0  0  0  0
  190.6720  173.4940  138.3440 C   0  0  0  0  0  1  0  0  0  0  0  0
  188.3150  174.2270  138.3280 C   0  0  0  0  0  1  0  0  0  0  0  0
  1  5  1  0  0  0  0
  3 16  1  0  0  0  0
  3  9  1  0  0  0  0
  4 11  1  0  0  0  0
  5 10  1  0  0  0  0
  6  7  1  0  0  0  0
  6 14  1  1  0  0  0
  7 10  1  0  0  0  0
  9 21  1  6  0  0  0
  9 22  1  0  0  0  0
 10  8  1  1  0  0  0
 11 23  1  6  0  0  0
 11 18  1  0  0  0  0
 12  2  1  0  0  0  0
 13 27  1  6  0  0  0
 13 26  1  0  0  0  0
 13 22  1  0  0  0  0
 15  1  2  0  0  0  0
 16 25  2  0  0  0  0
 17 12  1  0  0  0  0
 18  6  1  0  0  0  0
 19  2  2  0  0  0  0
 19  1  1  0  0  0  0
 20  4  1  6  0  0  0
 22 20  1  0  0  0  0
 24 17  2  0  0  0  0
 24 16  1  0  0  0  0
 25 20  1  0  0  0  0
 25 19  1  0  0  0  0
 26 23  1  0  0  0  0
 28 27  1  0  0  0  0
 29 28  1  0  0  0  0
 30 28  1  0  0  0  0
M  END
>  <MODEL>
3

>  <REMARK>
 VINA RESULT:      -7.0      1.889      3.441
  Name = 
  2 active torsions:
  status: ('A' for Active; 'I' for Inactive)
    1  A    between atoms: C_7  and  O_10
    2  A    between atoms: O_10  and  C_15
                            x       y       z     vdW  Elec       q    Type
                         _______ _______ _______ _____ _____    ______ ____

>  <TORSDO>
F 2

$$$$
=
 OpenBabel11052417223D

 30 33  0  0  1  0  0  0  0  0999 V2000
  189.7890  174.1160  143.1620 C   0  0  0  0  0  0  0  0  0  0  0  0
  190.3430  173.5600  140.9290 C   0  0  0  0  0  3  0  0  0  0  0  0
  194.5000  174.6510  141.6570 O   0  0  0  0  0  0  0  0  0  0  0  0
  191.9550  175.2870  144.7380 C   0  0  0  0  0  2  0  0  0  0  0  0
  188.8290  175.1250  143.1010 O   0  0  0  0  0  0  0  0  0  0  0  0
  189.6410  177.0960  146.1110 C   0  0  1  0  0  3  0  0  0  0  0  0
  188.8140  176.1070  145.3060 C   0  0  0  0  0  2  0  0  0  0  0  0
  188.0210  177.3730  143.3210 C   0  0  0  0  0  1  0  0  0  0  0  0
  194.5420  176.0320  141.9610 C   0  0  2  0  0  3  0  0  0  0  0  0
  189.0120  176.3390  143.8160 C   0  0  2  0  0  3  0  0  0  0  0  0
  192.0480  176.4590  145.7060 C   0  0  1  0  0  3  0  0  0  0  0  0
  191.1700  173.4140  139.6990 C   0  0  0  0  0  2  0  0  0  0  0  0
  194.8060  175.8510  144.4800 C   0  0  1  0  0  3  0  0  0  0  0  0
  188.7990  177.6080  147.2620 C   0  0  0  0  0  1  0  0  0  0  0  0
  189.7840  173.3000  144.1230 O   0  0  0  0  0  0  0  0  0  0  0  0
  193.2770  173.9780  141.6450 C   0  0  0  0  0  0  0  0  0  0  0  0
  192.2770  172.4580  139.9640 C   0  0  0  0  0  3  0  0  0  0  0  0
  190.8780  176.4140  146.6780 C   0  0  0  0  0  2  0  0  0  0  0  0
  190.7980  174.0020  142.1080 C   0  0  0  0  0  0  0  0  0  0  0  0
  192.4470  175.6380  143.3260 C   0  0  1  0  0  3  0  0  0  0  0  0
  195.9650  176.5600  141.8830 C   0  0  0  0  0  1  0  0  0  0  0  0
  193.8800  176.2560  143.3150 C   0  0  2  0  0  3  0  0  0  0  0  0
  193.3300  176.3170  146.5150 C   0  0  0  0  0  2  0  0  0  0  0  0
  193.2330  172.7400  140.8420 C   0  0  0  0  0  3  0  0  0  0  0  0
  192.2120  174.4820  142.3350 C   0  0  0  0  0  0  0  0  0  0  0  0
  194.5680  176.7180  145.7190 C   0  0  0  0  0  2  0  0  0  0  0  0
  194.7490  174.4800  144.7770 O   0  0  0  0  0  0  0  0  0  0  0  0
  196.0730  174.0360  144.7300 C   0  0  0  0  0  3  0  0  0  0  0  0
  196.1390  172.7400  143.9480 C   0  0  0  0  0  1  0  0  0  0  0  0
  196.5800  173.7900  146.1380 C   0  0  0  0  0  1  0  0  0  0  0  0
  1 15  2  0  0  0  0
  2 19  2  0  0  0  0
  3  9  1  0  0  0  0
  5  1  1  0  0  0  0
  5 10  1  0  0  0  0
  6 18  1  0  0  0  0
  6 14  1  1  0  0  0
  7  6  1  0  0  0  0
  9 21  1  1  0  0  0
  9 22  1  0  0  0  0
 10  8  1  6  0  0  0
 10  7  1  0  0  0  0
 11  4  1  6  0  0  0
 11 23  1  0  0  0  0
 11 18  1  0  0  0  0
 12 17  1  0  0  0  0
 12  2  1  0  0  0  0
 13 27  1  1  0  0  0
 13 26  1  0  0  0  0
 16  3  1  0  0  0  0
 16 25  2  0  0  0  0
 17 24  2  0  0  0  0
 19 25  1  0  0  0  0
 19  1  1  0  0  0  0
 20  4  1  1  0  0  0
 22 20  1  0  0  0  0
 22 13  1  0  0  0  0
 24 16  1  0  0  0  0
 25 20  1  0  0  0  0
 26 23  1  0  0  0  0
 28 27  1  0  0  0  0
 28 30  1  0  0  0  0
 29 28  1  0  0  0  0
M  END
>  <MODEL>
4

>  <REMARK>
 VINA RESULT:      -6.9      2.246      5.589
  Name = 
  2 active torsions:
  status: ('A' for Active; 'I' for Inactive)
    1  A    between atoms: C_7  and  O_10
    2  A    between atoms: O_10  and  C_15
                            x       y       z     vdW  Elec       q    Type
                         _______ _______ _______ _____ _____    ______ ____

>  <TORSDO>
F 2

$$$$
=
 OpenBabel11052417223D

 30 33  0  0  1  0  0  0  0  0999 V2000
  193.2830  176.1720  145.2790 C   0  0  0  0  0  0  0  0  0  0  0  0
  195.3830  175.1660  145.7040 C   0  0  0  0  0  3  0  0  0  0  0  0
  194.0860  171.5310  143.6780 O   0  0  0  0  0  0  0  0  0  0  0  0
  191.2920  174.4370  144.0250 C   0  0  0  0  0  2  0  0  0  0  0  0
  192.7280  176.4870  146.5180 O   0  0  0  0  0  0  0  0  0  0  0  0
  189.1300  176.0190  145.8530 C   0  0  1  0  0  3  0  0  0  0  0  0
  190.3820  176.8500  146.0780 C   0  0  0  0  0  2  0  0  0  0  0  0
  191.1910  176.2250  148.3420 C   0  0  0  0  0  1  0  0  0  0  0  0
  193.0020  170.9890  144.4070 C   0  0  2  0  0  3  0  0  0  0  0  0
  191.4170  176.0510  146.8530 C   0  0  2  0  0  3  0  0  0  0  0  0
  189.8080  174.1840  144.2590 C   0  0  1  0  0  3  0  0  0  0  0  0
  196.4350  174.1130  145.7440 C   0  0  0  0  0  2  0  0  0  0  0  0
  191.1140  171.7550  142.8900 C   0  0  1  0  0  3  0  0  0  0  0  0
  187.9170  176.8930  146.1000 C   0  0  0  0  0  1  0  0  0  0  0  0
  193.0210  176.8840  144.2730 O   0  0  0  0  0  0  0  0  0  0  0  0
  194.5220  172.8300  143.9440 C   0  0  0  0  0  0  0  0  0  0  0  0
  196.7950  173.7270  144.3540 C   0  0  0  0  0  3  0  0  0  0  0  0
  189.0810  175.5120  144.4190 C   0  0  0  0  0  2  0  0  0  0  0  0
  194.1740  175.0180  145.1490 C   0  0  0  0  0  0  0  0  0  0  0  0
  192.1890  173.3710  144.6720 C   0  0  1  0  0  3  0  0  0  0  0  0
  192.7220  169.5580  143.9770 C   0  0  0  0  0  1  0  0  0  0  0  0
  191.8010  171.9160  144.2630 C   0  0  2  0  0  3  0  0  0  0  0  0
  189.2380  173.4860  143.0330 C   0  0  0  0  0  2  0  0  0  0  0  0
  195.9150  173.1310  143.5570 C   0  0  0  0  0  3  0  0  0  0  0  0
  193.6820  173.7250  144.5410 C   0  0  0  0  0  0  0  0  0  0  0  0
  189.6070  172.0070  142.9810 C   0  0  0  0  0  2  0  0  0  0  0  0
  191.7170  172.5200  141.8800 O   0  0  0  0  0  0  0  0  0  0  0  0
  191.6370  171.7370  140.7260 C   0  0  0  0  0  3  0  0  0  0  0  0
  193.0170  171.2220  140.3730 C   0  0  0  0  0  1  0  0  0  0  0  0
  191.1140  172.5750  139.5750 C   0  0  0  0  0  1  0  0  0  0  0  0
  1  5  1  0  0  0  0
  2 12  1  0  0  0  0
  3 16  1  0  0  0  0
  3  9  1  0  0  0  0
  4 11  1  0  0  0  0
  5 10  1  0  0  0  0
  6  7  1  0  0  0  0
  6 14  1  6  0  0  0
  7 10  1  0  0  0  0
  9 21  1  6  0  0  0
 10  8  1  1  0  0  0
 11 23  1  6  0  0  0
 11 18  1  0  0  0  0
 13 27  1  6  0  0  0
 13 26  1  0  0  0  0
 13 22  1  0  0  0  0
 15  1  2  0  0  0  0
 16 25  2  0  0  0  0
 17 12  1  0  0  0  0
 18  6  1  0  0  0  0
 19  1  1  0  0  0  0
 19  2  2  0  0  0  0
 20  4  1  6  0  0  0
 22  9  1  0  0  0  0
 22 20  1  0  0  0  0
 24 16  1  0  0  0  0
 24 17  2  0  0  0  0
 25 20  1  0  0  0  0
 25 19  1  0  0  0  0
 26 23  1  0  0  0  0
 28 27  1  0  0  0  0
 29 28  1  0  0  0  0
 30 28  1  0  0  0  0
M  END
>  <MODEL>
5

>  <REMARK>
 VINA RESULT:      -6.8      2.412      3.882
  Name = 
  2 active torsions:
  status: ('A' for Active; 'I' for Inactive)
    1  A    between atoms: C_7  and  O_10
    2  A    between atoms: O_10  and  C_15
                            x       y       z     vdW  Elec       q    Type
                         _______ _______ _______ _____ _____    ______ ____

>  <TORSDO>
F 2

$$$$
=
 OpenBabel11052417223D

 30 33  0  0  1  0  0  0  0  0999 V2000
  188.5950  174.2580  141.5870 C   0  0  0  0  0  0  0  0  0  0  0  0
  189.7780  173.4150  139.7170 C   0  0  0  0  0  3  0  0  0  0  0  0
  193.5690  174.2860  141.6850 O   0  0  0  0  0  0  0  0  0  0  0  0
  190.2480  175.4450  143.6860 C   0  0  0  0  0  2  0  0  0  0  0  0
  187.8160  175.3180  141.1270 O   0  0  0  0  0  0  0  0  0  0  0  0
  187.8150  177.5560  144.0590 C   0  0  1  0  0  3  0  0  0  0  0  0
  187.1930  176.5440  143.1120 C   0  0  0  0  0  2  0  0  0  0  0  0
  187.2170  177.6280  140.8770 C   0  0  0  0  0  1  0  0  0  0  0  0
  193.6530  175.6860  141.8680 C   0  0  2  0  0  3  0  0  0  0  0  0
  187.8840  176.5900  141.7580 C   0  0  2  0  0  3  0  0  0  0  0  0
  190.1450  176.7100  144.5280 C   0  0  1  0  0  3  0  0  0  0  0  0
  190.9360  173.0730  138.8480 C   0  0  0  0  0  2  0  0  0  0  0  0
  193.0720  175.7750  144.3390 C   0  0  1  0  0  3  0  0  0  0  0  0
  186.7060  178.2540  144.8190 C   0  0  0  0  0  1  0  0  0  0  0  0
  188.1970  173.5590  142.5570 O   0  0  0  0  0  0  0  0  0  0  0  0
  192.3510  173.7040  141.3260 C   0  0  0  0  0  0  0  0  0  0  0  0
  191.7940  172.0770  139.5430 C   0  0  0  0  0  3  0  0  0  0  0  0
  188.7260  176.8580  145.0580 C   0  0  0  0  0  2  0  0  0  0  0  0
  189.8720  173.9550  140.9390 C   0  0  0  0  0  0  0  0  0  0  0  0
  191.2020  175.5980  142.4910 C   0  0  1  0  0  3  0  0  0  0  0  0
  195.0720  176.1010  142.2200 C   0  0  0  0  0  1  0  0  0  0  0  0
  192.6170  176.1090  142.9030 C   0  0  2  0  0  3  0  0  0  0  0  0
  191.0760  176.5710  145.7230 C   0  0  0  0  0  2  0  0  0  0  0  0
  192.4400  172.3890  140.6610 C   0  0  0  0  0  3  0  0  0  0  0  0
  191.1800  174.3570  141.5800 C   0  0  0  0  0  0  0  0  0  0  0  0
  192.5390  176.7910  145.3510 C   0  0  0  0  0  2  0  0  0  0  0  0
  192.7810  174.4540  144.7140 O   0  0  0  0  0  0  0  0  0  0  0  0
  194.0210  173.8190  144.8260 C   0  0  0  0  0  3  0  0  0  0  0  0
  193.8220  172.4270  145.3890 C   0  0  0  0  0  1  0  0  0  0  0  0
  194.9150  174.6080  145.7640 C   0  0  0  0  0  1  0  0  0  0  0  0
  1 15  2  0  0  0  0
  2 19  2  0  0  0  0
  3  9  1  0  0  0  0
  5  1  1  0  0  0  0
  5 10  1  0  0  0  0
  6 14  1  1  0  0  0
  6 18  1  0  0  0  0
  7  6  1  0  0  0  0
  9 21  1  1  0  0  0
  9 22  1  0  0  0  0
 10  8  1  6  0  0  0
 10  7  1  0  0  0  0
 11  4  1  6  0  0  0
 11 18  1  0  0  0  0
 11 23  1  0  0  0  0
 12 17  1  0  0  0  0
 12  2  1  0  0  0  0
 13 27  1  1  0  0  0
 13 26  1  0  0  0  0
 16 25  2  0  0  0  0
 16  3  1  0  0  0  0
 17 24  2  0  0  0  0
 19 25  1  0  0  0  0
 19  1  1  0  0  0  0
 20 22  1  0  0  0  0
 20  4  1  1  0  0  0
 22 13  1  0  0  0  0
 24 16  1  0  0  0  0
 25 20  1  0  0  0  0
 26 23  1  0  0  0  0
 27 28  1  0  0  0  0
 28 29  1  0  0  0  0
 28 30  1  0  0  0  0
M  END
>  <MODEL>
6

>  <REMARK>
 VINA RESULT:      -6.7      2.163      5.114
  Name = 
  2 active torsions:
  status: ('A' for Active; 'I' for Inactive)
    1  A    between atoms: C_7  and  O_10
    2  A    between atoms: O_10  and  C_15
                            x       y       z     vdW  Elec       q    Type
                         _______ _______ _______ _____ _____    ______ ____

>  <TORSDO>
F 2

$$$$
=
 OpenBabel11052417223D

 30 33  0  0  1  0  0  0  0  0999 V2000
  193.5780  172.4040  142.7090 C   0  0  0  0  0  0  0  0  0  0  0  0
  191.5230  171.3160  142.2650 C   0  0  0  0  0  3  0  0  0  0  0  0
  189.4030  174.2740  144.6650 O   0  0  0  0  0  0  0  0  0  0  0  0
  193.4320  174.6450  144.5810 C   0  0  0  0  0  2  0  0  0  0  0  0
  194.3960  171.4770  143.3520 O   0  0  0  0  0  0  0  0  0  0  0  0
  196.3430  173.6510  145.6080 C   0  0  1  0  0  3  0  0  0  0  0  0
  196.1470  172.7880  144.3720 C   0  0  0  0  0  2  0  0  0  0  0  0
  195.5560  170.5330  145.2280 C   0  0  0  0  0  1  0  0  0  0  0  0
  189.8650  174.1660  145.9980 C   0  0  2  0  0  3  0  0  0  0  0  0
  195.0150  171.7970  144.5910 C   0  0  2  0  0  3  0  0  0  0  0  0
  194.2810  175.0980  145.7620 C   0  0  1  0  0  3  0  0  0  0  0  0
  190.0670  171.0170  142.3400 C   0  0  0  0  0  2  0  0  0  0  0  0
  191.4110  176.1810  146.0210 C   0  0  1  0  0  3  0  0  0  0  0  0
  197.8280  173.7910  145.8710 C   0  0  0  0  0  1  0  0  0  0  0  0
  194.0900  173.2940  141.9770 O   0  0  0  0  0  0  0  0  0  0  0  0
  190.0980  173.6370  143.6350 C   0  0  0  0  0  0  0  0  0  0  0  0
  189.3010  172.1730  141.8020 C   0  0  0  0  0  3  0  0  0  0  0  0
  195.7550  175.0370  145.3850 C   0  0  0  0  0  2  0  0  0  0  0  0
  192.1250  172.3420  142.8810 C   0  0  0  0  0  0  0  0  0  0  0  0
  192.1760  173.8710  145.0110 C   0  0  1  0  0  3  0  0  0  0  0  0
  188.9410  174.9050  146.9520 C   0  0  0  0  0  1  0  0  0  0  0  0
  191.3110  174.6410  146.0560 C   0  0  2  0  0  3  0  0  0  0  0  0
  193.9410  176.5470  146.0740 C   0  0  0  0  0  2  0  0  0  0  0  0
  189.3170  173.3520  142.4150 C   0  0  0  0  0  3  0  0  0  0  0  0
  191.4120  173.3050  143.7990 C   0  0  0  0  0  0  0  0  0  0  0  0
  192.6150  176.6870  146.8170 C   0  0  0  0  0  2  0  0  0  0  0  0
  191.3830  176.7040  144.7190 O   0  0  0  0  0  0  0  0  0  0  0  0
  190.6140  177.8680  144.8040 C   0  0  0  0  0  3  0  0  0  0  0  0
  189.1940  177.5630  144.3730 C   0  0  0  0  0  1  0  0  0  0  0  0
  191.1910  178.9290  143.8880 C   0  0  0  0  0  1  0  0  0  0  0  0
  1 19  1  0  0  0  0
  1  5  1  0  0  0  0
  2 12  1  0  0  0  0
  2 19  2  0  0  0  0
  3  9  1  0  0  0  0
  5 10  1  0  0  0  0
  6 14  1  6  0  0  0
  7 10  1  0  0  0  0
  7  6  1  0  0  0  0
  9 22  1  0  0  0  0
  9 21  1  1  0  0  0
 10  8  1  6  0  0  0
 11  4  1  6  0  0  0
 11 23  1  0  0  0  0
 13 27  1  6  0  0  0
 13 22  1  0  0  0  0
 13 26  1  0  0  0  0
 15  1  2  0  0  0  0
 16 25  2  0  0  0  0
 16  3  1  0  0  0  0
 17 12  1  0  0  0  0
 17 24  2  0  0  0  0
 18  6  1  0  0  0  0
 18 11  1  0  0  0  0
 19 25  1  0  0  0  0
 20  4  1  6  0  0  0
 20 22  1  0  0  0  0
 23 26  1  0  0  0  0
 24 16  1  0  0  0  0
 25 20  1  0  0  0  0
 27 28  1  0  0  0  0
 29 28  1  0  0  0  0
 30 28  1  0  0  0  0
M  END
>  <MODEL>
7

>  <REMARK>
 VINA RESULT:      -6.6      2.556      7.330
  Name = 
  2 active torsions:
  status: ('A' for Active; 'I' for Inactive)
    1  A    between atoms: C_7  and  O_10
    2  A    between atoms: O_10  and  C_15
                            x       y       z     vdW  Elec       q    Type
                         _______ _______ _______ _____ _____    ______ ____

>  <TORSDO>
F 2

$$$$
=
 OpenBabel11052417223D

 30 33  0  0  1  0  0  0  0  0999 V2000
  191.5610  172.3240  143.1750 C   0  0  0  0  0  0  0  0  0  0  0  0
  193.3940  173.0180  144.5040 C   0  0  0  0  0  3  0  0  0  0  0  0
  191.5700  176.9420  145.0260 O   0  0  0  0  0  0  0  0  0  0  0  0
  189.5820  174.3950  142.5900 C   0  0  0  0  0  2  0  0  0  0  0  0
  192.0750  171.9810  141.9260 O   0  0  0  0  0  0  0  0  0  0  0  0
  189.3010  172.9540  139.6980 C   0  0  1  0  0  3  0  0  0  0  0  0
  190.1640  171.9550  140.4510 C   0  0  0  0  0  2  0  0  0  0  0  0
  192.4660  172.2850  139.5790 C   0  0  0  0  0  1  0  0  0  0  0  0
  191.4830  177.5550  143.7540 C   0  0  2  0  0  3  0  0  0  0  0  0
  191.5320  172.5510  140.7430 C   0  0  2  0  0  3  0  0  0  0  0  0
  188.8250  174.8140  141.3360 C   0  0  1  0  0  3  0  0  0  0  0  0
  194.2630  173.9220  145.3060 C   0  0  0  0  0  2  0  0  0  0  0  0
  189.0120  177.1620  143.3180 C   0  0  1  0  0  3  0  0  0  0  0  0
  188.5660  172.2240  138.5930 C   0  0  0  0  0  1  0  0  0  0  0  0
  190.5380  171.7360  143.6190 O   0  0  0  0  0  0  0  0  0  0  0  0
  191.8630  175.5810  145.1230 C   0  0  0  0  0  0  0  0  0  0  0  0
  193.5200  174.3730  146.5130 C   0  0  0  0  0  3  0  0  0  0  0  0
  188.2760  173.5800  140.6340 C   0  0  0  0  0  2  0  0  0  0  0  0
  192.2130  173.3630  143.9740 C   0  0  0  0  0  0  0  0  0  0  0  0
  190.8030  175.2820  142.8740 C   0  0  1  0  0  3  0  0  0  0  0  0
  191.1890  179.0400  143.8880 C   0  0  0  0  0  1  0  0  0  0  0  0
  190.4570  176.8030  142.9150 C   0  0  2  0  0  3  0  0  0  0  0  0
  187.6420  175.6760  141.7520 C   0  0  0  0  0  2  0  0  0  0  0  0
  192.4390  175.1390  146.4080 C   0  0  0  0  0  3  0  0  0  0  0  0
  191.6290  174.7530  144.0630 C   0  0  0  0  0  0  0  0  0  0  0  0
  188.0590  177.0960  142.1220 C   0  0  0  0  0  2  0  0  0  0  0  0
  188.5420  176.4130  144.4080 O   0  0  0  0  0  0  0  0  0  0  0  0
  187.8600  177.3250  145.2180 C   0  0  0  0  0  3  0  0  0  0  0  0
  188.5600  177.4250  146.5570 C   0  0  0  0  0  1  0  0  0  0  0  0
  186.4380  176.8480  145.4380 C   0  0  0  0  0  1  0  0  0  0  0  0
  1 15  2  0  0  0  0
  1 19  1  0  0  0  0
  2 12  1  0  0  0  0
  3 16  1  0  0  0  0
  5  1  1  0  0  0  0
  6 14  1  6  0  0  0
  6  7  1  0  0  0  0
  6 18  1  0  0  0  0
  7 10  1  0  0  0  0
  9 21  1  1  0  0  0
  9  3  1  0  0  0  0
 10  8  1  6  0  0  0
 10  5  1  0  0  0  0
 11 18  1  1  0  0  0
 11 23  1  0  0  0  0
 11  4  1  0  0  0  0
 12 17  1  0  0  0  0
 13 27  1  1  0  0  0
 16 24  1  0  0  0  0
 19 25  1  0  0  0  0
 19  2  2  0  0  0  0
 20  4  1  1  0  0  0
 20 22  1  0  0  0  0
 20 25  1  0  0  0  0
 22 13  1  0  0  0  0
 22  9  1  0  0  0  0
 23 26  1  0  0  0  0
 24 17  2  0  0  0  0
 25 16  2  0  0  0  0
 26 13  1  0  0  0  0
 27 28  1  0  0  0  0
 28 30  1  0  0  0  0
 28 29  1  0  0  0  0
M  END
>  <MODEL>
8

>  <REMARK>
 VINA RESULT:      -6.6      1.698      5.526
  Name = 
  2 active torsions:
  status: ('A' for Active; 'I' for Inactive)
    1  A    between atoms: C_7  and  O_10
    2  A    between atoms: O_10  and  C_15
                            x       y       z     vdW  Elec       q    Type
                         _______ _______ _______ _____ _____    ______ ____

>  <TORSDO>
F 2

$$$$
=
 OpenBabel11052417223D

 30 33  0  0  1  0  0  0  0  0999 V2000
  188.1450  174.5980  141.3610 C   0  0  0  0  0  0  0  0  0  0  0  0
  190.1050  173.7320  140.3540 C   0  0  0  0  0  3  0  0  0  0  0  0
  192.4960  175.1620  143.7060 O   0  0  0  0  0  0  0  0  0  0  0  0
  188.5670  176.1240  143.8180 C   0  0  0  0  0  2  0  0  0  0  0  0
  187.6100  175.5270  140.4710 O   0  0  0  0  0  0  0  0  0  0  0  0
  186.1250  177.9880  142.7810 C   0  0  1  0  0  3  0  0  0  0  0  0
  186.0710  176.8400  141.7880 C   0  0  0  0  0  2  0  0  0  0  0  0
  187.0670  177.7310  139.6940 C   0  0  0  0  0  1  0  0  0  0  0  0
  192.4080  176.5740  143.7330 C   0  0  2  0  0  3  0  0  0  0  0  0
  187.3070  176.8460  140.9020 C   0  0  2  0  0  3  0  0  0  0  0  0
  188.0150  177.4370  144.3590 C   0  0  1  0  0  3  0  0  0  0  0  0
  191.5520  173.4440  140.1550 C   0  0  0  0  0  2  0  0  0  0  0  0
  190.7430  176.8060  145.6380 C   0  0  1  0  0  3  0  0  0  0  0  0
  184.7520  178.6250  142.8620 C   0  0  0  0  0  1  0  0  0  0  0  0
  187.3820  173.9430  142.1210 O   0  0  0  0  0  0  0  0  0  0  0  0
  191.6190  174.4260  142.9070 C   0  0  0  0  0  0  0  0  0  0  0  0
  192.0440  172.6060  141.2810 C   0  0  0  0  0  3  0  0  0  0  0  0
  186.5060  177.4770  144.1630 C   0  0  0  0  0  2  0  0  0  0  0  0
  189.5920  174.3790  141.4080 C   0  0  0  0  0  0  0  0  0  0  0  0
  189.9560  176.2780  143.1800 C   0  0  1  0  0  3  0  0  0  0  0  0
  193.4760  177.1660  144.6390 C   0  0  0  0  0  1  0  0  0  0  0  0
  190.9880  176.9690  144.1230 C   0  0  2  0  0  3  0  0  0  0  0  0
  188.2920  177.4980  145.8540 C   0  0  0  0  0  2  0  0  0  0  0  0
  192.0800  173.0770  142.5230 C   0  0  0  0  0  3  0  0  0  0  0  0
  190.4290  174.9690  142.5180 C   0  0  0  0  0  0  0  0  0  0  0  0
  189.7460  177.8400  146.1630 C   0  0  0  0  0  2  0  0  0  0  0  0
  190.3860  175.4970  145.9990 O   0  0  0  0  0  0  0  0  0  0  0  0
  190.0150  175.5730  147.3440 C   0  0  0  0  0  3  0  0  0  0  0  0
  191.2240  175.2910  148.2130 C   0  0  0  0  0  1  0  0  0  0  0  0
  188.9440  174.5410  147.6370 C   0  0  0  0  0  1  0  0  0  0  0  0
  1 19  1  0  0  0  0
  1 15  2  0  0  0  0
  2 19  2  0  0  0  0
  3  9  1  0  0  0  0
  5 10  1  0  0  0  0
  5  1  1  0  0  0  0
  6 14  1  1  0  0  0
  6 18  1  0  0  0  0
  7  6  1  0  0  0  0
  9 22  1  0  0  0  0
  9 21  1  1  0  0  0
 10  8  1  6  0  0  0
 10  7  1  0  0  0  0
 11  4  1  1  0  0  0
 11 23  1  0  0  0  0
 12  2  1  0  0  0  0
 12 17  1  0  0  0  0
 13 27  1  6  0  0  0
 13 26  1  0  0  0  0
 16  3  1  0  0  0  0
 17 24  2  0  0  0  0
 18 11  1  0  0  0  0
 19 25  1  0  0  0  0
 20  4  1  1  0  0  0
 20 22  1  0  0  0  0
 22 13  1  0  0  0  0
 23 26  1  0  0  0  0
 24 16  1  0  0  0  0
 25 16  2  0  0  0  0
 25 20  1  0  0  0  0
 27 28  1  0  0  0  0
 28 30  1  0  0  0  0
 28 29  1  0  0  0  0
M  END
>  <MODEL>
9

>  <REMARK>
 VINA RESULT:      -6.6      1.819      5.072
  Name = 
  2 active torsions:
  status: ('A' for Active; 'I' for Inactive)
    1  A    between atoms: C_7  and  O_10
    2  A    between atoms: O_10  and  C_15
                            x       y       z     vdW  Elec       q    Type
                         _______ _______ _______ _____ _____    ______ ____

>  <TORSDO>
F 2

$$$$
