=
 OpenBabel11052420273D

 34 39  0  0  1  0  0  0  0  0999 V2000
  191.1080  175.1030  144.9560 C   0  0  1  0  0  3  0  0  0  0  0  0
  193.9540  172.6760  145.6720 C   0  0  0  0  0  2  0  0  0  0  0  0
  191.8410  172.5000  144.2390 C   0  0  0  0  0  3  0  0  0  0  0  0
  189.7140  176.3240  143.7520 N   0  0  0  0  0  0  0  0  0  0  0  0
  190.9040  176.2990  144.4960 N   0  0  0  0  0  2  0  0  0  0  0  0
  188.6960  174.4600  142.5270 C   0  0  0  0  0  2  0  0  0  0  0  0
  188.8410  173.0040  142.2510 C   0  0  0  0  0  3  0  0  0  0  0  0
  189.2770  174.9770  143.6200 C   0  0  1  0  0  3  0  0  0  0  0  0
  190.6150  172.9300  143.9080 C   0  0  0  0  0  0  0  0  0  0  0  0
  190.0400  174.1420  144.5780 C   0  0  1  0  0  3  0  0  0  0  0  0
  189.7790  172.2750  142.8860 C   0  0  0  0  0  3  0  0  0  0  0  0
  195.1470  173.3180  145.1370 N   0  0  0  0  0  0  0  0  0  0  0  0
  195.4940  174.5500  145.3650 C   0  0  0  0  0  0  0  0  0  0  0  0
  194.6420  175.4850  146.1450 C   0  0  0  0  0  3  0  0  0  0  0  0
  192.7180  173.3120  145.1350 C   0  0  0  0  0  0  0  0  0  0  0  0
  193.3060  175.5080  146.1690 C   0  0  0  0  0  3  0  0  0  0  0  0
  192.4080  174.5990  145.4260 C   0  0  0  0  0  0  0  0  0  0  0  0
  196.7250  174.9870  144.8620 O   0  0  0  0  0  0  0  0  0  0  0  0
  196.9520  175.2660  143.4850 C   0  0  0  0  0  2  0  0  0  0  0  0
  196.8220  176.7540  143.2260 C   0  0  0  0  0  1  0  0  0  0  0  0
  189.3990  177.3930  142.8140 C   0  0  0  0  0  2  0  0  0  0  0  0
  185.8590  178.0290  144.0040 C   0  0  0  0  0  3  0  0  0  0  0  0
  187.2410  177.7040  141.5850 C   0  0  0  0  0  3  0  0  0  0  0  0
  183.0870  178.3610  141.5670 C   0  0  0  0  0  0  0  0  0  0  0  0
  183.7850  178.3060  142.7820 C   0  0  0  0  0  3  0  0  0  0  0  0
  185.1650  178.0870  142.7930 C   0  0  0  0  0  0  0  0  0  0  0  0
  185.1660  177.9790  140.3640 C   0  0  0  0  0  3  0  0  0  0  0  0
  185.8610  177.9230  141.5740 C   0  0  0  0  0  0  0  0  0  0  0  0
  183.7860  178.1970  140.3610 C   0  0  0  0  0  3  0  0  0  0  0  0
  187.9320  177.6540  142.8010 C   0  0  0  0  0  0  0  0  0  0  0  0
  187.2400  177.8100  144.0070 C   0  0  0  0  0  3  0  0  0  0  0  0
  181.6330  178.5910  141.5620 C   0  0  0  0  0  0  0  0  0  0  0  0
  180.9160  178.1240  140.6380 O   0  0  0  0  0  0  0  0  0  0  0  0
  181.0380  179.3280  142.5800 O   0  0  0  0  0  1  0  0  0  0  0  0
  1  5  1  6  0  0  0
  1 17  1  0  0  0  0
  3 15  1  0  0  0  0
  4  5  1  0  0  0  0
  7  6  1  0  0  0  0
  7 11  2  0  0  0  0
  8  6  1  6  0  0  0
  8  4  1  0  0  0  0
  8 10  1  0  0  0  0
  9  3  2  0  0  0  0
 10  9  1  6  0  0  0
 10  1  1  0  0  0  0
 11  9  1  0  0  0  0
 12 13  2  0  0  0  0
 12  2  1  0  0  0  0
 13 14  1  0  0  0  0
 14 16  2  0  0  0  0
 15 17  2  0  0  0  0
 15  2  1  0  0  0  0
 17 16  1  0  0  0  0
 18 13  1  0  0  0  0
 19 18  1  0  0  0  0
 20 19  1  0  0  0  0
 21  4  1  0  0  0  0
 22 31  1  0  0  0  0
 23 30  1  0  0  0  0
 24 25  2  0  0  0  0
 25 26  1  0  0  0  0
 26 22  2  0  0  0  0
 27 28  1  0  0  0  0
 28 23  2  0  0  0  0
 28 26  1  0  0  0  0
 29 27  2  0  0  0  0
 29 24  1  0  0  0  0
 30 21  1  0  0  0  0
 30 31  2  0  0  0  0
 32 24  1  0  0  0  0
 32 34  1  0  0  0  0
 33 32  2  0  0  0  0
M  END
>  <MODEL>
1

>  <REMARK>
 VINA RESULT:      -8.6      0.000      0.000
  Name = 
  5 active torsions:
  status: ('A' for Active; 'I' for Inactive)
    1  A    between atoms: O_3  and  C_13
    2  A    between atoms: O_3  and  C_25
    3  A    between atoms: C_7  and  C_11
    4  A    between atoms: N_8  and  C_18
    5  A    between atoms: C_18  and  C_30
                            x       y       z     vdW  Elec       q    Type
                         _______ _______ _______ _____ _____    ______ ____

>  <TORSDO>
F 5

$$$$
=
 OpenBabel11052420273D

 34 39  0  0  1  0  0  0  0  0999 V2000
  193.6880  173.1560  144.4930 C   0  0  1  0  0  3  0  0  0  0  0  0
  197.3180  172.0930  144.9430 C   0  0  0  0  0  2  0  0  0  0  0  0
  195.9970  174.1390  145.7310 C   0  0  0  0  0  3  0  0  0  0  0  0
  191.6570  173.7970  145.0790 N   0  0  0  0  0  0  0  0  0  0  0  0
  192.4840  172.7250  144.7120 N   0  0  0  0  0  2  0  0  0  0  0  0
  192.3290  175.8680  146.2060 C   0  0  0  0  0  2  0  0  0  0  0  0
  193.5180  176.6130  146.7040 C   0  0  0  0  0  3  0  0  0  0  0  0
  192.4970  174.9300  145.2630 C   0  0  1  0  0  3  0  0  0  0  0  0
  194.9300  174.9460  145.6410 C   0  0  0  0  0  0  0  0  0  0  0  0
  193.8260  174.6240  144.6800 C   0  0  1  0  0  3  0  0  0  0  0  0
  194.7640  176.1580  146.4640 C   0  0  0  0  0  3  0  0  0  0  0  0
  197.2610  170.8510  145.7020 N   0  0  0  0  0  0  0  0  0  0  0  0
  196.4930  169.8410  145.4190 C   0  0  0  0  0  0  0  0  0  0  0  0
  195.5030  169.8810  144.3110 C   0  0  0  0  0  3  0  0  0  0  0  0
  196.0230  172.8270  145.0190 C   0  0  0  0  0  0  0  0  0  0  0  0
  194.8070  170.9490  143.9080 C   0  0  0  0  0  3  0  0  0  0  0  0
  194.8910  172.3080  144.4820 C   0  0  0  0  0  0  0  0  0  0  0  0
  196.6310  168.6790  146.1850 O   0  0  0  0  0  0  0  0  0  0  0  0
  196.2570  168.5960  147.5550 C   0  0  0  0  0  2  0  0  0  0  0  0
  194.7450  168.5800  147.6830 C   0  0  0  0  0  1  0  0  0  0  0  0
  190.3710  173.6040  145.7380 C   0  0  0  0  0  2  0  0  0  0  0  0
  188.3340  175.8880  143.5040 C   0  0  0  0  0  3  0  0  0  0  0  0
  188.6980  175.3960  146.2420 C   0  0  0  0  0  3  0  0  0  0  0  0
  186.0240  178.3850  144.9750 C   0  0  0  0  0  0  0  0  0  0  0  0
  186.7350  177.6300  144.0300 C   0  0  0  0  0  3  0  0  0  0  0  0
  187.6240  176.6370  144.4460 C   0  0  0  0  0  0  0  0  0  0  0  0
  187.1000  177.1400  146.7660 C   0  0  0  0  0  3  0  0  0  0  0  0
  187.8080  176.3890  145.8250 C   0  0  0  0  0  0  0  0  0  0  0  0
  186.2120  178.1330  146.3430 C   0  0  0  0  0  3  0  0  0  0  0  0
  189.4010  174.6440  145.2930 C   0  0  0  0  0  0  0  0  0  0  0  0
  189.2230  174.8950  143.9280 C   0  0  0  0  0  3  0  0  0  0  0  0
  185.0880  179.4300  144.5290 C   0  0  0  0  0  0  0  0  0  0  0  0
  185.5210  180.5160  144.0590 O   0  0  0  0  0  0  0  0  0  0  0  0
  183.7160  179.2290  144.6250 O   0  0  0  0  0  1  0  0  0  0  0  0
  1 17  1  1  0  0  0
  1 10  1  0  0  0  0
  1  5  1  0  0  0  0
  2 15  1  0  0  0  0
  2 12  1  0  0  0  0
  4  8  1  0  0  0  0
  4 21  1  0  0  0  0
  5  4  1  0  0  0  0
  6  7  1  0  0  0  0
  8  6  1  1  0  0  0
  9  3  2  0  0  0  0
  9 11  1  0  0  0  0
 10  8  1  0  0  0  0
 10  9  1  1  0  0  0
 11  7  2  0  0  0  0
 13 12  2  0  0  0  0
 13 18  1  0  0  0  0
 14 13  1  0  0  0  0
 15  3  1  0  0  0  0
 16 14  2  0  0  0  0
 16 17  1  0  0  0  0
 17 15  2  0  0  0  0
 18 19  1  0  0  0  0
 19 20  1  0  0  0  0
 22 31  2  0  0  0  0
 22 26  1  0  0  0  0
 24 29  1  0  0  0  0
 25 26  1  0  0  0  0
 25 24  2  0  0  0  0
 26 28  2  0  0  0  0
 28 23  1  0  0  0  0
 28 27  1  0  0  0  0
 29 27  2  0  0  0  0
 30 21  1  0  0  0  0
 30 23  2  0  0  0  0
 31 30  1  0  0  0  0
 32 34  1  0  0  0  0
 32 24  1  0  0  0  0
 33 32  2  0  0  0  0
M  END
>  <MODEL>
2

>  <REMARK>
 VINA RESULT:      -8.5      2.774      5.132
  Name = 
  5 active torsions:
  status: ('A' for Active; 'I' for Inactive)
    1  A    between atoms: O_3  and  C_13
    2  A    between atoms: O_3  and  C_25
    3  A    between atoms: C_7  and  C_11
    4  A    between atoms: N_8  and  C_18
    5  A    between atoms: C_18  and  C_30
                            x       y       z     vdW  Elec       q    Type
                         _______ _______ _______ _____ _____    ______ ____

>  <TORSDO>
F 5

$$$$
=
 OpenBabel11052420273D

 34 39  0  0  1  0  0  0  0  0999 V2000
  189.2910  177.4820  144.3170 C   0  0  1  0  0  3  0  0  0  0  0  0
  191.4360  176.6820  147.3610 C   0  0  0  0  0  2  0  0  0  0  0  0
  188.9050  176.6990  146.9750 C   0  0  0  0  0  3  0  0  0  0  0  0
  187.7670  177.1680  142.7480 N   0  0  0  0  0  0  0  0  0  0  0  0
  189.1290  177.1160  143.0830 N   0  0  0  0  0  2  0  0  0  0  0  0
  185.8600  176.8860  144.2630 C   0  0  0  0  0  2  0  0  0  0  0  0
  185.5040  176.7000  145.6970 C   0  0  0  0  0  3  0  0  0  0  0  0
  187.0510  177.4170  143.9520 C   0  0  1  0  0  3  0  0  0  0  0  0
  187.8350  177.0770  146.2610 C   0  0  0  0  0  0  0  0  0  0  0  0
  188.0180  177.8490  144.9890 C   0  0  1  0  0  3  0  0  0  0  0  0
  186.4500  176.7590  146.6530 C   0  0  0  0  0  3  0  0  0  0  0  0
  192.2240  175.5180  146.9770 N   0  0  0  0  0  0  0  0  0  0  0  0
  192.8960  175.4070  145.8700 C   0  0  0  0  0  0  0  0  0  0  0  0
  192.8610  176.4490  144.8110 C   0  0  0  0  0  3  0  0  0  0  0  0
  190.2860  176.8780  146.4330 C   0  0  0  0  0  0  0  0  0  0  0  0
  191.8140  177.2160  144.4870 C   0  0  0  0  0  3  0  0  0  0  0  0
  190.4830  177.1830  145.1270 C   0  0  0  0  0  0  0  0  0  0  0  0
  193.6880  174.2670  145.6970 O   0  0  0  0  0  0  0  0  0  0  0  0
  193.1970  173.0510  145.1450 C   0  0  0  0  0  2  0  0  0  0  0  0
  193.1530  173.1440  143.6320 C   0  0  0  0  0  1  0  0  0  0  0  0
  187.2190  176.4810  141.5860 C   0  0  0  0  0  2  0  0  0  0  0  0
  189.0160  173.7120  139.7270 C   0  0  0  0  0  3  0  0  0  0  0  0
  188.3430  174.3860  142.3660 C   0  0  0  0  0  3  0  0  0  0  0  0
  190.4400  170.8280  141.5680 C   0  0  0  0  0  0  0  0  0  0  0  0
  190.0770  171.6820  140.5160 C   0  0  0  0  0  3  0  0  0  0  0  0
  189.3800  172.8640  140.7760 C   0  0  0  0  0  0  0  0  0  0  0  0
  189.4020  172.3540  143.1530 C   0  0  0  0  0  3  0  0  0  0  0  0
  189.0400  173.2040  142.1050 C   0  0  0  0  0  0  0  0  0  0  0  0
  190.0990  171.1720  142.8860 C   0  0  0  0  0  3  0  0  0  0  0  0
  187.9870  175.2340  141.3110 C   0  0  0  0  0  0  0  0  0  0  0  0
  188.3180  174.8940  139.9950 C   0  0  0  0  0  3  0  0  0  0  0  0
  191.1740  169.5840  141.2870 C   0  0  0  0  0  0  0  0  0  0  0  0
  192.2530  169.6120  140.6370 O   0  0  0  0  0  0  0  0  0  0  0  0
  190.6820  168.3640  141.7380 O   0  0  0  0  0  1  0  0  0  0  0  0
  1  5  1  1  0  0  0
  1 10  1  0  0  0  0
  1 17  1  0  0  0  0
  4  5  1  0  0  0  0
  4  8  1  0  0  0  0
  6  7  1  0  0  0  0
  7 11  2  0  0  0  0
  8  6  1  1  0  0  0
  8 10  1  0  0  0  0
  9 11  1  0  0  0  0
  9  3  2  0  0  0  0
 10  9  1  1  0  0  0
 12  2  1  0  0  0  0
 13 12  2  0  0  0  0
 14 13  1  0  0  0  0
 15  3  1  0  0  0  0
 15  2  1  0  0  0  0
 16 14  2  0  0  0  0
 16 17  1  0  0  0  0
 17 15  2  0  0  0  0
 18 13  1  0  0  0  0
 19 18  1  0  0  0  0
 20 19  1  0  0  0  0
 21  4  1  0  0  0  0
 22 31  2  0  0  0  0
 22 26  1  0  0  0  0
 24 29  1  0  0  0  0
 25 26  1  0  0  0  0
 25 24  2  0  0  0  0
 26 28  2  0  0  0  0
 28 23  1  0  0  0  0
 28 27  1  0  0  0  0
 29 27  2  0  0  0  0
 30 21  1  0  0  0  0
 30 23  2  0  0  0  0
 31 30  1  0  0  0  0
 32 24  1  0  0  0  0
 32 34  1  0  0  0  0
 33 32  2  0  0  0  0
M  END
>  <MODEL>
3

>  <REMARK>
 VINA RESULT:      -8.2      4.143      6.616
  Name = 
  5 active torsions:
  status: ('A' for Active; 'I' for Inactive)
    1  A    between atoms: O_3  and  C_13
    2  A    between atoms: O_3  and  C_25
    3  A    between atoms: C_7  and  C_11
    4  A    between atoms: N_8  and  C_18
    5  A    between atoms: C_18  and  C_30
                            x       y       z     vdW  Elec       q    Type
                         _______ _______ _______ _____ _____    ______ ____

>  <TORSDO>
F 5

$$$$
=
 OpenBabel11052420273D

 34 39  0  0  1  0  0  0  0  0999 V2000
  191.4130  174.8850  143.5980 C   0  0  1  0  0  3  0  0  0  0  0  0
  190.7310  171.3420  142.3790 C   0  0  0  0  0  2  0  0  0  0  0  0
  189.9990  172.6320  144.4650 C   0  0  0  0  0  3  0  0  0  0  0  0
  190.9580  176.9260  144.3120 N   0  0  0  0  0  0  0  0  0  0  0  0
  191.2860  176.1180  143.2130 N   0  0  0  0  0  2  0  0  0  0  0  0
  189.7480  176.2510  146.3360 C   0  0  0  0  0  2  0  0  0  0  0  0
  189.1540  175.0720  147.0230 C   0  0  0  0  0  3  0  0  0  0  0  0
  190.6950  176.0560  145.4070 C   0  0  1  0  0  3  0  0  0  0  0  0
  190.1480  173.6570  145.3160 C   0  0  0  0  0  0  0  0  0  0  0  0
  191.1890  174.7030  145.0560 C   0  0  1  0  0  3  0  0  0  0  0  0
  189.3160  173.8310  146.5210 C   0  0  0  0  0  3  0  0  0  0  0  0
  190.0020  171.5020  141.1290 N   0  0  0  0  0  0  0  0  0  0  0  0
  190.3570  172.2870  140.1550 C   0  0  0  0  0  0  0  0  0  0  0  0
  191.5300  173.1950  140.2540 C   0  0  0  0  0  3  0  0  0  0  0  0
  190.7320  172.6090  143.1640 C   0  0  0  0  0  0  0  0  0  0  0  0
  191.9600  173.8170  141.3560 C   0  0  0  0  0  3  0  0  0  0  0  0
  191.3560  173.7200  142.7010 C   0  0  0  0  0  0  0  0  0  0  0  0
  189.6050  172.2500  138.9770 O   0  0  0  0  0  0  0  0  0  0  0  0
  189.4200  173.3790  138.1300 C   0  0  0  0  0  2  0  0  0  0  0  0
  188.1930  174.1600  138.5620 C   0  0  0  0  0  1  0  0  0  0  0  0
  190.3940  178.2610  144.1630 C   0  0  0  0  0  2  0  0  0  0  0  0
  187.8840  178.0470  141.3330 C   0  0  0  0  0  3  0  0  0  0  0  0
  187.8920  178.2920  144.1280 C   0  0  0  0  0  3  0  0  0  0  0  0
  184.2470  178.1910  142.0310 C   0  0  0  0  0  0  0  0  0  0  0  0
  185.4620  178.1010  141.3360 C   0  0  0  0  0  3  0  0  0  0  0  0
  186.6750  178.1340  142.0270 C   0  0  0  0  0  0  0  0  0  0  0  0
  185.4700  178.3480  144.1290 C   0  0  0  0  0  3  0  0  0  0  0  0
  186.6790  178.2580  143.4350 C   0  0  0  0  0  0  0  0  0  0  0  0
  184.2600  178.3140  143.4300 C   0  0  0  0  0  3  0  0  0  0  0  0
  189.1000  178.1970  143.4270 C   0  0  0  0  0  0  0  0  0  0  0  0
  189.0940  178.0810  142.0330 C   0  0  0  0  0  3  0  0  0  0  0  0
  182.9720  178.1560  141.2960 C   0  0  0  0  0  0  0  0  0  0  0  0
  182.9170  177.6640  140.1380 O   0  0  0  0  0  0  0  0  0  0  0  0
  181.8160  178.6670  141.8750 O   0  0  0  0  0  1  0  0  0  0  0  0
  1 17  1  6  0  0  0
  1 10  1  0  0  0  0
  2 15  1  0  0  0  0
  3  9  2  0  0  0  0
  4  8  1  0  0  0  0
  5  1  1  0  0  0  0
  5  4  1  0  0  0  0
  6  7  1  0  0  0  0
  8  6  1  6  0  0  0
  9 11  1  0  0  0  0
 10  9  1  6  0  0  0
 10  8  1  0  0  0  0
 11  7  2  0  0  0  0
 12  2  1  0  0  0  0
 13 14  1  0  0  0  0
 13 12  2  0  0  0  0
 14 16  2  0  0  0  0
 15  3  1  0  0  0  0
 16 17  1  0  0  0  0
 17 15  2  0  0  0  0
 18 13  1  0  0  0  0
 19 20  1  0  0  0  0
 19 18  1  0  0  0  0
 21  4  1  0  0  0  0
 22 26  2  0  0  0  0
 22 31  1  0  0  0  0
 24 29  1  0  0  0  0
 25 26  1  0  0  0  0
 25 24  2  0  0  0  0
 26 28  1  0  0  0  0
 28 23  2  0  0  0  0
 28 27  1  0  0  0  0
 29 27  2  0  0  0  0
 30 23  1  0  0  0  0
 30 21  1  0  0  0  0
 31 30  2  0  0  0  0
 32 34  1  0  0  0  0
 32 24  1  0  0  0  0
 33 32  2  0  0  0  0
M  END
>  <MODEL>
4

>  <REMARK>
 VINA RESULT:      -8.1      2.871      4.429
  Name = 
  5 active torsions:
  status: ('A' for Active; 'I' for Inactive)
    1  A    between atoms: O_3  and  C_13
    2  A    between atoms: O_3  and  C_25
    3  A    between atoms: C_7  and  C_11
    4  A    between atoms: N_8  and  C_18
    5  A    between atoms: C_18  and  C_30
                            x       y       z     vdW  Elec       q    Type
                         _______ _______ _______ _____ _____    ______ ____

>  <TORSDO>
F 5

$$$$
=
 OpenBabel11052420273D

 34 39  0  0  1  0  0  0  0  0999 V2000
  189.3330  177.6110  144.5370 C   0  0  1  0  0  3  0  0  0  0  0  0
  191.6310  176.1540  147.2020 C   0  0  0  0  0  2  0  0  0  0  0  0
  189.0870  176.3790  147.0370 C   0  0  0  0  0  3  0  0  0  0  0  0
  187.6820  177.6710  143.0700 N   0  0  0  0  0  0  0  0  0  0  0  0
  189.0580  177.4850  143.2750 N   0  0  0  0  0  2  0  0  0  0  0  0
  185.8740  177.2220  144.6640 C   0  0  0  0  0  2  0  0  0  0  0  0
  185.6100  176.7970  146.0660 C   0  0  0  0  0  3  0  0  0  0  0  0
  187.0730  177.7360  144.3540 C   0  0  1  0  0  3  0  0  0  0  0  0
  187.9970  176.9390  146.4930 C   0  0  0  0  0  0  0  0  0  0  0  0
  188.1400  177.9180  145.3670 C   0  0  1  0  0  3  0  0  0  0  0  0
  186.6250  176.6300  146.9360 C   0  0  0  0  0  3  0  0  0  0  0  0
  192.3080  175.0390  146.5540 N   0  0  0  0  0  0  0  0  0  0  0  0
  192.8900  175.0950  145.3930 C   0  0  0  0  0  0  0  0  0  0  0  0
  192.8500  176.3130  144.5420 C   0  0  0  0  0  3  0  0  0  0  0  0
  190.4340  176.5780  146.4230 C   0  0  0  0  0  0  0  0  0  0  0  0
  191.8380  177.1810  144.4480 C   0  0  0  0  0  3  0  0  0  0  0  0
  190.5570  177.1050  145.1800 C   0  0  0  0  0  0  0  0  0  0  0  0
  193.5870  173.9640  144.9550 O   0  0  0  0  0  0  0  0  0  0  0  0
  192.9550  172.7300  144.6360 C   0  0  0  0  0  2  0  0  0  0  0  0
  191.8000  172.9660  143.6800 C   0  0  0  0  0  1  0  0  0  0  0  0
  187.0060  177.2390  141.8530 C   0  0  0  0  0  2  0  0  0  0  0  0
  188.2450  173.6610  141.9910 C   0  0  0  0  0  3  0  0  0  0  0  0
  187.7900  175.6610  140.0760 C   0  0  0  0  0  3  0  0  0  0  0  0
  189.2940  171.9150  138.8950 C   0  0  0  0  0  0  0  0  0  0  0  0
  189.0170  172.1670  140.2470 C   0  0  0  0  0  3  0  0  0  0  0  0
  188.5180  173.4100  140.6440 C   0  0  0  0  0  0  0  0  0  0  0  0
  188.5640  174.1660  138.3330 C   0  0  0  0  0  3  0  0  0  0  0  0
  188.2890  174.4170  139.6800 C   0  0  0  0  0  0  0  0  0  0  0  0
  189.0650  172.9210  137.9440 C   0  0  0  0  0  3  0  0  0  0  0  0
  187.5120  175.9040  141.4260 C   0  0  0  0  0  0  0  0  0  0  0  0
  187.7450  174.9080  142.3810 C   0  0  0  0  0  3  0  0  0  0  0  0
  189.8210  170.6030  138.4840 C   0  0  0  0  0  0  0  0  0  0  0  0
  189.6880  170.2060  137.2950 O   0  0  0  0  0  0  0  0  0  0  0  0
  190.4710  169.7890  139.4050 O   0  0  0  0  0  1  0  0  0  0  0  0
  1  5  1  6  0  0  0
  1 17  1  0  0  0  0
  1 10  1  0  0  0  0
  4  5  1  0  0  0  0
  4  8  1  0  0  0  0
  6  7  1  0  0  0  0
  7 11  2  0  0  0  0
  8  6  1  1  0  0  0
  8 10  1  0  0  0  0
  9 11  1  0  0  0  0
  9  3  2  0  0  0  0
 10  9  1  1  0  0  0
 12  2  1  0  0  0  0
 13 12  2  0  0  0  0
 14 13  1  0  0  0  0
 15  3  1  0  0  0  0
 15  2  1  0  0  0  0
 16 14  2  0  0  0  0
 16 17  1  0  0  0  0
 17 15  2  0  0  0  0
 18 13  1  0  0  0  0
 19 18  1  0  0  0  0
 20 19  1  0  0  0  0
 21  4  1  0  0  0  0
 22 31  1  0  0  0  0
 23 30  1  0  0  0  0
 24 25  2  0  0  0  0
 25 26  1  0  0  0  0
 26 22  2  0  0  0  0
 27 28  1  0  0  0  0
 28 23  2  0  0  0  0
 28 26  1  0  0  0  0
 29 27  2  0  0  0  0
 29 24  1  0  0  0  0
 30 21  1  0  0  0  0
 30 31  2  0  0  0  0
 32 24  1  0  0  0  0
 32 34  1  0  0  0  0
 33 32  2  0  0  0  0
M  END
>  <MODEL>
5

>  <REMARK>
 VINA RESULT:      -8.0      3.950      6.002
  Name = 
  5 active torsions:
  status: ('A' for Active; 'I' for Inactive)
    1  A    between atoms: O_3  and  C_13
    2  A    between atoms: O_3  and  C_25
    3  A    between atoms: C_7  and  C_11
    4  A    between atoms: N_8  and  C_18
    5  A    between atoms: C_18  and  C_30
                            x       y       z     vdW  Elec       q    Type
                         _______ _______ _______ _____ _____    ______ ____

>  <TORSDO>
F 5

$$$$
=
 OpenBabel11052420273D

 34 39  0  0  1  0  0  0  0  0999 V2000
  194.6930  173.6740  142.9870 C   0  0  1  0  0  3  0  0  0  0  0  0
  193.3340  170.2020  142.2070 C   0  0  0  0  0  2  0  0  0  0  0  0
  194.9620  171.0710  143.9810 C   0  0  0  0  0  3  0  0  0  0  0  0
  195.1580  175.4640  144.1940 N   0  0  0  0  0  0  0  0  0  0  0  0
  194.2790  174.8680  143.2780 N   0  0  0  0  0  2  0  0  0  0  0  0
  196.5610  174.3280  145.8540 C   0  0  0  0  0  2  0  0  0  0  0  0
  196.9730  172.9790  146.3310 C   0  0  0  0  0  3  0  0  0  0  0  0
  196.0720  174.4570  144.6110 C   0  0  1  0  0  3  0  0  0  0  0  0
  195.7970  172.0170  144.4370 C   0  0  0  0  0  0  0  0  0  0  0  0
  195.9510  173.3050  143.6860 C   0  0  1  0  0  3  0  0  0  0  0  0
  196.5830  171.8690  145.6750 C   0  0  0  0  0  3  0  0  0  0  0  0
  191.8970  170.2960  142.4280 N   0  0  0  0  0  0  0  0  0  0  0  0
  191.1310  171.2330  141.9520 C   0  0  0  0  0  0  0  0  0  0  0  0
  191.6690  172.3860  141.1840 C   0  0  0  0  0  3  0  0  0  0  0  0
  194.0470  171.3510  142.8330 C   0  0  0  0  0  0  0  0  0  0  0  0
  192.8470  172.9880  141.3780 C   0  0  0  0  0  3  0  0  0  0  0  0
  193.8540  172.6190  142.3950 C   0  0  0  0  0  0  0  0  0  0  0  0
  189.7530  171.1240  142.1670 O   0  0  0  0  0  0  0  0  0  0  0  0
  189.0110  172.0440  142.9580 C   0  0  0  0  0  2  0  0  0  0  0  0
  189.7400  172.3230  144.2590 C   0  0  0  0  0  1  0  0  0  0  0  0
  194.7910  176.6300  144.9890 C   0  0  0  0  0  2  0  0  0  0  0  0
  191.6810  175.6770  146.9300 C   0  0  0  0  0  3  0  0  0  0  0  0
  192.3710  177.1730  144.6590 C   0  0  0  0  0  3  0  0  0  0  0  0
  188.3420  176.8420  145.8210 C   0  0  0  0  0  0  0  0  0  0  0  0
  189.3440  176.2060  146.5690 C   0  0  0  0  0  3  0  0  0  0  0  0
  190.6830  176.3130  146.1870 C   0  0  0  0  0  0  0  0  0  0  0  0
  190.0330  177.7000  144.2980 C   0  0  0  0  0  3  0  0  0  0  0  0
  191.0310  177.0660  145.0430 C   0  0  0  0  0  0  0  0  0  0  0  0
  188.6950  177.5870  144.6860 C   0  0  0  0  0  3  0  0  0  0  0  0
  193.3660  176.5390  145.4120 C   0  0  0  0  0  0  0  0  0  0  0  0
  193.0190  175.7880  146.5410 C   0  0  0  0  0  3  0  0  0  0  0  0
  186.9320  176.7240  146.2290 C   0  0  0  0  0  0  0  0  0  0  0  0
  186.6220  176.6880  147.4490 O   0  0  0  0  0  1  0  0  0  0  0  0
  185.9300  176.6520  145.2690 O   0  0  0  0  0  0  0  0  0  0  0  0
  1 17  1  1  0  0  0
  1  5  1  0  0  0  0
  1 10  1  0  0  0  0
  2 12  1  0  0  0  0
  2 15  1  0  0  0  0
  3  9  2  0  0  0  0
  4  8  1  0  0  0  0
  4 21  1  0  0  0  0
  5  4  1  0  0  0  0
  6  7  1  0  0  0  0
  8  6  1  1  0  0  0
  9 11  1  0  0  0  0
 10  9  1  1  0  0  0
 10  8  1  0  0  0  0
 11  7  2  0  0  0  0
 13 18  1  0  0  0  0
 13 12  2  0  0  0  0
 14 16  2  0  0  0  0
 14 13  1  0  0  0  0
 15  3  1  0  0  0  0
 16 17  1  0  0  0  0
 17 15  2  0  0  0  0
 18 19  1  0  0  0  0
 19 20  1  0  0  0  0
 21 30  1  0  0  0  0
 23 28  2  0  0  0  0
 23 30  1  0  0  0  0
 24 32  1  0  0  0  0
 24 25  2  0  0  0  0
 26 25  1  0  0  0  0
 26 22  2  0  0  0  0
 27 29  2  0  0  0  0
 27 28  1  0  0  0  0
 28 26  1  0  0  0  0
 29 24  1  0  0  0  0
 30 31  2  0  0  0  0
 31 22  1  0  0  0  0
 32 33  1  0  0  0  0
 34 32  2  0  0  0  0
M  END
>  <MODEL>
6

>  <REMARK>
 VINA RESULT:      -8.0      3.890      6.500
  Name = 
  5 active torsions:
  status: ('A' for Active; 'I' for Inactive)
    1  A    between atoms: O_3  and  C_13
    2  A    between atoms: O_3  and  C_25
    3  A    between atoms: C_7  and  C_11
    4  A    between atoms: N_8  and  C_18
    5  A    between atoms: C_18  and  C_30
                            x       y       z     vdW  Elec       q    Type
                         _______ _______ _______ _____ _____    ______ ____

>  <TORSDO>
F 5

$$$$
=
 OpenBabel11052420273D

 34 39  0  0  1  0  0  0  0  0999 V2000
  192.5160  173.0910  144.6110 C   0  0  1  0  0  3  0  0  0  0  0  0
  195.9240  171.6100  145.4500 C   0  0  0  0  0  2  0  0  0  0  0  0
  193.9550  170.7560  144.0540 C   0  0  0  0  0  3  0  0  0  0  0  0
  190.8460  173.7920  143.3470 N   0  0  0  0  0  0  0  0  0  0  0  0
  191.9890  174.1490  144.0770 N   0  0  0  0  0  2  0  0  0  0  0  0
  190.4000  171.6420  142.2550 C   0  0  0  0  0  2  0  0  0  0  0  0
  190.9490  170.2700  142.0710 C   0  0  0  0  0  3  0  0  0  0  0  0
  190.8040  172.3700  143.3050 C   0  0  1  0  0  3  0  0  0  0  0  0
  192.6600  170.8040  143.7100 C   0  0  0  0  0  0  0  0  0  0  0  0
  191.7640  171.8460  144.3070 C   0  0  1  0  0  3  0  0  0  0  0  0
  192.0490  169.8750  142.7410 C   0  0  0  0  0  3  0  0  0  0  0  0
  196.8930  172.5240  144.8620 N   0  0  0  0  0  0  0  0  0  0  0  0
  196.8790  173.8160  145.0060 C   0  0  0  0  0  0  0  0  0  0  0  0
  195.7930  174.5230  145.7350 C   0  0  0  0  0  3  0  0  0  0  0  0
  194.5630  171.8380  144.8870 C   0  0  0  0  0  0  0  0  0  0  0  0
  194.5040  174.1720  145.7710 C   0  0  0  0  0  3  0  0  0  0  0  0
  193.9030  173.0020  145.0980 C   0  0  0  0  0  0  0  0  0  0  0  0
  197.9410  174.5470  144.4640 O   0  0  0  0  0  0  0  0  0  0  0  0
  197.9290  175.0830  143.1450 C   0  0  0  0  0  2  0  0  0  0  0  0
  197.2570  176.4430  143.1400 C   0  0  0  0  0  1  0  0  0  0  0  0
  190.2500  174.6670  142.3450 C   0  0  0  0  0  2  0  0  0  0  0  0
  186.8410  176.3030  142.5700 C   0  0  0  0  0  3  0  0  0  0  0  0
  189.0070  175.7080  144.2510 C   0  0  0  0  0  3  0  0  0  0  0  0
  185.6290  177.6880  145.7870 C   0  0  0  0  0  0  0  0  0  0  0  0
  185.6750  177.3220  144.4330 C   0  0  0  0  0  3  0  0  0  0  0  0
  186.7950  176.6650  143.9180 C   0  0  0  0  0  0  0  0  0  0  0  0
  187.8410  176.7300  146.1130 C   0  0  0  0  0  3  0  0  0  0  0  0
  187.8860  176.3660  144.7650 C   0  0  0  0  0  0  0  0  0  0  0  0
  186.7170  177.3880  146.6210 C   0  0  0  0  0  3  0  0  0  0  0  0
  189.0440  175.3430  142.9000 C   0  0  0  0  0  0  0  0  0  0  0  0
  187.9650  175.6450  142.0620 C   0  0  0  0  0  3  0  0  0  0  0  0
  184.4460  178.3810  146.3230 C   0  0  0  0  0  0  0  0  0  0  0  0
  184.2120  178.3800  147.5600 O   0  0  0  0  0  1  0  0  0  0  0  0
  183.5750  179.0450  145.4650 O   0  0  0  0  0  0  0  0  0  0  0  0
  1  5  1  6  0  0  0
  1 17  1  0  0  0  0
  3 15  1  0  0  0  0
  4  5  1  0  0  0  0
  7  6  1  0  0  0  0
  7 11  2  0  0  0  0
  8  6  1  6  0  0  0
  8  4  1  0  0  0  0
  8 10  1  0  0  0  0
  9  3  2  0  0  0  0
 10  9  1  6  0  0  0
 10  1  1  0  0  0  0
 11  9  1  0  0  0  0
 12 13  2  0  0  0  0
 12  2  1  0  0  0  0
 13 14  1  0  0  0  0
 14 16  2  0  0  0  0
 15 17  2  0  0  0  0
 15  2  1  0  0  0  0
 17 16  1  0  0  0  0
 18 13  1  0  0  0  0
 19 18  1  0  0  0  0
 20 19  1  0  0  0  0
 21 30  1  0  0  0  0
 21  4  1  0  0  0  0
 22 26  1  0  0  0  0
 23 28  1  0  0  0  0
 24 32  1  0  0  0  0
 24 29  1  0  0  0  0
 25 24  2  0  0  0  0
 26 25  1  0  0  0  0
 26 28  2  0  0  0  0
 27 29  2  0  0  0  0
 28 27  1  0  0  0  0
 30 23  2  0  0  0  0
 31 22  2  0  0  0  0
 31 30  1  0  0  0  0
 32 33  1  0  0  0  0
 34 32  2  0  0  0  0
M  END
>  <MODEL>
7

>  <REMARK>
 VINA RESULT:      -7.8      2.376      3.481
  Name = 
  5 active torsions:
  status: ('A' for Active; 'I' for Inactive)
    1  A    between atoms: O_3  and  C_13
    2  A    between atoms: O_3  and  C_25
    3  A    between atoms: C_7  and  C_11
    4  A    between atoms: N_8  and  C_18
    5  A    between atoms: C_18  and  C_30
                            x       y       z     vdW  Elec       q    Type
                         _______ _______ _______ _____ _____    ______ ____

>  <TORSDO>
F 5

$$$$
=
 OpenBabel11052420273D

 34 39  0  0  1  0  0  0  0  0999 V2000
  194.0220  175.5370  142.1730 C   0  0  1  0  0  3  0  0  0  0  0  0
  197.3890  175.3240  140.4050 C   0  0  0  0  0  2  0  0  0  0  0  0
  196.7040  175.1380  142.8650 C   0  0  0  0  0  3  0  0  0  0  0  0
  192.3490  174.9060  143.4710 N   0  0  0  0  0  0  0  0  0  0  0  0
  192.8490  174.9840  142.1620 N   0  0  0  0  0  2  0  0  0  0  0  0
  193.6490  174.7430  145.5440 C   0  0  0  0  0  2  0  0  0  0  0  0
  195.0400  174.7510  146.0730 C   0  0  0  0  0  3  0  0  0  0  0  0
  193.4050  175.2900  144.3440 C   0  0  1  0  0  3  0  0  0  0  0  0
  195.8160  175.3430  143.8480 C   0  0  0  0  0  0  0  0  0  0  0  0
  194.4710  175.9270  143.5350 C   0  0  1  0  0  3  0  0  0  0  0  0
  196.0830  175.0070  145.2590 C   0  0  0  0  0  3  0  0  0  0  0  0
  197.2880  174.1640  139.5300 N   0  0  0  0  0  0  0  0  0  0  0  0
  196.3000  173.9290  138.7180 C   0  0  0  0  0  0  0  0  0  0  0  0
  195.0960  174.7980  138.6580 C   0  0  0  0  0  3  0  0  0  0  0  0
  196.3100  175.3140  141.4340 C   0  0  0  0  0  0  0  0  0  0  0  0
  194.5340  175.4460  139.6840 C   0  0  0  0  0  3  0  0  0  0  0  0
  195.0060  175.4320  141.0840 C   0  0  0  0  0  0  0  0  0  0  0  0
  196.4020  172.8240  137.8670 O   0  0  0  0  0  0  0  0  0  0  0  0
  197.5700  172.5210  137.1140 C   0  0  0  0  0  2  0  0  0  0  0  0
  197.3910  172.9610  135.6730 C   0  0  0  0  0  1  0  0  0  0  0  0
  191.2490  174.0230  143.8390 C   0  0  0  0  0  2  0  0  0  0  0  0
  188.9340  175.1060  146.6360 C   0  0  0  0  0  3  0  0  0  0  0  0
  189.5090  175.8160  143.9830 C   0  0  0  0  0  3  0  0  0  0  0  0
  186.5330  177.8820  146.1210 C   0  0  0  0  0  0  0  0  0  0  0  0
  187.2420  176.8380  146.7320 C   0  0  0  0  0  3  0  0  0  0  0  0
  188.2310  176.1480  146.0270 C   0  0  0  0  0  0  0  0  0  0  0  0
  187.8150  177.5450  144.0800 C   0  0  0  0  0  3  0  0  0  0  0  0
  188.5200  176.5050  144.6900 C   0  0  0  0  0  0  0  0  0  0  0  0
  186.8260  178.2300  144.7930 C   0  0  0  0  0  3  0  0  0  0  0  0
  190.2140  174.7770  144.6010 C   0  0  0  0  0  0  0  0  0  0  0  0
  189.9220  174.4210  145.9230 C   0  0  0  0  0  3  0  0  0  0  0  0
  185.4920  178.6040  146.8700 C   0  0  0  0  0  0  0  0  0  0  0  0
  185.8090  179.4650  147.7330 O   0  0  0  0  0  1  0  0  0  0  0  0
  184.1480  178.3400  146.6310 O   0  0  0  0  0  0  0  0  0  0  0  0
  1 17  1  1  0  0  0
  1 10  1  0  0  0  0
  2 15  1  0  0  0  0
  3  9  2  0  0  0  0
  4 21  1  0  0  0  0
  4  8  1  0  0  0  0
  5  1  1  0  0  0  0
  5  4  1  0  0  0  0
  6  7  1  0  0  0  0
  8  6  1  6  0  0  0
  9 11  1  0  0  0  0
 10  9  1  1  0  0  0
 10  8  1  0  0  0  0
 11  7  2  0  0  0  0
 12  2  1  0  0  0  0
 13 12  2  0  0  0  0
 14 13  1  0  0  0  0
 14 16  2  0  0  0  0
 15  3  1  0  0  0  0
 16 17  1  0  0  0  0
 17 15  2  0  0  0  0
 18 13  1  0  0  0  0
 19 18  1  0  0  0  0
 20 19  1  0  0  0  0
 21 30  1  0  0  0  0
 23 30  2  0  0  0  0
 23 28  1  0  0  0  0
 24 25  1  0  0  0  0
 24 32  1  0  0  0  0
 26 22  1  0  0  0  0
 26 25  2  0  0  0  0
 27 28  2  0  0  0  0
 27 29  1  0  0  0  0
 28 26  1  0  0  0  0
 29 24  2  0  0  0  0
 30 31  1  0  0  0  0
 31 22  2  0  0  0  0
 32 33  1  0  0  0  0
 34 32  2  0  0  0  0
M  END
>  <MODEL>
8

>  <REMARK>
 VINA RESULT:      -7.7      3.690      5.793
  Name = 
  5 active torsions:
  status: ('A' for Active; 'I' for Inactive)
    1  A    between atoms: O_3  and  C_13
    2  A    between atoms: O_3  and  C_25
    3  A    between atoms: C_7  and  C_11
    4  A    between atoms: N_8  and  C_18
    5  A    between atoms: C_18  and  C_30
                            x       y       z     vdW  Elec       q    Type
                         _______ _______ _______ _____ _____    ______ ____

>  <TORSDO>
F 5

$$$$
=
 OpenBabel11052420273D

 34 39  0  0  1  0  0  0  0  0999 V2000
  193.8330  175.0300  142.8730 C   0  0  1  0  0  3  0  0  0  0  0  0
  197.4740  175.0450  141.7540 C   0  0  0  0  0  2  0  0  0  0  0  0
  196.2810  176.0190  143.7990 C   0  0  0  0  0  3  0  0  0  0  0  0
  192.1040  174.6900  144.2050 N   0  0  0  0  0  0  0  0  0  0  0  0
  192.8700  174.2010  143.1370 N   0  0  0  0  0  2  0  0  0  0  0  0
  192.8620  176.1460  146.0260 C   0  0  0  0  0  2  0  0  0  0  0  0
  194.0380  176.9180  146.5130 C   0  0  0  0  0  3  0  0  0  0  0  0
  192.7890  175.8220  144.7270 C   0  0  1  0  0  3  0  0  0  0  0  0
  195.1590  176.4130  144.4190 C   0  0  0  0  0  0  0  0  0  0  0  0
  193.8300  176.2270  143.7520 C   0  0  1  0  0  3  0  0  0  0  0  0
  195.1520  177.0220  145.7620 C   0  0  0  0  0  3  0  0  0  0  0  0
  197.8750  173.6440  141.7430 N   0  0  0  0  0  0  0  0  0  0  0  0
  197.2030  172.6820  141.1840 C   0  0  0  0  0  0  0  0  0  0  0  0
  195.8730  172.9020  140.5570 C   0  0  0  0  0  3  0  0  0  0  0  0
  196.2150  175.2340  142.5300 C   0  0  0  0  0  0  0  0  0  0  0  0
  194.9390  173.7680  140.9620 C   0  0  0  0  0  3  0  0  0  0  0  0
  195.0470  174.6870  142.1140 C   0  0  0  0  0  0  0  0  0  0  0  0
  197.7750  171.4060  141.1690 O   0  0  0  0  0  0  0  0  0  0  0  0
  197.8270  170.5590  142.3120 C   0  0  0  0  0  2  0  0  0  0  0  0
  196.7060  170.9070  143.2720 C   0  0  0  0  0  1  0  0  0  0  0  0
  191.1990  173.8440  144.9720 C   0  0  0  0  0  2  0  0  0  0  0  0
  188.5480  175.2900  147.2600 C   0  0  0  0  0  3  0  0  0  0  0  0
  189.3000  175.4210  144.5600 C   0  0  0  0  0  3  0  0  0  0  0  0
  185.9680  177.5940  145.9280 C   0  0  0  0  0  0  0  0  0  0  0  0
  186.7070  176.8030  146.8200 C   0  0  0  0  0  3  0  0  0  0  0  0
  187.8140  176.0790  146.3710 C   0  0  0  0  0  0  0  0  0  0  0  0
  187.4580  176.9320  144.1220 C   0  0  0  0  0  3  0  0  0  0  0  0
  188.1930  176.1450  145.0110 C   0  0  0  0  0  0  0  0  0  0  0  0
  186.3510  177.6530  144.5780 C   0  0  0  0  0  3  0  0  0  0  0  0
  190.0350  174.6370  145.4580 C   0  0  0  0  0  0  0  0  0  0  0  0
  189.6550  174.5680  146.8030 C   0  0  0  0  0  3  0  0  0  0  0  0
  184.8030  178.3530  146.4080 C   0  0  0  0  0  0  0  0  0  0  0  0
  184.6530  178.5830  147.6370 O   0  0  0  0  0  1  0  0  0  0  0  0
  183.8540  178.8240  145.5060 O   0  0  0  0  0  0  0  0  0  0  0  0
  1 17  1  1  0  0  0
  1  5  1  0  0  0  0
  1 10  1  0  0  0  0
  2 15  1  0  0  0  0
  3  9  2  0  0  0  0
  4  8  1  0  0  0  0
  4 21  1  0  0  0  0
  5  4  1  0  0  0  0
  6  7  1  0  0  0  0
  8  6  1  1  0  0  0
  9 11  1  0  0  0  0
 10  9  1  1  0  0  0
 10  8  1  0  0  0  0
 11  7  2  0  0  0  0
 12  2  1  0  0  0  0
 13 12  2  0  0  0  0
 14 16  2  0  0  0  0
 14 13  1  0  0  0  0
 15  3  1  0  0  0  0
 16 17  1  0  0  0  0
 17 15  2  0  0  0  0
 18 13  1  0  0  0  0
 18 19  1  0  0  0  0
 19 20  1  0  0  0  0
 21 30  1  0  0  0  0
 23 28  2  0  0  0  0
 23 30  1  0  0  0  0
 24 32  1  0  0  0  0
 24 25  2  0  0  0  0
 26 25  1  0  0  0  0
 26 22  2  0  0  0  0
 27 29  2  0  0  0  0
 27 28  1  0  0  0  0
 28 26  1  0  0  0  0
 29 24  1  0  0  0  0
 30 31  2  0  0  0  0
 31 22  1  0  0  0  0
 32 33  1  0  0  0  0
 34 32  2  0  0  0  0
M  END
>  <MODEL>
9

>  <REMARK>
 VINA RESULT:      -7.7      2.950      5.214
  Name = 
  5 active torsions:
  status: ('A' for Active; 'I' for Inactive)
    1  A    between atoms: O_3  and  C_13
    2  A    between atoms: O_3  and  C_25
    3  A    between atoms: C_7  and  C_11
    4  A    between atoms: N_8  and  C_18
    5  A    between atoms: C_18  and  C_30
                            x       y       z     vdW  Elec       q    Type
                         _______ _______ _______ _____ _____    ______ ____

>  <TORSDO>
F 5

$$$$
