=
 OpenBabel11052421323D

 32 34  0  0  1  0  0  0  0  0999 V2000
  188.4730  177.1180  144.3460 C   0  0  0  0  0  0  0  0  0  0  0  0
  185.5410  178.1210  148.0710 C   0  0  0  0  0  2  0  0  0  0  0  0
  184.4940  178.6850  147.0890 C   0  0  0  0  0  2  0  0  0  0  0  0
  187.8440  178.0130  142.0280 C   0  0  0  0  0  0  0  0  0  0  0  0
  186.7500  178.1240  140.9880 C   0  0  2  0  0  3  0  0  0  0  0  0
  186.3290  176.9230  147.5310 C   0  0  0  0  0  2  0  0  0  0  0  0
  188.0880  176.8710  145.6960 C   0  0  0  0  0  0  0  0  0  0  0  0
  185.8520  177.7120  145.2240 C   0  0  0  0  0  0  0  0  0  0  0  0
  186.2120  177.9550  143.8940 C   0  0  0  0  0  0  0  0  0  0  0  0
  184.4610  177.9850  145.7240 C   0  0  0  0  0  2  0  0  0  0  0  0
  186.7830  177.1800  146.1200 C   0  0  0  0  0  0  0  0  0  0  0  0
  185.2210  178.5650  142.9470 C   0  0  0  0  0  2  0  0  0  0  0  0
  189.0280  178.2730  141.6810 O   0  0  0  0  0  0  0  0  0  0  0  0
  187.5240  177.6890  143.4510 C   0  0  0  0  0  0  0  0  0  0  0  0
  185.3420  177.9210  141.5740 C   0  0  1  0  0  3  0  0  0  0  0  0
  190.2180  175.5630  143.4180 C   0  0  0  0  0  3  0  0  0  0  0  0
  189.8190  176.7660  143.8120 C   0  0  0  0  0  3  0  0  0  0  0  0
  192.2790  176.7100  142.7670 C   0  0  0  0  0  1  0  0  0  0  0  0
  191.5970  175.3650  142.9070 C   0  0  0  0  0  2  0  0  0  0  0  0
  183.4970  177.7950  140.1020 O   0  0  0  0  0  0  0  0  0  0  0  0
  184.3010  178.5110  140.6780 C   0  0  0  0  0  3  0  0  0  0  0  0
  187.5450  175.8210  140.4320 C   0  0  0  0  0  1  0  0  0  0  0  0
  186.9850  177.1140  139.8710 C   0  0  0  0  0  2  0  0  0  0  0  0
  189.0550  176.3400  146.7140 C   0  0  0  0  0  2  0  0  0  0  0  0
  189.8430  177.4320  147.2560 N   0  0  0  0  0  2  0  0  0  0  0  0
  191.0020  176.8330  147.8930 C   0  0  0  0  0  2  0  0  0  0  0  0
  191.1590  175.3930  147.4360 C   0  0  0  0  0  2  0  0  0  0  0  0
  192.4520  175.2020  146.7960 N   0  0  0  0  0  2  0  0  0  0  0  0
  192.8700  176.4880  146.2650 C   0  0  0  0  0  2  0  0  0  0  0  0
  194.3520  176.5260  146.1570 C   0  0  0  0  0  0  0  0  0  0  0  0
  194.9910  177.7040  145.7930 O   0  0  0  0  0  0  0  0  0  0  0  0
  195.0260  175.4820  146.3560 O   0  0  0  0  0  1  0  0  0  0  0  0
  1  7  1  0  0  0  0
  3  2  1  0  0  0  0
  4 14  1  0  0  0  0
  5 23  1  6  0  0  0
  5 15  1  0  0  0  0
  5  4  1  0  0  0  0
  6  2  1  0  0  0  0
  7 11  2  0  0  0  0
  7 24  1  0  0  0  0
  8 10  1  0  0  0  0
  8 11  1  0  0  0  0
  9  8  2  0  0  0  0
 10  3  1  0  0  0  0
 11  6  1  0  0  0  0
 12  9  1  0  0  0  0
 13  4  2  0  0  0  0
 14  9  1  0  0  0  0
 14  1  2  0  0  0  0
 15 21  1  6  0  0  0
 15 12  1  0  0  0  0
 16 17  2  0  0  0  0
 17  1  1  0  0  0  0
 18 19  1  0  0  0  0
 19 16  1  0  0  0  0
 20 21  2  0  0  0  0
 23 22  1  0  0  0  0
 24 25  1  0  0  0  0
 25 26  1  0  0  0  0
 27 26  1  0  0  0  0
 28 27  1  0  0  0  0
 29 28  1  0  0  0  0
 30 29  1  0  0  0  0
 30 32  1  0  0  0  0
 31 30  2  0  0  0  0
M  END
>  <MODEL>
1

>  <REMARK>
 VINA RESULT:      -7.1      0.000      0.000
  Name = 
  11 active torsions:
  status: ('A' for Active; 'I' for Inactive)
    1  A    between atoms: C_1  and  C_24
    2  A    between atoms: C_2  and  N_10
    3  A    between atoms: C_2  and  C_12
    4  A    between atoms: C_3  and  C_28
    5  A    between atoms: C_7  and  C_22
    6  A    between atoms: C_8  and  C_23
    7  A    between atoms: C_9  and  C_14
    8  A    between atoms: C_9  and  N_21
    9  A    between atoms: N_10  and  C_24
   10  A    between atoms: C_12  and  N_21
   11  A    between atoms: C_30  and  C_32
                            x       y       z     vdW  Elec       q    Type
                         _______ _______ _______ _____ _____    ______ ____

>  <TORSDO>
F 11

$$$$
=
 OpenBabel11052421323D

 32 34  0  0  1  0  0  0  0  0999 V2000
  187.2520  176.1720  143.5380 C   0  0  0  0  0  0  0  0  0  0  0  0
  184.1550  178.7150  146.2630 C   0  0  0  0  0  2  0  0  0  0  0  0
  185.1470  178.6500  147.4420 C   0  0  0  0  0  2  0  0  0  0  0  0
  189.3010  175.1330  144.6730 C   0  0  0  0  0  0  0  0  0  0  0  0
  190.4850  175.3840  145.5820 C   0  0  2  0  0  3  0  0  0  0  0  0
  184.8200  178.8270  144.8870 C   0  0  0  0  0  2  0  0  0  0  0  0
  186.1500  177.0740  143.6140 C   0  0  0  0  0  0  0  0  0  0  0  0
  186.8550  177.7660  145.8390 C   0  0  0  0  0  0  0  0  0  0  0  0
  187.9450  176.8910  145.7780 C   0  0  0  0  0  0  0  0  0  0  0  0
  186.6240  178.6530  147.0310 C   0  0  0  0  0  2  0  0  0  0  0  0
  185.9610  177.8530  144.7690 C   0  0  0  0  0  0  0  0  0  0  0  0
  188.8780  176.7710  146.9470 C   0  0  0  0  0  2  0  0  0  0  0  0
  189.2840  174.0730  143.9910 O   0  0  0  0  0  0  0  0  0  0  0  0
  188.1380  176.0710  144.6470 C   0  0  0  0  0  0  0  0  0  0  0  0
  190.3130  176.6350  146.4600 C   0  0  1  0  0  3  0  0  0  0  0  0
  188.1650  175.7750  141.2280 C   0  0  0  0  0  3  0  0  0  0  0  0
  187.5460  175.3570  142.3260 C   0  0  0  0  0  3  0  0  0  0  0  0
  188.4940  173.4260  140.6260 C   0  0  0  0  0  1  0  0  0  0  0  0
  188.3870  174.8400  140.0970 C   0  0  0  0  0  2  0  0  0  0  0  0
  191.3240  175.5520  148.3030 O   0  0  0  0  0  0  0  0  0  0  0  0
  191.2160  176.5790  147.6510 C   0  0  0  0  0  3  0  0  0  0  0  0
  191.7300  176.7870  143.9320 C   0  0  0  0  0  1  0  0  0  0  0  0
  191.7600  175.5150  144.7570 C   0  0  0  0  0  2  0  0  0  0  0  0
  185.1340  177.1820  142.5140 C   0  0  0  0  0  2  0  0  0  0  0  0
  185.5500  178.1980  141.5640 N   0  0  0  0  0  2  0  0  0  0  0  0
  184.4240  178.4210  140.6740 C   0  0  0  0  0  2  0  0  0  0  0  0
  183.1200  178.1980  141.4220 C   0  0  0  0  0  2  0  0  0  0  0  0
  181.9870  178.3430  140.5190 N   0  0  0  0  0  2  0  0  0  0  0  0
  180.8710  178.8490  141.2990 C   0  0  0  0  0  2  0  0  0  0  0  0
  179.9370  179.5930  140.4120 C   0  0  0  0  0  0  0  0  0  0  0  0
  180.0480  180.9710  140.2870 O   0  0  0  0  0  1  0  0  0  0  0  0
  179.0220  178.9780  139.8040 O   0  0  0  0  0  0  0  0  0  0  0  0
  1  7  2  0  0  0  0
  1 14  1  0  0  0  0
  2  3  1  0  0  0  0
  4  5  1  0  0  0  0
  5 23  1  6  0  0  0
  5 15  1  0  0  0  0
  6  2  1  0  0  0  0
  7 11  1  0  0  0  0
  8 10  1  0  0  0  0
  9  8  1  0  0  0  0
  9 12  1  0  0  0  0
 10  3  1  0  0  0  0
 11  6  1  0  0  0  0
 11  8  2  0  0  0  0
 13  4  2  0  0  0  0
 14  4  1  0  0  0  0
 14  9  2  0  0  0  0
 15 12  1  0  0  0  0
 15 21  1  1  0  0  0
 16 17  2  0  0  0  0
 17  1  1  0  0  0  0
 19 18  1  0  0  0  0
 19 16  1  0  0  0  0
 21 20  2  0  0  0  0
 22 23  1  0  0  0  0
 24  7  1  0  0  0  0
 25 24  1  0  0  0  0
 26 27  1  0  0  0  0
 26 25  1  0  0  0  0
 28 29  1  0  0  0  0
 28 27  1  0  0  0  0
 30 29  1  0  0  0  0
 31 30  1  0  0  0  0
 32 30  2  0  0  0  0
M  END
>  <MODEL>
2

>  <REMARK>
 VINA RESULT:      -7.0      3.149      8.004
  Name = 
  11 active torsions:
  status: ('A' for Active; 'I' for Inactive)
    1  A    between atoms: C_1  and  C_24
    2  A    between atoms: C_2  and  N_10
    3  A    between atoms: C_2  and  C_12
    4  A    between atoms: C_3  and  C_28
    5  A    between atoms: C_7  and  C_22
    6  A    between atoms: C_8  and  C_23
    7  A    between atoms: C_9  and  C_14
    8  A    between atoms: C_9  and  N_21
    9  A    between atoms: N_10  and  C_24
   10  A    between atoms: C_12  and  N_21
   11  A    between atoms: C_30  and  C_32
                            x       y       z     vdW  Elec       q    Type
                         _______ _______ _______ _____ _____    ______ ____

>  <TORSDO>
F 11

$$$$
=
 OpenBabel11052421323D

 32 34  0  0  1  0  0  0  0  0999 V2000
  188.4820  177.3320  144.3460 C   0  0  0  0  0  0  0  0  0  0  0  0
  185.5260  178.2800  148.0670 C   0  0  0  0  0  2  0  0  0  0  0  0
  184.4360  178.7400  147.0780 C   0  0  0  0  0  2  0  0  0  0  0  0
  187.7760  178.1030  142.0050 C   0  0  0  0  0  0  0  0  0  0  0  0
  186.6670  178.1070  140.9750 C   0  0  2  0  0  3  0  0  0  0  0  0
  186.3840  177.1150  147.5610 C   0  0  0  0  0  2  0  0  0  0  0  0
  188.1260  177.1090  145.7080 C   0  0  0  0  0  0  0  0  0  0  0  0
  185.8360  177.7900  145.2330 C   0  0  0  0  0  0  0  0  0  0  0  0
  186.1680  178.0070  143.8910 C   0  0  0  0  0  0  0  0  0  0  0  0
  184.4350  177.9920  145.7390 C   0  0  0  0  0  2  0  0  0  0  0  0
  186.8080  177.3500  146.1350 C   0  0  0  0  0  0  0  0  0  0  0  0
  185.1310  178.5200  142.9350 C   0  0  0  0  0  2  0  0  0  0  0  0
  188.9370  178.4240  141.6360 O   0  0  0  0  0  0  0  0  0  0  0  0
  187.4900  177.8090  143.4420 C   0  0  0  0  0  0  0  0  0  0  0  0
  185.2810  177.8360  141.5840 C   0  0  1  0  0  3  0  0  0  0  0  0
  190.9670  177.6630  144.1500 C   0  0  0  0  0  3  0  0  0  0  0  0
  189.8420  177.0470  143.8090 C   0  0  0  0  0  3  0  0  0  0  0  0
  193.1260  176.5870  144.5590 C   0  0  0  0  0  1  0  0  0  0  0  0
  192.2540  177.2660  143.5250 C   0  0  0  0  0  2  0  0  0  0  0  0
  183.0250  178.2620  141.0190 O   0  0  0  0  0  0  0  0  0  0  0  0
  184.1960  178.3270  140.6790 C   0  0  0  0  0  3  0  0  0  0  0  0
  187.5640  175.8250  140.4960 C   0  0  0  0  0  1  0  0  0  0  0  0
  186.9560  177.0750  139.8910 C   0  0  0  0  0  2  0  0  0  0  0  0
  189.1330  176.6760  146.7320 C   0  0  0  0  0  2  0  0  0  0  0  0
  189.0400  175.2410  146.9330 N   0  0  0  0  0  2  0  0  0  0  0  0
  190.2430  174.6620  146.3610 C   0  0  0  0  0  2  0  0  0  0  0  0
  189.8750  173.6870  145.2550 C   0  0  0  0  0  2  0  0  0  0  0  0
  190.9420  173.6140  144.2680 N   0  0  0  0  0  2  0  0  0  0  0  0
  190.6080  172.5450  143.3430 C   0  0  0  0  0  2  0  0  0  0  0  0
  190.4350  173.1030  141.9760 C   0  0  0  0  0  0  0  0  0  0  0  0
  190.1400  172.2600  140.9140 O   0  0  0  0  0  0  0  0  0  0  0  0
  190.5950  174.3350  141.7740 O   0  0  0  0  0  1  0  0  0  0  0  0
  1  7  1  0  0  0  0
  3  2  1  0  0  0  0
  4 14  1  0  0  0  0
  5 23  1  6  0  0  0
  5 15  1  0  0  0  0
  5  4  1  0  0  0  0
  6  2  1  0  0  0  0
  7 11  2  0  0  0  0
  7 24  1  0  0  0  0
  8 10  1  0  0  0  0
  8 11  1  0  0  0  0
  9  8  2  0  0  0  0
 10  3  1  0  0  0  0
 11  6  1  0  0  0  0
 12  9  1  0  0  0  0
 13  4  2  0  0  0  0
 14  9  1  0  0  0  0
 14  1  2  0  0  0  0
 15 21  1  6  0  0  0
 15 12  1  0  0  0  0
 17 16  2  0  0  0  0
 17  1  1  0  0  0  0
 19 16  1  0  0  0  0
 19 18  1  0  0  0  0
 21 20  2  0  0  0  0
 23 22  1  0  0  0  0
 24 25  1  0  0  0  0
 26 25  1  0  0  0  0
 27 26  1  0  0  0  0
 28 27  1  0  0  0  0
 29 28  1  0  0  0  0
 30 29  1  0  0  0  0
 31 30  2  0  0  0  0
 32 30  1  0  0  0  0
M  END
>  <MODEL>
3

>  <REMARK>
 VINA RESULT:      -6.7      2.012      2.750
  Name = 
  11 active torsions:
  status: ('A' for Active; 'I' for Inactive)
    1  A    between atoms: C_1  and  C_24
    2  A    between atoms: C_2  and  N_10
    3  A    between atoms: C_2  and  C_12
    4  A    between atoms: C_3  and  C_28
    5  A    between atoms: C_7  and  C_22
    6  A    between atoms: C_8  and  C_23
    7  A    between atoms: C_9  and  C_14
    8  A    between atoms: C_9  and  N_21
    9  A    between atoms: N_10  and  C_24
   10  A    between atoms: C_12  and  N_21
   11  A    between atoms: C_30  and  C_32
                            x       y       z     vdW  Elec       q    Type
                         _______ _______ _______ _____ _____    ______ ____

>  <TORSDO>
F 11

$$$$
=
 OpenBabel11052421323D

 32 34  0  0  1  0  0  0  0  0999 V2000
  189.0460  176.2930  143.2980 C   0  0  0  0  0  0  0  0  0  0  0  0
  192.4800  174.7620  146.3560 C   0  0  0  0  0  2  0  0  0  0  0  0
  191.7150  175.4070  147.5300 C   0  0  0  0  0  2  0  0  0  0  0  0
  187.2700  177.9170  144.1790 C   0  0  0  0  0  0  0  0  0  0  0  0
  186.2560  178.1850  145.2710 C   0  0  2  0  0  3  0  0  0  0  0  0
  191.5790  174.1720  145.2660 C   0  0  0  0  0  2  0  0  0  0  0  0
  190.1100  175.3880  143.5840 C   0  0  0  0  0  0  0  0  0  0  0  0
  189.7840  175.7390  145.9710 C   0  0  0  0  0  0  0  0  0  0  0  0
  188.7340  176.6250  145.7080 C   0  0  0  0  0  0  0  0  0  0  0  0
  190.1890  175.3950  147.3780 C   0  0  0  0  0  2  0  0  0  0  0  0
  190.4710  175.1300  144.9180 C   0  0  0  0  0  0  0  0  0  0  0  0
  188.0270  177.3100  146.8420 C   0  0  0  0  0  2  0  0  0  0  0  0
  187.2050  178.5990  143.1210 O   0  0  0  0  0  0  0  0  0  0  0  0
  188.3740  176.9300  144.3790 C   0  0  0  0  0  0  0  0  0  0  0  0
  186.5350  177.3890  146.5570 C   0  0  1  0  0  3  0  0  0  0  0  0
  187.6810  175.8650  141.2300 C   0  0  0  0  0  3  0  0  0  0  0  0
  188.5720  176.5720  141.9130 C   0  0  0  0  0  3  0  0  0  0  0  0
  186.4150  177.4900  139.9090 C   0  0  0  0  0  1  0  0  0  0  0  0
  187.3080  176.2690  139.8520 C   0  0  0  0  0  2  0  0  0  0  0  0
  185.7390  179.2330  147.8030 O   0  0  0  0  0  0  0  0  0  0  0  0
  185.8590  178.0210  147.7320 C   0  0  0  0  0  3  0  0  0  0  0  0
  184.0470  179.1410  144.6020 C   0  0  0  0  0  1  0  0  0  0  0  0
  184.8520  177.8670  144.7710 C   0  0  0  0  0  2  0  0  0  0  0  0
  190.9110  174.7340  142.4960 C   0  0  0  0  0  2  0  0  0  0  0  0
  192.0530  175.5660  142.1630 N   0  0  0  0  0  2  0  0  0  0  0  0
  193.0110  174.7080  141.4890 C   0  0  0  0  0  2  0  0  0  0  0  0
  194.4250  175.0790  141.9060 C   0  0  0  0  0  2  0  0  0  0  0  0
  194.3970  175.9450  143.0760 N   0  0  0  0  0  2  0  0  0  0  0  0
  195.3580  175.4190  144.0290 C   0  0  0  0  0  2  0  0  0  0  0  0
  196.7250  175.8800  143.6660 C   0  0  0  0  0  0  0  0  0  0  0  0
  197.7920  174.9940  143.7140 O   0  0  0  0  0  1  0  0  0  0  0  0
  196.9210  177.0840  143.3540 O   0  0  0  0  0  0  0  0  0  0  0  0
  1  7  2  0  0  0  0
  1 14  1  0  0  0  0
  2  3  1  0  0  0  0
  4 14  1  0  0  0  0
  4  5  1  0  0  0  0
  5 23  1  6  0  0  0
  5 15  1  0  0  0  0
  6  2  1  0  0  0  0
  7 11  1  0  0  0  0
  8 10  1  0  0  0  0
  9  8  1  0  0  0  0
  9 12  1  0  0  0  0
 10  3  1  0  0  0  0
 11  6  1  0  0  0  0
 11  8  2  0  0  0  0
 13  4  2  0  0  0  0
 14  9  2  0  0  0  0
 15 12  1  0  0  0  0
 15 21  1  1  0  0  0
 16 17  2  0  0  0  0
 17  1  1  0  0  0  0
 19 18  1  0  0  0  0
 19 16  1  0  0  0  0
 21 20  2  0  0  0  0
 22 23  1  0  0  0  0
 24  7  1  0  0  0  0
 25 24  1  0  0  0  0
 26 27  1  0  0  0  0
 26 25  1  0  0  0  0
 27 28  1  0  0  0  0
 28 29  1  0  0  0  0
 30 31  1  0  0  0  0
 30 29  1  0  0  0  0
 32 30  2  0  0  0  0
M  END
>  <MODEL>
4

>  <REMARK>
 VINA RESULT:      -6.4      2.370      5.175
  Name = 
  11 active torsions:
  status: ('A' for Active; 'I' for Inactive)
    1  A    between atoms: C_1  and  C_24
    2  A    between atoms: C_2  and  N_10
    3  A    between atoms: C_2  and  C_12
    4  A    between atoms: C_3  and  C_28
    5  A    between atoms: C_7  and  C_22
    6  A    between atoms: C_8  and  C_23
    7  A    between atoms: C_9  and  C_14
    8  A    between atoms: C_9  and  N_21
    9  A    between atoms: N_10  and  C_24
   10  A    between atoms: C_12  and  N_21
   11  A    between atoms: C_30  and  C_32
                            x       y       z     vdW  Elec       q    Type
                         _______ _______ _______ _____ _____    ______ ____

>  <TORSDO>
F 11

$$$$
=
 OpenBabel11052421323D

 32 34  0  0  1  0  0  0  0  0999 V2000
  187.7510  176.4380  143.2950 C   0  0  0  0  0  0  0  0  0  0  0  0
  191.6360  174.3230  145.2720 C   0  0  0  0  0  2  0  0  0  0  0  0
  191.4080  175.1280  146.5680 C   0  0  0  0  0  2  0  0  0  0  0  0
  186.6640  178.3960  144.5430 C   0  0  0  0  0  0  0  0  0  0  0  0
  186.1110  178.8790  145.8660 C   0  0  2  0  0  3  0  0  0  0  0  0
  190.3470  173.9000  144.5590 C   0  0  0  0  0  2  0  0  0  0  0  0
  188.6690  175.3480  143.3130 C   0  0  0  0  0  0  0  0  0  0  0  0
  189.1790  175.8020  145.6500 C   0  0  0  0  0  0  0  0  0  0  0  0
  188.2770  176.8720  145.6510 C   0  0  0  0  0  0  0  0  0  0  0  0
  189.9360  175.4120  146.8900 C   0  0  0  0  0  2  0  0  0  0  0  0
  189.3780  175.0500  144.4900 C   0  0  0  0  0  0  0  0  0  0  0  0
  188.0970  177.7030  146.8880 C   0  0  0  0  0  2  0  0  0  0  0  0
  186.3940  179.0570  143.5040 O   0  0  0  0  0  0  0  0  0  0  0  0
  187.5790  177.2160  144.4740 C   0  0  0  0  0  0  0  0  0  0  0  0
  186.6310  178.0680  147.0650 C   0  0  1  0  0  3  0  0  0  0  0  0
  187.3730  177.2300  140.9380 C   0  0  0  0  0  3  0  0  0  0  0  0
  186.9240  176.7780  142.1020 C   0  0  0  0  0  3  0  0  0  0  0  0
  185.1360  178.0730  140.4170 C   0  0  0  0  0  1  0  0  0  0  0  0
  186.4230  177.5260  139.8370 C   0  0  0  0  0  2  0  0  0  0  0  0
  187.4350  179.4400  148.8140 O   0  0  0  0  0  0  0  0  0  0  0  0
  186.4840  178.8420  148.3370 C   0  0  0  0  0  3  0  0  0  0  0  0
  184.0860  177.5380  146.4550 C   0  0  0  0  0  1  0  0  0  0  0  0
  184.5880  178.8330  145.8450 C   0  0  0  0  0  2  0  0  0  0  0  0
  188.9560  174.5290  142.0880 C   0  0  0  0  0  2  0  0  0  0  0  0
  187.9690  173.4710  141.9670 N   0  0  0  0  0  2  0  0  0  0  0  0
  188.7070  172.2290  141.8130 C   0  0  0  0  0  2  0  0  0  0  0  0
  189.6440  172.3270  140.6210 C   0  0  0  0  0  2  0  0  0  0  0  0
  188.8970  172.2100  139.3780 N   0  0  0  0  0  2  0  0  0  0  0  0
  189.6760  172.8600  138.3380 C   0  0  0  0  0  2  0  0  0  0  0  0
  188.8970  173.9880  137.7620 C   0  0  0  0  0  0  0  0  0  0  0  0
  187.8890  174.5870  138.5050 O   0  0  0  0  0  1  0  0  0  0  0  0
  189.1250  174.3750  136.5860 O   0  0  0  0  0  0  0  0  0  0  0  0
  1  7  2  0  0  0  0
  1 14  1  0  0  0  0
  2  3  1  0  0  0  0
  3 10  1  0  0  0  0
  4  5  1  0  0  0  0
  5 23  1  6  0  0  0
  5 15  1  0  0  0  0
  6  2  1  0  0  0  0
  7 11  1  0  0  0  0
  8  9  1  0  0  0  0
  8 10  1  0  0  0  0
  9 12  1  0  0  0  0
 11  6  1  0  0  0  0
 11  8  2  0  0  0  0
 12 15  1  0  0  0  0
 13  4  2  0  0  0  0
 14  4  1  0  0  0  0
 14  9  2  0  0  0  0
 15 21  1  1  0  0  0
 16 17  2  0  0  0  0
 17  1  1  0  0  0  0
 19 18  1  0  0  0  0
 19 16  1  0  0  0  0
 21 20  2  0  0  0  0
 23 22  1  0  0  0  0
 24  7  1  0  0  0  0
 25 24  1  0  0  0  0
 26 25  1  0  0  0  0
 27 26  1  0  0  0  0
 28 27  1  0  0  0  0
 29 28  1  0  0  0  0
 30 29  1  0  0  0  0
 30 31  1  0  0  0  0
 32 30  2  0  0  0  0
M  END
>  <MODEL>
5

>  <REMARK>
 VINA RESULT:      -6.3      3.343      6.684
  Name = 
  11 active torsions:
  status: ('A' for Active; 'I' for Inactive)
    1  A    between atoms: C_1  and  C_24
    2  A    between atoms: C_2  and  N_10
    3  A    between atoms: C_2  and  C_12
    4  A    between atoms: C_3  and  C_28
    5  A    between atoms: C_7  and  C_22
    6  A    between atoms: C_8  and  C_23
    7  A    between atoms: C_9  and  C_14
    8  A    between atoms: C_9  and  N_21
    9  A    between atoms: N_10  and  C_24
   10  A    between atoms: C_12  and  N_21
   11  A    between atoms: C_30  and  C_32
                            x       y       z     vdW  Elec       q    Type
                         _______ _______ _______ _____ _____    ______ ____

>  <TORSDO>
F 11

$$$$
=
 OpenBabel11052421323D

 32 34  0  0  1  0  0  0  0  0999 V2000
  187.8910  176.2250  143.5160 C   0  0  0  0  0  0  0  0  0  0  0  0
  184.3420  178.2040  146.1570 C   0  0  0  0  0  2  0  0  0  0  0  0
  185.2200  178.0830  147.4190 C   0  0  0  0  0  2  0  0  0  0  0  0
  189.9060  175.2240  144.7430 C   0  0  0  0  0  0  0  0  0  0  0  0
  190.9730  175.4610  145.7900 C   0  0  2  0  0  3  0  0  0  0  0  0
  185.1210  178.5200  144.8760 C   0  0  0  0  0  2  0  0  0  0  0  0
  186.7120  177.0260  143.5710 C   0  0  0  0  0  0  0  0  0  0  0  0
  187.1420  177.5170  145.9170 C   0  0  0  0  0  0  0  0  0  0  0  0
  188.3050  176.7400  145.8780 C   0  0  0  0  0  0  0  0  0  0  0  0
  186.7240  178.2450  147.1650 C   0  0  0  0  0  2  0  0  0  0  0  0
  186.3490  177.6550  144.7750 C   0  0  0  0  0  0  0  0  0  0  0  0
  189.1310  176.5610  147.1190 C   0  0  0  0  0  2  0  0  0  0  0  0
  190.0460  174.2490  143.9570 O   0  0  0  0  0  0  0  0  0  0  0  0
  188.6740  176.0680  144.6940 C   0  0  0  0  0  0  0  0  0  0  0  0
  190.6110  176.5900  146.7710 C   0  0  1  0  0  3  0  0  0  0  0  0
  187.9180  174.4370  141.7480 C   0  0  0  0  0  3  0  0  0  0  0  0
  188.3680  175.5750  142.2630 C   0  0  0  0  0  3  0  0  0  0  0  0
  189.3320  172.6860  140.7870 C   0  0  0  0  0  1  0  0  0  0  0  0
  188.4960  173.9110  140.4860 C   0  0  0  0  0  2  0  0  0  0  0  0
  191.5680  175.3820  148.5640 O   0  0  0  0  0  0  0  0  0  0  0  0
  191.4000  176.4700  148.0360 C   0  0  0  0  0  3  0  0  0  0  0  0
  192.1820  177.0260  144.2620 C   0  0  0  0  0  1  0  0  0  0  0  0
  192.3040  175.7800  145.1190 C   0  0  0  0  0  2  0  0  0  0  0  0
  185.8000  177.1780  142.3900 C   0  0  0  0  0  2  0  0  0  0  0  0
  186.2960  178.2320  141.5220 N   0  0  0  0  0  2  0  0  0  0  0  0
  185.7280  177.9900  140.2080 C   0  0  0  0  0  2  0  0  0  0  0  0
  186.6890  177.1610  139.3720 C   0  0  0  0  0  2  0  0  0  0  0  0
  186.0310  176.6860  138.1640 N   0  0  0  0  0  2  0  0  0  0  0  0
  187.0390  176.0390  137.3430 C   0  0  0  0  0  2  0  0  0  0  0  0
  186.6350  176.1000  135.9130 C   0  0  0  0  0  0  0  0  0  0  0  0
  187.5970  176.2650  134.9270 O   0  0  0  0  0  0  0  0  0  0  0  0
  185.4170  176.0410  135.6000 O   0  0  0  0  0  1  0  0  0  0  0  0
  1  7  2  0  0  0  0
  1 14  1  0  0  0  0
  2  3  1  0  0  0  0
  4  5  1  0  0  0  0
  5 23  1  6  0  0  0
  5 15  1  0  0  0  0
  6  2  1  0  0  0  0
  7 11  1  0  0  0  0
  8 10  1  0  0  0  0
  9  8  1  0  0  0  0
  9 12  1  0  0  0  0
 10  3  1  0  0  0  0
 11  6  1  0  0  0  0
 11  8  2  0  0  0  0
 13  4  2  0  0  0  0
 14  4  1  0  0  0  0
 14  9  2  0  0  0  0
 15 12  1  0  0  0  0
 15 21  1  1  0  0  0
 16 17  2  0  0  0  0
 17  1  1  0  0  0  0
 19 18  1  0  0  0  0
 19 16  1  0  0  0  0
 21 20  2  0  0  0  0
 22 23  1  0  0  0  0
 24  7  1  0  0  0  0
 25 24  1  0  0  0  0
 26 25  1  0  0  0  0
 27 26  1  0  0  0  0
 28 27  1  0  0  0  0
 29 28  1  0  0  0  0
 30 29  1  0  0  0  0
 31 30  2  0  0  0  0
 32 30  1  0  0  0  0
M  END
>  <MODEL>
6

>  <REMARK>
 VINA RESULT:      -6.3      3.210      7.236
  Name = 
  11 active torsions:
  status: ('A' for Active; 'I' for Inactive)
    1  A    between atoms: C_1  and  C_24
    2  A    between atoms: C_2  and  N_10
    3  A    between atoms: C_2  and  C_12
    4  A    between atoms: C_3  and  C_28
    5  A    between atoms: C_7  and  C_22
    6  A    between atoms: C_8  and  C_23
    7  A    between atoms: C_9  and  C_14
    8  A    between atoms: C_9  and  N_21
    9  A    between atoms: N_10  and  C_24
   10  A    between atoms: C_12  and  N_21
   11  A    between atoms: C_30  and  C_32
                            x       y       z     vdW  Elec       q    Type
                         _______ _______ _______ _____ _____    ______ ____

>  <TORSDO>
F 11

$$$$
=
 OpenBabel11052421323D

 32 34  0  0  1  0  0  0  0  0999 V2000
  188.8880  175.2370  143.0380 C   0  0  0  0  0  0  0  0  0  0  0  0
  190.9710  175.9080  147.3620 C   0  0  0  0  0  2  0  0  0  0  0  0
  190.1320  177.1870  147.5610 C   0  0  0  0  0  2  0  0  0  0  0  0
  187.4230  177.1130  142.0890 C   0  0  0  0  0  0  0  0  0  0  0  0
  186.2760  178.0620  142.3660 C   0  0  2  0  0  3  0  0  0  0  0  0
  190.2420  174.7900  146.6080 C   0  0  0  0  0  2  0  0  0  0  0  0
  189.5860  174.6890  144.1540 C   0  0  0  0  0  0  0  0  0  0  0  0
  188.7890  176.5100  145.5600 C   0  0  0  0  0  0  0  0  0  0  0  0
  188.0940  177.0570  144.4760 C   0  0  0  0  0  0  0  0  0  0  0  0
  188.7380  177.1390  146.9250 C   0  0  0  0  0  2  0  0  0  0  0  0
  189.5330  175.3390  145.4000 C   0  0  0  0  0  0  0  0  0  0  0  0
  187.3290  178.3390  144.6430 C   0  0  0  0  0  2  0  0  0  0  0  0
  187.7920  176.9540  140.8950 O   0  0  0  0  0  0  0  0  0  0  0  0
  188.1580  176.4470  143.2060 C   0  0  0  0  0  0  0  0  0  0  0  0
  186.0220  178.2730  143.8680 C   0  0  1  0  0  3  0  0  0  0  0  0
  188.1960  173.4640  141.3940 C   0  0  0  0  0  3  0  0  0  0  0  0
  188.8530  174.5740  141.7030 C   0  0  0  0  0  3  0  0  0  0  0  0
  189.6880  172.9530  139.5230 C   0  0  0  0  0  1  0  0  0  0  0  0
  188.2560  172.9210  140.0140 C   0  0  0  0  0  2  0  0  0  0  0  0
  184.2080  179.5260  144.7220 O   0  0  0  0  0  0  0  0  0  0  0  0
  185.2630  179.5400  144.1080 C   0  0  0  0  0  3  0  0  0  0  0  0
  184.6090  178.4490  140.5460 C   0  0  0  0  0  1  0  0  0  0  0  0
  185.0030  177.5520  141.7020 C   0  0  0  0  0  2  0  0  0  0  0  0
  190.4340  173.4570  144.0340 C   0  0  0  0  0  2  0  0  0  0  0  0
  191.7730  173.8260  143.6110 N   0  0  0  0  0  2  0  0  0  0  0  0
  192.6950  173.0790  144.4490 C   0  0  0  0  0  2  0  0  0  0  0  0
  194.0330  173.7980  144.5160 C   0  0  0  0  0  2  0  0  0  0  0  0
  194.0750  174.8830  143.5470 N   0  0  0  0  0  2  0  0  0  0  0  0
  194.7840  175.9900  144.1640 C   0  0  0  0  0  2  0  0  0  0  0  0
  193.8610  176.7390  145.0580 C   0  0  0  0  0  0  0  0  0  0  0  0
  194.2290  177.0080  146.3690 O   0  0  0  0  0  1  0  0  0  0  0  0
  192.7290  177.0950  144.6370 O   0  0  0  0  0  0  0  0  0  0  0  0
  1 14  2  0  0  0  0
  1  7  1  0  0  0  0
  2  3  1  0  0  0  0
  4  5  1  0  0  0  0
  4 14  1  0  0  0  0
  5 23  1  1  0  0  0
  5 15  1  0  0  0  0
  6  2  1  0  0  0  0
  7 11  2  0  0  0  0
  8 10  1  0  0  0  0
  9 12  1  0  0  0  0
  9  8  2  0  0  0  0
 10  3  1  0  0  0  0
 11  8  1  0  0  0  0
 11  6  1  0  0  0  0
 13  4  2  0  0  0  0
 14  9  1  0  0  0  0
 15 21  1  6  0  0  0
 15 12  1  0  0  0  0
 16 17  2  0  0  0  0
 17  1  1  0  0  0  0
 18 19  1  0  0  0  0
 19 16  1  0  0  0  0
 21 20  2  0  0  0  0
 22 23  1  0  0  0  0
 24  7  1  0  0  0  0
 25 24  1  0  0  0  0
 25 26  1  0  0  0  0
 26 27  1  0  0  0  0
 28 29  1  0  0  0  0
 28 27  1  0  0  0  0
 29 30  1  0  0  0  0
 30 31  1  0  0  0  0
 32 30  2  0  0  0  0
M  END
>  <MODEL>
7

>  <REMARK>
 VINA RESULT:      -6.2      2.189      3.733
  Name = 
  11 active torsions:
  status: ('A' for Active; 'I' for Inactive)
    1  A    between atoms: C_1  and  C_24
    2  A    between atoms: C_2  and  N_10
    3  A    between atoms: C_2  and  C_12
    4  A    between atoms: C_3  and  C_28
    5  A    between atoms: C_7  and  C_22
    6  A    between atoms: C_8  and  C_23
    7  A    between atoms: C_9  and  C_14
    8  A    between atoms: C_9  and  N_21
    9  A    between atoms: N_10  and  C_24
   10  A    between atoms: C_12  and  N_21
   11  A    between atoms: C_30  and  C_32
                            x       y       z     vdW  Elec       q    Type
                         _______ _______ _______ _____ _____    ______ ____

>  <TORSDO>
F 11

$$$$
=
 OpenBabel11052421323D

 32 34  0  0  1  0  0  0  0  0999 V2000
  189.7200  175.6170  145.2380 C   0  0  0  0  0  0  0  0  0  0  0  0
  190.0090  173.7820  140.7620 C   0  0  0  0  0  2  0  0  0  0  0  0
  188.5700  174.2600  140.4790 C   0  0  0  0  0  2  0  0  0  0  0  0
  187.4410  176.4450  146.0680 C   0  0  0  0  0  0  0  0  0  0  0  0
  186.2400  177.3130  145.7580 C   0  0  2  0  0  3  0  0  0  0  0  0
  190.8170  174.7210  141.6630 C   0  0  0  0  0  2  0  0  0  0  0  0
  190.5290  175.1830  144.1470 C   0  0  0  0  0  0  0  0  0  0  0  0
  188.6830  175.5720  142.6080 C   0  0  0  0  0  0  0  0  0  0  0  0
  187.8770  176.0060  143.6660 C   0  0  0  0  0  0  0  0  0  0  0  0
  188.1790  175.5610  141.1910 C   0  0  0  0  0  2  0  0  0  0  0  0
  189.9960  175.1590  142.8460 C   0  0  0  0  0  0  0  0  0  0  0  0
  186.4540  176.4090  143.4110 C   0  0  0  0  0  2  0  0  0  0  0  0
  187.5960  176.0380  147.2510 O   0  0  0  0  0  0  0  0  0  0  0  0
  188.3740  176.0070  144.9860 C   0  0  0  0  0  0  0  0  0  0  0  0
  186.0930  177.6200  144.2580 C   0  0  1  0  0  3  0  0  0  0  0  0
  191.1210  176.6030  147.0780 C   0  0  0  0  0  3  0  0  0  0  0  0
  190.2340  175.7230  146.6320 C   0  0  0  0  0  3  0  0  0  0  0  0
  191.2080  177.9160  149.1410 C   0  0  0  0  0  1  0  0  0  0  0  0
  191.5380  176.5840  148.5030 C   0  0  0  0  0  2  0  0  0  0  0  0
  184.2950  178.0250  142.7780 O   0  0  0  0  0  0  0  0  0  0  0  0
  184.6910  178.0280  143.9320 C   0  0  0  0  0  3  0  0  0  0  0  0
  185.2420  178.6770  147.5990 C   0  0  0  0  0  1  0  0  0  0  0  0
  186.3240  178.6200  146.5380 C   0  0  0  0  0  2  0  0  0  0  0  0
  191.9320  174.6900  144.3450 C   0  0  0  0  0  2  0  0  0  0  0  0
  191.9110  173.2740  144.6660 N   0  0  0  0  0  2  0  0  0  0  0  0
  193.1730  172.7230  144.2020 C   0  0  0  0  0  2  0  0  0  0  0  0
  194.0390  172.3380  145.3890 C   0  0  0  0  0  2  0  0  0  0  0  0
  195.0960  173.3190  145.5850 N   0  0  0  0  0  2  0  0  0  0  0  0
  195.6450  173.6350  144.2780 C   0  0  0  0  0  2  0  0  0  0  0  0
  196.1190  175.0440  144.2620 C   0  0  0  0  0  0  0  0  0  0  0  0
  197.3900  175.3440  143.7930 O   0  0  0  0  0  0  0  0  0  0  0  0
  195.3820  175.9610  144.7110 O   0  0  0  0  0  1  0  0  0  0  0  0
  1 17  1  0  0  0  0
  2  6  1  0  0  0  0
  3  2  1  0  0  0  0
  3 10  1  0  0  0  0
  4 13  2  0  0  0  0
  5  4  1  0  0  0  0
  5 23  1  1  0  0  0
  6 11  1  0  0  0  0
  7 24  1  0  0  0  0
  7  1  2  0  0  0  0
  8 11  2  0  0  0  0
  8  9  1  0  0  0  0
  9 14  2  0  0  0  0
 10  8  1  0  0  0  0
 11  7  1  0  0  0  0
 12  9  1  0  0  0  0
 12 15  1  0  0  0  0
 14  1  1  0  0  0  0
 14  4  1  0  0  0  0
 15 21  1  1  0  0  0
 15  5  1  0  0  0  0
 16 19  1  0  0  0  0
 17 16  2  0  0  0  0
 19 18  1  0  0  0  0
 20 21  2  0  0  0  0
 23 22  1  0  0  0  0
 24 25  1  0  0  0  0
 26 25  1  0  0  0  0
 26 27  1  0  0  0  0
 27 28  1  0  0  0  0
 29 28  1  0  0  0  0
 30 29  1  0  0  0  0
 30 32  1  0  0  0  0
 31 30  2  0  0  0  0
M  END
>  <MODEL>
8

>  <REMARK>
 VINA RESULT:      -6.0      2.361      5.099
  Name = 
  11 active torsions:
  status: ('A' for Active; 'I' for Inactive)
    1  A    between atoms: C_1  and  C_24
    2  A    between atoms: C_2  and  N_10
    3  A    between atoms: C_2  and  C_12
    4  A    between atoms: C_3  and  C_28
    5  A    between atoms: C_7  and  C_22
    6  A    between atoms: C_8  and  C_23
    7  A    between atoms: C_9  and  C_14
    8  A    between atoms: C_9  and  N_21
    9  A    between atoms: N_10  and  C_24
   10  A    between atoms: C_12  and  N_21
   11  A    between atoms: C_30  and  C_32
                            x       y       z     vdW  Elec       q    Type
                         _______ _______ _______ _____ _____    ______ ____

>  <TORSDO>
F 11

$$$$
=
 OpenBabel11052421323D

 32 34  0  0  1  0  0  0  0  0999 V2000
  187.7160  176.4390  143.2820 C   0  0  0  0  0  0  0  0  0  0  0  0
  191.6490  174.3520  145.1940 C   0  0  0  0  0  2  0  0  0  0  0  0
  191.4250  175.1400  146.5020 C   0  0  0  0  0  2  0  0  0  0  0  0
  186.6180  178.3680  144.5630 C   0  0  0  0  0  0  0  0  0  0  0  0
  186.0730  178.8290  145.8980 C   0  0  2  0  0  3  0  0  0  0  0  0
  190.3590  173.9210  144.4900 C   0  0  0  0  0  2  0  0  0  0  0  0
  188.6490  175.3610  143.2780 C   0  0  0  0  0  0  0  0  0  0  0  0
  189.1780  175.7950  145.6150 C   0  0  0  0  0  0  0  0  0  0  0  0
  188.2620  176.8530  145.6370 C   0  0  0  0  0  0  0  0  0  0  0  0
  189.9530  175.4020  146.8420 C   0  0  0  0  0  2  0  0  0  0  0  0
  189.3740  175.0590  144.4440 C   0  0  0  0  0  0  0  0  0  0  0  0
  188.0850  177.6680  146.8850 C   0  0  0  0  0  2  0  0  0  0  0  0
  186.3280  179.0370  143.5350 O   0  0  0  0  0  0  0  0  0  0  0  0
  187.5470  177.2010  144.4720 C   0  0  0  0  0  0  0  0  0  0  0  0
  186.6160  178.0110  147.0820 C   0  0  1  0  0  3  0  0  0  0  0  0
  187.3000  177.2830  140.9500 C   0  0  0  0  0  3  0  0  0  0  0  0
  186.8730  176.7820  142.1020 C   0  0  0  0  0  3  0  0  0  0  0  0
  185.1130  178.2570  140.4400 C   0  0  0  0  0  1  0  0  0  0  0  0
  186.3340  177.5750  139.8610 C   0  0  0  0  0  2  0  0  0  0  0  0
  187.4000  179.4320  148.8020 O   0  0  0  0  0  0  0  0  0  0  0  0
  186.4730  178.7700  148.3640 C   0  0  0  0  0  3  0  0  0  0  0  0
  184.0710  177.4660  146.5140 C   0  0  0  0  0  1  0  0  0  0  0  0
  184.5500  178.7630  145.8920 C   0  0  0  0  0  2  0  0  0  0  0  0
  188.9330  174.5600  142.0420 C   0  0  0  0  0  2  0  0  0  0  0  0
  188.0490  173.4090  141.9910 N   0  0  0  0  0  2  0  0  0  0  0  0
  188.8920  172.2440  141.7870 C   0  0  0  0  0  2  0  0  0  0  0  0
  189.6060  172.3490  140.4500 C   0  0  0  0  0  2  0  0  0  0  0  0
  190.7940  171.5070  140.4430 N   0  0  0  0  0  2  0  0  0  0  0  0
  191.7040  172.0300  141.4470 C   0  0  0  0  0  2  0  0  0  0  0  0
  192.4160  173.2180  140.9070 C   0  0  0  0  0  0  0  0  0  0  0  0
  192.3480  174.4320  141.5770 O   0  0  0  0  0  1  0  0  0  0  0  0
  193.0470  173.1340  139.8210 O   0  0  0  0  0  0  0  0  0  0  0  0
  1 14  1  0  0  0  0
  2  3  1  0  0  0  0
  3 10  1  0  0  0  0
  4  5  1  0  0  0  0
  5 23  1  6  0  0  0
  5 15  1  0  0  0  0
  6  2  1  0  0  0  0
  7  1  2  0  0  0  0
  7 11  1  0  0  0  0
  8  9  1  0  0  0  0
  8 10  1  0  0  0  0
  9 12  1  0  0  0  0
 11  6  1  0  0  0  0
 11  8  2  0  0  0  0
 12 15  1  0  0  0  0
 13  4  2  0  0  0  0
 14  4  1  0  0  0  0
 14  9  2  0  0  0  0
 15 21  1  1  0  0  0
 16 17  2  0  0  0  0
 17  1  1  0  0  0  0
 19 18  1  0  0  0  0
 19 16  1  0  0  0  0
 21 20  2  0  0  0  0
 23 22  1  0  0  0  0
 24  7  1  0  0  0  0
 25 24  1  0  0  0  0
 26 25  1  0  0  0  0
 27 26  1  0  0  0  0
 28 27  1  0  0  0  0
 28 29  1  0  0  0  0
 30 29  1  0  0  0  0
 30 31  1  0  0  0  0
 32 30  2  0  0  0  0
M  END
>  <MODEL>
9

>  <REMARK>
 VINA RESULT:      -6.0      3.233      6.006
  Name = 
  11 active torsions:
  status: ('A' for Active; 'I' for Inactive)
    1  A    between atoms: C_1  and  C_24
    2  A    between atoms: C_2  and  N_10
    3  A    between atoms: C_2  and  C_12
    4  A    between atoms: C_3  and  C_28
    5  A    between atoms: C_7  and  C_22
    6  A    between atoms: C_8  and  C_23
    7  A    between atoms: C_9  and  C_14
    8  A    between atoms: C_9  and  N_21
    9  A    between atoms: N_10  and  C_24
   10  A    between atoms: C_12  and  N_21
   11  A    between atoms: C_30  and  C_32
                            x       y       z     vdW  Elec       q    Type
                         _______ _______ _______ _____ _____    ______ ____

>  <TORSDO>
F 11

$$$$
