=
 OpenBabel11052420023D

 37 43  0  0  1  0  0  0  0  0999 V2000
  189.2810  173.2420  142.6720 C   0  0  0  0  0  0  0  0  0  0  0  0
  188.9770  176.5110  146.3710 C   0  0  0  0  0  2  0  0  0  0  0  0
  191.0140  175.3700  145.2980 C   0  0  1  0  0  3  0  0  0  0  0  0
  187.7500  176.4920  141.5190 C   0  0  0  0  0  1  0  0  0  0  0  0
  190.4930  176.3900  146.3270 C   0  0  0  0  0  2  0  0  0  0  0  0
  188.5400  174.1820  141.9580 C   0  0  0  0  0  3  0  0  0  0  0  0
  188.5370  175.5250  142.3400 C   0  0  0  0  0  0  0  0  0  0  0  0
  188.4740  177.4870  145.3010 C   0  0  1  0  0  3  0  0  0  0  0  0
  190.0630  174.9980  144.1690 C   0  0  0  0  0  0  0  0  0  0  0  0
  189.1790  177.3650  143.9400 C   0  0  0  0  0  2  0  0  0  0  0  0
  189.2740  175.9410  143.4660 C   0  0  0  0  0  0  0  0  0  0  0  0
  190.0460  173.6580  143.7680 C   0  0  0  0  0  3  0  0  0  0  0  0
  195.9720  172.9310  144.7300 C   0  0  1  0  0  3  0  0  0  0  0  0
  192.4190  175.8000  144.8210 C   0  0  1  0  0  0  0  0  0  0  0  0
  194.9940  175.2530  145.2230 C   0  0  1  0  0  3  0  0  0  0  0  0
  193.5240  174.7750  145.1040 C   0  0  1  0  0  0  0  0  0  0  0  0
  193.1480  173.6590  145.8820 O   0  0  0  0  0  0  0  0  0  0  0  0
  195.2000  172.6240  145.8640 O   0  0  0  0  0  0  0  0  0  0  0  0
  192.8690  174.8270  143.7330 C   0  0  2  0  0  3  0  0  0  0  0  0
  193.8720  172.5460  145.4170 C   0  0  0  0  0  2  0  0  0  0  0  0
  192.5010  176.2470  143.3680 C   0  0  0  0  0  2  0  0  0  0  0  0
  195.9150  174.4180  144.3320 C   0  0  1  0  0  3  0  0  0  0  0  0
  197.0860  173.8810  145.1330 C   0  0  0  0  0  2  0  0  0  0  0  0
  195.2190  176.7410  144.9710 C   0  0  0  0  0  2  0  0  0  0  0  0
  196.0390  176.9110  143.8580 O   0  0  0  0  0  1  0  0  0  0  0  0
  186.2170  177.4150  146.5480 C   0  0  2  0  0  3  0  0  0  0  0  0
  186.5070  178.6670  144.3110 C   0  0  0  0  0  3  0  0  0  0  0  0
  185.5440  179.5340  144.6480 C   0  0  0  0  0  3  0  0  0  0  0  0
  183.5750  178.7410  145.7050 O   0  0  0  0  0  1  0  0  0  0  0  0
  185.5780  178.7250  147.0280 C   0  0  2  0  0  3  0  0  0  0  0  0
  184.7710  179.4230  145.9310 C   0  0  1  0  0  3  0  0  0  0  0  0
  186.9430  177.5180  145.1880 C   0  0  1  0  0  3  0  0  0  0  0  0
  186.5520  179.5880  147.5300 O   0  0  0  0  0  1  0  0  0  0  0  0
  185.1750  176.3120  146.4980 C   0  0  0  0  0  1  0  0  0  0  0  0
  189.2510  171.9060  142.2650 O   0  0  0  0  0  0  0  0  0  0  0  0
  191.0950  171.7270  140.7440 C   0  0  0  0  0  1  0  0  0  0  0  0
  190.4290  171.1630  141.9810 C   0  0  0  0  0  2  0  0  0  0  0  0
  1 12  1  0  0  0  0
  3  5  1  6  0  0  0
  4  7  1  0  0  0  0
  5  2  1  0  0  0  0
  6  7  1  0  0  0  0
  6  1  2  0  0  0  0
  7 11  2  0  0  0  0
  8 10  1  6  0  0  0
  8  2  1  0  0  0  0
  9  3  1  0  0  0  0
 11 10  1  0  0  0  0
 11  9  1  0  0  0  0
 12  9  2  0  0  0  0
 13 23  1  1  0  0  0
 13 18  1  0  0  0  0
 14 21  1  6  0  0  0
 14 16  1  0  0  0  0
 14  3  1  0  0  0  0
 15 24  1  6  0  0  0
 16 15  1  0  0  0  0
 16 17  1  1  0  0  0
 19 21  1  6  0  0  0
 19 14  1  0  0  0  0
 19 16  1  0  0  0  0
 20 18  1  0  0  0  0
 20 17  1  0  0  0  0
 22 13  1  0  0  0  0
 22 23  1  1  0  0  0
 22 15  1  0  0  0  0
 25 24  1  0  0  0  0
 26 34  1  6  0  0  0
 26 30  1  0  0  0  0
 27 28  2  0  0  0  0
 28 31  1  0  0  0  0
 30 33  1  6  0  0  0
 31 29  1  6  0  0  0
 31 30  1  0  0  0  0
 32 27  1  1  0  0  0
 32  8  1  0  0  0  0
 32 26  1  0  0  0  0
 35  1  1  0  0  0  0
 36 37  1  0  0  0  0
 37 35  1  0  0  0  0
M  END
>  <MODEL>
1

>  <REMARK>
 VINA RESULT:      -8.7      0.000      0.000
  Name = 
  5 active torsions:
  status: ('A' for Active; 'I' for Inactive)
    1  A    between atoms: C_1  and  O_5
    2  A    between atoms: C_4  and  C_10
    3  A    between atoms: O_5  and  C_23
    4  A    between atoms: C_9  and  C_16
    5  A    between atoms: C_27  and  C_31
                            x       y       z     vdW  Elec       q    Type
                         _______ _______ _______ _____ _____    ______ ____

>  <TORSDO>
F 5

$$$$
=
 OpenBabel11052420023D

 37 43  0  0  1  0  0  0  0  0999 V2000
  189.0320  173.9950  141.8710 C   0  0  0  0  0  0  0  0  0  0  0  0
  192.3300  176.7490  144.3210 C   0  0  0  0  0  2  0  0  0  0  0  0
  189.7620  176.8270  144.2940 C   0  0  1  0  0  3  0  0  0  0  0  0
  191.1190  171.8940  144.2090 C   0  0  0  0  0  1  0  0  0  0  0  0
  191.0690  177.3890  144.8820 C   0  0  0  0  0  2  0  0  0  0  0  0
  189.7000  172.9170  142.4510 C   0  0  0  0  0  3  0  0  0  0  0  0
  190.4520  173.0890  143.6150 C   0  0  0  0  0  0  0  0  0  0  0  0
  192.6680  175.4540  145.0700 C   0  0  1  0  0  3  0  0  0  0  0  0
  189.8440  175.4520  143.6470 C   0  0  0  0  0  0  0  0  0  0  0  0
  191.4550  174.5670  145.3950 C   0  0  0  0  0  2  0  0  0  0  0  0
  190.5550  174.3630  144.2070 C   0  0  0  0  0  0  0  0  0  0  0  0
  189.1000  175.2540  142.4790 C   0  0  0  0  0  3  0  0  0  0  0  0
  184.3980  178.2680  144.2280 C   0  0  1  0  0  3  0  0  0  0  0  0
  188.6320  176.9650  145.3390 C   0  0  1  0  0  0  0  0  0  0  0  0
  186.4160  178.3630  145.8130 C   0  0  1  0  0  3  0  0  0  0  0  0
  187.3670  177.6530  144.8150 C   0  0  1  0  0  0  0  0  0  0  0  0
  187.4500  178.1950  143.5140 O   0  0  0  0  0  0  0  0  0  0  0  0
  185.2960  178.9890  143.4210 O   0  0  0  0  0  0  0  0  0  0  0  0
  187.4420  176.1350  144.8620 C   0  0  2  0  0  3  0  0  0  0  0  0
  186.1920  178.0430  142.9030 C   0  0  0  0  0  2  0  0  0  0  0  0
  188.2510  175.6760  146.0540 C   0  0  0  0  0  2  0  0  0  0  0  0
  184.9700  177.9060  145.6120 C   0  0  1  0  0  3  0  0  0  0  0  0
  184.0520  179.1020  145.4500 C   0  0  0  0  0  2  0  0  0  0  0  0
  186.8090  178.2480  147.2820 C   0  0  0  0  0  2  0  0  0  0  0  0
  185.8970  177.4340  147.9510 O   0  0  0  0  0  1  0  0  0  0  0  0
  194.5240  175.4340  143.2800 C   0  0  2  0  0  3  0  0  0  0  0  0
  194.7570  174.1550  145.5070 C   0  0  0  0  0  3  0  0  0  0  0  0
  196.0880  174.2950  145.4720 C   0  0  0  0  0  3  0  0  0  0  0  0
  197.2400  174.0010  143.4210 O   0  0  0  0  0  1  0  0  0  0  0  0
  195.9120  175.9900  143.6240 C   0  0  2  0  0  3  0  0  0  0  0  0
  196.7990  174.9630  144.3310 C   0  0  1  0  0  3  0  0  0  0  0  0
  193.8320  174.6790  144.4360 C   0  0  1  0  0  3  0  0  0  0  0  0
  195.7970  177.1410  144.4040 O   0  0  0  0  0  1  0  0  0  0  0  0
  194.6080  174.5420  142.0540 C   0  0  0  0  0  1  0  0  0  0  0  0
  188.2980  173.7840  140.7020 O   0  0  0  0  0  0  0  0  0  0  0  0
  188.2190  174.1930  138.3410 C   0  0  0  0  0  1  0  0  0  0  0  0
  188.9090  173.4460  139.4630 C   0  0  0  0  0  2  0  0  0  0  0  0
  1  6  2  0  0  0  0
  1 12  1  0  0  0  0
  2  5  1  0  0  0  0
  3  5  1  1  0  0  0
  3 14  1  0  0  0  0
  6  7  1  0  0  0  0
  7 11  2  0  0  0  0
  7  4  1  0  0  0  0
  8  2  1  6  0  0  0
  8 10  1  0  0  0  0
  9 11  1  0  0  0  0
  9  3  1  0  0  0  0
 11 10  1  0  0  0  0
 12  9  2  0  0  0  0
 13 23  1  1  0  0  0
 13 22  1  0  0  0  0
 14 21  1  1  0  0  0
 15 24  1  1  0  0  0
 16 17  1  6  0  0  0
 16 19  1  0  0  0  0
 16 14  1  0  0  0  0
 16 15  1  0  0  0  0
 18 13  1  0  0  0  0
 19 14  1  0  0  0  0
 19 21  1  1  0  0  0
 20 18  1  0  0  0  0
 20 17  1  0  0  0  0
 22 23  1  1  0  0  0
 22 15  1  0  0  0  0
 24 25  1  0  0  0  0
 26 34  1  6  0  0  0
 26 30  1  0  0  0  0
 26 32  1  0  0  0  0
 28 27  2  0  0  0  0
 30 31  1  0  0  0  0
 30 33  1  1  0  0  0
 31 29  1  6  0  0  0
 31 28  1  0  0  0  0
 32  8  1  0  0  0  0
 32 27  1  1  0  0  0
 35  1  1  0  0  0  0
 36 37  1  0  0  0  0
 37 35  1  0  0  0  0
M  END
>  <MODEL>
2

>  <REMARK>
 VINA RESULT:      -8.5      1.769      8.139
  Name = 
  5 active torsions:
  status: ('A' for Active; 'I' for Inactive)
    1  A    between atoms: C_1  and  O_5
    2  A    between atoms: C_4  and  C_10
    3  A    between atoms: O_5  and  C_23
    4  A    between atoms: C_9  and  C_16
    5  A    between atoms: C_27  and  C_31
                            x       y       z     vdW  Elec       q    Type
                         _______ _______ _______ _____ _____    ______ ____

>  <TORSDO>
F 5

$$$$
=
 OpenBabel11052420023D

 37 43  0  0  1  0  0  0  0  0999 V2000
  189.3620  173.7550  141.5790 C   0  0  0  0  0  0  0  0  0  0  0  0
  191.1130  177.1770  144.6920 C   0  0  0  0  0  2  0  0  0  0  0  0
  188.9330  177.0970  143.3320 C   0  0  1  0  0  3  0  0  0  0  0  0
  189.8090  172.3580  145.0560 C   0  0  0  0  0  1  0  0  0  0  0  0
  189.7880  177.8520  144.3660 C   0  0  0  0  0  2  0  0  0  0  0  0
  189.5640  172.8760  142.6430 C   0  0  0  0  0  3  0  0  0  0  0  0
  189.6220  173.3490  143.9550 C   0  0  0  0  0  0  0  0  0  0  0  0
  190.9310  176.1060  145.7740 C   0  0  1  0  0  3  0  0  0  0  0  0
  189.2430  175.6180  143.1440 C   0  0  0  0  0  0  0  0  0  0  0  0
  189.6670  175.2450  145.6170 C   0  0  0  0  0  2  0  0  0  0  0  0
  189.4920  174.7270  144.2160 C   0  0  0  0  0  0  0  0  0  0  0  0
  189.1930  175.1190  141.8380 C   0  0  0  0  0  3  0  0  0  0  0  0
  184.3920  177.7690  140.2050 C   0  0  1  0  0  3  0  0  0  0  0  0
  187.4400  177.3990  143.5870 C   0  0  1  0  0  0  0  0  0  0  0  0
  185.3490  178.5860  142.4440 C   0  0  1  0  0  3  0  0  0  0  0  0
  186.6380  177.7340  142.3240 C   0  0  1  0  0  0  0  0  0  0  0  0
  187.3860  177.8670  141.1340 O   0  0  0  0  0  0  0  0  0  0  0  0
  185.6040  178.3210  139.7550 O   0  0  0  0  0  0  0  0  0  0  0  0
  186.6120  176.3220  142.8880 C   0  0  2  0  0  3  0  0  0  0  0  0
  186.5970  177.3830  140.0740 C   0  0  0  0  0  2  0  0  0  0  0  0
  186.6950  176.3470  144.3970 C   0  0  0  0  0  2  0  0  0  0  0  0
  184.1780  177.9130  141.7240 C   0  0  1  0  0  3  0  0  0  0  0  0
  183.5190  178.8810  140.7600 C   0  0  0  0  0  2  0  0  0  0  0  0
  184.9480  178.9670  143.8650 C   0  0  0  0  0  2  0  0  0  0  0  0
  185.4590  180.2260  144.1770 O   0  0  0  0  0  1  0  0  0  0  0  0
  192.7900  174.6510  144.7350 C   0  0  2  0  0  3  0  0  0  0  0  0
  193.1790  176.0580  146.8620 C   0  0  0  0  0  3  0  0  0  0  0  0
  194.4770  176.1920  146.5610 C   0  0  0  0  0  3  0  0  0  0  0  0
  195.6820  174.3270  145.7270 O   0  0  0  0  0  1  0  0  0  0  0  0
  194.0810  175.3170  144.2370 C   0  0  2  0  0  3  0  0  0  0  0  0
  195.0980  175.5400  145.3590 C   0  0  1  0  0  3  0  0  0  0  0  0
  192.2000  175.2770  146.0180 C   0  0  1  0  0  3  0  0  0  0  0  0
  193.7920  176.5250  143.6030 O   0  0  0  0  0  1  0  0  0  0  0  0
  193.0140  173.1640  144.9390 C   0  0  0  0  0  1  0  0  0  0  0  0
  189.3200  173.2440  140.2800 O   0  0  0  0  0  0  0  0  0  0  0  0
  188.1650  174.0360  138.3350 C   0  0  0  0  0  1  0  0  0  0  0  0
  188.1110  173.1240  139.5410 C   0  0  0  0  0  2  0  0  0  0  0  0
  1 12  2  0  0  0  0
  1  6  1  0  0  0  0
  3 14  1  0  0  0  0
  3  5  1  1  0  0  0
  5  2  1  0  0  0  0
  6  7  2  0  0  0  0
  7 11  1  0  0  0  0
  7  4  1  0  0  0  0
  8  2  1  6  0  0  0
  8 32  1  0  0  0  0
  9  3  1  0  0  0  0
  9 11  2  0  0  0  0
 10  8  1  0  0  0  0
 11 10  1  0  0  0  0
 12  9  1  0  0  0  0
 13 23  1  6  0  0  0
 13 22  1  0  0  0  0
 14 21  1  1  0  0  0
 15 24  1  1  0  0  0
 16 17  1  6  0  0  0
 16 15  1  0  0  0  0
 16 19  1  0  0  0  0
 16 14  1  0  0  0  0
 18 20  1  0  0  0  0
 18 13  1  0  0  0  0
 19 14  1  0  0  0  0
 19 21  1  1  0  0  0
 20 17  1  0  0  0  0
 22 23  1  6  0  0  0
 22 15  1  0  0  0  0
 24 25  1  0  0  0  0
 26 34  1  1  0  0  0
 26 32  1  0  0  0  0
 28 27  2  0  0  0  0
 30 33  1  1  0  0  0
 30 26  1  0  0  0  0
 30 31  1  0  0  0  0
 31 29  1  1  0  0  0
 31 28  1  0  0  0  0
 32 27  1  6  0  0  0
 35  1  1  0  0  0  0
 36 37  1  0  0  0  0
 37 35  1  0  0  0  0
M  END
>  <MODEL>
3

>  <REMARK>
 VINA RESULT:      -8.2      2.406      7.935
  Name = 
  5 active torsions:
  status: ('A' for Active; 'I' for Inactive)
    1  A    between atoms: C_1  and  O_5
    2  A    between atoms: C_4  and  C_10
    3  A    between atoms: O_5  and  C_23
    4  A    between atoms: C_9  and  C_16
    5  A    between atoms: C_27  and  C_31
                            x       y       z     vdW  Elec       q    Type
                         _______ _______ _______ _____ _____    ______ ____

>  <TORSDO>
F 5

$$$$
=
 OpenBabel11052420023D

 37 43  0  0  1  0  0  0  0  0999 V2000
  192.0770  176.4010  146.3130 C   0  0  0  0  0  0  0  0  0  0  0  0
  190.0250  173.2120  143.1370 C   0  0  0  0  0  2  0  0  0  0  0  0
  189.1860  175.4700  144.0320 C   0  0  1  0  0  3  0  0  0  0  0  0
  194.2210  175.9390  143.2420 C   0  0  0  0  0  1  0  0  0  0  0  0
  188.9410  174.2790  143.0880 C   0  0  0  0  0  2  0  0  0  0  0  0
  193.1740  176.3450  145.4540 C   0  0  0  0  0  3  0  0  0  0  0  0
  193.0160  175.9500  144.1230 C   0  0  0  0  0  0  0  0  0  0  0  0
  191.1940  173.5740  142.2120 C   0  0  1  0  0  3  0  0  0  0  0  0
  190.6200  175.6850  144.4960 C   0  0  0  0  0  0  0  0  0  0  0  0
  191.5960  175.0580  142.2410 C   0  0  0  0  0  2  0  0  0  0  0  0
  191.7440  175.5880  143.6400 C   0  0  0  0  0  0  0  0  0  0  0  0
  190.8050  176.0800  145.8260 C   0  0  0  0  0  3  0  0  0  0  0  0
  185.2140  179.0130  145.6200 C   0  0  1  0  0  3  0  0  0  0  0  0
  188.5190  176.7320  143.4430 C   0  0  1  0  0  0  0  0  0  0  0  0
  186.2000  178.0410  143.4570 C   0  0  1  0  0  3  0  0  0  0  0  0
  187.2700  177.1990  144.1990 C   0  0  1  0  0  0  0  0  0  0  0  0
  186.8130  176.3440  145.2260 O   0  0  0  0  0  0  0  0  0  0  0  0
  185.0300  177.6420  145.8740 O   0  0  0  0  0  0  0  0  0  0  0  0
  188.6150  177.8480  144.4810 C   0  0  2  0  0  3  0  0  0  0  0  0
  186.2870  177.1490  146.2530 C   0  0  0  0  0  2  0  0  0  0  0  0
  189.4520  177.9160  143.2240 C   0  0  0  0  0  2  0  0  0  0  0  0
  185.8520  179.3040  144.2480 C   0  0  1  0  0  3  0  0  0  0  0  0
  184.3510  179.4160  144.4360 C   0  0  0  0  0  2  0  0  0  0  0  0
  186.5360  178.3960  142.0120 C   0  0  0  0  0  2  0  0  0  0  0  0
  185.4050  178.2370  141.2130 O   0  0  0  0  0  1  0  0  0  0  0  0
  192.1240  171.4280  143.2970 C   0  0  2  0  0  3  0  0  0  0  0  0
  192.9260  172.2540  140.9890 C   0  0  0  0  0  3  0  0  0  0  0  0
  193.1920  170.9980  140.6090 C   0  0  0  0  0  3  0  0  0  0  0  0
  194.2270  169.5080  142.1370 O   0  0  0  0  0  1  0  0  0  0  0  0
  191.9390  170.0800  142.5860 C   0  0  2  0  0  3  0  0  0  0  0  0
  193.0120  169.8220  141.5250 C   0  0  1  0  0  3  0  0  0  0  0  0
  192.3880  172.6200  142.3520 C   0  0  1  0  0  3  0  0  0  0  0  0
  190.6700  170.0020  142.0130 O   0  0  0  0  0  1  0  0  0  0  0  0
  193.2350  171.3270  144.3280 C   0  0  0  0  0  1  0  0  0  0  0  0
  192.2770  176.7910  147.6390 O   0  0  0  0  0  0  0  0  0  0  0  0
  191.5660  178.0570  149.5450 C   0  0  0  0  0  1  0  0  0  0  0  0
  191.2060  176.9700  148.5560 C   0  0  0  0  0  2  0  0  0  0  0  0
  1 35  1  0  0  0  0
  3  5  1  6  0  0  0
  3  9  1  0  0  0  0
  4  7  1  0  0  0  0
  5  2  1  0  0  0  0
  6  1  2  0  0  0  0
  7  6  1  0  0  0  0
  8 10  1  1  0  0  0
  8 32  1  0  0  0  0
  8  2  1  0  0  0  0
  9 12  2  0  0  0  0
 10 11  1  0  0  0  0
 11  7  2  0  0  0  0
 11  9  1  0  0  0  0
 12  1  1  0  0  0  0
 13 23  1  6  0  0  0
 13 18  1  0  0  0  0
 14 21  1  6  0  0  0
 14  3  1  0  0  0  0
 14 16  1  0  0  0  0
 14 19  1  0  0  0  0
 15 24  1  6  0  0  0
 15 16  1  0  0  0  0
 15 22  1  0  0  0  0
 16 19  1  0  0  0  0
 16 17  1  1  0  0  0
 17 20  1  0  0  0  0
 18 20  1  0  0  0  0
 19 21  1  6  0  0  0
 22 23  1  6  0  0  0
 22 13  1  0  0  0  0
 25 24  1  0  0  0  0
 26 34  1  1  0  0  0
 28 27  2  0  0  0  0
 28 31  1  0  0  0  0
 30 33  1  6  0  0  0
 30 26  1  0  0  0  0
 31 29  1  1  0  0  0
 31 30  1  0  0  0  0
 32 27  1  6  0  0  0
 32 26  1  0  0  0  0
 35 37  1  0  0  0  0
 37 36  1  0  0  0  0
M  END
>  <MODEL>
4

>  <REMARK>
 VINA RESULT:      -8.1      2.163      8.662
  Name = 
  5 active torsions:
  status: ('A' for Active; 'I' for Inactive)
    1  A    between atoms: C_1  and  O_5
    2  A    between atoms: C_4  and  C_10
    3  A    between atoms: O_5  and  C_23
    4  A    between atoms: C_9  and  C_16
    5  A    between atoms: C_27  and  C_31
                            x       y       z     vdW  Elec       q    Type
                         _______ _______ _______ _____ _____    ______ ____

>  <TORSDO>
F 5

$$$$
=
 OpenBabel11052420023D

 37 43  0  0  1  0  0  0  0  0999 V2000
  190.1350  172.9590  141.7690 C   0  0  0  0  0  0  0  0  0  0  0  0
  192.7050  176.9280  143.2200 C   0  0  0  0  0  2  0  0  0  0  0  0
  190.1910  176.4130  143.3480 C   0  0  1  0  0  3  0  0  0  0  0  0
  192.6750  172.0680  144.4130 C   0  0  0  0  0  1  0  0  0  0  0  0
  191.3320  177.3890  143.6860 C   0  0  0  0  0  2  0  0  0  0  0  0
  191.0430  172.2500  142.5550 C   0  0  0  0  0  3  0  0  0  0  0  0
  191.7400  172.8840  143.5850 C   0  0  0  0  0  0  0  0  0  0  0  0
  193.3440  175.9850  144.2460 C   0  0  1  0  0  3  0  0  0  0  0  0
  190.5910  174.9720  143.0630 C   0  0  0  0  0  0  0  0  0  0  0  0
  192.3770  174.9620  144.8640 C   0  0  0  0  0  2  0  0  0  0  0  0
  191.5440  174.2570  143.8290 C   0  0  0  0  0  0  0  0  0  0  0  0
  189.9080  174.3140  142.0350 C   0  0  0  0  0  3  0  0  0  0  0  0
  185.0080  178.4100  143.4220 C   0  0  1  0  0  3  0  0  0  0  0  0
  189.0680  176.5580  144.3980 C   0  0  1  0  0  0  0  0  0  0  0  0
  187.0030  178.1240  145.0130 C   0  0  1  0  0  3  0  0  0  0  0  0
  187.8880  177.4270  143.9470 C   0  0  1  0  0  0  0  0  0  0  0  0
  188.0460  178.0910  142.7110 O   0  0  0  0  0  0  0  0  0  0  0  0
  185.9870  179.1130  142.6980 O   0  0  0  0  0  0  0  0  0  0  0  0
  187.8040  175.9130  143.8340 C   0  0  2  0  0  3  0  0  0  0  0  0
  186.7870  178.1380  142.0840 C   0  0  0  0  0  2  0  0  0  0  0  0
  188.5440  175.2490  144.9720 C   0  0  0  0  0  2  0  0  0  0  0  0
  185.5200  177.8460  144.7600 C   0  0  1  0  0  3  0  0  0  0  0  0
  184.7350  179.1420  144.7240 C   0  0  0  0  0  2  0  0  0  0  0  0
  187.3620  177.8140  146.4620 C   0  0  0  0  0  2  0  0  0  0  0  0
  186.3610  177.0340  147.0390 O   0  0  0  0  0  1  0  0  0  0  0  0
  194.6090  174.9130  142.2700 C   0  0  2  0  0  3  0  0  0  0  0  0
  195.8280  176.2270  144.1250 C   0  0  0  0  0  3  0  0  0  0  0  0
  196.7910  176.5850  143.2670 C   0  0  0  0  0  3  0  0  0  0  0  0
  197.6330  174.9930  141.7240 O   0  0  0  0  0  1  0  0  0  0  0  0
  195.4120  175.8060  141.3140 C   0  0  2  0  0  3  0  0  0  0  0  0
  196.8150  176.1180  141.8400 C   0  0  1  0  0  3  0  0  0  0  0  0
  194.6540  175.3550  143.7490 C   0  0  1  0  0  3  0  0  0  0  0  0
  194.7220  176.9900  141.0570 O   0  0  0  0  0  1  0  0  0  0  0  0
  195.0650  173.4700  142.1460 C   0  0  0  0  0  1  0  0  0  0  0  0
  189.4650  172.2910  140.7420 O   0  0  0  0  0  0  0  0  0  0  0  0
  190.0800  170.8560  138.9240 C   0  0  0  0  0  1  0  0  0  0  0  0
  189.9290  172.2850  139.3990 C   0  0  0  0  0  2  0  0  0  0  0  0
  1 12  2  0  0  0  0
  1  6  1  0  0  0  0
  2  5  1  0  0  0  0
  3  5  1  1  0  0  0
  3 14  1  0  0  0  0
  6  7  2  0  0  0  0
  7 11  1  0  0  0  0
  7  4  1  0  0  0  0
  8  2  1  6  0  0  0
  8 10  1  0  0  0  0
  9  3  1  0  0  0  0
  9 11  2  0  0  0  0
 11 10  1  0  0  0  0
 12  9  1  0  0  0  0
 13 23  1  1  0  0  0
 13 22  1  0  0  0  0
 14 21  1  1  0  0  0
 15 24  1  1  0  0  0
 16 17  1  6  0  0  0
 16 14  1  0  0  0  0
 16 15  1  0  0  0  0
 18 13  1  0  0  0  0
 19 16  1  0  0  0  0
 19 14  1  0  0  0  0
 19 21  1  1  0  0  0
 20 18  1  0  0  0  0
 20 17  1  0  0  0  0
 22 23  1  1  0  0  0
 22 15  1  0  0  0  0
 24 25  1  0  0  0  0
 26 34  1  1  0  0  0
 26 32  1  0  0  0  0
 28 27  2  0  0  0  0
 30 33  1  1  0  0  0
 30 31  1  0  0  0  0
 30 26  1  0  0  0  0
 31 29  1  1  0  0  0
 31 28  1  0  0  0  0
 32 27  1  6  0  0  0
 32  8  1  0  0  0  0
 35  1  1  0  0  0  0
 36 37  1  0  0  0  0
 37 35  1  0  0  0  0
M  END
>  <MODEL>
5

>  <REMARK>
 VINA RESULT:      -7.7      2.185      8.121
  Name = 
  5 active torsions:
  status: ('A' for Active; 'I' for Inactive)
    1  A    between atoms: C_1  and  O_5
    2  A    between atoms: C_4  and  C_10
    3  A    between atoms: O_5  and  C_23
    4  A    between atoms: C_9  and  C_16
    5  A    between atoms: C_27  and  C_31
                            x       y       z     vdW  Elec       q    Type
                         _______ _______ _______ _____ _____    ______ ____

>  <TORSDO>
F 5

$$$$
=
 OpenBabel11052420023D

 37 43  0  0  1  0  0  0  0  0999 V2000
  193.1650  176.5330  144.2920 C   0  0  0  0  0  0  0  0  0  0  0  0
  190.2750  172.6400  143.3170 C   0  0  0  0  0  2  0  0  0  0  0  0
  189.6820  175.0760  143.8790 C   0  0  1  0  0  3  0  0  0  0  0  0
  193.7840  175.1910  140.8200 C   0  0  0  0  0  1  0  0  0  0  0  0
  189.1750  173.6770  143.4880 C   0  0  0  0  0  2  0  0  0  0  0  0
  193.7750  176.2170  143.0790 C   0  0  0  0  0  3  0  0  0  0  0  0
  193.0930  175.4740  142.1130 C   0  0  0  0  0  0  0  0  0  0  0  0
  190.8760  172.7050  141.9070 C   0  0  1  0  0  3  0  0  0  0  0  0
  191.1430  175.3780  143.5770 C   0  0  0  0  0  0  0  0  0  0  0  0
  191.0940  174.1290  141.3700 C   0  0  0  0  0  2  0  0  0  0  0  0
  191.7830  175.0220  142.3640 C   0  0  0  0  0  0  0  0  0  0  0  0
  191.8490  176.1210  144.5290 C   0  0  0  0  0  3  0  0  0  0  0  0
  185.9930  178.5780  146.1100 C   0  0  1  0  0  3  0  0  0  0  0  0
  188.6970  176.1420  143.3510 C   0  0  1  0  0  0  0  0  0  0  0  0
  186.3520  177.2590  143.9360 C   0  0  1  0  0  3  0  0  0  0  0  0
  187.7070  176.6630  144.3980 C   0  0  1  0  0  0  0  0  0  0  0  0
  187.7250  176.0060  145.6470 O   0  0  0  0  0  0  0  0  0  0  0  0
  186.0880  177.2790  146.6380 O   0  0  0  0  0  0  0  0  0  0  0  0
  188.9710  177.4500  144.0910 C   0  0  2  0  0  3  0  0  0  0  0  0
  187.4540  176.9630  146.6420 C   0  0  0  0  0  2  0  0  0  0  0  0
  189.3410  177.3190  142.6310 C   0  0  0  0  0  2  0  0  0  0  0  0
  186.1100  178.6280  144.5750 C   0  0  1  0  0  3  0  0  0  0  0  0
  184.7490  178.6700  145.2430 C   0  0  0  0  0  2  0  0  0  0  0  0
  186.1540  177.3350  142.4260 C   0  0  0  0  0  2  0  0  0  0  0  0
  186.2340  178.6620  142.0070 O   0  0  0  0  0  1  0  0  0  0  0  0
  192.0920  170.5560  142.6520 C   0  0  2  0  0  3  0  0  0  0  0  0
  192.3430  171.5170  140.2710 C   0  0  0  0  0  3  0  0  0  0  0  0
  192.5610  170.2920  139.7770 C   0  0  0  0  0  3  0  0  0  0  0  0
  193.9530  168.7830  140.9650 O   0  0  0  0  0  1  0  0  0  0  0  0
  191.8010  169.2340  141.9280 C   0  0  2  0  0  3  0  0  0  0  0  0
  192.6240  169.0710  140.6480 C   0  0  1  0  0  3  0  0  0  0  0  0
  192.1030  171.7990  141.7350 C   0  0  1  0  0  3  0  0  0  0  0  0
  190.4400  169.1250  141.6400 O   0  0  0  0  0  1  0  0  0  0  0  0
  193.4030  170.4590  143.4100 C   0  0  0  0  0  1  0  0  0  0  0  0
  193.8840  177.2700  145.2370 O   0  0  0  0  0  0  0  0  0  0  0  0
  194.9400  175.4560  146.3940 C   0  0  0  0  0  1  0  0  0  0  0  0
  194.1930  176.7660  146.5290 C   0  0  0  0  0  2  0  0  0  0  0  0
  1 12  1  0  0  0  0
  1 35  1  0  0  0  0
  2  5  1  0  0  0  0
  3  5  1  6  0  0  0
  4  7  1  0  0  0  0
  6  1  2  0  0  0  0
  7 11  2  0  0  0  0
  7  6  1  0  0  0  0
  8 10  1  1  0  0  0
  8  2  1  0  0  0  0
  9  3  1  0  0  0  0
  9 12  2  0  0  0  0
 10 11  1  0  0  0  0
 11  9  1  0  0  0  0
 13 23  1  6  0  0  0
 13 18  1  0  0  0  0
 14 21  1  6  0  0  0
 14  3  1  0  0  0  0
 14 19  1  0  0  0  0
 14 16  1  0  0  0  0
 15 24  1  6  0  0  0
 15 16  1  0  0  0  0
 15 22  1  0  0  0  0
 16 17  1  1  0  0  0
 17 20  1  0  0  0  0
 18 20  1  0  0  0  0
 19 21  1  6  0  0  0
 19 16  1  0  0  0  0
 22 23  1  6  0  0  0
 22 13  1  0  0  0  0
 25 24  1  0  0  0  0
 26 34  1  6  0  0  0
 28 27  2  0  0  0  0
 28 31  1  0  0  0  0
 30 33  1  6  0  0  0
 30 26  1  0  0  0  0
 31 29  1  1  0  0  0
 31 30  1  0  0  0  0
 32 27  1  6  0  0  0
 32  8  1  0  0  0  0
 32 26  1  0  0  0  0
 35 37  1  0  0  0  0
 36 37  1  0  0  0  0
M  END
>  <MODEL>
6

>  <REMARK>
 VINA RESULT:      -7.7      2.209      8.541
  Name = 
  5 active torsions:
  status: ('A' for Active; 'I' for Inactive)
    1  A    between atoms: C_1  and  O_5
    2  A    between atoms: C_4  and  C_10
    3  A    between atoms: O_5  and  C_23
    4  A    between atoms: C_9  and  C_16
    5  A    between atoms: C_27  and  C_31
                            x       y       z     vdW  Elec       q    Type
                         _______ _______ _______ _____ _____    ______ ____

>  <TORSDO>
F 5

$$$$
=
 OpenBabel11052420023D

 37 43  0  0  1  0  0  0  0  0999 V2000
  191.8010  175.1240  145.6780 C   0  0  0  0  0  0  0  0  0  0  0  0
  189.0630  172.8780  142.2250 C   0  0  0  0  0  2  0  0  0  0  0  0
  188.6860  175.0750  143.5050 C   0  0  1  0  0  3  0  0  0  0  0  0
  193.6800  174.8000  142.4220 C   0  0  0  0  0  1  0  0  0  0  0  0
  188.1870  174.1080  142.4160 C   0  0  0  0  0  2  0  0  0  0  0  0
  192.8280  175.0200  144.7410 C   0  0  0  0  0  3  0  0  0  0  0  0
  192.5400  174.8750  143.3820 C   0  0  0  0  0  0  0  0  0  0  0  0
  190.2330  173.1790  141.2800 C   0  0  1  0  0  3  0  0  0  0  0  0
  190.1550  174.9660  143.8890 C   0  0  0  0  0  0  0  0  0  0  0  0
  190.8960  174.5490  141.4990 C   0  0  0  0  0  2  0  0  0  0  0  0
  191.2020  174.8170  142.9470 C   0  0  0  0  0  0  0  0  0  0  0  0
  190.4710  175.1070  145.2440 C   0  0  0  0  0  3  0  0  0  0  0  0
  185.2380  178.8220  145.7240 C   0  0  1  0  0  3  0  0  0  0  0  0
  188.2300  176.5090  143.1610 C   0  0  1  0  0  0  0  0  0  0  0  0
  186.1300  178.1270  143.4180 C   0  0  1  0  0  3  0  0  0  0  0  0
  187.0420  177.0110  143.9910 C   0  0  1  0  0  0  0  0  0  0  0  0
  186.4360  176.0620  144.8410 O   0  0  0  0  0  0  0  0  0  0  0  0
  184.8470  177.4720  145.7190 O   0  0  0  0  0  0  0  0  0  0  0  0
  188.4600  177.3880  144.3890 C   0  0  2  0  0  3  0  0  0  0  0  0
  186.0060  176.7340  146.0000 C   0  0  0  0  0  2  0  0  0  0  0  0
  189.3330  177.5590  143.1660 C   0  0  0  0  0  2  0  0  0  0  0  0
  185.9500  179.2610  144.4300 C   0  0  1  0  0  3  0  0  0  0  0  0
  184.4780  179.5610  144.6360 C   0  0  0  0  0  2  0  0  0  0  0  0
  186.5550  178.6870  142.0650 C   0  0  0  0  0  2  0  0  0  0  0  0
  185.8110  178.0870  141.0510 O   0  0  0  0  0  1  0  0  0  0  0  0
  190.5870  170.6410  140.9860 C   0  0  2  0  0  3  0  0  0  0  0  0
  192.3370  172.3680  140.2060 C   0  0  0  0  0  3  0  0  0  0  0  0
  192.7520  171.5410  139.2390 C   0  0  0  0  0  3  0  0  0  0  0  0
  192.9960  169.2280  139.7030 O   0  0  0  0  0  1  0  0  0  0  0  0
  190.7480  170.0600  139.5750 C   0  0  2  0  0  3  0  0  0  0  0  0
  192.1850  170.1620  139.0570 C   0  0  1  0  0  3  0  0  0  0  0  0
  191.2420  172.0260  141.1870 C   0  0  1  0  0  3  0  0  0  0  0  0
  189.8730  170.6850  138.6870 O   0  0  0  0  0  1  0  0  0  0  0  0
  191.1150  169.6620  142.0190 C   0  0  0  0  0  1  0  0  0  0  0  0
  192.1300  175.2590  147.0280 O   0  0  0  0  0  0  0  0  0  0  0  0
  191.3020  177.1480  148.2480 C   0  0  0  0  0  1  0  0  0  0  0  0
  191.1850  175.6580  148.0120 C   0  0  0  0  0  2  0  0  0  0  0  0
  1 35  1  0  0  0  0
  2  5  1  0  0  0  0
  3  5  1  6  0  0  0
  3  9  1  0  0  0  0
  4  7  1  0  0  0  0
  6  1  2  0  0  0  0
  7  6  1  0  0  0  0
  8 10  1  1  0  0  0
  8  2  1  0  0  0  0
  9 12  2  0  0  0  0
 10 11  1  0  0  0  0
 11  7  2  0  0  0  0
 11  9  1  0  0  0  0
 12  1  1  0  0  0  0
 13 23  1  6  0  0  0
 14 21  1  6  0  0  0
 14  3  1  0  0  0  0
 14 16  1  0  0  0  0
 14 19  1  0  0  0  0
 15 24  1  6  0  0  0
 15 16  1  0  0  0  0
 15 22  1  0  0  0  0
 16 19  1  0  0  0  0
 16 17  1  1  0  0  0
 17 20  1  0  0  0  0
 18 13  1  0  0  0  0
 18 20  1  0  0  0  0
 19 21  1  6  0  0  0
 22 23  1  6  0  0  0
 22 13  1  0  0  0  0
 25 24  1  0  0  0  0
 26 32  1  0  0  0  0
 26 34  1  1  0  0  0
 28 27  2  0  0  0  0
 30 33  1  6  0  0  0
 30 26  1  0  0  0  0
 31 28  1  0  0  0  0
 31 30  1  0  0  0  0
 31 29  1  1  0  0  0
 32 27  1  6  0  0  0
 32  8  1  0  0  0  0
 35 37  1  0  0  0  0
 37 36  1  0  0  0  0
M  END
>  <MODEL>
7

>  <REMARK>
 VINA RESULT:      -7.6      2.163      8.649
  Name = 
  5 active torsions:
  status: ('A' for Active; 'I' for Inactive)
    1  A    between atoms: C_1  and  O_5
    2  A    between atoms: C_4  and  C_10
    3  A    between atoms: O_5  and  C_23
    4  A    between atoms: C_9  and  C_16
    5  A    between atoms: C_27  and  C_31
                            x       y       z     vdW  Elec       q    Type
                         _______ _______ _______ _____ _____    ______ ____

>  <TORSDO>
F 5

$$$$
=
 OpenBabel11052420023D

 37 43  0  0  1  0  0  0  0  0999 V2000
  189.2570  173.4760  140.6410 C   0  0  0  0  0  0  0  0  0  0  0  0
  192.5240  176.6280  142.6050 C   0  0  0  0  0  2  0  0  0  0  0  0
  189.9940  176.3770  142.9800 C   0  0  1  0  0  3  0  0  0  0  0  0
  191.9340  171.6580  142.5820 C   0  0  0  0  0  1  0  0  0  0  0  0
  191.2950  177.1010  143.3690 C   0  0  0  0  0  2  0  0  0  0  0  0
  190.1390  172.4930  141.0880 C   0  0  0  0  0  3  0  0  0  0  0  0
  191.0360  172.7590  142.1240 C   0  0  0  0  0  0  0  0  0  0  0  0
  193.1360  175.3870  143.2660 C   0  0  1  0  0  3  0  0  0  0  0  0
  190.1460  175.0240  142.2990 C   0  0  0  0  0  0  0  0  0  0  0  0
  192.1110  174.3520  143.7560 C   0  0  0  0  0  2  0  0  0  0  0  0
  191.0690  174.0350  142.7190 C   0  0  0  0  0  0  0  0  0  0  0  0
  189.2600  174.7330  141.2570 C   0  0  0  0  0  3  0  0  0  0  0  0
  185.0250  178.5570  144.1690 C   0  0  1  0  0  3  0  0  0  0  0  0
  189.0340  176.3680  144.1900 C   0  0  1  0  0  0  0  0  0  0  0  0
  187.1880  177.8790  145.3740 C   0  0  1  0  0  3  0  0  0  0  0  0
  187.8710  177.3610  144.0820 C   0  0  1  0  0  0  0  0  0  0  0  0
  187.9100  178.2430  142.9800 O   0  0  0  0  0  0  0  0  0  0  0  0
  185.9470  179.3410  143.4540 O   0  0  0  0  0  0  0  0  0  0  0  0
  187.6630  175.9030  143.7040 C   0  0  2  0  0  3  0  0  0  0  0  0
  186.5860  178.4670  142.5610 C   0  0  0  0  0  2  0  0  0  0  0  0
  188.4980  174.9980  144.5820 C   0  0  0  0  0  2  0  0  0  0  0  0
  185.6690  177.7220  145.2920 C   0  0  1  0  0  3  0  0  0  0  0  0
  184.9810  179.0360  145.6090 C   0  0  0  0  0  2  0  0  0  0  0  0
  187.7130  177.2790  146.6750 C   0  0  0  0  0  2  0  0  0  0  0  0
  188.7800  178.0420  147.1480 O   0  0  0  0  0  1  0  0  0  0  0  0
  195.1390  175.8080  141.6970 C   0  0  2  0  0  3  0  0  0  0  0  0
  195.0420  173.7720  143.2770 C   0  0  0  0  0  3  0  0  0  0  0  0
  196.3770  173.7490  143.3640 C   0  0  0  0  0  3  0  0  0  0  0  0
  197.6820  174.1030  141.4160 O   0  0  0  0  0  1  0  0  0  0  0  0
  196.5360  176.0200  142.2970 C   0  0  2  0  0  3  0  0  0  0  0  0
  197.2520  174.7020  142.6010 C   0  0  1  0  0  3  0  0  0  0  0  0
  194.2740  174.7680  142.4420 C   0  0  1  0  0  3  0  0  0  0  0  0
  196.4590  176.8010  143.4500 O   0  0  0  0  0  1  0  0  0  0  0  0
  195.2510  175.4360  140.2300 C   0  0  0  0  0  1  0  0  0  0  0  0
  188.3820  173.1750  139.5960 O   0  0  0  0  0  0  0  0  0  0  0  0
  189.0070  173.5920  137.3200 C   0  0  0  0  0  1  0  0  0  0  0  0
  188.1700  174.0490  138.4950 C   0  0  0  0  0  2  0  0  0  0  0  0
  1  6  2  0  0  0  0
  1 12  1  0  0  0  0
  2  5  1  0  0  0  0
  3  5  1  1  0  0  0
  3 14  1  0  0  0  0
  6  7  1  0  0  0  0
  7  4  1  0  0  0  0
  7 11  2  0  0  0  0
  8  2  1  6  0  0  0
  8 10  1  0  0  0  0
  9 11  1  0  0  0  0
  9  3  1  0  0  0  0
 11 10  1  0  0  0  0
 12  9  2  0  0  0  0
 13 22  1  0  0  0  0
 13 23  1  1  0  0  0
 14 21  1  1  0  0  0
 15 24  1  1  0  0  0
 16 17  1  6  0  0  0
 16 14  1  0  0  0  0
 16 15  1  0  0  0  0
 18 13  1  0  0  0  0
 19 16  1  0  0  0  0
 19 14  1  0  0  0  0
 19 21  1  1  0  0  0
 20 17  1  0  0  0  0
 20 18  1  0  0  0  0
 22 15  1  0  0  0  0
 22 23  1  1  0  0  0
 24 25  1  0  0  0  0
 26 34  1  6  0  0  0
 26 30  1  0  0  0  0
 26 32  1  0  0  0  0
 27 28  2  0  0  0  0
 30 31  1  0  0  0  0
 30 33  1  1  0  0  0
 31 29  1  6  0  0  0
 31 28  1  0  0  0  0
 32  8  1  0  0  0  0
 32 27  1  1  0  0  0
 35  1  1  0  0  0  0
 36 37  1  0  0  0  0
 37 35  1  0  0  0  0
M  END
>  <MODEL>
8

>  <REMARK>
 VINA RESULT:      -7.3      2.246      8.256
  Name = 
  5 active torsions:
  status: ('A' for Active; 'I' for Inactive)
    1  A    between atoms: C_1  and  O_5
    2  A    between atoms: C_4  and  C_10
    3  A    between atoms: O_5  and  C_23
    4  A    between atoms: C_9  and  C_16
    5  A    between atoms: C_27  and  C_31
                            x       y       z     vdW  Elec       q    Type
                         _______ _______ _______ _____ _____    ______ ____

>  <TORSDO>
F 5

$$$$
=
 OpenBabel11052420023D

 37 43  0  0  1  0  0  0  0  0999 V2000
  194.1090  175.3700  143.5810 C   0  0  0  0  0  0  0  0  0  0  0  0
  190.5640  172.0970  142.4950 C   0  0  0  0  0  2  0  0  0  0  0  0
  190.4290  174.4310  143.5630 C   0  0  1  0  0  3  0  0  0  0  0  0
  193.9730  174.6620  139.8780 C   0  0  0  0  0  1  0  0  0  0  0  0
  189.6680  173.2010  143.0370 C   0  0  0  0  0  2  0  0  0  0  0  0
  194.4680  175.2260  142.2420 C   0  0  0  0  0  3  0  0  0  0  0  0
  193.5420  174.7670  141.3030 C   0  0  0  0  0  0  0  0  0  0  0  0
  190.9400  172.3640  141.0320 C   0  0  1  0  0  3  0  0  0  0  0  0
  191.8530  174.6150  143.0570 C   0  0  0  0  0  0  0  0  0  0  0  0
  191.2760  173.8300  140.7150 C   0  0  0  0  0  2  0  0  0  0  0  0
  192.2360  174.4290  141.7060 C   0  0  0  0  0  0  0  0  0  0  0  0
  192.8010  175.0730  143.9790 C   0  0  0  0  0  3  0  0  0  0  0  0
  187.2640  177.5270  146.9160 C   0  0  1  0  0  3  0  0  0  0  0  0
  189.5400  175.6840  143.4110 C   0  0  1  0  0  0  0  0  0  0  0  0
  187.3640  176.8120  144.4520 C   0  0  1  0  0  3  0  0  0  0  0  0
  188.6680  175.9930  144.6330 C   0  0  1  0  0  0  0  0  0  0  0  0
  188.6790  175.0260  145.6610 O   0  0  0  0  0  0  0  0  0  0  0  0
  187.2440  176.1300  147.0760 O   0  0  0  0  0  0  0  0  0  0  0  0
  189.9930  176.7150  144.4430 C   0  0  2  0  0  3  0  0  0  0  0  0
  188.5660  175.7020  146.8900 C   0  0  0  0  0  2  0  0  0  0  0  0
  190.2700  176.9470  142.9760 C   0  0  0  0  0  2  0  0  0  0  0  0
  187.3060  177.9760  145.4430 C   0  0  1  0  0  3  0  0  0  0  0  0
  185.9940  177.9610  146.2040 C   0  0  0  0  0  2  0  0  0  0  0  0
  187.0970  177.3090  143.0350 C   0  0  0  0  0  2  0  0  0  0  0  0
  186.8480  178.6800  143.0550 O   0  0  0  0  0  1  0  0  0  0  0  0
  192.4070  170.2980  141.5110 C   0  0  2  0  0  3  0  0  0  0  0  0
  191.5430  170.8450  139.1430 C   0  0  0  0  0  3  0  0  0  0  0  0
  191.5440  169.5460  138.8210 C   0  0  0  0  0  3  0  0  0  0  0  0
  193.3530  168.1720  139.5020 O   0  0  0  0  0  1  0  0  0  0  0  0
  191.8510  168.8950  141.2290 C   0  0  2  0  0  3  0  0  0  0  0  0
  192.0170  168.4790  139.7660 C   0  0  1  0  0  3  0  0  0  0  0  0
  191.9790  171.3730  140.4890 C   0  0  1  0  0  3  0  0  0  0  0  0
  190.5090  168.8190  141.6000 O   0  0  0  0  0  1  0  0  0  0  0  0
  193.9210  170.2500  141.6110 C   0  0  0  0  0  1  0  0  0  0  0  0
  195.0670  175.8230  144.4920 O   0  0  0  0  0  0  0  0  0  0  0  0
  194.4700  177.3530  146.2380 C   0  0  0  0  0  1  0  0  0  0  0  0
  194.8130  175.9210  145.8870 C   0  0  0  0  0  2  0  0  0  0  0  0
  1 12  1  0  0  0  0
  1 35  1  0  0  0  0
  2  5  1  0  0  0  0
  3  5  1  6  0  0  0
  4  7  1  0  0  0  0
  6  1  2  0  0  0  0
  7 11  2  0  0  0  0
  7  6  1  0  0  0  0
  8 10  1  1  0  0  0
  8  2  1  0  0  0  0
  9  3  1  0  0  0  0
  9 12  2  0  0  0  0
 10 11  1  0  0  0  0
 11  9  1  0  0  0  0
 13 23  1  6  0  0  0
 13 18  1  0  0  0  0
 14 21  1  6  0  0  0
 14  3  1  0  0  0  0
 14 19  1  0  0  0  0
 14 16  1  0  0  0  0
 15 24  1  6  0  0  0
 15 16  1  0  0  0  0
 15 22  1  0  0  0  0
 16 17  1  1  0  0  0
 17 20  1  0  0  0  0
 19 21  1  6  0  0  0
 19 16  1  0  0  0  0
 20 18  1  0  0  0  0
 22 23  1  6  0  0  0
 22 13  1  0  0  0  0
 24 25  1  0  0  0  0
 26 34  1  6  0  0  0
 28 27  2  0  0  0  0
 28 31  1  0  0  0  0
 30 26  1  0  0  0  0
 30 33  1  6  0  0  0
 31 29  1  6  0  0  0
 31 30  1  0  0  0  0
 32 27  1  6  0  0  0
 32  8  1  0  0  0  0
 32 26  1  0  0  0  0
 35 37  1  0  0  0  0
 37 36  1  0  0  0  0
M  END
>  <MODEL>
9

>  <REMARK>
 VINA RESULT:      -6.9      2.397      8.455
  Name = 
  5 active torsions:
  status: ('A' for Active; 'I' for Inactive)
    1  A    between atoms: C_1  and  O_5
    2  A    between atoms: C_4  and  C_10
    3  A    between atoms: O_5  and  C_23
    4  A    between atoms: C_9  and  C_16
    5  A    between atoms: C_27  and  C_31
                            x       y       z     vdW  Elec       q    Type
                         _______ _______ _______ _____ _____    ______ ____

>  <TORSDO>
F 5

$$$$
