=
 OpenBabel11052420073D

 37 41  0  0  1  0  0  0  0  0999 V2000
  194.0380  173.8020  144.3040 C   0  0  0  0  0  2  0  0  0  0  0  0
  190.2350  174.0990  141.8670 C   0  0  2  0  0  3  0  0  0  0  0  0
  194.5850  173.9570  145.7130 C   0  0  2  0  0  3  0  0  0  0  0  0
  190.8880  177.4750  143.8780 C   0  0  0  0  0  2  0  0  0  0  0  0
  190.7370  175.1230  142.8980 C   0  0  2  0  0  3  0  0  0  0  0  0
  191.3970  173.8090  140.9400 C   0  0  1  0  0  3  0  0  0  0  0  0
  190.2890  176.6040  142.7590 C   0  0  1  0  0  3  0  0  0  0  0  0
  193.7390  175.0250  146.3910 C   0  0  0  0  0  2  0  0  0  0  0  0
  192.6440  174.0660  141.7740 C   0  0  2  0  0  3  0  0  0  0  0  0
  187.7520  174.5920  142.0220 C   0  0  0  0  0  2  0  0  0  0  0  0
  192.8960  175.6860  145.3010 C   0  0  2  0  0  0  0  0  0  0  0  0
  190.6650  176.9060  145.2500 C   0  0  0  0  0  3  0  0  0  0  0  0
  188.9670  174.4630  141.0990 C   0  0  0  0  0  2  0  0  0  0  0  0
  192.2570  175.0190  142.9030 C   0  0  2  0  0  3  0  0  0  0  0  0
  188.7610  176.8270  142.5720 C   0  0  1  0  0  3  0  0  0  0  0  0
  191.5550  176.1150  145.8720 C   0  0  0  0  0  3  0  0  0  0  0  0
  192.7160  174.5500  144.2940 C   0  0  1  0  0  3  0  0  0  0  0  0
  187.9130  175.6740  143.0930 C   0  0  0  0  0  2  0  0  0  0  0  0
  193.6060  176.7580  144.6900 O   0  0  0  0  0  0  0  0  0  0  0  0
  194.3510  177.4600  145.6570 C   0  0  0  0  0  1  0  0  0  0  0  0
  196.9570  173.2700  146.0610 C   0  0  0  0  0  1  0  0  0  0  0  0
  196.0350  174.4080  145.6660 C   0  0  0  0  0  2  0  0  0  0  0  0
  193.8110  174.6410  140.9610 C   0  0  1  0  0  3  0  0  0  0  0  0
  193.5400  174.5200  139.4710 C   0  0  0  0  0  1  0  0  0  0  0  0
  194.1360  176.0830  141.3430 C   0  0  0  0  0  2  0  0  0  0  0  0
  195.6360  176.3280  141.3280 C   0  0  0  0  0  2  0  0  0  0  0  0
  196.1600  176.1870  142.6140 O   0  0  0  0  0  1  0  0  0  0  0  0
  188.2200  178.1710  143.0550 C   0  0  0  0  0  2  0  0  0  0  0  0
  185.8970  179.0490  143.0870 C   0  0  0  0  0  2  0  0  0  0  0  0
  186.8670  178.2710  145.1580 C   0  0  0  0  0  2  0  0  0  0  0  0
  184.8120  178.3690  146.3630 O   0  0  0  0  0  1  0  0  0  0  0  0
  184.8910  179.3150  144.1820 C   0  0  0  0  0  2  0  0  0  0  0  0
  185.6260  179.0850  145.4870 C   0  0  2  0  0  3  0  0  0  0  0  0
  186.8350  178.0140  143.6630 C   0  0  2  0  0  3  0  0  0  0  0  0
  191.3740  172.3550  140.4930 C   0  0  0  0  0  2  0  0  0  0  0  0
  191.8940  171.4520  141.5930 C   0  0  0  0  0  2  0  0  0  0  0  0
  190.8080  170.4830  142.0060 C   0  0  0  0  0  1  0  0  0  0  0  0
  1  3  1  0  0  0  0
  2 13  1  6  0  0  0
  2  5  1  0  0  0  0
  3 22  1  6  0  0  0
  3  8  1  0  0  0  0
  4 12  1  0  0  0  0
  5 14  1  0  0  0  0
  6  9  1  0  0  0  0
  6  2  1  0  0  0  0
  7  5  1  0  0  0  0
  7  4  1  0  0  0  0
  9 14  1  0  0  0  0
 10 18  1  0  0  0  0
 11 16  1  0  0  0  0
 11  8  1  0  0  0  0
 12 16  2  0  0  0  0
 13 10  1  0  0  0  0
 14 17  1  0  0  0  0
 15  7  1  0  0  0  0
 15 28  1  0  0  0  0
 15 18  1  0  0  0  0
 17  1  1  0  0  0  0
 17 11  1  0  0  0  0
 19 11  1  0  0  0  0
 19 20  1  0  0  0  0
 22 21  1  0  0  0  0
 23 25  1  0  0  0  0
 23  9  1  0  0  0  0
 24 23  1  0  0  0  0
 26 25  1  0  0  0  0
 26 27  1  0  0  0  0
 28 34  1  0  0  0  0
 29 34  1  0  0  0  0
 29 32  1  0  0  0  0
 30 33  1  0  0  0  0
 32 33  1  0  0  0  0
 33 31  1  0  0  0  0
 34 30  1  0  0  0  0
 35  6  1  0  0  0  0
 35 36  1  0  0  0  0
 36 37  1  0  0  0  0
M  END
>  <MODEL>
1

>  <REMARK>
 VINA RESULT:      -7.1      0.000      0.000
  Name = 
  9 active torsions:
  status: ('A' for Active; 'I' for Inactive)
    1  A    between atoms: C_3  and  C_32
    2  A    between atoms: C_5  and  C_23
    3  A    between atoms: C_6  and  C_31
    4  A    between atoms: C_6  and  C_35
    5  A    between atoms: C_9  and  C_13
    6  A    between atoms: C_9  and  C_16
    7  A    between atoms: O_11  and  C_26
    8  A    between atoms: C_20  and  C_21
    9  A    between atoms: C_21  and  C_32
                            x       y       z     vdW  Elec       q    Type
                         _______ _______ _______ _____ _____    ______ ____

>  <TORSDO>
F 9

$$$$
=
 OpenBabel11052420073D

 37 41  0  0  1  0  0  0  0  0999 V2000
  194.1730  172.6460  141.6840 C   0  0  0  0  0  2  0  0  0  0  0  0
  192.7370  176.3940  143.7770 C   0  0  2  0  0  3  0  0  0  0  0  0
  193.9200  171.7680  140.4710 C   0  0  2  0  0  3  0  0  0  0  0  0
  189.7150  173.8690  143.1770 C   0  0  0  0  0  2  0  0  0  0  0  0
  191.8520  175.2640  143.2260 C   0  0  2  0  0  3  0  0  0  0  0  0
  193.8100  175.7350  144.6200 C   0  0  1  0  0  3  0  0  0  0  0  0
  190.4510  175.0370  143.8580 C   0  0  1  0  0  3  0  0  0  0  0  0
  192.4320  171.8710  140.1640 C   0  0  0  0  0  2  0  0  0  0  0  0
  193.9790  174.3430  144.0290 C   0  0  2  0  0  3  0  0  0  0  0  0
  191.0630  178.2930  143.6290 C   0  0  0  0  0  2  0  0  0  0  0  0
  191.7790  172.5720  141.3540 C   0  0  2  0  0  0  0  0  0  0  0  0
  189.6880  173.9840  141.6790 C   0  0  0  0  0  3  0  0  0  0  0  0
  192.0280  177.5170  144.5300 C   0  0  0  0  0  2  0  0  0  0  0  0
  192.6870  173.9910  143.2950 C   0  0  2  0  0  3  0  0  0  0  0  0
  189.5660  176.3080  144.0000 C   0  0  1  0  0  3  0  0  0  0  0  0
  190.6040  173.4110  140.8810 C   0  0  0  0  0  3  0  0  0  0  0  0
  192.9080  173.4670  141.8670 C   0  0  1  0  0  3  0  0  0  0  0  0
  189.9510  177.4240  143.0370 C   0  0  0  0  0  2  0  0  0  0  0  0
  191.4190  171.6340  142.3620 O   0  0  0  0  0  0  0  0  0  0  0  0
  190.7330  170.5460  141.7880 C   0  0  0  0  0  1  0  0  0  0  0  0
  194.6830  170.1830  142.2380 C   0  0  0  0  0  1  0  0  0  0  0  0
  194.2770  170.3250  140.7840 C   0  0  0  0  0  2  0  0  0  0  0  0
  194.3110  173.2740  145.0780 C   0  0  1  0  0  3  0  0  0  0  0  0
  193.2670  172.1710  145.0720 C   0  0  0  0  0  1  0  0  0  0  0  0
  195.7150  172.6990  144.9050 C   0  0  0  0  0  2  0  0  0  0  0  0
  196.6720  173.2730  145.9360 C   0  0  0  0  0  2  0  0  0  0  0  0
  197.6630  174.0280  145.3070 O   0  0  0  0  0  1  0  0  0  0  0  0
  188.0570  176.0730  143.9970 C   0  0  0  0  0  2  0  0  0  0  0  0
  187.6840  176.5230  146.4110 C   0  0  0  0  0  2  0  0  0  0  0  0
  185.8560  176.8800  144.8730 C   0  0  0  0  0  2  0  0  0  0  0  0
  184.4770  177.9660  146.4860 O   0  0  0  0  0  1  0  0  0  0  0  0
  186.4770  176.9160  147.2300 C   0  0  0  0  0  2  0  0  0  0  0  0
  185.2950  176.8550  146.2850 C   0  0  2  0  0  3  0  0  0  0  0  0
  187.3640  176.9760  145.0060 C   0  0  2  0  0  3  0  0  0  0  0  0
  195.1210  176.4990  144.5080 C   0  0  0  0  0  2  0  0  0  0  0  0
  195.7190  176.3300  143.1260 C   0  0  0  0  0  2  0  0  0  0  0  0
  197.1620  176.7860  143.1410 C   0  0  0  0  0  1  0  0  0  0  0  0
  1 17  1  0  0  0  0
  2 13  1  1  0  0  0
  2  6  1  0  0  0  0
  3 22  1  1  0  0  0
  3  1  1  0  0  0  0
  4  7  1  0  0  0  0
  5 14  1  0  0  0  0
  5  2  1  0  0  0  0
  5  7  1  0  0  0  0
  7 15  1  0  0  0  0
  8  3  1  0  0  0  0
  8 11  1  0  0  0  0
  9  6  1  0  0  0  0
  9 23  1  0  0  0  0
 10 13  1  0  0  0  0
 11 17  1  0  0  0  0
 11 19  1  0  0  0  0
 12  4  1  0  0  0  0
 14  9  1  0  0  0  0
 16 11  1  0  0  0  0
 16 12  2  0  0  0  0
 17 14  1  0  0  0  0
 18 10  1  0  0  0  0
 18 15  1  0  0  0  0
 20 19  1  0  0  0  0
 22 21  1  0  0  0  0
 24 23  1  0  0  0  0
 25 23  1  0  0  0  0
 25 26  1  0  0  0  0
 27 26  1  0  0  0  0
 28 15  1  0  0  0  0
 28 34  1  0  0  0  0
 29 32  1  0  0  0  0
 30 34  1  0  0  0  0
 30 33  1  0  0  0  0
 33 31  1  0  0  0  0
 33 32  1  0  0  0  0
 34 29  1  0  0  0  0
 35  6  1  0  0  0  0
 36 37  1  0  0  0  0
 36 35  1  0  0  0  0
M  END
>  <MODEL>
2

>  <REMARK>
 VINA RESULT:      -6.9      1.947      4.803
  Name = 
  9 active torsions:
  status: ('A' for Active; 'I' for Inactive)
    1  A    between atoms: C_3  and  C_32
    2  A    between atoms: C_5  and  C_23
    3  A    between atoms: C_6  and  C_31
    4  A    between atoms: C_6  and  C_35
    5  A    between atoms: C_9  and  C_13
    6  A    between atoms: C_9  and  C_16
    7  A    between atoms: O_11  and  C_26
    8  A    between atoms: C_20  and  C_21
    9  A    between atoms: C_21  and  C_32
                            x       y       z     vdW  Elec       q    Type
                         _______ _______ _______ _____ _____    ______ ____

>  <TORSDO>
F 9

$$$$
=
 OpenBabel11052420073D

 37 41  0  0  1  0  0  0  0  0999 V2000
  193.1500  173.9520  142.0600 C   0  0  0  0  0  2  0  0  0  0  0  0
  192.4010  175.9960  146.0290 C   0  0  2  0  0  3  0  0  0  0  0  0
  192.6530  173.8790  140.6260 C   0  0  2  0  0  3  0  0  0  0  0  0
  189.0730  174.2720  144.6810 C   0  0  0  0  0  2  0  0  0  0  0  0
  191.3370  175.3670  145.1140 C   0  0  2  0  0  3  0  0  0  0  0  0
  193.4930  174.9610  146.2020 C   0  0  1  0  0  3  0  0  0  0  0  0
  190.0100  174.8660  145.7470 C   0  0  1  0  0  3  0  0  0  0  0  0
  191.1590  174.1670  140.6700 C   0  0  0  0  0  2  0  0  0  0  0  0
  193.4360  174.1090  144.9420 C   0  0  2  0  0  3  0  0  0  0  0  0
  190.9360  177.7090  147.1910 C   0  0  0  0  0  2  0  0  0  0  0  0
  190.7390  174.1240  142.1390 C   0  0  2  0  0  0  0  0  0  0  0  0
  188.8700  175.1810  143.5020 C   0  0  0  0  0  3  0  0  0  0  0  0
  191.9170  176.5470  147.3680 C   0  0  0  0  0  2  0  0  0  0  0  0
  192.0310  174.2420  144.3570 C   0  0  2  0  0  3  0  0  0  0  0  0
  189.2920  175.8760  146.6870 C   0  0  1  0  0  3  0  0  0  0  0  0
  189.6120  175.1130  142.3840 C   0  0  0  0  0  3  0  0  0  0  0  0
  192.0140  174.5720  142.8560 C   0  0  1  0  0  3  0  0  0  0  0  0
  189.6710  177.3270  146.4180 C   0  0  0  0  0  2  0  0  0  0  0  0
  190.4090  172.7970  142.5350 O   0  0  0  0  0  0  0  0  0  0  0  0
  189.5540  172.2070  141.5850 C   0  0  0  0  0  1  0  0  0  0  0  0
  193.4870  171.5810  141.1160 C   0  0  0  0  0  1  0  0  0  0  0  0
  192.8890  172.4890  140.0590 C   0  0  0  0  0  2  0  0  0  0  0  0
  193.7780  172.6350  145.1900 C   0  0  1  0  0  3  0  0  0  0  0  0
  192.6640  171.7310  144.6910 C   0  0  0  0  0  1  0  0  0  0  0  0
  195.1210  172.2350  144.5810 C   0  0  0  0  0  2  0  0  0  0  0  0
  196.2090  172.1840  145.6410 C   0  0  0  0  0  2  0  0  0  0  0  0
  197.2050  173.1170  145.3540 O   0  0  0  0  0  1  0  0  0  0  0  0
  187.7780  175.7150  146.8070 C   0  0  0  0  0  2  0  0  0  0  0  0
  186.2410  177.4250  147.7440 C   0  0  0  0  0  2  0  0  0  0  0  0
  186.0870  176.8980  145.3920 C   0  0  0  0  0  2  0  0  0  0  0  0
  184.6200  178.7120  144.9000 O   0  0  0  0  0  1  0  0  0  0  0  0
  185.0870  178.2210  147.1800 C   0  0  0  0  0  2  0  0  0  0  0  0
  184.8370  177.6630  145.7930 C   0  0  2  0  0  3  0  0  0  0  0  0
  187.0670  177.0330  146.5420 C   0  0  2  0  0  3  0  0  0  0  0  0
  194.8550  175.6330  146.3010 C   0  0  0  0  0  2  0  0  0  0  0  0
  194.9520  176.7850  145.3220 C   0  0  0  0  0  2  0  0  0  0  0  0
  195.7640  176.3590  144.1190 C   0  0  0  0  0  1  0  0  0  0  0  0
  1 17  1  0  0  0  0
  2  6  1  0  0  0  0
  2 13  1  1  0  0  0
  3 22  1  1  0  0  0
  3  8  1  0  0  0  0
  3  1  1  0  0  0  0
  4  7  1  0  0  0  0
  5  7  1  0  0  0  0
  5  2  1  0  0  0  0
  6 35  1  0  0  0  0
  7 15  1  0  0  0  0
  8 11  1  0  0  0  0
  9 23  1  0  0  0  0
  9  6  1  0  0  0  0
 10 13  1  0  0  0  0
 11 16  1  0  0  0  0
 11 19  1  0  0  0  0
 11 17  1  0  0  0  0
 12  4  1  0  0  0  0
 14  9  1  0  0  0  0
 14  5  1  0  0  0  0
 15 28  1  0  0  0  0
 16 12  2  0  0  0  0
 17 14  1  0  0  0  0
 18 15  1  0  0  0  0
 18 10  1  0  0  0  0
 20 19  1  0  0  0  0
 22 21  1  0  0  0  0
 24 23  1  0  0  0  0
 25 23  1  0  0  0  0
 25 26  1  0  0  0  0
 27 26  1  0  0  0  0
 30 33  1  0  0  0  0
 30 34  1  0  0  0  0
 31 33  1  0  0  0  0
 32 29  1  0  0  0  0
 33 32  1  0  0  0  0
 34 28  1  0  0  0  0
 34 29  1  0  0  0  0
 36 35  1  0  0  0  0
 37 36  1  0  0  0  0
M  END
>  <MODEL>
3

>  <REMARK>
 VINA RESULT:      -6.8      1.993      4.995
  Name = 
  9 active torsions:
  status: ('A' for Active; 'I' for Inactive)
    1  A    between atoms: C_3  and  C_32
    2  A    between atoms: C_5  and  C_23
    3  A    between atoms: C_6  and  C_31
    4  A    between atoms: C_6  and  C_35
    5  A    between atoms: C_9  and  C_13
    6  A    between atoms: C_9  and  C_16
    7  A    between atoms: O_11  and  C_26
    8  A    between atoms: C_20  and  C_21
    9  A    between atoms: C_21  and  C_32
                            x       y       z     vdW  Elec       q    Type
                         _______ _______ _______ _____ _____    ______ ____

>  <TORSDO>
F 9

$$$$
=
 OpenBabel11052420073D

 37 41  0  0  1  0  0  0  0  0999 V2000
  192.1220  176.7930  144.8480 C   0  0  0  0  0  2  0  0  0  0  0  0
  188.9150  175.5210  141.9180 C   0  0  2  0  0  3  0  0  0  0  0  0
  193.6280  176.8510  145.0410 C   0  0  2  0  0  3  0  0  0  0  0  0
  191.3970  172.5030  142.6900 C   0  0  0  0  0  2  0  0  0  0  0  0
  190.1460  174.6990  142.3340 C   0  0  2  0  0  3  0  0  0  0  0  0
  188.2580  175.9970  143.1970 C   0  0  1  0  0  3  0  0  0  0  0  0
  190.0770  173.1490  142.2340 C   0  0  1  0  0  3  0  0  0  0  0  0
  194.2080  175.6690  144.2770 C   0  0  0  0  0  2  0  0  0  0  0  0
  189.3840  176.0720  144.2180 C   0  0  2  0  0  3  0  0  0  0  0  0
  188.5410  174.5090  139.6230 C   0  0  0  0  0  2  0  0  0  0  0  0
  193.0350  174.7730  143.8830 C   0  0  2  0  0  0  0  0  0  0  0  0
  192.6050  173.0950  142.0200 C   0  0  0  0  0  3  0  0  0  0  0  0
  187.9180  174.8410  140.9820 C   0  0  0  0  0  2  0  0  0  0  0  0
  190.4930  175.1310  143.7520 C   0  0  2  0  0  3  0  0  0  0  0  0
  189.5660  172.5870  140.8770 C   0  0  1  0  0  3  0  0  0  0  0  0
  193.3220  174.0990  142.5520 C   0  0  0  0  0  3  0  0  0  0  0  0
  191.8890  175.7770  143.7440 C   0  0  1  0  0  3  0  0  0  0  0  0
  189.7370  173.5590  139.7170 C   0  0  0  0  0  2  0  0  0  0  0  0
  192.7340  173.8450  144.9200 O   0  0  0  0  0  0  0  0  0  0  0  0
  193.9170  173.2420  145.3890 C   0  0  0  0  0  1  0  0  0  0  0  0
  192.7280  176.4240  147.3270 C   0  0  0  0  0  1  0  0  0  0  0  0
  193.9730  176.7250  146.5150 C   0  0  0  0  0  2  0  0  0  0  0  0
  188.9380  175.7150  145.6410 C   0  0  1  0  0  3  0  0  0  0  0  0
  189.6750  174.4860  146.1450 C   0  0  0  0  0  1  0  0  0  0  0  0
  189.0920  176.8830  146.6140 C   0  0  0  0  0  2  0  0  0  0  0  0
  187.7500  177.5310  146.9080 C   0  0  0  0  0  2  0  0  0  0  0  0
  186.7400  176.5680  146.9140 O   0  0  0  0  0  1  0  0  0  0  0  0
  190.0600  171.1910  140.5050 C   0  0  0  0  0  2  0  0  0  0  0  0
  189.6900  170.1850  138.2660 C   0  0  0  0  0  2  0  0  0  0  0  0
  191.9570  170.6200  138.9760 C   0  0  0  0  0  2  0  0  0  0  0  0
  192.9020  170.1760  136.8330 O   0  0  0  0  0  1  0  0  0  0  0  0
  190.6070  169.6600  137.1860 C   0  0  0  0  0  2  0  0  0  0  0  0
  192.0020  169.6860  137.7780 C   0  0  2  0  0  3  0  0  0  0  0  0
  190.5370  171.1490  139.0620 C   0  0  2  0  0  3  0  0  0  0  0  0
  187.6530  177.3800  143.0040 C   0  0  0  0  0  2  0  0  0  0  0  0
  186.2150  177.4030  143.4820 C   0  0  0  0  0  2  0  0  0  0  0  0
  185.8830  178.7810  144.0120 C   0  0  0  0  0  1  0  0  0  0  0  0
  1  3  1  0  0  0  0
  2 13  1  1  0  0  0
  2  5  1  0  0  0  0
  2  6  1  0  0  0  0
  3 22  1  1  0  0  0
  5 14  1  0  0  0  0
  6  9  1  0  0  0  0
  7  5  1  0  0  0  0
  7  4  1  0  0  0  0
  8  3  1  0  0  0  0
  9 23  1  0  0  0  0
 10 18  1  0  0  0  0
 10 13  1  0  0  0  0
 11  8  1  0  0  0  0
 11 19  1  0  0  0  0
 12 16  2  0  0  0  0
 12  4  1  0  0  0  0
 14  9  1  0  0  0  0
 15  7  1  0  0  0  0
 16 11  1  0  0  0  0
 17 14  1  0  0  0  0
 17 11  1  0  0  0  0
 17  1  1  0  0  0  0
 18 15  1  0  0  0  0
 19 20  1  0  0  0  0
 22 21  1  0  0  0  0
 23 24  1  0  0  0  0
 23 25  1  0  0  0  0
 25 26  1  0  0  0  0
 26 27  1  0  0  0  0
 28 15  1  0  0  0  0
 29 34  1  0  0  0  0
 30 34  1  0  0  0  0
 31 33  1  0  0  0  0
 32 33  1  0  0  0  0
 32 29  1  0  0  0  0
 33 30  1  0  0  0  0
 34 28  1  0  0  0  0
 35  6  1  0  0  0  0
 35 36  1  0  0  0  0
 36 37  1  0  0  0  0
M  END
>  <MODEL>
4

>  <REMARK>
 VINA RESULT:      -6.7      2.407      7.023
  Name = 
  9 active torsions:
  status: ('A' for Active; 'I' for Inactive)
    1  A    between atoms: C_3  and  C_32
    2  A    between atoms: C_5  and  C_23
    3  A    between atoms: C_6  and  C_31
    4  A    between atoms: C_6  and  C_35
    5  A    between atoms: C_9  and  C_13
    6  A    between atoms: C_9  and  C_16
    7  A    between atoms: O_11  and  C_26
    8  A    between atoms: C_20  and  C_21
    9  A    between atoms: C_21  and  C_32
                            x       y       z     vdW  Elec       q    Type
                         _______ _______ _______ _____ _____    ______ ____

>  <TORSDO>
F 9

$$$$
=
 OpenBabel11052420073D

 37 41  0  0  1  0  0  0  0  0999 V2000
  188.3860  176.4430  146.6990 C   0  0  0  0  0  2  0  0  0  0  0  0
  190.2940  173.5970  143.7410 C   0  0  2  0  0  3  0  0  0  0  0  0
  187.0450  177.0010  147.1450 C   0  0  2  0  0  3  0  0  0  0  0  0
  188.0080  176.2620  141.8600 C   0  0  0  0  0  2  0  0  0  0  0  0
  189.2220  174.6530  143.4260 C   0  0  2  0  0  3  0  0  0  0  0  0
  191.3810  174.3010  144.5250 C   0  0  1  0  0  3  0  0  0  0  0  0
  189.1370  175.2230  141.9830 C   0  0  1  0  0  3  0  0  0  0  0  0
  186.1530  177.0230  145.9120 C   0  0  0  0  0  2  0  0  0  0  0  0
  190.6810  175.4560  145.2270 C   0  0  2  0  0  3  0  0  0  0  0  0
  189.7840  171.9680  141.8660 C   0  0  0  0  0  2  0  0  0  0  0  0
  187.0500  176.7500  144.7060 C   0  0  2  0  0  0  0  0  0  0  0  0
  186.6920  175.7670  142.3880 C   0  0  0  0  0  3  0  0  0  0  0  0
  190.8560  172.8140  142.5580 C   0  0  0  0  0  2  0  0  0  0  0  0
  189.4130  175.7760  144.4380 C   0  0  2  0  0  3  0  0  0  0  0  0
  189.1110  174.1640  140.8450 C   0  0  1  0  0  3  0  0  0  0  0  0
  186.2770  175.9840  143.6470 C   0  0  0  0  0  3  0  0  0  0  0  0
  188.1510  175.8760  145.3100 C   0  0  1  0  0  3  0  0  0  0  0  0
  188.6250  172.7950  141.3030 C   0  0  0  0  0  2  0  0  0  0  0  0
  187.6180  177.9590  144.2120 O   0  0  0  0  0  0  0  0  0  0  0  0
  186.6070  178.9110  143.9820 C   0  0  0  0  0  1  0  0  0  0  0  0
  185.9030  179.1700  147.6030 C   0  0  0  0  0  1  0  0  0  0  0  0
  187.2160  178.4150  147.6760 C   0  0  0  0  0  2  0  0  0  0  0  0
  191.5600  176.7060  145.3630 C   0  0  1  0  0  3  0  0  0  0  0  0
  192.1620  176.7920  146.7550 C   0  0  0  0  0  1  0  0  0  0  0  0
  192.6460  176.7780  144.2910 C   0  0  0  0  0  2  0  0  0  0  0  0
  194.0250  176.8970  144.9180 C   0  0  0  0  0  2  0  0  0  0  0  0
  194.9820  176.3070  144.0910 O   0  0  0  0  0  1  0  0  0  0  0  0
  188.4170  174.5910  139.5530 C   0  0  0  0  0  2  0  0  0  0  0  0
  190.4420  173.7420  138.3940 C   0  0  0  0  0  2  0  0  0  0  0  0
  188.5630  174.4620  137.0580 C   0  0  0  0  0  2  0  0  0  0  0  0
  189.4550  173.6010  135.0210 O   0  0  0  0  0  1  0  0  0  0  0  0
  190.8540  173.6330  136.9440 C   0  0  0  0  0  2  0  0  0  0  0  0
  189.7790  174.3490  136.1520 C   0  0  2  0  0  3  0  0  0  0  0  0
  188.9330  173.7900  138.3670 C   0  0  2  0  0  3  0  0  0  0  0  0
  191.9840  173.3650  145.5620 C   0  0  0  0  0  2  0  0  0  0  0  0
  193.4850  173.2620  145.3770 C   0  0  0  0  0  2  0  0  0  0  0  0
  193.8710  171.8120  145.1890 C   0  0  0  0  0  1  0  0  0  0  0  0
  1  3  1  0  0  0  0
  2 13  1  6  0  0  0
  2  6  1  0  0  0  0
  3 22  1  6  0  0  0
  4  7  1  0  0  0  0
  4 12  1  0  0  0  0
  5  2  1  0  0  0  0
  5 14  1  0  0  0  0
  6  9  1  0  0  0  0
  6 35  1  0  0  0  0
  7  5  1  0  0  0  0
  8  3  1  0  0  0  0
  9 23  1  0  0  0  0
 10 13  1  0  0  0  0
 11 17  1  0  0  0  0
 11  8  1  0  0  0  0
 12 16  2  0  0  0  0
 14  9  1  0  0  0  0
 14 17  1  0  0  0  0
 15 18  1  0  0  0  0
 15  7  1  0  0  0  0
 16 11  1  0  0  0  0
 17  1  1  0  0  0  0
 18 10  1  0  0  0  0
 19 11  1  0  0  0  0
 20 19  1  0  0  0  0
 21 22  1  0  0  0  0
 23 24  1  0  0  0  0
 25 26  1  0  0  0  0
 25 23  1  0  0  0  0
 27 26  1  0  0  0  0
 28 15  1  0  0  0  0
 30 34  1  0  0  0  0
 31 33  1  0  0  0  0
 32 29  1  0  0  0  0
 33 32  1  0  0  0  0
 33 30  1  0  0  0  0
 34 29  1  0  0  0  0
 34 28  1  0  0  0  0
 36 35  1  0  0  0  0
 37 36  1  0  0  0  0
M  END
>  <MODEL>
5

>  <REMARK>
 VINA RESULT:      -6.6      2.746      6.569
  Name = 
  9 active torsions:
  status: ('A' for Active; 'I' for Inactive)
    1  A    between atoms: C_3  and  C_32
    2  A    between atoms: C_5  and  C_23
    3  A    between atoms: C_6  and  C_31
    4  A    between atoms: C_6  and  C_35
    5  A    between atoms: C_9  and  C_13
    6  A    between atoms: C_9  and  C_16
    7  A    between atoms: O_11  and  C_26
    8  A    between atoms: C_20  and  C_21
    9  A    between atoms: C_21  and  C_32
                            x       y       z     vdW  Elec       q    Type
                         _______ _______ _______ _____ _____    ______ ____

>  <TORSDO>
F 9

$$$$
=
 OpenBabel11052420073D

 37 41  0  0  1  0  0  0  0  0999 V2000
  187.8890  176.2090  142.8220 C   0  0  0  0  0  2  0  0  0  0  0  0
  192.0560  174.8080  141.7440 C   0  0  2  0  0  3  0  0  0  0  0  0
  187.1330  177.3290  143.5160 C   0  0  2  0  0  3  0  0  0  0  0  0
  191.7720  175.5080  145.6550 C   0  0  0  0  0  2  0  0  0  0  0  0
  191.5990  175.3350  143.1140 C   0  0  2  0  0  3  0  0  0  0  0  0
  191.0540  173.7520  141.3280 C   0  0  1  0  0  3  0  0  0  0  0  0
  192.3710  174.8800  144.3840 C   0  0  1  0  0  3  0  0  0  0  0  0
  188.0450  177.8490  144.6190 C   0  0  0  0  0  2  0  0  0  0  0  0
  189.7560  174.1390  142.0230 C   0  0  2  0  0  3  0  0  0  0  0  0
  194.5120  175.4180  141.9040 C   0  0  0  0  0  2  0  0  0  0  0  0
  189.1980  176.8550  144.7500 C   0  0  2  0  0  0  0  0  0  0  0  0
  191.6070  176.9980  145.5540 C   0  0  0  0  0  3  0  0  0  0  0  0
  193.4940  174.3040  141.6460 C   0  0  0  0  0  2  0  0  0  0  0  0
  190.1190  174.9960  143.2340 C   0  0  2  0  0  3  0  0  0  0  0  0
  193.9180  175.0180  144.3130 C   0  0  1  0  0  3  0  0  0  0  0  0
  190.4680  177.5860  145.1510 C   0  0  0  0  0  3  0  0  0  0  0  0
  189.3180  176.3050  143.3280 C   0  0  1  0  0  3  0  0  0  0  0  0
  194.3880  176.0470  143.2940 C   0  0  0  0  0  2  0  0  0  0  0  0
  188.8600  175.8000  145.6440 O   0  0  0  0  0  0  0  0  0  0  0  0
  188.3080  176.3260  146.8270 C   0  0  0  0  0  1  0  0  0  0  0  0
  185.2970  177.7770  145.1420 C   0  0  0  0  0  1  0  0  0  0  0  0
  185.8470  176.7960  144.1250 C   0  0  0  0  0  2  0  0  0  0  0  0
  188.9130  172.9320  142.4500 C   0  0  1  0  0  3  0  0  0  0  0  0
  187.8030  172.6670  141.4470 C   0  0  0  0  0  1  0  0  0  0  0  0
  189.7570  171.6780  142.6750 C   0  0  0  0  0  2  0  0  0  0  0  0
  190.3100  171.6380  144.0900 C   0  0  0  0  0  2  0  0  0  0  0  0
  189.3110  171.9630  145.0080 O   0  0  0  0  0  1  0  0  0  0  0  0
  194.6330  175.2000  145.6500 C   0  0  0  0  0  2  0  0  0  0  0  0
  196.8590  174.1490  145.3270 C   0  0  0  0  0  2  0  0  0  0  0  0
  194.9080  172.7270  145.3880 C   0  0  0  0  0  2  0  0  0  0  0  0
  196.1670  170.7040  145.4850 O   0  0  0  0  0  1  0  0  0  0  0  0
  197.3230  172.7370  145.0540 C   0  0  0  0  0  2  0  0  0  0  0  0
  196.0660  171.9250  144.8190 C   0  0  2  0  0  3  0  0  0  0  0  0
  195.5020  173.9950  145.9720 C   0  0  2  0  0  3  0  0  0  0  0  0
  190.8500  173.7730  139.8200 C   0  0  0  0  0  2  0  0  0  0  0  0
  191.4110  172.5140  139.1900 C   0  0  0  0  0  2  0  0  0  0  0  0
  190.2950  171.5140  138.9820 C   0  0  0  0  0  1  0  0  0  0  0  0
  1 17  1  0  0  0  0
  1  3  1  0  0  0  0
  2 13  1  1  0  0  0
  2  5  1  0  0  0  0
  3 22  1  1  0  0  0
  3  8  1  0  0  0  0
  5 14  1  0  0  0  0
  5  7  1  0  0  0  0
  6  2  1  0  0  0  0
  6  9  1  0  0  0  0
  7  4  1  0  0  0  0
  8 11  1  0  0  0  0
  9 23  1  0  0  0  0
  9 14  1  0  0  0  0
 10 18  1  0  0  0  0
 11 16  1  0  0  0  0
 11 19  1  0  0  0  0
 12  4  1  0  0  0  0
 13 10  1  0  0  0  0
 14 17  1  0  0  0  0
 15  7  1  0  0  0  0
 15 28  1  0  0  0  0
 16 12  2  0  0  0  0
 17 11  1  0  0  0  0
 18 15  1  0  0  0  0
 19 20  1  0  0  0  0
 22 21  1  0  0  0  0
 23 25  1  0  0  0  0
 24 23  1  0  0  0  0
 25 26  1  0  0  0  0
 26 27  1  0  0  0  0
 28 34  1  0  0  0  0
 29 34  1  0  0  0  0
 30 34  1  0  0  0  0
 32 29  1  0  0  0  0
 33 32  1  0  0  0  0
 33 30  1  0  0  0  0
 33 31  1  0  0  0  0
 35  6  1  0  0  0  0
 36 35  1  0  0  0  0
 37 36  1  0  0  0  0
M  END
>  <MODEL>
6

>  <REMARK>
 VINA RESULT:      -6.5      2.132      7.188
  Name = 
  9 active torsions:
  status: ('A' for Active; 'I' for Inactive)
    1  A    between atoms: C_3  and  C_32
    2  A    between atoms: C_5  and  C_23
    3  A    between atoms: C_6  and  C_31
    4  A    between atoms: C_6  and  C_35
    5  A    between atoms: C_9  and  C_13
    6  A    between atoms: C_9  and  C_16
    7  A    between atoms: O_11  and  C_26
    8  A    between atoms: C_20  and  C_21
    9  A    between atoms: C_21  and  C_32
                            x       y       z     vdW  Elec       q    Type
                         _______ _______ _______ _____ _____    ______ ____

>  <TORSDO>
F 9

$$$$
=
 OpenBabel11052420073D

 37 41  0  0  1  0  0  0  0  0999 V2000
  193.2840  172.8740  141.1980 C   0  0  0  0  0  2  0  0  0  0  0  0
  191.4360  176.3230  143.4730 C   0  0  2  0  0  3  0  0  0  0  0  0
  193.2750  172.1720  139.8510 C   0  0  2  0  0  3  0  0  0  0  0  0
  188.6110  173.9470  141.9760 C   0  0  0  0  0  2  0  0  0  0  0  0
  190.6840  175.2920  142.6160 C   0  0  2  0  0  3  0  0  0  0  0  0
  192.3380  175.5400  144.4050 C   0  0  1  0  0  3  0  0  0  0  0  0
  189.1920  175.0010  142.9360 C   0  0  1  0  0  3  0  0  0  0  0  0
  191.8710  172.3380  139.2860 C   0  0  0  0  0  2  0  0  0  0  0  0
  192.6320  174.2380  143.6730 C   0  0  2  0  0  3  0  0  0  0  0  0
  189.7980  178.2480  143.2720 C   0  0  0  0  0  2  0  0  0  0  0  0
  190.9960  172.8800  140.4160 C   0  0  2  0  0  0  0  0  0  0  0  0
  188.8660  174.2640  140.5290 C   0  0  0  0  0  3  0  0  0  0  0  0
  190.5850  177.3440  144.2250 C   0  0  0  0  0  2  0  0  0  0  0  0
  191.5050  174.0090  142.6680 C   0  0  2  0  0  3  0  0  0  0  0  0
  188.2810  176.2540  143.0800 C   0  0  1  0  0  3  0  0  0  0  0  0
  189.9220  173.7920  139.8480 C   0  0  0  0  0  3  0  0  0  0  0  0
  191.9990  173.6810  141.2490 C   0  0  1  0  0  3  0  0  0  0  0  0
  188.8280  177.4840  142.3680 C   0  0  0  0  0  2  0  0  0  0  0  0
  190.4630  171.8180  141.2000 O   0  0  0  0  0  0  0  0  0  0  0  0
  190.0660  170.7540  140.3690 C   0  0  0  0  0  1  0  0  0  0  0  0
  193.7290  170.3550  141.4970 C   0  0  0  0  0  1  0  0  0  0  0  0
  193.5830  170.6950  140.0260 C   0  0  0  0  0  2  0  0  0  0  0  0
  192.7710  173.0330  144.6100 C   0  0  1  0  0  3  0  0  0  0  0  0
  191.7410  171.9680  144.2750 C   0  0  0  0  0  1  0  0  0  0  0  0
  194.1830  172.4490  144.6070 C   0  0  0  0  0  2  0  0  0  0  0  0
  194.1700  170.9860  145.0190 C   0  0  0  0  0  2  0  0  0  0  0  0
  195.0370  170.7810  146.0930 O   0  0  0  0  0  1  0  0  0  0  0  0
  186.8030  176.0430  142.7610 C   0  0  0  0  0  2  0  0  0  0  0  0
  185.4610  178.0070  143.4730 C   0  0  0  0  0  2  0  0  0  0  0  0
  186.7020  176.7870  145.1490 C   0  0  0  0  0  2  0  0  0  0  0  0
  185.6820  177.9190  146.9830 O   0  0  0  0  0  1  0  0  0  0  0  0
  185.2800  178.7350  144.7850 C   0  0  0  0  0  2  0  0  0  0  0  0
  186.2830  178.1220  145.7410 C   0  0  2  0  0  3  0  0  0  0  0  0
  185.9220  176.6210  143.8580 C   0  0  2  0  0  3  0  0  0  0  0  0
  193.6380  176.2930  144.6480 C   0  0  0  0  0  2  0  0  0  0  0  0
  193.9160  176.4080  146.1330 C   0  0  0  0  0  2  0  0  0  0  0  0
  192.7140  175.9200  146.9110 C   0  0  0  0  0  1  0  0  0  0  0  0
  1 17  1  0  0  0  0
  2 13  1  1  0  0  0
  2  6  1  0  0  0  0
  3 22  1  1  0  0  0
  3  1  1  0  0  0  0
  4  7  1  0  0  0  0
  5 14  1  0  0  0  0
  5  7  1  0  0  0  0
  5  2  1  0  0  0  0
  6 35  1  0  0  0  0
  7 15  1  0  0  0  0
  8  3  1  0  0  0  0
  8 11  1  0  0  0  0
  9  6  1  0  0  0  0
  9 23  1  0  0  0  0
 10 13  1  0  0  0  0
 11 19  1  0  0  0  0
 11 17  1  0  0  0  0
 12  4  1  0  0  0  0
 14  9  1  0  0  0  0
 16 11  1  0  0  0  0
 16 12  2  0  0  0  0
 17 14  1  0  0  0  0
 18 15  1  0  0  0  0
 18 10  1  0  0  0  0
 20 19  1  0  0  0  0
 22 21  1  0  0  0  0
 24 23  1  0  0  0  0
 25 23  1  0  0  0  0
 25 26  1  0  0  0  0
 26 27  1  0  0  0  0
 28 15  1  0  0  0  0
 28 34  1  0  0  0  0
 29 34  1  0  0  0  0
 29 32  1  0  0  0  0
 30 33  1  0  0  0  0
 32 33  1  0  0  0  0
 33 31  1  0  0  0  0
 34 30  1  0  0  0  0
 35 36  1  0  0  0  0
 36 37  1  0  0  0  0
M  END
>  <MODEL>
7

>  <REMARK>
 VINA RESULT:      -6.4      2.181      4.892
  Name = 
  9 active torsions:
  status: ('A' for Active; 'I' for Inactive)
    1  A    between atoms: C_3  and  C_32
    2  A    between atoms: C_5  and  C_23
    3  A    between atoms: C_6  and  C_31
    4  A    between atoms: C_6  and  C_35
    5  A    between atoms: C_9  and  C_13
    6  A    between atoms: C_9  and  C_16
    7  A    between atoms: O_11  and  C_26
    8  A    between atoms: C_20  and  C_21
    9  A    between atoms: C_21  and  C_32
                            x       y       z     vdW  Elec       q    Type
                         _______ _______ _______ _____ _____    ______ ____

>  <TORSDO>
F 9

$$$$
=
 OpenBabel11052420073D

 37 41  0  0  1  0  0  0  0  0999 V2000
  193.7480  173.4070  144.0690 C   0  0  0  0  0  2  0  0  0  0  0  0
  189.8600  174.1790  141.8850 C   0  0  2  0  0  3  0  0  0  0  0  0
  194.3700  173.3760  145.4550 C   0  0  2  0  0  3  0  0  0  0  0  0
  190.8120  177.2740  144.2050 C   0  0  0  0  0  2  0  0  0  0  0  0
  190.4710  175.0540  142.9910 C   0  0  2  0  0  3  0  0  0  0  0  0
  190.9560  173.9280  140.8720 C   0  0  1  0  0  3  0  0  0  0  0  0
  190.1080  176.5640  143.0340 C   0  0  1  0  0  3  0  0  0  0  0  0
  193.6240  174.4100  146.2880 C   0  0  0  0  0  2  0  0  0  0  0  0
  192.2550  174.0220  141.6600 C   0  0  2  0  0  3  0  0  0  0  0  0
  187.4220  174.7890  142.2250 C   0  0  0  0  0  2  0  0  0  0  0  0
  192.7720  175.2310  145.3210 C   0  0  2  0  0  0  0  0  0  0  0  0
  190.6200  176.5720  145.5200 C   0  0  0  0  0  3  0  0  0  0  0  0
  188.5810  174.6940  141.2290 C   0  0  0  0  0  2  0  0  0  0  0  0
  191.9810  174.8660  142.9030 C   0  0  2  0  0  3  0  0  0  0  0  0
  188.5900  176.8910  142.9540 C   0  0  1  0  0  3  0  0  0  0  0  0
  191.4880  175.6690  146.0050 C   0  0  0  0  0  3  0  0  0  0  0  0
  192.4750  174.2230  144.2100 C   0  0  1  0  0  3  0  0  0  0  0  0
  187.6990  175.7370  143.3940 C   0  0  0  0  0  2  0  0  0  0  0  0
  193.5170  176.3230  144.7890 O   0  0  0  0  0  0  0  0  0  0  0  0
  194.2080  176.9860  145.8220 C   0  0  0  0  0  1  0  0  0  0  0  0
  196.7090  172.5560  145.7320 C   0  0  0  0  0  1  0  0  0  0  0  0
  195.8410  173.7490  145.3790 C   0  0  0  0  0  2  0  0  0  0  0  0
  193.4150  174.6170  140.8520 C   0  0  1  0  0  3  0  0  0  0  0  0
  193.8760  175.9310  141.4570 C   0  0  0  0  0  1  0  0  0  0  0  0
  194.5830  173.6440  140.7010 C   0  0  0  0  0  2  0  0  0  0  0  0
  194.3690  172.7100  139.5220 C   0  0  0  0  0  2  0  0  0  0  0  0
  194.3780  171.3820  139.9510 O   0  0  0  0  0  1  0  0  0  0  0  0
  188.1550  178.2020  143.6050 C   0  0  0  0  0  2  0  0  0  0  0  0
  185.9300  179.2790  143.3690 C   0  0  0  0  0  2  0  0  0  0  0  0
  186.5420  178.3510  145.5130 C   0  0  0  0  0  2  0  0  0  0  0  0
  184.3570  178.5880  146.4380 O   0  0  0  0  0  1  0  0  0  0  0  0
  184.8090  179.5950  144.3310 C   0  0  0  0  0  2  0  0  0  0  0  0
  185.3390  179.2590  145.7100 C   0  0  2  0  0  3  0  0  0  0  0  0
  186.6920  178.1470  144.0170 C   0  0  2  0  0  3  0  0  0  0  0  0
  190.8240  172.5350  140.2750 C   0  0  0  0  0  2  0  0  0  0  0  0
  190.0730  172.5890  138.9600 C   0  0  0  0  0  2  0  0  0  0  0  0
  190.8560  173.4200  137.9660 C   0  0  0  0  0  1  0  0  0  0  0  0
  1 17  1  0  0  0  0
  1  3  1  0  0  0  0
  2 13  1  6  0  0  0
  2  5  1  0  0  0  0
  3 22  1  6  0  0  0
  3  8  1  0  0  0  0
  4 12  1  0  0  0  0
  5  7  1  0  0  0  0
  6  9  1  0  0  0  0
  6  2  1  0  0  0  0
  7  4  1  0  0  0  0
  9 14  1  0  0  0  0
 10 18  1  0  0  0  0
 11 16  1  0  0  0  0
 11  8  1  0  0  0  0
 12 16  2  0  0  0  0
 13 10  1  0  0  0  0
 14  5  1  0  0  0  0
 14 17  1  0  0  0  0
 15  7  1  0  0  0  0
 15 18  1  0  0  0  0
 15 28  1  0  0  0  0
 17 11  1  0  0  0  0
 19 11  1  0  0  0  0
 19 20  1  0  0  0  0
 22 21  1  0  0  0  0
 23 24  1  0  0  0  0
 23  9  1  0  0  0  0
 25 23  1  0  0  0  0
 26 27  1  0  0  0  0
 26 25  1  0  0  0  0
 28 34  1  0  0  0  0
 29 34  1  0  0  0  0
 29 32  1  0  0  0  0
 30 33  1  0  0  0  0
 32 33  1  0  0  0  0
 33 31  1  0  0  0  0
 34 30  1  0  0  0  0
 35  6  1  0  0  0  0
 36 35  1  0  0  0  0
 37 36  1  0  0  0  0
M  END
>  <MODEL>
8

>  <REMARK>
 VINA RESULT:      -6.4      1.255      1.706
  Name = 
  9 active torsions:
  status: ('A' for Active; 'I' for Inactive)
    1  A    between atoms: C_3  and  C_32
    2  A    between atoms: C_5  and  C_23
    3  A    between atoms: C_6  and  C_31
    4  A    between atoms: C_6  and  C_35
    5  A    between atoms: C_9  and  C_13
    6  A    between atoms: C_9  and  C_16
    7  A    between atoms: O_11  and  C_26
    8  A    between atoms: C_20  and  C_21
    9  A    between atoms: C_21  and  C_32
                            x       y       z     vdW  Elec       q    Type
                         _______ _______ _______ _____ _____    ______ ____

>  <TORSDO>
F 9

$$$$
=
 OpenBabel11052420073D

 37 41  0  0  1  0  0  0  0  0999 V2000
  188.3440  173.7050  142.3320 C   0  0  0  0  0  2  0  0  0  0  0  0
  189.8080  175.8620  146.0320 C   0  0  2  0  0  3  0  0  0  0  0  0
  188.6400  172.5210  141.4270 C   0  0  2  0  0  3  0  0  0  0  0  0
  192.7370  175.5050  143.3570 C   0  0  0  0  0  2  0  0  0  0  0  0
  190.6730  175.3860  144.8540 C   0  0  2  0  0  3  0  0  0  0  0  0
  188.6470  176.6300  145.4370 C   0  0  1  0  0  3  0  0  0  0  0  0
  192.0130  176.1190  144.5680 C   0  0  1  0  0  3  0  0  0  0  0  0
  190.1490  172.3220  141.4550 C   0  0  0  0  0  2  0  0  0  0  0  0
  188.4510  176.0410  144.0460 C   0  0  2  0  0  3  0  0  0  0  0  0
  191.5790  175.8170  147.8460 C   0  0  0  0  0  2  0  0  0  0  0  0
  190.7490  173.5500  142.1380 C   0  0  2  0  0  0  0  0  0  0  0  0
  192.8780  174.0110  143.4510 C   0  0  0  0  0  3  0  0  0  0  0  0
  190.5150  176.6530  147.1290 C   0  0  0  0  0  2  0  0  0  0  0  0
  189.7750  175.4060  143.6240 C   0  0  2  0  0  3  0  0  0  0  0  0
  192.9460  176.3130  145.7960 C   0  0  1  0  0  3  0  0  0  0  0  0
  191.9940  173.1540  142.9130 C   0  0  0  0  0  3  0  0  0  0  0  0
  189.6310  173.9710  143.0930 C   0  0  1  0  0  3  0  0  0  0  0  0
  192.6870  175.3150  146.9170 C   0  0  0  0  0  2  0  0  0  0  0  0
  190.9890  174.5900  141.1960 O   0  0  0  0  0  0  0  0  0  0  0  0
  191.7610  174.1030  140.1240 C   0  0  0  0  0  1  0  0  0  0  0  0
  188.1320  174.3180  139.7750 C   0  0  0  0  0  1  0  0  0  0  0  0
  188.1910  172.8210  140.0070 C   0  0  0  0  0  2  0  0  0  0  0  0
  187.9940  177.0730  143.0090 C   0  0  1  0  0  3  0  0  0  0  0  0
  189.1030  177.3650  142.0120 C   0  0  0  0  0  1  0  0  0  0  0  0
  186.7120  176.6550  142.2920 C   0  0  0  0  0  2  0  0  0  0  0  0
  185.5560  177.5720  142.6570 C   0  0  0  0  0  2  0  0  0  0  0  0
  186.0350  178.8370  143.0010 O   0  0  0  0  0  1  0  0  0  0  0  0
  194.4380  176.4220  145.4890 C   0  0  0  0  0  2  0  0  0  0  0  0
  195.6930  174.5410  146.5130 C   0  0  0  0  0  2  0  0  0  0  0  0
  196.1570  175.1230  144.2150 C   0  0  0  0  0  2  0  0  0  0  0  0
  197.4920  173.1900  143.8100 O   0  0  0  0  0  1  0  0  0  0  0  0
  196.8230  173.6540  146.0440 C   0  0  0  0  0  2  0  0  0  0  0  0
  197.2760  174.2260  144.7170 C   0  0  2  0  0  3  0  0  0  0  0  0
  195.0460  175.0500  145.2470 C   0  0  2  0  0  3  0  0  0  0  0  0
  187.3860  176.4170  146.2610 C   0  0  0  0  0  2  0  0  0  0  0  0
  186.5830  177.6990  146.3460 C   0  0  0  0  0  2  0  0  0  0  0  0
  185.1060  177.3690  146.3720 C   0  0  0  0  0  1  0  0  0  0  0  0
  1 17  1  0  0  0  0
  2 13  1  1  0  0  0
  3 22  1  6  0  0  0
  3  8  1  0  0  0  0
  3  1  1  0  0  0  0
  4 12  1  0  0  0  0
  4  7  1  0  0  0  0
  5  2  1  0  0  0  0
  6  2  1  0  0  0  0
  6 35  1  0  0  0  0
  7  5  1  0  0  0  0
  7 15  1  0  0  0  0
  8 11  1  0  0  0  0
  9  6  1  0  0  0  0
 11 16  1  0  0  0  0
 11 17  1  0  0  0  0
 13 10  1  0  0  0  0
 14  9  1  0  0  0  0
 14  5  1  0  0  0  0
 15 18  1  0  0  0  0
 16 12  2  0  0  0  0
 17 14  1  0  0  0  0
 18 10  1  0  0  0  0
 19 11  1  0  0  0  0
 20 19  1  0  0  0  0
 21 22  1  0  0  0  0
 23  9  1  0  0  0  0
 24 23  1  0  0  0  0
 25 26  1  0  0  0  0
 25 23  1  0  0  0  0
 26 27  1  0  0  0  0
 28 15  1  0  0  0  0
 30 33  1  0  0  0  0
 30 34  1  0  0  0  0
 31 33  1  0  0  0  0
 32 29  1  0  0  0  0
 33 32  1  0  0  0  0
 34 28  1  0  0  0  0
 34 29  1  0  0  0  0
 35 36  1  0  0  0  0
 36 37  1  0  0  0  0
M  END
>  <MODEL>
9

>  <REMARK>
 VINA RESULT:      -6.4      1.901      7.785
  Name = 
  9 active torsions:
  status: ('A' for Active; 'I' for Inactive)
    1  A    between atoms: C_3  and  C_32
    2  A    between atoms: C_5  and  C_23
    3  A    between atoms: C_6  and  C_31
    4  A    between atoms: C_6  and  C_35
    5  A    between atoms: C_9  and  C_13
    6  A    between atoms: C_9  and  C_16
    7  A    between atoms: O_11  and  C_26
    8  A    between atoms: C_20  and  C_21
    9  A    between atoms: C_21  and  C_32
                            x       y       z     vdW  Elec       q    Type
                         _______ _______ _______ _____ _____    ______ ____

>  <TORSDO>
F 9

$$$$
