=
 OpenBabel11052417263D

 25 27  0  0  1  0  0  0  0  0999 V2000
  187.5400  177.9900  144.8560 C   0  0  0  0  0  0  0  0  0  0  0  0
  187.2310  176.5540  146.7880 C   0  0  0  0  0  0  0  0  0  0  0  0
  186.4450  175.9790  147.7320 F   0  0  0  0  0  0  0  0  0  0  0  0
  188.9070  177.6810  144.8930 C   0  0  0  0  0  3  0  0  0  0  0  0
  188.5640  176.2920  146.7930 N   0  0  0  0  0  0  0  0  0  0  0  0
  189.4040  176.8320  145.8750 C   0  0  0  0  0  0  0  0  0  0  0  0
  186.6710  177.4060  145.8180 C   0  0  0  0  0  0  0  0  0  0  0  0
  184.7400  178.3470  147.1700 C   0  0  0  0  0  2  0  0  0  0  0  0
  185.1720  177.6320  145.9040 C   0  0  0  0  0  3  0  0  0  0  0  0
  184.7750  179.0940  145.8470 C   0  0  0  0  0  2  0  0  0  0  0  0
  190.8050  176.5250  145.9160 C   0  0  0  0  0  0  0  0  0  0  0  0
  191.9830  176.2670  145.9500 C   0  0  0  0  0  0  0  0  0  0  0  0
  193.4140  175.9540  145.9920 C   0  0  2  0  0  3  0  0  0  0  0  0
  194.0030  176.6080  147.0590 F   0  0  0  0  0  0  0  0  0  0  0  0
  194.0670  176.3590  144.7140 C   0  0  0  0  0  0  0  0  0  0  0  0
  195.2170  176.8740  144.7190 O   0  0  0  0  0  1  0  0  0  0  0  0
  193.3910  176.1950  143.5130 O   0  0  0  0  0  0  0  0  0  0  0  0
  187.0390  178.8290  143.8480 O   0  0  0  0  0  0  0  0  0  0  0  0
  186.5960  178.4050  142.5880 C   0  0  0  0  0  0  0  0  0  0  0  0
  185.6260  177.6100  140.0780 C   0  0  0  0  0  3  0  0  0  0  0  0
  187.4860  177.9500  141.5930 C   0  0  0  0  0  0  0  0  0  0  0  0
  186.9960  177.5510  140.3460 C   0  0  0  0  0  3  0  0  0  0  0  0
  184.7430  178.0790  141.0540 C   0  0  0  0  0  3  0  0  0  0  0  0
  188.8250  177.9440  141.8050 F   0  0  0  0  0  0  0  0  0  0  0  0
  185.2290  178.4800  142.3010 C   0  0  0  0  0  3  0  0  0  0  0  0
  1  4  2  0  0  0  0
  1  7  1  0  0  0  0
  2  5  1  0  0  0  0
  2  3  1  0  0  0  0
  4  6  1  0  0  0  0
  6 11  1  0  0  0  0
  6  5  2  0  0  0  0
  7  9  1  0  0  0  0
  7  2  2  0  0  0  0
  9  8  1  0  0  0  0
 10  9  1  0  0  0  0
 10  8  1  0  0  0  0
 11 12  3  0  0  0  0
 12 13  1  0  0  0  0
 13 14  1  1  0  0  0
 15 16  1  0  0  0  0
 15 13  1  0  0  0  0
 17 15  2  0  0  0  0
 18  1  1  0  0  0  0
 19 18  1  0  0  0  0
 20 22  2  0  0  0  0
 20 23  1  0  0  0  0
 21 24  1  0  0  0  0
 21 19  2  0  0  0  0
 22 21  1  0  0  0  0
 23 25  2  0  0  0  0
 25 19  1  0  0  0  0
M  END
>  <MODEL>
1

>  <REMARK>
 VINA RESULT:      -7.2      0.000      0.000
  Name = 
  6 active torsions:
  status: ('A' for Active; 'I' for Inactive)
    1  A    between atoms: O_1  and  C_3
    2  A    between atoms: O_1  and  C_5
    3  A    between atoms: C_2  and  C_21
    4  A    between atoms: C_6  and  C_23
    5  A    between atoms: C_9  and  C_24
    6  A    between atoms: C_15  and  C_21
                            x       y       z     vdW  Elec       q    Type
                         _______ _______ _______ _____ _____    ______ ____

>  <TORSDO>
F 6

$$$$
=
 OpenBabel11052417263D

 25 27  0  0  1  0  0  0  0  0999 V2000
  187.3010  178.0140  144.8990 C   0  0  0  0  0  0  0  0  0  0  0  0
  187.0450  176.6080  146.8600 C   0  0  0  0  0  0  0  0  0  0  0  0
  186.2810  176.0280  147.8200 F   0  0  0  0  0  0  0  0  0  0  0  0
  188.6780  177.7470  144.9340 C   0  0  0  0  0  3  0  0  0  0  0  0
  188.3850  176.3860  146.8620 N   0  0  0  0  0  0  0  0  0  0  0  0
  189.2040  176.9320  145.9300 C   0  0  0  0  0  0  0  0  0  0  0  0
  186.4550  177.4240  145.8770 C   0  0  0  0  0  0  0  0  0  0  0  0
  184.5080  178.3840  147.1920 C   0  0  0  0  0  2  0  0  0  0  0  0
  184.9500  177.6070  145.9670 C   0  0  0  0  0  3  0  0  0  0  0  0
  184.5060  179.0500  145.8250 C   0  0  0  0  0  2  0  0  0  0  0  0
  190.6140  176.6680  145.9690 C   0  0  0  0  0  0  0  0  0  0  0  0
  191.7990  176.4450  146.0020 C   0  0  0  0  0  0  0  0  0  0  0  0
  193.2390  176.1750  146.0420 C   0  0  2  0  0  3  0  0  0  0  0  0
  193.8220  176.9070  147.0600 F   0  0  0  0  0  0  0  0  0  0  0  0
  193.8640  176.5210  144.7330 C   0  0  0  0  0  0  0  0  0  0  0  0
  193.1850  176.4880  143.6720 O   0  0  0  0  0  0  0  0  0  0  0  0
  195.2110  176.8510  144.6790 O   0  0  0  0  0  1  0  0  0  0  0  0
  186.7710  178.8180  143.8770 O   0  0  0  0  0  0  0  0  0  0  0  0
  186.5190  178.3980  142.5650 C   0  0  0  0  0  0  0  0  0  0  0  0
  186.0980  177.5030  139.9390 C   0  0  0  0  0  3  0  0  0  0  0  0
  185.2240  178.4180  142.0060 C   0  0  0  0  0  0  0  0  0  0  0  0
  185.0220  177.9750  140.6960 C   0  0  0  0  0  3  0  0  0  0  0  0
  187.3790  177.4630  140.4960 C   0  0  0  0  0  3  0  0  0  0  0  0
  184.1540  178.8100  142.7390 F   0  0  0  0  0  0  0  0  0  0  0  0
  187.5850  177.9040  141.8050 C   0  0  0  0  0  3  0  0  0  0  0  0
  1  4  2  0  0  0  0
  1  7  1  0  0  0  0
  2  5  1  0  0  0  0
  2  3  1  0  0  0  0
  4  6  1  0  0  0  0
  6 11  1  0  0  0  0
  6  5  2  0  0  0  0
  7  9  1  0  0  0  0
  7  2  2  0  0  0  0
  9  8  1  0  0  0  0
 10  9  1  0  0  0  0
 10  8  1  0  0  0  0
 11 12  3  0  0  0  0
 12 13  1  0  0  0  0
 13 14  1  1  0  0  0
 15 13  1  0  0  0  0
 16 15  2  0  0  0  0
 17 15  1  0  0  0  0
 18  1  1  0  0  0  0
 19 18  1  0  0  0  0
 20 23  2  0  0  0  0
 20 22  1  0  0  0  0
 21 19  1  0  0  0  0
 21 24  1  0  0  0  0
 22 21  2  0  0  0  0
 23 25  1  0  0  0  0
 25 19  2  0  0  0  0
M  END
>  <MODEL>
2

>  <REMARK>
 VINA RESULT:      -7.1      1.008      1.532
  Name = 
  6 active torsions:
  status: ('A' for Active; 'I' for Inactive)
    1  A    between atoms: O_1  and  C_3
    2  A    between atoms: O_1  and  C_5
    3  A    between atoms: C_2  and  C_21
    4  A    between atoms: C_6  and  C_23
    5  A    between atoms: C_9  and  C_24
    6  A    between atoms: C_15  and  C_21
                            x       y       z     vdW  Elec       q    Type
                         _______ _______ _______ _____ _____    ______ ____

>  <TORSDO>
F 6

$$$$
=
 OpenBabel11052417263D

 25 27  0  0  1  0  0  0  0  0999 V2000
  188.5430  177.3370  143.8800 C   0  0  0  0  0  0  0  0  0  0  0  0
  189.2920  175.3860  142.6450 C   0  0  0  0  0  0  0  0  0  0  0  0
  189.1140  174.4370  141.6920 F   0  0  0  0  0  0  0  0  0  0  0  0
  189.7410  177.2880  144.6080 C   0  0  0  0  0  3  0  0  0  0  0  0
  190.4330  175.3710  143.3830 N   0  0  0  0  0  0  0  0  0  0  0  0
  190.6740  176.2910  144.3490 C   0  0  0  0  0  0  0  0  0  0  0  0
  188.3110  176.3710  142.8630 C   0  0  0  0  0  0  0  0  0  0  0  0
  186.6930  177.6250  141.3630 C   0  0  0  0  0  2  0  0  0  0  0  0
  187.0750  176.2950  141.9840 C   0  0  0  0  0  3  0  0  0  0  0  0
  187.3580  176.5520  140.5170 C   0  0  0  0  0  2  0  0  0  0  0  0
  191.8950  176.2390  145.1010 C   0  0  0  0  0  0  0  0  0  0  0  0
  192.9210  176.1950  145.7340 C   0  0  0  0  0  0  0  0  0  0  0  0
  194.1680  176.1410  146.5020 C   0  0  2  0  0  3  0  0  0  0  0  0
  194.5040  177.4110  146.9340 F   0  0  0  0  0  0  0  0  0  0  0  0
  195.2640  175.5730  145.6660 C   0  0  0  0  0  0  0  0  0  0  0  0
  195.8880  174.5450  146.0430 O   0  0  0  0  0  1  0  0  0  0  0  0
  195.6210  176.1990  144.4800 O   0  0  0  0  0  0  0  0  0  0  0  0
  187.6140  178.3590  144.1290 O   0  0  0  0  0  0  0  0  0  0  0  0
  186.4660  178.2330  144.9220 C   0  0  0  0  0  0  0  0  0  0  0  0
  184.2170  177.9190  146.5700 C   0  0  0  0  0  3  0  0  0  0  0  0
  185.4450  179.2060  144.9250 C   0  0  0  0  0  0  0  0  0  0  0  0
  184.3250  179.0410  145.7450 C   0  0  0  0  0  3  0  0  0  0  0  0
  185.2350  176.9620  146.5850 C   0  0  0  0  0  3  0  0  0  0  0  0
  185.5560  180.3340  144.1820 F   0  0  0  0  0  0  0  0  0  0  0  0
  186.3570  177.1240  145.7680 C   0  0  0  0  0  3  0  0  0  0  0  0
  1 18  1  0  0  0  0
  1  4  1  0  0  0  0
  2  7  1  0  0  0  0
  2  5  2  0  0  0  0
  3  2  1  0  0  0  0
  5  6  1  0  0  0  0
  6  4  2  0  0  0  0
  6 11  1  0  0  0  0
  7  1  2  0  0  0  0
  8  9  1  0  0  0  0
  9  7  1  0  0  0  0
 10  8  1  0  0  0  0
 10  9  1  0  0  0  0
 11 12  3  0  0  0  0
 12 13  1  0  0  0  0
 13 14  1  6  0  0  0
 15 16  1  0  0  0  0
 15 13  1  0  0  0  0
 17 15  2  0  0  0  0
 18 19  1  0  0  0  0
 19 21  2  0  0  0  0
 19 25  1  0  0  0  0
 20 23  1  0  0  0  0
 21 22  1  0  0  0  0
 22 20  2  0  0  0  0
 24 21  1  0  0  0  0
 25 23  2  0  0  0  0
M  END
>  <MODEL>
3

>  <REMARK>
 VINA RESULT:      -7.1      1.973      4.006
  Name = 
  6 active torsions:
  status: ('A' for Active; 'I' for Inactive)
    1  A    between atoms: O_1  and  C_3
    2  A    between atoms: O_1  and  C_5
    3  A    between atoms: C_2  and  C_21
    4  A    between atoms: C_6  and  C_23
    5  A    between atoms: C_9  and  C_24
    6  A    between atoms: C_15  and  C_21
                            x       y       z     vdW  Elec       q    Type
                         _______ _______ _______ _____ _____    ______ ____

>  <TORSDO>
F 6

$$$$
=
 OpenBabel11052417263D

 25 27  0  0  1  0  0  0  0  0999 V2000
  185.5390  178.6470  142.5200 C   0  0  0  0  0  0  0  0  0  0  0  0
  185.5540  177.7960  140.2470 C   0  0  0  0  0  0  0  0  0  0  0  0
  186.2080  177.3600  139.1410 F   0  0  0  0  0  0  0  0  0  0  0  0
  184.1370  178.6660  142.4630 C   0  0  0  0  0  3  0  0  0  0  0  0
  184.1960  177.8410  140.2330 N   0  0  0  0  0  0  0  0  0  0  0  0
  183.4820  178.2630  141.3050 C   0  0  0  0  0  0  0  0  0  0  0  0
  186.2720  178.1910  141.3910 C   0  0  0  0  0  0  0  0  0  0  0  0
  188.4590  177.8700  142.6390 C   0  0  0  0  0  2  0  0  0  0  0  0
  187.7850  178.1020  141.3000 C   0  0  0  0  0  3  0  0  0  0  0  0
  188.3330  176.7290  141.6420 C   0  0  0  0  0  2  0  0  0  0  0  0
  182.0480  178.2910  141.2460 C   0  0  0  0  0  0  0  0  0  0  0  0
  180.8430  178.3150  141.1970 C   0  0  0  0  0  0  0  0  0  0  0  0
  179.3790  178.3440  141.1380 C   0  0  2  0  0  3  0  0  0  0  0  0
  178.9530  179.6040  140.7570 F   0  0  0  0  0  0  0  0  0  0  0  0
  178.8020  177.9830  142.4650 C   0  0  0  0  0  0  0  0  0  0  0  0
  178.4420  176.7990  142.7040 O   0  0  0  0  0  0  0  0  0  0  0  0
  178.6330  178.9640  143.4320 O   0  0  0  0  0  1  0  0  0  0  0  0
  186.1950  179.0320  143.6990 O   0  0  0  0  0  0  0  0  0  0  0  0
  185.9080  178.5450  144.9820 C   0  0  0  0  0  0  0  0  0  0  0  0
  185.2850  177.6570  147.5690 C   0  0  0  0  0  3  0  0  0  0  0  0
  185.9110  177.1670  145.2800 C   0  0  0  0  0  0  0  0  0  0  0  0
  185.6040  176.7310  146.5720 C   0  0  0  0  0  3  0  0  0  0  0  0
  185.2600  179.0220  147.2730 C   0  0  0  0  0  3  0  0  0  0  0  0
  186.1550  176.2460  144.3160 F   0  0  0  0  0  0  0  0  0  0  0  0
  185.5660  179.4620  145.9820 C   0  0  0  0  0  3  0  0  0  0  0  0
  1 18  1  0  0  0  0
  2  7  1  0  0  0  0
  3  2  1  0  0  0  0
  4  1  1  0  0  0  0
  5  2  2  0  0  0  0
  5  6  1  0  0  0  0
  6  4  2  0  0  0  0
  7  1  2  0  0  0  0
  9  7  1  0  0  0  0
  9 10  1  0  0  0  0
  9  8  1  0  0  0  0
 10  8  1  0  0  0  0
 11  6  1  0  0  0  0
 12 11  3  0  0  0  0
 13 14  1  1  0  0  0
 13 12  1  0  0  0  0
 13 15  1  0  0  0  0
 15 16  2  0  0  0  0
 15 17  1  0  0  0  0
 18 19  1  0  0  0  0
 19 21  2  0  0  0  0
 19 25  1  0  0  0  0
 21 22  1  0  0  0  0
 22 20  2  0  0  0  0
 23 20  1  0  0  0  0
 24 21  1  0  0  0  0
 25 23  2  0  0  0  0
M  END
>  <MODEL>
4

>  <REMARK>
 VINA RESULT:      -7.0      4.294      9.169
  Name = 
  6 active torsions:
  status: ('A' for Active; 'I' for Inactive)
    1  A    between atoms: O_1  and  C_3
    2  A    between atoms: O_1  and  C_5
    3  A    between atoms: C_2  and  C_21
    4  A    between atoms: C_6  and  C_23
    5  A    between atoms: C_9  and  C_24
    6  A    between atoms: C_15  and  C_21
                            x       y       z     vdW  Elec       q    Type
                         _______ _______ _______ _____ _____    ______ ____

>  <TORSDO>
F 6

$$$$
=
 OpenBabel11052417263D

 25 27  0  0  1  0  0  0  0  0999 V2000
  187.5310  177.6960  143.9250 C   0  0  0  0  0  0  0  0  0  0  0  0
  185.7260  178.1250  142.3600 C   0  0  0  0  0  0  0  0  0  0  0  0
  184.5910  178.7740  141.9980 F   0  0  0  0  0  0  0  0  0  0  0  0
  188.0430  176.7570  143.0180 C   0  0  0  0  0  3  0  0  0  0  0  0
  186.2520  177.1990  141.5170 N   0  0  0  0  0  0  0  0  0  0  0  0
  187.3850  176.5170  141.8170 C   0  0  0  0  0  0  0  0  0  0  0  0
  186.3490  178.4100  143.5890 C   0  0  0  0  0  0  0  0  0  0  0  0
  184.3390  179.0190  145.0150 C   0  0  0  0  0  2  0  0  0  0  0  0
  185.6780  179.4610  144.4560 C   0  0  0  0  0  3  0  0  0  0  0  0
  185.5630  179.0610  145.9140 C   0  0  0  0  0  2  0  0  0  0  0  0
  187.9060  175.5490  140.8940 C   0  0  0  0  0  0  0  0  0  0  0  0
  188.3440  174.7360  140.1190 C   0  0  0  0  0  0  0  0  0  0  0  0
  188.8770  173.7470  139.1770 C   0  0  2  0  0  3  0  0  0  0  0  0
  190.2550  173.7060  139.2750 F   0  0  0  0  0  0  0  0  0  0  0  0
  188.4680  174.0920  137.7840 C   0  0  0  0  0  0  0  0  0  0  0  0
  189.0490  173.5630  136.7990 O   0  0  0  0  0  0  0  0  0  0  0  0
  187.4610  175.0230  137.5720 O   0  0  0  0  0  1  0  0  0  0  0  0
  188.2130  177.9520  145.1250 O   0  0  0  0  0  0  0  0  0  0  0  0
  188.8850  176.9930  145.8940 C   0  0  0  0  0  0  0  0  0  0  0  0
  190.3120  175.1330  147.4360 C   0  0  0  0  0  3  0  0  0  0  0  0
  188.1980  176.0180  146.6460 C   0  0  0  0  0  0  0  0  0  0  0  0
  188.9150  175.0910  147.4090 C   0  0  0  0  0  3  0  0  0  0  0  0
  190.9950  176.1100  146.7080 C   0  0  0  0  0  3  0  0  0  0  0  0
  186.8440  175.9960  146.6880 F   0  0  0  0  0  0  0  0  0  0  0  0
  190.2830  177.0390  145.9460 C   0  0  0  0  0  3  0  0  0  0  0  0
  1 18  1  0  0  0  0
  2  7  2  0  0  0  0
  3  2  1  0  0  0  0
  4  1  2  0  0  0  0
  5  6  2  0  0  0  0
  5  2  1  0  0  0  0
  6  4  1  0  0  0  0
  7  1  1  0  0  0  0
  7  9  1  0  0  0  0
  8 10  1  0  0  0  0
  9  8  1  0  0  0  0
  9 10  1  0  0  0  0
 11  6  1  0  0  0  0
 12 11  3  0  0  0  0
 13 14  1  6  0  0  0
 13 12  1  0  0  0  0
 15 13  1  0  0  0  0
 16 15  2  0  0  0  0
 17 15  1  0  0  0  0
 18 19  1  0  0  0  0
 19 25  2  0  0  0  0
 19 21  1  0  0  0  0
 21 24  1  0  0  0  0
 21 22  2  0  0  0  0
 22 20  1  0  0  0  0
 23 20  2  0  0  0  0
 25 23  1  0  0  0  0
M  END
>  <MODEL>
5

>  <REMARK>
 VINA RESULT:      -7.0      3.402      6.309
  Name = 
  6 active torsions:
  status: ('A' for Active; 'I' for Inactive)
    1  A    between atoms: O_1  and  C_3
    2  A    between atoms: O_1  and  C_5
    3  A    between atoms: C_2  and  C_21
    4  A    between atoms: C_6  and  C_23
    5  A    between atoms: C_9  and  C_24
    6  A    between atoms: C_15  and  C_21
                            x       y       z     vdW  Elec       q    Type
                         _______ _______ _______ _____ _____    ______ ____

>  <TORSDO>
F 6

$$$$
=
 OpenBabel11052417263D

 25 27  0  0  1  0  0  0  0  0999 V2000
  187.2520  177.4250  144.2400 C   0  0  0  0  0  0  0  0  0  0  0  0
  185.7860  178.1670  142.4540 C   0  0  0  0  0  0  0  0  0  0  0  0
  184.8100  178.9780  141.9710 F   0  0  0  0  0  0  0  0  0  0  0  0
  187.7840  176.4750  143.3550 C   0  0  0  0  0  3  0  0  0  0  0  0
  186.3230  177.2260  141.6350 N   0  0  0  0  0  0  0  0  0  0  0  0
  187.3020  176.3860  142.0550 C   0  0  0  0  0  0  0  0  0  0  0  0
  186.2330  178.3040  143.7810 C   0  0  0  0  0  0  0  0  0  0  0  0
  184.1790  179.0080  145.0940 C   0  0  0  0  0  2  0  0  0  0  0  0
  185.5650  179.3870  144.6090 C   0  0  0  0  0  3  0  0  0  0  0  0
  185.3530  178.9970  146.0590 C   0  0  0  0  0  2  0  0  0  0  0  0
  187.8430  175.4080  141.1550 C   0  0  0  0  0  0  0  0  0  0  0  0
  188.2980  174.5860  140.3990 C   0  0  0  0  0  0  0  0  0  0  0  0
  188.8510  173.5870  139.4790 C   0  0  2  0  0  3  0  0  0  0  0  0
  187.8930  172.6280  139.2030 F   0  0  0  0  0  0  0  0  0  0  0  0
  190.0610  172.9520  140.0770 C   0  0  0  0  0  0  0  0  0  0  0  0
  191.0560  173.6530  140.4020 O   0  0  0  0  0  1  0  0  0  0  0  0
  190.1030  171.5750  140.2470 O   0  0  0  0  0  0  0  0  0  0  0  0
  187.7580  177.5260  145.5450 O   0  0  0  0  0  0  0  0  0  0  0  0
  188.8510  176.8070  146.0470 C   0  0  0  0  0  0  0  0  0  0  0  0
  190.9790  175.2880  147.0650 C   0  0  0  0  0  3  0  0  0  0  0  0
  190.1830  177.1750  145.7700 C   0  0  0  0  0  0  0  0  0  0  0  0
  191.2390  176.4170  146.2830 C   0  0  0  0  0  3  0  0  0  0  0  0
  189.6600  174.9080  147.3250 C   0  0  0  0  0  3  0  0  0  0  0  0
  190.4620  178.2280  144.9630 F   0  0  0  0  0  0  0  0  0  0  0  0
  188.6020  175.6620  146.8130 C   0  0  0  0  0  3  0  0  0  0  0  0
  1 18  1  0  0  0  0
  2  7  2  0  0  0  0
  3  2  1  0  0  0  0
  4  1  2  0  0  0  0
  5  6  2  0  0  0  0
  5  2  1  0  0  0  0
  6  4  1  0  0  0  0
  7  1  1  0  0  0  0
  7  9  1  0  0  0  0
  8 10  1  0  0  0  0
  9  8  1  0  0  0  0
  9 10  1  0  0  0  0
 11  6  1  0  0  0  0
 12 11  3  0  0  0  0
 13 14  1  1  0  0  0
 13 15  1  0  0  0  0
 13 12  1  0  0  0  0
 15 17  2  0  0  0  0
 15 16  1  0  0  0  0
 18 19  1  0  0  0  0
 19 25  1  0  0  0  0
 20 23  1  0  0  0  0
 21 19  2  0  0  0  0
 21 22  1  0  0  0  0
 22 20  2  0  0  0  0
 24 21  1  0  0  0  0
 25 23  2  0  0  0  0
M  END
>  <MODEL>
6

>  <REMARK>
 VINA RESULT:      -6.8      3.233      5.854
  Name = 
  6 active torsions:
  status: ('A' for Active; 'I' for Inactive)
    1  A    between atoms: O_1  and  C_3
    2  A    between atoms: O_1  and  C_5
    3  A    between atoms: C_2  and  C_21
    4  A    between atoms: C_6  and  C_23
    5  A    between atoms: C_9  and  C_24
    6  A    between atoms: C_15  and  C_21
                            x       y       z     vdW  Elec       q    Type
                         _______ _______ _______ _____ _____    ______ ____

>  <TORSDO>
F 6

$$$$
=
 OpenBabel11052417263D

 25 27  0  0  1  0  0  0  0  0999 V2000
  188.5190  176.5510  144.4850 C   0  0  0  0  0  0  0  0  0  0  0  0
  189.5360  174.3900  144.9150 C   0  0  0  0  0  0  0  0  0  0  0  0
  190.1040  173.4840  145.7510 F   0  0  0  0  0  0  0  0  0  0  0  0
  188.3820  176.1750  143.1410 C   0  0  0  0  0  3  0  0  0  0  0  0
  189.3930  174.0730  143.6020 N   0  0  0  0  0  0  0  0  0  0  0  0
  188.8310  174.9310  142.7150 C   0  0  0  0  0  0  0  0  0  0  0  0
  189.1000  175.6350  145.4040 C   0  0  0  0  0  0  0  0  0  0  0  0
  190.7630  175.8250  147.3120 C   0  0  0  0  0  2  0  0  0  0  0  0
  189.3080  175.8870  146.8870 C   0  0  0  0  0  3  0  0  0  0  0  0
  190.0630  177.1680  147.1840 C   0  0  0  0  0  2  0  0  0  0  0  0
  188.6970  174.5530  141.3370 C   0  0  0  0  0  0  0  0  0  0  0  0
  188.5830  174.2350  140.1790 C   0  0  0  0  0  0  0  0  0  0  0  0
  188.4460  173.8490  138.7720 C   0  0  2  0  0  3  0  0  0  0  0  0
  187.8170  172.6210  138.6850 F   0  0  0  0  0  0  0  0  0  0  0  0
  189.7870  173.7910  138.1210 C   0  0  0  0  0  0  0  0  0  0  0  0
  190.7930  173.3930  138.7670 O   0  0  0  0  0  1  0  0  0  0  0  0
  189.9330  174.2060  136.8050 O   0  0  0  0  0  0  0  0  0  0  0  0
  188.0420  177.7990  144.9150 O   0  0  0  0  0  0  0  0  0  0  0  0
  186.7090  178.0910  145.2320 C   0  0  0  0  0  0  0  0  0  0  0  0
  184.0620  178.6670  145.9630 C   0  0  0  0  0  3  0  0  0  0  0  0
  185.8570  178.7730  144.3380 C   0  0  0  0  0  0  0  0  0  0  0  0
  184.5380  179.0530  144.7070 C   0  0  0  0  0  3  0  0  0  0  0  0
  184.9090  178.0090  146.8590 C   0  0  0  0  0  3  0  0  0  0  0  0
  186.3130  179.2150  143.1410 F   0  0  0  0  0  0  0  0  0  0  0  0
  186.2280  177.7280  146.4950 C   0  0  0  0  0  3  0  0  0  0  0  0
  1 18  1  0  0  0  0
  1  7  1  0  0  0  0
  2  7  2  0  0  0  0
  2  3  1  0  0  0  0
  4  1  2  0  0  0  0
  5  2  1  0  0  0  0
  6  4  1  0  0  0  0
  6  5  2  0  0  0  0
  7  9  1  0  0  0  0
  9 10  1  0  0  0  0
  9  8  1  0  0  0  0
 10  8  1  0  0  0  0
 11  6  1  0  0  0  0
 12 11  3  0  0  0  0
 13 14  1  1  0  0  0
 13 12  1  0  0  0  0
 15 16  1  0  0  0  0
 15 13  1  0  0  0  0
 17 15  2  0  0  0  0
 18 19  1  0  0  0  0
 19 25  1  0  0  0  0
 20 23  1  0  0  0  0
 21 22  1  0  0  0  0
 21 19  2  0  0  0  0
 22 20  2  0  0  0  0
 24 21  1  0  0  0  0
 25 23  2  0  0  0  0
M  END
>  <MODEL>
7

>  <REMARK>
 VINA RESULT:      -6.8      3.481      5.697
  Name = 
  6 active torsions:
  status: ('A' for Active; 'I' for Inactive)
    1  A    between atoms: O_1  and  C_3
    2  A    between atoms: O_1  and  C_5
    3  A    between atoms: C_2  and  C_21
    4  A    between atoms: C_6  and  C_23
    5  A    between atoms: C_9  and  C_24
    6  A    between atoms: C_15  and  C_21
                            x       y       z     vdW  Elec       q    Type
                         _______ _______ _______ _____ _____    ______ ____

>  <TORSDO>
F 6

$$$$
=
 OpenBabel11052417263D

 25 27  0  0  1  0  0  0  0  0999 V2000
  190.4860  175.7900  145.2770 C   0  0  0  0  0  0  0  0  0  0  0  0
  190.7160  176.8400  147.4530 C   0  0  0  0  0  0  0  0  0  0  0  0
  191.4210  177.0990  148.5830 F   0  0  0  0  0  0  0  0  0  0  0  0
  189.2100  176.3650  145.1770 C   0  0  0  0  0  3  0  0  0  0  0  0
  189.4720  177.3680  147.3180 N   0  0  0  0  0  0  0  0  0  0  0  0
  188.7170  177.1500  146.2140 C   0  0  0  0  0  0  0  0  0  0  0  0
  191.2690  176.0380  146.4370 C   0  0  0  0  0  0  0  0  0  0  0  0
  193.5950  175.6450  145.5010 C   0  0  0  0  0  2  0  0  0  0  0  0
  192.6660  175.4980  146.6900 C   0  0  0  0  0  3  0  0  0  0  0  0
  193.7380  176.5710  146.6980 C   0  0  0  0  0  2  0  0  0  0  0  0
  187.4080  177.7300  146.1120 C   0  0  0  0  0  0  0  0  0  0  0  0
  186.3090  178.2180  146.0270 C   0  0  0  0  0  0  0  0  0  0  0  0
  184.9720  178.8110  145.9230 C   0  0  2  0  0  3  0  0  0  0  0  0
  184.0150  177.8570  146.2190 F   0  0  0  0  0  0  0  0  0  0  0  0
  184.7540  179.3530  144.5510 C   0  0  0  0  0  0  0  0  0  0  0  0
  185.5470  180.2050  144.0680 O   0  0  0  0  0  1  0  0  0  0  0  0
  183.6540  178.9390  143.8140 O   0  0  0  0  0  0  0  0  0  0  0  0
  190.9890  175.0190  144.2180 O   0  0  0  0  0  0  0  0  0  0  0  0
  190.2210  174.2130  143.3670 C   0  0  0  0  0  0  0  0  0  0  0  0
  188.7250  172.6460  141.5840 C   0  0  0  0  0  3  0  0  0  0  0  0
  189.6850  172.9770  143.7840 C   0  0  0  0  0  0  0  0  0  0  0  0
  188.9370  172.2030  142.8930 C   0  0  0  0  0  3  0  0  0  0  0  0
  189.2710  173.8600  141.1610 C   0  0  0  0  0  3  0  0  0  0  0  0
  189.9300  172.4960  145.0270 F   0  0  0  0  0  0  0  0  0  0  0  0
  190.0210  174.6360  142.0480 C   0  0  0  0  0  3  0  0  0  0  0  0
  1  7  1  0  0  0  0
  2  3  1  0  0  0  0
  4  1  2  0  0  0  0
  4  6  1  0  0  0  0
  5  2  1  0  0  0  0
  6  5  2  0  0  0  0
  7  9  1  0  0  0  0
  7  2  2  0  0  0  0
  8  9  1  0  0  0  0
  8 10  1  0  0  0  0
  9 10  1  0  0  0  0
 11  6  1  0  0  0  0
 12 11  3  0  0  0  0
 13 12  1  0  0  0  0
 13 14  1  6  0  0  0
 15 13  1  0  0  0  0
 16 15  1  0  0  0  0
 17 15  2  0  0  0  0
 18  1  1  0  0  0  0
 19 21  1  0  0  0  0
 19 18  1  0  0  0  0
 20 22  1  0  0  0  0
 21 24  1  0  0  0  0
 22 21  2  0  0  0  0
 23 20  2  0  0  0  0
 23 25  1  0  0  0  0
 25 19  2  0  0  0  0
M  END
>  <MODEL>
8

>  <REMARK>
 VINA RESULT:      -6.7      2.943      6.755
  Name = 
  6 active torsions:
  status: ('A' for Active; 'I' for Inactive)
    1  A    between atoms: O_1  and  C_3
    2  A    between atoms: O_1  and  C_5
    3  A    between atoms: C_2  and  C_21
    4  A    between atoms: C_6  and  C_23
    5  A    between atoms: C_9  and  C_24
    6  A    between atoms: C_15  and  C_21
                            x       y       z     vdW  Elec       q    Type
                         _______ _______ _______ _____ _____    ______ ____

>  <TORSDO>
F 6

$$$$
=
 OpenBabel11052417263D

 25 27  0  0  1  0  0  0  0  0999 V2000
  186.8250  178.2490  143.5780 C   0  0  0  0  0  0  0  0  0  0  0  0
  184.4910  178.5200  142.9700 C   0  0  0  0  0  0  0  0  0  0  0  0
  183.2120  178.8620  143.2700 F   0  0  0  0  0  0  0  0  0  0  0  0
  187.0740  177.8080  142.2700 C   0  0  0  0  0  3  0  0  0  0  0  0
  184.7760  178.0780  141.7180 N   0  0  0  0  0  0  0  0  0  0  0  0
  186.0330  177.7230  141.3520 C   0  0  0  0  0  0  0  0  0  0  0  0
  185.5030  178.6270  143.9410 C   0  0  0  0  0  0  0  0  0  0  0  0
  184.3670  178.0840  146.1450 C   0  0  0  0  0  2  0  0  0  0  0  0
  185.0750  179.1320  145.3080 C   0  0  0  0  0  3  0  0  0  0  0  0
  185.8050  178.4630  146.4570 C   0  0  0  0  0  2  0  0  0  0  0  0
  186.2900  177.2640  140.0170 C   0  0  0  0  0  0  0  0  0  0  0  0
  186.5060  176.8780  138.8950 C   0  0  0  0  0  0  0  0  0  0  0  0
  186.7690  176.4090  137.5320 C   0  0  2  0  0  3  0  0  0  0  0  0
  185.5770  176.0670  136.9200 F   0  0  0  0  0  0  0  0  0  0  0  0
  187.6910  175.2370  137.5590 C   0  0  0  0  0  0  0  0  0  0  0  0
  187.8200  174.5500  138.6080 O   0  0  0  0  0  1  0  0  0  0  0  0
  188.4350  174.9190  136.4320 O   0  0  0  0  0  0  0  0  0  0  0  0
  187.8830  178.3550  144.4940 O   0  0  0  0  0  0  0  0  0  0  0  0
  188.9540  177.4580  144.6000 C   0  0  0  0  0  0  0  0  0  0  0  0
  191.1620  175.7390  144.8040 C   0  0  0  0  0  3  0  0  0  0  0  0
  188.8120  176.1850  145.1890 C   0  0  0  0  0  0  0  0  0  0  0  0
  189.9150  175.3310  145.2850 C   0  0  0  0  0  3  0  0  0  0  0  0
  191.3120  177.0070  144.2370 C   0  0  0  0  0  3  0  0  0  0  0  0
  187.6290  175.7910  145.7210 F   0  0  0  0  0  0  0  0  0  0  0  0
  190.2130  177.8630  144.1420 C   0  0  0  0  0  3  0  0  0  0  0  0
  1  7  1  0  0  0  0
  1 18  1  0  0  0  0
  2  3  1  0  0  0  0
  2  7  2  0  0  0  0
  4  1  2  0  0  0  0
  5  2  1  0  0  0  0
  6  5  2  0  0  0  0
  6  4  1  0  0  0  0
  7  9  1  0  0  0  0
  8 10  1  0  0  0  0
  9  8  1  0  0  0  0
  9 10  1  0  0  0  0
 11  6  1  0  0  0  0
 12 11  3  0  0  0  0
 13 14  1  1  0  0  0
 13 15  1  0  0  0  0
 13 12  1  0  0  0  0
 15 16  1  0  0  0  0
 17 15  2  0  0  0  0
 18 19  1  0  0  0  0
 19 21  1  0  0  0  0
 20 22  1  0  0  0  0
 21 22  2  0  0  0  0
 21 24  1  0  0  0  0
 23 20  2  0  0  0  0
 25 23  1  0  0  0  0
 25 19  2  0  0  0  0
M  END
>  <MODEL>
9

>  <REMARK>
 VINA RESULT:      -6.5      3.399      6.592
  Name = 
  6 active torsions:
  status: ('A' for Active; 'I' for Inactive)
    1  A    between atoms: O_1  and  C_3
    2  A    between atoms: O_1  and  C_5
    3  A    between atoms: C_2  and  C_21
    4  A    between atoms: C_6  and  C_23
    5  A    between atoms: C_9  and  C_24
    6  A    between atoms: C_15  and  C_21
                            x       y       z     vdW  Elec       q    Type
                         _______ _______ _______ _____ _____    ______ ____

>  <TORSDO>
F 6

$$$$
