=
 OpenBabel11052419383D

 55 60  0  0  1  0  0  0  0  0999 V2000
  185.3520  177.2870  145.7470 C   0  0  1  0  0  3  0  0  0  0  0  0
  189.0970  176.2160  146.4720 C   0  0  2  0  0  0  0  0  0  0  0  0
  187.0000  177.5180  147.3450 C   0  0  0  0  0  2  0  0  0  0  0  0
  190.1880  176.2750  144.3730 C   0  0  1  0  0  0  0  0  0  0  0  0
  187.3890  177.5910  144.3230 O   0  0  0  0  0  0  0  0  0  0  0  0
  188.8970  175.8070  145.0160 C   0  0  2  0  0  3  0  0  0  0  0  0
  188.4540  177.5790  146.8600 C   0  0  1  0  0  3  0  0  0  0  0  0
  186.2210  176.5950  146.6220 O   0  0  0  0  0  0  0  0  0  0  0  0
  190.6240  176.3110  146.5530 C   0  0  0  0  0  2  0  0  0  0  0  0
  184.4220  178.2790  146.4390 C   0  0  0  0  0  1  0  0  0  0  0  0
  189.2070  178.2440  147.8320 O   0  0  0  0  0  1  0  0  0  0  0  0
  191.1560  176.6800  145.3010 O   0  0  0  0  0  0  0  0  0  0  0  0
  188.6630  175.1970  147.3230 O   0  0  0  0  0  1  0  0  0  0  0  0
  187.5950  176.2000  144.2980 C   0  0  0  0  0  2  0  0  0  0  0  0
  190.6910  175.6710  143.0680 C   0  0  2  0  0  0  0  0  0  0  0  0
  186.0060  177.8490  144.4600 C   0  0  1  0  0  3  0  0  0  0  0  0
  190.1640  177.1070  143.1010 C   0  0  0  0  0  2  0  0  0  0  0  0
  188.1210  172.7350  141.2380 C   0  0  0  0  0  3  0  0  0  0  0  0
  189.8070  174.6470  142.4080 C   0  0  0  0  0  0  0  0  0  0  0  0
  189.7050  173.3620  142.9570 C   0  0  0  0  0  3  0  0  0  0  0  0
  188.2200  174.0120  140.6830 C   0  0  0  0  0  3  0  0  0  0  0  0
  188.8650  172.4080  142.3720 C   0  0  0  0  0  3  0  0  0  0  0  0
  189.0620  174.9650  141.2630 C   0  0  0  0  0  3  0  0  0  0  0  0
  185.2290  177.4710  143.1970 C   0  0  0  0  0  2  0  0  0  0  0  0
  184.9910  178.6780  142.3050 C   0  0  0  0  0  2  0  0  0  0  0  0
  185.1200  178.3000  140.9060 N   0  0  0  0  0  2  0  0  0  0  0  0
  186.5980  177.2170  139.3260 C   0  0  0  0  0  1  0  0  0  0  0  0
  186.3800  177.5940  140.7760 C   0  0  0  0  0  2  0  0  0  0  0  0
  192.2030  175.5300  142.9490 C   0  0  0  0  0  2  0  0  0  0  0  0
  192.6820  174.5690  143.8460 O   0  0  0  0  0  0  0  0  0  0  0  0
  194.3190  176.1700  143.7630 O   0  0  0  0  0  1  0  0  0  0  0  0
  194.0570  174.8080  143.9350 C   0  0  2  0  0  3  0  0  0  0  0  0
  195.5870  174.5830  142.1550 O   0  0  0  0  0  0  0  0  0  0  0  0
  194.7810  174.0250  142.8850 C   0  0  0  0  0  0  0  0  0  0  0  0
  194.5450  172.5310  142.7870 C   0  0  2  0  0  3  0  0  0  0  0  0
  196.6710  172.5530  144.1450 C   0  0  0  0  0  3  0  0  0  0  0  0
  197.2150  172.2470  145.3320 C   0  0  0  0  0  3  0  0  0  0  0  0
  195.0070  170.6670  144.4330 C   0  0  0  0  0  2  0  0  0  0  0  0
  196.0930  170.0030  145.2700 C   0  0  0  0  0  2  0  0  0  0  0  0
  196.7600  171.0620  146.1440 C   0  0  0  0  0  2  0  0  0  0  0  0
  195.6300  171.6840  143.4680 C   0  0  1  0  0  3  0  0  0  0  0  0
  195.3010  171.1310  141.0680 C   0  0  0  0  0  1  0  0  0  0  0  0
  194.2230  172.0520  141.4210 N   0  0  0  0  0  0  0  0  0  0  0  0
  192.9710  171.3700  141.3770 N   0  0  0  0  0  0  0  0  0  0  0  0
  192.3900  171.5160  142.6010 O   0  0  0  0  0  1  0  0  0  0  0  0
  192.8110  170.7420  138.4670 O   0  0  0  0  0  1  0  0  0  0  0  0
  192.7410  173.3310  139.8600 C   0  0  0  0  0  2  0  0  0  0  0  0
  192.0930  173.8800  138.5770 C   0  0  0  0  0  2  0  0  0  0  0  0
  191.6870  171.1240  139.2050 C   0  0  2  0  0  3  0  0  0  0  0  0
  190.6710  171.8020  138.2790 C   0  0  0  0  0  2  0  0  0  0  0  0
  190.6760  173.3370  138.3690 C   0  0  2  0  0  3  0  0  0  0  0  0
  192.0910  172.0350  140.3870 C   0  0  1  0  0  3  0  0  0  0  0  0
  190.0080  173.9360  137.1680 C   0  0  0  0  0  0  0  0  0  0  0  0
  190.7320  174.3140  136.1640 N   0  0  0  0  0  2  0  0  0  0  0  0
  188.6230  174.2810  137.2040 N   0  0  0  0  0  1  0  0  0  0  0  0
  1 10  1  1  0  0  0
  1  8  1  0  0  0  0
  2  9  1  0  0  0  0
  2  7  1  0  0  0  0
  2 13  1  1  0  0  0
  4 17  1  6  0  0  0
  4  6  1  0  0  0  0
  4 12  1  0  0  0  0
  5 16  1  0  0  0  0
  6 14  1  6  0  0  0
  6  2  1  0  0  0  0
  7  3  1  0  0  0  0
  7 11  1  1  0  0  0
  8  3  1  0  0  0  0
 12  9  1  0  0  0  0
 14  5  1  0  0  0  0
 15 29  1  6  0  0  0
 15 17  1  0  0  0  0
 15  4  1  0  0  0  0
 16 24  1  6  0  0  0
 16  1  1  0  0  0  0
 18 22  1  0  0  0  0
 19 20  1  0  0  0  0
 19 15  1  0  0  0  0
 21 18  2  0  0  0  0
 21 23  1  0  0  0  0
 22 20  2  0  0  0  0
 23 19  2  0  0  0  0
 25 24  1  0  0  0  0
 26 25  1  0  0  0  0
 27 28  1  0  0  0  0
 28 26  1  0  0  0  0
 29 30  1  0  0  0  0
 30 32  1  0  0  0  0
 32 31  1  6  0  0  0
 33 34  2  0  0  0  0
 34 32  1  0  0  0  0
 35 34  1  6  0  0  0
 36 37  2  0  0  0  0
 37 40  1  0  0  0  0
 38 39  1  0  0  0  0
 39 40  1  0  0  0  0
 41 35  1  1  0  0  0
 41 36  1  0  0  0  0
 41 38  1  0  0  0  0
 42 43  1  0  0  0  0
 43 35  1  0  0  0  0
 44 43  1  0  0  0  0
 44 45  1  0  0  0  0
 47 52  1  0  0  0  0
 48 47  1  0  0  0  0
 49 46  1  6  0  0  0
 49 52  1  0  0  0  0
 50 51  1  0  0  0  0
 50 49  1  0  0  0  0
 51 53  1  6  0  0  0
 51 48  1  0  0  0  0
 52 44  1  1  0  0  0
 53 55  1  0  0  0  0
 54 53  2  0  0  0  0
M  END
>  <MODEL>
1

>  <REMARK>
 VINA RESULT:      -7.1      0.000      0.000
  Name = 
  15 active torsions:
  status: ('A' for Active; 'I' for Inactive)
    1  A    between atoms: N_3  and  C_25
    2  A    between atoms: N_3  and  C_38
    3  A    between atoms: C_10  and  C_48
    4  A    between atoms: C_19  and  C_37
    5  A    between atoms: C_19  and  C_45
    6  A    between atoms: C_26  and  C_45
    7  A    between atoms: C_27  and  C_51
    8  A    between atoms: C_29  and  C_38
    9  A    between atoms: C_29  and  C_53
   10  A    between atoms: N_33  and  N_49
   11  A    between atoms: N_33  and  C_52
   12  A    between atoms: C_35  and  O_40
   13  A    between atoms: C_35  and  C_51
   14  A    between atoms: C_37  and  O_40
   15  A    between atoms: C_45  and  N_49
                            x       y       z     vdW  Elec       q    Type
                         _______ _______ _______ _____ _____    ______ ____

>  <TORSDO>
F 15

$$$$
=
 OpenBabel11052419383D

 55 60  0  0  1  0  0  0  0  0999 V2000
  184.6300  178.0070  144.8810 C   0  0  1  0  0  3  0  0  0  0  0  0
  187.8830  176.8900  146.8470 C   0  0  2  0  0  0  0  0  0  0  0  0
  185.6330  178.2260  146.9470 C   0  0  0  0  0  2  0  0  0  0  0  0
  189.6280  176.9230  145.2510 C   0  0  1  0  0  0  0  0  0  0  0  0
  187.0360  178.2750  144.2420 O   0  0  0  0  0  0  0  0  0  0  0  0
  188.1880  176.4760  145.4110 C   0  0  2  0  0  3  0  0  0  0  0  0
  187.1650  178.2640  146.9910 C   0  0  1  0  0  3  0  0  0  0  0  0
  185.1360  177.3090  146.0020 O   0  0  0  0  0  0  0  0  0  0  0  0
  189.2900  176.9660  147.4480 C   0  0  0  0  0  2  0  0  0  0  0  0
  183.5330  179.0160  145.2120 C   0  0  0  0  0  1  0  0  0  0  0  0
  187.5490  178.9240  148.1620 O   0  0  0  0  0  1  0  0  0  0  0  0
  190.2250  177.3200  146.4530 O   0  0  0  0  0  0  0  0  0  0  0  0
  187.1690  175.8820  147.4990 O   0  0  0  0  0  1  0  0  0  0  0  0
  187.2180  176.8820  144.2900 C   0  0  0  0  0  2  0  0  0  0  0  0
  190.5390  176.3050  144.1980 C   0  0  2  0  0  0  0  0  0  0  0  0
  185.6940  178.5530  143.8960 C   0  0  1  0  0  3  0  0  0  0  0  0
  190.0550  177.7480  144.0460 C   0  0  0  0  0  2  0  0  0  0  0  0
  188.7140  173.3870  141.6020 C   0  0  0  0  0  3  0  0  0  0  0  0
  189.9210  175.2890  143.2750 C   0  0  0  0  0  0  0  0  0  0  0  0
  189.7290  173.9750  143.7200 C   0  0  0  0  0  3  0  0  0  0  0  0
  188.9050  174.6950  141.1510 C   0  0  0  0  0  3  0  0  0  0  0  0
  189.1290  173.0260  142.8850 C   0  0  0  0  0  3  0  0  0  0  0  0
  189.5090  175.6430  141.9820 C   0  0  0  0  0  3  0  0  0  0  0  0
  185.3910  178.1780  142.4430 C   0  0  0  0  0  2  0  0  0  0  0  0
  183.9110  178.3160  142.1280 C   0  0  0  0  0  2  0  0  0  0  0  0
  183.7080  178.3650  140.6880 N   0  0  0  0  0  2  0  0  0  0  0  0
  181.4670  178.4580  141.5950 C   0  0  0  0  0  1  0  0  0  0  0  0
  182.3300  177.9860  140.4440 C   0  0  0  0  0  2  0  0  0  0  0  0
  191.9980  176.1430  144.6050 C   0  0  0  0  0  2  0  0  0  0  0  0
  192.3740  174.7960  144.5710 O   0  0  0  0  0  0  0  0  0  0  0  0
  192.7660  175.1260  146.8050 O   0  0  0  0  0  1  0  0  0  0  0  0
  193.3050  174.6520  145.6060 C   0  0  2  0  0  3  0  0  0  0  0  0
  194.9480  176.2850  146.0460 O   0  0  0  0  0  0  0  0  0  0  0  0
  194.5500  175.4160  145.2830 C   0  0  0  0  0  0  0  0  0  0  0  0
  195.3350  175.0530  144.0380 C   0  0  2  0  0  3  0  0  0  0  0  0
  196.7430  173.8290  145.7360 C   0  0  0  0  0  3  0  0  0  0  0  0
  196.9680  172.6440  146.3220 C   0  0  0  0  0  3  0  0  0  0  0  0
  195.9640  172.6360  143.6440 C   0  0  0  0  0  2  0  0  0  0  0  0
  196.9080  171.5210  144.0790 C   0  0  0  0  0  2  0  0  0  0  0  0
  196.7940  171.3390  145.5900 C   0  0  0  0  0  2  0  0  0  0  0  0
  196.3980  173.9690  144.2660 C   0  0  1  0  0  3  0  0  0  0  0  0
  197.2860  175.9450  143.0960 C   0  0  0  0  0  1  0  0  0  0  0  0
  195.8630  176.2180  143.2880 N   0  0  0  0  0  0  0  0  0  0  0  0
  195.2250  176.3700  142.0210 N   0  0  0  0  0  0  0  0  0  0  0  0
  196.1940  176.7020  141.1200 O   0  0  0  0  0  1  0  0  0  0  0  0
  195.1630  175.2900  139.2420 O   0  0  0  0  0  1  0  0  0  0  0  0
  193.1390  175.1730  141.3730 C   0  0  0  0  0  2  0  0  0  0  0  0
  192.5380  173.9950  140.5880 C   0  0  0  0  0  2  0  0  0  0  0  0
  195.3460  174.4630  140.3540 C   0  0  2  0  0  3  0  0  0  0  0  0
  194.8280  173.0550  140.0380 C   0  0  0  0  0  2  0  0  0  0  0  0
  193.4390  172.7580  140.6260 C   0  0  2  0  0  3  0  0  0  0  0  0
  194.6610  175.0640  141.6030 C   0  0  1  0  0  3  0  0  0  0  0  0
  192.8180  171.5800  139.9370 C   0  0  0  0  0  0  0  0  0  0  0  0
  193.3720  171.1080  138.8660 N   0  0  0  0  0  2  0  0  0  0  0  0
  191.5260  171.1100  140.3230 N   0  0  0  0  0  1  0  0  0  0  0  0
  1 10  1  1  0  0  0
  1  8  1  0  0  0  0
  2  7  1  0  0  0  0
  2  9  1  0  0  0  0
  2 13  1  1  0  0  0
  3  7  1  0  0  0  0
  4 17  1  6  0  0  0
  4  6  1  0  0  0  0
  4 12  1  0  0  0  0
  5 14  1  0  0  0  0
  6 14  1  6  0  0  0
  6  2  1  0  0  0  0
  7 11  1  1  0  0  0
  8  3  1  0  0  0  0
 12  9  1  0  0  0  0
 15 29  1  1  0  0  0
 15  4  1  0  0  0  0
 16 24  1  6  0  0  0
 16  5  1  0  0  0  0
 16  1  1  0  0  0  0
 17 15  1  0  0  0  0
 18 22  1  0  0  0  0
 19 20  1  0  0  0  0
 19 15  1  0  0  0  0
 21 18  2  0  0  0  0
 21 23  1  0  0  0  0
 22 20  2  0  0  0  0
 23 19  2  0  0  0  0
 25 24  1  0  0  0  0
 26 25  1  0  0  0  0
 28 26  1  0  0  0  0
 28 27  1  0  0  0  0
 30 29  1  0  0  0  0
 30 32  1  0  0  0  0
 32 31  1  1  0  0  0
 34 32  1  0  0  0  0
 34 33  2  0  0  0  0
 35 34  1  1  0  0  0
 36 37  2  0  0  0  0
 38 39  1  0  0  0  0
 38 41  1  0  0  0  0
 39 40  1  0  0  0  0
 40 37  1  0  0  0  0
 41 35  1  1  0  0  0
 41 36  1  0  0  0  0
 42 43  1  0  0  0  0
 43 35  1  0  0  0  0
 44 43  1  0  0  0  0
 45 44  1  0  0  0  0
 47 52  1  0  0  0  0
 48 51  1  0  0  0  0
 48 47  1  0  0  0  0
 49 46  1  6  0  0  0
 49 52  1  0  0  0  0
 50 49  1  0  0  0  0
 50 51  1  0  0  0  0
 51 53  1  6  0  0  0
 52 44  1  6  0  0  0
 53 55  1  0  0  0  0
 54 53  2  0  0  0  0
M  END
>  <MODEL>
2

>  <REMARK>
 VINA RESULT:      -6.7      2.069      2.977
  Name = 
  15 active torsions:
  status: ('A' for Active; 'I' for Inactive)
    1  A    between atoms: N_3  and  C_25
    2  A    between atoms: N_3  and  C_38
    3  A    between atoms: C_10  and  C_48
    4  A    between atoms: C_19  and  C_37
    5  A    between atoms: C_19  and  C_45
    6  A    between atoms: C_26  and  C_45
    7  A    between atoms: C_27  and  C_51
    8  A    between atoms: C_29  and  C_38
    9  A    between atoms: C_29  and  C_53
   10  A    between atoms: N_33  and  N_49
   11  A    between atoms: N_33  and  C_52
   12  A    between atoms: C_35  and  O_40
   13  A    between atoms: C_35  and  C_51
   14  A    between atoms: C_37  and  O_40
   15  A    between atoms: C_45  and  N_49
                            x       y       z     vdW  Elec       q    Type
                         _______ _______ _______ _____ _____    ______ ____

>  <TORSDO>
F 15

$$$$
=
 OpenBabel11052419383D

 55 60  0  0  1  0  0  0  0  0999 V2000
  195.5420  173.4520  144.8610 C   0  0  1  0  0  3  0  0  0  0  0  0
  192.9530  175.8670  143.0830 C   0  0  2  0  0  0  0  0  0  0  0  0
  195.0360  175.6940  144.6600 C   0  0  0  0  0  2  0  0  0  0  0  0
  190.8860  174.7160  143.1220 C   0  0  1  0  0  0  0  0  0  0  0  0
  193.0390  173.4050  144.9150 O   0  0  0  0  0  0  0  0  0  0  0  0
  192.3580  174.4830  142.8400 C   0  0  2  0  0  3  0  0  0  0  0  0
  193.5590  176.0760  144.5010 C   0  0  1  0  0  3  0  0  0  0  0  0
  195.3770  174.5250  143.9540 O   0  0  0  0  0  0  0  0  0  0  0  0
  191.7240  176.7630  142.8970 C   0  0  0  0  0  2  0  0  0  0  0  0
  196.5920  173.6990  145.9410 C   0  0  0  0  0  1  0  0  0  0  0  0
  193.4030  177.3950  144.9360 O   0  0  0  0  0  1  0  0  0  0  0  0
  190.5540  176.0680  143.2690 O   0  0  0  0  0  0  0  0  0  0  0  0
  193.8860  176.1710  142.0890 O   0  0  0  0  0  1  0  0  0  0  0  0
  192.9980  173.2610  143.5170 C   0  0  0  0  0  2  0  0  0  0  0  0
  189.8130  173.7990  142.5500 C   0  0  2  0  0  0  0  0  0  0  0  0
  194.2330  172.8270  145.4030 C   0  0  1  0  0  3  0  0  0  0  0  0
  190.1180  173.7870  144.0500 C   0  0  0  0  0  2  0  0  0  0  0  0
  191.2330  170.4200  140.2820 C   0  0  0  0  0  3  0  0  0  0  0  0
  190.2850  172.6090  141.7600 C   0  0  0  0  0  0  0  0  0  0  0  0
  190.7900  172.7930  140.4650 C   0  0  0  0  0  3  0  0  0  0  0  0
  190.7280  170.2290  141.5700 C   0  0  0  0  0  3  0  0  0  0  0  0
  191.2610  171.7000  139.7280 C   0  0  0  0  0  3  0  0  0  0  0  0
  190.2530  171.3180  142.3060 C   0  0  0  0  0  3  0  0  0  0  0  0
  194.2190  171.3010  145.2770 C   0  0  0  0  0  2  0  0  0  0  0  0
  195.3610  170.8030  144.4050 C   0  0  0  0  0  2  0  0  0  0  0  0
  195.9330  169.5930  144.9750 N   0  0  0  0  0  2  0  0  0  0  0  0
  196.5220  169.2450  147.2960 C   0  0  0  0  0  1  0  0  0  0  0  0
  196.8380  170.0110  146.0290 C   0  0  0  0  0  2  0  0  0  0  0  0
  188.5100  174.4810  142.1530 C   0  0  0  0  0  2  0  0  0  0  0  0
  188.7220  175.3730  141.0950 O   0  0  0  0  0  0  0  0  0  0  0  0
  187.2830  176.0250  139.4350 O   0  0  0  0  0  1  0  0  0  0  0  0
  187.4610  175.9110  140.8160 C   0  0  2  0  0  3  0  0  0  0  0  0
  188.1020  178.1570  141.1390 O   0  0  0  0  0  0  0  0  0  0  0  0
  187.3300  177.2610  141.4490 C   0  0  0  0  0  0  0  0  0  0  0  0
  186.1960  177.5110  142.4220 C   0  0  2  0  0  3  0  0  0  0  0  0
  184.8350  178.0040  140.3560 C   0  0  0  0  0  3  0  0  0  0  0  0
  183.6240  177.8930  139.7890 C   0  0  0  0  0  3  0  0  0  0  0  0
  183.7470  178.1050  142.6380 C   0  0  0  0  0  2  0  0  0  0  0  0
  182.5560  178.7130  141.9060 C   0  0  0  0  0  2  0  0  0  0  0  0
  182.3510  177.9650  140.5910 C   0  0  0  0  0  2  0  0  0  0  0  0
  185.0310  178.3160  141.8260 C   0  0  1  0  0  3  0  0  0  0  0  0
  185.8570  179.2540  143.9510 C   0  0  0  0  0  1  0  0  0  0  0  0
  186.6270  178.0290  143.7430 N   0  0  0  0  0  0  0  0  0  0  0  0
  186.3540  177.1030  144.7930 N   0  0  0  0  0  0  0  0  0  0  0  0
  185.8250  175.9870  144.2180 O   0  0  0  0  0  1  0  0  0  0  0  0
  187.0160  177.3540  147.6890 O   0  0  0  0  0  1  0  0  0  0  0  0
  188.6780  177.8340  145.3110 C   0  0  0  0  0  2  0  0  0  0  0  0
  189.8820  177.6770  146.2550 C   0  0  0  0  0  2  0  0  0  0  0  0
  187.4770  176.2850  146.9140 C   0  0  2  0  0  3  0  0  0  0  0  0
  188.7910  175.7550  147.4980 C   0  0  0  0  0  2  0  0  0  0  0  0
  190.0430  176.2360  146.7470 C   0  0  2  0  0  3  0  0  0  0  0  0
  187.6310  176.7090  145.4350 C   0  0  1  0  0  3  0  0  0  0  0  0
  191.2660  176.0590  147.5970 C   0  0  0  0  0  0  0  0  0  0  0  0
  191.9360  174.9530  147.5200 N   0  0  0  0  0  2  0  0  0  0  0  0
  191.5770  176.9970  148.6270 N   0  0  0  0  0  1  0  0  0  0  0  0
  1 16  1  0  0  0  0
  1 10  1  1  0  0  0
  2 13  1  6  0  0  0
  2  7  1  0  0  0  0
  4 12  1  0  0  0  0
  4 17  1  1  0  0  0
  5 16  1  0  0  0  0
  6  2  1  0  0  0  0
  6  4  1  0  0  0  0
  6 14  1  1  0  0  0
  7  3  1  0  0  0  0
  7 11  1  6  0  0  0
  8  3  1  0  0  0  0
  8  1  1  0  0  0  0
  9  2  1  0  0  0  0
  9 12  1  0  0  0  0
 14  5  1  0  0  0  0
 15 29  1  6  0  0  0
 15  4  1  0  0  0  0
 15 17  1  0  0  0  0
 16 24  1  6  0  0  0
 18 21  1  0  0  0  0
 19 23  1  0  0  0  0
 19 15  1  0  0  0  0
 20 19  2  0  0  0  0
 21 23  2  0  0  0  0
 22 18  2  0  0  0  0
 22 20  1  0  0  0  0
 25 26  1  0  0  0  0
 25 24  1  0  0  0  0
 26 28  1  0  0  0  0
 28 27  1  0  0  0  0
 30 29  1  0  0  0  0
 32 31  1  6  0  0  0
 32 30  1  0  0  0  0
 32 34  1  0  0  0  0
 33 34  2  0  0  0  0
 35 34  1  6  0  0  0
 35 43  1  0  0  0  0
 36 41  1  0  0  0  0
 37 36  2  0  0  0  0
 37 40  1  0  0  0  0
 39 38  1  0  0  0  0
 40 39  1  0  0  0  0
 41 35  1  1  0  0  0
 41 38  1  0  0  0  0
 43 42  1  0  0  0  0
 43 44  1  0  0  0  0
 45 44  1  0  0  0  0
 47 52  1  0  0  0  0
 47 48  1  0  0  0  0
 48 51  1  0  0  0  0
 49 50  1  0  0  0  0
 49 46  1  1  0  0  0
 51 50  1  0  0  0  0
 51 53  1  1  0  0  0
 52 44  1  1  0  0  0
 52 49  1  0  0  0  0
 53 55  1  0  0  0  0
 54 53  2  0  0  0  0
M  END
>  <MODEL>
3

>  <REMARK>
 VINA RESULT:      -6.5      2.736      9.577
  Name = 
  15 active torsions:
  status: ('A' for Active; 'I' for Inactive)
    1  A    between atoms: N_3  and  C_25
    2  A    between atoms: N_3  and  C_38
    3  A    between atoms: C_10  and  C_48
    4  A    between atoms: C_19  and  C_37
    5  A    between atoms: C_19  and  C_45
    6  A    between atoms: C_26  and  C_45
    7  A    between atoms: C_27  and  C_51
    8  A    between atoms: C_29  and  C_38
    9  A    between atoms: C_29  and  C_53
   10  A    between atoms: N_33  and  N_49
   11  A    between atoms: N_33  and  C_52
   12  A    between atoms: C_35  and  O_40
   13  A    between atoms: C_35  and  C_51
   14  A    between atoms: C_37  and  O_40
   15  A    between atoms: C_45  and  N_49
                            x       y       z     vdW  Elec       q    Type
                         _______ _______ _______ _____ _____    ______ ____

>  <TORSDO>
F 15

$$$$
=
 OpenBabel11052419383D

 55 60  0  0  1  0  0  0  0  0999 V2000
  185.7430  177.3010  145.2680 C   0  0  1  0  0  3  0  0  0  0  0  0
  189.2180  176.1180  146.7570 C   0  0  2  0  0  0  0  0  0  0  0  0
  187.0810  177.5850  147.1250 C   0  0  0  0  0  2  0  0  0  0  0  0
  190.6770  175.9530  144.9020 C   0  0  1  0  0  0  0  0  0  0  0  0
  188.0210  177.3900  144.2320 O   0  0  0  0  0  0  0  0  0  0  0  0
  189.2640  175.6010  145.3230 C   0  0  2  0  0  3  0  0  0  0  0  0
  188.6000  177.5370  146.9190 C   0  0  1  0  0  3  0  0  0  0  0  0
  186.3930  176.6430  146.3380 O   0  0  0  0  0  0  0  0  0  0  0  0
  190.7080  176.1480  147.1160 C   0  0  0  0  0  2  0  0  0  0  0  0
  184.7650  178.3890  145.7000 C   0  0  0  0  0  1  0  0  0  0  0  0
  189.2030  178.2440  147.9640 O   0  0  0  0  0  1  0  0  0  0  0  0
  191.4820  176.3870  145.9620 O   0  0  0  0  0  0  0  0  0  0  0  0
  188.5740  175.1940  147.5830 O   0  0  0  0  0  1  0  0  0  0  0  0
  188.1420  175.9930  144.3470 C   0  0  0  0  0  2  0  0  0  0  0  0
  191.3720  175.2200  143.7610 C   0  0  2  0  0  0  0  0  0  0  0  0
  186.6550  177.7230  144.0890 C   0  0  1  0  0  3  0  0  0  0  0  0
  190.9380  176.6780  143.5900 C   0  0  0  0  0  2  0  0  0  0  0  0
  189.0080  172.2620  141.7010 C   0  0  0  0  0  3  0  0  0  0  0  0
  190.5630  174.1880  143.0230 C   0  0  0  0  0  0  0  0  0  0  0  0
  190.3750  172.9200  143.5880 C   0  0  0  0  0  3  0  0  0  0  0  0
  189.1940  173.5230  141.1310 C   0  0  0  0  0  3  0  0  0  0  0  0
  189.6010  171.9590  142.9280 C   0  0  0  0  0  3  0  0  0  0  0  0
  189.9710  174.4820  141.7860 C   0  0  0  0  0  3  0  0  0  0  0  0
  186.1000  177.2790  142.7340 C   0  0  0  0  0  2  0  0  0  0  0  0
  186.3990  178.2990  141.6470 C   0  0  0  0  0  2  0  0  0  0  0  0
  185.7670  177.9000  140.3990 N   0  0  0  0  0  2  0  0  0  0  0  0
  186.4190  176.4270  138.5930 C   0  0  0  0  0  1  0  0  0  0  0  0
  186.8350  177.5910  139.4670 C   0  0  0  0  0  2  0  0  0  0  0  0
  192.8690  174.9990  143.9380 C   0  0  0  0  0  2  0  0  0  0  0  0
  193.5860  176.1360  143.5500 O   0  0  0  0  0  0  0  0  0  0  0  0
  194.7280  177.2320  145.2080 O   0  0  0  0  0  1  0  0  0  0  0  0
  194.7350  176.1300  144.3470 C   0  0  2  0  0  3  0  0  0  0  0  0
  196.7010  177.1490  143.5340 O   0  0  0  0  0  0  0  0  0  0  0  0
  195.9560  176.1800  143.4840 C   0  0  0  0  0  0  0  0  0  0  0  0
  196.2840  174.9910  142.6030 C   0  0  2  0  0  3  0  0  0  0  0  0
  197.3440  174.1500  144.7320 C   0  0  0  0  0  3  0  0  0  0  0  0
  197.1490  173.4150  145.8360 C   0  0  0  0  0  3  0  0  0  0  0  0
  195.6950  172.6940  143.4810 C   0  0  0  0  0  2  0  0  0  0  0  0
  196.1270  171.5940  144.4440 C   0  0  0  0  0  2  0  0  0  0  0  0
  196.2710  172.1900  145.8420 C   0  0  0  0  0  2  0  0  0  0  0  0
  196.7890  173.7640  143.3750 C   0  0  1  0  0  3  0  0  0  0  0  0
  197.9410  174.1200  141.1950 C   0  0  0  0  0  1  0  0  0  0  0  0
  197.1340  175.3140  141.4320 N   0  0  0  0  0  0  0  0  0  0  0  0
  196.3550  175.6080  140.2730 N   0  0  0  0  0  0  0  0  0  0  0  0
  197.2180  175.7120  139.2230 O   0  0  0  0  0  1  0  0  0  0  0  0
  195.0380  175.0070  137.6670 O   0  0  0  0  0  1  0  0  0  0  0  0
  194.0050  174.7940  140.4130 C   0  0  0  0  0  2  0  0  0  0  0  0
  192.9510  173.8400  139.8260 C   0  0  0  0  0  2  0  0  0  0  0  0
  195.4870  173.9950  138.5210 C   0  0  2  0  0  3  0  0  0  0  0  0
  194.6480  172.7300  138.3030 C   0  0  0  0  0  2  0  0  0  0  0  0
  193.5640  172.5120  139.3720 C   0  0  2  0  0  3  0  0  0  0  0  0
  195.4530  174.4650  139.9930 C   0  0  1  0  0  3  0  0  0  0  0  0
  192.5290  171.5460  138.8810 C   0  0  0  0  0  0  0  0  0  0  0  0
  192.2990  171.4560  137.6100 N   0  0  0  0  0  2  0  0  0  0  0  0
  191.6590  170.8830  139.7990 N   0  0  0  0  0  1  0  0  0  0  0  0
  1 10  1  1  0  0  0
  1  8  1  0  0  0  0
  2  7  1  0  0  0  0
  2  9  1  0  0  0  0
  2 13  1  1  0  0  0
  4 17  1  6  0  0  0
  4  6  1  0  0  0  0
  4 12  1  0  0  0  0
  5 14  1  0  0  0  0
  6 14  1  6  0  0  0
  6  2  1  0  0  0  0
  7  3  1  0  0  0  0
  7 11  1  1  0  0  0
  8  3  1  0  0  0  0
 12  9  1  0  0  0  0
 15 29  1  1  0  0  0
 15  4  1  0  0  0  0
 16 24  1  6  0  0  0
 16  5  1  0  0  0  0
 16  1  1  0  0  0  0
 17 15  1  0  0  0  0
 18 22  1  0  0  0  0
 19 20  1  0  0  0  0
 19 15  1  0  0  0  0
 21 18  2  0  0  0  0
 21 23  1  0  0  0  0
 22 20  2  0  0  0  0
 23 19  2  0  0  0  0
 25 24  1  0  0  0  0
 26 25  1  0  0  0  0
 27 28  1  0  0  0  0
 28 26  1  0  0  0  0
 30 29  1  0  0  0  0
 30 32  1  0  0  0  0
 32 31  1  1  0  0  0
 34 33  2  0  0  0  0
 34 32  1  0  0  0  0
 35 34  1  1  0  0  0
 36 37  2  0  0  0  0
 37 40  1  0  0  0  0
 38 39  1  0  0  0  0
 39 40  1  0  0  0  0
 41 35  1  1  0  0  0
 41 38  1  0  0  0  0
 41 36  1  0  0  0  0
 42 43  1  0  0  0  0
 43 35  1  0  0  0  0
 44 43  1  0  0  0  0
 45 44  1  0  0  0  0
 48 47  1  0  0  0  0
 49 46  1  6  0  0  0
 49 52  1  0  0  0  0
 50 49  1  0  0  0  0
 50 51  1  0  0  0  0
 51 53  1  6  0  0  0
 51 48  1  0  0  0  0
 52 44  1  6  0  0  0
 52 47  1  0  0  0  0
 53 55  1  0  0  0  0
 54 53  2  0  0  0  0
M  END
>  <MODEL>
4

>  <REMARK>
 VINA RESULT:      -6.4      1.838      2.520
  Name = 
  15 active torsions:
  status: ('A' for Active; 'I' for Inactive)
    1  A    between atoms: N_3  and  C_25
    2  A    between atoms: N_3  and  C_38
    3  A    between atoms: C_10  and  C_48
    4  A    between atoms: C_19  and  C_37
    5  A    between atoms: C_19  and  C_45
    6  A    between atoms: C_26  and  C_45
    7  A    between atoms: C_27  and  C_51
    8  A    between atoms: C_29  and  C_38
    9  A    between atoms: C_29  and  C_53
   10  A    between atoms: N_33  and  N_49
   11  A    between atoms: N_33  and  C_52
   12  A    between atoms: C_35  and  O_40
   13  A    between atoms: C_35  and  C_51
   14  A    between atoms: C_37  and  O_40
   15  A    between atoms: C_45  and  N_49
                            x       y       z     vdW  Elec       q    Type
                         _______ _______ _______ _____ _____    ______ ____

>  <TORSDO>
F 15

$$$$
=
 OpenBabel11052419383D

 55 60  0  0  1  0  0  0  0  0999 V2000
  185.3450  177.3150  145.8110 C   0  0  1  0  0  3  0  0  0  0  0  0
  189.0980  176.2710  146.5340 C   0  0  2  0  0  0  0  0  0  0  0  0
  186.9890  177.5480  147.4130 C   0  0  0  0  0  2  0  0  0  0  0  0
  190.1930  176.3560  144.4380 C   0  0  1  0  0  0  0  0  0  0  0  0
  187.3820  177.6480  144.3930 O   0  0  0  0  0  0  0  0  0  0  0  0
  188.9040  175.8720  145.0740 C   0  0  2  0  0  3  0  0  0  0  0  0
  188.4420  177.6250  146.9320 C   0  0  1  0  0  3  0  0  0  0  0  0
  186.2190  176.6240  146.6820 O   0  0  0  0  0  0  0  0  0  0  0  0
  190.6250  176.3790  146.6190 C   0  0  0  0  0  2  0  0  0  0  0  0
  184.4060  178.2930  146.5100 C   0  0  0  0  0  1  0  0  0  0  0  0
  189.1890  178.2890  147.9100 O   0  0  0  0  0  1  0  0  0  0  0  0
  191.1550  176.7630  145.3700 O   0  0  0  0  0  0  0  0  0  0  0  0
  188.6720  175.2420  147.3760 O   0  0  0  0  0  1  0  0  0  0  0  0
  187.6000  176.2590  144.3570 C   0  0  0  0  0  2  0  0  0  0  0  0
  190.7020  175.7670  143.1290 C   0  0  2  0  0  0  0  0  0  0  0  0
  185.9970  177.8930  144.5300 C   0  0  1  0  0  3  0  0  0  0  0  0
  190.1630  177.1990  143.1720 C   0  0  0  0  0  2  0  0  0  0  0  0
  188.1620  172.8220  141.2710 C   0  0  0  0  0  3  0  0  0  0  0  0
  189.8290  174.7410  142.4590 C   0  0  0  0  0  0  0  0  0  0  0  0
  189.7540  173.4450  142.9850 C   0  0  0  0  0  3  0  0  0  0  0  0
  188.2340  174.1110  140.7400 C   0  0  0  0  0  3  0  0  0  0  0  0
  188.9250  172.4870  142.3910 C   0  0  0  0  0  3  0  0  0  0  0  0
  189.0670  175.0670  141.3280 C   0  0  0  0  0  3  0  0  0  0  0  0
  185.2250  177.5170  143.2620 C   0  0  0  0  0  2  0  0  0  0  0  0
  185.2000  178.6630  142.2640 C   0  0  0  0  0  2  0  0  0  0  0  0
  185.2270  178.1430  140.9050 N   0  0  0  0  0  2  0  0  0  0  0  0
  186.6860  177.1590  139.2450 C   0  0  0  0  0  1  0  0  0  0  0  0
  186.6070  177.8110  140.6090 C   0  0  0  0  0  2  0  0  0  0  0  0
  192.2160  175.6410  143.0120 C   0  0  0  0  0  2  0  0  0  0  0  0
  192.5970  175.4940  141.6730 O   0  0  0  0  0  0  0  0  0  0  0  0
  194.6470  174.6020  141.1670 O   0  0  0  0  0  1  0  0  0  0  0  0
  193.3620  174.3230  141.6400 C   0  0  2  0  0  3  0  0  0  0  0  0
  191.9300  173.6760  139.8820 O   0  0  0  0  0  0  0  0  0  0  0  0
  192.7120  173.3120  140.7490 C   0  0  0  0  0  0  0  0  0  0  0  0
  193.0840  171.8500  140.8990 C   0  0  2  0  0  3  0  0  0  0  0  0
  194.1010  172.2550  138.6260 C   0  0  0  0  0  3  0  0  0  0  0  0
  195.2280  172.5700  137.9710 C   0  0  0  0  0  3  0  0  0  0  0  0
  195.4770  171.1660  140.4500 C   0  0  0  0  0  2  0  0  0  0  0  0
  196.4980  170.9020  139.3500 C   0  0  0  0  0  2  0  0  0  0  0  0
  196.5870  172.1340  138.4530 C   0  0  0  0  0  2  0  0  0  0  0  0
  194.0810  171.3510  139.8420 C   0  0  1  0  0  3  0  0  0  0  0  0
  192.1680  169.8310  140.1410 C   0  0  0  0  0  1  0  0  0  0  0  0
  191.9260  170.9390  141.0630 N   0  0  0  0  0  0  0  0  0  0  0  0
  191.8240  170.4430  142.3970 N   0  0  0  0  0  0  0  0  0  0  0  0
  191.7190  169.0860  142.3150 O   0  0  0  0  0  1  0  0  0  0  0  0
  192.9850  168.8540  144.6360 O   0  0  0  0  0  1  0  0  0  0  0  0
  192.8240  171.7660  144.2550 C   0  0  0  0  0  2  0  0  0  0  0  0
  193.9610  171.8540  145.2860 C   0  0  0  0  0  2  0  0  0  0  0  0
  193.7890  169.4940  143.6880 C   0  0  2  0  0  3  0  0  0  0  0  0
  195.1460  169.8360  144.3110 C   0  0  0  0  0  2  0  0  0  0  0  0
  195.2820  171.3070  144.7370 C   0  0  2  0  0  3  0  0  0  0  0  0
  193.0790  170.7470  143.1250 C   0  0  1  0  0  3  0  0  0  0  0  0
  196.4130  171.4710  145.7070 C   0  0  0  0  0  0  0  0  0  0  0  0
  196.8990  170.4260  146.2970 N   0  0  0  0  0  1  0  0  0  0  0  0
  196.8170  172.7710  146.1390 N   0  0  0  0  0  2  0  0  0  0  0  0
  1 10  1  1  0  0  0
  1  8  1  0  0  0  0
  2  9  1  0  0  0  0
  2  7  1  0  0  0  0
  2 13  1  1  0  0  0
  4 17  1  6  0  0  0
  4  6  1  0  0  0  0
  4 12  1  0  0  0  0
  5 16  1  0  0  0  0
  6 14  1  6  0  0  0
  6  2  1  0  0  0  0
  7  3  1  0  0  0  0
  7 11  1  1  0  0  0
  8  3  1  0  0  0  0
 12  9  1  0  0  0  0
 14  5  1  0  0  0  0
 15 29  1  6  0  0  0
 15 17  1  0  0  0  0
 15  4  1  0  0  0  0
 16 24  1  6  0  0  0
 16  1  1  0  0  0  0
 18 22  1  0  0  0  0
 19 20  1  0  0  0  0
 19 15  1  0  0  0  0
 21 18  2  0  0  0  0
 21 23  1  0  0  0  0
 22 20  2  0  0  0  0
 23 19  2  0  0  0  0
 25 24  1  0  0  0  0
 26 25  1  0  0  0  0
 27 28  1  0  0  0  0
 28 26  1  0  0  0  0
 30 29  1  0  0  0  0
 32 31  1  6  0  0  0
 32 30  1  0  0  0  0
 33 34  2  0  0  0  0
 34 32  1  0  0  0  0
 35 34  1  6  0  0  0
 35 43  1  0  0  0  0
 36 41  1  0  0  0  0
 37 40  1  0  0  0  0
 37 36  2  0  0  0  0
 39 38  1  0  0  0  0
 40 39  1  0  0  0  0
 41 38  1  0  0  0  0
 41 35  1  1  0  0  0
 42 43  1  0  0  0  0
 43 44  1  0  0  0  0
 45 44  1  0  0  0  0
 47 48  1  0  0  0  0
 49 50  1  0  0  0  0
 49 46  1  1  0  0  0
 50 51  1  0  0  0  0
 51 48  1  0  0  0  0
 51 53  1  1  0  0  0
 52 44  1  1  0  0  0
 52 49  1  0  0  0  0
 52 47  1  0  0  0  0
 53 55  2  0  0  0  0
 53 54  1  0  0  0  0
M  END
>  <MODEL>
5

>  <REMARK>
 VINA RESULT:      -6.2      1.835      4.292
  Name = 
  15 active torsions:
  status: ('A' for Active; 'I' for Inactive)
    1  A    between atoms: N_3  and  C_25
    2  A    between atoms: N_3  and  C_38
    3  A    between atoms: C_10  and  C_48
    4  A    between atoms: C_19  and  C_37
    5  A    between atoms: C_19  and  C_45
    6  A    between atoms: C_26  and  C_45
    7  A    between atoms: C_27  and  C_51
    8  A    between atoms: C_29  and  C_38
    9  A    between atoms: C_29  and  C_53
   10  A    between atoms: N_33  and  N_49
   11  A    between atoms: N_33  and  C_52
   12  A    between atoms: C_35  and  O_40
   13  A    between atoms: C_35  and  C_51
   14  A    between atoms: C_37  and  O_40
   15  A    between atoms: C_45  and  N_49
                            x       y       z     vdW  Elec       q    Type
                         _______ _______ _______ _____ _____    ______ ____

>  <TORSDO>
F 15

$$$$
=
 OpenBabel11052419383D

 55 60  0  0  1  0  0  0  0  0999 V2000
  193.5710  172.8830  136.0920 C   0  0  1  0  0  3  0  0  0  0  0  0
  189.7880  172.8870  137.2680 C   0  0  2  0  0  0  0  0  0  0  0  0
  191.4650  173.4470  135.3370 C   0  0  0  0  0  2  0  0  0  0  0  0
  189.8420  173.4360  139.5690 C   0  0  1  0  0  0  0  0  0  0  0  0
  192.5550  173.8830  138.1500 O   0  0  0  0  0  0  0  0  0  0  0  0
  190.5470  172.5620  138.5500 C   0  0  2  0  0  3  0  0  0  0  0  0
  190.4580  173.9670  136.3700 C   0  0  1  0  0  3  0  0  0  0  0  0
  192.2660  172.4020  135.8340 O   0  0  0  0  0  0  0  0  0  0  0  0
  188.4610  173.4140  137.8270 C   0  0  0  0  0  2  0  0  0  0  0  0
  194.2630  173.5010  134.8810 C   0  0  0  0  0  1  0  0  0  0  0  0
  189.5050  174.7380  135.6970 O   0  0  0  0  0  1  0  0  0  0  0  0
  188.6700  174.0260  139.0800 O   0  0  0  0  0  0  0  0  0  0  0  0
  189.5390  171.7180  136.5450 O   0  0  0  0  0  1  0  0  0  0  0  0
  192.0830  172.6190  138.5480 C   0  0  0  0  0  2  0  0  0  0  0  0
  189.8860  173.1160  141.0580 C   0  0  2  0  0  0  0  0  0  0  0  0
  193.7330  173.7160  137.3880 C   0  0  1  0  0  3  0  0  0  0  0  0
  190.6380  174.3300  140.5080 C   0  0  0  0  0  2  0  0  0  0  0  0
  192.2780  169.7610  142.3250 C   0  0  0  0  0  3  0  0  0  0  0  0
  190.7260  171.9390  141.4760 C   0  0  0  0  0  0  0  0  0  0  0  0
  191.8650  172.1460  142.2660 C   0  0  0  0  0  3  0  0  0  0  0  0
  191.1460  169.5480  141.5360 C   0  0  0  0  0  3  0  0  0  0  0  0
  192.6400  171.0600  142.6870 C   0  0  0  0  0  3  0  0  0  0  0  0
  190.3740  170.6320  141.1090 C   0  0  0  0  0  3  0  0  0  0  0  0
  194.9040  173.2360  138.2480 C   0  0  0  0  0  2  0  0  0  0  0  0
  195.9080  174.3500  138.4960 C   0  0  0  0  0  2  0  0  0  0  0  0
  195.3800  175.2890  139.4750 N   0  0  0  0  0  2  0  0  0  0  0  0
  196.0310  176.7770  141.2680 C   0  0  0  0  0  1  0  0  0  0  0  0
  196.5030  175.7350  140.2770 C   0  0  0  0  0  2  0  0  0  0  0  0
  188.6150  173.4300  141.8350 C   0  0  0  0  0  2  0  0  0  0  0  0
  188.8930  174.2700  142.9190 O   0  0  0  0  0  0  0  0  0  0  0  0
  187.4550  175.4890  141.6160 O   0  0  0  0  0  1  0  0  0  0  0  0
  187.8570  175.2100  142.9250 C   0  0  2  0  0  3  0  0  0  0  0  0
  188.5180  177.4730  142.9130 O   0  0  0  0  0  0  0  0  0  0  0  0
  188.3160  176.4720  143.5850 C   0  0  0  0  0  0  0  0  0  0  0  0
  188.4630  176.5030  145.0930 C   0  0  2  0  0  3  0  0  0  0  0  0
  186.7000  178.2810  144.7870 C   0  0  0  0  0  3  0  0  0  0  0  0
  185.4100  178.5890  144.9820 C   0  0  0  0  0  3  0  0  0  0  0  0
  186.6420  176.7830  146.8250 C   0  0  0  0  0  2  0  0  0  0  0  0
  185.5580  177.7260  147.3340 C   0  0  0  0  0  2  0  0  0  0  0  0
  184.6350  178.0880  146.1730 C   0  0  0  0  0  2  0  0  0  0  0  0
  187.5210  177.4960  145.7900 C   0  0  1  0  0  3  0  0  0  0  0  0
  189.8640  177.7390  146.5070 C   0  0  0  0  0  1  0  0  0  0  0  0
  189.8630  176.6200  145.5680 N   0  0  0  0  0  0  0  0  0  0  0  0
  190.3020  175.4340  146.2300 N   0  0  0  0  0  0  0  0  0  0  0  0
  189.3330  174.4920  146.0510 O   0  0  0  0  0  1  0  0  0  0  0  0
  193.0880  176.3270  146.8010 O   0  0  0  0  0  1  0  0  0  0  0  0
  191.7840  175.6870  144.2440 C   0  0  0  0  0  2  0  0  0  0  0  0
  193.2070  175.5130  143.6870 C   0  0  0  0  0  2  0  0  0  0  0  0
  192.7890  175.0030  146.4660 C   0  0  2  0  0  3  0  0  0  0  0  0
  194.0060  174.3560  145.7970 C   0  0  0  0  0  2  0  0  0  0  0  0
  193.9050  174.2780  144.2650 C   0  0  2  0  0  3  0  0  0  0  0  0
  191.5310  174.9370  145.5690 C   0  0  1  0  0  3  0  0  0  0  0  0
  195.2580  174.0550  143.6600 C   0  0  0  0  0  0  0  0  0  0  0  0
  195.3580  173.3620  142.5710 N   0  0  0  0  0  2  0  0  0  0  0  0
  196.4420  174.4160  144.3720 N   0  0  0  0  0  1  0  0  0  0  0  0
  1 10  1  6  0  0  0
  1 16  1  0  0  0  0
  2 13  1  6  0  0  0
  2  9  1  0  0  0  0
  2  6  1  0  0  0  0
  3  8  1  0  0  0  0
  3  7  1  0  0  0  0
  4 17  1  6  0  0  0
  4 15  1  0  0  0  0
  5 14  1  0  0  0  0
  6 14  1  6  0  0  0
  6  4  1  0  0  0  0
  7 11  1  6  0  0  0
  7  2  1  0  0  0  0
  8  1  1  0  0  0  0
  9 12  1  0  0  0  0
 12  4  1  0  0  0  0
 15 19  1  0  0  0  0
 15 29  1  1  0  0  0
 16  5  1  0  0  0  0
 16 24  1  1  0  0  0
 17 15  1  0  0  0  0
 18 22  1  0  0  0  0
 19 20  1  0  0  0  0
 20 22  2  0  0  0  0
 21 18  2  0  0  0  0
 23 19  2  0  0  0  0
 23 21  1  0  0  0  0
 24 25  1  0  0  0  0
 25 26  1  0  0  0  0
 26 28  1  0  0  0  0
 28 27  1  0  0  0  0
 29 30  1  0  0  0  0
 30 32  1  0  0  0  0
 32 31  1  6  0  0  0
 32 34  1  0  0  0  0
 33 34  2  0  0  0  0
 35 34  1  6  0  0  0
 35 43  1  0  0  0  0
 36 37  2  0  0  0  0
 36 41  1  0  0  0  0
 37 40  1  0  0  0  0
 38 39  1  0  0  0  0
 40 39  1  0  0  0  0
 41 35  1  6  0  0  0
 41 38  1  0  0  0  0
 43 44  1  0  0  0  0
 43 42  1  0  0  0  0
 45 44  1  0  0  0  0
 47 52  1  0  0  0  0
 48 47  1  0  0  0  0
 48 51  1  0  0  0  0
 49 46  1  6  0  0  0
 50 49  1  0  0  0  0
 51 53  1  6  0  0  0
 51 50  1  0  0  0  0
 52 44  1  1  0  0  0
 52 49  1  0  0  0  0
 53 55  1  0  0  0  0
 54 53  2  0  0  0  0
M  END
>  <MODEL>
6

>  <REMARK>
 VINA RESULT:      -6.1      2.834      9.136
  Name = 
  15 active torsions:
  status: ('A' for Active; 'I' for Inactive)
    1  A    between atoms: N_3  and  C_25
    2  A    between atoms: N_3  and  C_38
    3  A    between atoms: C_10  and  C_48
    4  A    between atoms: C_19  and  C_37
    5  A    between atoms: C_19  and  C_45
    6  A    between atoms: C_26  and  C_45
    7  A    between atoms: C_27  and  C_51
    8  A    between atoms: C_29  and  C_38
    9  A    between atoms: C_29  and  C_53
   10  A    between atoms: N_33  and  N_49
   11  A    between atoms: N_33  and  C_52
   12  A    between atoms: C_35  and  O_40
   13  A    between atoms: C_35  and  C_51
   14  A    between atoms: C_37  and  O_40
   15  A    between atoms: C_45  and  N_49
                            x       y       z     vdW  Elec       q    Type
                         _______ _______ _______ _____ _____    ______ ____

>  <TORSDO>
F 15

$$$$
=
 OpenBabel11052419383D

 55 60  0  0  1  0  0  0  0  0999 V2000
  185.9690  178.4250  145.2930 C   0  0  1  0  0  3  0  0  0  0  0  0
  187.0660  177.7500  141.5470 C   0  0  2  0  0  0  0  0  0  0  0  0
  185.2910  178.8460  143.1290 C   0  0  0  0  0  2  0  0  0  0  0  0
  187.9970  175.5750  141.5430 C   0  0  1  0  0  0  0  0  0  0  0  0
  186.5090  176.2540  144.1690 O   0  0  0  0  0  0  0  0  0  0  0  0
  188.0100  176.8590  142.3490 C   0  0  2  0  0  3  0  0  0  0  0  0
  185.6000  177.7820  142.0690 C   0  0  1  0  0  3  0  0  0  0  0  0
  186.3350  179.0100  144.0590 O   0  0  0  0  0  0  0  0  0  0  0  0
  187.1190  177.0850  140.1670 C   0  0  0  0  0  2  0  0  0  0  0  0
  184.6810  178.9800  145.8950 C   0  0  0  0  0  1  0  0  0  0  0  0
  184.6850  177.9340  141.0230 O   0  0  0  0  0  1  0  0  0  0  0  0
  187.3600  175.7020  140.3030 O   0  0  0  0  0  0  0  0  0  0  0  0
  187.5900  179.0410  141.4450 O   0  0  0  0  0  1  0  0  0  0  0  0
  187.8020  176.7180  143.8650 C   0  0  0  0  0  2  0  0  0  0  0  0
  189.1360  174.5670  141.6360 C   0  0  2  0  0  0  0  0  0  0  0  0
  186.0620  176.8800  145.3550 C   0  0  1  0  0  3  0  0  0  0  0  0
  187.7630  174.2350  142.2240 C   0  0  0  0  0  2  0  0  0  0  0  0
  192.3080  175.3660  144.4430 C   0  0  0  0  0  3  0  0  0  0  0  0
  190.2330  174.8690  142.6210 C   0  0  0  0  0  0  0  0  0  0  0  0
  190.4010  174.0490  143.7440 C   0  0  0  0  0  3  0  0  0  0  0  0
  192.1450  176.1890  143.3270 C   0  0  0  0  0  3  0  0  0  0  0  0
  191.4340  174.2980  144.6540 C   0  0  0  0  0  3  0  0  0  0  0  0
  191.1100  175.9450  142.4200 C   0  0  0  0  0  3  0  0  0  0  0  0
  186.8350  176.3900  146.5830 C   0  0  0  0  0  2  0  0  0  0  0  0
  187.5060  177.5410  147.3150 C   0  0  0  0  0  2  0  0  0  0  0  0
  188.9350  177.5410  147.0430 N   0  0  0  0  0  2  0  0  0  0  0  0
  190.8380  176.2080  147.7180 C   0  0  0  0  0  1  0  0  0  0  0  0
  189.4010  176.1820  147.2430 C   0  0  0  0  0  2  0  0  0  0  0  0
  189.4840  173.8490  140.3390 C   0  0  0  0  0  2  0  0  0  0  0  0
  190.7750  173.3130  140.4010 O   0  0  0  0  0  0  0  0  0  0  0  0
  190.3310  171.2270  141.2390 O   0  0  0  0  0  1  0  0  0  0  0  0
  190.6220  171.9590  140.0850 C   0  0  2  0  0  3  0  0  0  0  0  0
  192.3360  170.3600  139.8290 O   0  0  0  0  0  0  0  0  0  0  0  0
  191.8780  171.4340  139.4640 C   0  0  0  0  0  0  0  0  0  0  0  0
  192.5300  172.2180  138.3440 C   0  0  2  0  0  3  0  0  0  0  0  0
  191.6460  170.2480  137.0400 C   0  0  0  0  0  3  0  0  0  0  0  0
  190.8130  169.8670  136.0610 C   0  0  0  0  0  3  0  0  0  0  0  0
  191.9590  172.4820  135.8940 C   0  0  0  0  0  2  0  0  0  0  0  0
  191.6760  171.7200  134.6050 C   0  0  0  0  0  2  0  0  0  0  0  0
  190.5420  170.7300  134.8560 C   0  0  0  0  0  2  0  0  0  0  0  0
  192.4660  171.5210  136.9770 C   0  0  1  0  0  3  0  0  0  0  0  0
  194.7940  171.9790  137.7880 C   0  0  0  0  0  1  0  0  0  0  0  0
  193.8880  172.7230  138.6600 N   0  0  0  0  0  0  0  0  0  0  0  0
  194.0100  174.1210  138.4030 N   0  0  0  0  0  0  0  0  0  0  0  0
  192.7540  174.6000  138.1770 O   0  0  0  0  0  1  0  0  0  0  0  0
  196.8430  174.1320  139.3310 O   0  0  0  0  0  1  0  0  0  0  0  0
  194.3430  173.9010  140.8610 C   0  0  0  0  0  2  0  0  0  0  0  0
  195.1750  174.3400  142.0780 C   0  0  0  0  0  2  0  0  0  0  0  0
  196.0050  175.2390  139.4970 C   0  0  2  0  0  3  0  0  0  0  0  0
  196.4610  176.0490  140.7160 C   0  0  0  0  0  2  0  0  0  0  0  0
  195.6160  175.8030  141.9770 C   0  0  2  0  0  3  0  0  0  0  0  0
  194.5290  174.7940  139.6170 C   0  0  1  0  0  3  0  0  0  0  0  0
  196.3520  176.2610  143.2000 C   0  0  0  0  0  0  0  0  0  0  0  0
  195.6810  176.5870  144.2580 N   0  0  0  0  0  1  0  0  0  0  0  0
  197.7530  176.5370  143.1450 N   0  0  0  0  0  2  0  0  0  0  0  0
  1 16  1  0  0  0  0
  1 10  1  6  0  0  0
  2 13  1  6  0  0  0
  2  7  1  0  0  0  0
  2  6  1  0  0  0  0
  3  8  1  0  0  0  0
  4 15  1  0  0  0  0
  4 17  1  1  0  0  0
  4  6  1  0  0  0  0
  5 16  1  0  0  0  0
  6 14  1  1  0  0  0
  7 11  1  6  0  0  0
  7  3  1  0  0  0  0
  8  1  1  0  0  0  0
  9 12  1  0  0  0  0
  9  2  1  0  0  0  0
 12  4  1  0  0  0  0
 14  5  1  0  0  0  0
 15 29  1  6  0  0  0
 15 17  1  0  0  0  0
 15 19  1  0  0  0  0
 16 24  1  1  0  0  0
 18 22  1  0  0  0  0
 19 20  1  0  0  0  0
 20 22  2  0  0  0  0
 21 18  2  0  0  0  0
 23 19  2  0  0  0  0
 23 21  1  0  0  0  0
 24 25  1  0  0  0  0
 26 28  1  0  0  0  0
 26 25  1  0  0  0  0
 28 27  1  0  0  0  0
 29 30  1  0  0  0  0
 32 30  1  0  0  0  0
 32 31  1  1  0  0  0
 34 33  2  0  0  0  0
 34 32  1  0  0  0  0
 35 43  1  0  0  0  0
 35 34  1  1  0  0  0
 37 36  2  0  0  0  0
 38 41  1  0  0  0  0
 39 40  1  0  0  0  0
 39 38  1  0  0  0  0
 40 37  1  0  0  0  0
 41 36  1  0  0  0  0
 41 35  1  1  0  0  0
 42 43  1  0  0  0  0
 44 43  1  0  0  0  0
 45 44  1  0  0  0  0
 47 48  1  0  0  0  0
 49 46  1  1  0  0  0
 49 52  1  0  0  0  0
 49 50  1  0  0  0  0
 50 51  1  0  0  0  0
 51 48  1  0  0  0  0
 51 53  1  1  0  0  0
 52 44  1  6  0  0  0
 52 47  1  0  0  0  0
 53 54  1  0  0  0  0
 55 53  2  0  0  0  0
M  END
>  <MODEL>
7

>  <REMARK>
 VINA RESULT:      -6.1      2.847      6.199
  Name = 
  15 active torsions:
  status: ('A' for Active; 'I' for Inactive)
    1  A    between atoms: N_3  and  C_25
    2  A    between atoms: N_3  and  C_38
    3  A    between atoms: C_10  and  C_48
    4  A    between atoms: C_19  and  C_37
    5  A    between atoms: C_19  and  C_45
    6  A    between atoms: C_26  and  C_45
    7  A    between atoms: C_27  and  C_51
    8  A    between atoms: C_29  and  C_38
    9  A    between atoms: C_29  and  C_53
   10  A    between atoms: N_33  and  N_49
   11  A    between atoms: N_33  and  C_52
   12  A    between atoms: C_35  and  O_40
   13  A    between atoms: C_35  and  C_51
   14  A    between atoms: C_37  and  O_40
   15  A    between atoms: C_45  and  N_49
                            x       y       z     vdW  Elec       q    Type
                         _______ _______ _______ _____ _____    ______ ____

>  <TORSDO>
F 15

$$$$
=
 OpenBabel11052419383D

 55 60  0  0  1  0  0  0  0  0999 V2000
  191.8780  173.3210  136.2970 C   0  0  1  0  0  3  0  0  0  0  0  0
  189.3190  172.6160  139.2390 C   0  0  2  0  0  0  0  0  0  0  0  0
  189.6240  173.4430  136.7730 C   0  0  0  0  0  2  0  0  0  0  0  0
  190.4550  173.2250  141.2230 C   0  0  1  0  0  0  0  0  0  0  0  0
  191.9110  174.1560  138.6570 O   0  0  0  0  0  0  0  0  0  0  0  0
  190.6760  172.4790  139.9210 C   0  0  2  0  0  3  0  0  0  0  0  0
  189.2210  173.7830  138.2130 C   0  0  1  0  0  3  0  0  0  0  0  0
  190.7390  172.5880  136.7050 O   0  0  0  0  0  0  0  0  0  0  0  0
  188.4030  172.8880  140.4360 C   0  0  0  0  0  2  0  0  0  0  0  0
  191.7200  174.0310  134.9550 C   0  0  0  0  0  1  0  0  0  0  0  0
  187.9360  174.3350  138.1850 O   0  0  0  0  0  1  0  0  0  0  0  0
  189.1150  173.5610  141.4510 O   0  0  0  0  0  0  0  0  0  0  0  0
  188.9480  171.4030  138.6540 O   0  0  0  0  0  1  0  0  0  0  0  0
  191.9500  172.8350  139.1380 C   0  0  0  0  0  2  0  0  0  0  0  0
  191.3190  172.9580  142.4490 C   0  0  2  0  0  0  0  0  0  0  0  0
  192.5320  174.2030  137.3890 C   0  0  1  0  0  3  0  0  0  0  0  0
  191.4450  174.2810  141.6900 C   0  0  0  0  0  2  0  0  0  0  0  0
  194.5310  170.1340  141.9120 C   0  0  0  0  0  3  0  0  0  0  0  0
  192.4500  171.9800  142.2840 C   0  0  0  0  0  0  0  0  0  0  0  0
  192.1740  170.6090  142.1940 C   0  0  0  0  0  3  0  0  0  0  0  0
  194.8140  171.4980  142.0030 C   0  0  0  0  0  3  0  0  0  0  0  0
  193.2120  169.6880  142.0110 C   0  0  0  0  0  3  0  0  0  0  0  0
  193.7790  172.4190  142.1910 C   0  0  0  0  0  3  0  0  0  0  0  0
  194.0440  173.9840  137.4880 C   0  0  0  0  0  2  0  0  0  0  0  0
  194.8020  175.3010  137.4650 C   0  0  0  0  0  2  0  0  0  0  0  0
  195.8740  175.2780  138.4490 N   0  0  0  0  0  2  0  0  0  0  0  0
  196.2560  174.7650  140.7820 C   0  0  0  0  0  1  0  0  0  0  0  0
  195.2450  175.2300  139.7550 C   0  0  0  0  0  2  0  0  0  0  0  0
  190.6000  173.0380  143.7890 C   0  0  0  0  0  2  0  0  0  0  0  0
  191.4800  173.4420  144.7990 O   0  0  0  0  0  0  0  0  0  0  0  0
  189.3170  173.7690  145.4820 O   0  0  0  0  0  1  0  0  0  0  0  0
  190.6590  173.8100  145.8700 C   0  0  2  0  0  3  0  0  0  0  0  0
  191.0810  175.4380  147.5230 O   0  0  0  0  0  0  0  0  0  0  0  0
  191.0040  175.1920  146.3280 C   0  0  0  0  0  0  0  0  0  0  0  0
  191.3140  176.2550  145.2920 C   0  0  2  0  0  3  0  0  0  0  0  0
  193.6010  175.9880  146.3230 C   0  0  0  0  0  3  0  0  0  0  0  0
  194.8260  175.4700  146.1510 C   0  0  0  0  0  3  0  0  0  0  0  0
  193.3670  176.2450  143.8160 C   0  0  0  0  0  2  0  0  0  0  0  0
  194.8850  176.3830  143.8140 C   0  0  0  0  0  2  0  0  0  0  0  0
  195.4740  175.3720  144.7950 C   0  0  0  0  0  2  0  0  0  0  0  0
  192.8040  176.6120  145.1950 C   0  0  1  0  0  3  0  0  0  0  0  0
  190.3920  177.9830  144.0080 C   0  0  0  0  0  1  0  0  0  0  0  0
  190.4460  177.4540  145.3690 N   0  0  0  0  0  0  0  0  0  0  0  0
  189.1290  177.1310  145.8130 N   0  0  0  0  0  0  0  0  0  0  0  0
  188.8630  177.9230  146.8910 O   0  0  0  0  0  1  0  0  0  0  0  0
  186.1880  177.4670  146.1630 O   0  0  0  0  0  1  0  0  0  0  0  0
  187.7130  176.2320  143.9730 C   0  0  0  0  0  2  0  0  0  0  0  0
  186.4480  176.4390  143.1220 C   0  0  0  0  0  2  0  0  0  0  0  0
  186.9220  178.2560  145.2730 C   0  0  2  0  0  3  0  0  0  0  0  0
  186.0140  178.7240  144.1310 C   0  0  0  0  0  2  0  0  0  0  0  0
  186.1840  177.9190  142.8320 C   0  0  2  0  0  3  0  0  0  0  0  0
  188.1580  177.4870  144.7520 C   0  0  1  0  0  3  0  0  0  0  0  0
  185.0030  178.1200  141.9310 C   0  0  0  0  0  0  0  0  0  0  0  0
  183.8090  177.9610  142.4060 N   0  0  0  0  0  1  0  0  0  0  0  0
  185.1820  178.2780  140.5230 N   0  0  0  0  0  2  0  0  0  0  0  0
  1 10  1  6  0  0  0
  1  8  1  0  0  0  0
  1 16  1  0  0  0  0
  2 13  1  6  0  0  0
  2  6  1  0  0  0  0
  2  9  1  0  0  0  0
  3  7  1  0  0  0  0
  4 12  1  0  0  0  0
  4 17  1  6  0  0  0
  4 15  1  0  0  0  0
  5 14  1  0  0  0  0
  6 14  1  6  0  0  0
  6  4  1  0  0  0  0
  7 11  1  6  0  0  0
  7  2  1  0  0  0  0
  8  3  1  0  0  0  0
  9 12  1  0  0  0  0
 15 29  1  1  0  0  0
 16 24  1  1  0  0  0
 16  5  1  0  0  0  0
 17 15  1  0  0  0  0
 18 21  2  0  0  0  0
 18 22  1  0  0  0  0
 19 15  1  0  0  0  0
 20 19  1  0  0  0  0
 21 23  1  0  0  0  0
 22 20  2  0  0  0  0
 23 19  2  0  0  0  0
 25 24  1  0  0  0  0
 25 26  1  0  0  0  0
 26 28  1  0  0  0  0
 28 27  1  0  0  0  0
 29 30  1  0  0  0  0
 30 32  1  0  0  0  0
 32 31  1  6  0  0  0
 32 34  1  0  0  0  0
 34 33  2  0  0  0  0
 35 43  1  0  0  0  0
 35 34  1  1  0  0  0
 37 36  2  0  0  0  0
 38 41  1  0  0  0  0
 39 38  1  0  0  0  0
 39 40  1  0  0  0  0
 40 37  1  0  0  0  0
 41 35  1  6  0  0  0
 41 36  1  0  0  0  0
 42 43  1  0  0  0  0
 43 44  1  0  0  0  0
 44 45  1  0  0  0  0
 47 52  1  0  0  0  0
 48 47  1  0  0  0  0
 49 46  1  1  0  0  0
 50 49  1  0  0  0  0
 51 53  1  6  0  0  0
 51 48  1  0  0  0  0
 51 50  1  0  0  0  0
 52 49  1  0  0  0  0
 52 44  1  1  0  0  0
 53 54  1  0  0  0  0
 55 53  2  0  0  0  0
M  END
>  <MODEL>
8

>  <REMARK>
 VINA RESULT:      -6.1      2.604      8.034
  Name = 
  15 active torsions:
  status: ('A' for Active; 'I' for Inactive)
    1  A    between atoms: N_3  and  C_25
    2  A    between atoms: N_3  and  C_38
    3  A    between atoms: C_10  and  C_48
    4  A    between atoms: C_19  and  C_37
    5  A    between atoms: C_19  and  C_45
    6  A    between atoms: C_26  and  C_45
    7  A    between atoms: C_27  and  C_51
    8  A    between atoms: C_29  and  C_38
    9  A    between atoms: C_29  and  C_53
   10  A    between atoms: N_33  and  N_49
   11  A    between atoms: N_33  and  C_52
   12  A    between atoms: C_35  and  O_40
   13  A    between atoms: C_35  and  C_51
   14  A    between atoms: C_37  and  O_40
   15  A    between atoms: C_45  and  N_49
                            x       y       z     vdW  Elec       q    Type
                         _______ _______ _______ _____ _____    ______ ____

>  <TORSDO>
F 15

$$$$
=
 OpenBabel11052419383D

 55 60  0  0  1  0  0  0  0  0999 V2000
  185.2230  177.3100  145.9380 C   0  0  1  0  0  3  0  0  0  0  0  0
  188.9970  176.3830  146.7060 C   0  0  2  0  0  0  0  0  0  0  0  0
  186.8450  177.6120  147.5500 C   0  0  0  0  0  2  0  0  0  0  0  0
  190.1060  176.4690  144.6180 C   0  0  1  0  0  0  0  0  0  0  0  0
  187.2610  177.6810  144.5320 O   0  0  0  0  0  0  0  0  0  0  0  0
  188.8270  175.9580  145.2510 C   0  0  2  0  0  3  0  0  0  0  0  0
  188.3000  177.7230  147.0800 C   0  0  1  0  0  3  0  0  0  0  0  0
  186.1080  176.6560  146.8260 O   0  0  0  0  0  0  0  0  0  0  0  0
  190.5190  176.5350  146.8020 C   0  0  0  0  0  2  0  0  0  0  0  0
  184.2500  178.2720  146.6150 C   0  0  0  0  0  1  0  0  0  0  0  0
  189.0190  178.4210  148.0540 O   0  0  0  0  0  1  0  0  0  0  0  0
  191.0490  176.9160  145.5520 O   0  0  0  0  0  0  0  0  0  0  0  0
  188.5930  175.3530  147.5590 O   0  0  0  0  0  1  0  0  0  0  0  0
  187.5190  176.2980  144.5180 C   0  0  0  0  0  2  0  0  0  0  0  0
  190.6430  175.8770  143.3210 C   0  0  2  0  0  0  0  0  0  0  0  0
  185.8690  177.8880  144.6540 C   0  0  1  0  0  3  0  0  0  0  0  0
  190.0640  177.2930  143.3400 C   0  0  0  0  0  2  0  0  0  0  0  0
  188.2900  172.8400  141.3680 C   0  0  0  0  0  3  0  0  0  0  0  0
  189.8050  174.8170  142.6590 C   0  0  0  0  0  0  0  0  0  0  0  0
  189.2440  175.0640  141.3990 C   0  0  0  0  0  3  0  0  0  0  0  0
  188.8430  172.5880  142.6250 C   0  0  0  0  0  3  0  0  0  0  0  0
  188.4860  174.0790  140.7560 C   0  0  0  0  0  3  0  0  0  0  0  0
  189.5960  173.5730  143.2700 C   0  0  0  0  0  3  0  0  0  0  0  0
  185.1180  177.4740  143.3860 C   0  0  0  0  0  2  0  0  0  0  0  0
  184.8280  178.6700  142.4930 C   0  0  0  0  0  2  0  0  0  0  0  0
  185.1130  178.3380  141.1050 N   0  0  0  0  0  2  0  0  0  0  0  0
  187.4810  177.9590  140.7810 C   0  0  0  0  0  1  0  0  0  0  0  0
  186.1490  177.3230  141.1190 C   0  0  0  0  0  2  0  0  0  0  0  0
  192.1610  175.7910  143.2180 C   0  0  0  0  0  2  0  0  0  0  0  0
  192.5660  174.4750  142.9680 O   0  0  0  0  0  0  0  0  0  0  0  0
  194.0750  174.9240  144.6330 O   0  0  0  0  0  1  0  0  0  0  0  0
  193.1060  174.0250  144.1770 C   0  0  2  0  0  3  0  0  0  0  0  0
  193.2790  171.7110  144.5920 O   0  0  0  0  0  0  0  0  0  0  0  0
  193.7260  172.6770  143.9900 C   0  0  0  0  0  0  0  0  0  0  0  0
  194.8660  172.5200  143.0040 C   0  0  2  0  0  3  0  0  0  0  0  0
  196.1950  172.3780  145.1430 C   0  0  0  0  0  3  0  0  0  0  0  0
  196.7510  171.5430  146.0340 C   0  0  0  0  0  3  0  0  0  0  0  0
  196.5410  170.6520  143.3240 C   0  0  0  0  0  2  0  0  0  0  0  0
  197.7300  170.1930  144.1590 C   0  0  0  0  0  2  0  0  0  0  0  0
  197.3350  170.2130  145.6340 C   0  0  0  0  0  2  0  0  0  0  0  0
  196.1970  172.1110  143.6510 C   0  0  1  0  0  3  0  0  0  0  0  0
  196.3440  174.2060  142.3260 C   0  0  0  0  0  1  0  0  0  0  0  0
  195.0180  173.6530  142.0600 N   0  0  0  0  0  0  0  0  0  0  0  0
  194.9350  173.2290  140.7000 N   0  0  0  0  0  0  0  0  0  0  0  0
  196.1330  172.6610  140.3820 O   0  0  0  0  0  1  0  0  0  0  0  0
  194.3100  171.6440  138.2540 O   0  0  0  0  0  1  0  0  0  0  0  0
  192.5180  172.7930  140.2840 C   0  0  0  0  0  2  0  0  0  0  0  0
  191.4760  171.7820  139.7780 C   0  0  0  0  0  2  0  0  0  0  0  0
  194.2350  171.0890  139.5360 C   0  0  2  0  0  3  0  0  0  0  0  0
  193.2110  169.9490  139.5430 C   0  0  0  0  0  2  0  0  0  0  0  0
  191.8490  170.3410  140.1380 C   0  0  2  0  0  3  0  0  0  0  0  0
  193.9000  172.1750  140.5830 C   0  0  1  0  0  3  0  0  0  0  0  0
  190.7930  169.3600  139.7250 C   0  0  0  0  0  0  0  0  0  0  0  0
  189.9530  169.6870  138.7960 N   0  0  0  0  0  2  0  0  0  0  0  0
  190.5760  168.1660  140.4770 N   0  0  0  0  0  1  0  0  0  0  0  0
  1 10  1  1  0  0  0
  1  8  1  0  0  0  0
  2  9  1  0  0  0  0
  2  7  1  0  0  0  0
  2 13  1  1  0  0  0
  4 17  1  6  0  0  0
  4  6  1  0  0  0  0
  4 12  1  0  0  0  0
  5 16  1  0  0  0  0
  6 14  1  6  0  0  0
  6  2  1  0  0  0  0
  7  3  1  0  0  0  0
  7 11  1  1  0  0  0
  8  3  1  0  0  0  0
 12  9  1  0  0  0  0
 14  5  1  0  0  0  0
 15 29  1  6  0  0  0
 15 17  1  0  0  0  0
 15  4  1  0  0  0  0
 16 24  1  6  0  0  0
 16  1  1  0  0  0  0
 18 21  1  0  0  0  0
 19 23  1  0  0  0  0
 19 15  1  0  0  0  0
 20 19  2  0  0  0  0
 21 23  2  0  0  0  0
 22 18  2  0  0  0  0
 22 20  1  0  0  0  0
 25 24  1  0  0  0  0
 26 28  1  0  0  0  0
 26 25  1  0  0  0  0
 27 28  1  0  0  0  0
 30 29  1  0  0  0  0
 30 32  1  0  0  0  0
 32 31  1  6  0  0  0
 34 32  1  0  0  0  0
 34 33  2  0  0  0  0
 35 34  1  1  0  0  0
 36 37  2  0  0  0  0
 38 41  1  0  0  0  0
 38 39  1  0  0  0  0
 39 40  1  0  0  0  0
 40 37  1  0  0  0  0
 41 35  1  1  0  0  0
 41 36  1  0  0  0  0
 43 42  1  0  0  0  0
 43 35  1  0  0  0  0
 44 43  1  0  0  0  0
 45 44  1  0  0  0  0
 47 52  1  0  0  0  0
 48 51  1  0  0  0  0
 48 47  1  0  0  0  0
 49 46  1  6  0  0  0
 49 50  1  0  0  0  0
 49 52  1  0  0  0  0
 50 51  1  0  0  0  0
 51 53  1  6  0  0  0
 52 44  1  6  0  0  0
 53 55  1  0  0  0  0
 54 53  2  0  0  0  0
M  END
>  <MODEL>
9

>  <REMARK>
 VINA RESULT:      -6.0      1.548      2.203
  Name = 
  15 active torsions:
  status: ('A' for Active; 'I' for Inactive)
    1  A    between atoms: N_3  and  C_25
    2  A    between atoms: N_3  and  C_38
    3  A    between atoms: C_10  and  C_48
    4  A    between atoms: C_19  and  C_37
    5  A    between atoms: C_19  and  C_45
    6  A    between atoms: C_26  and  C_45
    7  A    between atoms: C_27  and  C_51
    8  A    between atoms: C_29  and  C_38
    9  A    between atoms: C_29  and  C_53
   10  A    between atoms: N_33  and  N_49
   11  A    between atoms: N_33  and  C_52
   12  A    between atoms: C_35  and  O_40
   13  A    between atoms: C_35  and  C_51
   14  A    between atoms: C_37  and  O_40
   15  A    between atoms: C_45  and  N_49
                            x       y       z     vdW  Elec       q    Type
                         _______ _______ _______ _____ _____    ______ ____

>  <TORSDO>
F 15

$$$$
