=
 OpenBabel11052418143D

 28 32  0  0  1  0  0  0  0  0999 V2000
  187.0620  178.2750  145.1610 C   0  0  1  0  0  3  0  0  0  0  0  0
  192.1590  175.1100  143.3870 C   0  0  1  0  0  3  0  0  0  0  0  0
  188.8880  174.6020  147.9320 O   0  0  0  0  0  1  0  0  0  0  0  0
  192.6110  176.7960  145.0670 C   0  0  2  0  0  3  0  0  0  0  0  0
  190.1580  176.0090  144.6850 C   0  0  2  0  0  3  0  0  0  0  0  0
  193.6500  175.4090  143.3510 C   0  0  1  0  0  3  0  0  0  0  0  0
  191.5450  176.2910  144.0950 C   0  0  2  0  0  3  0  0  0  0  0  0
  191.1070  176.1740  147.0080 C   0  0  0  0  0  2  0  0  0  0  0  0
  193.9400  176.4200  144.4090 C   0  0  2  0  0  3  0  0  0  0  0  0
  187.9990  176.4360  146.6390 C   0  0  2  0  0  3  0  0  0  0  0  0
  189.3440  177.3010  144.7270 C   0  0  0  0  0  2  0  0  0  0  0  0
  192.5270  176.1730  146.4690 C   0  0  0  0  0  2  0  0  0  0  0  0
  185.8220  177.5000  147.2130 C   0  0  0  0  0  2  0  0  0  0  0  0
  188.8140  175.1360  146.6420 C   0  0  1  0  0  3  0  0  0  0  0  0
  186.5940  176.1890  147.1810 C   0  0  0  0  0  2  0  0  0  0  0  0
  194.2270  175.0490  144.5800 O   0  0  0  0  0  0  0  0  0  0  0  0
  191.6450  175.0270  142.0320 N   0  0  0  0  0  1  0  0  0  0  0  0
  190.2250  175.3490  146.0720 C   0  0  1  0  0  3  0  0  0  0  0  0
  185.6890  178.0520  145.7990 C   0  0  0  0  0  2  0  0  0  0  0  0
  187.9270  177.0040  145.2110 C   0  0  2  0  0  3  0  0  0  0  0  0
  186.9050  178.8290  143.7380 C   0  0  0  0  0  2  0  0  0  0  0  0
  186.6960  177.7740  142.7460 N   0  0  0  0  0  0  0  0  0  0  0  0
  188.6770  178.3020  141.6080 O   0  0  0  0  0  0  0  0  0  0  0  0
  187.6510  177.5760  141.6850 C   0  0  0  0  0  0  0  0  0  0  0  0
  187.4290  176.5430  140.6280 C   0  0  0  0  0  2  0  0  0  0  0  0
  188.1370  175.2560  141.0040 C   0  0  0  0  0  1  0  0  0  0  0  0
  185.3840  177.1390  142.6970 C   0  0  0  0  0  2  0  0  0  0  0  0
  184.3200  178.1490  142.3070 C   0  0  0  0  0  1  0  0  0  0  0  0
  1 21  1  6  0  0  0
  1 20  1  0  0  0  0
  1 19  1  0  0  0  0
  2 17  1  6  0  0  0
  2  7  1  0  0  0  0
  4 12  1  1  0  0  0
  5 11  1  1  0  0  0
  5 18  1  0  0  0  0
  6  2  1  0  0  0  0
  6  9  1  0  0  0  0
  6 16  1  1  0  0  0
  7  5  1  0  0  0  0
  7  4  1  0  0  0  0
  9 16  1  0  0  0  0
  9  4  1  0  0  0  0
 10 14  1  0  0  0  0
 10 15  1  0  0  0  0
 11 20  1  0  0  0  0
 12  8  1  0  0  0  0
 14  3  1  0  0  0  0
 15 13  1  0  0  0  0
 18 14  1  0  0  0  0
 18  8  1  0  0  0  0
 19 13  1  0  0  0  0
 20 10  1  0  0  0  0
 22 21  1  0  0  0  0
 23 24  2  0  0  0  0
 24 22  1  0  0  0  0
 25 26  1  0  0  0  0
 25 24  1  0  0  0  0
 27 22  1  0  0  0  0
 28 27  1  0  0  0  0
M  END
>  <MODEL>
1

>  <REMARK>
 VINA RESULT:      -7.6      0.000      0.000
  Name = 
  4 active torsions:
  status: ('A' for Active; 'I' for Inactive)
    1  A    between atoms: C_1  and  C_2
    2  A    between atoms: C_2  and  N_3
    3  A    between atoms: N_3  and  C_7
    4  A    between atoms: C_6  and  C_11
                            x       y       z     vdW  Elec       q    Type
                         _______ _______ _______ _____ _____    ______ ____

>  <TORSDO>
F 4

$$$$
=
 OpenBabel11052418143D

 28 32  0  0  1  0  0  0  0  0999 V2000
  190.4080  174.5700  143.5250 C   0  0  1  0  0  3  0  0  0  0  0  0
  186.0630  178.9050  144.7380 C   0  0  1  0  0  3  0  0  0  0  0  0
  190.5620  177.2560  147.6800 O   0  0  0  0  0  1  0  0  0  0  0  0
  185.7030  176.8240  145.9250 C   0  0  2  0  0  3  0  0  0  0  0  0
  188.0430  177.3060  144.8890 C   0  0  2  0  0  3  0  0  0  0  0  0
  184.6090  178.8730  145.1790 C   0  0  1  0  0  3  0  0  0  0  0  0
  186.5200  177.4700  144.8070 C   0  0  2  0  0  3  0  0  0  0  0  0
  187.8310  176.4770  147.2540 C   0  0  0  0  0  2  0  0  0  0  0  0
  184.3900  177.6100  145.9430 C   0  0  2  0  0  3  0  0  0  0  0  0
  190.4920  175.8860  145.6940 C   0  0  2  0  0  3  0  0  0  0  0  0
  188.4530  175.9740  144.2640 C   0  0  0  0  0  2  0  0  0  0  0  0
  186.3690  176.8890  147.3080 C   0  0  0  0  0  2  0  0  0  0  0  0
  192.3690  174.3650  145.0930 C   0  0  0  0  0  2  0  0  0  0  0  0
  190.0970  177.2100  146.3620 C   0  0  1  0  0  3  0  0  0  0  0  0
  192.0060  175.7040  145.7180 C   0  0  0  0  0  2  0  0  0  0  0  0
  184.5470  178.8570  146.5830 O   0  0  0  0  0  0  0  0  0  0  0  0
  186.1480  179.3830  143.3700 N   0  0  0  0  0  1  0  0  0  0  0  0
  188.5770  177.4330  146.3250 C   0  0  1  0  0  3  0  0  0  0  0  0
  191.9160  174.3370  143.6390 C   0  0  0  0  0  2  0  0  0  0  0  0
  189.9740  175.8580  144.2460 C   0  0  2  0  0  3  0  0  0  0  0  0
  189.9740  174.5400  142.0520 C   0  0  0  0  0  2  0  0  0  0  0  0
  189.8920  173.1790  141.5210 N   0  0  0  0  0  0  0  0  0  0  0  0
  191.2570  173.6980  139.6860 O   0  0  0  0  0  0  0  0  0  0  0  0
  190.5760  172.8340  140.3000 C   0  0  0  0  0  0  0  0  0  0  0  0
  190.4590  171.4670  139.7080 C   0  0  0  0  0  2  0  0  0  0  0  0
  189.5070  171.4920  138.5290 C   0  0  0  0  0  1  0  0  0  0  0  0
  188.8900  172.2860  142.0920 C   0  0  0  0  0  2  0  0  0  0  0  0
  187.4970  172.8550  141.8930 C   0  0  0  0  0  1  0  0  0  0  0  0
  1 21  1  6  0  0  0
  1 19  1  0  0  0  0
  1 20  1  0  0  0  0
  2 17  1  6  0  0  0
  2  7  1  0  0  0  0
  2  6  1  0  0  0  0
  4  9  1  0  0  0  0
  4 12  1  1  0  0  0
  5 11  1  1  0  0  0
  5 18  1  0  0  0  0
  6  9  1  0  0  0  0
  6 16  1  1  0  0  0
  7  5  1  0  0  0  0
  7  4  1  0  0  0  0
  8 12  1  0  0  0  0
  9 16  1  0  0  0  0
 10 15  1  0  0  0  0
 10 14  1  0  0  0  0
 13 15  1  0  0  0  0
 14  3  1  0  0  0  0
 18 14  1  0  0  0  0
 18  8  1  0  0  0  0
 19 13  1  0  0  0  0
 20 11  1  0  0  0  0
 20 10  1  0  0  0  0
 22 21  1  0  0  0  0
 22 27  1  0  0  0  0
 23 24  2  0  0  0  0
 24 22  1  0  0  0  0
 25 24  1  0  0  0  0
 26 25  1  0  0  0  0
 28 27  1  0  0  0  0
M  END
>  <MODEL>
2

>  <REMARK>
 VINA RESULT:      -7.4      2.630      6.019
  Name = 
  4 active torsions:
  status: ('A' for Active; 'I' for Inactive)
    1  A    between atoms: C_1  and  C_2
    2  A    between atoms: C_2  and  N_3
    3  A    between atoms: N_3  and  C_7
    4  A    between atoms: C_6  and  C_11
                            x       y       z     vdW  Elec       q    Type
                         _______ _______ _______ _____ _____    ______ ____

>  <TORSDO>
F 4

$$$$
=
 OpenBabel11052418143D

 28 32  0  0  1  0  0  0  0  0999 V2000
  191.8600  176.2090  143.0980 C   0  0  1  0  0  3  0  0  0  0  0  0
  185.8110  177.0010  144.4890 C   0  0  1  0  0  3  0  0  0  0  0  0
  188.3170  173.9130  140.5130 O   0  0  0  0  0  1  0  0  0  0  0  0
  186.5420  178.3190  142.5930 C   0  0  2  0  0  3  0  0  0  0  0  0
  188.0060  176.3170  143.3870 C   0  0  2  0  0  3  0  0  0  0  0  0
  184.8020  178.1200  144.2900 C   0  0  1  0  0  3  0  0  0  0  0  0
  187.0440  177.4550  143.7490 C   0  0  2  0  0  3  0  0  0  0  0  0
  187.4540  176.6170  140.9530 C   0  0  0  0  0  2  0  0  0  0  0  0
  185.2270  178.9130  143.1000 C   0  0  2  0  0  3  0  0  0  0  0  0
  190.0730  175.0580  141.7120 C   0  0  2  0  0  3  0  0  0  0  0  0
  189.4360  176.8540  143.3190 C   0  0  0  0  0  2  0  0  0  0  0  0
  186.2960  177.5420  141.2900 C   0  0  0  0  0  2  0  0  0  0  0  0
  192.4740  174.5240  141.3300 C   0  0  0  0  0  2  0  0  0  0  0  0
  188.6400  174.5090  141.7370 C   0  0  1  0  0  3  0  0  0  0  0  0
  191.0680  173.9460  141.3960 C   0  0  0  0  0  2  0  0  0  0  0  0
  184.1800  177.9700  143.0390 O   0  0  0  0  0  0  0  0  0  0  0  0
  186.1110  176.8590  145.9030 N   0  0  0  0  0  1  0  0  0  0  0  0
  187.6180  175.6030  142.0830 C   0  0  1  0  0  3  0  0  0  0  0  0
  192.8490  175.1190  142.6810 C   0  0  0  0  0  2  0  0  0  0  0  0
  190.4070  175.7050  143.0670 C   0  0  2  0  0  3  0  0  0  0  0  0
  192.2550  176.7940  144.4620 C   0  0  0  0  0  2  0  0  0  0  0  0
  191.9080  175.9070  145.5730 N   0  0  0  0  0  0  0  0  0  0  0  0
  190.2360  177.3570  146.3490 O   0  0  0  0  0  0  0  0  0  0  0  0
  190.8640  176.2750  146.4970 C   0  0  0  0  0  0  0  0  0  0  0  0
  190.5310  175.4130  147.6710 C   0  0  0  0  0  2  0  0  0  0  0  0
  189.2300  174.6760  147.4210 C   0  0  0  0  0  1  0  0  0  0  0  0
  192.8200  174.8100  145.8770 C   0  0  0  0  0  2  0  0  0  0  0  0
  194.2020  175.3450  146.2030 C   0  0  0  0  0  1  0  0  0  0  0  0
  1 21  1  1  0  0  0
  2 17  1  1  0  0  0
  3 14  1  0  0  0  0
  4 12  1  6  0  0  0
  4  9  1  0  0  0  0
  4  7  1  0  0  0  0
  5 11  1  6  0  0  0
  5  7  1  0  0  0  0
  6 16  1  6  0  0  0
  6  2  1  0  0  0  0
  7  2  1  0  0  0  0
  8 12  1  0  0  0  0
  8 18  1  0  0  0  0
  9  6  1  0  0  0  0
 10 14  1  0  0  0  0
 10 20  1  0  0  0  0
 13 15  1  0  0  0  0
 13 19  1  0  0  0  0
 14 18  1  0  0  0  0
 15 10  1  0  0  0  0
 16  9  1  0  0  0  0
 18  5  1  0  0  0  0
 19  1  1  0  0  0  0
 20  1  1  0  0  0  0
 20 11  1  0  0  0  0
 21 22  1  0  0  0  0
 22 27  1  0  0  0  0
 22 24  1  0  0  0  0
 23 24  2  0  0  0  0
 24 25  1  0  0  0  0
 26 25  1  0  0  0  0
 27 28  1  0  0  0  0
M  END
>  <MODEL>
3

>  <REMARK>
 VINA RESULT:      -7.3      2.215      7.047
  Name = 
  4 active torsions:
  status: ('A' for Active; 'I' for Inactive)
    1  A    between atoms: C_1  and  C_2
    2  A    between atoms: C_2  and  N_3
    3  A    between atoms: N_3  and  C_7
    4  A    between atoms: C_6  and  C_11
                            x       y       z     vdW  Elec       q    Type
                         _______ _______ _______ _____ _____    ______ ____

>  <TORSDO>
F 4

$$$$
=
 OpenBabel11052418143D

 28 32  0  0  1  0  0  0  0  0999 V2000
  188.4230  177.6980  144.6980 C   0  0  1  0  0  3  0  0  0  0  0  0
  193.8220  174.7440  143.5730 C   0  0  1  0  0  3  0  0  0  0  0  0
  190.5900  174.9160  148.1710 O   0  0  0  0  0  1  0  0  0  0  0  0
  194.0920  176.7910  144.8400 C   0  0  2  0  0  3  0  0  0  0  0  0
  191.7330  175.7010  144.6770 C   0  0  2  0  0  3  0  0  0  0  0  0
  195.2760  175.1740  143.4500 C   0  0  1  0  0  3  0  0  0  0  0  0
  193.0890  175.9840  144.0170 C   0  0  2  0  0  3  0  0  0  0  0  0
  192.6470  176.4610  146.8930 C   0  0  0  0  0  2  0  0  0  0  0  0
  195.4570  176.4150  144.2580 C   0  0  2  0  0  3  0  0  0  0  0  0
  189.5300  176.3270  146.5250 C   0  0  2  0  0  3  0  0  0  0  0  0
  190.7940  176.8850  144.4500 C   0  0  0  0  0  2  0  0  0  0  0  0
  194.0630  176.4830  146.3450 C   0  0  0  0  0  2  0  0  0  0  0  0
  187.2550  177.2700  146.8880 C   0  0  0  0  0  2  0  0  0  0  0  0
  190.4710  175.1470  146.7970 C   0  0  1  0  0  3  0  0  0  0  0  0
  188.1540  176.0670  147.1300 C   0  0  0  0  0  2  0  0  0  0  0  0
  195.8790  175.1490  144.7180 O   0  0  0  0  0  0  0  0  0  0  0  0
  193.3270  174.3180  142.2770 N   0  0  0  0  0  1  0  0  0  0  0  0
  191.8570  175.3690  146.1730 C   0  0  1  0  0  3  0  0  0  0  0  0
  187.0760  177.4850  145.3900 C   0  0  0  0  0  2  0  0  0  0  0  0
  189.4110  176.5610  145.0090 C   0  0  2  0  0  3  0  0  0  0  0  0
  188.2200  177.9110  143.1910 C   0  0  0  0  0  2  0  0  0  0  0  0
  186.9040  177.4650  142.7350 N   0  0  0  0  0  0  0  0  0  0  0  0
  185.9410  179.5700  143.1070 O   0  0  0  0  0  0  0  0  0  0  0  0
  185.7890  178.3790  142.7290 C   0  0  0  0  0  0  0  0  0  0  0  0
  184.4230  177.9300  142.3220 C   0  0  0  0  0  2  0  0  0  0  0  0
  184.1700  178.2900  140.8710 C   0  0  0  0  0  1  0  0  0  0  0  0
  186.6940  176.0310  142.5660 C   0  0  0  0  0  2  0  0  0  0  0  0
  187.8400  175.4160  141.7840 C   0  0  0  0  0  1  0  0  0  0  0  0
  1 21  1  6  0  0  0
  1 20  1  0  0  0  0
  1 19  1  0  0  0  0
  2 17  1  6  0  0  0
  2  7  1  0  0  0  0
  4 12  1  1  0  0  0
  5 11  1  1  0  0  0
  5 18  1  0  0  0  0
  6  2  1  0  0  0  0
  6  9  1  0  0  0  0
  6 16  1  1  0  0  0
  7  5  1  0  0  0  0
  7  4  1  0  0  0  0
  9 16  1  0  0  0  0
  9  4  1  0  0  0  0
 10 14  1  0  0  0  0
 10 15  1  0  0  0  0
 11 20  1  0  0  0  0
 12  8  1  0  0  0  0
 13 15  1  0  0  0  0
 14  3  1  0  0  0  0
 18 14  1  0  0  0  0
 18  8  1  0  0  0  0
 19 13  1  0  0  0  0
 20 10  1  0  0  0  0
 22 21  1  0  0  0  0
 24 22  1  0  0  0  0
 24 23  2  0  0  0  0
 25 24  1  0  0  0  0
 26 25  1  0  0  0  0
 27 22  1  0  0  0  0
 28 27  1  0  0  0  0
M  END
>  <MODEL>
4

>  <REMARK>
 VINA RESULT:      -7.3      1.345      2.179
  Name = 
  4 active torsions:
  status: ('A' for Active; 'I' for Inactive)
    1  A    between atoms: C_1  and  C_2
    2  A    between atoms: C_2  and  N_3
    3  A    between atoms: N_3  and  C_7
    4  A    between atoms: C_6  and  C_11
                            x       y       z     vdW  Elec       q    Type
                         _______ _______ _______ _____ _____    ______ ____

>  <TORSDO>
F 4

$$$$
=
 OpenBabel11052418143D

 28 32  0  0  1  0  0  0  0  0999 V2000
  191.2890  176.6280  143.8630 C   0  0  1  0  0  3  0  0  0  0  0  0
  185.3990  177.7270  145.6640 C   0  0  1  0  0  3  0  0  0  0  0  0
  187.4610  174.5740  141.4900 O   0  0  0  0  0  1  0  0  0  0  0  0
  186.0760  179.0350  143.7410 C   0  0  2  0  0  3  0  0  0  0  0  0
  187.4750  176.9430  144.4100 C   0  0  2  0  0  3  0  0  0  0  0  0
  184.4430  178.9040  145.5470 C   0  0  1  0  0  3  0  0  0  0  0  0
  186.6040  178.1260  144.8500 C   0  0  2  0  0  3  0  0  0  0  0  0
  186.7810  177.3140  142.0220 C   0  0  0  0  0  2  0  0  0  0  0  0
  184.8320  179.6930  144.3420 C   0  0  2  0  0  3  0  0  0  0  0  0
  189.3530  175.6000  142.5840 C   0  0  2  0  0  3  0  0  0  0  0  0
  188.9250  177.4010  144.2530 C   0  0  0  0  0  2  0  0  0  0  0  0
  185.7020  178.2950  142.4470 C   0  0  0  0  0  2  0  0  0  0  0  0
  191.6900  174.9410  142.0360 C   0  0  0  0  0  2  0  0  0  0  0  0
  187.8970  175.1300  142.6970 C   0  0  1  0  0  3  0  0  0  0  0  0
  190.2610  174.4410  142.1880 C   0  0  0  0  0  2  0  0  0  0  0  0
  183.7330  178.8090  144.3390 O   0  0  0  0  0  0  0  0  0  0  0  0
  185.7830  177.5460  147.0530 N   0  0  0  0  0  1  0  0  0  0  0  0
  186.9630  176.2730  143.1250 C   0  0  1  0  0  3  0  0  0  0  0  0
  192.1860  175.4920  143.3670 C   0  0  0  0  0  2  0  0  0  0  0  0
  189.8120  176.2050  143.9220 C   0  0  2  0  0  3  0  0  0  0  0  0
  191.8060  177.1670  145.2060 C   0  0  0  0  0  2  0  0  0  0  0  0
  192.6670  176.2090  145.8990 N   0  0  0  0  0  0  0  0  0  0  0  0
  194.6230  177.2160  145.0890 O   0  0  0  0  0  0  0  0  0  0  0  0
  194.1000  176.3040  145.7820 C   0  0  0  0  0  0  0  0  0  0  0  0
  194.9970  175.3030  146.4350 C   0  0  0  0  0  2  0  0  0  0  0  0
  195.6240  174.4060  145.3860 C   0  0  0  0  0  1  0  0  0  0  0  0
  192.0410  175.0170  146.4610 C   0  0  0  0  0  2  0  0  0  0  0  0
  191.1470  175.3890  147.6300 C   0  0  0  0  0  1  0  0  0  0  0  0
  1 20  1  0  0  0  0
  1 21  1  1  0  0  0
  2 17  1  1  0  0  0
  3 14  1  0  0  0  0
  4 12  1  6  0  0  0
  4  9  1  0  0  0  0
  4  7  1  0  0  0  0
  5 11  1  6  0  0  0
  5  7  1  0  0  0  0
  6 16  1  6  0  0  0
  6  2  1  0  0  0  0
  7  2  1  0  0  0  0
  8 12  1  0  0  0  0
  8 18  1  0  0  0  0
  9  6  1  0  0  0  0
 10 14  1  0  0  0  0
 10 20  1  0  0  0  0
 13 15  1  0  0  0  0
 13 19  1  0  0  0  0
 14 18  1  0  0  0  0
 15 10  1  0  0  0  0
 16  9  1  0  0  0  0
 18  5  1  0  0  0  0
 19  1  1  0  0  0  0
 20 11  1  0  0  0  0
 21 22  1  0  0  0  0
 22 27  1  0  0  0  0
 23 24  2  0  0  0  0
 24 22  1  0  0  0  0
 24 25  1  0  0  0  0
 26 25  1  0  0  0  0
 27 28  1  0  0  0  0
M  END
>  <MODEL>
5

>  <REMARK>
 VINA RESULT:      -7.1      2.285      7.153
  Name = 
  4 active torsions:
  status: ('A' for Active; 'I' for Inactive)
    1  A    between atoms: C_1  and  C_2
    2  A    between atoms: C_2  and  N_3
    3  A    between atoms: N_3  and  C_7
    4  A    between atoms: C_6  and  C_11
                            x       y       z     vdW  Elec       q    Type
                         _______ _______ _______ _____ _____    ______ ____

>  <TORSDO>
F 4

$$$$
=
 OpenBabel11052418143D

 28 32  0  0  1  0  0  0  0  0999 V2000
  190.9250  174.1760  144.1840 C   0  0  1  0  0  3  0  0  0  0  0  0
  186.5370  178.6340  144.0670 C   0  0  1  0  0  3  0  0  0  0  0  0
  190.5510  177.4960  147.8370 O   0  0  0  0  0  1  0  0  0  0  0  0
  185.9750  176.7700  145.5080 C   0  0  2  0  0  3  0  0  0  0  0  0
  188.4450  177.0880  144.7480 C   0  0  2  0  0  3  0  0  0  0  0  0
  185.0340  178.6680  144.2990 C   0  0  1  0  0  3  0  0  0  0  0  0
  186.9530  177.2300  144.4270 C   0  0  2  0  0  3  0  0  0  0  0  0
  187.8910  176.6490  147.1610 C   0  0  0  0  0  2  0  0  0  0  0  0
  184.6880  177.5430  145.2170 C   0  0  2  0  0  3  0  0  0  0  0  0
  190.7310  175.8240  146.1050 C   0  0  2  0  0  3  0  0  0  0  0  0
  188.9130  175.6740  144.4070 C   0  0  0  0  0  2  0  0  0  0  0  0
  186.4440  177.0580  146.9430 C   0  0  0  0  0  2  0  0  0  0  0  0
  192.6440  174.2330  146.0240 C   0  0  0  0  0  2  0  0  0  0  0  0
  190.2720  177.2360  146.4910 C   0  0  1  0  0  3  0  0  0  0  0  0
  192.2240  175.6540  146.3690 C   0  0  0  0  0  2  0  0  0  0  0  0
  184.7780  178.8780  145.6640 O   0  0  0  0  0  0  0  0  0  0  0  0
  186.8200  178.8860  142.6650 N   0  0  0  0  0  1  0  0  0  0  0  0
  188.7770  177.4460  146.2060 C   0  0  1  0  0  3  0  0  0  0  0  0
  192.3980  173.9700  144.5430 C   0  0  0  0  0  2  0  0  0  0  0  0
  190.4190  175.5610  144.6210 C   0  0  2  0  0  3  0  0  0  0  0  0
  190.6990  173.9080  142.6890 C   0  0  0  0  0  2  0  0  0  0  0  0
  190.2720  172.5330  142.4250 N   0  0  0  0  0  0  0  0  0  0  0  0
  192.2180  172.0470  141.2120 O   0  0  0  0  0  0  0  0  0  0  0  0
  191.1090  171.6480  141.6550 C   0  0  0  0  0  0  0  0  0  0  0  0
  190.6670  170.2590  141.3250 C   0  0  0  0  0  2  0  0  0  0  0  0
  191.5440  169.2520  142.0420 C   0  0  0  0  0  1  0  0  0  0  0  0
  188.8840  172.1880  142.7100 C   0  0  0  0  0  2  0  0  0  0  0  0
  187.9440  173.0250  141.8620 C   0  0  0  0  0  1  0  0  0  0  0  0
  1 21  1  6  0  0  0
  1 19  1  0  0  0  0
  1 20  1  0  0  0  0
  2 17  1  6  0  0  0
  2  6  1  0  0  0  0
  2  7  1  0  0  0  0
  4 12  1  1  0  0  0
  5 11  1  1  0  0  0
  5 18  1  0  0  0  0
  6  9  1  0  0  0  0
  6 16  1  1  0  0  0
  7  5  1  0  0  0  0
  7  4  1  0  0  0  0
  9  4  1  0  0  0  0
  9 16  1  0  0  0  0
 10 15  1  0  0  0  0
 10 14  1  0  0  0  0
 11 20  1  0  0  0  0
 12  8  1  0  0  0  0
 13 15  1  0  0  0  0
 14  3  1  0  0  0  0
 18 14  1  0  0  0  0
 18  8  1  0  0  0  0
 19 13  1  0  0  0  0
 20 10  1  0  0  0  0
 22 21  1  0  0  0  0
 22 27  1  0  0  0  0
 23 24  2  0  0  0  0
 24 22  1  0  0  0  0
 25 24  1  0  0  0  0
 25 26  1  0  0  0  0
 28 27  1  0  0  0  0
M  END
>  <MODEL>
6

>  <REMARK>
 VINA RESULT:      -6.9      2.730      6.171
  Name = 
  4 active torsions:
  status: ('A' for Active; 'I' for Inactive)
    1  A    between atoms: C_1  and  C_2
    2  A    between atoms: C_2  and  N_3
    3  A    between atoms: N_3  and  C_7
    4  A    between atoms: C_6  and  C_11
                            x       y       z     vdW  Elec       q    Type
                         _______ _______ _______ _____ _____    ______ ____

>  <TORSDO>
F 4

$$$$
=
 OpenBabel11052418143D

 28 32  0  0  1  0  0  0  0  0999 V2000
  189.0010  177.3920  144.3660 C   0  0  1  0  0  3  0  0  0  0  0  0
  194.3360  174.1520  143.9380 C   0  0  1  0  0  3  0  0  0  0  0  0
  191.0610  175.3130  148.3580 O   0  0  0  0  0  1  0  0  0  0  0  0
  194.6440  176.4040  144.7740 C   0  0  2  0  0  3  0  0  0  0  0  0
  192.2600  175.3570  144.7950 C   0  0  2  0  0  3  0  0  0  0  0  0
  195.8010  174.5150  143.7530 C   0  0  1  0  0  3  0  0  0  0  0  0
  193.6290  175.4720  144.1140 C   0  0  2  0  0  3  0  0  0  0  0  0
  193.1690  176.5240  146.8290 C   0  0  0  0  0  2  0  0  0  0  0  0
  196.0050  175.8880  144.3000 C   0  0  2  0  0  3  0  0  0  0  0  0
  190.0540  176.3900  146.4470 C   0  0  2  0  0  3  0  0  0  0  0  0
  191.3530  176.4920  144.3220 C   0  0  0  0  0  2  0  0  0  0  0  0
  194.5920  176.4040  146.3100 C   0  0  0  0  0  2  0  0  0  0  0  0
  187.7990  177.4370  146.5800 C   0  0  0  0  0  2  0  0  0  0  0  0
  190.9620  175.2670  146.9640 C   0  0  1  0  0  3  0  0  0  0  0  0
  188.6660  176.2860  147.0710 C   0  0  0  0  0  2  0  0  0  0  0  0
  196.3900  174.7320  145.0100 O   0  0  0  0  0  0  0  0  0  0  0  0
  193.8440  173.4860  142.7450 N   0  0  0  0  0  1  0  0  0  0  0  0
  192.3600  175.3280  146.3290 C   0  0  1  0  0  3  0  0  0  0  0  0
  187.6420  177.3520  145.0670 C   0  0  0  0  0  2  0  0  0  0  0  0
  189.9570  176.3180  144.9130 C   0  0  2  0  0  3  0  0  0  0  0  0
  188.8200  177.3040  142.8440 C   0  0  0  0  0  2  0  0  0  0  0  0
  188.1360  176.0780  142.4320 N   0  0  0  0  0  0  0  0  0  0  0  0
  190.1200  175.1100  141.6410 O   0  0  0  0  0  0  0  0  0  0  0  0
  188.8770  175.0040  141.8180 C   0  0  0  0  0  0  0  0  0  0  0  0
  188.1910  173.7670  141.3380 C   0  0  0  0  0  2  0  0  0  0  0  0
  188.3650  172.6520  142.3500 C   0  0  0  0  0  1  0  0  0  0  0  0
  186.6780  176.0920  142.3980 C   0  0  0  0  0  2  0  0  0  0  0  0
  186.1770  177.3160  141.6520 C   0  0  0  0  0  1  0  0  0  0  0  0
  1 21  1  6  0  0  0
  1 20  1  0  0  0  0
  1 19  1  0  0  0  0
  2 17  1  6  0  0  0
  2  7  1  0  0  0  0
  4 12  1  1  0  0  0
  5 11  1  1  0  0  0
  5 18  1  0  0  0  0
  6  2  1  0  0  0  0
  6  9  1  0  0  0  0
  6 16  1  1  0  0  0
  7  4  1  0  0  0  0
  7  5  1  0  0  0  0
  9  4  1  0  0  0  0
  9 16  1  0  0  0  0
 10 14  1  0  0  0  0
 10 15  1  0  0  0  0
 11 20  1  0  0  0  0
 12  8  1  0  0  0  0
 13 15  1  0  0  0  0
 14  3  1  0  0  0  0
 18  8  1  0  0  0  0
 18 14  1  0  0  0  0
 19 13  1  0  0  0  0
 20 10  1  0  0  0  0
 22 21  1  0  0  0  0
 23 24  2  0  0  0  0
 24 22  1  0  0  0  0
 25 24  1  0  0  0  0
 25 26  1  0  0  0  0
 27 22  1  0  0  0  0
 28 27  1  0  0  0  0
M  END
>  <MODEL>
7

>  <REMARK>
 VINA RESULT:      -6.8      1.698      2.361
  Name = 
  4 active torsions:
  status: ('A' for Active; 'I' for Inactive)
    1  A    between atoms: C_1  and  C_2
    2  A    between atoms: C_2  and  N_3
    3  A    between atoms: N_3  and  C_7
    4  A    between atoms: C_6  and  C_11
                            x       y       z     vdW  Elec       q    Type
                         _______ _______ _______ _____ _____    ______ ____

>  <TORSDO>
F 4

$$$$
=
 OpenBabel11052418143D

 28 32  0  0  1  0  0  0  0  0999 V2000
  191.5240  174.5230  144.8840 C   0  0  1  0  0  3  0  0  0  0  0  0
  187.2670  178.3970  142.4310 C   0  0  1  0  0  3  0  0  0  0  0  0
  189.3370  178.0020  147.6450 O   0  0  0  0  0  1  0  0  0  0  0  0
  186.2930  176.5750  143.6970 C   0  0  2  0  0  3  0  0  0  0  0  0
  188.8140  177.1420  144.0220 C   0  0  2  0  0  3  0  0  0  0  0  0
  185.8140  178.2620  142.0020 C   0  0  1  0  0  3  0  0  0  0  0  0
  187.6000  177.0800  143.0870 C   0  0  2  0  0  3  0  0  0  0  0  0
  187.3090  176.7950  146.0070 C   0  0  0  0  0  2  0  0  0  0  0  0
  185.1990  177.1660  142.8050 C   0  0  2  0  0  3  0  0  0  0  0  0
  190.3850  176.2560  146.3480 C   0  0  2  0  0  3  0  0  0  0  0  0
  189.4970  175.7760  144.0690 C   0  0  0  0  0  2  0  0  0  0  0  0
  186.0700  177.0110  145.1540 C   0  0  0  0  0  2  0  0  0  0  0  0
  192.2680  174.9080  147.2600 C   0  0  0  0  0  2  0  0  0  0  0  0
  189.6900  177.6240  146.3450 C   0  0  1  0  0  3  0  0  0  0  0  0
  191.6250  176.2860  147.2360 C   0  0  0  0  0  2  0  0  0  0  0  0
  184.9770  178.5280  143.0990 O   0  0  0  0  0  0  0  0  0  0  0  0
  188.1060  178.5900  141.2630 N   0  0  0  0  0  1  0  0  0  0  0  0
  188.4530  177.6310  145.4340 C   0  0  1  0  0  3  0  0  0  0  0  0
  192.7080  174.5210  145.8530 C   0  0  0  0  0  2  0  0  0  0  0  0
  190.7670  175.8620  144.9110 C   0  0  2  0  0  3  0  0  0  0  0  0
  191.9890  174.1330  143.4740 C   0  0  0  0  0  2  0  0  0  0  0  0
  191.2070  173.0320  142.9110 N   0  0  0  0  0  0  0  0  0  0  0  0
  190.6170  174.2770  141.0140 O   0  0  0  0  0  0  0  0  0  0  0  0
  190.5320  173.1920  141.6470 C   0  0  0  0  0  0  0  0  0  0  0  0
  189.6810  172.1020  141.0810 C   0  0  0  0  0  2  0  0  0  0  0  0
  188.9090  172.6160  139.8830 C   0  0  0  0  0  1  0  0  0  0  0  0
  190.9020  171.9010  143.7810 C   0  0  0  0  0  2  0  0  0  0  0  0
  192.1050  170.9830  143.8970 C   0  0  0  0  0  1  0  0  0  0  0  0
  1 21  1  6  0  0  0
  1 20  1  0  0  0  0
  1 19  1  0  0  0  0
  2 17  1  6  0  0  0
  2  7  1  0  0  0  0
  4 12  1  1  0  0  0
  5 11  1  1  0  0  0
  5 18  1  0  0  0  0
  6  2  1  0  0  0  0
  6  9  1  0  0  0  0
  6 16  1  1  0  0  0
  7  4  1  0  0  0  0
  7  5  1  0  0  0  0
  9 16  1  0  0  0  0
  9  4  1  0  0  0  0
 10 15  1  0  0  0  0
 11 20  1  0  0  0  0
 12  8  1  0  0  0  0
 14 10  1  0  0  0  0
 14  3  1  0  0  0  0
 15 13  1  0  0  0  0
 18  8  1  0  0  0  0
 18 14  1  0  0  0  0
 19 13  1  0  0  0  0
 20 10  1  0  0  0  0
 22 21  1  0  0  0  0
 22 27  1  0  0  0  0
 23 24  2  0  0  0  0
 24 22  1  0  0  0  0
 25 24  1  0  0  0  0
 26 25  1  0  0  0  0
 27 28  1  0  0  0  0
M  END
>  <MODEL>
8

>  <REMARK>
 VINA RESULT:      -6.7      2.271      5.964
  Name = 
  4 active torsions:
  status: ('A' for Active; 'I' for Inactive)
    1  A    between atoms: C_1  and  C_2
    2  A    between atoms: C_2  and  N_3
    3  A    between atoms: N_3  and  C_7
    4  A    between atoms: C_6  and  C_11
                            x       y       z     vdW  Elec       q    Type
                         _______ _______ _______ _____ _____    ______ ____

>  <TORSDO>
F 4

$$$$
=
 OpenBabel11052418143D

 28 32  0  0  1  0  0  0  0  0999 V2000
  187.0160  176.9130  144.4030 C   0  0  1  0  0  3  0  0  0  0  0  0
  192.2920  173.7400  143.2880 C   0  0  1  0  0  3  0  0  0  0  0  0
  190.6450  176.7200  147.7640 O   0  0  0  0  0  1  0  0  0  0  0  0
  192.5210  176.1300  142.9660 C   0  0  2  0  0  3  0  0  0  0  0  0
  190.4910  175.2200  144.3190 C   0  0  2  0  0  3  0  0  0  0  0  0
  193.5220  173.9720  142.4260 C   0  0  1  0  0  3  0  0  0  0  0  0
  191.4960  175.0160  143.1800 C   0  0  2  0  0  3  0  0  0  0  0  0
  191.8640  177.1350  145.1960 C   0  0  0  0  0  2  0  0  0  0  0  0
  193.6900  175.4450  142.2550 C   0  0  2  0  0  3  0  0  0  0  0  0
  188.8760  176.8860  146.1300 C   0  0  2  0  0  3  0  0  0  0  0  0
  189.3110  176.0540  143.8210 C   0  0  0  0  0  2  0  0  0  0  0  0
  193.0130  176.7880  144.2640 C   0  0  0  0  0  2  0  0  0  0  0  0
  186.6790  177.9150  146.6890 C   0  0  0  0  0  2  0  0  0  0  0  0
  190.0710  176.0820  146.6600 C   0  0  1  0  0  3  0  0  0  0  0  0
  187.8300  177.0750  147.2240 C   0  0  0  0  0  2  0  0  0  0  0  0
  194.4750  174.6990  143.1590 O   0  0  0  0  0  0  0  0  0  0  0  0
  191.5210  172.6330  142.7510 N   0  0  0  0  0  1  0  0  0  0  0  0
  191.1270  175.8500  145.5690 C   0  0  1  0  0  3  0  0  0  0  0  0
  186.0140  177.1920  145.5250 C   0  0  0  0  0  2  0  0  0  0  0  0
  188.2570  176.1660  144.9200 C   0  0  2  0  0  3  0  0  0  0  0  0
  186.3260  176.1830  143.2410 C   0  0  0  0  0  2  0  0  0  0  0  0
  186.2480  177.0030  142.0320 N   0  0  0  0  0  0  0  0  0  0  0  0
  187.8150  175.6770  140.9010 O   0  0  0  0  0  0  0  0  0  0  0  0
  187.0490  176.6760  140.8800 C   0  0  0  0  0  0  0  0  0  0  0  0
  187.0280  177.5320  139.6560 C   0  0  0  0  0  2  0  0  0  0  0  0
  186.3560  176.7910  138.5160 C   0  0  0  0  0  1  0  0  0  0  0  0
  185.5710  178.2920  142.1290 C   0  0  0  0  0  2  0  0  0  0  0  0
  184.0870  178.0950  142.3790 C   0  0  0  0  0  1  0  0  0  0  0  0
  1 21  1  6  0  0  0
  1 20  1  0  0  0  0
  1 19  1  0  0  0  0
  2 17  1  6  0  0  0
  4  7  1  0  0  0  0
  4 12  1  1  0  0  0
  5 11  1  6  0  0  0
  5 18  1  0  0  0  0
  6 16  1  1  0  0  0
  6  2  1  0  0  0  0
  7  2  1  0  0  0  0
  7  5  1  0  0  0  0
  8 18  1  0  0  0  0
  9  6  1  0  0  0  0
  9  4  1  0  0  0  0
  9 16  1  0  0  0  0
 10 14  1  0  0  0  0
 10 15  1  0  0  0  0
 11 20  1  0  0  0  0
 12  8  1  0  0  0  0
 13 15  1  0  0  0  0
 14  3  1  0  0  0  0
 18 14  1  0  0  0  0
 19 13  1  0  0  0  0
 20 10  1  0  0  0  0
 22 27  1  0  0  0  0
 22 21  1  0  0  0  0
 24 23  2  0  0  0  0
 24 22  1  0  0  0  0
 25 24  1  0  0  0  0
 26 25  1  0  0  0  0
 27 28  1  0  0  0  0
M  END
>  <MODEL>
9

>  <REMARK>
 VINA RESULT:      -6.6      1.479      1.838
  Name = 
  4 active torsions:
  status: ('A' for Active; 'I' for Inactive)
    1  A    between atoms: C_1  and  C_2
    2  A    between atoms: C_2  and  N_3
    3  A    between atoms: N_3  and  C_7
    4  A    between atoms: C_6  and  C_11
                            x       y       z     vdW  Elec       q    Type
                         _______ _______ _______ _____ _____    ______ ____

>  <TORSDO>
F 4

$$$$
