=
 OpenBabel11052418153D

 28 31  0  0  1  0  0  0  0  0999 V2000
  191.3930  174.9540  143.4560 C   0  0  1  0  0  3  0  0  0  0  0  0
  186.3910  178.4450  144.9010 C   0  0  1  0  0  3  0  0  0  0  0  0
  191.0620  177.1400  148.3120 S   0  0  0  0  0  1  0  0  0  0  0  0
  186.4140  176.2860  145.8490 C   0  0  2  0  0  3  0  0  0  0  0  0
  188.6240  177.2350  144.9180 C   0  0  2  0  0  3  0  0  0  0  0  0
  185.0240  178.0220  145.4100 C   0  0  1  0  0  3  0  0  0  0  0  0
  187.1000  177.1380  144.7820 C   0  0  2  0  0  3  0  0  0  0  0  0
  188.2930  176.1680  147.1410 C   0  0  0  0  0  2  0  0  0  0  0  0
  185.0620  176.6760  145.8460 O   0  0  0  0  0  0  0  0  0  0  0  0
  191.1760  175.9830  145.7680 C   0  0  2  0  0  3  0  0  0  0  0  0
  189.2460  176.0460  144.1850 C   0  0  0  0  0  2  0  0  0  0  0  0
  186.9320  176.5080  147.1460 O   0  0  0  0  0  0  0  0  0  0  0  0
  193.2630  174.7740  145.1280 C   0  0  0  0  0  2  0  0  0  0  0  0
  190.5840  177.1660  146.5490 C   0  0  1  0  0  3  0  0  0  0  0  0
  192.7000  175.9700  145.8810 C   0  0  0  0  0  2  0  0  0  0  0  0
  184.5920  178.9250  146.5500 C   0  0  0  0  0  1  0  0  0  0  0  0
  186.2580  179.0890  143.5350 C   0  0  0  0  0  1  0  0  0  0  0  0
  189.0560  177.2590  146.3930 C   0  0  1  0  0  3  0  0  0  0  0  0
  192.9080  174.8840  143.6510 C   0  0  0  0  0  2  0  0  0  0  0  0
  190.7650  176.0870  144.2890 C   0  0  2  0  0  3  0  0  0  0  0  0
  191.0570  175.0600  141.9630 C   0  0  0  0  0  2  0  0  0  0  0  0
  190.3030  173.9050  141.4750 N   0  0  0  0  0  0  0  0  0  0  0  0
  188.4830  175.2380  140.8550 O   0  0  0  0  0  0  0  0  0  0  0  0
  188.9840  174.0820  140.9360 C   0  0  0  0  0  0  0  0  0  0  0  0
  188.2510  172.9720  140.5070 O   0  0  0  0  0  0  0  0  0  0  0  0
  188.1490  172.6240  139.1350 C   0  0  0  0  0  1  0  0  0  0  0  0
  190.8310  172.5640  141.6990 C   0  0  0  0  0  2  0  0  0  0  0  0
  191.9130  172.2460  140.6820 C   0  0  0  0  0  1  0  0  0  0  0  0
  1 21  1  6  0  0  0
  1 19  1  0  0  0  0
  1 20  1  0  0  0  0
  2 17  1  6  0  0  0
  2  6  1  0  0  0  0
  4  9  1  1  0  0  0
  4 12  1  0  0  0  0
  5 11  1  6  0  0  0
  5 18  1  0  0  0  0
  6  9  1  0  0  0  0
  6 16  1  1  0  0  0
  7  2  1  0  0  0  0
  7  5  1  0  0  0  0
  7  4  1  0  0  0  0
  8 12  1  0  0  0  0
 10 15  1  0  0  0  0
 10 14  1  0  0  0  0
 11 20  1  0  0  0  0
 13 15  1  0  0  0  0
 14  3  1  0  0  0  0
 18 14  1  0  0  0  0
 18  8  1  0  0  0  0
 19 13  1  0  0  0  0
 20 10  1  0  0  0  0
 22 27  1  0  0  0  0
 22 21  1  0  0  0  0
 23 24  2  0  0  0  0
 24 22  1  0  0  0  0
 25 24  1  0  0  0  0
 26 25  1  0  0  0  0
 28 27  1  0  0  0  0
M  END
>  <MODEL>
1

>  <REMARK>
 VINA RESULT:      -6.7      0.000      0.000
  Name = 
  4 active torsions:
  status: ('A' for Active; 'I' for Inactive)
    1  A    between atoms: C_1  and  C_2
    2  A    between atoms: C_2  and  N_3
    3  A    between atoms: N_3  and  C_7
    4  A    between atoms: O_6  and  C_11
                            x       y       z     vdW  Elec       q    Type
                         _______ _______ _______ _____ _____    ______ ____

>  <TORSDO>
F 4

$$$$
=
 OpenBabel11052418153D

 28 31  0  0  1  0  0  0  0  0999 V2000
  192.0750  176.3560  143.5810 C   0  0  1  0  0  3  0  0  0  0  0  0
  186.4610  177.8060  145.9660 C   0  0  1  0  0  3  0  0  0  0  0  0
  187.7340  173.8890  141.7000 S   0  0  0  0  0  1  0  0  0  0  0  0
  186.9060  178.7030  143.8310 C   0  0  2  0  0  3  0  0  0  0  0  0
  188.3790  176.7580  144.6690 C   0  0  2  0  0  3  0  0  0  0  0  0
  185.5150  178.9360  145.6050 C   0  0  1  0  0  3  0  0  0  0  0  0
  187.5910  178.0280  145.0180 C   0  0  2  0  0  3  0  0  0  0  0  0
  187.2740  176.9240  142.4460 C   0  0  0  0  0  2  0  0  0  0  0  0
  185.9040  179.5260  144.3780 O   0  0  0  0  0  0  0  0  0  0  0  0
  189.9780  175.2340  142.6910 C   0  0  2  0  0  3  0  0  0  0  0  0
  189.7900  177.1710  144.2530 C   0  0  0  0  0  2  0  0  0  0  0  0
  186.2860  177.7800  142.9570 O   0  0  0  0  0  0  0  0  0  0  0  0
  192.2250  174.5020  141.8890 C   0  0  0  0  0  2  0  0  0  0  0  0
  188.5570  174.7870  143.0630 C   0  0  1  0  0  3  0  0  0  0  0  0
  190.8320  174.0340  142.2850 C   0  0  0  0  0  2  0  0  0  0  0  0
  184.0940  178.4120  145.5010 C   0  0  0  0  0  1  0  0  0  0  0  0
  186.9430  177.9690  147.3940 C   0  0  0  0  0  1  0  0  0  0  0  0
  187.6880  175.9580  143.5540 C   0  0  1  0  0  3  0  0  0  0  0  0
  192.8990  175.1690  143.0810 C   0  0  0  0  0  2  0  0  0  0  0  0
  190.6230  175.9480  143.8910 C   0  0  2  0  0  3  0  0  0  0  0  0
  192.7720  177.0160  144.7780 C   0  0  0  0  0  2  0  0  0  0  0  0
  193.5120  176.0550  145.5950 N   0  0  0  0  0  0  0  0  0  0  0  0
  195.5500  176.6420  144.6070 O   0  0  0  0  0  0  0  0  0  0  0  0
  194.9320  175.9150  145.4340 C   0  0  0  0  0  0  0  0  0  0  0  0
  195.6300  174.9680  146.1880 O   0  0  0  0  0  0  0  0  0  0  0  0
  196.4960  174.0180  145.5870 C   0  0  0  0  0  1  0  0  0  0  0  0
  192.7750  175.1260  146.4450 C   0  0  0  0  0  2  0  0  0  0  0  0
  191.7980  175.8810  147.3290 C   0  0  0  0  0  1  0  0  0  0  0  0
  1 20  1  0  0  0  0
  1 21  1  1  0  0  0
  2 17  1  1  0  0  0
  3 14  1  0  0  0  0
  4 12  1  6  0  0  0
  4  9  1  0  0  0  0
  4  7  1  0  0  0  0
  5 11  1  6  0  0  0
  5  7  1  0  0  0  0
  6 16  1  6  0  0  0
  6  2  1  0  0  0  0
  7  2  1  0  0  0  0
  8 12  1  0  0  0  0
  8 18  1  0  0  0  0
  9  6  1  0  0  0  0
 10 14  1  0  0  0  0
 10 20  1  0  0  0  0
 13 15  1  0  0  0  0
 13 19  1  0  0  0  0
 14 18  1  0  0  0  0
 15 10  1  0  0  0  0
 18  5  1  0  0  0  0
 19  1  1  0  0  0  0
 20 11  1  0  0  0  0
 21 22  1  0  0  0  0
 22 27  1  0  0  0  0
 23 24  2  0  0  0  0
 24 22  1  0  0  0  0
 24 25  1  0  0  0  0
 26 25  1  0  0  0  0
 27 28  1  0  0  0  0
M  END
>  <MODEL>
2

>  <REMARK>
 VINA RESULT:      -6.6      3.367      4.997
  Name = 
  4 active torsions:
  status: ('A' for Active; 'I' for Inactive)
    1  A    between atoms: C_1  and  C_2
    2  A    between atoms: C_2  and  N_3
    3  A    between atoms: N_3  and  C_7
    4  A    between atoms: O_6  and  C_11
                            x       y       z     vdW  Elec       q    Type
                         _______ _______ _______ _____ _____    ______ ____

>  <TORSDO>
F 4

$$$$
=
 OpenBabel11052418153D

 28 31  0  0  1  0  0  0  0  0999 V2000
  191.3060  173.8750  143.8680 C   0  0  1  0  0  3  0  0  0  0  0  0
  186.8210  178.2270  144.3690 C   0  0  1  0  0  3  0  0  0  0  0  0
  191.2630  177.0860  148.1290 S   0  0  0  0  0  1  0  0  0  0  0  0
  186.5480  176.3410  145.7580 C   0  0  2  0  0  3  0  0  0  0  0  0
  188.8700  176.7650  144.7170 C   0  0  2  0  0  3  0  0  0  0  0  0
  185.4090  178.1090  144.9130 C   0  0  1  0  0  3  0  0  0  0  0  0
  187.3460  176.8440  144.5560 C   0  0  2  0  0  3  0  0  0  0  0  0
  188.3900  176.2580  147.1050 C   0  0  0  0  0  2  0  0  0  0  0  0
  185.2610  176.8960  145.6280 O   0  0  0  0  0  0  0  0  0  0  0  0
  191.2240  175.4010  145.8970 C   0  0  2  0  0  3  0  0  0  0  0  0
  189.3250  175.3740  144.2770 C   0  0  0  0  0  2  0  0  0  0  0  0
  187.0880  176.7680  146.9930 O   0  0  0  0  0  0  0  0  0  0  0  0
  193.1290  173.8170  145.5990 C   0  0  0  0  0  2  0  0  0  0  0  0
  190.7970  176.7920  146.3870 C   0  0  1  0  0  3  0  0  0  0  0  0
  192.7320  175.2110  146.0590 C   0  0  0  0  0  2  0  0  0  0  0  0
  185.1000  179.2870  145.8190 C   0  0  0  0  0  1  0  0  0  0  0  0
  186.7820  178.5710  142.8930 C   0  0  0  0  0  1  0  0  0  0  0  0
  189.2960  177.0510  146.1660 C   0  0  1  0  0  3  0  0  0  0  0  0
  192.7970  173.6490  144.1210 C   0  0  0  0  0  2  0  0  0  0  0  0
  190.8360  175.2350  144.4180 C   0  0  2  0  0  3  0  0  0  0  0  0
  190.9910  173.6990  142.3770 C   0  0  0  0  0  2  0  0  0  0  0  0
  190.4000  172.3940  142.0790 N   0  0  0  0  0  0  0  0  0  0  0  0
  192.3070  171.6930  140.9180 O   0  0  0  0  0  0  0  0  0  0  0  0
  191.1370  171.4290  141.3120 C   0  0  0  0  0  0  0  0  0  0  0  0
  190.5540  170.1980  140.9970 O   0  0  0  0  0  0  0  0  0  0  0  0
  190.9610  168.9920  141.6230 C   0  0  0  0  0  1  0  0  0  0  0  0
  189.0030  172.1520  142.4180 C   0  0  0  0  0  2  0  0  0  0  0  0
  188.0970  173.0650  141.6110 C   0  0  0  0  0  1  0  0  0  0  0  0
  1 21  1  6  0  0  0
  1 19  1  0  0  0  0
  1 20  1  0  0  0  0
  2 17  1  6  0  0  0
  2  7  1  0  0  0  0
  2  6  1  0  0  0  0
  4  9  1  6  0  0  0
  4 12  1  0  0  0  0
  5 11  1  1  0  0  0
  5 18  1  0  0  0  0
  6  9  1  0  0  0  0
  6 16  1  1  0  0  0
  7  5  1  0  0  0  0
  7  4  1  0  0  0  0
 10 15  1  0  0  0  0
 10 14  1  0  0  0  0
 11 20  1  0  0  0  0
 12  8  1  0  0  0  0
 13 15  1  0  0  0  0
 14  3  1  0  0  0  0
 18 14  1  0  0  0  0
 18  8  1  0  0  0  0
 19 13  1  0  0  0  0
 20 10  1  0  0  0  0
 22 21  1  0  0  0  0
 22 27  1  0  0  0  0
 23 24  2  0  0  0  0
 24 22  1  0  0  0  0
 25 24  1  0  0  0  0
 25 26  1  0  0  0  0
 28 27  1  0  0  0  0
M  END
>  <MODEL>
3

>  <REMARK>
 VINA RESULT:      -6.6      1.551      2.025
  Name = 
  4 active torsions:
  status: ('A' for Active; 'I' for Inactive)
    1  A    between atoms: C_1  and  C_2
    2  A    between atoms: C_2  and  N_3
    3  A    between atoms: N_3  and  C_7
    4  A    between atoms: O_6  and  C_11
                            x       y       z     vdW  Elec       q    Type
                         _______ _______ _______ _____ _____    ______ ____

>  <TORSDO>
F 4

$$$$
=
 OpenBabel11052418153D

 28 31  0  0  1  0  0  0  0  0999 V2000
  187.0670  176.9950  144.4920 C   0  0  1  0  0  3  0  0  0  0  0  0
  192.3650  174.0560  142.8830 C   0  0  1  0  0  3  0  0  0  0  0  0
  191.0930  176.7930  147.9860 S   0  0  0  0  0  1  0  0  0  0  0  0
  192.4770  176.4110  142.8540 C   0  0  2  0  0  3  0  0  0  0  0  0
  190.5290  175.2960  144.1260 C   0  0  2  0  0  3  0  0  0  0  0  0
  193.5630  174.5680  142.1040 C   0  0  1  0  0  3  0  0  0  0  0  0
  191.4800  175.2550  142.9220 C   0  0  2  0  0  3  0  0  0  0  0  0
  192.0080  177.1060  144.9780 C   0  0  0  0  0  2  0  0  0  0  0  0
  193.5130  175.9790  142.0040 O   0  0  0  0  0  0  0  0  0  0  0  0
  189.0230  176.9060  146.1090 C   0  0  2  0  0  3  0  0  0  0  0  0
  189.3190  176.1500  143.7490 C   0  0  0  0  0  2  0  0  0  0  0  0
  193.0430  176.7230  144.1120 O   0  0  0  0  0  0  0  0  0  0  0  0
  186.8460  177.8900  146.8310 C   0  0  0  0  0  2  0  0  0  0  0  0
  190.2440  176.0780  146.5360 C   0  0  1  0  0  3  0  0  0  0  0  0
  188.0310  177.0400  147.2640 C   0  0  0  0  0  2  0  0  0  0  0  0
  194.8490  174.1420  142.7890 C   0  0  0  0  0  1  0  0  0  0  0  0
  191.6880  172.9370  142.1160 C   0  0  0  0  0  1  0  0  0  0  0  0
  191.2290  175.8540  145.3750 C   0  0  1  0  0  3  0  0  0  0  0  0
  186.1230  177.2120  145.6750 C   0  0  0  0  0  2  0  0  0  0  0  0
  188.3360  176.2300  144.9110 C   0  0  2  0  0  3  0  0  0  0  0  0
  186.3190  176.3150  143.3370 C   0  0  0  0  0  2  0  0  0  0  0  0
  186.2360  177.1620  142.1480 N   0  0  0  0  0  0  0  0  0  0  0  0
  187.6020  175.7190  140.9120 O   0  0  0  0  0  0  0  0  0  0  0  0
  186.9360  176.7910  140.9500 C   0  0  0  0  0  0  0  0  0  0  0  0
  186.8860  177.6230  139.8280 O   0  0  0  0  0  0  0  0  0  0  0  0
  186.6890  177.1080  138.5200 C   0  0  0  0  0  1  0  0  0  0  0  0
  185.5820  178.4610  142.2440 C   0  0  0  0  0  2  0  0  0  0  0  0
  184.1220  178.2920  142.6250 C   0  0  0  0  0  1  0  0  0  0  0  0
  1 21  1  6  0  0  0
  1 20  1  0  0  0  0
  1 19  1  0  0  0  0
  2 17  1  6  0  0  0
  2  7  1  0  0  0  0
  4  9  1  6  0  0  0
  4  7  1  0  0  0  0
  4 12  1  0  0  0  0
  5 11  1  6  0  0  0
  5 18  1  0  0  0  0
  6 16  1  1  0  0  0
  6  2  1  0  0  0  0
  7  5  1  0  0  0  0
  8 18  1  0  0  0  0
  9  6  1  0  0  0  0
 10 14  1  0  0  0  0
 10 15  1  0  0  0  0
 11 20  1  0  0  0  0
 12  8  1  0  0  0  0
 13 15  1  0  0  0  0
 14  3  1  0  0  0  0
 18 14  1  0  0  0  0
 19 13  1  0  0  0  0
 20 10  1  0  0  0  0
 22 27  1  0  0  0  0
 22 21  1  0  0  0  0
 23 24  2  0  0  0  0
 24 22  1  0  0  0  0
 25 24  1  0  0  0  0
 26 25  1  0  0  0  0
 27 28  1  0  0  0  0
M  END
>  <MODEL>
4

>  <REMARK>
 VINA RESULT:      -6.4      2.485      6.138
  Name = 
  4 active torsions:
  status: ('A' for Active; 'I' for Inactive)
    1  A    between atoms: C_1  and  C_2
    2  A    between atoms: C_2  and  N_3
    3  A    between atoms: N_3  and  C_7
    4  A    between atoms: O_6  and  C_11
                            x       y       z     vdW  Elec       q    Type
                         _______ _______ _______ _____ _____    ______ ____

>  <TORSDO>
F 4

$$$$
=
 OpenBabel11052418153D

 28 31  0  0  1  0  0  0  0  0999 V2000
  187.5880  177.3450  145.8280 C   0  0  1  0  0  3  0  0  0  0  0  0
  190.5030  172.7480  142.7180 C   0  0  1  0  0  3  0  0  0  0  0  0
  192.7270  176.3550  146.8650 S   0  0  0  0  0  1  0  0  0  0  0  0
  191.0410  174.9330  142.0130 C   0  0  2  0  0  3  0  0  0  0  0  0
  189.9030  174.6350  144.3090 C   0  0  2  0  0  3  0  0  0  0  0  0
  191.1710  172.7670  141.3550 C   0  0  1  0  0  3  0  0  0  0  0  0
  190.0320  174.1560  142.8580 C   0  0  2  0  0  3  0  0  0  0  0  0
  191.9300  175.9960  143.8290 C   0  0  0  0  0  2  0  0  0  0  0  0
  191.3520  174.1030  140.9210 O   0  0  0  0  0  0  0  0  0  0  0  0
  190.0440  176.8630  146.2620 C   0  0  2  0  0  3  0  0  0  0  0  0
  188.8740  175.7650  144.3500 C   0  0  0  0  0  2  0  0  0  0  0  0
  192.2410  175.2100  142.7100 O   0  0  0  0  0  0  0  0  0  0  0  0
  188.8350  178.5480  147.6500 C   0  0  0  0  0  2  0  0  0  0  0  0
  191.1130  175.7600  146.2520 C   0  0  1  0  0  3  0  0  0  0  0  0
  189.8740  177.4360  147.6690 C   0  0  0  0  0  2  0  0  0  0  0  0
  192.5100  172.0570  141.4220 C   0  0  0  0  0  1  0  0  0  0  0  0
  189.3170  171.8040  142.7010 C   0  0  0  0  0  1  0  0  0  0  0  0
  191.2560  175.1030  144.8680 C   0  0  1  0  0  3  0  0  0  0  0  0
  187.4890  177.9850  147.2130 C   0  0  0  0  0  2  0  0  0  0  0  0
  188.7050  176.2860  145.7710 C   0  0  2  0  0  3  0  0  0  0  0  0
  186.2230  176.7880  145.4040 C   0  0  0  0  0  2  0  0  0  0  0  0
  185.5260  177.6680  144.4660 N   0  0  0  0  0  0  0  0  0  0  0  0
  186.1450  176.3540  142.6320 O   0  0  0  0  0  0  0  0  0  0  0  0
  185.5490  177.3810  143.0590 C   0  0  0  0  0  0  0  0  0  0  0  0
  184.9160  178.2450  142.1610 O   0  0  0  0  0  0  0  0  0  0  0  0
  185.2680  178.2910  140.7870 C   0  0  0  0  0  1  0  0  0  0  0  0
  184.9600  178.9210  144.9510 C   0  0  0  0  0  2  0  0  0  0  0  0
  184.0520  178.6650  146.1400 C   0  0  0  0  0  1  0  0  0  0  0  0
  1 21  1  1  0  0  0
  1 19  1  0  0  0  0
  2 17  1  6  0  0  0
  2  7  1  0  0  0  0
  4  9  1  6  0  0  0
  4 12  1  0  0  0  0
  4  7  1  0  0  0  0
  5 11  1  6  0  0  0
  5 18  1  0  0  0  0
  6 16  1  1  0  0  0
  6  2  1  0  0  0  0
  7  5  1  0  0  0  0
  8 18  1  0  0  0  0
  9  6  1  0  0  0  0
 10 15  1  0  0  0  0
 11 20  1  0  0  0  0
 12  8  1  0  0  0  0
 13 15  1  0  0  0  0
 14 10  1  0  0  0  0
 14  3  1  0  0  0  0
 18 14  1  0  0  0  0
 19 13  1  0  0  0  0
 20  1  1  0  0  0  0
 20 10  1  0  0  0  0
 22 27  1  0  0  0  0
 22 21  1  0  0  0  0
 23 24  2  0  0  0  0
 24 22  1  0  0  0  0
 25 24  1  0  0  0  0
 26 25  1  0  0  0  0
 27 28  1  0  0  0  0
M  END
>  <MODEL>
5

>  <REMARK>
 VINA RESULT:      -6.3      2.330      6.357
  Name = 
  4 active torsions:
  status: ('A' for Active; 'I' for Inactive)
    1  A    between atoms: C_1  and  C_2
    2  A    between atoms: C_2  and  N_3
    3  A    between atoms: N_3  and  C_7
    4  A    between atoms: O_6  and  C_11
                            x       y       z     vdW  Elec       q    Type
                         _______ _______ _______ _____ _____    ______ ____

>  <TORSDO>
F 4

$$$$
=
 OpenBabel11052418153D

 28 31  0  0  1  0  0  0  0  0999 V2000
  191.4160  173.9960  144.2560 C   0  0  1  0  0  3  0  0  0  0  0  0
  185.8730  176.9180  144.0740 C   0  0  1  0  0  3  0  0  0  0  0  0
  188.1910  173.1960  140.0830 S   0  0  0  0  0  1  0  0  0  0  0  0
  187.5270  177.8170  142.6540 C   0  0  2  0  0  3  0  0  0  0  0  0
  187.8830  175.4410  143.5940 C   0  0  2  0  0  3  0  0  0  0  0  0
  185.5260  178.3160  143.5950 C   0  0  1  0  0  3  0  0  0  0  0  0
  187.3420  176.8580  143.8290 C   0  0  2  0  0  3  0  0  0  0  0  0
  188.1250  176.1430  141.2190 C   0  0  0  0  0  2  0  0  0  0  0  0
  186.6050  178.8610  142.8580 O   0  0  0  0  0  0  0  0  0  0  0  0
  189.8650  173.6740  142.2720 C   0  0  2  0  0  3  0  0  0  0  0  0
  189.3630  175.4250  143.9780 C   0  0  0  0  0  2  0  0  0  0  0  0
  187.2410  177.2160  141.4050 O   0  0  0  0  0  0  0  0  0  0  0  0
  191.9710  172.3480  142.4400 C   0  0  0  0  0  2  0  0  0  0  0  0
  188.3920  173.6650  141.8370 C   0  0  1  0  0  3  0  0  0  0  0  0
  190.5060  172.3080  142.0340 C   0  0  0  0  0  2  0  0  0  0  0  0
  184.2770  178.2760  142.7340 C   0  0  0  0  0  1  0  0  0  0  0  0
  185.5900  176.7940  145.5580 C   0  0  0  0  0  1  0  0  0  0  0  0
  187.6890  175.0010  142.1350 C   0  0  1  0  0  3  0  0  0  0  0  0
  192.0830  172.6610  143.9270 C   0  0  0  0  0  2  0  0  0  0  0  0
  189.9580  174.0400  143.7630 C   0  0  2  0  0  3  0  0  0  0  0  0
  191.5430  174.2950  145.7560 C   0  0  0  0  0  2  0  0  0  0  0  0
  192.2720  175.5350  146.0210 N   0  0  0  0  0  0  0  0  0  0  0  0
  194.3370  174.4370  145.9880 O   0  0  0  0  0  0  0  0  0  0  0  0
  193.7030  175.5170  146.1400 C   0  0  0  0  0  0  0  0  0  0  0  0
  194.3920  176.6970  146.4320 O   0  0  0  0  0  0  0  0  0  0  0  0
  194.9400  177.5190  145.4130 C   0  0  0  0  0  1  0  0  0  0  0  0
  191.5240  176.7480  146.3310 C   0  0  0  0  0  2  0  0  0  0  0  0
  190.7830  176.5900  147.6470 C   0  0  0  0  0  1  0  0  0  0  0  0
  1 21  1  1  0  0  0
  2 17  1  1  0  0  0
  3 14  1  0  0  0  0
  4 12  1  6  0  0  0
  4  9  1  0  0  0  0
  4  7  1  0  0  0  0
  5  7  1  0  0  0  0
  5 11  1  6  0  0  0
  6 16  1  6  0  0  0
  6  2  1  0  0  0  0
  7  2  1  0  0  0  0
  8 12  1  0  0  0  0
  8 18  1  0  0  0  0
  9  6  1  0  0  0  0
 10 20  1  0  0  0  0
 13 19  1  0  0  0  0
 14 18  1  0  0  0  0
 14 10  1  0  0  0  0
 15 10  1  0  0  0  0
 15 13  1  0  0  0  0
 18  5  1  0  0  0  0
 19  1  1  0  0  0  0
 20 11  1  0  0  0  0
 20  1  1  0  0  0  0
 21 22  1  0  0  0  0
 22 24  1  0  0  0  0
 22 27  1  0  0  0  0
 23 24  2  0  0  0  0
 24 25  1  0  0  0  0
 26 25  1  0  0  0  0
 27 28  1  0  0  0  0
M  END
>  <MODEL>
6

>  <REMARK>
 VINA RESULT:      -6.3      3.351      5.451
  Name = 
  4 active torsions:
  status: ('A' for Active; 'I' for Inactive)
    1  A    between atoms: C_1  and  C_2
    2  A    between atoms: C_2  and  N_3
    3  A    between atoms: N_3  and  C_7
    4  A    between atoms: O_6  and  C_11
                            x       y       z     vdW  Elec       q    Type
                         _______ _______ _______ _____ _____    ______ ____

>  <TORSDO>
F 4

$$$$
=
 OpenBabel11052418153D

 28 31  0  0  1  0  0  0  0  0999 V2000
  190.8720  174.5890  143.8340 C   0  0  1  0  0  3  0  0  0  0  0  0
  185.3530  177.2210  145.2170 C   0  0  1  0  0  3  0  0  0  0  0  0
  187.4450  175.6670  139.8910 S   0  0  0  0  0  1  0  0  0  0  0  0
  186.9450  178.6740  144.2630 C   0  0  2  0  0  3  0  0  0  0  0  0
  187.3250  176.1320  144.0420 C   0  0  2  0  0  3  0  0  0  0  0  0
  184.9960  178.6820  145.4200 C   0  0  1  0  0  3  0  0  0  0  0  0
  186.8090  177.2930  144.9020 C   0  0  2  0  0  3  0  0  0  0  0  0
  187.4600  177.8120  142.2110 C   0  0  0  0  0  2  0  0  0  0  0  0
  186.0440  179.5090  144.9480 O   0  0  0  0  0  0  0  0  0  0  0  0
  189.2250  175.1540  141.9860 C   0  0  2  0  0  3  0  0  0  0  0  0
  188.8210  175.9680  144.3110 C   0  0  0  0  0  2  0  0  0  0  0  0
  186.5960  178.6810  142.8920 O   0  0  0  0  0  0  0  0  0  0  0  0
  191.3260  173.9160  141.4540 C   0  0  0  0  0  2  0  0  0  0  0  0
  187.7330  175.3180  141.6600 C   0  0  1  0  0  3  0  0  0  0  0  0
  189.8420  174.0400  141.1410 C   0  0  0  0  0  2  0  0  0  0  0  0
  183.7070  179.0090  144.6880 C   0  0  0  0  0  1  0  0  0  0  0  0
  185.1400  176.4510  146.5060 C   0  0  0  0  0  1  0  0  0  0  0  0
  187.0570  176.3780  142.5490 C   0  0  1  0  0  3  0  0  0  0  0  0
  191.5110  173.5430  142.9200 C   0  0  0  0  0  2  0  0  0  0  0  0
  189.3930  174.8260  143.4790 C   0  0  2  0  0  3  0  0  0  0  0  0
  191.0730  174.1980  145.3040 C   0  0  0  0  0  2  0  0  0  0  0  0
  191.4980  175.3270  146.1310 N   0  0  0  0  0  0  0  0  0  0  0  0
  189.8260  174.9150  147.7150 O   0  0  0  0  0  0  0  0  0  0  0  0
  190.7950  175.6350  147.3450 C   0  0  0  0  0  0  0  0  0  0  0  0
  191.1790  176.7380  148.1120 O   0  0  0  0  0  0  0  0  0  0  0  0
  190.4400  177.9500  148.1090 C   0  0  0  0  0  1  0  0  0  0  0  0
  192.5250  176.2310  145.6270 C   0  0  0  0  0  2  0  0  0  0  0  0
  193.8940  175.8100  146.1310 C   0  0  0  0  0  1  0  0  0  0  0  0
  1 21  1  1  0  0  0
  2  6  1  0  0  0  0
  2 17  1  1  0  0  0
  3 14  1  0  0  0  0
  4 12  1  6  0  0  0
  4  7  1  0  0  0  0
  4  9  1  0  0  0  0
  5 11  1  6  0  0  0
  5  7  1  0  0  0  0
  6 16  1  6  0  0  0
  7  2  1  0  0  0  0
  8 18  1  0  0  0  0
  8 12  1  0  0  0  0
  9  6  1  0  0  0  0
 10 20  1  0  0  0  0
 13 19  1  0  0  0  0
 14 10  1  0  0  0  0
 14 18  1  0  0  0  0
 15 13  1  0  0  0  0
 15 10  1  0  0  0  0
 18  5  1  0  0  0  0
 19  1  1  0  0  0  0
 20  1  1  0  0  0  0
 20 11  1  0  0  0  0
 21 22  1  0  0  0  0
 22 24  1  0  0  0  0
 24 23  2  0  0  0  0
 24 25  1  0  0  0  0
 26 25  1  0  0  0  0
 27 22  1  0  0  0  0
 27 28  1  0  0  0  0
M  END
>  <MODEL>
7

>  <REMARK>
 VINA RESULT:      -6.1      2.959      5.085
  Name = 
  4 active torsions:
  status: ('A' for Active; 'I' for Inactive)
    1  A    between atoms: C_1  and  C_2
    2  A    between atoms: C_2  and  N_3
    3  A    between atoms: N_3  and  C_7
    4  A    between atoms: O_6  and  C_11
                            x       y       z     vdW  Elec       q    Type
                         _______ _______ _______ _____ _____    ______ ____

>  <TORSDO>
F 4

$$$$
=
 OpenBabel11052418153D

 28 31  0  0  1  0  0  0  0  0999 V2000
  189.1600  177.6030  144.2560 C   0  0  1  0  0  3  0  0  0  0  0  0
  194.7130  174.8180  143.4150 C   0  0  1  0  0  3  0  0  0  0  0  0
  191.5660  175.2910  148.4180 S   0  0  0  0  0  1  0  0  0  0  0  0
  194.7950  176.9100  144.5000 C   0  0  2  0  0  3  0  0  0  0  0  0
  192.5260  175.6890  144.3710 C   0  0  2  0  0  3  0  0  0  0  0  0
  196.1090  175.4130  143.4190 C   0  0  1  0  0  3  0  0  0  0  0  0
  193.8620  176.0120  143.6890 C   0  0  2  0  0  3  0  0  0  0  0  0
  193.5470  176.7010  146.4010 C   0  0  0  0  0  2  0  0  0  0  0  0
  196.0800  176.7210  143.9600 O   0  0  0  0  0  0  0  0  0  0  0  0
  190.3590  176.5220  146.2160 C   0  0  2  0  0  3  0  0  0  0  0  0
  191.5360  176.8040  144.0330 C   0  0  0  0  0  2  0  0  0  0  0  0
  194.8370  176.5620  145.8700 O   0  0  0  0  0  0  0  0  0  0  0  0
  188.0570  177.4410  146.5100 C   0  0  0  0  0  2  0  0  0  0  0  0
  191.3390  175.4070  146.6090 C   0  0  1  0  0  3  0  0  0  0  0  0
  189.0020  176.3090  146.8860 C   0  0  0  0  0  2  0  0  0  0  0  0
  197.0460  174.5360  144.2290 C   0  0  0  0  0  1  0  0  0  0  0  0
  194.3920  174.2570  142.0440 C   0  0  0  0  0  1  0  0  0  0  0  0
  192.6930  175.5430  145.8910 C   0  0  1  0  0  3  0  0  0  0  0  0
  187.8350  177.4440  145.0030 C   0  0  0  0  0  2  0  0  0  0  0  0
  190.1860  176.5400  144.6880 C   0  0  2  0  0  3  0  0  0  0  0  0
  188.9140  177.6080  142.7410 C   0  0  0  0  0  2  0  0  0  0  0  0
  187.6140  177.0410  142.3820 N   0  0  0  0  0  0  0  0  0  0  0  0
  186.5910  179.1450  142.3880 O   0  0  0  0  0  0  0  0  0  0  0  0
  186.4710  177.8970  142.2360 C   0  0  0  0  0  0  0  0  0  0  0  0
  185.2230  177.3470  141.9320 O   0  0  0  0  0  0  0  0  0  0  0  0
  184.0110  178.0040  142.2690 C   0  0  0  0  0  1  0  0  0  0  0  0
  187.4560  175.5920  142.3460 C   0  0  0  0  0  2  0  0  0  0  0  0
  188.6470  174.9470  141.6580 C   0  0  0  0  0  1  0  0  0  0  0  0
  1 21  1  6  0  0  0
  1 20  1  0  0  0  0
  1 19  1  0  0  0  0
  2 17  1  6  0  0  0
  2  6  1  0  0  0  0
  2  7  1  0  0  0  0
  4  9  1  6  0  0  0
  4 12  1  0  0  0  0
  5 11  1  1  0  0  0
  5 18  1  0  0  0  0
  6  9  1  0  0  0  0
  6 16  1  1  0  0  0
  7  5  1  0  0  0  0
  7  4  1  0  0  0  0
 10 14  1  0  0  0  0
 10 15  1  0  0  0  0
 11 20  1  0  0  0  0
 12  8  1  0  0  0  0
 13 15  1  0  0  0  0
 14  3  1  0  0  0  0
 18  8  1  0  0  0  0
 18 14  1  0  0  0  0
 19 13  1  0  0  0  0
 20 10  1  0  0  0  0
 22 21  1  0  0  0  0
 24 22  1  0  0  0  0
 24 23  2  0  0  0  0
 25 24  1  0  0  0  0
 25 26  1  0  0  0  0
 27 22  1  0  0  0  0
 28 27  1  0  0  0  0
M  END
>  <MODEL>
8

>  <REMARK>
 VINA RESULT:      -6.1      3.096      6.477
  Name = 
  4 active torsions:
  status: ('A' for Active; 'I' for Inactive)
    1  A    between atoms: C_1  and  C_2
    2  A    between atoms: C_2  and  N_3
    3  A    between atoms: N_3  and  C_7
    4  A    between atoms: O_6  and  C_11
                            x       y       z     vdW  Elec       q    Type
                         _______ _______ _______ _____ _____    ______ ____

>  <TORSDO>
F 4

$$$$
=
 OpenBabel11052418153D

 28 31  0  0  1  0  0  0  0  0999 V2000
  187.3560  177.2820  142.9440 C   0  0  1  0  0  3  0  0  0  0  0  0
  192.0260  173.1510  143.5870 C   0  0  1  0  0  3  0  0  0  0  0  0
  188.3640  173.8600  138.9780 S   0  0  0  0  0  1  0  0  0  0  0  0
  189.8580  172.2590  143.8370 C   0  0  2  0  0  3  0  0  0  0  0  0
  190.1080  174.5660  142.7100 C   0  0  2  0  0  3  0  0  0  0  0  0
  192.0350  171.7900  144.2590 C   0  0  1  0  0  3  0  0  0  0  0  0
  190.6130  173.5860  143.7770 C   0  0  2  0  0  3  0  0  0  0  0  0
  188.7690  172.6450  141.8670 C   0  0  0  0  0  2  0  0  0  0  0  0
  190.7080  171.3590  144.5050 O   0  0  0  0  0  0  0  0  0  0  0  0
  187.8480  175.6100  141.0970 C   0  0  2  0  0  3  0  0  0  0  0  0
  188.9700  175.3870  143.3160 C   0  0  0  0  0  2  0  0  0  0  0  0
  189.5770  171.7290  142.5560 O   0  0  0  0  0  0  0  0  0  0  0  0
  186.1300  177.3870  140.7510 C   0  0  0  0  0  2  0  0  0  0  0  0
  188.9580  174.7750  140.4430 C   0  0  1  0  0  3  0  0  0  0  0  0
  187.2490  176.5930  140.0920 C   0  0  0  0  0  2  0  0  0  0  0  0
  192.7540  170.7810  143.3830 C   0  0  0  0  0  1  0  0  0  0  0  0
  192.9620  174.0950  144.3160 C   0  0  0  0  0  1  0  0  0  0  0  0
  189.6400  173.8270  141.4460 C   0  0  1  0  0  3  0  0  0  0  0  0
  186.6910  178.1960  141.9140 C   0  0  0  0  0  2  0  0  0  0  0  0
  188.4230  176.3800  142.2980 C   0  0  2  0  0  3  0  0  0  0  0  0
  187.9100  178.1150  144.1080 C   0  0  0  0  0  2  0  0  0  0  0  0
  187.0900  178.0050  145.3150 N   0  0  0  0  0  0  0  0  0  0  0  0
  185.7700  179.8350  144.6970 O   0  0  0  0  0  0  0  0  0  0  0  0
  186.0230  178.9370  145.5480 C   0  0  0  0  0  0  0  0  0  0  0  0
  185.2680  178.8520  146.7210 O   0  0  0  0  0  0  0  0  0  0  0  0
  183.9810  178.2550  146.7440 C   0  0  0  0  0  1  0  0  0  0  0  0
  187.4760  177.0560  146.3520 C   0  0  0  0  0  2  0  0  0  0  0  0
  188.9840  177.0510  146.5300 C   0  0  0  0  0  1  0  0  0  0  0  0
  1 21  1  1  0  0  0
  2  7  1  0  0  0  0
  2  6  1  0  0  0  0
  2 17  1  1  0  0  0
  3 14  1  0  0  0  0
  4 12  1  6  0  0  0
  4  9  1  0  0  0  0
  5 11  1  1  0  0  0
  5  7  1  0  0  0  0
  6 16  1  6  0  0  0
  6  9  1  0  0  0  0
  7  4  1  0  0  0  0
  8 12  1  0  0  0  0
 10 20  1  0  0  0  0
 13 19  1  0  0  0  0
 14 10  1  0  0  0  0
 14 18  1  0  0  0  0
 15 13  1  0  0  0  0
 15 10  1  0  0  0  0
 18  8  1  0  0  0  0
 18  5  1  0  0  0  0
 19  1  1  0  0  0  0
 20  1  1  0  0  0  0
 20 11  1  0  0  0  0
 21 22  1  0  0  0  0
 22 24  1  0  0  0  0
 22 27  1  0  0  0  0
 23 24  2  0  0  0  0
 24 25  1  0  0  0  0
 25 26  1  0  0  0  0
 27 28  1  0  0  0  0
M  END
>  <MODEL>
9

>  <REMARK>
 VINA RESULT:      -6.0      3.143      7.336
  Name = 
  4 active torsions:
  status: ('A' for Active; 'I' for Inactive)
    1  A    between atoms: C_1  and  C_2
    2  A    between atoms: C_2  and  N_3
    3  A    between atoms: N_3  and  C_7
    4  A    between atoms: O_6  and  C_11
                            x       y       z     vdW  Elec       q    Type
                         _______ _______ _______ _____ _____    ______ ____

>  <TORSDO>
F 4

$$$$
