=
 OpenBabel11052419473D

 55 63  0  0  1  0  0  0  0  0999 V2000
  193.7470  176.1050  145.3900 C   0  0  0  0  0  3  0  0  0  0  0  0
  195.5410  173.9630  145.4240 C   0  0  0  0  0  0  0  0  0  0  0  0
  194.1840  173.7420  145.6890 C   0  0  0  0  0  3  0  0  0  0  0  0
  195.1050  176.3260  145.1400 C   0  0  0  0  0  3  0  0  0  0  0  0
  193.2840  174.8130  145.6820 C   0  0  0  0  0  0  0  0  0  0  0  0
  196.0010  175.2560  145.1580 C   0  0  0  0  0  3  0  0  0  0  0  0
  191.8260  174.5440  145.9030 C   0  0  2  0  0  3  0  0  0  0  0  0
  191.0440  176.3100  142.9150 C   0  0  0  0  0  1  0  0  0  0  0  0
  188.8670  176.8720  143.9590 C   0  0  2  0  0  3  0  0  0  0  0  0
  191.1540  174.1230  144.6070 C   0  0  2  0  0  3  0  0  0  0  0  0
  189.7130  175.7340  143.4010 C   0  0  2  0  0  3  0  0  0  0  0  0
  190.9550  175.9850  146.5640 S   0  0  0  0  0  0  0  0  0  0  0  0
  188.5190  176.5010  145.3250 N   0  0  0  0  0  0  0  0  0  0  0  0
  189.8200  174.7270  144.4780 N   0  0  2  0  0  0  0  0  0  0  0  0
  189.4430  175.4240  145.7060 C   0  0  1  0  0  3  0  0  0  0  0  0
  187.8740  178.1910  142.0630 C   0  0  0  0  0  1  0  0  0  0  0  0
  187.6060  177.1410  143.1270 C   0  0  0  0  0  3  0  0  0  0  0  0
  187.0440  175.8800  142.4880 C   0  0  0  0  0  1  0  0  0  0  0  0
  191.8830  172.1360  143.2810 C   0  0  0  0  0  1  0  0  0  0  0  0
  191.0920  172.5980  144.4900 C   0  0  2  0  0  3  0  0  0  0  0  0
  189.6580  172.0850  144.4160 C   0  0  0  0  0  2  0  0  0  0  0  0
  189.2590  171.8240  142.9750 C   0  0  0  0  0  1  0  0  0  0  0  0
  188.4180  177.6260  146.2750 C   0  0  0  0  0  2  0  0  0  0  0  0
  186.1750  178.7410  146.0090 C   0  0  0  0  0  2  0  0  0  0  0  0
  186.3010  176.5100  146.9460 C   0  0  0  0  0  2  0  0  0  0  0  0
  184.8420  176.8420  146.7310 C   0  0  0  0  0  2  0  0  0  0  0  0
  184.8190  178.0770  145.8510 C   0  0  2  0  0  3  0  0  0  0  0  0
  187.0260  177.8330  146.8860 C   0  0  1  0  0  3  0  0  0  0  0  0
  184.2080  178.6150  143.4470 C   0  0  0  0  0  0  0  0  0  0  0  0
  184.0670  178.1470  142.0430 C   0  0  0  0  0  1  0  0  0  0  0  0
  184.6440  177.6960  144.4540 N   0  0  0  0  0  2  0  0  0  0  0  0
  183.9470  179.8140  143.7380 O   0  0  0  0  0  0  0  0  0  0  0  0
  196.4940  172.8200  145.3890 C   0  0  0  0  0  2  0  0  0  0  0  0
  195.7630  171.5090  145.1430 C   0  0  0  0  0  2  0  0  0  0  0  0
  196.2420  170.8820  143.8400 C   0  0  0  0  0  2  0  0  0  0  0  0
  195.1540  170.9760  142.7800 C   0  0  0  0  0  2  0  0  0  0  0  0
  195.9220  172.9830  140.6890 C   0  0  2  0  0  0  0  0  0  0  0  0
  196.4900  175.8100  140.3130 C   0  0  2  0  0  3  0  0  0  0  0  0
  195.7220  175.3210  141.5890 C   0  0  2  0  0  0  0  0  0  0  0  0
  194.8050  169.4940  139.2140 O   0  0  0  0  0  0  0  0  0  0  0  0
  195.6680  170.5530  141.4810 N   0  0  0  0  0  0  0  0  0  0  0  0
  194.3380  174.9650  139.0890 C   0  0  0  0  0  2  0  0  0  0  0  0
  194.1910  175.2930  141.4980 C   0  0  0  0  0  2  0  0  0  0  0  0
  196.2040  176.7370  141.4690 C   0  0  0  0  0  2  0  0  0  0  0  0
  194.3360  170.3040  140.3890 S   0  0  0  0  0  0  0  0  0  0  0  0
  194.3610  172.9670  140.6730 C   0  0  1  0  0  3  0  0  0  0  0  0
  193.2220  169.5700  141.0800 O   0  0  0  0  0  0  0  0  0  0  0  0
  193.7760  174.3640  140.3770 C   0  0  2  0  0  3  0  0  0  0  0  0
  196.4370  173.5830  139.3420 C   0  0  2  0  0  3  0  0  0  0  0  0
  196.5560  171.5820  140.9170 C   0  0  0  0  0  2  0  0  0  0  0  0
  195.8780  175.0040  139.1470 C   0  0  2  0  0  3  0  0  0  0  0  0
  193.7510  171.8780  139.8060 C   0  0  0  0  0  2  0  0  0  0  0  0
  197.7460  174.0060  141.9820 O   0  0  0  0  0  1  0  0  0  0  0  0
  196.1970  172.7070  138.1140 C   0  0  0  0  0  1  0  0  0  0  0  0
  196.3540  173.9350  141.8530 C   0  0  2  0  0  3  0  0  0  0  0  0
  1  5  1  0  0  0  0
  2  3  1  0  0  0  0
  4  6  1  0  0  0  0
  4  1  2  0  0  0  0
  5  3  2  0  0  0  0
  6  2  2  0  0  0  0
  7  5  1  6  0  0  0
  7 12  1  0  0  0  0
  9 17  1  6  0  0  0
  9 13  1  0  0  0  0
 10 20  1  1  0  0  0
 10  7  1  0  0  0  0
 11  8  1  1  0  0  0
 11  9  1  0  0  0  0
 11 14  1  0  0  0  0
 13 15  1  0  0  0  0
 13 23  1  0  0  0  0
 14 10  1  0  0  0  0
 14 15  1  0  0  0  0
 15 12  1  0  0  0  0
 16 17  1  0  0  0  0
 18 17  1  0  0  0  0
 19 20  1  0  0  0  0
 21 20  1  0  0  0  0
 22 21  1  0  0  0  0
 23 28  1  0  0  0  0
 24 28  1  0  0  0  0
 26 25  1  0  0  0  0
 27 24  1  0  0  0  0
 27 26  1  0  0  0  0
 28 25  1  0  0  0  0
 29 32  2  0  0  0  0
 29 31  1  0  0  0  0
 30 29  1  0  0  0  0
 31 27  1  0  0  0  0
 33  2  1  0  0  0  0
 34 33  1  0  0  0  0
 35 34  1  0  0  0  0
 36 35  1  0  0  0  0
 37 50  1  0  0  0  0
 37 55  1  0  0  0  0
 38 44  1  0  0  0  0
 38 39  1  0  0  0  0
 39 55  1  0  0  0  0
 40 45  2  0  0  0  0
 41 36  1  0  0  0  0
 42 51  1  0  0  0  0
 42 48  1  0  0  0  0
 43 39  1  0  0  0  0
 44 39  1  0  0  0  0
 45 47  2  0  0  0  0
 45 41  1  0  0  0  0
 46 37  1  0  0  0  0
 48 46  1  0  0  0  0
 48 43  1  0  0  0  0
 49 37  1  0  0  0  0
 50 41  1  0  0  0  0
 51 49  1  0  0  0  0
 51 38  1  0  0  0  0
 52 45  1  0  0  0  0
 52 46  1  0  0  0  0
 54 49  1  0  0  0  0
 55 53  1  0  0  0  0
M  END
>  <MODEL>
1

>  <REMARK>
 VINA RESULT:      -7.7      0.000      0.000
  Name = 
  12 active torsions:
  status: ('A' for Active; 'I' for Inactive)
    1  A    between atoms: C_2  and  C_44
    2  A    between atoms: C_4  and  C_40
    3  A    between atoms: N_8  and  C_43
    4  A    between atoms: C_16  and  C_17
    5  A    between atoms: C_19  and  C_40
    6  A    between atoms: C_27  and  C_54
    7  A    between atoms: N_32  and  C_48
    8  A    between atoms: C_33  and  N_36
    9  A    between atoms: C_33  and  C_52
   10  A    between atoms: C_35  and  C_43
   11  A    between atoms: C_35  and  C_51
   12  A    between atoms: C_51  and  C_54
                            x       y       z     vdW  Elec       q    Type
                         _______ _______ _______ _____ _____    ______ ____

>  <TORSDO>
F 12

$$$$
=
 OpenBabel11052419473D

 55 63  0  0  1  0  0  0  0  0999 V2000
  195.1420  176.6970  144.4960 C   0  0  0  0  0  3  0  0  0  0  0  0
  195.5750  176.1470  141.7920 C   0  0  0  0  0  0  0  0  0  0  0  0
  194.2990  175.9800  142.3430 C   0  0  0  0  0  3  0  0  0  0  0  0
  196.4190  176.8490  143.9480 C   0  0  0  0  0  3  0  0  0  0  0  0
  194.0790  176.2460  143.6980 C   0  0  0  0  0  0  0  0  0  0  0  0
  196.6350  176.5730  142.5970 C   0  0  0  0  0  3  0  0  0  0  0  0
  192.6920  176.1240  144.2510 C   0  0  2  0  0  3  0  0  0  0  0  0
  191.8920  173.7510  141.7230 C   0  0  0  0  0  1  0  0  0  0  0  0
  189.5460  174.5360  141.8960 C   0  0  2  0  0  3  0  0  0  0  0  0
  192.2620  174.6670  144.3080 C   0  0  2  0  0  3  0  0  0  0  0  0
  190.6610  173.8020  142.6310 C   0  0  2  0  0  3  0  0  0  0  0  0
  191.4800  177.0460  143.2740 S   0  0  0  0  0  0  0  0  0  0  0  0
  189.1370  175.6390  142.7570 N   0  0  0  0  0  0  0  0  0  0  0  0
  190.8540  174.5110  143.9120 N   0  0  2  0  0  0  0  0  0  0  0  0
  190.2150  175.8140  143.7410 C   0  0  1  0  0  3  0  0  0  0  0  0
  188.2840  173.3570  140.0700 C   0  0  0  0  0  1  0  0  0  0  0  0
  188.3540  173.6310  141.5620 C   0  0  0  0  0  3  0  0  0  0  0  0
  188.3780  172.3200  142.3340 C   0  0  0  0  0  1  0  0  0  0  0  0
  192.5220  175.1670  146.7410 C   0  0  0  0  0  1  0  0  0  0  0  0
  192.5240  174.0710  145.6930 C   0  0  2  0  0  3  0  0  0  0  0  0
  193.8310  173.2870  145.7430 C   0  0  0  0  0  2  0  0  0  0  0  0
  194.1370  172.6730  144.3900 C   0  0  0  0  0  1  0  0  0  0  0  0
  188.7080  176.8620  142.0510 C   0  0  0  0  0  2  0  0  0  0  0  0
  186.5200  176.3510  143.1900 C   0  0  0  0  0  2  0  0  0  0  0  0
  186.9340  178.5790  142.3300 C   0  0  0  0  0  2  0  0  0  0  0  0
  185.6440  178.6170  143.1170 C   0  0  0  0  0  2  0  0  0  0  0  0
  185.5950  177.3210  143.9030 C   0  0  2  0  0  3  0  0  0  0  0  0
  187.1950  177.1170  142.0600 C   0  0  1  0  0  3  0  0  0  0  0  0
  185.2530  177.9430  146.3390 C   0  0  0  0  0  0  0  0  0  0  0  0
  185.8410  178.1280  147.6930 C   0  0  0  0  0  1  0  0  0  0  0  0
  186.0940  177.5350  145.2570 N   0  0  0  0  0  2  0  0  0  0  0  0
  184.0210  178.1450  146.1580 O   0  0  0  0  0  0  0  0  0  0  0  0
  195.8030  175.9050  140.3400 C   0  0  0  0  0  2  0  0  0  0  0  0
  194.5790  175.2720  139.6950 C   0  0  0  0  0  2  0  0  0  0  0  0
  194.8600  173.8120  139.3680 C   0  0  0  0  0  2  0  0  0  0  0  0
  194.1190  173.4040  138.1030 C   0  0  0  0  0  2  0  0  0  0  0  0
  191.4100  172.3880  137.3200 C   0  0  2  0  0  0  0  0  0  0  0  0
  189.7910  169.9740  137.2500 C   0  0  2  0  0  3  0  0  0  0  0  0
  191.3490  169.8770  137.3990 C   0  0  2  0  0  0  0  0  0  0  0  0
  192.2020  176.0140  135.9710 O   0  0  0  0  0  0  0  0  0  0  0  0
  193.0170  174.3230  137.8360 N   0  0  0  0  0  0  0  0  0  0  0  0
  190.4000  170.9380  134.8960 C   0  0  0  0  0  2  0  0  0  0  0  0
  192.1540  169.7530  136.1000 C   0  0  0  0  0  2  0  0  0  0  0  0
  190.4770  168.6660  137.5640 C   0  0  0  0  0  2  0  0  0  0  0  0
  193.0470  174.7870  136.1590 S   0  0  0  0  0  0  0  0  0  0  0  0
  192.2840  172.2230  136.0370 C   0  0  1  0  0  3  0  0  0  0  0  0
  194.4530  175.0850  135.7230 O   0  0  0  0  0  0  0  0  0  0  0  0
  191.8910  170.9650  135.2330 C   0  0  2  0  0  3  0  0  0  0  0  0
  189.9020  172.3770  136.9110 C   0  0  2  0  0  3  0  0  0  0  0  0
  191.7260  173.6790  138.1260 C   0  0  0  0  0  2  0  0  0  0  0  0
  189.5600  171.0650  136.1820 C   0  0  2  0  0  3  0  0  0  0  0  0
  192.3760  173.4690  135.1730 C   0  0  0  0  0  2  0  0  0  0  0  0
  190.9730  171.1950  139.4250 O   0  0  0  0  0  1  0  0  0  0  0  0
  189.4410  173.6000  136.1210 C   0  0  0  0  0  1  0  0  0  0  0  0
  191.6870  171.1400  138.2220 C   0  0  2  0  0  3  0  0  0  0  0  0
  2  3  2  0  0  0  0
  2  6  1  0  0  0  0
  3  5  1  0  0  0  0
  4  1  1  0  0  0  0
  5  1  2  0  0  0  0
  6  4  2  0  0  0  0
  7  5  1  6  0  0  0
  7 10  1  0  0  0  0
  9 17  1  1  0  0  0
  9 11  1  0  0  0  0
  9 13  1  0  0  0  0
 10 20  1  1  0  0  0
 11  8  1  6  0  0  0
 11 14  1  0  0  0  0
 12 15  1  0  0  0  0
 12  7  1  0  0  0  0
 13 15  1  0  0  0  0
 14 10  1  0  0  0  0
 15 14  1  0  0  0  0
 16 17  1  0  0  0  0
 17 18  1  0  0  0  0
 20 21  1  0  0  0  0
 20 19  1  0  0  0  0
 22 21  1  0  0  0  0
 23 28  1  0  0  0  0
 23 13  1  0  0  0  0
 24 27  1  0  0  0  0
 25 26  1  0  0  0  0
 26 27  1  0  0  0  0
 27 31  1  0  0  0  0
 28 25  1  0  0  0  0
 28 24  1  0  0  0  0
 29 30  1  0  0  0  0
 31 29  1  0  0  0  0
 32 29  2  0  0  0  0
 33  2  1  0  0  0  0
 34 33  1  0  0  0  0
 35 34  1  0  0  0  0
 36 35  1  0  0  0  0
 37 50  1  0  0  0  0
 37 55  1  0  0  0  0
 38 39  1  0  0  0  0
 38 44  1  0  0  0  0
 39 44  1  0  0  0  0
 39 55  1  0  0  0  0
 40 45  2  0  0  0  0
 41 36  1  0  0  0  0
 41 50  1  0  0  0  0
 42 48  1  0  0  0  0
 42 51  1  0  0  0  0
 43 39  1  0  0  0  0
 45 41  1  0  0  0  0
 46 37  1  0  0  0  0
 47 45  2  0  0  0  0
 48 46  1  0  0  0  0
 48 43  1  0  0  0  0
 49 37  1  0  0  0  0
 51 49  1  0  0  0  0
 51 38  1  0  0  0  0
 52 46  1  0  0  0  0
 52 45  1  0  0  0  0
 54 49  1  0  0  0  0
 55 53  1  0  0  0  0
M  END
>  <MODEL>
2

>  <REMARK>
 VINA RESULT:      -7.4      3.292      5.310
  Name = 
  12 active torsions:
  status: ('A' for Active; 'I' for Inactive)
    1  A    between atoms: C_2  and  C_44
    2  A    between atoms: C_4  and  C_40
    3  A    between atoms: N_8  and  C_43
    4  A    between atoms: C_16  and  C_17
    5  A    between atoms: C_19  and  C_40
    6  A    between atoms: C_27  and  C_54
    7  A    between atoms: N_32  and  C_48
    8  A    between atoms: C_33  and  N_36
    9  A    between atoms: C_33  and  C_52
   10  A    between atoms: C_35  and  C_43
   11  A    between atoms: C_35  and  C_51
   12  A    between atoms: C_51  and  C_54
                            x       y       z     vdW  Elec       q    Type
                         _______ _______ _______ _____ _____    ______ ____

>  <TORSDO>
F 12

$$$$
=
 OpenBabel11052419473D

 55 63  0  0  1  0  0  0  0  0999 V2000
  189.8820  173.4380  138.4590 C   0  0  0  0  0  3  0  0  0  0  0  0
  188.6150  174.4980  140.7120 C   0  0  0  0  0  0  0  0  0  0  0  0
  189.8590  173.8670  140.8410 C   0  0  0  0  0  3  0  0  0  0  0  0
  188.6340  174.0560  138.3340 C   0  0  0  0  0  3  0  0  0  0  0  0
  190.4920  173.3260  139.7170 C   0  0  0  0  0  0  0  0  0  0  0  0
  188.0020  174.5850  139.4600 C   0  0  0  0  0  3  0  0  0  0  0  0
  191.8510  172.7130  139.8690 C   0  0  2  0  0  3  0  0  0  0  0  0
  190.4420  170.0580  141.7740 C   0  0  0  0  0  1  0  0  0  0  0  0
  192.6300  169.8860  142.9280 C   0  0  2  0  0  3  0  0  0  0  0  0
  191.7900  171.2110  139.6490 C   0  0  2  0  0  3  0  0  0  0  0  0
  191.9160  169.6880  141.5960 C   0  0  2  0  0  3  0  0  0  0  0  0
  192.5690  173.0300  141.4980 S   0  0  0  0  0  0  0  0  0  0  0  0
  193.7390  170.7970  142.6740 N   0  0  0  0  0  0  0  0  0  0  0  0
  192.6520  170.4980  140.6040 N   0  0  2  0  0  0  0  0  0  0  0  0
  193.4560  171.4380  141.3820 C   0  0  1  0  0  3  0  0  0  0  0  0
  194.5270  168.2390  143.0390 C   0  0  0  0  0  1  0  0  0  0  0  0
  193.1320  168.5700  143.5380 C   0  0  0  0  0  3  0  0  0  0  0  0
  193.1090  168.5830  145.0590 C   0  0  0  0  0  1  0  0  0  0  0  0
  191.0560  169.9720  137.6090 C   0  0  0  0  0  1  0  0  0  0  0  0
  192.1390  170.8520  138.2030 C   0  0  2  0  0  3  0  0  0  0  0  0
  193.4990  170.1710  138.0920 C   0  0  0  0  0  2  0  0  0  0  0  0
  194.3870  170.9110  137.1080 C   0  0  0  0  0  1  0  0  0  0  0  0
  194.0680  171.7110  143.7840 C   0  0  0  0  0  2  0  0  0  0  0  0
  195.7000  173.5960  143.4170 C   0  0  0  0  0  2  0  0  0  0  0  0
  196.0180  172.0790  145.2800 C   0  0  0  0  0  2  0  0  0  0  0  0
  197.0200  173.2030  145.4190 C   0  0  0  0  0  2  0  0  0  0  0  0
  196.5760  174.2810  144.4500 C   0  0  2  0  0  3  0  0  0  0  0  0
  195.5390  172.1450  143.8500 C   0  0  1  0  0  3  0  0  0  0  0  0
  195.7410  176.6590  144.7460 C   0  0  0  0  0  0  0  0  0  0  0  0
  194.8930  177.6170  145.5040 C   0  0  0  0  0  1  0  0  0  0  0  0
  195.7800  175.2860  145.1460 N   0  0  0  0  0  2  0  0  0  0  0  0
  196.4130  177.0630  143.7590 O   0  0  0  0  0  0  0  0  0  0  0  0
  187.9580  175.1110  141.8990 C   0  0  0  0  0  2  0  0  0  0  0  0
  187.0840  176.2880  141.4900 C   0  0  0  0  0  2  0  0  0  0  0  0
  187.1980  177.4040  142.5210 C   0  0  0  0  0  2  0  0  0  0  0  0
  186.8080  176.8880  143.8980 C   0  0  0  0  0  2  0  0  0  0  0  0
  189.3020  176.9180  145.5610 C   0  0  2  0  0  0  0  0  0  0  0  0
  191.9800  175.7950  145.7100 C   0  0  2  0  0  3  0  0  0  0  0  0
  190.8880  175.1190  144.8100 C   0  0  2  0  0  0  0  0  0  0  0  0
  186.1880  178.5820  147.3300 O   0  0  0  0  0  0  0  0  0  0  0  0
  187.0270  177.9170  144.9100 N   0  0  0  0  0  0  0  0  0  0  0  0
  190.3840  175.0510  147.6440 C   0  0  0  0  0  2  0  0  0  0  0  0
  190.0480  174.0160  145.4660 C   0  0  0  0  0  2  0  0  0  0  0  0
  192.3230  174.6830  144.7480 C   0  0  0  0  0  2  0  0  0  0  0  0
  186.3330  177.3980  146.4190 S   0  0  0  0  0  0  0  0  0  0  0  0
  188.4380  175.7630  146.1580 C   0  0  1  0  0  3  0  0  0  0  0  0
  184.9800  176.7840  146.1900 O   0  0  0  0  0  0  0  0  0  0  0  0
  189.3120  174.5920  146.6560 C   0  0  2  0  0  3  0  0  0  0  0  0
  190.3600  177.3600  146.6220 C   0  0  2  0  0  3  0  0  0  0  0  0
  188.4670  178.1480  145.1070 C   0  0  0  0  0  2  0  0  0  0  0  0
  191.2450  176.1650  147.0170 C   0  0  2  0  0  3  0  0  0  0  0  0
  187.4120  176.2100  147.1840 C   0  0  0  0  0  2  0  0  0  0  0  0
  190.8480  177.2900  143.6850 O   0  0  0  0  0  1  0  0  0  0  0  0
  189.7860  178.0690  147.8460 C   0  0  0  0  0  1  0  0  0  0  0  0
  190.0570  176.3280  144.3240 C   0  0  2  0  0  3  0  0  0  0  0  0
  1  5  1  0  0  0  0
  2  3  1  0  0  0  0
  2 33  1  0  0  0  0
  4  1  2  0  0  0  0
  4  6  1  0  0  0  0
  5  3  2  0  0  0  0
  6  2  2  0  0  0  0
  7  5  1  1  0  0  0
  7 12  1  0  0  0  0
  9 17  1  6  0  0  0
 10 20  1  6  0  0  0
 10  7  1  0  0  0  0
 10 14  1  0  0  0  0
 11  8  1  1  0  0  0
 11  9  1  0  0  0  0
 13  9  1  0  0  0  0
 13 23  1  0  0  0  0
 14 15  1  0  0  0  0
 14 11  1  0  0  0  0
 15 12  1  0  0  0  0
 15 13  1  0  0  0  0
 16 17  1  0  0  0  0
 17 18  1  0  0  0  0
 19 20  1  0  0  0  0
 21 20  1  0  0  0  0
 22 21  1  0  0  0  0
 23 28  1  0  0  0  0
 24 28  1  0  0  0  0
 24 27  1  0  0  0  0
 25 26  1  0  0  0  0
 27 31  1  0  0  0  0
 27 26  1  0  0  0  0
 28 25  1  0  0  0  0
 29 31  1  0  0  0  0
 29 30  1  0  0  0  0
 32 29  2  0  0  0  0
 34 33  1  0  0  0  0
 34 35  1  0  0  0  0
 35 36  1  0  0  0  0
 36 41  1  0  0  0  0
 37 46  1  0  0  0  0
 37 49  1  0  0  0  0
 38 51  1  0  0  0  0
 39 43  1  0  0  0  0
 39 38  1  0  0  0  0
 41 50  1  0  0  0  0
 41 45  1  0  0  0  0
 43 48  1  0  0  0  0
 44 39  1  0  0  0  0
 44 38  1  0  0  0  0
 45 52  1  0  0  0  0
 45 40  2  0  0  0  0
 46 48  1  0  0  0  0
 46 52  1  0  0  0  0
 47 45  2  0  0  0  0
 48 42  1  0  0  0  0
 49 51  1  0  0  0  0
 49 54  1  0  0  0  0
 50 37  1  0  0  0  0
 51 42  1  0  0  0  0
 53 55  1  0  0  0  0
 55 39  1  0  0  0  0
 55 37  1  0  0  0  0
M  END
>  <MODEL>
3

>  <REMARK>
 VINA RESULT:      -6.7      2.973      9.479
  Name = 
  12 active torsions:
  status: ('A' for Active; 'I' for Inactive)
    1  A    between atoms: C_2  and  C_44
    2  A    between atoms: C_4  and  C_40
    3  A    between atoms: N_8  and  C_43
    4  A    between atoms: C_16  and  C_17
    5  A    between atoms: C_19  and  C_40
    6  A    between atoms: C_27  and  C_54
    7  A    between atoms: N_32  and  C_48
    8  A    between atoms: C_33  and  N_36
    9  A    between atoms: C_33  and  C_52
   10  A    between atoms: C_35  and  C_43
   11  A    between atoms: C_35  and  C_51
   12  A    between atoms: C_51  and  C_54
                            x       y       z     vdW  Elec       q    Type
                         _______ _______ _______ _____ _____    ______ ____

>  <TORSDO>
F 12

$$$$
=
 OpenBabel11052419473D

 55 63  0  0  1  0  0  0  0  0999 V2000
  192.9700  171.9960  142.8800 C   0  0  0  0  0  3  0  0  0  0  0  0
  195.1000  171.5030  141.1410 C   0  0  0  0  0  0  0  0  0  0  0  0
  194.4490  172.7420  141.1140 C   0  0  0  0  0  3  0  0  0  0  0  0
  193.6120  170.7540  142.8950 C   0  0  0  0  0  3  0  0  0  0  0  0
  193.3760  172.9910  141.9760 C   0  0  0  0  0  0  0  0  0  0  0  0
  194.6750  170.5080  142.0250 C   0  0  0  0  0  3  0  0  0  0  0  0
  192.7360  174.3460  141.9760 C   0  0  2  0  0  3  0  0  0  0  0  0
  191.4470  173.7400  145.2370 C   0  0  0  0  0  1  0  0  0  0  0  0
  189.5760  175.2580  144.6480 C   0  0  2  0  0  3  0  0  0  0  0  0
  192.9490  175.0410  143.3100 C   0  0  2  0  0  3  0  0  0  0  0  0
  191.0740  175.1900  144.9200 C   0  0  2  0  0  3  0  0  0  0  0  0
  190.9600  174.2660  141.6420 S   0  0  0  0  0  0  0  0  0  0  0  0
  189.4200  175.8550  143.3280 N   0  0  0  0  0  0  0  0  0  0  0  0
  191.7400  175.7650  143.7320 N   0  0  2  0  0  0  0  0  0  0  0  0
  190.7330  175.7560  142.6740 C   0  0  1  0  0  3  0  0  0  0  0  0
  188.7210  175.2940  147.0120 C   0  0  0  0  0  1  0  0  0  0  0  0
  188.8140  176.0650  145.7070 C   0  0  0  0  0  3  0  0  0  0  0  0
  189.4250  177.4370  145.9530 C   0  0  0  0  0  1  0  0  0  0  0  0
  194.4400  176.3900  141.8300 C   0  0  0  0  0  1  0  0  0  0  0  0
  194.1670  175.9660  143.2610 C   0  0  2  0  0  3  0  0  0  0  0  0
  195.4060  175.3190  143.8710 C   0  0  0  0  0  2  0  0  0  0  0  0
  195.0210  174.4260  145.0360 C   0  0  0  0  0  1  0  0  0  0  0  0
  188.2740  175.3550  142.5440 C   0  0  0  0  0  2  0  0  0  0  0  0
  185.9960  176.2730  143.1020 C   0  0  0  0  0  2  0  0  0  0  0  0
  187.7760  177.7880  142.4620 C   0  0  0  0  0  2  0  0  0  0  0  0
  186.5990  178.6200  142.9170 C   0  0  0  0  0  2  0  0  0  0  0  0
  185.6520  177.6600  143.6130 C   0  0  2  0  0  3  0  0  0  0  0  0
  187.2150  176.4100  142.2010 C   0  0  1  0  0  3  0  0  0  0  0  0
  184.9670  178.3330  145.9620 C   0  0  0  0  0  0  0  0  0  0  0  0
  185.2590  178.3130  147.4200 C   0  0  0  0  0  1  0  0  0  0  0  0
  185.8710  177.6950  145.0550 N   0  0  0  0  0  2  0  0  0  0  0  0
  183.9270  178.9080  145.5380 O   0  0  0  0  0  0  0  0  0  0  0  0
  196.2690  171.2500  140.2540 C   0  0  0  0  0  2  0  0  0  0  0  0
  195.8220  171.0200  138.8170 C   0  0  0  0  0  2  0  0  0  0  0  0
  195.9570  172.3080  138.0170 C   0  0  0  0  0  2  0  0  0  0  0  0
  194.7890  172.4530  137.0530 C   0  0  0  0  0  2  0  0  0  0  0  0
  191.8620  172.0480  137.5560 C   0  0  2  0  0  0  0  0  0  0  0  0
  189.8710  169.9770  138.0040 C   0  0  2  0  0  3  0  0  0  0  0  0
  191.2610  169.6150  137.3760 C   0  0  2  0  0  0  0  0  0  0  0  0
  192.7880  175.7100  136.4050 O   0  0  0  0  0  0  0  0  0  0  0  0
  193.9320  173.5650  137.4510 N   0  0  0  0  0  0  0  0  0  0  0  0
  189.5710  171.3040  135.7700 C   0  0  0  0  0  2  0  0  0  0  0  0
  191.3490  169.6410  135.8450 C   0  0  0  0  0  2  0  0  0  0  0  0
  190.3000  168.5440  137.8030 C   0  0  0  0  0  2  0  0  0  0  0  0
  193.3170  174.3570  136.0280 S   0  0  0  0  0  0  0  0  0  0  0  0
  192.0070  172.0210  136.0020 C   0  0  1  0  0  3  0  0  0  0  0  0
  194.4080  174.5200  135.0070 O   0  0  0  0  0  0  0  0  0  0  0  0
  191.0160  171.0330  135.3510 C   0  0  2  0  0  3  0  0  0  0  0  0
  190.3750  172.3530  137.9220 C   0  0  2  0  0  3  0  0  0  0  0  0
  192.7950  173.0800  138.2500 C   0  0  0  0  0  2  0  0  0  0  0  0
  189.4490  171.2880  137.3060 C   0  0  2  0  0  3  0  0  0  0  0  0
  191.9910  173.3890  135.3440 C   0  0  0  0  0  2  0  0  0  0  0  0
  192.1460  170.5260  139.4670 O   0  0  0  0  0  1  0  0  0  0  0  0
  189.9080  173.7690  137.5910 C   0  0  0  0  0  1  0  0  0  0  0  0
  192.2140  170.6130  138.0710 C   0  0  2  0  0  3  0  0  0  0  0  0
  1  4  1  0  0  0  0
  2  6  1  0  0  0  0
  3  2  2  0  0  0  0
  3  5  1  0  0  0  0
  5  1  2  0  0  0  0
  6  4  2  0  0  0  0
  7  5  1  1  0  0  0
  7 10  1  0  0  0  0
  9 11  1  0  0  0  0
  9 17  1  1  0  0  0
 10 20  1  6  0  0  0
 10 14  1  0  0  0  0
 11  8  1  6  0  0  0
 12  7  1  0  0  0  0
 12 15  1  0  0  0  0
 13  9  1  0  0  0  0
 14 11  1  0  0  0  0
 15 13  1  0  0  0  0
 15 14  1  0  0  0  0
 17 18  1  0  0  0  0
 17 16  1  0  0  0  0
 19 20  1  0  0  0  0
 20 21  1  0  0  0  0
 21 22  1  0  0  0  0
 23 13  1  0  0  0  0
 24 27  1  0  0  0  0
 25 26  1  0  0  0  0
 26 27  1  0  0  0  0
 27 31  1  0  0  0  0
 28 25  1  0  0  0  0
 28 23  1  0  0  0  0
 28 24  1  0  0  0  0
 29 30  1  0  0  0  0
 31 29  1  0  0  0  0
 32 29  2  0  0  0  0
 33  2  1  0  0  0  0
 34 33  1  0  0  0  0
 35 34  1  0  0  0  0
 36 41  1  0  0  0  0
 36 35  1  0  0  0  0
 37 49  1  0  0  0  0
 37 55  1  0  0  0  0
 37 50  1  0  0  0  0
 39 44  1  0  0  0  0
 39 38  1  0  0  0  0
 39 55  1  0  0  0  0
 41 50  1  0  0  0  0
 42 51  1  0  0  0  0
 43 39  1  0  0  0  0
 44 38  1  0  0  0  0
 45 40  2  0  0  0  0
 45 41  1  0  0  0  0
 46 37  1  0  0  0  0
 47 45  2  0  0  0  0
 48 42  1  0  0  0  0
 48 43  1  0  0  0  0
 48 46  1  0  0  0  0
 51 49  1  0  0  0  0
 51 38  1  0  0  0  0
 52 46  1  0  0  0  0
 52 45  1  0  0  0  0
 54 49  1  0  0  0  0
 55 53  1  0  0  0  0
M  END
>  <MODEL>
4

>  <REMARK>
 VINA RESULT:      -6.6      3.122      5.542
  Name = 
  12 active torsions:
  status: ('A' for Active; 'I' for Inactive)
    1  A    between atoms: C_2  and  C_44
    2  A    between atoms: C_4  and  C_40
    3  A    between atoms: N_8  and  C_43
    4  A    between atoms: C_16  and  C_17
    5  A    between atoms: C_19  and  C_40
    6  A    between atoms: C_27  and  C_54
    7  A    between atoms: N_32  and  C_48
    8  A    between atoms: C_33  and  N_36
    9  A    between atoms: C_33  and  C_52
   10  A    between atoms: C_35  and  C_43
   11  A    between atoms: C_35  and  C_51
   12  A    between atoms: C_51  and  C_54
                            x       y       z     vdW  Elec       q    Type
                         _______ _______ _______ _____ _____    ______ ____

>  <TORSDO>
F 12

$$$$
=
 OpenBabel11052419473D

 55 63  0  0  1  0  0  0  0  0999 V2000
  194.5100  172.7000  145.2050 C   0  0  0  0  0  3  0  0  0  0  0  0
  194.0720  170.4710  143.5790 C   0  0  0  0  0  0  0  0  0  0  0  0
  193.5440  171.7160  143.2150 C   0  0  0  0  0  3  0  0  0  0  0  0
  195.0250  171.4530  145.5740 C   0  0  0  0  0  3  0  0  0  0  0  0
  193.7530  172.8330  144.0310 C   0  0  0  0  0  0  0  0  0  0  0  0
  194.8050  170.3400  144.7620 C   0  0  0  0  0  3  0  0  0  0  0  0
  193.2340  174.1680  143.5900 C   0  0  2  0  0  3  0  0  0  0  0  0
  191.4480  174.4870  146.6510 C   0  0  0  0  0  1  0  0  0  0  0  0
  189.8120  175.8790  145.4120 C   0  0  2  0  0  3  0  0  0  0  0  0
  193.3110  175.1760  144.7240 C   0  0  2  0  0  3  0  0  0  0  0  0
  191.2450  175.8190  145.9260 C   0  0  2  0  0  3  0  0  0  0  0  0
  191.5230  174.0810  143.0090 S   0  0  0  0  0  0  0  0  0  0  0  0
  189.8950  176.1180  143.9760 N   0  0  0  0  0  0  0  0  0  0  0  0
  192.1180  176.0360  144.7540 N   0  0  2  0  0  0  0  0  0  0  0  0
  191.2750  175.7960  143.5860 C   0  0  1  0  0  3  0  0  0  0  0  0
  187.6540  176.4020  146.5910 C   0  0  0  0  0  1  0  0  0  0  0  0
  188.9760  176.9650  146.1000 C   0  0  0  0  0  3  0  0  0  0  0  0
  189.7160  177.6370  147.2470 C   0  0  0  0  0  1  0  0  0  0  0  0
  194.4320  177.3010  145.4060 C   0  0  0  0  0  1  0  0  0  0  0  0
  194.5960  176.0030  144.6390 C   0  0  2  0  0  3  0  0  0  0  0  0
  195.0030  176.2850  143.1960 C   0  0  0  0  0  2  0  0  0  0  0  0
  196.4730  176.6540  143.1200 C   0  0  0  0  0  1  0  0  0  0  0  0
  188.8350  175.4810  143.1710 C   0  0  0  0  0  2  0  0  0  0  0  0
  186.5010  176.3070  142.7070 C   0  0  0  0  0  2  0  0  0  0  0  0
  188.3520  177.8720  142.6960 C   0  0  0  0  0  2  0  0  0  0  0  0
  187.0710  178.6660  142.5790 C   0  0  0  0  0  2  0  0  0  0  0  0
  185.9500  177.7050  142.9230 C   0  0  2  0  0  3  0  0  0  0  0  0
  187.9750  176.4510  142.3510 C   0  0  1  0  0  3  0  0  0  0  0  0
  184.4010  178.5480  144.7480 C   0  0  0  0  0  0  0  0  0  0  0  0
  184.0880  178.6380  146.1990 C   0  0  0  0  0  1  0  0  0  0  0  0
  185.5760  177.8490  144.3250 N   0  0  0  0  0  2  0  0  0  0  0  0
  183.6320  179.0830  143.9060 O   0  0  0  0  0  0  0  0  0  0  0  0
  193.8870  169.2900  142.6920 C   0  0  0  0  0  2  0  0  0  0  0  0
  192.4190  168.8970  142.6070 C   0  0  0  0  0  2  0  0  0  0  0  0
  191.9270  169.0310  141.1720 C   0  0  0  0  0  2  0  0  0  0  0  0
  191.4540  170.4530  140.9080 C   0  0  0  0  0  2  0  0  0  0  0  0
  193.1030  171.7370  138.7590 C   0  0  2  0  0  0  0  0  0  0  0  0
  195.8130  172.5900  138.1400 C   0  0  2  0  0  3  0  0  0  0  0  0
  195.3900  172.3180  139.6250 C   0  0  2  0  0  0  0  0  0  0  0  0
  189.2100  172.0140  138.1590 O   0  0  0  0  0  0  0  0  0  0  0  0
  190.9490  170.5800  139.5450 N   0  0  0  0  0  0  0  0  0  0  0  0
  194.0820  174.5410  138.3440 C   0  0  0  0  0  2  0  0  0  0  0  0
  194.8550  173.5190  140.4150 C   0  0  0  0  0  2  0  0  0  0  0  0
  196.8250  172.5600  139.2590 C   0  0  0  0  0  2  0  0  0  0  0  0
  190.0590  172.0670  139.3960 S   0  0  0  0  0  0  0  0  0  0  0  0
  192.5850  172.9260  139.6290 C   0  0  1  0  0  3  0  0  0  0  0  0
  189.1740  172.2700  140.5940 O   0  0  0  0  0  0  0  0  0  0  0  0
  193.6240  174.0630  139.7220 C   0  0  2  0  0  3  0  0  0  0  0  0
  193.5320  172.2820  137.3590 C   0  0  2  0  0  3  0  0  0  0  0  0
  192.0620  170.5970  138.5820 C   0  0  0  0  0  2  0  0  0  0  0  0
  194.6230  173.3560  137.5210 C   0  0  2  0  0  3  0  0  0  0  0  0
  191.2000  173.4230  139.2540 C   0  0  0  0  0  2  0  0  0  0  0  0
  194.9080  170.0670  138.7970 O   0  0  0  0  0  1  0  0  0  0  0  0
  192.3840  172.7700  136.4790 C   0  0  0  0  0  1  0  0  0  0  0  0
  194.3700  171.1660  139.4780 C   0  0  2  0  0  3  0  0  0  0  0  0
  1  4  1  0  0  0  0
  2  6  1  0  0  0  0
  3  2  2  0  0  0  0
  3  5  1  0  0  0  0
  5  1  2  0  0  0  0
  6  4  2  0  0  0  0
  7  5  1  1  0  0  0
  7 10  1  0  0  0  0
  9 11  1  0  0  0  0
  9 17  1  1  0  0  0
 10 20  1  6  0  0  0
 10 14  1  0  0  0  0
 11  8  1  6  0  0  0
 12 15  1  0  0  0  0
 12  7  1  0  0  0  0
 13  9  1  0  0  0  0
 14 11  1  0  0  0  0
 15 13  1  0  0  0  0
 15 14  1  0  0  0  0
 17 16  1  0  0  0  0
 17 18  1  0  0  0  0
 20 19  1  0  0  0  0
 21 20  1  0  0  0  0
 22 21  1  0  0  0  0
 23 13  1  0  0  0  0
 24 27  1  0  0  0  0
 26 25  1  0  0  0  0
 26 27  1  0  0  0  0
 27 31  1  0  0  0  0
 28 25  1  0  0  0  0
 28 24  1  0  0  0  0
 28 23  1  0  0  0  0
 29 30  1  0  0  0  0
 31 29  1  0  0  0  0
 32 29  2  0  0  0  0
 33  2  1  0  0  0  0
 34 33  1  0  0  0  0
 35 34  1  0  0  0  0
 36 35  1  0  0  0  0
 37 55  1  0  0  0  0
 37 46  1  0  0  0  0
 38 44  1  0  0  0  0
 38 39  1  0  0  0  0
 39 43  1  0  0  0  0
 40 45  2  0  0  0  0
 41 36  1  0  0  0  0
 42 48  1  0  0  0  0
 44 39  1  0  0  0  0
 45 41  1  0  0  0  0
 45 47  2  0  0  0  0
 46 48  1  0  0  0  0
 48 43  1  0  0  0  0
 49 51  1  0  0  0  0
 49 37  1  0  0  0  0
 50 37  1  0  0  0  0
 50 41  1  0  0  0  0
 51 38  1  0  0  0  0
 51 42  1  0  0  0  0
 52 45  1  0  0  0  0
 52 46  1  0  0  0  0
 53 55  1  0  0  0  0
 54 49  1  0  0  0  0
 55 39  1  0  0  0  0
M  END
>  <MODEL>
5

>  <REMARK>
 VINA RESULT:      -6.6      2.190      4.203
  Name = 
  12 active torsions:
  status: ('A' for Active; 'I' for Inactive)
    1  A    between atoms: C_2  and  C_44
    2  A    between atoms: C_4  and  C_40
    3  A    between atoms: N_8  and  C_43
    4  A    between atoms: C_16  and  C_17
    5  A    between atoms: C_19  and  C_40
    6  A    between atoms: C_27  and  C_54
    7  A    between atoms: N_32  and  C_48
    8  A    between atoms: C_33  and  N_36
    9  A    between atoms: C_33  and  C_52
   10  A    between atoms: C_35  and  C_43
   11  A    between atoms: C_35  and  C_51
   12  A    between atoms: C_51  and  C_54
                            x       y       z     vdW  Elec       q    Type
                         _______ _______ _______ _____ _____    ______ ____

>  <TORSDO>
F 12

$$$$
=
 OpenBabel11052419473D

 55 63  0  0  1  0  0  0  0  0999 V2000
  187.4930  176.7480  143.0360 C   0  0  0  0  0  3  0  0  0  0  0  0
  187.9870  175.2980  140.6990 C   0  0  0  0  0  0  0  0  0  0  0  0
  188.6710  174.9770  141.8790 C   0  0  0  0  0  3  0  0  0  0  0  0
  186.8220  177.0760  141.8540 C   0  0  0  0  0  3  0  0  0  0  0  0
  188.4330  175.7060  143.0490 C   0  0  0  0  0  0  0  0  0  0  0  0
  187.0710  176.3520  140.6870 C   0  0  0  0  0  3  0  0  0  0  0  0
  189.1270  175.3030  144.3140 C   0  0  2  0  0  3  0  0  0  0  0  0
  191.9430  177.2760  143.4000 C   0  0  0  0  0  1  0  0  0  0  0  0
  193.3290  175.6870  144.7050 C   0  0  2  0  0  3  0  0  0  0  0  0
  189.7970  176.5010  144.9660 C   0  0  2  0  0  3  0  0  0  0  0  0
  192.2530  176.7610  144.8070 C   0  0  2  0  0  3  0  0  0  0  0  0
  190.3760  174.0240  144.0350 S   0  0  0  0  0  0  0  0  0  0  0  0
  192.7870  174.4930  145.3410 N   0  0  0  0  0  0  0  0  0  0  0  0
  191.1130  176.1430  145.5150 N   0  0  2  0  0  0  0  0  0  0  0  0
  191.3350  174.7010  145.4350 C   0  0  1  0  0  3  0  0  0  0  0  0
  195.6080  176.6820  144.3330 C   0  0  0  0  0  1  0  0  0  0  0  0
  194.6520  176.1030  145.3610 C   0  0  0  0  0  3  0  0  0  0  0  0
  194.4560  177.0880  146.5050 C   0  0  0  0  0  1  0  0  0  0  0  0
  189.7340  177.6650  147.1750 C   0  0  0  0  0  1  0  0  0  0  0  0
  188.8940  177.1230  146.0340 C   0  0  2  0  0  3  0  0  0  0  0  0
  187.8590  176.1330  146.5580 C   0  0  0  0  0  2  0  0  0  0  0  0
  186.5080  176.8070  146.7140 C   0  0  0  0  0  1  0  0  0  0  0  0
  193.2140  173.2130  144.7430 C   0  0  0  0  0  2  0  0  0  0  0  0
  194.2190  170.9310  145.0960 C   0  0  0  0  0  2  0  0  0  0  0  0
  195.5160  172.9080  145.6280 C   0  0  0  0  0  2  0  0  0  0  0  0
  196.4260  171.7080  145.7560 C   0  0  0  0  0  2  0  0  0  0  0  0
  195.6900  170.5530  145.1020 C   0  0  2  0  0  3  0  0  0  0  0  0
  194.1130  172.3500  145.6370 C   0  0  1  0  0  3  0  0  0  0  0  0
  197.1720  169.4760  143.3470 C   0  0  0  0  0  0  0  0  0  0  0  0
  197.5590  169.3600  141.9160 C   0  0  0  0  0  1  0  0  0  0  0  0
  196.1360  170.3880  143.7240 N   0  0  0  0  0  2  0  0  0  0  0  0
  197.7560  168.7700  144.2140 O   0  0  0  0  0  0  0  0  0  0  0  0
  188.2070  174.4980  139.4640 C   0  0  0  0  0  2  0  0  0  0  0  0
  188.1970  173.0070  139.7720 C   0  0  0  0  0  2  0  0  0  0  0  0
  189.6250  172.4820  139.8500 C   0  0  0  0  0  2  0  0  0  0  0  0
  190.5640  173.3950  139.0750 C   0  0  0  0  0  2  0  0  0  0  0  0
  193.5240  172.9260  139.0860 C   0  0  2  0  0  0  0  0  0  0  0  0
  195.8620  173.0280  140.8120 C   0  0  2  0  0  3  0  0  0  0  0  0
  194.5490  173.7830  141.2150 C   0  0  2  0  0  0  0  0  0  0  0  0
  191.9360  172.9980  135.4710 O   0  0  0  0  0  0  0  0  0  0  0  0
  191.2140  172.6610  137.9950 N   0  0  0  0  0  0  0  0  0  0  0  0
  195.8790  174.7690  138.8600 C   0  0  0  0  0  2  0  0  0  0  0  0
  194.4310  175.2420  140.7590 C   0  0  0  0  0  2  0  0  0  0  0  0
  195.6940  173.6510  142.1770 C   0  0  0  0  0  2  0  0  0  0  0  0
  191.6520  173.7700  136.7270 S   0  0  0  0  0  0  0  0  0  0  0  0
  193.3590  174.4260  138.6840 C   0  0  1  0  0  3  0  0  0  0  0  0
  190.5320  174.7380  136.4680 O   0  0  0  0  0  0  0  0  0  0  0  0
  194.5000  175.2990  139.2480 C   0  0  2  0  0  3  0  0  0  0  0  0
  194.9390  172.4350  138.6430 C   0  0  2  0  0  3  0  0  0  0  0  0
  192.4340  171.9970  138.4840 C   0  0  0  0  0  2  0  0  0  0  0  0
  196.0300  173.3000  139.3010 C   0  0  2  0  0  3  0  0  0  0  0  0
  193.1180  174.6570  137.2020 C   0  0  0  0  0  2  0  0  0  0  0  0
  193.5510  171.5510  141.1250 O   0  0  0  0  0  1  0  0  0  0  0  0
  195.1380  172.3240  137.1330 C   0  0  0  0  0  1  0  0  0  0  0  0
  193.4440  172.8640  140.6470 C   0  0  2  0  0  3  0  0  0  0  0  0
  1  5  1  0  0  0  0
  2  3  1  0  0  0  0
  3  5  2  0  0  0  0
  4  1  2  0  0  0  0
  6  2  2  0  0  0  0
  6  4  1  0  0  0  0
  7  5  1  6  0  0  0
  7 10  1  0  0  0  0
  9 11  1  0  0  0  0
  9 13  1  0  0  0  0
  9 17  1  1  0  0  0
 10 14  1  0  0  0  0
 10 20  1  1  0  0  0
 11  8  1  6  0  0  0
 11 14  1  0  0  0  0
 12  7  1  0  0  0  0
 12 15  1  0  0  0  0
 13 15  1  0  0  0  0
 15 14  1  0  0  0  0
 16 17  1  0  0  0  0
 17 18  1  0  0  0  0
 20 21  1  0  0  0  0
 20 19  1  0  0  0  0
 21 22  1  0  0  0  0
 23 13  1  0  0  0  0
 23 28  1  0  0  0  0
 24 27  1  0  0  0  0
 24 28  1  0  0  0  0
 25 28  1  0  0  0  0
 25 26  1  0  0  0  0
 27 26  1  0  0  0  0
 29 31  1  0  0  0  0
 29 32  2  0  0  0  0
 30 29  1  0  0  0  0
 31 27  1  0  0  0  0
 33 34  1  0  0  0  0
 33  2  1  0  0  0  0
 34 35  1  0  0  0  0
 36 35  1  0  0  0  0
 37 55  1  0  0  0  0
 38 39  1  0  0  0  0
 38 44  1  0  0  0  0
 39 44  1  0  0  0  0
 40 45  2  0  0  0  0
 41 50  1  0  0  0  0
 41 36  1  0  0  0  0
 42 48  1  0  0  0  0
 42 51  1  0  0  0  0
 43 39  1  0  0  0  0
 45 52  1  0  0  0  0
 45 41  1  0  0  0  0
 46 37  1  0  0  0  0
 46 48  1  0  0  0  0
 47 45  2  0  0  0  0
 48 43  1  0  0  0  0
 49 37  1  0  0  0  0
 49 51  1  0  0  0  0
 50 37  1  0  0  0  0
 51 38  1  0  0  0  0
 52 46  1  0  0  0  0
 54 49  1  0  0  0  0
 55 53  1  0  0  0  0
 55 39  1  0  0  0  0
M  END
>  <MODEL>
6

>  <REMARK>
 VINA RESULT:      -6.5      2.642      7.513
  Name = 
  12 active torsions:
  status: ('A' for Active; 'I' for Inactive)
    1  A    between atoms: C_2  and  C_44
    2  A    between atoms: C_4  and  C_40
    3  A    between atoms: N_8  and  C_43
    4  A    between atoms: C_16  and  C_17
    5  A    between atoms: C_19  and  C_40
    6  A    between atoms: C_27  and  C_54
    7  A    between atoms: N_32  and  C_48
    8  A    between atoms: C_33  and  N_36
    9  A    between atoms: C_33  and  C_52
   10  A    between atoms: C_35  and  C_43
   11  A    between atoms: C_35  and  C_51
   12  A    between atoms: C_51  and  C_54
                            x       y       z     vdW  Elec       q    Type
                         _______ _______ _______ _____ _____    ______ ____

>  <TORSDO>
F 12

$$$$
=
 OpenBabel11052419473D

 55 63  0  0  1  0  0  0  0  0999 V2000
  195.8350  176.3520  143.9970 C   0  0  0  0  0  3  0  0  0  0  0  0
  195.7300  175.8040  141.2590 C   0  0  0  0  0  0  0  0  0  0  0  0
  194.7030  175.3590  142.1000 C   0  0  0  0  0  3  0  0  0  0  0  0
  196.8670  176.7830  143.1570 C   0  0  0  0  0  3  0  0  0  0  0  0
  194.7560  175.6240  143.4730 C   0  0  0  0  0  0  0  0  0  0  0  0
  196.8140  176.5080  141.7900 C   0  0  0  0  0  3  0  0  0  0  0  0
  193.6140  175.1950  144.3440 C   0  0  2  0  0  3  0  0  0  0  0  0
  191.5310  174.9050  141.4740 C   0  0  0  0  0  1  0  0  0  0  0  0
  189.6160  175.4320  142.9580 C   0  0  2  0  0  3  0  0  0  0  0  0
  192.8760  174.0200  143.7240 C   0  0  2  0  0  3  0  0  0  0  0  0
  190.6830  174.3920  142.6390 C   0  0  2  0  0  3  0  0  0  0  0  0
  192.4310  176.5330  144.6320 S   0  0  0  0  0  0  0  0  0  0  0  0
  189.7700  175.7660  144.3690 N   0  0  0  0  0  0  0  0  0  0  0  0
  191.4220  174.1530  143.8960 N   0  0  2  0  0  0  0  0  0  0  0  0
  191.1020  175.2860  144.7620 C   0  0  1  0  0  3  0  0  0  0  0  0
  187.4430  175.9310  141.7960 C   0  0  0  0  0  1  0  0  0  0  0  0
  188.1940  174.9370  142.6650 C   0  0  0  0  0  3  0  0  0  0  0  0
  188.1730  173.5590  142.0210 C   0  0  0  0  0  1  0  0  0  0  0  0
  192.2690  171.6670  144.2990 C   0  0  0  0  0  1  0  0  0  0  0  0
  193.3880  172.6910  144.2860 C   0  0  2  0  0  3  0  0  0  0  0  0
  193.9830  172.8480  145.6820 C   0  0  0  0  0  2  0  0  0  0  0  0
  195.4600  172.5030  145.6730 C   0  0  0  0  0  1  0  0  0  0  0  0
  189.4640  177.1670  144.7200 C   0  0  0  0  0  2  0  0  0  0  0  0
  187.3590  178.3710  145.4030 C   0  0  0  0  0  2  0  0  0  0  0  0
  187.6590  176.0420  146.0050 C   0  0  0  0  0  2  0  0  0  0  0  0
  186.2470  176.4390  146.3720 C   0  0  0  0  0  2  0  0  0  0  0  0
  185.9950  177.7690  145.6870 C   0  0  2  0  0  3  0  0  0  0  0  0
  188.4030  177.3420  145.8140 C   0  0  1  0  0  3  0  0  0  0  0  0
  184.5420  178.5840  143.7720 C   0  0  0  0  0  0  0  0  0  0  0  0
  183.8760  178.2890  142.4760 C   0  0  0  0  0  1  0  0  0  0  0  0
  185.3020  177.5590  144.4210 N   0  0  0  0  0  2  0  0  0  0  0  0
  184.4340  179.7300  144.2870 O   0  0  0  0  0  0  0  0  0  0  0  0
  195.6560  175.5610  139.7920 C   0  0  0  0  0  2  0  0  0  0  0  0
  194.7240  174.3990  139.4790 C   0  0  0  0  0  2  0  0  0  0  0  0
  195.5040  173.2690  138.8210 C   0  0  0  0  0  2  0  0  0  0  0  0
  194.6810  171.9890  138.8290 C   0  0  0  0  0  2  0  0  0  0  0  0
  192.1150  171.6890  137.3090 C   0  0  2  0  0  0  0  0  0  0  0  0
  189.3510  172.5920  137.2610 C   0  0  2  0  0  3  0  0  0  0  0  0
  190.2150  172.7570  138.5600 C   0  0  2  0  0  0  0  0  0  0  0  0
  194.8540  169.0090  136.3540 O   0  0  0  0  0  0  0  0  0  0  0  0
  194.6580  171.3870  137.5000 N   0  0  0  0  0  0  0  0  0  0  0  0
  189.6510  170.0440  137.7760 C   0  0  0  0  0  2  0  0  0  0  0  0
  190.1530  171.6090  139.5740 C   0  0  0  0  0  2  0  0  0  0  0  0
  188.8600  173.3940  138.4420 C   0  0  0  0  0  2  0  0  0  0  0  0
  194.4730  169.6630  137.6510 S   0  0  0  0  0  0  0  0  0  0  0  0
  192.0670  170.5710  138.3980 C   0  0  1  0  0  3  0  0  0  0  0  0
  195.3560  169.1360  138.7470 O   0  0  0  0  0  0  0  0  0  0  0  0
  190.6310  170.3340  138.9120 C   0  0  2  0  0  3  0  0  0  0  0  0
  191.1140  171.3270  136.1660 C   0  0  2  0  0  3  0  0  0  0  0  0
  193.5320  171.9160  136.7130 C   0  0  0  0  0  2  0  0  0  0  0  0
  189.6910  171.1800  136.7350 C   0  0  2  0  0  3  0  0  0  0  0  0
  192.7740  169.2840  138.0100 C   0  0  0  0  0  2  0  0  0  0  0  0
  191.6590  174.0970  137.1100 O   0  0  0  0  0  1  0  0  0  0  0  0
  191.5120  170.1200  135.3190 C   0  0  0  0  0  1  0  0  0  0  0  0
  191.6300  173.0100  137.9920 C   0  0  2  0  0  3  0  0  0  0  0  0
  2  6  2  0  0  0  0
  2  3  1  0  0  0  0
  3  5  2  0  0  0  0
  4  1  2  0  0  0  0
  5  1  1  0  0  0  0
  6  4  1  0  0  0  0
  7  5  1  6  0  0  0
  7 12  1  0  0  0  0
  9 17  1  1  0  0  0
  9 13  1  0  0  0  0
 10 14  1  0  0  0  0
 10 20  1  1  0  0  0
 10  7  1  0  0  0  0
 11  8  1  6  0  0  0
 11  9  1  0  0  0  0
 11 14  1  0  0  0  0
 12 15  1  0  0  0  0
 13 23  1  0  0  0  0
 13 15  1  0  0  0  0
 14 15  1  0  0  0  0
 16 17  1  0  0  0  0
 18 17  1  0  0  0  0
 20 19  1  0  0  0  0
 20 21  1  0  0  0  0
 22 21  1  0  0  0  0
 23 28  1  0  0  0  0
 24 27  1  0  0  0  0
 24 28  1  0  0  0  0
 25 26  1  0  0  0  0
 27 26  1  0  0  0  0
 28 25  1  0  0  0  0
 29 32  2  0  0  0  0
 29 31  1  0  0  0  0
 30 29  1  0  0  0  0
 31 27  1  0  0  0  0
 33  2  1  0  0  0  0
 34 33  1  0  0  0  0
 35 36  1  0  0  0  0
 35 34  1  0  0  0  0
 37 55  1  0  0  0  0
 37 46  1  0  0  0  0
 38 44  1  0  0  0  0
 38 39  1  0  0  0  0
 39 43  1  0  0  0  0
 40 45  2  0  0  0  0
 41 45  1  0  0  0  0
 41 36  1  0  0  0  0
 42 48  1  0  0  0  0
 44 39  1  0  0  0  0
 45 52  1  0  0  0  0
 45 47  2  0  0  0  0
 46 48  1  0  0  0  0
 48 43  1  0  0  0  0
 49 51  1  0  0  0  0
 49 37  1  0  0  0  0
 50 37  1  0  0  0  0
 50 41  1  0  0  0  0
 51 38  1  0  0  0  0
 51 42  1  0  0  0  0
 52 46  1  0  0  0  0
 53 55  1  0  0  0  0
 54 49  1  0  0  0  0
 55 39  1  0  0  0  0
M  END
>  <MODEL>
7

>  <REMARK>
 VINA RESULT:      -6.4      2.588      4.286
  Name = 
  12 active torsions:
  status: ('A' for Active; 'I' for Inactive)
    1  A    between atoms: C_2  and  C_44
    2  A    between atoms: C_4  and  C_40
    3  A    between atoms: N_8  and  C_43
    4  A    between atoms: C_16  and  C_17
    5  A    between atoms: C_19  and  C_40
    6  A    between atoms: C_27  and  C_54
    7  A    between atoms: N_32  and  C_48
    8  A    between atoms: C_33  and  N_36
    9  A    between atoms: C_33  and  C_52
   10  A    between atoms: C_35  and  C_43
   11  A    between atoms: C_35  and  C_51
   12  A    between atoms: C_51  and  C_54
                            x       y       z     vdW  Elec       q    Type
                         _______ _______ _______ _____ _____    ______ ____

>  <TORSDO>
F 12

$$$$
=
 OpenBabel11052419473D

 55 63  0  0  1  0  0  0  0  0999 V2000
  195.4800  176.4290  144.3100 C   0  0  0  0  0  3  0  0  0  0  0  0
  193.3650  176.1870  146.1190 C   0  0  0  0  0  0  0  0  0  0  0  0
  193.5890  175.1840  145.1680 C   0  0  0  0  0  3  0  0  0  0  0  0
  195.2460  177.4370  145.2510 C   0  0  0  0  0  3  0  0  0  0  0  0
  194.6420  175.3050  144.2540 C   0  0  0  0  0  0  0  0  0  0  0  0
  194.1880  177.3150  146.1540 C   0  0  0  0  0  3  0  0  0  0  0  0
  194.9040  174.1900  143.2890 C   0  0  2  0  0  3  0  0  0  0  0  0
  196.7470  176.4170  141.2140 C   0  0  0  0  0  1  0  0  0  0  0  0
  196.0660  175.0020  139.2950 C   0  0  2  0  0  3  0  0  0  0  0  0
  196.3520  174.2050  142.8290 C   0  0  2  0  0  3  0  0  0  0  0  0
  196.9060  175.0400  140.5660 C   0  0  2  0  0  3  0  0  0  0  0  0
  193.8350  174.2790  141.8320 S   0  0  0  0  0  0  0  0  0  0  0  0
  195.1660  173.8630  139.4250 N   0  0  0  0  0  0  0  0  0  0  0  0
  196.4600  173.9010  141.3950 N   0  0  2  0  0  0  0  0  0  0  0  0
  195.1640  173.5010  140.8490 C   0  0  1  0  0  3  0  0  0  0  0  0
  197.1970  173.4320  137.6890 C   0  0  0  0  0  1  0  0  0  0  0  0
  196.9150  174.8860  138.0220 C   0  0  0  0  0  3  0  0  0  0  0  0
  196.2790  175.5830  136.8280 C   0  0  0  0  0  1  0  0  0  0  0  0
  197.9240  172.2650  142.7690 C   0  0  0  0  0  1  0  0  0  0  0  0
  197.2050  173.2510  143.6690 C   0  0  2  0  0  3  0  0  0  0  0  0
  196.3790  172.5120  144.7170 C   0  0  0  0  0  2  0  0  0  0  0  0
  196.8150  172.9080  146.1160 C   0  0  0  0  0  1  0  0  0  0  0  0
  193.8380  174.0380  138.8060 C   0  0  0  0  0  2  0  0  0  0  0  0
  191.6870  172.7680  139.1300 C   0  0  0  0  0  2  0  0  0  0  0  0
  192.8840  172.5840  137.0310 C   0  0  0  0  0  2  0  0  0  0  0  0
  191.5560  171.8790  136.8720 C   0  0  0  0  0  2  0  0  0  0  0  0
  190.7150  172.2980  138.0630 C   0  0  2  0  0  3  0  0  0  0  0  0
  193.0810  172.7340  138.5200 C   0  0  1  0  0  3  0  0  0  0  0  0
  188.5810  173.6450  138.3270 C   0  0  0  0  0  0  0  0  0  0  0  0
  187.7600  174.8110  137.9030 C   0  0  0  0  0  1  0  0  0  0  0  0
  189.8450  173.4100  137.6990 N   0  0  0  0  0  2  0  0  0  0  0  0
  188.1590  172.8780  139.2340 O   0  0  0  0  0  0  0  0  0  0  0  0
  192.2720  176.0410  147.1190 C   0  0  0  0  0  2  0  0  0  0  0  0
  191.4700  174.7720  146.8680 C   0  0  0  0  0  2  0  0  0  0  0  0
  189.9790  175.0770  146.9370 C   0  0  0  0  0  2  0  0  0  0  0  0
  189.3160  174.7630  145.6040 C   0  0  0  0  0  2  0  0  0  0  0  0
  188.1010  177.1900  144.3310 C   0  0  2  0  0  0  0  0  0  0  0  0
  186.0260  179.1910  144.7100 C   0  0  2  0  0  3  0  0  0  0  0  0
  185.9850  177.8470  145.5170 C   0  0  2  0  0  0  0  0  0  0  0  0
  190.5110  175.1740  141.9390 O   0  0  0  0  0  0  0  0  0  0  0  0
  189.9930  175.4630  144.5180 N   0  0  0  0  0  0  0  0  0  0  0  0
  185.6390  177.6020  142.6690 C   0  0  0  0  0  2  0  0  0  0  0  0
  185.1970  176.6930  144.8850 C   0  0  0  0  0  2  0  0  0  0  0  0
  185.0480  178.9740  145.8390 C   0  0  0  0  0  2  0  0  0  0  0  0
  189.5350  174.7500  142.9980 S   0  0  0  0  0  0  0  0  0  0  0  0
  187.2850  175.9880  143.7590 C   0  0  1  0  0  3  0  0  0  0  0  0
  189.5370  173.2510  143.1010 O   0  0  0  0  0  0  0  0  0  0  0  0
  185.8020  176.3560  143.5390 C   0  0  2  0  0  3  0  0  0  0  0  0
  187.9160  178.4220  143.3900 C   0  0  2  0  0  3  0  0  0  0  0  0
  189.6150  176.8860  144.5060 C   0  0  0  0  0  2  0  0  0  0  0  0
  186.4230  178.7820  143.2750 C   0  0  2  0  0  3  0  0  0  0  0  0
  187.9120  175.3210  142.5480 C   0  0  0  0  0  2  0  0  0  0  0  0
  188.1610  178.5880  146.3520 O   0  0  0  0  0  1  0  0  0  0  0  0
  188.5730  178.2890  142.0180 C   0  0  0  0  0  1  0  0  0  0  0  0
  187.4840  177.5340  145.7260 C   0  0  2  0  0  3  0  0  0  0  0  0
  1  4  1  0  0  0  0
  2  6  1  0  0  0  0
  2 33  1  0  0  0  0
  3  2  2  0  0  0  0
  4  6  2  0  0  0  0
  5  1  2  0  0  0  0
  5  3  1  0  0  0  0
  7  5  1  1  0  0  0
  9 17  1  6  0  0  0
  9 13  1  0  0  0  0
  9 11  1  0  0  0  0
 10  7  1  0  0  0  0
 10 20  1  1  0  0  0
 11  8  1  1  0  0  0
 11 14  1  0  0  0  0
 12  7  1  0  0  0  0
 13 15  1  0  0  0  0
 14 10  1  0  0  0  0
 15 14  1  0  0  0  0
 15 12  1  0  0  0  0
 16 17  1  0  0  0  0
 18 17  1  0  0  0  0
 19 20  1  0  0  0  0
 20 21  1  0  0  0  0
 21 22  1  0  0  0  0
 23 13  1  0  0  0  0
 25 28  1  0  0  0  0
 26 25  1  0  0  0  0
 26 27  1  0  0  0  0
 27 24  1  0  0  0  0
 28 23  1  0  0  0  0
 28 24  1  0  0  0  0
 29 32  2  0  0  0  0
 30 29  1  0  0  0  0
 31 27  1  0  0  0  0
 31 29  1  0  0  0  0
 34 35  1  0  0  0  0
 34 33  1  0  0  0  0
 36 35  1  0  0  0  0
 37 50  1  0  0  0  0
 37 55  1  0  0  0  0
 38 39  1  0  0  0  0
 38 44  1  0  0  0  0
 39 55  1  0  0  0  0
 39 44  1  0  0  0  0
 40 45  2  0  0  0  0
 41 36  1  0  0  0  0
 42 51  1  0  0  0  0
 42 48  1  0  0  0  0
 43 39  1  0  0  0  0
 45 47  2  0  0  0  0
 45 41  1  0  0  0  0
 46 37  1  0  0  0  0
 48 46  1  0  0  0  0
 48 43  1  0  0  0  0
 49 37  1  0  0  0  0
 50 41  1  0  0  0  0
 51 49  1  0  0  0  0
 51 38  1  0  0  0  0
 52 45  1  0  0  0  0
 52 46  1  0  0  0  0
 54 49  1  0  0  0  0
 55 53  1  0  0  0  0
M  END
>  <MODEL>
8

>  <REMARK>
 VINA RESULT:      -6.4      2.717      8.598
  Name = 
  12 active torsions:
  status: ('A' for Active; 'I' for Inactive)
    1  A    between atoms: C_2  and  C_44
    2  A    between atoms: C_4  and  C_40
    3  A    between atoms: N_8  and  C_43
    4  A    between atoms: C_16  and  C_17
    5  A    between atoms: C_19  and  C_40
    6  A    between atoms: C_27  and  C_54
    7  A    between atoms: N_32  and  C_48
    8  A    between atoms: C_33  and  N_36
    9  A    between atoms: C_33  and  C_52
   10  A    between atoms: C_35  and  C_43
   11  A    between atoms: C_35  and  C_51
   12  A    between atoms: C_51  and  C_54
                            x       y       z     vdW  Elec       q    Type
                         _______ _______ _______ _____ _____    ______ ____

>  <TORSDO>
F 12

$$$$
=
 OpenBabel11052419473D

 55 63  0  0  1  0  0  0  0  0999 V2000
  189.9520  172.1870  139.6220 C   0  0  0  0  0  3  0  0  0  0  0  0
  188.6460  173.9190  141.3830 C   0  0  0  0  0  0  0  0  0  0  0  0
  190.0420  173.8120  141.4140 C   0  0  0  0  0  3  0  0  0  0  0  0
  188.5570  172.2840  139.6020 C   0  0  0  0  0  3  0  0  0  0  0  0
  190.7000  172.9390  140.5410 C   0  0  0  0  0  0  0  0  0  0  0  0
  187.9060  173.1490  140.4830 C   0  0  0  0  0  3  0  0  0  0  0  0
  192.1970  172.8890  140.5470 C   0  0  2  0  0  3  0  0  0  0  0  0
  192.1110  170.6490  143.3110 C   0  0  0  0  0  1  0  0  0  0  0  0
  194.3120  171.5780  143.9780 C   0  0  2  0  0  3  0  0  0  0  0  0
  192.6870  171.4620  140.7290 C   0  0  2  0  0  3  0  0  0  0  0  0
  193.5880  170.7520  142.9220 C   0  0  2  0  0  3  0  0  0  0  0  0
  192.9120  173.9160  141.8540 S   0  0  0  0  0  0  0  0  0  0  0  0
  194.9590  172.6770  143.2730 N   0  0  0  0  0  0  0  0  0  0  0  0
  193.8510  171.4080  141.6250 N   0  0  2  0  0  0  0  0  0  0  0  0
  194.3180  172.7540  141.9530 C   0  0  1  0  0  3  0  0  0  0  0  0
  194.6450  169.8740  145.7960 C   0  0  0  0  0  1  0  0  0  0  0  0
  195.3360  170.7610  144.7760 C   0  0  0  0  0  3  0  0  0  0  0  0
  196.2430  169.9250  143.8840 C   0  0  0  0  0  1  0  0  0  0  0  0
  193.8850  169.6000  139.5730 C   0  0  0  0  0  1  0  0  0  0  0  0
  192.9880  170.8080  139.3780 C   0  0  2  0  0  3  0  0  0  0  0  0
  193.6190  171.7870  138.3940 C   0  0  0  0  0  2  0  0  0  0  0  0
  192.8470  171.8010  137.0870 C   0  0  0  0  0  1  0  0  0  0  0  0
  195.0350  173.9460  144.0230 C   0  0  0  0  0  2  0  0  0  0  0  0
  196.9310  174.3650  142.4180 C   0  0  0  0  0  2  0  0  0  0  0  0
  195.8400  176.2380  143.5010 C   0  0  0  0  0  2  0  0  0  0  0  0
  196.7930  176.7910  142.4660 C   0  0  0  0  0  2  0  0  0  0  0  0
  197.1950  175.6140  141.5970 C   0  0  2  0  0  3  0  0  0  0  0  0
  196.2670  174.8070  143.7150 C   0  0  1  0  0  3  0  0  0  0  0  0
  196.8000  174.9550  139.1790 C   0  0  0  0  0  0  0  0  0  0  0  0
  195.8890  174.9430  138.0040 C   0  0  0  0  0  1  0  0  0  0  0  0
  196.3680  175.5690  140.3970 N   0  0  0  0  0  2  0  0  0  0  0  0
  197.9400  174.4240  139.0940 O   0  0  0  0  0  0  0  0  0  0  0  0
  187.9470  174.8780  142.2820 C   0  0  0  0  0  2  0  0  0  0  0  0
  187.6580  176.1870  141.5620 C   0  0  0  0  0  2  0  0  0  0  0  0
  186.6800  177.0240  142.3770 C   0  0  0  0  0  2  0  0  0  0  0  0
  186.7280  176.6110  143.8410 C   0  0  0  0  0  2  0  0  0  0  0  0
  189.1700  176.7130  145.5760 C   0  0  2  0  0  0  0  0  0  0  0  0
  191.7420  175.4270  146.0030 C   0  0  2  0  0  3  0  0  0  0  0  0
  190.6240  174.7030  145.1760 C   0  0  2  0  0  0  0  0  0  0  0  0
  186.1550  178.8670  146.9420 O   0  0  0  0  0  0  0  0  0  0  0  0
  187.0020  177.7670  144.6890 N   0  0  0  0  0  0  0  0  0  0  0  0
  190.0390  175.1210  147.9640 C   0  0  0  0  0  2  0  0  0  0  0  0
  189.6800  173.7840  145.9610 C   0  0  0  0  0  2  0  0  0  0  0  0
  192.0210  174.1550  145.2390 C   0  0  0  0  0  2  0  0  0  0  0  0
  186.2270  177.5460  146.2310 S   0  0  0  0  0  0  0  0  0  0  0  0
  188.1990  175.7350  146.3100 C   0  0  1  0  0  3  0  0  0  0  0  0
  184.8360  177.0080  146.0470 O   0  0  0  0  0  0  0  0  0  0  0  0
  188.9610  174.5940  147.0180 C   0  0  2  0  0  3  0  0  0  0  0  0
  190.2310  177.2350  146.5960 C   0  0  2  0  0  3  0  0  0  0  0  0
  188.4510  177.9160  144.9050 C   0  0  0  0  0  2  0  0  0  0  0  0
  191.0050  176.0520  147.2070 C   0  0  2  0  0  3  0  0  0  0  0  0
  187.1850  176.4150  147.2130 C   0  0  0  0  0  2  0  0  0  0  0  0
  190.7910  176.6670  143.7280 O   0  0  0  0  0  1  0  0  0  0  0  0
  189.6830  178.1690  147.6730 C   0  0  0  0  0  1  0  0  0  0  0  0
  189.9080  175.8790  144.4770 C   0  0  2  0  0  3  0  0  0  0  0  0
  1  5  1  0  0  0  0
  2  3  1  0  0  0  0
  2 33  1  0  0  0  0
  4  1  2  0  0  0  0
  4  6  1  0  0  0  0
  5  3  2  0  0  0  0
  6  2  2  0  0  0  0
  7  5  1  1  0  0  0
  7 10  1  0  0  0  0
  7 12  1  0  0  0  0
  9 17  1  6  0  0  0
 10 20  1  6  0  0  0
 10 14  1  0  0  0  0
 11  8  1  1  0  0  0
 11  9  1  0  0  0  0
 12 15  1  0  0  0  0
 13  9  1  0  0  0  0
 13 23  1  0  0  0  0
 14 15  1  0  0  0  0
 14 11  1  0  0  0  0
 15 13  1  0  0  0  0
 17 16  1  0  0  0  0
 18 17  1  0  0  0  0
 20 19  1  0  0  0  0
 21 20  1  0  0  0  0
 22 21  1  0  0  0  0
 24 28  1  0  0  0  0
 25 28  1  0  0  0  0
 26 25  1  0  0  0  0
 27 24  1  0  0  0  0
 27 26  1  0  0  0  0
 28 23  1  0  0  0  0
 29 31  1  0  0  0  0
 30 29  1  0  0  0  0
 31 27  1  0  0  0  0
 32 29  2  0  0  0  0
 34 33  1  0  0  0  0
 34 35  1  0  0  0  0
 35 36  1  0  0  0  0
 36 41  1  0  0  0  0
 37 46  1  0  0  0  0
 37 49  1  0  0  0  0
 38 51  1  0  0  0  0
 39 44  1  0  0  0  0
 39 43  1  0  0  0  0
 39 38  1  0  0  0  0
 41 50  1  0  0  0  0
 41 45  1  0  0  0  0
 43 48  1  0  0  0  0
 44 38  1  0  0  0  0
 45 40  2  0  0  0  0
 45 52  1  0  0  0  0
 46 48  1  0  0  0  0
 46 52  1  0  0  0  0
 47 45  2  0  0  0  0
 48 42  1  0  0  0  0
 49 51  1  0  0  0  0
 49 54  1  0  0  0  0
 50 37  1  0  0  0  0
 51 42  1  0  0  0  0
 53 55  1  0  0  0  0
 55 39  1  0  0  0  0
 55 37  1  0  0  0  0
M  END
>  <MODEL>
9

>  <REMARK>
 VINA RESULT:      -6.4      2.460      9.593
  Name = 
  12 active torsions:
  status: ('A' for Active; 'I' for Inactive)
    1  A    between atoms: C_2  and  C_44
    2  A    between atoms: C_4  and  C_40
    3  A    between atoms: N_8  and  C_43
    4  A    between atoms: C_16  and  C_17
    5  A    between atoms: C_19  and  C_40
    6  A    between atoms: C_27  and  C_54
    7  A    between atoms: N_32  and  C_48
    8  A    between atoms: C_33  and  N_36
    9  A    between atoms: C_33  and  C_52
   10  A    between atoms: C_35  and  C_43
   11  A    between atoms: C_35  and  C_51
   12  A    between atoms: C_51  and  C_54
                            x       y       z     vdW  Elec       q    Type
                         _______ _______ _______ _____ _____    ______ ____

>  <TORSDO>
F 12

$$$$
