=
 OpenBabel11052421173D

 43 48  0  0  1  0  0  0  0  0999 V2000
  193.2320  175.1200  142.9060 C   0  0  2  0  0  3  0  0  0  0  0  0
  191.5130  170.0370  140.5820 C   0  0  0  0  0  0  0  0  0  0  0  0
  189.2880  173.9440  142.5970 C   0  0  2  0  0  3  0  0  0  0  0  0
  190.7320  176.0120  142.7070 C   0  0  2  0  0  3  0  0  0  0  0  0
  191.3860  172.2310  139.8320 C   0  0  0  0  0  2  0  0  0  0  0  0
  190.3660  170.2410  141.5650 C   0  0  0  0  0  2  0  0  0  0  0  0
  192.4800  169.3480  140.9030 O   0  0  0  0  0  0  0  0  0  0  0  0
  190.0110  172.7120  142.0880 C   0  0  2  0  0  3  0  0  0  0  0  0
  191.5500  170.8400  139.3610 C   0  0  0  0  0  2  0  0  0  0  0  0
  190.5980  171.3850  142.5710 C   0  0  0  0  0  2  0  0  0  0  0  0
  190.0320  174.8970  143.5030 C   0  0  2  0  0  3  0  0  0  0  0  0
  190.6810  173.5690  143.1380 C   0  0  1  0  0  3  0  0  0  0  0  0
  192.9790  173.7620  140.5860 C   0  0  0  0  0  2  0  0  0  0  0  0
  193.6900  174.4280  141.8050 C   0  0  0  0  0  2  0  0  0  0  0  0
  192.1380  176.0300  143.0190 O   0  0  0  0  0  0  0  0  0  0  0  0
  192.4560  173.0800  139.4030 O   0  0  0  0  0  0  0  0  0  0  0  0
  197.0140  175.2850  143.7420 C   0  0  0  0  0  2  0  0  0  0  0  0
  196.9960  174.4610  145.0110 C   0  0  1  0  0  3  0  0  0  0  0  0
  194.4320  174.6080  145.0960 C   0  0  0  0  0  2  0  0  0  0  0  0
  195.7080  175.1280  142.9810 C   0  0  0  0  0  2  0  0  0  0  0  0
  194.4070  175.4720  143.7930 C   0  0  1  0  0  3  0  0  0  0  0  0
  195.7720  174.6760  145.8950 C   0  0  0  0  0  2  0  0  0  0  0  0
  196.7890  172.2090  145.9880 C   0  0  0  0  0  1  0  0  0  0  0  0
  197.2410  172.9950  144.7450 C   0  0  0  0  0  2  0  0  0  0  0  0
  190.0920  177.4190  143.0300 C   0  0  1  0  0  3  0  0  0  0  0  0
  190.8790  178.4060  143.8230 C   0  0  0  0  0  1  0  0  0  0  0  0
  189.1200  178.0760  142.0920 C   0  0  0  0  0  2  0  0  0  0  0  0
  187.7120  177.5750  142.2020 C   0  0  2  0  0  3  0  0  0  0  0  0
  187.2040  176.9290  140.9580 C   0  0  0  0  0  1  0  0  0  0  0  0
  186.7770  178.7180  142.5990 C   0  0  0  0  0  2  0  0  0  0  0  0
  186.1380  178.3130  143.9520 C   0  0  2  0  0  3  0  0  0  0  0  0
  184.5840  177.9880  146.7000 C   0  0  0  0  0  3  0  0  0  0  0  0
  187.6220  176.1020  146.4630 C   0  0  0  0  0  0  0  0  0  0  0  0
  186.7710  176.8890  145.9440 C   0  0  0  0  0  0  0  0  0  0  0  0
  184.7160  178.8360  144.3010 C   0  0  0  0  0  2  0  0  0  0  0  0
  187.2040  177.9090  144.9570 C   0  0  0  0  0  2  0  0  0  0  0  0
  188.4840  175.2570  147.1180 C   0  0  0  0  0  3  0  0  0  0  0  0
  185.3310  176.7200  146.3800 C   0  0  0  0  0  2  0  0  0  0  0  0
  184.3260  178.9220  145.7610 C   0  0  0  0  0  3  0  0  0  0  0  0
  190.0010  175.3880  147.1980 C   0  0  0  0  0  2  0  0  0  0  0  0
  191.4960  177.0690  148.3840 C   0  0  0  0  0  2  0  0  0  0  0  0
  190.6780  176.7510  147.1450 C   0  0  0  0  0  3  0  0  0  0  0  0
  192.1960  176.5350  147.1730 C   0  0  0  0  0  2  0  0  0  0  0  0
  1 14  1  6  0  0  0
  1 15  1  0  0  0  0
  1 21  1  0  0  0  0
  2  7  2  0  0  0  0
  2  6  1  0  0  0  0
  3 12  1  0  0  0  0
  3 11  1  0  0  0  0
  4 15  1  0  0  0  0
  4 25  1  0  0  0  0
  4 11  1  0  0  0  0
  6 10  1  0  0  0  0
  8 10  1  0  0  0  0
  8  3  1  0  0  0  0
  8 12  1  0  0  0  0
  9  5  1  0  0  0  0
  9  2  1  0  0  0  0
 12 11  1  0  0  0  0
 13 14  1  0  0  0  0
 16  5  1  0  0  0  0
 16 13  1  0  0  0  0
 17 18  1  0  0  0  0
 18 22  1  0  0  0  0
 19 22  1  0  0  0  0
 20 17  1  0  0  0  0
 20 21  1  0  0  0  0
 21 19  1  0  0  0  0
 24 18  1  0  0  0  0
 24 23  1  0  0  0  0
 25 26  1  0  0  0  0
 27 28  1  0  0  0  0
 27 25  1  0  0  0  0
 28 30  1  0  0  0  0
 29 28  1  0  0  0  0
 30 31  1  0  0  0  0
 31 35  1  0  0  0  0
 31 36  1  0  0  0  0
 33 37  2  0  0  0  0
 34 38  1  0  0  0  0
 34 33  2  0  0  0  0
 35 39  1  0  0  0  0
 36 34  1  0  0  0  0
 37 40  1  0  0  0  0
 38 32  1  0  0  0  0
 39 32  2  0  0  0  0
 42 43  1  0  0  0  0
 42 40  1  0  0  0  0
 42 41  1  0  0  0  0
 43 41  1  0  0  0  0
M  END
>  <MODEL>
1

>  <REMARK>
 VINA RESULT:      -9.3      0.000      0.000
  Name = 
  9 active torsions:
  status: ('A' for Active; 'I' for Inactive)
    1  A    between atoms: C_1  and  C_35
    2  A    between atoms: C_2  and  C_6
    3  A    between atoms: C_2  and  C_13
    4  A    between atoms: C_3  and  C_4
    5  A    between atoms: C_3  and  C_12
    6  A    between atoms: C_6  and  C_12
    7  A    between atoms: C_19  and  C_37
    8  A    between atoms: C_29  and  C_36
    9  A    between atoms: C_36  and  C_40
                            x       y       z     vdW  Elec       q    Type
                         _______ _______ _______ _____ _____    ______ ____

>  <TORSDO>
F 9

$$$$
=
 OpenBabel11052421173D

 43 48  0  0  1  0  0  0  0  0999 V2000
  191.3190  173.6680  140.9130 C   0  0  2  0  0  3  0  0  0  0  0  0
  195.1230  174.6040  145.2540 C   0  0  0  0  0  0  0  0  0  0  0  0
  190.9040  176.6470  143.7390 C   0  0  2  0  0  3  0  0  0  0  0  0
  189.5450  175.1850  142.1920 C   0  0  2  0  0  3  0  0  0  0  0  0
  192.9740  173.7260  145.2100 C   0  0  0  0  0  2  0  0  0  0  0  0
  194.6120  176.0290  145.0840 C   0  0  0  0  0  2  0  0  0  0  0  0
  196.1520  174.2500  144.6800 O   0  0  0  0  0  0  0  0  0  0  0  0
  192.2550  176.0670  144.1080 C   0  0  2  0  0  3  0  0  0  0  0  0
  194.2690  173.6190  145.9140 C   0  0  0  0  0  2  0  0  0  0  0  0
  193.7480  176.2410  143.8250 C   0  0  0  0  0  2  0  0  0  0  0  0
  190.3970  176.4600  142.3290 C   0  0  2  0  0  3  0  0  0  0  0  0
  191.8250  176.0470  142.6590 C   0  0  1  0  0  3  0  0  0  0  0  0
  192.2340  172.6850  143.2550 C   0  0  0  0  0  2  0  0  0  0  0  0
  192.0120  172.7860  141.7140 C   0  0  0  0  0  2  0  0  0  0  0  0
  190.0840  174.3420  141.1560 O   0  0  0  0  0  0  0  0  0  0  0  0
  192.5440  172.4720  144.6680 O   0  0  0  0  0  0  0  0  0  0  0  0
  190.0690  172.8740  137.3310 C   0  0  0  0  0  2  0  0  0  0  0  0
  190.6080  171.4650  137.2150 C   0  0  1  0  0  3  0  0  0  0  0  0
  192.0480  171.8210  139.3140 C   0  0  0  0  0  2  0  0  0  0  0  0
  190.1130  173.3500  138.7720 C   0  0  0  0  0  2  0  0  0  0  0  0
  191.5250  173.2870  139.4630 C   0  0  1  0  0  3  0  0  0  0  0  0
  191.9720  171.2480  137.8640 C   0  0  0  0  0  2  0  0  0  0  0  0
  190.3080  169.0600  137.6580 C   0  0  0  0  0  1  0  0  0  0  0  0
  189.6060  170.4290  137.6650 C   0  0  0  0  0  2  0  0  0  0  0  0
  188.0430  175.5460  141.8640 C   0  0  1  0  0  3  0  0  0  0  0  0
  186.9660  175.0410  142.7600 C   0  0  0  0  0  1  0  0  0  0  0  0
  187.6740  176.8360  141.1870 C   0  0  0  0  0  2  0  0  0  0  0  0
  186.3910  177.4450  141.6640 C   0  0  2  0  0  3  0  0  0  0  0  0
  185.4830  177.8760  140.5620 C   0  0  0  0  0  1  0  0  0  0  0  0
  186.6820  178.6350  142.5780 C   0  0  0  0  0  2  0  0  0  0  0  0
  186.0880  178.2810  143.9650 C   0  0  2  0  0  3  0  0  0  0  0  0
  184.6260  178.0580  146.7730 C   0  0  0  0  0  3  0  0  0  0  0  0
  187.6590  176.1690  146.5070 C   0  0  0  0  0  0  0  0  0  0  0  0
  186.7900  176.9340  145.9880 C   0  0  0  0  0  0  0  0  0  0  0  0
  184.6770  178.8160  144.3410 C   0  0  0  0  0  2  0  0  0  0  0  0
  187.1870  177.9170  144.9490 C   0  0  0  0  0  2  0  0  0  0  0  0
  188.5440  175.3490  147.1650 C   0  0  0  0  0  3  0  0  0  0  0  0
  185.3650  176.7800  146.4770 C   0  0  0  0  0  2  0  0  0  0  0  0
  184.3350  178.9560  145.8090 C   0  0  0  0  0  3  0  0  0  0  0  0
  190.0630  175.4850  147.1900 C   0  0  0  0  0  2  0  0  0  0  0  0
  191.1990  177.2260  148.6540 C   0  0  0  0  0  2  0  0  0  0  0  0
  190.7300  176.8510  147.2600 C   0  0  0  0  0  3  0  0  0  0  0  0
  192.1890  176.6520  147.6880 C   0  0  0  0  0  2  0  0  0  0  0  0
  1 15  1  0  0  0  0
  1 14  1  1  0  0  0
  2  9  1  0  0  0  0
  3  8  1  0  0  0  0
  4 11  1  0  0  0  0
  5  9  1  0  0  0  0
  6  2  1  0  0  0  0
  7  2  2  0  0  0  0
 10  8  1  0  0  0  0
 10  6  1  0  0  0  0
 11 12  1  0  0  0  0
 11  3  1  0  0  0  0
 12  3  1  0  0  0  0
 12  8  1  0  0  0  0
 13 16  1  0  0  0  0
 14 13  1  0  0  0  0
 15  4  1  0  0  0  0
 16  5  1  0  0  0  0
 17 20  1  0  0  0  0
 18 17  1  0  0  0  0
 18 24  1  0  0  0  0
 18 22  1  0  0  0  0
 19 21  1  0  0  0  0
 20 21  1  0  0  0  0
 21  1  1  0  0  0  0
 22 19  1  0  0  0  0
 23 24  1  0  0  0  0
 25  4  1  0  0  0  0
 25 26  1  0  0  0  0
 27 28  1  0  0  0  0
 27 25  1  0  0  0  0
 28 30  1  0  0  0  0
 29 28  1  0  0  0  0
 30 31  1  0  0  0  0
 31 35  1  0  0  0  0
 31 36  1  0  0  0  0
 33 37  2  0  0  0  0
 34 38  1  0  0  0  0
 34 33  2  0  0  0  0
 35 39  1  0  0  0  0
 36 34  1  0  0  0  0
 37 40  1  0  0  0  0
 38 32  1  0  0  0  0
 39 32  2  0  0  0  0
 40 42  1  0  0  0  0
 42 43  1  0  0  0  0
 42 41  1  0  0  0  0
 43 41  1  0  0  0  0
M  END
>  <MODEL>
2

>  <REMARK>
 VINA RESULT:      -8.7      1.760      5.099
  Name = 
  9 active torsions:
  status: ('A' for Active; 'I' for Inactive)
    1  A    between atoms: C_1  and  C_35
    2  A    between atoms: C_2  and  C_6
    3  A    between atoms: C_2  and  C_13
    4  A    between atoms: C_3  and  C_4
    5  A    between atoms: C_3  and  C_12
    6  A    between atoms: C_6  and  C_12
    7  A    between atoms: C_19  and  C_37
    8  A    between atoms: C_29  and  C_36
    9  A    between atoms: C_36  and  C_40
                            x       y       z     vdW  Elec       q    Type
                         _______ _______ _______ _____ _____    ______ ____

>  <TORSDO>
F 9

$$$$
=
 OpenBabel11052421173D

 43 48  0  0  1  0  0  0  0  0999 V2000
  192.8510  174.5250  142.1200 C   0  0  2  0  0  3  0  0  0  0  0  0
  191.1440  170.9860  137.7890 C   0  0  0  0  0  0  0  0  0  0  0  0
  188.9310  174.1020  140.8990 C   0  0  2  0  0  3  0  0  0  0  0  0
  190.4950  175.7570  141.9900 C   0  0  2  0  0  3  0  0  0  0  0  0
  191.3130  173.2960  137.9570 C   0  0  0  0  0  2  0  0  0  0  0  0
  189.8710  170.9560  138.6270 C   0  0  0  0  0  2  0  0  0  0  0  0
  191.9880  170.1020  137.9270 O   0  0  0  0  0  0  0  0  0  0  0  0
  189.6290  173.0690  140.0360 C   0  0  2  0  0  3  0  0  0  0  0  0
  191.4430  172.1790  136.9990 C   0  0  0  0  0  2  0  0  0  0  0  0
  190.0230  171.5910  140.0230 C   0  0  0  0  0  2  0  0  0  0  0  0
  189.5880  174.5300  142.1900 C   0  0  2  0  0  3  0  0  0  0  0  0
  190.1830  173.3640  141.4110 C   0  0  1  0  0  3  0  0  0  0  0  0
  192.8760  174.1940  139.4410 C   0  0  0  0  0  2  0  0  0  0  0  0
  193.4270  174.2460  140.8990 C   0  0  0  0  0  2  0  0  0  0  0  0
  191.8280  175.4640  142.4510 O   0  0  0  0  0  0  0  0  0  0  0  0
  192.5030  174.0900  138.0310 O   0  0  0  0  0  0  0  0  0  0  0  0
  193.9650  174.1680  145.8160 C   0  0  0  0  0  2  0  0  0  0  0  0
  194.8760  175.3730  145.8900 C   0  0  1  0  0  3  0  0  0  0  0  0
  194.8200  175.6000  143.3300 C   0  0  0  0  0  2  0  0  0  0  0  0
  193.1040  174.2210  144.5660 C   0  0  0  0  0  2  0  0  0  0  0  0
  193.8880  174.3510  143.2090 C   0  0  1  0  0  3  0  0  0  0  0  0
  195.6890  175.6370  144.6260 C   0  0  0  0  0  2  0  0  0  0  0  0
  194.9430  177.8360  145.8630 C   0  0  0  0  0  1  0  0  0  0  0  0
  194.1490  176.6130  146.3540 C   0  0  0  0  0  2  0  0  0  0  0  0
  189.9220  177.0100  142.7630 C   0  0  1  0  0  3  0  0  0  0  0  0
  190.7520  177.6430  143.8270 C   0  0  0  0  0  1  0  0  0  0  0  0
  188.9890  177.9840  142.1020 C   0  0  0  0  0  2  0  0  0  0  0  0
  187.5440  177.5920  142.1470 C   0  0  2  0  0  3  0  0  0  0  0  0
  187.0120  177.1010  140.8440 C   0  0  0  0  0  1  0  0  0  0  0  0
  186.6960  178.7680  142.6310 C   0  0  0  0  0  2  0  0  0  0  0  0
  186.0830  178.3410  143.9890 C   0  0  2  0  0  3  0  0  0  0  0  0
  184.5720  177.9620  146.7530 C   0  0  0  0  0  3  0  0  0  0  0  0
  187.6560  176.1590  146.4720 C   0  0  0  0  0  0  0  0  0  0  0  0
  186.7780  176.9250  145.9670 C   0  0  0  0  0  0  0  0  0  0  0  0
  184.6520  178.8240  144.3570 C   0  0  0  0  0  2  0  0  0  0  0  0
  187.1720  177.9610  144.9790 C   0  0  0  0  0  2  0  0  0  0  0  0
  188.5480  175.3340  147.1120 C   0  0  0  0  0  3  0  0  0  0  0  0
  185.3490  176.7150  146.4180 C   0  0  0  0  0  2  0  0  0  0  0  0
  184.2780  178.8930  145.8220 C   0  0  0  0  0  3  0  0  0  0  0  0
  190.0620  175.5050  147.1750 C   0  0  0  0  0  2  0  0  0  0  0  0
  190.0280  177.8970  148.0400 C   0  0  0  0  0  2  0  0  0  0  0  0
  190.7010  176.8860  147.1280 C   0  0  0  0  0  3  0  0  0  0  0  0
  191.2650  177.2030  148.5180 C   0  0  0  0  0  2  0  0  0  0  0  0
  1 14  1  6  0  0  0
  1 15  1  0  0  0  0
  1 21  1  0  0  0  0
  2  7  2  0  0  0  0
  2  6  1  0  0  0  0
  3 12  1  0  0  0  0
  3 11  1  0  0  0  0
  4 11  1  0  0  0  0
  4 15  1  0  0  0  0
  4 25  1  0  0  0  0
  5 16  1  0  0  0  0
  6 10  1  0  0  0  0
  8  3  1  0  0  0  0
  8 12  1  0  0  0  0
  9  2  1  0  0  0  0
  9  5  1  0  0  0  0
 10  8  1  0  0  0  0
 12 11  1  0  0  0  0
 13 14  1  0  0  0  0
 16 13  1  0  0  0  0
 17 18  1  0  0  0  0
 18 24  1  0  0  0  0
 19 22  1  0  0  0  0
 20 17  1  0  0  0  0
 21 19  1  0  0  0  0
 21 20  1  0  0  0  0
 22 18  1  0  0  0  0
 23 24  1  0  0  0  0
 25 26  1  0  0  0  0
 27 28  1  0  0  0  0
 27 25  1  0  0  0  0
 28 30  1  0  0  0  0
 29 28  1  0  0  0  0
 30 31  1  0  0  0  0
 31 35  1  0  0  0  0
 31 36  1  0  0  0  0
 33 37  2  0  0  0  0
 34 38  1  0  0  0  0
 34 33  2  0  0  0  0
 35 39  1  0  0  0  0
 36 34  1  0  0  0  0
 37 40  1  0  0  0  0
 38 32  1  0  0  0  0
 39 32  2  0  0  0  0
 41 43  1  0  0  0  0
 42 40  1  0  0  0  0
 42 41  1  0  0  0  0
 42 43  1  0  0  0  0
M  END
>  <MODEL>
3

>  <REMARK>
 VINA RESULT:      -8.6      1.339      2.016
  Name = 
  9 active torsions:
  status: ('A' for Active; 'I' for Inactive)
    1  A    between atoms: C_1  and  C_35
    2  A    between atoms: C_2  and  C_6
    3  A    between atoms: C_2  and  C_13
    4  A    between atoms: C_3  and  C_4
    5  A    between atoms: C_3  and  C_12
    6  A    between atoms: C_6  and  C_12
    7  A    between atoms: C_19  and  C_37
    8  A    between atoms: C_29  and  C_36
    9  A    between atoms: C_36  and  C_40
                            x       y       z     vdW  Elec       q    Type
                         _______ _______ _______ _____ _____    ______ ____

>  <TORSDO>
F 9

$$$$
=
 OpenBabel11052421173D

 43 48  0  0  1  0  0  0  0  0999 V2000
  191.1630  173.2940  142.5870 C   0  0  2  0  0  3  0  0  0  0  0  0
  196.7080  172.2990  144.1590 C   0  0  0  0  0  0  0  0  0  0  0  0
  193.9700  176.2680  143.1470 C   0  0  2  0  0  3  0  0  0  0  0  0
  191.4800  175.8550  143.2370 C   0  0  2  0  0  3  0  0  0  0  0  0
  194.8860  173.1820  145.2960 C   0  0  0  0  0  2  0  0  0  0  0  0
  196.9180  173.5860  143.3700 C   0  0  0  0  0  2  0  0  0  0  0  0
  196.8650  171.2110  143.6070 O   0  0  0  0  0  0  0  0  0  0  0  0
  194.8100  175.0210  143.3410 C   0  0  2  0  0  3  0  0  0  0  0  0
  196.1080  172.3740  145.4890 C   0  0  0  0  0  2  0  0  0  0  0  0
  195.6860  174.0380  142.5630 C   0  0  0  0  0  2  0  0  0  0  0  0
  192.6950  176.1650  142.3440 C   0  0  2  0  0  3  0  0  0  0  0  0
  193.6370  174.9700  142.3880 C   0  0  1  0  0  3  0  0  0  0  0  0
  192.7410  172.5320  144.6420 C   0  0  0  0  0  2  0  0  0  0  0  0
  191.7020  172.3970  143.4860 C   0  0  0  0  0  2  0  0  0  0  0  0
  190.8160  174.6670  142.7680 O   0  0  0  0  0  0  0  0  0  0  0  0
  193.7070  172.5000  145.7390 O   0  0  0  0  0  0  0  0  0  0  0  0
  190.2550  171.6940  139.1750 C   0  0  0  0  0  2  0  0  0  0  0  0
  189.0300  172.5240  138.8610 C   0  0  1  0  0  3  0  0  0  0  0  0
  188.9820  173.4060  141.2750 C   0  0  0  0  0  2  0  0  0  0  0  0
  191.0460  172.3130  140.3160 C   0  0  0  0  0  2  0  0  0  0  0  0
  190.2400  172.5550  141.6440 C   0  0  1  0  0  3  0  0  0  0  0  0
  188.1580  172.8570  140.0670 C   0  0  0  0  0  2  0  0  0  0  0  0
  188.0530  174.5150  137.7870 C   0  0  0  0  0  1  0  0  0  0  0  0
  189.3650  173.7580  138.0580 C   0  0  0  0  0  2  0  0  0  0  0  0
  190.4680  177.0680  143.2470 C   0  0  1  0  0  3  0  0  0  0  0  0
  190.8250  178.3010  144.0030 C   0  0  0  0  0  1  0  0  0  0  0  0
  189.5640  177.3480  142.0800 C   0  0  0  0  0  2  0  0  0  0  0  0
  188.1130  177.0710  142.3350 C   0  0  2  0  0  3  0  0  0  0  0  0
  187.4170  176.4100  141.1940 C   0  0  0  0  0  1  0  0  0  0  0  0
  187.3860  178.3670  142.6920 C   0  0  0  0  0  2  0  0  0  0  0  0
  186.6730  178.1140  144.0450 C   0  0  2  0  0  3  0  0  0  0  0  0
  185.0190  178.1160  146.7530 C   0  0  0  0  0  3  0  0  0  0  0  0
  187.8690  175.9440  146.7390 C   0  0  0  0  0  0  0  0  0  0  0  0
  187.1120  176.7710  146.1430 C   0  0  0  0  0  0  0  0  0  0  0  0
  185.2980  178.7890  144.3110 C   0  0  0  0  0  2  0  0  0  0  0  0
  187.6670  177.6790  145.1090 C   0  0  0  0  0  2  0  0  0  0  0  0
  188.6270  175.0670  147.4740 C   0  0  0  0  0  3  0  0  0  0  0  0
  185.6500  176.7660  146.5390 C   0  0  0  0  0  2  0  0  0  0  0  0
  184.8770  179.0070  145.7490 C   0  0  0  0  0  3  0  0  0  0  0  0
  190.1470  175.0610  147.5980 C   0  0  0  0  0  2  0  0  0  0  0  0
  192.0750  176.7170  147.6870 C   0  0  0  0  0  2  0  0  0  0  0  0
  191.0040  176.0610  146.8340 C   0  0  0  0  0  3  0  0  0  0  0  0
  192.4490  175.5490  146.8270 C   0  0  0  0  0  2  0  0  0  0  0  0
  1 15  1  0  0  0  0
  1 14  1  1  0  0  0
  2  9  1  0  0  0  0
  3  8  1  0  0  0  0
  4 25  1  0  0  0  0
  5  9  1  0  0  0  0
  5 16  1  0  0  0  0
  6  2  1  0  0  0  0
  7  2  2  0  0  0  0
 10  8  1  0  0  0  0
 10  6  1  0  0  0  0
 11 12  1  0  0  0  0
 11  3  1  0  0  0  0
 11  4  1  0  0  0  0
 12  3  1  0  0  0  0
 12  8  1  0  0  0  0
 13 16  1  0  0  0  0
 14 13  1  0  0  0  0
 15  4  1  0  0  0  0
 17 20  1  0  0  0  0
 18 17  1  0  0  0  0
 18 22  1  0  0  0  0
 19 21  1  0  0  0  0
 20 21  1  0  0  0  0
 21  1  1  0  0  0  0
 22 19  1  0  0  0  0
 23 24  1  0  0  0  0
 24 18  1  0  0  0  0
 25 26  1  0  0  0  0
 27 28  1  0  0  0  0
 27 25  1  0  0  0  0
 28 30  1  0  0  0  0
 29 28  1  0  0  0  0
 30 31  1  0  0  0  0
 31 35  1  0  0  0  0
 31 36  1  0  0  0  0
 33 37  2  0  0  0  0
 34 38  1  0  0  0  0
 34 33  2  0  0  0  0
 35 39  1  0  0  0  0
 36 34  1  0  0  0  0
 37 40  1  0  0  0  0
 38 32  1  0  0  0  0
 39 32  2  0  0  0  0
 42 40  1  0  0  0  0
 42 41  1  0  0  0  0
 43 42  1  0  0  0  0
 43 41  1  0  0  0  0
M  END
>  <MODEL>
4

>  <REMARK>
 VINA RESULT:      -8.4      1.747      5.029
  Name = 
  9 active torsions:
  status: ('A' for Active; 'I' for Inactive)
    1  A    between atoms: C_1  and  C_35
    2  A    between atoms: C_2  and  C_6
    3  A    between atoms: C_2  and  C_13
    4  A    between atoms: C_3  and  C_4
    5  A    between atoms: C_3  and  C_12
    6  A    between atoms: C_6  and  C_12
    7  A    between atoms: C_19  and  C_37
    8  A    between atoms: C_29  and  C_36
    9  A    between atoms: C_36  and  C_40
                            x       y       z     vdW  Elec       q    Type
                         _______ _______ _______ _____ _____    ______ ____

>  <TORSDO>
F 9

$$$$
=
 OpenBabel11052421173D

 43 48  0  0  1  0  0  0  0  0999 V2000
  190.2200  176.3940  145.0100 C   0  0  2  0  0  3  0  0  0  0  0  0
  185.1810  179.2270  144.1300 C   0  0  0  0  0  0  0  0  0  0  0  0
  187.3870  175.2510  142.2340 C   0  0  2  0  0  3  0  0  0  0  0  0
  189.2380  174.3130  143.6720 C   0  0  2  0  0  3  0  0  0  0  0  0
  185.6850  177.1880  145.1200 C   0  0  0  0  0  2  0  0  0  0  0  0
  185.3780  178.6650  142.7270 C   0  0  0  0  0  2  0  0  0  0  0  0
  185.5600  180.3680  144.3920 O   0  0  0  0  0  0  0  0  0  0  0  0
  186.7910  176.5420  142.7600 C   0  0  2  0  0  3  0  0  0  0  0  0
  184.7490  178.3280  145.1990 C   0  0  0  0  0  2  0  0  0  0  0  0
  186.7690  178.0470  142.4880 C   0  0  0  0  0  2  0  0  0  0  0  0
  188.8770  175.0370  142.3630 C   0  0  2  0  0  3  0  0  0  0  0  0
  188.2950  176.3990  142.7160 C   0  0  1  0  0  3  0  0  0  0  0  0
  187.7950  176.9060  146.0800 C   0  0  0  0  0  2  0  0  0  0  0  0
  189.3430  176.9770  145.8990 C   0  0  0  0  0  2  0  0  0  0  0  0
  190.1890  175.0940  144.4200 O   0  0  0  0  0  0  0  0  0  0  0  0
  186.3610  176.9530  146.3610 O   0  0  0  0  0  0  0  0  0  0  0  0
  194.0380  176.5560  144.3590 C   0  0  0  0  0  2  0  0  0  0  0  0
  194.5140  176.0940  145.7190 C   0  0  1  0  0  3  0  0  0  0  0  0
  192.1490  176.4030  146.6760 C   0  0  0  0  0  2  0  0  0  0  0  0
  192.5540  176.2810  144.1870 C   0  0  0  0  0  2  0  0  0  0  0  0
  191.6190  176.8980  145.2910 C   0  0  1  0  0  3  0  0  0  0  0  0
  193.6820  176.6000  146.8930 C   0  0  0  0  0  2  0  0  0  0  0  0
  196.1810  174.3290  146.1350 C   0  0  0  0  0  1  0  0  0  0  0  0
  194.7090  174.5980  145.7780 C   0  0  0  0  0  2  0  0  0  0  0  0
  189.8350  172.8810  143.3750 C   0  0  1  0  0  3  0  0  0  0  0  0
  189.6920  171.8110  144.4020 C   0  0  0  0  0  1  0  0  0  0  0  0
  189.9090  172.3340  141.9770 C   0  0  0  0  0  2  0  0  0  0  0  0
  191.2080  172.5880  141.2760 C   0  0  2  0  0  3  0  0  0  0  0  0
  191.0630  173.3250  139.9880 C   0  0  0  0  0  1  0  0  0  0  0  0
  191.9390  171.2680  141.0270 C   0  0  0  0  0  2  0  0  0  0  0  0
  192.9450  171.0940  142.1930 C   0  0  2  0  0  3  0  0  0  0  0  0
  194.5610  170.5650  144.8730 C   0  0  0  0  0  3  0  0  0  0  0  0
  195.9710  173.0790  142.7430 C   0  0  0  0  0  0  0  0  0  0  0  0
  195.0810  172.2030  142.9730 C   0  0  0  0  0  0  0  0  0  0  0  0
  192.7130  169.9570  143.2280 C   0  0  0  0  0  2  0  0  0  0  0  0
  193.7030  172.3860  142.4530 C   0  0  0  0  0  2  0  0  0  0  0  0
  196.9740  174.0050  142.5950 C   0  0  0  0  0  3  0  0  0  0  0  0
  195.5050  170.9950  143.7810 C   0  0  0  0  0  2  0  0  0  0  0  0
  193.3180  170.1130  144.6070 C   0  0  0  0  0  3  0  0  0  0  0  0
  196.8140  175.4590  142.1660 C   0  0  0  0  0  2  0  0  0  0  0  0
  195.0690  175.0910  140.3530 C   0  0  0  0  0  2  0  0  0  0  0  0
  196.3360  175.8190  140.7660 C   0  0  0  0  0  3  0  0  0  0  0  0
  194.9600  176.4860  140.8850 C   0  0  0  0  0  2  0  0  0  0  0  0
  1 21  1  0  0  0  0
  1 14  1  1  0  0  0
  2  7  2  0  0  0  0
  2  9  1  0  0  0  0
  3 11  1  0  0  0  0
  3 12  1  0  0  0  0
  3  8  1  0  0  0  0
  4 15  1  0  0  0  0
  5  9  1  0  0  0  0
  5 16  1  0  0  0  0
  6  2  1  0  0  0  0
 10  6  1  0  0  0  0
 10  8  1  0  0  0  0
 11 12  1  0  0  0  0
 11  4  1  0  0  0  0
 12  8  1  0  0  0  0
 13 16  1  0  0  0  0
 14 13  1  0  0  0  0
 15  1  1  0  0  0  0
 17 18  1  0  0  0  0
 18 24  1  0  0  0  0
 18 22  1  0  0  0  0
 19 22  1  0  0  0  0
 20 17  1  0  0  0  0
 20 21  1  0  0  0  0
 21 19  1  0  0  0  0
 24 23  1  0  0  0  0
 25  4  1  0  0  0  0
 25 26  1  0  0  0  0
 27 25  1  0  0  0  0
 28 27  1  0  0  0  0
 29 28  1  0  0  0  0
 30 28  1  0  0  0  0
 30 31  1  0  0  0  0
 31 36  1  0  0  0  0
 31 35  1  0  0  0  0
 33 34  2  0  0  0  0
 34 38  1  0  0  0  0
 35 39  1  0  0  0  0
 36 34  1  0  0  0  0
 37 33  2  0  0  0  0
 38 32  1  0  0  0  0
 39 32  2  0  0  0  0
 40 37  1  0  0  0  0
 41 42  1  0  0  0  0
 41 43  1  0  0  0  0
 42 43  1  0  0  0  0
 42 40  1  0  0  0  0
M  END
>  <MODEL>
5

>  <REMARK>
 VINA RESULT:      -8.1      2.409      7.862
  Name = 
  9 active torsions:
  status: ('A' for Active; 'I' for Inactive)
    1  A    between atoms: C_1  and  C_35
    2  A    between atoms: C_2  and  C_6
    3  A    between atoms: C_2  and  C_13
    4  A    between atoms: C_3  and  C_4
    5  A    between atoms: C_3  and  C_12
    6  A    between atoms: C_6  and  C_12
    7  A    between atoms: C_19  and  C_37
    8  A    between atoms: C_29  and  C_36
    9  A    between atoms: C_36  and  C_40
                            x       y       z     vdW  Elec       q    Type
                         _______ _______ _______ _____ _____    ______ ____

>  <TORSDO>
F 9

$$$$
=
 OpenBabel11052421173D

 43 48  0  0  1  0  0  0  0  0999 V2000
  192.5790  174.3220  142.4680 C   0  0  2  0  0  3  0  0  0  0  0  0
  197.1400  172.0820  145.3620 C   0  0  0  0  0  0  0  0  0  0  0  0
  193.9890  175.8050  146.0530 C   0  0  2  0  0  3  0  0  0  0  0  0
  191.8820  175.6450  144.6700 C   0  0  2  0  0  3  0  0  0  0  0  0
  194.8530  172.0440  145.7620 C   0  0  0  0  0  2  0  0  0  0  0  0
  197.2600  173.5290  145.8260 C   0  0  0  0  0  2  0  0  0  0  0  0
  197.7980  171.6910  144.3990 O   0  0  0  0  0  0  0  0  0  0  0  0
  195.0080  174.7250  145.7520 C   0  0  2  0  0  3  0  0  0  0  0  0
  196.0830  171.2430  145.9250 C   0  0  0  0  0  2  0  0  0  0  0  0
  196.3550  174.5120  145.0590 C   0  0  0  0  0  2  0  0  0  0  0  0
  193.2030  176.3990  144.9070 C   0  0  2  0  0  3  0  0  0  0  0  0
  194.3540  175.4520  144.5980 C   0  0  1  0  0  3  0  0  0  0  0  0
  193.4000  172.2140  143.9420 C   0  0  0  0  0  2  0  0  0  0  0  0
  192.9650  173.0150  142.6750 C   0  0  0  0  0  2  0  0  0  0  0  0
  191.8140  175.1900  143.3050 O   0  0  0  0  0  0  0  0  0  0  0  0
  193.8400  171.3430  145.0310 O   0  0  0  0  0  0  0  0  0  0  0  0
  191.3380  173.2190  138.9650 C   0  0  0  0  0  2  0  0  0  0  0  0
  192.6470  173.3460  138.2170 C   0  0  1  0  0  3  0  0  0  0  0  0
  193.6740  174.6360  140.1880 C   0  0  0  0  0  2  0  0  0  0  0  0
  191.5700  173.2690  140.4660 C   0  0  0  0  0  2  0  0  0  0  0  0
  192.3360  174.5380  140.9900 C   0  0  1  0  0  3  0  0  0  0  0  0
  193.5120  174.5290  138.6390 C   0  0  0  0  0  2  0  0  0  0  0  0
  193.3430  171.4550  136.7990 C   0  0  0  0  0  1  0  0  0  0  0  0
  193.4310  172.0550  138.2130 C   0  0  0  0  0  2  0  0  0  0  0  0
  190.6430  176.5720  144.9880 C   0  0  1  0  0  3  0  0  0  0  0  0
  190.1050  177.4540  143.9140 C   0  0  0  0  0  1  0  0  0  0  0  0
  189.5920  176.1670  145.9830 C   0  0  0  0  0  2  0  0  0  0  0  0
  188.8970  177.3100  146.6560 C   0  0  2  0  0  3  0  0  0  0  0  0
  189.6530  177.8790  147.8090 C   0  0  0  0  0  1  0  0  0  0  0  0
  187.5070  176.8780  147.1240 C   0  0  0  0  0  2  0  0  0  0  0  0
  186.4880  177.6220  146.2240 C   0  0  2  0  0  3  0  0  0  0  0  0
  184.0350  179.0330  144.7870 C   0  0  0  0  0  3  0  0  0  0  0  0
  186.5500  177.7710  142.5670 C   0  0  0  0  0  0  0  0  0  0  0  0
  186.1210  177.9710  143.7450 C   0  0  0  0  0  0  0  0  0  0  0  0
  185.3400  178.4290  146.8910 C   0  0  0  0  0  2  0  0  0  0  0  0
  186.4500  177.0150  144.8310 C   0  0  0  0  0  2  0  0  0  0  0  0
  186.9180  177.5980  141.2550 C   0  0  0  0  0  3  0  0  0  0  0  0
  185.2840  179.2140  143.9650 C   0  0  0  0  0  2  0  0  0  0  0  0
  184.0800  178.6760  146.0870 C   0  0  0  0  0  3  0  0  0  0  0  0
  187.4400  176.3130  140.6200 C   0  0  0  0  0  2  0  0  0  0  0  0
  188.1170  174.6750  142.4430 C   0  0  0  0  0  2  0  0  0  0  0  0
  188.5670  175.5180  141.2630 C   0  0  0  0  0  3  0  0  0  0  0  0
  188.2550  174.0250  141.1010 C   0  0  0  0  0  2  0  0  0  0  0  0
  1 14  1  1  0  0  0
  1 15  1  0  0  0  0
  2  6  1  0  0  0  0
  2  9  1  0  0  0  0
  4 11  1  0  0  0  0
  4 25  1  0  0  0  0
  5  9  1  0  0  0  0
  7  2  2  0  0  0  0
  8  3  1  0  0  0  0
 10  8  1  0  0  0  0
 10  6  1  0  0  0  0
 11  3  1  0  0  0  0
 12 11  1  0  0  0  0
 12  8  1  0  0  0  0
 12  3  1  0  0  0  0
 13 16  1  0  0  0  0
 14 13  1  0  0  0  0
 15  4  1  0  0  0  0
 16  5  1  0  0  0  0
 17 20  1  0  0  0  0
 18 22  1  0  0  0  0
 18 17  1  0  0  0  0
 19 21  1  0  0  0  0
 20 21  1  0  0  0  0
 21  1  1  0  0  0  0
 22 19  1  0  0  0  0
 23 24  1  0  0  0  0
 24 18  1  0  0  0  0
 25 27  1  0  0  0  0
 26 25  1  0  0  0  0
 27 28  1  0  0  0  0
 28 30  1  0  0  0  0
 28 29  1  0  0  0  0
 31 35  1  0  0  0  0
 31 30  1  0  0  0  0
 32 39  2  0  0  0  0
 33 34  2  0  0  0  0
 34 38  1  0  0  0  0
 34 36  1  0  0  0  0
 36 31  1  0  0  0  0
 37 33  2  0  0  0  0
 38 32  1  0  0  0  0
 39 35  1  0  0  0  0
 40 37  1  0  0  0  0
 40 42  1  0  0  0  0
 42 41  1  0  0  0  0
 43 42  1  0  0  0  0
 43 41  1  0  0  0  0
M  END
>  <MODEL>
6

>  <REMARK>
 VINA RESULT:      -8.1      1.962      5.594
  Name = 
  9 active torsions:
  status: ('A' for Active; 'I' for Inactive)
    1  A    between atoms: C_1  and  C_35
    2  A    between atoms: C_2  and  C_6
    3  A    between atoms: C_2  and  C_13
    4  A    between atoms: C_3  and  C_4
    5  A    between atoms: C_3  and  C_12
    6  A    between atoms: C_6  and  C_12
    7  A    between atoms: C_19  and  C_37
    8  A    between atoms: C_29  and  C_36
    9  A    between atoms: C_36  and  C_40
                            x       y       z     vdW  Elec       q    Type
                         _______ _______ _______ _____ _____    ______ ____

>  <TORSDO>
F 9

$$$$
=
 OpenBabel11052421173D

 43 48  0  0  1  0  0  0  0  0999 V2000
  190.3200  176.2200  144.9670 C   0  0  2  0  0  3  0  0  0  0  0  0
  185.2240  178.9440  144.0680 C   0  0  0  0  0  0  0  0  0  0  0  0
  187.4400  174.9070  142.3170 C   0  0  2  0  0  3  0  0  0  0  0  0
  189.3360  174.0630  143.7560 C   0  0  2  0  0  3  0  0  0  0  0  0
  185.7780  176.9620  145.1440 C   0  0  0  0  0  2  0  0  0  0  0  0
  185.3970  178.3160  142.6900 C   0  0  0  0  0  2  0  0  0  0  0  0
  185.5940  180.1000  144.2640 O   0  0  0  0  0  0  0  0  0  0  0  0
  186.8390  176.2150  142.7930 C   0  0  2  0  0  3  0  0  0  0  0  0
  184.8280  178.0930  145.1890 C   0  0  0  0  0  2  0  0  0  0  0  0
  186.7900  177.7040  142.4480 C   0  0  0  0  0  2  0  0  0  0  0  0
  188.9350  174.7180  142.4210 C   0  0  2  0  0  3  0  0  0  0  0  0
  188.3430  176.0880  142.7210 C   0  0  1  0  0  3  0  0  0  0  0  0
  187.9130  176.7540  146.0670 C   0  0  0  0  0  2  0  0  0  0  0  0
  189.4550  176.8350  145.8470 C   0  0  0  0  0  2  0  0  0  0  0  0
  190.2930  174.8920  144.4420 O   0  0  0  0  0  0  0  0  0  0  0  0
  186.4850  176.7960  146.3790 O   0  0  0  0  0  0  0  0  0  0  0  0
  194.1370  176.3160  144.3020 C   0  0  0  0  0  2  0  0  0  0  0  0
  194.6140  176.0080  145.7040 C   0  0  1  0  0  3  0  0  0  0  0  0
  192.2480  176.4160  146.6210 C   0  0  0  0  0  2  0  0  0  0  0  0
  192.6540  176.0210  144.1610 C   0  0  0  0  0  2  0  0  0  0  0  0
  191.7180  176.7540  145.1900 C   0  0  1  0  0  3  0  0  0  0  0  0
  193.7820  176.6390  146.8150 C   0  0  0  0  0  2  0  0  0  0  0  0
  196.3160  174.2290  145.8030 C   0  0  0  0  0  1  0  0  0  0  0  0
  194.8120  174.5280  145.9280 C   0  0  0  0  0  2  0  0  0  0  0  0
  189.9450  172.6260  143.5150 C   0  0  1  0  0  3  0  0  0  0  0  0
  189.8270  172.0090  142.1630 C   0  0  0  0  0  1  0  0  0  0  0  0
  191.1580  172.1490  144.2630 C   0  0  0  0  0  2  0  0  0  0  0  0
  192.2950  171.7110  143.3930 C   0  0  2  0  0  3  0  0  0  0  0  0
  192.6100  170.2580  143.4990 C   0  0  0  0  0  1  0  0  0  0  0  0
  193.5480  172.5270  143.7160 C   0  0  0  0  0  2  0  0  0  0  0  0
  194.1800  172.9210  142.3570 C   0  0  2  0  0  3  0  0  0  0  0  0
  195.7240  174.1350  139.8650 C   0  0  0  0  0  3  0  0  0  0  0  0
  192.6640  172.4530  139.0580 C   0  0  0  0  0  0  0  0  0  0  0  0
  193.5250  172.8220  139.9150 C   0  0  0  0  0  0  0  0  0  0  0  0
  195.6070  173.5370  142.3380 C   0  0  0  0  0  2  0  0  0  0  0  0
  193.1070  173.1410  141.3030 C   0  0  0  0  0  2  0  0  0  0  0  0
  191.7910  172.1100  138.0550 C   0  0  0  0  0  3  0  0  0  0  0  0
  194.9620  172.9050  139.4460 C   0  0  0  0  0  2  0  0  0  0  0  0
  195.9950  174.4030  141.1590 C   0  0  0  0  0  3  0  0  0  0  0  0
  190.2750  172.2770  138.0720 C   0  0  0  0  0  2  0  0  0  0  0  0
  188.4230  174.0180  137.9900 C   0  0  0  0  0  2  0  0  0  0  0  0
  189.6230  173.4750  138.7470 C   0  0  0  0  0  3  0  0  0  0  0  0
  188.1920  173.0860  139.1390 C   0  0  0  0  0  2  0  0  0  0  0  0
  1 21  1  0  0  0  0
  1 14  1  1  0  0  0
  2  7  2  0  0  0  0
  2  9  1  0  0  0  0
  3 11  1  0  0  0  0
  3 12  1  0  0  0  0
  3  8  1  0  0  0  0
  4 15  1  0  0  0  0
  5  9  1  0  0  0  0
  5 16  1  0  0  0  0
  6  2  1  0  0  0  0
 10  6  1  0  0  0  0
 10  8  1  0  0  0  0
 11 12  1  0  0  0  0
 11  4  1  0  0  0  0
 12  8  1  0  0  0  0
 13 16  1  0  0  0  0
 14 13  1  0  0  0  0
 15  1  1  0  0  0  0
 17 18  1  0  0  0  0
 18 24  1  0  0  0  0
 18 22  1  0  0  0  0
 19 22  1  0  0  0  0
 20 17  1  0  0  0  0
 20 21  1  0  0  0  0
 21 19  1  0  0  0  0
 23 24  1  0  0  0  0
 25  4  1  0  0  0  0
 25 27  1  0  0  0  0
 26 25  1  0  0  0  0
 28 29  1  0  0  0  0
 28 30  1  0  0  0  0
 28 27  1  0  0  0  0
 31 30  1  0  0  0  0
 32 39  2  0  0  0  0
 33 34  2  0  0  0  0
 34 36  1  0  0  0  0
 35 31  1  0  0  0  0
 36 31  1  0  0  0  0
 37 40  1  0  0  0  0
 37 33  2  0  0  0  0
 38 32  1  0  0  0  0
 38 34  1  0  0  0  0
 39 35  1  0  0  0  0
 40 42  1  0  0  0  0
 41 42  1  0  0  0  0
 41 43  1  0  0  0  0
 42 43  1  0  0  0  0
M  END
>  <MODEL>
7

>  <REMARK>
 VINA RESULT:      -8.0      2.381      8.171
  Name = 
  9 active torsions:
  status: ('A' for Active; 'I' for Inactive)
    1  A    between atoms: C_1  and  C_35
    2  A    between atoms: C_2  and  C_6
    3  A    between atoms: C_2  and  C_13
    4  A    between atoms: C_3  and  C_4
    5  A    between atoms: C_3  and  C_12
    6  A    between atoms: C_6  and  C_12
    7  A    between atoms: C_19  and  C_37
    8  A    between atoms: C_29  and  C_36
    9  A    between atoms: C_36  and  C_40
                            x       y       z     vdW  Elec       q    Type
                         _______ _______ _______ _____ _____    ______ ____

>  <TORSDO>
F 9

$$$$
=
 OpenBabel11052421173D

 43 48  0  0  1  0  0  0  0  0999 V2000
  188.1570  176.4790  143.5820 C   0  0  2  0  0  3  0  0  0  0  0  0
  193.1320  176.4710  146.6550 C   0  0  0  0  0  0  0  0  0  0  0  0
  190.9120  173.4070  143.4990 C   0  0  2  0  0  3  0  0  0  0  0  0
  189.1200  174.4950  142.0920 C   0  0  2  0  0  3  0  0  0  0  0  0
  192.6840  176.7300  144.3910 C   0  0  0  0  0  2  0  0  0  0  0  0
  192.8970  174.9660  146.5920 C   0  0  0  0  0  2  0  0  0  0  0  0
  192.7490  177.1100  147.6330 O   0  0  0  0  0  0  0  0  0  0  0  0
  191.5100  174.3200  144.5510 C   0  0  2  0  0  3  0  0  0  0  0  0
  193.6090  177.1630  145.4590 C   0  0  0  0  0  2  0  0  0  0  0  0
  191.5060  174.5690  146.0600 C   0  0  0  0  0  2  0  0  0  0  0  0
  189.4300  173.4960  143.2220 C   0  0  2  0  0  3  0  0  0  0  0  0
  190.0070  174.2710  144.3980 C   0  0  1  0  0  3  0  0  0  0  0  0
  190.6100  177.5950  143.7580 C   0  0  0  0  0  2  0  0  0  0  0  0
  189.0560  177.4900  143.8520 C   0  0  0  0  0  2  0  0  0  0  0  0
  188.1840  175.4860  142.5560 O   0  0  0  0  0  0  0  0  0  0  0  0
  192.0520  177.8370  143.7380 O   0  0  0  0  0  0  0  0  0  0  0  0
  185.5380  179.2020  144.4470 C   0  0  0  0  0  2  0  0  0  0  0  0
  185.1170  178.6820  145.8030 C   0  0  1  0  0  3  0  0  0  0  0  0
  186.3180  176.4560  145.3460 C   0  0  0  0  0  2  0  0  0  0  0  0
  186.8130  178.5220  143.9820 C   0  0  0  0  0  2  0  0  0  0  0  0
  186.7630  176.9510  143.9310 C   0  0  1  0  0  3  0  0  0  0  0  0
  185.0440  177.1620  145.9100 C   0  0  0  0  0  2  0  0  0  0  0  0
  186.3060  178.1460  147.8940 C   0  0  0  0  0  1  0  0  0  0  0  0
  185.9330  179.2810  146.9240 C   0  0  0  0  0  2  0  0  0  0  0  0
  188.5300  173.7490  140.8310 C   0  0  1  0  0  3  0  0  0  0  0  0
  188.1980  174.5410  139.6130 C   0  0  0  0  0  1  0  0  0  0  0  0
  188.8990  172.3280  140.5120 C   0  0  0  0  0  2  0  0  0  0  0  0
  190.0000  172.1800  139.5070 C   0  0  2  0  0  3  0  0  0  0  0  0
  189.6780  171.2410  138.3950 C   0  0  0  0  0  1  0  0  0  0  0  0
  191.2860  171.7260  140.1990 C   0  0  0  0  0  2  0  0  0  0  0  0
  192.2810  172.9110  140.1010 C   0  0  2  0  0  3  0  0  0  0  0  0
  194.3240  175.2210  139.3540 C   0  0  0  0  0  3  0  0  0  0  0  0
  194.6290  173.9740  142.7000 C   0  0  0  0  0  0  0  0  0  0  0  0
  194.0480  173.9670  141.5710 C   0  0  0  0  0  0  0  0  0  0  0  0
  192.2890  173.7850  138.8160 C   0  0  0  0  0  2  0  0  0  0  0  0
  193.4550  172.7120  141.0450 C   0  0  0  0  0  2  0  0  0  0  0  0
  195.3280  174.0550  143.8790 C   0  0  0  0  0  3  0  0  0  0  0  0
  193.9960  175.2820  140.8230 C   0  0  0  0  0  2  0  0  0  0  0  0
  193.5560  174.5420  138.4770 C   0  0  0  0  0  3  0  0  0  0  0  0
  195.8780  172.8870  144.6920 C   0  0  0  0  0  2  0  0  0  0  0  0
  193.8300  171.4680  145.1980 C   0  0  0  0  0  2  0  0  0  0  0  0
  195.0340  172.2030  145.7580 C   0  0  0  0  0  3  0  0  0  0  0  0
  195.0720  170.6910  145.5050 C   0  0  0  0  0  2  0  0  0  0  0  0
  1 14  1  6  0  0  0
  1 21  1  0  0  0  0
  2  7  2  0  0  0  0
  3 12  1  0  0  0  0
  3  8  1  0  0  0  0
  4 15  1  0  0  0  0
  4 11  1  0  0  0  0
  5  9  1  0  0  0  0
  6  2  1  0  0  0  0
  8 10  1  0  0  0  0
  9  2  1  0  0  0  0
 10  6  1  0  0  0  0
 11  3  1  0  0  0  0
 11 12  1  0  0  0  0
 12  8  1  0  0  0  0
 13 14  1  0  0  0  0
 15  1  1  0  0  0  0
 16 13  1  0  0  0  0
 16  5  1  0  0  0  0
 17 18  1  0  0  0  0
 18 22  1  0  0  0  0
 18 24  1  0  0  0  0
 19 22  1  0  0  0  0
 20 17  1  0  0  0  0
 21 20  1  0  0  0  0
 21 19  1  0  0  0  0
 24 23  1  0  0  0  0
 25  4  1  0  0  0  0
 26 25  1  0  0  0  0
 27 25  1  0  0  0  0
 28 30  1  0  0  0  0
 28 27  1  0  0  0  0
 29 28  1  0  0  0  0
 31 30  1  0  0  0  0
 31 36  1  0  0  0  0
 32 38  1  0  0  0  0
 33 37  2  0  0  0  0
 34 33  2  0  0  0  0
 35 31  1  0  0  0  0
 36 34  1  0  0  0  0
 37 40  1  0  0  0  0
 38 34  1  0  0  0  0
 39 35  1  0  0  0  0
 39 32  2  0  0  0  0
 40 42  1  0  0  0  0
 41 43  1  0  0  0  0
 41 42  1  0  0  0  0
 43 42  1  0  0  0  0
M  END
>  <MODEL>
8

>  <REMARK>
 VINA RESULT:      -7.9      2.181      8.182
  Name = 
  9 active torsions:
  status: ('A' for Active; 'I' for Inactive)
    1  A    between atoms: C_1  and  C_35
    2  A    between atoms: C_2  and  C_6
    3  A    between atoms: C_2  and  C_13
    4  A    between atoms: C_3  and  C_4
    5  A    between atoms: C_3  and  C_12
    6  A    between atoms: C_6  and  C_12
    7  A    between atoms: C_19  and  C_37
    8  A    between atoms: C_29  and  C_36
    9  A    between atoms: C_36  and  C_40
                            x       y       z     vdW  Elec       q    Type
                         _______ _______ _______ _____ _____    ______ ____

>  <TORSDO>
F 9

$$$$
=
 OpenBabel11052421173D

 43 48  0  0  1  0  0  0  0  0999 V2000
  191.3210  174.7110  143.4630 C   0  0  2  0  0  3  0  0  0  0  0  0
  186.4100  176.9310  145.7320 C   0  0  0  0  0  0  0  0  0  0  0  0
  191.1040  176.5150  147.1690 C   0  0  2  0  0  3  0  0  0  0  0  0
  192.7230  176.0490  145.2880 C   0  0  2  0  0  3  0  0  0  0  0  0
  188.3270  177.9160  144.8660 C   0  0  0  0  0  2  0  0  0  0  0  0
  187.1150  176.5540  147.0300 C   0  0  0  0  0  2  0  0  0  0  0  0
  185.6030  176.1530  145.2260 O   0  0  0  0  0  0  0  0  0  0  0  0
  189.6490  176.5230  146.7440 C   0  0  2  0  0  3  0  0  0  0  0  0
  186.8670  178.1070  144.9940 C   0  0  0  0  0  2  0  0  0  0  0  0
  188.3730  175.6860  146.8330 C   0  0  0  0  0  2  0  0  0  0  0  0
  192.0340  175.4980  146.5490 C   0  0  2  0  0  3  0  0  0  0  0  0
  190.5400  175.3970  146.2710 C   0  0  1  0  0  3  0  0  0  0  0  0
  189.5560  176.7450  143.2640 C   0  0  0  0  0  2  0  0  0  0  0  0
  190.2980  175.4270  142.8790 C   0  0  0  0  0  2  0  0  0  0  0  0
  192.4710  175.1770  144.1700 O   0  0  0  0  0  0  0  0  0  0  0  0
  188.7630  177.9490  143.5030 O   0  0  0  0  0  0  0  0  0  0  0  0
  191.6210  172.7410  140.1380 C   0  0  0  0  0  2  0  0  0  0  0  0
  190.5520  171.7030  140.3990 C   0  0  1  0  0  3  0  0  0  0  0  0
  190.4640  172.3840  142.8760 C   0  0  0  0  0  2  0  0  0  0  0  0
  191.5190  173.8800  141.1380 C   0  0  0  0  0  2  0  0  0  0  0  0
  191.5760  173.4590  142.6520 C   0  0  1  0  0  3  0  0  0  0  0  0
  190.4750  171.2140  141.8420 C   0  0  0  0  0  2  0  0  0  0  0  0
  189.2930  172.2470  138.3520 C   0  0  0  0  0  1  0  0  0  0  0  0
  189.1990  172.1320  139.8840 C   0  0  0  0  0  2  0  0  0  0  0  0
  194.2790  176.1930  145.5170 C   0  0  1  0  0  3  0  0  0  0  0  0
  194.8510  177.5470  145.7610 C   0  0  0  0  0  1  0  0  0  0  0  0
  195.0840  175.1010  146.1640 C   0  0  0  0  0  2  0  0  0  0  0  0
  195.8140  174.2130  145.2040 C   0  0  2  0  0  3  0  0  0  0  0  0
  196.6180  173.1450  145.8630 C   0  0  0  0  0  1  0  0  0  0  0  0
  196.7240  175.0500  144.3020 C   0  0  0  0  0  2  0  0  0  0  0  0
  196.1290  174.9610  142.8730 C   0  0  2  0  0  3  0  0  0  0  0  0
  194.7440  175.3070  140.0400 C   0  0  0  0  0  3  0  0  0  0  0  0
  194.8760  171.9340  141.2430 C   0  0  0  0  0  0  0  0  0  0  0  0
  195.1480  173.1660  141.3870 C   0  0  0  0  0  0  0  0  0  0  0  0
  196.0790  176.2440  141.9970 C   0  0  0  0  0  2  0  0  0  0  0  0
  195.2030  173.7630  142.7440 C   0  0  0  0  0  2  0  0  0  0  0  0
  194.5270  170.6290  140.9950 C   0  0  0  0  0  3  0  0  0  0  0  0
  195.4100  173.9590  140.1240 C   0  0  0  0  0  2  0  0  0  0  0  0
  195.0500  176.3100  140.8880 C   0  0  0  0  0  3  0  0  0  0  0  0
  193.8630  169.6630  141.9710 C   0  0  0  0  0  2  0  0  0  0  0  0
  193.5310  170.6980  144.2700 C   0  0  0  0  0  2  0  0  0  0  0  0
  194.2470  169.6440  143.4440 C   0  0  0  0  0  3  0  0  0  0  0  0
  192.9960  169.3000  144.2620 C   0  0  0  0  0  2  0  0  0  0  0  0
  1 14  1  6  0  0  0
  1 15  1  0  0  0  0
  2  6  1  0  0  0  0
  4 25  1  0  0  0  0
  4 11  1  0  0  0  0
  5  9  1  0  0  0  0
  7  2  2  0  0  0  0
  8 10  1  0  0  0  0
  8  3  1  0  0  0  0
  9  2  1  0  0  0  0
 10  6  1  0  0  0  0
 11  3  1  0  0  0  0
 12 11  1  0  0  0  0
 12  8  1  0  0  0  0
 12  3  1  0  0  0  0
 13 16  1  0  0  0  0
 14 13  1  0  0  0  0
 15  4  1  0  0  0  0
 16  5  1  0  0  0  0
 17 18  1  0  0  0  0
 17 20  1  0  0  0  0
 18 22  1  0  0  0  0
 20 21  1  0  0  0  0
 21 19  1  0  0  0  0
 21  1  1  0  0  0  0
 22 19  1  0  0  0  0
 23 24  1  0  0  0  0
 24 18  1  0  0  0  0
 25 26  1  0  0  0  0
 25 27  1  0  0  0  0
 28 29  1  0  0  0  0
 28 27  1  0  0  0  0
 30 28  1  0  0  0  0
 31 30  1  0  0  0  0
 32 38  1  0  0  0  0
 32 39  2  0  0  0  0
 33 34  2  0  0  0  0
 34 36  1  0  0  0  0
 35 31  1  0  0  0  0
 36 31  1  0  0  0  0
 37 33  2  0  0  0  0
 37 40  1  0  0  0  0
 38 34  1  0  0  0  0
 39 35  1  0  0  0  0
 40 42  1  0  0  0  0
 42 43  1  0  0  0  0
 42 41  1  0  0  0  0
 43 41  1  0  0  0  0
M  END
>  <MODEL>
9

>  <REMARK>
 VINA RESULT:      -7.9      2.168      8.283
  Name = 
  9 active torsions:
  status: ('A' for Active; 'I' for Inactive)
    1  A    between atoms: C_1  and  C_35
    2  A    between atoms: C_2  and  C_6
    3  A    between atoms: C_2  and  C_13
    4  A    between atoms: C_3  and  C_4
    5  A    between atoms: C_3  and  C_12
    6  A    between atoms: C_6  and  C_12
    7  A    between atoms: C_19  and  C_37
    8  A    between atoms: C_29  and  C_36
    9  A    between atoms: C_36  and  C_40
                            x       y       z     vdW  Elec       q    Type
                         _______ _______ _______ _____ _____    ______ ____

>  <TORSDO>
F 9

$$$$
