=
 OpenBabel11052418203D

 27 31  0  0  1  0  0  0  0  0999 V2000
  188.3930  176.2280  145.7520 C   0  0  0  0  0  3  0  0  0  0  0  0
  187.9560  176.0230  143.3020 C   0  0  0  0  0  0  0  0  0  0  0  0
  190.4170  175.9060  143.5030 C   0  0  0  0  0  3  0  0  0  0  0  0
  188.7770  174.2380  139.6240 O   0  0  0  0  0  0  0  0  0  0  0  0
  189.3910  172.1290  139.6890 O   0  0  0  0  0  1  0  0  0  0  0  0
  187.1330  176.3350  142.1550 N   0  0  0  0  0  0  0  0  0  0  0  0
  190.2590  173.5950  141.1910 C   0  0  1  0  0  3  0  0  0  0  0  0
  192.8540  176.5300  145.9260 C   0  0  0  0  0  3  0  0  0  0  0  0
  191.6880  174.1040  141.2400 C   0  0  0  0  0  1  0  0  0  0  0  0
  192.6050  175.4490  146.8960 C   0  0  0  0  0  3  0  0  0  0  0  0
  189.3100  174.6230  141.7240 C   0  0  1  0  0  3  0  0  0  0  0  0
  187.5940  176.4630  144.5280 C   0  0  0  0  0  0  0  0  0  0  0  0
  189.8610  173.3960  139.7860 N   0  0  0  0  0  0  0  0  0  0  0  0
  188.4720  174.9270  140.7730 C   0  0  0  0  0  0  0  0  0  0  0  0
  189.7230  176.1010  145.8750 C   0  0  0  0  0  0  0  0  0  0  0  0
  189.1870  175.1490  143.1300 C   0  0  0  0  0  0  0  0  0  0  0  0
  191.9990  176.9130  144.9730 C   0  0  0  0  0  3  0  0  0  0  0  0
  187.3510  175.8430  140.9720 C   0  0  0  0  0  3  0  0  0  0  0  0
  191.4260  175.1990  147.4670 C   0  0  0  0  0  3  0  0  0  0  0  0
  190.2230  176.0680  147.2850 C   0  0  0  0  0  2  0  0  0  0  0  0
  190.6770  176.3080  144.7470 C   0  0  0  0  0  0  0  0  0  0  0  0
  184.2630  178.8810  145.8420 C   0  0  0  0  0  3  0  0  0  0  0  0
  186.3040  177.2040  144.7590 C   0  0  1  0  0  3  0  0  0  0  0  0
  185.6400  176.8030  146.0790 C   0  0  0  0  0  2  0  0  0  0  0  0
  184.4750  177.6930  146.4310 C   0  0  0  0  0  3  0  0  0  0  0  0
  185.1100  179.3840  144.7020 C   0  0  0  0  0  2  0  0  0  0  0  0
  186.4820  178.7180  144.6710 C   0  0  0  0  0  2  0  0  0  0  0  0
  1 15  1  0  0  0  0
  2 12  1  0  0  0  0
  3 21  1  0  0  0  0
  4 13  1  0  0  0  0
  4 14  1  0  0  0  0
  5 13  1  0  0  0  0
  6  2  2  0  0  0  0
  7  9  1  6  0  0  0
  7 11  1  0  0  0  0
  8 10  1  0  0  0  0
 10 19  2  0  0  0  0
 11 14  1  1  0  0  0
 11 16  1  0  0  0  0
 12  1  2  0  0  0  0
 13  7  1  0  0  0  0
 14 18  2  0  0  0  0
 15 20  1  0  0  0  0
 16  2  1  0  0  0  0
 16  3  2  0  0  0  0
 17  8  2  0  0  0  0
 18  6  1  0  0  0  0
 20 19  1  0  0  0  0
 21 17  1  0  0  0  0
 21 15  2  0  0  0  0
 22 25  2  0  0  0  0
 23 12  1  1  0  0  0
 23 24  1  0  0  0  0
 24 25  1  0  0  0  0
 26 22  1  0  0  0  0
 27 26  1  0  0  0  0
 27 23  1  0  0  0  0
M  END
>  <MODEL>
1

>  <REMARK>
 VINA RESULT:      -9.2      0.000      0.000
  Name = 
  1 active torsions:
  status: ('A' for Active; 'I' for Inactive)
    1  A    between atoms: C_9  and  C_15
                            x       y       z     vdW  Elec       q    Type
                         _______ _______ _______ _____ _____    ______ ____

>  <TORSDO>
F 1

$$$$
=
 OpenBabel11052418203D

 27 31  0  0  1  0  0  0  0  0999 V2000
  187.8630  176.3560  143.3890 C   0  0  0  0  0  3  0  0  0  0  0  0
  189.1960  176.7010  145.4720 C   0  0  0  0  0  0  0  0  0  0  0  0
  190.1290  174.6400  144.4750 C   0  0  0  0  0  3  0  0  0  0  0  0
  192.8620  176.6760  147.4580 O   0  0  0  0  0  0  0  0  0  0  0  0
  194.6210  177.1980  146.2490 O   0  0  0  0  0  1  0  0  0  0  0  0
  189.2790  177.1960  146.8280 N   0  0  0  0  0  0  0  0  0  0  0  0
  193.0480  175.7990  145.3940 C   0  0  1  0  0  3  0  0  0  0  0  0
  189.2780  172.3540  141.9750 C   0  0  0  0  0  3  0  0  0  0  0  0
  193.2010  174.3120  145.1340 C   0  0  0  0  0  1  0  0  0  0  0  0
  189.4430  173.1610  140.7530 C   0  0  0  0  0  3  0  0  0  0  0  0
  191.6270  176.1400  145.7190 C   0  0  0  0  0  0  0  0  0  0  0  0
  188.0540  176.8640  144.7670 C   0  0  0  0  0  0  0  0  0  0  0  0
  193.8160  176.1660  146.5970 N   0  0  0  0  0  0  0  0  0  0  0  0
  191.6010  176.6610  146.9130 C   0  0  0  0  0  0  0  0  0  0  0  0
  188.4050  175.2750  142.8090 C   0  0  0  0  0  0  0  0  0  0  0  0
  190.4150  176.0610  144.8280 C   0  0  2  0  0  3  0  0  0  0  0  0
  189.1900  172.8510  143.2130 C   0  0  0  0  0  3  0  0  0  0  0  0
  190.3800  177.1860  147.5190 C   0  0  0  0  0  3  0  0  0  0  0  0
  188.8550  174.3380  140.5350 C   0  0  0  0  0  3  0  0  0  0  0  0
  187.8460  174.9370  141.4640 C   0  0  0  0  0  2  0  0  0  0  0  0
  189.2470  174.2840  143.5420 C   0  0  0  0  0  0  0  0  0  0  0  0
  184.2820  178.7400  145.7260 C   0  0  0  0  0  3  0  0  0  0  0  0
  186.8790  177.6240  145.3200 C   0  0  1  0  0  3  0  0  0  0  0  0
  186.3650  178.6800  144.3370 C   0  0  0  0  0  2  0  0  0  0  0  0
  185.0580  179.2900  144.7780 C   0  0  0  0  0  3  0  0  0  0  0  0
  184.6970  177.5210  146.5080 C   0  0  0  0  0  2  0  0  0  0  0  0
  185.7510  176.7000  145.7710 C   0  0  0  0  0  2  0  0  0  0  0  0
  1 12  1  0  0  0  0
  2  6  1  0  0  0  0
  5 13  1  0  0  0  0
  6 18  2  0  0  0  0
  7  9  1  1  0  0  0
  7 11  1  0  0  0  0
  7 13  1  0  0  0  0
  8 17  2  0  0  0  0
 10  8  1  0  0  0  0
 11 14  2  0  0  0  0
 12  2  2  0  0  0  0
 13  4  1  0  0  0  0
 14  4  1  0  0  0  0
 14 18  1  0  0  0  0
 15  1  2  0  0  0  0
 15 21  1  0  0  0  0
 16  3  1  1  0  0  0
 16  2  1  0  0  0  0
 16 11  1  0  0  0  0
 17 21  1  0  0  0  0
 19 10  2  0  0  0  0
 19 20  1  0  0  0  0
 20 15  1  0  0  0  0
 21  3  2  0  0  0  0
 22 26  1  0  0  0  0
 23 12  1  6  0  0  0
 23 27  1  0  0  0  0
 24 25  1  0  0  0  0
 24 23  1  0  0  0  0
 25 22  2  0  0  0  0
 27 26  1  0  0  0  0
M  END
>  <MODEL>
2

>  <REMARK>
 VINA RESULT:      -9.0      3.300      5.242
  Name = 
  1 active torsions:
  status: ('A' for Active; 'I' for Inactive)
    1  A    between atoms: C_9  and  C_15
                            x       y       z     vdW  Elec       q    Type
                         _______ _______ _______ _____ _____    ______ ____

>  <TORSDO>
F 1

$$$$
=
 OpenBabel11052418203D

 27 31  0  0  1  0  0  0  0  0999 V2000
  187.4440  176.8950  142.6520 C   0  0  0  0  0  3  0  0  0  0  0  0
  188.8490  177.0100  144.7130 C   0  0  0  0  0  0  0  0  0  0  0  0
  189.6480  174.9900  143.5310 C   0  0  0  0  0  3  0  0  0  0  0  0
  192.5620  176.6490  146.5770 O   0  0  0  0  0  0  0  0  0  0  0  0
  194.3120  177.1780  145.3570 O   0  0  0  0  0  1  0  0  0  0  0  0
  188.9950  177.3910  146.1000 N   0  0  0  0  0  0  0  0  0  0  0  0
  192.6460  175.9300  144.4460 C   0  0  1  0  0  3  0  0  0  0  0  0
  188.6140  172.9530  140.8900 C   0  0  0  0  0  3  0  0  0  0  0  0
  192.7160  174.4620  144.0670 C   0  0  0  0  0  1  0  0  0  0  0  0
  188.7870  173.8450  139.7290 C   0  0  0  0  0  3  0  0  0  0  0  0
  191.2540  176.3120  144.8400 C   0  0  0  0  0  0  0  0  0  0  0  0
  187.6980  177.2830  144.0580 C   0  0  0  0  0  0  0  0  0  0  0  0
  193.4640  176.1620  145.6500 N   0  0  0  0  0  0  0  0  0  0  0  0
  191.2870  176.7380  146.0710 C   0  0  0  0  0  0  0  0  0  0  0  0
  187.9150  175.8380  141.9740 C   0  0  0  0  0  0  0  0  0  0  0  0
  190.0160  176.3630  143.9840 C   0  0  2  0  0  3  0  0  0  0  0  0
  188.5850  173.3540  142.1640 C   0  0  0  0  0  3  0  0  0  0  0  0
  190.1120  177.2740  146.7540 C   0  0  0  0  0  3  0  0  0  0  0  0
  188.2530  175.0620  139.6210 C   0  0  0  0  0  3  0  0  0  0  0  0
  187.3030  175.6340  140.6240 C   0  0  0  0  0  2  0  0  0  0  0  0
  188.7240  174.7530  142.6010 C   0  0  0  0  0  0  0  0  0  0  0  0
  184.0120  179.0890  145.4060 C   0  0  0  0  0  3  0  0  0  0  0  0
  186.5790  178.0540  144.7050 C   0  0  1  0  0  3  0  0  0  0  0  0
  185.8400  178.9430  143.7000 C   0  0  0  0  0  2  0  0  0  0  0  0
  184.5830  179.5440  144.2780 C   0  0  0  0  0  3  0  0  0  0  0  0
  184.6320  178.0070  146.2510 C   0  0  0  0  0  2  0  0  0  0  0  0
  185.6060  177.1460  145.4530 C   0  0  0  0  0  2  0  0  0  0  0  0
  1 12  1  0  0  0  0
  2  6  1  0  0  0  0
  5 13  1  0  0  0  0
  6 18  2  0  0  0  0
  7  9  1  1  0  0  0
  7 11  1  0  0  0  0
  7 13  1  0  0  0  0
  8 17  2  0  0  0  0
 10  8  1  0  0  0  0
 11 14  2  0  0  0  0
 12  2  2  0  0  0  0
 13  4  1  0  0  0  0
 14  4  1  0  0  0  0
 14 18  1  0  0  0  0
 15 21  1  0  0  0  0
 15  1  2  0  0  0  0
 16  3  1  1  0  0  0
 16  2  1  0  0  0  0
 16 11  1  0  0  0  0
 17 21  1  0  0  0  0
 19 10  2  0  0  0  0
 19 20  1  0  0  0  0
 20 15  1  0  0  0  0
 21  3  2  0  0  0  0
 22 26  1  0  0  0  0
 23 12  1  6  0  0  0
 23 27  1  0  0  0  0
 24 25  1  0  0  0  0
 24 23  1  0  0  0  0
 25 22  2  0  0  0  0
 27 26  1  0  0  0  0
M  END
>  <MODEL>
3

>  <REMARK>
 VINA RESULT:      -7.9      3.108      5.142
  Name = 
  1 active torsions:
  status: ('A' for Active; 'I' for Inactive)
    1  A    between atoms: C_9  and  C_15
                            x       y       z     vdW  Elec       q    Type
                         _______ _______ _______ _____ _____    ______ ____

>  <TORSDO>
F 1

$$$$
=
 OpenBabel11052418203D

 27 31  0  0  1  0  0  0  0  0999 V2000
  189.7300  176.1120  145.8850 C   0  0  0  0  0  3  0  0  0  0  0  0
  188.9860  175.0870  143.7330 C   0  0  0  0  0  0  0  0  0  0  0  0
  191.4430  175.2650  143.5170 C   0  0  0  0  0  3  0  0  0  0  0  0
  189.5280  172.2900  140.6880 O   0  0  0  0  0  0  0  0  0  0  0  0
  190.4400  170.3810  141.2800 O   0  0  0  0  0  1  0  0  0  0  0  0
  187.9740  174.9350  142.7120 N   0  0  0  0  0  0  0  0  0  0  0  0
  191.2930  172.3270  142.0850 C   0  0  1  0  0  3  0  0  0  0  0  0
  194.0810  176.8580  145.1600 C   0  0  0  0  0  3  0  0  0  0  0  0
  192.6270  172.9520  141.7210 C   0  0  0  0  0  1  0  0  0  0  0  0
  194.1280  176.1310  146.4410 C   0  0  0  0  0  3  0  0  0  0  0  0
  190.2910  173.3800  142.4410 C   0  0  1  0  0  3  0  0  0  0  0  0
  188.7410  175.8650  144.8120 C   0  0  0  0  0  0  0  0  0  0  0  0
  190.7340  171.6480  140.9020 N   0  0  0  0  0  0  0  0  0  0  0  0
  189.2930  173.2830  141.6080 C   0  0  0  0  0  0  0  0  0  0  0  0
  191.0680  176.1540  145.8020 C   0  0  0  0  0  0  0  0  0  0  0  0
  190.2930  174.3200  143.6180 C   0  0  0  0  0  0  0  0  0  0  0  0
  193.0550  176.8330  144.3040 C   0  0  0  0  0  3  0  0  0  0  0  0
  188.0920  174.1080  141.7160 C   0  0  0  0  0  3  0  0  0  0  0  0
  193.0890  175.9730  147.2620 C   0  0  0  0  0  3  0  0  0  0  0  0
  191.7610  176.6230  147.0410 C   0  0  0  0  0  2  0  0  0  0  0  0
  191.8140  176.0700  144.5130 C   0  0  0  0  0  0  0  0  0  0  0  0
  185.3080  178.2330  145.9410 C   0  0  0  0  0  3  0  0  0  0  0  0
  187.4040  176.5200  145.0320 C   0  0  1  0  0  3  0  0  0  0  0  0
  186.9550  176.4290  146.4930 C   0  0  0  0  0  2  0  0  0  0  0  0
  185.7360  177.2710  146.7750 C   0  0  0  0  0  3  0  0  0  0  0  0
  185.9470  178.4880  144.6000 C   0  0  0  0  0  2  0  0  0  0  0  0
  187.3780  177.9650  144.5390 C   0  0  0  0  0  2  0  0  0  0  0  0
  2 12  1  0  0  0  0
  3 16  2  0  0  0  0
  3 21  1  0  0  0  0
  4 13  1  0  0  0  0
  4 14  1  0  0  0  0
  6  2  2  0  0  0  0
  7  9  1  6  0  0  0
  7 11  1  0  0  0  0
  8 10  1  0  0  0  0
 10 19  2  0  0  0  0
 11 14  1  1  0  0  0
 11 16  1  0  0  0  0
 12  1  2  0  0  0  0
 13  5  1  0  0  0  0
 13  7  1  0  0  0  0
 14 18  2  0  0  0  0
 15  1  1  0  0  0  0
 15 20  1  0  0  0  0
 16  2  1  0  0  0  0
 17 21  1  0  0  0  0
 17  8  2  0  0  0  0
 18  6  1  0  0  0  0
 20 19  1  0  0  0  0
 21 15  2  0  0  0  0
 22 25  2  0  0  0  0
 23 12  1  1  0  0  0
 23 24  1  0  0  0  0
 24 25  1  0  0  0  0
 26 22  1  0  0  0  0
 27 26  1  0  0  0  0
 27 23  1  0  0  0  0
M  END
>  <MODEL>
4

>  <REMARK>
 VINA RESULT:      -7.9      1.336      1.643
  Name = 
  1 active torsions:
  status: ('A' for Active; 'I' for Inactive)
    1  A    between atoms: C_9  and  C_15
                            x       y       z     vdW  Elec       q    Type
                         _______ _______ _______ _____ _____    ______ ____

>  <TORSDO>
F 1

$$$$
=
 OpenBabel11052418203D

 27 31  0  0  1  0  0  0  0  0999 V2000
  188.7140  176.1700  145.0610 C   0  0  0  0  0  3  0  0  0  0  0  0
  188.5510  175.3470  142.7100 C   0  0  0  0  0  0  0  0  0  0  0  0
  190.9760  175.3700  143.1910 C   0  0  0  0  0  3  0  0  0  0  0  0
  189.7870  172.7320  139.7060 O   0  0  0  0  0  0  0  0  0  0  0  0
  190.4060  170.7280  140.3630 O   0  0  0  0  0  1  0  0  0  0  0  0
  187.8570  175.3340  141.4410 N   0  0  0  0  0  0  0  0  0  0  0  0
  191.0920  172.5530  141.5310 C   0  0  1  0  0  3  0  0  0  0  0  0
  193.1250  176.6640  145.6210 C   0  0  0  0  0  3  0  0  0  0  0  0
  192.5030  173.1070  141.6010 C   0  0  0  0  0  1  0  0  0  0  0  0
  192.7780  175.8500  146.8010 C   0  0  0  0  0  3  0  0  0  0  0  0
  190.0820  173.6460  141.6850 C   0  0  1  0  0  3  0  0  0  0  0  0
  188.0530  176.0650  143.7410 C   0  0  0  0  0  0  0  0  0  0  0  0
  190.8540  171.9950  140.1880 N   0  0  0  0  0  0  0  0  0  0  0  0
  189.3520  173.6740  140.6060 C   0  0  0  0  0  0  0  0  0  0  0  0
  190.0230  176.1260  145.3520 C   0  0  0  0  0  0  0  0  0  0  0  0
  189.8010  174.5010  142.8930 C   0  0  0  0  0  0  0  0  0  0  0  0
  192.3780  176.7660  144.5180 C   0  0  0  0  0  3  0  0  0  0  0  0
  188.2090  174.5700  140.4500 C   0  0  0  0  0  3  0  0  0  0  0  0
  191.5460  175.7090  147.2890 C   0  0  0  0  0  3  0  0  0  0  0  0
  190.3640  176.4620  146.7680 C   0  0  0  0  0  2  0  0  0  0  0  0
  191.0930  176.0780  144.3140 C   0  0  0  0  0  0  0  0  0  0  0  0
  184.6420  178.7130  143.9130 C   0  0  0  0  0  3  0  0  0  0  0  0
  186.7400  176.7940  143.6410 C   0  0  1  0  0  3  0  0  0  0  0  0
  186.0820  176.9830  145.0110 C   0  0  0  0  0  2  0  0  0  0  0  0
  184.8890  177.9030  144.9560 C   0  0  0  0  0  3  0  0  0  0  0  0
  185.4790  178.7000  142.6590 C   0  0  0  0  0  2  0  0  0  0  0  0
  186.8710  178.1270  142.9060 C   0  0  0  0  0  2  0  0  0  0  0  0
  1 15  1  0  0  0  0
  2 16  1  0  0  0  0
  2 12  1  0  0  0  0
  3 21  1  0  0  0  0
  4 13  1  0  0  0  0
  4 14  1  0  0  0  0
  6  2  2  0  0  0  0
  7  9  1  6  0  0  0
  7 11  1  0  0  0  0
  8 10  1  0  0  0  0
 10 19  2  0  0  0  0
 11 14  1  1  0  0  0
 11 16  1  0  0  0  0
 12  1  2  0  0  0  0
 13  5  1  0  0  0  0
 13  7  1  0  0  0  0
 15 20  1  0  0  0  0
 16  3  2  0  0  0  0
 17  8  2  0  0  0  0
 18 14  2  0  0  0  0
 18  6  1  0  0  0  0
 20 19  1  0  0  0  0
 21 17  1  0  0  0  0
 21 15  2  0  0  0  0
 22 25  2  0  0  0  0
 23 12  1  1  0  0  0
 23 24  1  0  0  0  0
 25 24  1  0  0  0  0
 26 27  1  0  0  0  0
 26 22  1  0  0  0  0
 27 23  1  0  0  0  0
M  END
>  <MODEL>
5

>  <REMARK>
 VINA RESULT:      -7.7      1.112      1.310
  Name = 
  1 active torsions:
  status: ('A' for Active; 'I' for Inactive)
    1  A    between atoms: C_9  and  C_15
                            x       y       z     vdW  Elec       q    Type
                         _______ _______ _______ _____ _____    ______ ____

>  <TORSDO>
F 1

$$$$
=
 OpenBabel11052418203D

 27 31  0  0  1  0  0  0  0  0999 V2000
  188.8020  177.4560  146.1860 C   0  0  0  0  0  3  0  0  0  0  0  0
  188.8030  176.4410  143.9050 C   0  0  0  0  0  0  0  0  0  0  0  0
  186.4150  176.8490  144.3980 C   0  0  0  0  0  3  0  0  0  0  0  0
  187.3540  176.3400  139.9960 O   0  0  0  0  0  0  0  0  0  0  0  0
  186.7650  178.2730  139.1340 O   0  0  0  0  0  1  0  0  0  0  0  0
  189.4120  175.5550  142.9380 N   0  0  0  0  0  0  0  0  0  0  0  0
  186.1700  177.7710  141.2680 C   0  0  1  0  0  3  0  0  0  0  0  0
  184.4400  177.6550  147.1640 C   0  0  0  0  0  3  0  0  0  0  0  0
  184.7710  177.4700  141.7740 C   0  0  0  0  0  1  0  0  0  0  0  0
  184.8580  179.0400  147.4450 C   0  0  0  0  0  3  0  0  0  0  0  0
  187.1960  177.0400  142.0760 C   0  0  1  0  0  3  0  0  0  0  0  0
  189.3740  176.6030  145.1200 C   0  0  0  0  0  0  0  0  0  0  0  0
  186.3160  177.2480  139.8980 N   0  0  0  0  0  0  0  0  0  0  0  0
  187.8540  176.2510  141.2730 C   0  0  0  0  0  0  0  0  0  0  0  0
  187.5140  177.7390  146.4350 C   0  0  0  0  0  0  0  0  0  0  0  0
  187.5620  177.2320  143.5250 C   0  0  0  0  0  0  0  0  0  0  0  0
  185.1140  176.7960  146.3930 C   0  0  0  0  0  3  0  0  0  0  0  0
  188.9910  175.4460  141.7130 C   0  0  0  0  0  3  0  0  0  0  0  0
  186.1190  179.4290  147.6380 C   0  0  0  0  0  3  0  0  0  0  0  0
  187.2700  178.4760  147.7130 C   0  0  0  0  0  2  0  0  0  0  0  0
  186.3770  177.1060  145.7050 C   0  0  0  0  0  0  0  0  0  0  0  0
  193.2920  175.4290  146.5130 C   0  0  0  0  0  3  0  0  0  0  0  0
  190.6820  175.9510  145.4770 C   0  0  1  0  0  3  0  0  0  0  0  0
  191.8780  176.7000  144.8820 C   0  0  0  0  0  2  0  0  0  0  0  0
  193.1960  176.1970  145.4150 C   0  0  0  0  0  3  0  0  0  0  0  0
  192.0840  174.9160  147.2520 C   0  0  0  0  0  2  0  0  0  0  0  0
  190.8450  175.7660  146.9840 C   0  0  0  0  0  2  0  0  0  0  0  0
  1 15  1  0  0  0  0
  2 12  1  0  0  0  0
  3 21  1  0  0  0  0
  4 14  1  0  0  0  0
  5 13  1  0  0  0  0
  6  2  2  0  0  0  0
  7  9  1  1  0  0  0
  7 11  1  0  0  0  0
  8 10  1  0  0  0  0
 10 19  2  0  0  0  0
 11 14  1  6  0  0  0
 11 16  1  0  0  0  0
 12  1  2  0  0  0  0
 13  4  1  0  0  0  0
 13  7  1  0  0  0  0
 14 18  2  0  0  0  0
 15 20  1  0  0  0  0
 16  2  1  0  0  0  0
 16  3  2  0  0  0  0
 17  8  2  0  0  0  0
 18  6  1  0  0  0  0
 19 20  1  0  0  0  0
 21 17  1  0  0  0  0
 21 15  2  0  0  0  0
 22 26  1  0  0  0  0
 23 12  1  1  0  0  0
 23 27  1  0  0  0  0
 24 25  1  0  0  0  0
 24 23  1  0  0  0  0
 25 22  2  0  0  0  0
 27 26  1  0  0  0  0
M  END
>  <MODEL>
6

>  <REMARK>
 VINA RESULT:      -7.7      1.885      5.626
  Name = 
  1 active torsions:
  status: ('A' for Active; 'I' for Inactive)
    1  A    between atoms: C_9  and  C_15
                            x       y       z     vdW  Elec       q    Type
                         _______ _______ _______ _____ _____    ______ ____

>  <TORSDO>
F 1

$$$$
=
 OpenBabel11052418203D

 27 31  0  0  1  0  0  0  0  0999 V2000
  190.6460  175.4580  143.5520 C   0  0  0  0  0  3  0  0  0  0  0  0
  188.2370  175.9590  143.1300 C   0  0  1  0  0  3  0  0  0  0  0  0
  188.4850  176.1350  145.5840 C   0  0  0  0  0  3  0  0  0  0  0  0
  184.8290  178.2290  143.9190 O   0  0  0  0  0  0  0  0  0  0  0  0
  185.1710  180.3320  144.4550 O   0  0  0  0  0  1  0  0  0  0  0  0
  187.0480  175.7690  142.3290 N   0  0  0  0  0  0  0  0  0  0  0  0
  186.4860  178.7160  145.3630 C   0  0  1  0  0  3  0  0  0  0  0  0
  190.8420  175.2910  148.0190 C   0  0  0  0  0  3  0  0  0  0  0  0
  186.4890  178.2560  146.8090 C   0  0  0  0  0  1  0  0  0  0  0  0
  191.9390  176.2300  147.7220 C   0  0  0  0  0  3  0  0  0  0  0  0
  186.8690  177.5970  144.4460 C   0  0  0  0  0  0  0  0  0  0  0  0
  189.3920  175.3540  142.7730 C   0  0  0  0  0  0  0  0  0  0  0  0
  185.1120  179.0810  144.9710 N   0  0  0  0  0  0  0  0  0  0  0  0
  185.8760  177.3880  143.6290 C   0  0  0  0  0  0  0  0  0  0  0  0
  190.8030  175.6130  144.8750 C   0  0  0  0  0  0  0  0  0  0  0  0
  188.1950  176.8910  144.3300 C   0  0  0  0  0  0  0  0  0  0  0  0
  189.8360  175.0040  147.1870 C   0  0  0  0  0  3  0  0  0  0  0  0
  185.9410  176.4160  142.5400 C   0  0  0  0  0  3  0  0  0  0  0  0
  192.5210  176.3640  146.5290 C   0  0  0  0  0  3  0  0  0  0  0  0
  192.2120  175.4830  145.3600 C   0  0  0  0  0  2  0  0  0  0  0  0
  189.6710  175.5870  145.8460 C   0  0  0  0  0  0  0  0  0  0  0  0
  190.0210  172.4590  139.6270 C   0  0  0  0  0  3  0  0  0  0  0  0
  189.5080  174.5450  141.5090 C   0  0  1  0  0  3  0  0  0  0  0  0
  190.9600  174.1660  141.2020 C   0  0  0  0  0  2  0  0  0  0  0  0
  191.0690  173.1710  140.0730 C   0  0  0  0  0  3  0  0  0  0  0  0
  188.6210  172.6650  140.1440 C   0  0  0  0  0  2  0  0  0  0  0  0
  188.6100  173.3100  141.5260 C   0  0  0  0  0  2  0  0  0  0  0  0
  1 15  1  0  0  0  0
  2  6  1  6  0  0  0
  2 16  1  0  0  0  0
  3 21  1  0  0  0  0
  4 13  1  0  0  0  0
  5 13  1  0  0  0  0
  6 18  2  0  0  0  0
  7  9  1  1  0  0  0
 10  8  1  0  0  0  0
 11  7  1  0  0  0  0
 12  2  1  0  0  0  0
 12  1  2  0  0  0  0
 13  7  1  0  0  0  0
 14  4  1  0  0  0  0
 14 11  2  0  0  0  0
 15 20  1  0  0  0  0
 15 21  2  0  0  0  0
 16 11  1  0  0  0  0
 16  3  2  0  0  0  0
 17  8  2  0  0  0  0
 18 14  1  0  0  0  0
 19 10  2  0  0  0  0
 20 19  1  0  0  0  0
 21 17  1  0  0  0  0
 22 25  2  0  0  0  0
 22 26  1  0  0  0  0
 23 27  1  0  0  0  0
 23 12  1  1  0  0  0
 24 23  1  0  0  0  0
 25 24  1  0  0  0  0
 26 27  1  0  0  0  0
M  END
>  <MODEL>
7

>  <REMARK>
 VINA RESULT:      -7.6      2.573      5.839
  Name = 
  1 active torsions:
  status: ('A' for Active; 'I' for Inactive)
    1  A    between atoms: C_9  and  C_15
                            x       y       z     vdW  Elec       q    Type
                         _______ _______ _______ _____ _____    ______ ____

>  <TORSDO>
F 1

$$$$
=
 OpenBabel11052418203D

 27 31  0  0  1  0  0  0  0  0999 V2000
  188.8610  175.2430  141.7210 C   0  0  0  0  0  3  0  0  0  0  0  0
  189.4550  176.1890  143.9540 C   0  0  0  0  0  0  0  0  0  0  0  0
  190.4340  173.9190  143.9640 C   0  0  0  0  0  3  0  0  0  0  0  0
  192.2260  176.7400  147.0210 O   0  0  0  0  0  0  0  0  0  0  0  0
  194.3330  176.8660  146.4090 O   0  0  0  0  0  1  0  0  0  0  0  0
  189.1370  177.0670  145.0580 N   0  0  0  0  0  0  0  0  0  0  0  0
  192.9900  175.2840  145.4840 C   0  0  1  0  0  3  0  0  0  0  0  0
  190.2170  170.9940  142.0680 C   0  0  0  0  0  3  0  0  0  0  0  0
  193.0570  173.7860  145.7200 C   0  0  0  0  0  1  0  0  0  0  0  0
  190.8670  171.3970  140.8070 C   0  0  0  0  0  3  0  0  0  0  0  0
  191.5880  175.7140  145.1820 C   0  0  0  0  0  0  0  0  0  0  0  0
  188.6380  176.1390  142.8780 C   0  0  0  0  0  0  0  0  0  0  0  0
  193.3500  175.9900  146.7270 N   0  0  0  0  0  0  0  0  0  0  0  0
  191.2240  176.5690  146.0960 C   0  0  0  0  0  0  0  0  0  0  0  0
  189.4430  174.0350  141.6940 C   0  0  0  0  0  0  0  0  0  0  0  0
  190.7410  175.3790  143.9830 C   0  0  2  0  0  3  0  0  0  0  0  0
  189.7780  171.8390  143.0050 C   0  0  0  0  0  3  0  0  0  0  0  0
  189.9370  177.2580  146.0640 C   0  0  0  0  0  3  0  0  0  0  0  0
  190.5170  172.4570  140.0780 C   0  0  0  0  0  3  0  0  0  0  0  0
  189.3290  173.3120  140.3890 C   0  0  0  0  0  2  0  0  0  0  0  0
  189.8790  173.3050  142.9190 C   0  0  0  0  0  0  0  0  0  0  0  0
  184.9110  178.1460  142.0130 C   0  0  0  0  0  3  0  0  0  0  0  0
  187.4360  177.0360  142.7500 C   0  0  1  0  0  3  0  0  0  0  0  0
  187.2310  177.5160  141.3100 C   0  0  0  0  0  2  0  0  0  0  0  0
  185.9130  178.2250  141.1220 C   0  0  0  0  0  3  0  0  0  0  0  0
  185.0500  177.4270  143.3300 C   0  0  0  0  0  2  0  0  0  0  0  0
  186.1680  176.3890  143.2990 C   0  0  0  0  0  2  0  0  0  0  0  0
  1 12  1  0  0  0  0
  2 16  1  0  0  0  0
  2  6  1  0  0  0  0
  5 13  1  0  0  0  0
  6 18  2  0  0  0  0
  7  9  1  1  0  0  0
  7 13  1  0  0  0  0
  8 17  2  0  0  0  0
 10  8  1  0  0  0  0
 11  7  1  0  0  0  0
 11 14  2  0  0  0  0
 12  2  2  0  0  0  0
 13  4  1  0  0  0  0
 14  4  1  0  0  0  0
 15  1  2  0  0  0  0
 15 21  1  0  0  0  0
 16  3  1  1  0  0  0
 16 11  1  0  0  0  0
 18 14  1  0  0  0  0
 19 20  1  0  0  0  0
 19 10  2  0  0  0  0
 20 15  1  0  0  0  0
 21 17  1  0  0  0  0
 21  3  2  0  0  0  0
 22 26  1  0  0  0  0
 23 12  1  6  0  0  0
 23 27  1  0  0  0  0
 24 23  1  0  0  0  0
 25 24  1  0  0  0  0
 25 22  2  0  0  0  0
 27 26  1  0  0  0  0
M  END
>  <MODEL>
8

>  <REMARK>
 VINA RESULT:      -7.6      3.344      5.465
  Name = 
  1 active torsions:
  status: ('A' for Active; 'I' for Inactive)
    1  A    between atoms: C_9  and  C_15
                            x       y       z     vdW  Elec       q    Type
                         _______ _______ _______ _____ _____    ______ ____

>  <TORSDO>
F 1

$$$$
=
 OpenBabel11052418203D

 27 31  0  0  1  0  0  0  0  0999 V2000
  191.0370  173.7800  144.2880 C   0  0  0  0  0  3  0  0  0  0  0  0
  190.4450  175.7240  145.7380 C   0  0  0  0  0  0  0  0  0  0  0  0
  188.8350  175.8370  143.8660 C   0  0  0  0  0  3  0  0  0  0  0  0
  187.5650  178.1230  147.5640 O   0  0  0  0  0  0  0  0  0  0  0  0
  185.7040  177.1170  148.1580 O   0  0  0  0  0  1  0  0  0  0  0  0
  190.8540  176.7490  146.6730 N   0  0  0  0  0  0  0  0  0  0  0  0
  186.6230  176.6670  146.1290 C   0  0  1  0  0  3  0  0  0  0  0  0
  188.4250  174.4000  140.7090 C   0  0  0  0  0  3  0  0  0  0  0  0
  186.0740  177.0740  144.7740 C   0  0  0  0  0  1  0  0  0  0  0  0
  188.1130  173.0000  141.0480 C   0  0  0  0  0  3  0  0  0  0  0  0
  188.1170  176.5820  146.0950 C   0  0  0  0  0  0  0  0  0  0  0  0
  191.3540  174.8360  145.2760 C   0  0  0  0  0  0  0  0  0  0  0  0
  186.3210  177.7210  147.1140 N   0  0  0  0  0  0  0  0  0  0  0  0
  188.5880  177.4320  146.9620 C   0  0  0  0  0  0  0  0  0  0  0  0
  190.1270  173.7970  143.3020 C   0  0  0  0  0  0  0  0  0  0  0  0
  188.9850  175.6140  145.3330 C   0  0  2  0  0  3  0  0  0  0  0  0
  188.9610  175.2880  141.5510 C   0  0  0  0  0  3  0  0  0  0  0  0
  190.0150  177.5550  147.2520 C   0  0  0  0  0  3  0  0  0  0  0  0
  188.8670  172.2210  141.8250 C   0  0  0  0  0  3  0  0  0  0  0  0
  190.2010  172.6380  142.3590 C   0  0  0  0  0  2  0  0  0  0  0  0
  189.3210  175.0010  142.9480 C   0  0  0  0  0  0  0  0  0  0  0  0
  195.6240  174.6870  145.9170 C   0  0  0  0  0  3  0  0  0  0  0  0
  192.7760  174.8230  145.7690 C   0  0  1  0  0  3  0  0  0  0  0  0
  193.4690  173.4870  145.4840 C   0  0  0  0  0  2  0  0  0  0  0  0
  194.9500  173.5350  145.7640 C   0  0  0  0  0  3  0  0  0  0  0  0
  194.9430  176.0310  145.9260 C   0  0  0  0  0  2  0  0  0  0  0  0
  193.5910  175.9920  145.2210 C   0  0  0  0  0  2  0  0  0  0  0  0
  1 12  1  0  0  0  0
  2  6  1  0  0  0  0
  6 18  2  0  0  0  0
  7  9  1  6  0  0  0
  7 13  1  0  0  0  0
  8 10  1  0  0  0  0
  8 17  2  0  0  0  0
 10 19  2  0  0  0  0
 11  7  1  0  0  0  0
 11 14  2  0  0  0  0
 12  2  2  0  0  0  0
 13  4  1  0  0  0  0
 13  5  1  0  0  0  0
 14 18  1  0  0  0  0
 14  4  1  0  0  0  0
 15  1  2  0  0  0  0
 16  3  1  6  0  0  0
 16  2  1  0  0  0  0
 16 11  1  0  0  0  0
 17 21  1  0  0  0  0
 19 20  1  0  0  0  0
 20 15  1  0  0  0  0
 21 15  1  0  0  0  0
 21  3  2  0  0  0  0
 22 26  1  0  0  0  0
 23 12  1  6  0  0  0
 24 25  1  0  0  0  0
 24 23  1  0  0  0  0
 25 22  2  0  0  0  0
 27 23  1  0  0  0  0
 27 26  1  0  0  0  0
M  END
>  <MODEL>
9

>  <REMARK>
 VINA RESULT:      -7.5      3.467      7.150
  Name = 
  1 active torsions:
  status: ('A' for Active; 'I' for Inactive)
    1  A    between atoms: C_9  and  C_15
                            x       y       z     vdW  Elec       q    Type
                         _______ _______ _______ _____ _____    ______ ____

>  <TORSDO>
F 1

$$$$
