=
 OpenBabel11052420083D

 37 42  0  0  1  0  0  0  0  0999 V2000
  189.0520  174.7400  145.9610 C   0  0  0  0  0  2  0  0  0  0  0  0
  190.8680  175.3050  147.5560 C   0  0  0  0  0  2  0  0  0  0  0  0
  191.6400  176.1440  146.5490 C   0  0  2  0  0  3  0  0  0  0  0  0
  189.3930  176.2110  145.9290 C   0  0  2  0  0  0  0  0  0  0  0  0
  190.9390  177.9100  145.1990 C   0  0  0  0  0  1  0  0  0  0  0  0
  190.7510  176.4860  145.4440 N   0  0  0  0  0  0  0  0  0  0  0  0
  189.3990  175.4860  147.2470 C   0  0  1  0  0  3  0  0  0  0  0  0
  193.0650  175.2040  145.9230 S   0  0  0  0  0  0  0  0  0  0  0  0
  191.4810  173.5260  144.4010 C   0  0  0  0  0  3  0  0  0  0  0  0
  190.8200  173.1390  143.2330 C   0  0  0  0  0  3  0  0  0  0  0  0
  192.2880  175.5150  143.2870 C   0  0  0  0  0  3  0  0  0  0  0  0
  192.2120  174.7150  144.4300 C   0  0  0  0  0  0  0  0  0  0  0  0
  190.8840  173.9360  142.0770 C   0  0  0  0  0  0  0  0  0  0  0  0
  191.6270  175.1280  142.1170 C   0  0  0  0  0  3  0  0  0  0  0  0
  188.8110  173.2520  140.8400 C   0  0  0  0  0  3  0  0  0  0  0  0
  190.1910  173.5230  140.8340 C   0  0  0  0  0  0  0  0  0  0  0  0
  190.9010  173.3920  139.6280 C   0  0  0  0  0  3  0  0  0  0  0  0
  191.1470  172.8450  136.9640 Cl  0  0  0  0  0  0  0  0  0  0  0  0
  188.8770  172.7320  138.4780 C   0  0  0  0  0  3  0  0  0  0  0  0
  190.2470  172.9990  138.4570 C   0  0  0  0  0  0  0  0  0  0  0  0
  188.1590  172.8590  139.6680 C   0  0  0  0  0  3  0  0  0  0  0  0
  188.2030  177.1030  145.5700 C   0  0  0  0  0  2  0  0  0  0  0  0
  186.0540  177.8700  146.5300 C   0  0  0  0  0  2  0  0  0  0  0  0
  186.9470  176.6640  146.3130 C   0  0  1  0  0  3  0  0  0  0  0  0
  185.6300  176.8060  145.5340 C   0  0  2  0  0  3  0  0  0  0  0  0
  186.0810  176.1510  143.0280 C   0  0  0  0  0  2  0  0  0  0  0  0
  186.9910  176.6850  141.9150 C   0  0  1  0  0  3  0  0  0  0  0  0
  184.1670  178.1520  142.1680 C   0  0  0  0  0  0  0  0  0  0  0  0
  186.6140  178.0940  141.4580 C   0  0  0  0  0  2  0  0  0  0  0  0
  185.1560  178.1880  141.0270 C   0  0  0  0  0  2  0  0  0  0  0  0
  184.5440  178.1440  143.6370 C   0  0  1  0  0  3  0  0  0  0  0  0
  182.8750  178.2170  141.8590 C   0  0  0  0  0  2  0  0  0  0  0  0
  185.7230  177.2410  144.0500 C   0  0  1  0  0  3  0  0  0  0  0  0
  185.9430  180.0860  143.8850 O   0  0  0  0  0  1  0  0  0  0  0  0
  184.6870  179.5570  144.1950 C   0  0  0  0  0  2  0  0  0  0  0  0
  189.0820  178.0330  142.1030 C   0  0  0  0  0  1  0  0  0  0  0  0
  188.4420  176.6840  142.3680 C   0  0  0  0  0  2  0  0  0  0  0  0
  3  8  1  6  0  0  0
  3  2  1  0  0  0  0
  4 22  1  6  0  0  0
  4  1  1  0  0  0  0
  4  7  1  0  0  0  0
  5  6  1  0  0  0  0
  6  4  1  0  0  0  0
  6  3  1  0  0  0  0
  7  1  1  6  0  0  0
  7  2  1  0  0  0  0
  9 12  1  0  0  0  0
 10  9  2  0  0  0  0
 11 12  2  0  0  0  0
 12  8  1  0  0  0  0
 13 14  2  0  0  0  0
 13 10  1  0  0  0  0
 14 11  1  0  0  0  0
 16 15  1  0  0  0  0
 16 13  1  0  0  0  0
 17 16  2  0  0  0  0
 18 20  1  0  0  0  0
 19 21  1  0  0  0  0
 20 19  2  0  0  0  0
 20 17  1  0  0  0  0
 21 15  2  0  0  0  0
 24 22  1  6  0  0  0
 24 23  1  0  0  0  0
 25 24  1  0  0  0  0
 25 23  1  1  0  0  0
 27 37  1  1  0  0  0
 27 26  1  0  0  0  0
 28 31  1  0  0  0  0
 29 27  1  0  0  0  0
 30 29  1  0  0  0  0
 30 28  1  0  0  0  0
 31 33  1  0  0  0  0
 31 35  1  6  0  0  0
 32 28  2  0  0  0  0
 33 26  1  6  0  0  0
 33 25  1  0  0  0  0
 34 35  1  0  0  0  0
 36 37  1  0  0  0  0
M  END
>  <MODEL>
1

>  <REMARK>
 VINA RESULT:      -8.1      0.000      0.000
  Name = 
  8 active torsions:
  status: ('A' for Active; 'I' for Inactive)
    1  A    between atoms: S_4  and  C_16
    2  A    between atoms: S_4  and  C_28
    3  A    between atoms: C_5  and  C_23
    4  A    between atoms: C_6  and  C_31
    5  A    between atoms: C_20  and  C_32
    6  A    between atoms: C_21  and  C_32
    7  A    between atoms: C_27  and  C_33
    8  A    between atoms: C_29  and  C_36
                            x       y       z     vdW  Elec       q    Type
                         _______ _______ _______ _____ _____    ______ ____

>  <TORSDO>
F 8

$$$$
=
 OpenBabel11052420083D

 37 42  0  0  1  0  0  0  0  0999 V2000
  191.2630  175.8390  147.6050 C   0  0  0  0  0  2  0  0  0  0  0  0
  188.9390  175.3230  146.9040 C   0  0  0  0  0  2  0  0  0  0  0  0
  188.7890  176.5920  146.0770 C   0  0  2  0  0  3  0  0  0  0  0  0
  191.0590  176.0570  146.1240 C   0  0  2  0  0  0  0  0  0  0  0  0
  190.1460  177.4710  144.3980 C   0  0  0  0  0  1  0  0  0  0  0  0
  190.1160  177.1400  145.8170 N   0  0  0  0  0  0  0  0  0  0  0  0
  190.3830  174.8920  146.7930 C   0  0  1  0  0  3  0  0  0  0  0  0
  187.7900  177.8090  146.9870 S   0  0  0  0  0  0  0  0  0  0  0  0
  186.6550  177.0880  144.5710 C   0  0  0  0  0  3  0  0  0  0  0  0
  185.7060  177.1840  143.5500 C   0  0  0  0  0  3  0  0  0  0  0  0
  185.5380  178.8640  145.7750 C   0  0  0  0  0  3  0  0  0  0  0  0
  186.5690  177.9250  145.6850 C   0  0  0  0  0  0  0  0  0  0  0  0
  184.6610  178.1200  143.6290 C   0  0  0  0  0  0  0  0  0  0  0  0
  184.5880  178.9600  144.7540 C   0  0  0  0  0  3  0  0  0  0  0  0
  183.9970  177.8880  141.2210 C   0  0  0  0  0  3  0  0  0  0  0  0
  183.6590  178.2280  142.5430 C   0  0  0  0  0  0  0  0  0  0  0  0
  182.3540  178.6740  142.8140 C   0  0  0  0  0  3  0  0  0  0  0  0
  179.7900  179.3320  142.1460 Cl  0  0  0  0  0  0  0  0  0  0  0  0
  181.7600  178.4380  140.4790 C   0  0  0  0  0  3  0  0  0  0  0  0
  181.4100  178.7780  141.7880 C   0  0  0  0  0  0  0  0  0  0  0  0
  183.0520  177.9930  140.1960 C   0  0  0  0  0  3  0  0  0  0  0  0
  192.3220  175.8170  145.2950 C   0  0  0  0  0  2  0  0  0  0  0  0
  194.4970  176.0870  146.4470 C   0  0  0  0  0  2  0  0  0  0  0  0
  193.4170  176.8110  145.6670 C   0  0  1  0  0  3  0  0  0  0  0  0
  194.7920  176.5530  145.0320 C   0  0  2  0  0  3  0  0  0  0  0  0
  194.8140  175.8170  142.5090 C   0  0  0  0  0  2  0  0  0  0  0  0
  194.0430  174.7870  141.6730 C   0  0  1  0  0  3  0  0  0  0  0  0
  196.6290  173.6510  143.1630 C   0  0  0  0  0  0  0  0  0  0  0  0
  194.3440  173.3430  142.0750 C   0  0  0  0  0  2  0  0  0  0  0  0
  195.8350  173.0340  142.0350 C   0  0  0  0  0  2  0  0  0  0  0  0
  196.0250  174.4210  144.3220 C   0  0  1  0  0  3  0  0  0  0  0  0
  197.9400  173.4300  143.1790 C   0  0  0  0  0  2  0  0  0  0  0  0
  194.8930  175.4120  143.9890 C   0  0  1  0  0  3  0  0  0  0  0  0
  194.3580  173.0040  145.3230 O   0  0  0  0  0  1  0  0  0  0  0  0
  195.6530  173.5010  145.4820 C   0  0  0  0  0  2  0  0  0  0  0  0
  191.8330  173.7580  142.2020 C   0  0  0  0  0  1  0  0  0  0  0  0
  192.5460  175.0290  141.7800 C   0  0  0  0  0  2  0  0  0  0  0  0
  3  2  1  0  0  0  0
  3  8  1  1  0  0  0
  4 22  1  6  0  0  0
  4  7  1  0  0  0  0
  4  1  1  0  0  0  0
  5  6  1  0  0  0  0
  6  3  1  0  0  0  0
  6  4  1  0  0  0  0
  7  2  1  1  0  0  0
  7  1  1  0  0  0  0
  9 12  1  0  0  0  0
 10 13  1  0  0  0  0
 10  9  2  0  0  0  0
 12 11  2  0  0  0  0
 12  8  1  0  0  0  0
 13 14  2  0  0  0  0
 14 11  1  0  0  0  0
 15 16  1  0  0  0  0
 16 17  2  0  0  0  0
 16 13  1  0  0  0  0
 19 20  2  0  0  0  0
 20 18  1  0  0  0  0
 20 17  1  0  0  0  0
 21 19  1  0  0  0  0
 21 15  2  0  0  0  0
 24 22  1  6  0  0  0
 24 23  1  0  0  0  0
 25 24  1  0  0  0  0
 25 23  1  1  0  0  0
 27 37  1  1  0  0  0
 27 29  1  0  0  0  0
 27 26  1  0  0  0  0
 28 32  2  0  0  0  0
 28 31  1  0  0  0  0
 30 29  1  0  0  0  0
 30 28  1  0  0  0  0
 31 35  1  1  0  0  0
 33 26  1  6  0  0  0
 33 31  1  0  0  0  0
 33 25  1  0  0  0  0
 34 35  1  0  0  0  0
 37 36  1  0  0  0  0
M  END
>  <MODEL>
2

>  <REMARK>
 VINA RESULT:      -7.2      3.833      8.425
  Name = 
  8 active torsions:
  status: ('A' for Active; 'I' for Inactive)
    1  A    between atoms: S_4  and  C_16
    2  A    between atoms: S_4  and  C_28
    3  A    between atoms: C_5  and  C_23
    4  A    between atoms: C_6  and  C_31
    5  A    between atoms: C_20  and  C_32
    6  A    between atoms: C_21  and  C_32
    7  A    between atoms: C_27  and  C_33
    8  A    between atoms: C_29  and  C_36
                            x       y       z     vdW  Elec       q    Type
                         _______ _______ _______ _____ _____    ______ ____

>  <TORSDO>
F 8

$$$$
=
 OpenBabel11052420083D

 37 42  0  0  1  0  0  0  0  0999 V2000
  194.8450  173.2840  143.6900 C   0  0  0  0  0  2  0  0  0  0  0  0
  192.6000  172.8900  144.6720 C   0  0  0  0  0  2  0  0  0  0  0  0
  192.2050  174.3590  144.6360 C   0  0  2  0  0  3  0  0  0  0  0  0
  193.7620  174.0170  142.9340 C   0  0  2  0  0  0  0  0  0  0  0  0
  192.2510  175.8930  142.8820 C   0  0  0  0  0  1  0  0  0  0  0  0
  193.1010  175.0620  143.7240 N   0  0  0  0  0  0  0  0  0  0  0  0
  193.4800  172.6400  143.4690 C   0  0  1  0  0  3  0  0  0  0  0  0
  192.3360  175.0760  146.3020 S   0  0  0  0  0  0  0  0  0  0  0  0
  190.4780  177.0020  145.6040 C   0  0  0  0  0  3  0  0  0  0  0  0
  189.1940  177.5520  145.5590 C   0  0  0  0  0  3  0  0  0  0  0  0
  189.6210  175.1020  146.8330 C   0  0  0  0  0  3  0  0  0  0  0  0
  190.6910  175.7750  146.2370 C   0  0  0  0  0  0  0  0  0  0  0  0
  188.1080  176.8840  146.1510 C   0  0  0  0  0  0  0  0  0  0  0  0
  188.3370  175.6530  146.7890 C   0  0  0  0  0  3  0  0  0  0  0  0
  186.0910  177.8340  147.3000 C   0  0  0  0  0  3  0  0  0  0  0  0
  186.7490  177.4710  146.1120 C   0  0  0  0  0  0  0  0  0  0  0  0
  186.0920  177.6750  144.8860 C   0  0  0  0  0  3  0  0  0  0  0  0
  184.0080  178.4760  143.3140 Cl  0  0  0  0  0  0  0  0  0  0  0  0
  184.1660  178.5810  146.0390 C   0  0  0  0  0  3  0  0  0  0  0  0
  184.8080  178.2270  144.8500 C   0  0  0  0  0  0  0  0  0  0  0  0
  184.8070  178.3850  147.2630 C   0  0  0  0  0  3  0  0  0  0  0  0
  194.0740  174.1940  141.4460 C   0  0  0  0  0  2  0  0  0  0  0  0
  192.7430  173.7250  139.4120 C   0  0  0  0  0  2  0  0  0  0  0  0
  193.4170  173.0970  140.6160 C   0  0  1  0  0  3  0  0  0  0  0  0
  193.9960  172.8930  139.2070 C   0  0  2  0  0  3  0  0  0  0  0  0
  196.6150  173.0210  139.0180 C   0  0  0  0  0  2  0  0  0  0  0  0
  197.6910  173.9970  139.5090 C   0  0  1  0  0  3  0  0  0  0  0  0
  196.3560  174.7600  136.7110 C   0  0  0  0  0  0  0  0  0  0  0  0
  197.5970  175.3740  138.8510 C   0  0  0  0  0  2  0  0  0  0  0  0
  197.6290  175.2880  137.3300 C   0  0  0  0  0  2  0  0  0  0  0  0
  195.0890  174.4410  137.4810 C   0  0  1  0  0  3  0  0  0  0  0  0
  196.3230  174.6470  135.3860 C   0  0  0  0  0  2  0  0  0  0  0  0
  195.2560  173.7120  138.8290 C   0  0  1  0  0  3  0  0  0  0  0  0
  193.2070  175.6490  136.5960 O   0  0  0  0  0  1  0  0  0  0  0  0
  194.1760  175.6580  137.6010 C   0  0  0  0  0  2  0  0  0  0  0  0
  197.5960  175.6340  141.3900 C   0  0  0  0  0  1  0  0  0  0  0  0
  197.6090  174.1630  141.0180 C   0  0  0  0  0  2  0  0  0  0  0  0
  3  2  1  0  0  0  0
  3  8  1  1  0  0  0
  4 22  1  6  0  0  0
  4  7  1  0  0  0  0
  4  1  1  0  0  0  0
  4  6  1  0  0  0  0
  5  6  1  0  0  0  0
  6  3  1  0  0  0  0
  7  1  1  1  0  0  0
  7  2  1  0  0  0  0
  9 12  1  0  0  0  0
 10  9  2  0  0  0  0
 10 13  1  0  0  0  0
 12  8  1  0  0  0  0
 12 11  2  0  0  0  0
 13 14  2  0  0  0  0
 14 11  1  0  0  0  0
 16 13  1  0  0  0  0
 16 15  2  0  0  0  0
 17 16  1  0  0  0  0
 18 20  1  0  0  0  0
 19 21  2  0  0  0  0
 20 17  2  0  0  0  0
 20 19  1  0  0  0  0
 21 15  1  0  0  0  0
 23 24  1  0  0  0  0
 24 22  1  1  0  0  0
 25 23  1  6  0  0  0
 25 24  1  0  0  0  0
 26 27  1  0  0  0  0
 27 37  1  1  0  0  0
 28 30  1  0  0  0  0
 28 31  1  0  0  0  0
 29 27  1  0  0  0  0
 30 29  1  0  0  0  0
 31 35  1  1  0  0  0
 31 33  1  0  0  0  0
 32 28  2  0  0  0  0
 33 26  1  6  0  0  0
 33 25  1  0  0  0  0
 34 35  1  0  0  0  0
 37 36  1  0  0  0  0
M  END
>  <MODEL>
3

>  <REMARK>
 VINA RESULT:      -6.9      4.423      9.076
  Name = 
  8 active torsions:
  status: ('A' for Active; 'I' for Inactive)
    1  A    between atoms: S_4  and  C_16
    2  A    between atoms: S_4  and  C_28
    3  A    between atoms: C_5  and  C_23
    4  A    between atoms: C_6  and  C_31
    5  A    between atoms: C_20  and  C_32
    6  A    between atoms: C_21  and  C_32
    7  A    between atoms: C_27  and  C_33
    8  A    between atoms: C_29  and  C_36
                            x       y       z     vdW  Elec       q    Type
                         _______ _______ _______ _____ _____    ______ ____

>  <TORSDO>
F 8

$$$$
=
 OpenBabel11052420083D

 37 42  0  0  1  0  0  0  0  0999 V2000
  192.9120  173.9190  144.3820 C   0  0  0  0  0  2  0  0  0  0  0  0
  195.0720  173.6060  145.5650 C   0  0  0  0  0  2  0  0  0  0  0  0
  195.5170  175.0480  145.3640 C   0  0  2  0  0  3  0  0  0  0  0  0
  193.1850  175.0350  145.3640 C   0  0  2  0  0  0  0  0  0  0  0  0
  194.4200  177.0480  145.8410 C   0  0  0  0  0  1  0  0  0  0  0  0
  194.3520  175.8520  145.0110 N   0  0  0  0  0  0  0  0  0  0  0  0
  193.5690  173.6270  145.7280 C   0  0  1  0  0  3  0  0  0  0  0  0
  196.7500  175.1340  144.0300 S   0  0  0  0  0  0  0  0  0  0  0  0
  194.8280  175.8590  142.1790 C   0  0  0  0  0  3  0  0  0  0  0  0
  193.8760  175.6010  141.1890 C   0  0  0  0  0  3  0  0  0  0  0  0
  195.2930  173.4910  142.3480 C   0  0  0  0  0  3  0  0  0  0  0  0
  195.5390  174.8050  142.7560 C   0  0  0  0  0  0  0  0  0  0  0  0
  193.6220  174.2850  140.7660 C   0  0  0  0  0  0  0  0  0  0  0  0
  194.3400  173.2330  141.3580 C   0  0  0  0  0  3  0  0  0  0  0  0
  192.9150  174.1740  138.3610 C   0  0  0  0  0  3  0  0  0  0  0  0
  192.6060  174.0100  139.7230 C   0  0  0  0  0  0  0  0  0  0  0  0
  191.3150  173.5810  140.0760 C   0  0  0  0  0  3  0  0  0  0  0  0
  188.7550  172.7890  139.5510 Cl  0  0  0  0  0  0  0  0  0  0  0  0
  190.6770  173.4940  137.7430 C   0  0  0  0  0  3  0  0  0  0  0  0
  190.3560  173.3250  139.0920 C   0  0  0  0  0  0  0  0  0  0  0  0
  191.9560  173.9170  137.3780 C   0  0  0  0  0  3  0  0  0  0  0  0
  191.9140  175.6430  145.9600 C   0  0  0  0  0  2  0  0  0  0  0  0
  190.1120  175.2430  147.6110 C   0  0  0  0  0  2  0  0  0  0  0  0
  191.0610  174.5750  146.6350 C   0  0  1  0  0  3  0  0  0  0  0  0
  189.5560  174.6370  146.3350 C   0  0  2  0  0  3  0  0  0  0  0  0
  188.9790  175.1910  143.8300 C   0  0  0  0  0  2  0  0  0  0  0  0
  189.4040  176.2770  142.8340 C   0  0  1  0  0  3  0  0  0  0  0  0
  186.9480  177.0610  144.7180 C   0  0  0  0  0  0  0  0  0  0  0  0
  188.9260  177.6740  143.2320 C   0  0  0  0  0  2  0  0  0  0  0  0
  187.4190  177.7260  143.4460 C   0  0  0  0  0  2  0  0  0  0  0  0
  187.8650  176.4820  145.7790 C   0  0  1  0  0  3  0  0  0  0  0  0
  185.6400  177.0600  144.9590 C   0  0  0  0  0  2  0  0  0  0  0  0
  189.0810  175.6730  145.2850 C   0  0  1  0  0  3  0  0  0  0  0  0
  187.1550  177.8960  147.5910 O   0  0  0  0  0  1  0  0  0  0  0  0
  188.2590  177.5250  146.8200 C   0  0  0  0  0  2  0  0  0  0  0  0
  191.4710  177.6560  143.0650 C   0  0  0  0  0  1  0  0  0  0  0  0
  190.9170  176.2970  142.6830 C   0  0  0  0  0  2  0  0  0  0  0  0
  1  4  1  0  0  0  0
  2  7  1  0  0  0  0
  3  8  1  6  0  0  0
  3  2  1  0  0  0  0
  4  7  1  0  0  0  0
  4 22  1  1  0  0  0
  6  3  1  0  0  0  0
  6  4  1  0  0  0  0
  6  5  1  0  0  0  0
  7  1  1  6  0  0  0
  9 12  1  0  0  0  0
 10  9  2  0  0  0  0
 11 12  2  0  0  0  0
 12  8  1  0  0  0  0
 13 10  1  0  0  0  0
 13 14  2  0  0  0  0
 14 11  1  0  0  0  0
 15 16  1  0  0  0  0
 16 17  2  0  0  0  0
 16 13  1  0  0  0  0
 19 20  2  0  0  0  0
 20 18  1  0  0  0  0
 20 17  1  0  0  0  0
 21 19  1  0  0  0  0
 21 15  2  0  0  0  0
 24 22  1  6  0  0  0
 24 23  1  0  0  0  0
 25 24  1  0  0  0  0
 25 23  1  1  0  0  0
 27 37  1  1  0  0  0
 27 29  1  0  0  0  0
 27 26  1  0  0  0  0
 28 32  2  0  0  0  0
 28 31  1  0  0  0  0
 29 30  1  0  0  0  0
 30 28  1  0  0  0  0
 31 35  1  6  0  0  0
 33 26  1  6  0  0  0
 33 31  1  0  0  0  0
 33 25  1  0  0  0  0
 35 34  1  0  0  0  0
 37 36  1  0  0  0  0
M  END
>  <MODEL>
4

>  <REMARK>
 VINA RESULT:      -6.9      2.340      3.845
  Name = 
  8 active torsions:
  status: ('A' for Active; 'I' for Inactive)
    1  A    between atoms: S_4  and  C_16
    2  A    between atoms: S_4  and  C_28
    3  A    between atoms: C_5  and  C_23
    4  A    between atoms: C_6  and  C_31
    5  A    between atoms: C_20  and  C_32
    6  A    between atoms: C_21  and  C_32
    7  A    between atoms: C_27  and  C_33
    8  A    between atoms: C_29  and  C_36
                            x       y       z     vdW  Elec       q    Type
                         _______ _______ _______ _____ _____    ______ ____

>  <TORSDO>
F 8

$$$$
=
 OpenBabel11052420083D

 37 42  0  0  1  0  0  0  0  0999 V2000
  189.5230  175.2310  141.4890 C   0  0  0  0  0  2  0  0  0  0  0  0
  188.9250  173.7980  139.5530 C   0  0  0  0  0  2  0  0  0  0  0  0
  188.5210  172.6110  140.4150 C   0  0  2  0  0  3  0  0  0  0  0  0
  188.1960  174.5380  141.6890 C   0  0  2  0  0  0  0  0  0  0  0  0
  187.0500  172.4850  142.2180 C   0  0  0  0  0  1  0  0  0  0  0  0
  188.3080  173.0770  141.7810 N   0  0  0  0  0  0  0  0  0  0  0  0
  188.5580  175.0470  140.3210 C   0  0  1  0  0  3  0  0  0  0  0  0
  189.8350  171.3550  140.3930 S   0  0  0  0  0  0  0  0  0  0  0  0
  191.8560  173.1050  141.0980 C   0  0  0  0  0  3  0  0  0  0  0  0
  192.6540  173.8020  142.0090 C   0  0  0  0  0  3  0  0  0  0  0  0
  190.6470  172.0920  142.9330 C   0  0  0  0  0  3  0  0  0  0  0  0
  190.8500  172.2530  141.5590 C   0  0  0  0  0  0  0  0  0  0  0  0
  192.4580  173.6520  143.3930 C   0  0  0  0  0  0  0  0  0  0  0  0
  191.4460  172.7880  143.8440 C   0  0  0  0  0  3  0  0  0  0  0  0
  192.9260  175.6480  144.8400 C   0  0  0  0  0  3  0  0  0  0  0  0
  193.3100  174.3830  144.3600 C   0  0  0  0  0  0  0  0  0  0  0  0
  194.5180  173.8260  144.8130 C   0  0  0  0  0  3  0  0  0  0  0  0
  196.8220  173.8060  146.2790 Cl  0  0  0  0  0  0  0  0  0  0  0  0
  194.9300  175.7740  146.1900 C   0  0  0  0  0  3  0  0  0  0  0  0
  195.3230  174.5170  145.7230 C   0  0  0  0  0  0  0  0  0  0  0  0
  193.7320  176.3380  145.7490 C   0  0  0  0  0  3  0  0  0  0  0  0
  187.2170  175.3360  142.5520 C   0  0  0  0  0  2  0  0  0  0  0  0
  185.6350  177.2370  142.4280 C   0  0  0  0  0  2  0  0  0  0  0  0
  186.9900  176.7290  141.9740 C   0  0  1  0  0  3  0  0  0  0  0  0
  186.8920  177.8670  143.0020 C   0  0  2  0  0  3  0  0  0  0  0  0
  186.0240  176.8460  145.2630 C   0  0  0  0  0  2  0  0  0  0  0  0
  185.9620  177.3290  146.7180 C   0  0  1  0  0  3  0  0  0  0  0  0
  188.7110  175.9400  145.8760 C   0  0  0  0  0  0  0  0  0  0  0  0
  187.3420  177.5050  147.3500 C   0  0  0  0  0  2  0  0  0  0  0  0
  188.1830  176.2380  147.2590 C   0  0  0  0  0  2  0  0  0  0  0  0
  188.5460  176.8520  144.6750 C   0  0  1  0  0  3  0  0  0  0  0  0
  189.4430  174.8400  145.7250 C   0  0  0  0  0  2  0  0  0  0  0  0
  187.1680  177.5140  144.4840 C   0  0  1  0  0  3  0  0  0  0  0  0
  190.0660  178.0410  143.2370 O   0  0  0  0  0  1  0  0  0  0  0  0
  189.6840  177.8640  144.5690 C   0  0  0  0  0  2  0  0  0  0  0  0
  184.0660  178.6700  145.8050 C   0  0  0  0  0  1  0  0  0  0  0  0
  185.2030  178.6430  146.8080 C   0  0  0  0  0  2  0  0  0  0  0  0
  1  4  1  0  0  0  0
  2  3  1  0  0  0  0
  3  8  1  1  0  0  0
  3  6  1  0  0  0  0
  4  6  1  0  0  0  0
  4 22  1  1  0  0  0
  6  5  1  0  0  0  0
  7  2  1  6  0  0  0
  7  1  1  0  0  0  0
  7  4  1  0  0  0  0
  8 12  1  0  0  0  0
  9 12  2  0  0  0  0
  9 10  1  0  0  0  0
 10 13  2  0  0  0  0
 11 14  2  0  0  0  0
 12 11  1  0  0  0  0
 13 14  1  0  0  0  0
 13 16  1  0  0  0  0
 15 21  1  0  0  0  0
 16 17  1  0  0  0  0
 16 15  2  0  0  0  0
 17 20  2  0  0  0  0
 20 19  1  0  0  0  0
 20 18  1  0  0  0  0
 21 19  2  0  0  0  0
 24 23  1  0  0  0  0
 24 22  1  1  0  0  0
 24 25  1  0  0  0  0
 25 23  1  1  0  0  0
 25 33  1  0  0  0  0
 26 27  1  0  0  0  0
 27 37  1  6  0  0  0
 27 29  1  0  0  0  0
 28 30  1  0  0  0  0
 30 29  1  0  0  0  0
 31 35  1  1  0  0  0
 31 28  1  0  0  0  0
 32 28  2  0  0  0  0
 33 31  1  0  0  0  0
 33 26  1  6  0  0  0
 34 35  1  0  0  0  0
 36 37  1  0  0  0  0
M  END
>  <MODEL>
5

>  <REMARK>
 VINA RESULT:      -6.8      2.928      6.015
  Name = 
  8 active torsions:
  status: ('A' for Active; 'I' for Inactive)
    1  A    between atoms: S_4  and  C_16
    2  A    between atoms: S_4  and  C_28
    3  A    between atoms: C_5  and  C_23
    4  A    between atoms: C_6  and  C_31
    5  A    between atoms: C_20  and  C_32
    6  A    between atoms: C_21  and  C_32
    7  A    between atoms: C_27  and  C_33
    8  A    between atoms: C_29  and  C_36
                            x       y       z     vdW  Elec       q    Type
                         _______ _______ _______ _____ _____    ______ ____

>  <TORSDO>
F 8

$$$$
=
 OpenBabel11052420083D

 37 42  0  0  1  0  0  0  0  0999 V2000
  189.4590  173.3780  143.2190 C   0  0  0  0  0  2  0  0  0  0  0  0
  191.3750  173.4820  141.6450 C   0  0  0  0  0  2  0  0  0  0  0  0
  190.5360  173.1230  140.4260 C   0  0  2  0  0  3  0  0  0  0  0  0
  189.1200  174.1530  141.9670 C   0  0  2  0  0  0  0  0  0  0  0  0
  188.5590  174.0610  139.6250 C   0  0  0  0  0  1  0  0  0  0  0  0
  189.1290  173.3310  140.7500 N   0  0  0  0  0  0  0  0  0  0  0  0
  190.4920  174.2920  142.5660 C   0  0  1  0  0  3  0  0  0  0  0  0
  190.8120  171.3830  139.9750 S   0  0  0  0  0  0  0  0  0  0  0  0
  191.4750  170.5710  142.5340 C   0  0  0  0  0  3  0  0  0  0  0  0
  192.3570  170.3630  143.5970 C   0  0  0  0  0  3  0  0  0  0  0  0
  193.2930  171.4460  141.1980 C   0  0  0  0  0  3  0  0  0  0  0  0
  191.9430  171.1080  141.3330 C   0  0  0  0  0  0  0  0  0  0  0  0
  193.7170  170.6930  143.4740 C   0  0  0  0  0  0  0  0  0  0  0  0
  194.1750  171.2380  142.2630 C   0  0  0  0  0  3  0  0  0  0  0  0
  195.8570  171.1990  144.6820 C   0  0  0  0  0  3  0  0  0  0  0  0
  194.6510  170.4810  144.6050 C   0  0  0  0  0  0  0  0  0  0  0  0
  194.3470  169.5580  145.6200 C   0  0  0  0  0  3  0  0  0  0  0  0
  194.8330  168.2060  147.9420 Cl  0  0  0  0  0  0  0  0  0  0  0  0
  196.4260  170.0760  146.7480 C   0  0  0  0  0  3  0  0  0  0  0  0
  195.2300  169.3570  146.6860 C   0  0  0  0  0  0  0  0  0  0  0  0
  196.7390  170.9960  145.7470 C   0  0  0  0  0  3  0  0  0  0  0  0
  188.0850  175.2570  142.1970 C   0  0  0  0  0  2  0  0  0  0  0  0
  187.3880  177.5130  141.4540 C   0  0  0  0  0  2  0  0  0  0  0  0
  188.5750  176.5890  141.6400 C   0  0  1  0  0  3  0  0  0  0  0  0
  188.3860  177.8040  142.5610 C   0  0  2  0  0  3  0  0  0  0  0  0
  188.8090  177.8480  145.1550 C   0  0  0  0  0  2  0  0  0  0  0  0
  188.6770  176.8270  146.2930 C   0  0  1  0  0  3  0  0  0  0  0  0
  186.0010  178.4250  145.5970 C   0  0  0  0  0  0  0  0  0  0  0  0
  187.2300  176.4080  146.5560 C   0  0  0  0  0  2  0  0  0  0  0  0
  186.3250  177.6040  146.8230 C   0  0  0  0  0  2  0  0  0  0  0  0
  186.4190  178.0650  144.1830 C   0  0  1  0  0  3  0  0  0  0  0  0
  185.2250  179.4910  145.7630 C   0  0  0  0  0  2  0  0  0  0  0  0
  187.8550  177.5380  143.9910 C   0  0  1  0  0  3  0  0  0  0  0  0
  184.3190  177.9340  143.0170 O   0  0  0  0  0  1  0  0  0  0  0  0
  185.3890  177.1740  143.4960 C   0  0  0  0  0  2  0  0  0  0  0  0
  189.3050  174.5430  147.0750 C   0  0  0  0  0  1  0  0  0  0  0  0
  189.5040  175.5880  145.9930 C   0  0  0  0  0  2  0  0  0  0  0  0
  3  8  1  1  0  0  0
  3  6  1  0  0  0  0
  3  2  1  0  0  0  0
  4 22  1  1  0  0  0
  4  7  1  0  0  0  0
  4  1  1  0  0  0  0
  5  6  1  0  0  0  0
  6  4  1  0  0  0  0
  7  2  1  6  0  0  0
  7  1  1  0  0  0  0
  8 12  1  0  0  0  0
  9 10  1  0  0  0  0
 11 12  1  0  0  0  0
 11 14  2  0  0  0  0
 12  9  2  0  0  0  0
 13 10  2  0  0  0  0
 13 16  1  0  0  0  0
 14 13  1  0  0  0  0
 15 21  1  0  0  0  0
 16 15  2  0  0  0  0
 16 17  1  0  0  0  0
 17 20  2  0  0  0  0
 20 19  1  0  0  0  0
 20 18  1  0  0  0  0
 21 19  2  0  0  0  0
 23 24  1  0  0  0  0
 24 22  1  1  0  0  0
 24 25  1  0  0  0  0
 25 23  1  6  0  0  0
 25 33  1  0  0  0  0
 26 27  1  0  0  0  0
 27 37  1  6  0  0  0
 27 29  1  0  0  0  0
 28 32  2  0  0  0  0
 28 30  1  0  0  0  0
 29 30  1  0  0  0  0
 31 35  1  1  0  0  0
 31 28  1  0  0  0  0
 33 31  1  0  0  0  0
 33 26  1  1  0  0  0
 34 35  1  0  0  0  0
 37 36  1  0  0  0  0
M  END
>  <MODEL>
6

>  <REMARK>
 VINA RESULT:      -6.8      3.782      6.090
  Name = 
  8 active torsions:
  status: ('A' for Active; 'I' for Inactive)
    1  A    between atoms: S_4  and  C_16
    2  A    between atoms: S_4  and  C_28
    3  A    between atoms: C_5  and  C_23
    4  A    between atoms: C_6  and  C_31
    5  A    between atoms: C_20  and  C_32
    6  A    between atoms: C_21  and  C_32
    7  A    between atoms: C_27  and  C_33
    8  A    between atoms: C_29  and  C_36
                            x       y       z     vdW  Elec       q    Type
                         _______ _______ _______ _____ _____    ______ ____

>  <TORSDO>
F 8

$$$$
=
 OpenBabel11052420083D

 37 42  0  0  1  0  0  0  0  0999 V2000
  195.3990  173.3650  144.3370 C   0  0  0  0  0  2  0  0  0  0  0  0
  193.1420  173.6800  145.3210 C   0  0  0  0  0  2  0  0  0  0  0  0
  192.8720  174.9730  144.5650 C   0  0  2  0  0  3  0  0  0  0  0  0
  194.3710  173.7230  143.2890 C   0  0  2  0  0  0  0  0  0  0  0  0
  193.0240  175.4540  142.2900 C   0  0  0  0  0  1  0  0  0  0  0  0
  193.8120  175.0710  143.4540 N   0  0  0  0  0  0  0  0  0  0  0  0
  193.9800  172.8070  144.4160 C   0  0  1  0  0  3  0  0  0  0  0  0
  193.0860  176.3960  145.6770 S   0  0  0  0  0  0  0  0  0  0  0  0
  190.7400  177.3820  144.5970 C   0  0  0  0  0  3  0  0  0  0  0  0
  189.3750  177.6800  144.6160 C   0  0  0  0  0  3  0  0  0  0  0  0
  190.5700  176.4570  146.8260 C   0  0  0  0  0  3  0  0  0  0  0  0
  191.3370  176.7670  145.6990 C   0  0  0  0  0  0  0  0  0  0  0  0
  188.5910  177.3690  145.7400 C   0  0  0  0  0  0  0  0  0  0  0  0
  189.2050  176.7550  146.8450 C   0  0  0  0  0  3  0  0  0  0  0  0
  186.4720  177.8720  146.9860 C   0  0  0  0  0  3  0  0  0  0  0  0
  187.1450  177.6920  145.7650 C   0  0  0  0  0  0  0  0  0  0  0  0
  186.4210  177.8250  144.5680 C   0  0  0  0  0  3  0  0  0  0  0  0
  184.1720  178.2910  143.0910 Cl  0  0  0  0  0  0  0  0  0  0  0  0
  184.4000  178.3010  145.8130 C   0  0  0  0  0  3  0  0  0  0  0  0
  185.0560  178.1270  144.5920 C   0  0  0  0  0  0  0  0  0  0  0  0
  185.1070  178.1750  147.0090 C   0  0  0  0  0  3  0  0  0  0  0  0
  194.6760  173.1300  141.9120 C   0  0  0  0  0  2  0  0  0  0  0  0
  195.2430  170.9650  140.8530 C   0  0  0  0  0  2  0  0  0  0  0  0
  195.5270  171.8720  142.0350 C   0  0  1  0  0  3  0  0  0  0  0  0
  196.5840  171.6730  140.9370 C   0  0  2  0  0  3  0  0  0  0  0  0
  197.9370  173.7880  140.1580 C   0  0  0  0  0  2  0  0  0  0  0  0
  197.5740  175.2310  139.7850 C   0  0  1  0  0  3  0  0  0  0  0  0
  197.3650  173.1260  137.3930 C   0  0  0  0  0  0  0  0  0  0  0  0
  196.7320  175.3260  138.5120 C   0  0  0  0  0  2  0  0  0  0  0  0
  197.3970  174.6350  137.3290 C   0  0  0  0  0  2  0  0  0  0  0  0
  196.6450  172.3220  138.4580 C   0  0  1  0  0  3  0  0  0  0  0  0
  197.9410  172.4610  136.3950 C   0  0  0  0  0  2  0  0  0  0  0  0
  196.7700  172.8200  139.9120 C   0  0  1  0  0  3  0  0  0  0  0  0
  194.3850  173.1410  138.3660 O   0  0  0  0  0  1  0  0  0  0  0  0
  195.1950  172.0410  138.0750 C   0  0  0  0  0  2  0  0  0  0  0  0
  197.5280  175.6430  142.2450 C   0  0  0  0  0  1  0  0  0  0  0  0
  196.8270  175.9020  140.9250 C   0  0  0  0  0  2  0  0  0  0  0  0
  3  2  1  0  0  0  0
  3  8  1  1  0  0  0
  4 22  1  6  0  0  0
  4  6  1  0  0  0  0
  4  1  1  0  0  0  0
  4  7  1  0  0  0  0
  5  6  1  0  0  0  0
  6  3  1  0  0  0  0
  7  1  1  1  0  0  0
  7  2  1  0  0  0  0
  8 12  1  0  0  0  0
  9 10  2  0  0  0  0
  9 12  1  0  0  0  0
 10 13  1  0  0  0  0
 11 14  1  0  0  0  0
 12 11  2  0  0  0  0
 13 16  1  0  0  0  0
 13 14  2  0  0  0  0
 15 21  1  0  0  0  0
 16 15  2  0  0  0  0
 17 20  2  0  0  0  0
 17 16  1  0  0  0  0
 18 20  1  0  0  0  0
 19 21  2  0  0  0  0
 20 19  1  0  0  0  0
 23 24  1  0  0  0  0
 24 22  1  6  0  0  0
 25 23  1  6  0  0  0
 25 24  1  0  0  0  0
 27 26  1  0  0  0  0
 27 37  1  1  0  0  0
 28 31  1  0  0  0  0
 29 27  1  0  0  0  0
 30 28  1  0  0  0  0
 30 29  1  0  0  0  0
 31 35  1  6  0  0  0
 31 33  1  0  0  0  0
 32 28  2  0  0  0  0
 33 26  1  6  0  0  0
 33 25  1  0  0  0  0
 35 34  1  0  0  0  0
 37 36  1  0  0  0  0
M  END
>  <MODEL>
7

>  <REMARK>
 VINA RESULT:      -6.8      4.818      9.515
  Name = 
  8 active torsions:
  status: ('A' for Active; 'I' for Inactive)
    1  A    between atoms: S_4  and  C_16
    2  A    between atoms: S_4  and  C_28
    3  A    between atoms: C_5  and  C_23
    4  A    between atoms: C_6  and  C_31
    5  A    between atoms: C_20  and  C_32
    6  A    between atoms: C_21  and  C_32
    7  A    between atoms: C_27  and  C_33
    8  A    between atoms: C_29  and  C_36
                            x       y       z     vdW  Elec       q    Type
                         _______ _______ _______ _____ _____    ______ ____

>  <TORSDO>
F 8

$$$$
=
 OpenBabel11052420083D

 37 42  0  0  1  0  0  0  0  0999 V2000
  192.8420  173.7030  143.2330 C   0  0  0  0  0  2  0  0  0  0  0  0
  193.8530  172.9300  145.3630 C   0  0  0  0  0  2  0  0  0  0  0  0
  194.2770  174.3260  145.7970 C   0  0  2  0  0  3  0  0  0  0  0  0
  192.4230  174.5640  144.4020 C   0  0  2  0  0  0  0  0  0  0  0  0
  193.0440  176.2970  145.9580 C   0  0  0  0  0  1  0  0  0  0  0  0
  193.5350  175.3050  145.0100 N   0  0  0  0  0  0  0  0  0  0  0  0
  192.5590  173.0790  144.5970 C   0  0  1  0  0  3  0  0  0  0  0  0
  196.0620  174.5430  145.5250 S   0  0  0  0  0  0  0  0  0  0  0  0
  196.0660  173.5800  142.9340 C   0  0  0  0  0  3  0  0  0  0  0  0
  195.9260  173.6980  141.5490 C   0  0  0  0  0  3  0  0  0  0  0  0
  195.5480  175.9290  143.1870 C   0  0  0  0  0  3  0  0  0  0  0  0
  195.8730  174.6930  143.7540 C   0  0  0  0  0  0  0  0  0  0  0  0
  195.5950  174.9330  140.9660 C   0  0  0  0  0  0  0  0  0  0  0  0
  195.4080  176.0470  141.8010 C   0  0  0  0  0  3  0  0  0  0  0  0
  194.1850  175.0740  138.8950 C   0  0  0  0  0  3  0  0  0  0  0  0
  195.4560  175.0620  139.4960 C   0  0  0  0  0  0  0  0  0  0  0  0
  196.5920  175.1720  138.6770 C   0  0  0  0  0  3  0  0  0  0  0  0
  197.8870  175.4300  136.2870 Cl  0  0  0  0  0  0  0  0  0  0  0  0
  195.1920  175.3000  136.7070 C   0  0  0  0  0  3  0  0  0  0  0  0
  196.4610  175.2910  137.2900 C   0  0  0  0  0  0  0  0  0  0  0  0
  194.0550  175.1920  137.5080 C   0  0  0  0  0  3  0  0  0  0  0  0
  191.0300  175.1750  144.2390 C   0  0  0  0  0  2  0  0  0  0  0  0
  189.7260  175.6780  142.1950 C   0  0  0  0  0  2  0  0  0  0  0  0
  190.9600  176.0510  142.9930 C   0  0  1  0  0  3  0  0  0  0  0  0
  189.7620  177.0110  142.9210 C   0  0  2  0  0  3  0  0  0  0  0  0
  189.4240  177.7490  145.4210 C   0  0  0  0  0  2  0  0  0  0  0  0
  188.9550  177.0520  146.7040 C   0  0  1  0  0  3  0  0  0  0  0  0
  186.6160  178.2460  144.8870 C   0  0  0  0  0  0  0  0  0  0  0  0
  187.4870  176.6260  146.6530 C   0  0  0  0  0  2  0  0  0  0  0  0
  186.5620  177.7920  146.3270 C   0  0  0  0  0  2  0  0  0  0  0  0
  187.4160  177.5600  143.7960 C   0  0  1  0  0  3  0  0  0  0  0  0
  185.8410  179.2690  144.5400 C   0  0  0  0  0  2  0  0  0  0  0  0
  188.8390  177.0910  144.1620 C   0  0  1  0  0  3  0  0  0  0  0  0
  186.3600  176.7910  141.7760 O   0  0  0  0  0  1  0  0  0  0  0  0
  186.6140  176.4590  143.1100 C   0  0  0  0  0  2  0  0  0  0  0  0
  188.9410  174.6200  147.2640 C   0  0  0  0  0  1  0  0  0  0  0  0
  189.8140  175.8300  146.9890 C   0  0  0  0  0  2  0  0  0  0  0  0
  1  4  1  0  0  0  0
  2  3  1  0  0  0  0
  3  8  1  6  0  0  0
  4 22  1  6  0  0  0
  4  7  1  0  0  0  0
  4  6  1  0  0  0  0
  6  3  1  0  0  0  0
  6  5  1  0  0  0  0
  7  1  1  6  0  0  0
  7  2  1  0  0  0  0
  9 12  1  0  0  0  0
 10  9  2  0  0  0  0
 11 12  2  0  0  0  0
 12  8  1  0  0  0  0
 13 10  1  0  0  0  0
 13 14  2  0  0  0  0
 14 11  1  0  0  0  0
 15 16  1  0  0  0  0
 16 13  1  0  0  0  0
 17 16  2  0  0  0  0
 18 20  1  0  0  0  0
 19 20  2  0  0  0  0
 19 21  1  0  0  0  0
 20 17  1  0  0  0  0
 21 15  2  0  0  0  0
 23 24  1  0  0  0  0
 24 22  1  1  0  0  0
 25 23  1  6  0  0  0
 25 24  1  0  0  0  0
 25 33  1  0  0  0  0
 26 27  1  0  0  0  0
 27 37  1  6  0  0  0
 28 30  1  0  0  0  0
 29 27  1  0  0  0  0
 30 29  1  0  0  0  0
 31 35  1  1  0  0  0
 31 33  1  0  0  0  0
 31 28  1  0  0  0  0
 32 28  2  0  0  0  0
 33 26  1  1  0  0  0
 34 35  1  0  0  0  0
 37 36  1  0  0  0  0
M  END
>  <MODEL>
8

>  <REMARK>
 VINA RESULT:      -6.6      3.213      4.876
  Name = 
  8 active torsions:
  status: ('A' for Active; 'I' for Inactive)
    1  A    between atoms: S_4  and  C_16
    2  A    between atoms: S_4  and  C_28
    3  A    between atoms: C_5  and  C_23
    4  A    between atoms: C_6  and  C_31
    5  A    between atoms: C_20  and  C_32
    6  A    between atoms: C_21  and  C_32
    7  A    between atoms: C_27  and  C_33
    8  A    between atoms: C_29  and  C_36
                            x       y       z     vdW  Elec       q    Type
                         _______ _______ _______ _____ _____    ______ ____

>  <TORSDO>
F 8

$$$$
=
 OpenBabel11052420083D

 37 42  0  0  1  0  0  0  0  0999 V2000
  194.8160  173.4670  143.7020 C   0  0  0  0  0  2  0  0  0  0  0  0
  192.9940  173.4440  145.3880 C   0  0  0  0  0  2  0  0  0  0  0  0
  192.2770  174.6460  144.7900 C   0  0  2  0  0  3  0  0  0  0  0  0
  193.4540  173.6110  143.0640 C   0  0  2  0  0  0  0  0  0  0  0  0
  191.5820  175.0570  142.6040 C   0  0  0  0  0  1  0  0  0  0  0  0
  192.7640  174.8530  143.4310 N   0  0  0  0  0  0  0  0  0  0  0  0
  193.6190  172.6860  144.2390 C   0  0  1  0  0  3  0  0  0  0  0  0
  192.6060  176.1250  145.7940 S   0  0  0  0  0  0  0  0  0  0  0  0
  190.0260  176.1150  146.7870 C   0  0  0  0  0  3  0  0  0  0  0  0
  188.6810  176.4930  146.7950 C   0  0  0  0  0  3  0  0  0  0  0  0
  190.4020  177.4940  144.8350 C   0  0  0  0  0  3  0  0  0  0  0  0
  190.8880  176.6180  145.8100 C   0  0  0  0  0  0  0  0  0  0  0  0
  188.1800  177.3770  145.8240 C   0  0  0  0  0  0  0  0  0  0  0  0
  189.0560  177.8720  144.8430 C   0  0  0  0  0  3  0  0  0  0  0  0
  186.0760  178.0090  147.0360 C   0  0  0  0  0  3  0  0  0  0  0  0
  186.7520  177.7720  145.8260 C   0  0  0  0  0  0  0  0  0  0  0  0
  186.0470  177.9150  144.6190 C   0  0  0  0  0  3  0  0  0  0  0  0
  183.8390  178.4620  143.1080 Cl  0  0  0  0  0  0  0  0  0  0  0  0
  184.0400  178.5150  145.8320 C   0  0  0  0  0  3  0  0  0  0  0  0
  184.6990  178.2850  144.6220 C   0  0  0  0  0  0  0  0  0  0  0  0
  184.7280  178.3780  147.0380 C   0  0  0  0  0  3  0  0  0  0  0  0
  193.3800  173.0240  141.6530 C   0  0  0  0  0  2  0  0  0  0  0  0
  191.3660  171.5830  141.6630 C   0  0  0  0  0  2  0  0  0  0  0  0
  192.8820  171.5830  141.6860 C   0  0  1  0  0  3  0  0  0  0  0  0
  192.1240  171.1130  140.4340 C   0  0  2  0  0  3  0  0  0  0  0  0
  193.0810  171.8580  138.1020 C   0  0  0  0  0  2  0  0  0  0  0  0
  193.5850  173.1800  137.5090 C   0  0  1  0  0  3  0  0  0  0  0  0
  190.4320  172.7240  137.3000 C   0  0  0  0  0  0  0  0  0  0  0  0
  192.4850  174.2330  137.3710 C   0  0  0  0  0  2  0  0  0  0  0  0
  191.2970  173.7210  136.5660 C   0  0  0  0  0  2  0  0  0  0  0  0
  190.6180  172.3230  138.7510 C   0  0  1  0  0  3  0  0  0  0  0  0
  189.3840  172.2280  136.6480 C   0  0  0  0  0  2  0  0  0  0  0  0
  192.0630  172.0850  139.2310 C   0  0  1  0  0  3  0  0  0  0  0  0
  188.5650  172.7410  139.9340 O   0  0  0  0  0  1  0  0  0  0  0  0
  189.8480  173.2400  139.6970 C   0  0  0  0  0  2  0  0  0  0  0  0
  194.3450  175.1300  138.8670 C   0  0  0  0  0  1  0  0  0  0  0  0
  194.7110  173.7480  138.3590 C   0  0  0  0  0  2  0  0  0  0  0  0
  3  2  1  0  0  0  0
  3  8  1  1  0  0  0
  4 22  1  6  0  0  0
  4  6  1  0  0  0  0
  4  1  1  0  0  0  0
  4  7  1  0  0  0  0
  5  6  1  0  0  0  0
  6  3  1  0  0  0  0
  7  1  1  1  0  0  0
  7  2  1  0  0  0  0
  8 12  1  0  0  0  0
  9 10  1  0  0  0  0
 11 14  2  0  0  0  0
 11 12  1  0  0  0  0
 12  9  2  0  0  0  0
 13 16  1  0  0  0  0
 13 10  2  0  0  0  0
 14 13  1  0  0  0  0
 15 21  1  0  0  0  0
 16 15  2  0  0  0  0
 17 20  2  0  0  0  0
 17 16  1  0  0  0  0
 18 20  1  0  0  0  0
 19 21  2  0  0  0  0
 20 19  1  0  0  0  0
 23 24  1  0  0  0  0
 24 22  1  6  0  0  0
 25 23  1  1  0  0  0
 25 24  1  0  0  0  0
 27 26  1  0  0  0  0
 27 37  1  1  0  0  0
 28 31  1  0  0  0  0
 29 27  1  0  0  0  0
 30 28  1  0  0  0  0
 30 29  1  0  0  0  0
 31 33  1  0  0  0  0
 31 35  1  1  0  0  0
 32 28  2  0  0  0  0
 33 26  1  6  0  0  0
 33 25  1  0  0  0  0
 35 34  1  0  0  0  0
 37 36  1  0  0  0  0
M  END
>  <MODEL>
9

>  <REMARK>
 VINA RESULT:      -6.6      3.094      7.686
  Name = 
  8 active torsions:
  status: ('A' for Active; 'I' for Inactive)
    1  A    between atoms: S_4  and  C_16
    2  A    between atoms: S_4  and  C_28
    3  A    between atoms: C_5  and  C_23
    4  A    between atoms: C_6  and  C_31
    5  A    between atoms: C_20  and  C_32
    6  A    between atoms: C_21  and  C_32
    7  A    between atoms: C_27  and  C_33
    8  A    between atoms: C_29  and  C_36
                            x       y       z     vdW  Elec       q    Type
                         _______ _______ _______ _____ _____    ______ ____

>  <TORSDO>
F 8

$$$$
