=
 OpenBabel11052420063D

 37 38  0  0  1  0  0  0  0  0999 V2000
  190.2570  174.4670  143.2010 O   0  0  0  0  0  0  0  0  0  0  0  0
  187.0730  176.8230  140.9840 C   0  0  0  0  0  2  0  0  0  0  0  0
  190.4070  175.7700  143.7490 C   0  0  2  0  0  3  0  0  0  0  0  0
  187.8090  176.1150  142.1180 C   0  0  1  0  0  3  0  0  0  0  0  0
  188.8500  175.3500  141.5780 O   0  0  0  0  0  0  0  0  0  0  0  0
  188.3500  177.1420  143.1330 C   0  0  1  0  0  3  0  0  0  0  0  0
  186.4640  178.6960  142.5540 C   0  0  0  0  0  2  0  0  0  0  0  0
  189.0390  174.3130  142.5000 C   0  0  1  0  0  3  0  0  0  0  0  0
  187.1900  177.9750  143.6840 C   0  0  0  0  0  2  0  0  0  0  0  0
  189.1230  176.4550  144.2750 C   0  0  2  0  0  3  0  0  0  0  0  0
  185.9360  177.6840  141.5390 C   0  0  1  0  0  3  0  0  0  0  0  0
  185.1560  178.3690  140.4190 C   0  0  0  0  0  2  0  0  0  0  0  0
  183.6490  178.2430  140.5980 C   0  0  0  0  0  1  0  0  0  0  0  0
  189.0300  172.9810  141.7690 C   0  0  0  0  0  2  0  0  0  0  0  0
  189.3830  171.8570  142.7260 C   0  0  0  0  0  1  0  0  0  0  0  0
  191.1270  176.5950  142.8790 O   0  0  0  0  0  0  0  0  0  0  0  0
  192.4630  176.2300  143.0640 C   0  0  0  0  0  2  0  0  0  0  0  0
  192.8530  176.4160  144.5190 C   0  0  0  0  0  2  0  0  0  0  0  0
  193.6450  175.2170  145.0080 C   0  0  0  0  0  2  0  0  0  0  0  0
  195.0270  175.6480  145.4710 C   0  0  0  0  0  2  0  0  0  0  0  0
  196.0900  175.3490  144.4110 C   0  0  1  0  0  3  0  0  0  0  0  0
  196.4600  176.5150  143.4890 C   0  0  0  0  0  2  0  0  0  0  0  0
  197.8110  176.5060  143.1850 F   0  0  0  0  0  0  0  0  0  0  0  0
  197.1820  174.5840  144.8980 O   0  0  0  0  0  0  0  0  0  0  0  0
  197.1280  172.1720  145.2130 C   0  0  0  0  0  1  0  0  0  0  0  0
  197.2660  173.6860  147.0790 F   0  0  0  0  0  0  0  0  0  0  0  0
  196.7990  173.5420  145.7810 C   0  0  1  0  0  3  0  0  0  0  0  0
  189.4900  177.4060  145.2490 O   0  0  0  0  0  0  0  0  0  0  0  0
  189.2540  176.9230  146.5660 C   0  0  1  0  0  0  0  0  0  0  0  0
  188.5410  175.5690  146.5650 C   0  0  0  0  0  1  0  0  0  0  0  0
  190.5390  176.8790  147.4230 C   0  0  0  0  0  2  0  0  0  0  0  0
  191.0470  175.4750  147.7290 C   0  0  0  0  0  1  0  0  0  0  0  0
  188.2840  177.8920  147.2480 C   0  0  0  0  0  2  0  0  0  0  0  0
  186.8280  177.4190  147.2470 C   0  0  0  0  0  2  0  0  0  0  0  0
  185.8500  178.5880  147.2060 C   0  0  0  0  0  2  0  0  0  0  0  0
  184.0820  178.8630  145.4670 C   0  0  0  0  0  1  0  0  0  0  0  0
  184.4700  178.1430  146.7440 C   0  0  0  0  0  2  0  0  0  0  0  0
  1  3  1  0  0  0  0
  2 11  1  0  0  0  0
  3 16  1  6  0  0  0
  3 10  1  0  0  0  0
  4  2  1  6  0  0  0
  4  6  1  0  0  0  0
  5  4  1  0  0  0  0
  5  8  1  0  0  0  0
  6  9  1  1  0  0  0
  6 10  1  0  0  0  0
  7  9  1  0  0  0  0
  8 14  1  6  0  0  0
  8  1  1  0  0  0  0
 10 28  1  1  0  0  0
 11 12  1  6  0  0  0
 11  7  1  0  0  0  0
 12 13  1  0  0  0  0
 14 15  1  0  0  0  0
 16 17  1  0  0  0  0
 17 18  1  0  0  0  0
 18 19  1  0  0  0  0
 19 20  1  0  0  0  0
 21 22  1  1  0  0  0
 21 24  1  0  0  0  0
 21 20  1  0  0  0  0
 23 22  1  0  0  0  0
 24 27  1  0  0  0  0
 27 25  1  6  0  0  0
 27 26  1  0  0  0  0
 28 29  1  0  0  0  0
 29 30  1  6  0  0  0
 29 33  1  0  0  0  0
 29 31  1  0  0  0  0
 31 32  1  0  0  0  0
 34 33  1  0  0  0  0
 35 34  1  0  0  0  0
 36 37  1  0  0  0  0
 37 35  1  0  0  0  0
M  END
>  <MODEL>
1

>  <REMARK>
 VINA RESULT:      -6.7      0.000      0.000
  Name = 
  18 active torsions:
  status: ('A' for Active; 'I' for Inactive)
    1  A    between atoms: C_1  and  C_5
    2  A    between atoms: C_1  and  C_17
    3  A    between atoms: C_1  and  O_36
    4  A    between atoms: O_2  and  C_6
    5  A    between atoms: O_2  and  C_35
    6  A    between atoms: C_3  and  C_32
    7  A    between atoms: C_6  and  C_8
    8  A    between atoms: C_6  and  C_31
    9  A    between atoms: C_7  and  O_14
   10  A    between atoms: C_7  and  C_27
   11  A    between atoms: C_10  and  O_14
   12  A    between atoms: C_17  and  C_33
   13  A    between atoms: C_22  and  C_24
   14  A    between atoms: C_26  and  C_33
   15  A    between atoms: C_26  and  C_34
   16  A    between atoms: C_27  and  C_37
   17  A    between atoms: C_29  and  O_36
   18  A    between atoms: C_31  and  C_37
                            x       y       z     vdW  Elec       q    Type
                         _______ _______ _______ _____ _____    ______ ____

>  <TORSDO>
F 18

$$$$
=
 OpenBabel11052420063D

 37 38  0  0  1  0  0  0  0  0999 V2000
  189.4050  176.1750  144.9630 O   0  0  0  0  0  0  0  0  0  0  0  0
  190.2800  172.9500  141.8910 C   0  0  0  0  0  2  0  0  0  0  0  0
  189.3440  176.8970  143.7390 C   0  0  2  0  0  3  0  0  0  0  0  0
  189.5180  173.9940  142.7010 C   0  0  1  0  0  3  0  0  0  0  0  0
  190.2900  174.3640  143.8090 O   0  0  0  0  0  0  0  0  0  0  0  0
  189.1900  175.2210  141.8250 C   0  0  1  0  0  3  0  0  0  0  0  0
  189.1340  173.7450  139.7940 C   0  0  0  0  0  2  0  0  0  0  0  0
  189.3560  174.7760  144.7670 C   0  0  1  0  0  3  0  0  0  0  0  0
  188.3670  174.7770  140.6140 C   0  0  0  0  0  2  0  0  0  0  0  0
  188.4440  176.3040  142.6280 C   0  0  2  0  0  3  0  0  0  0  0  0
  189.4720  172.5330  140.6600 C   0  0  1  0  0  3  0  0  0  0  0  0
  190.1950  171.4550  139.8560 C   0  0  0  0  0  2  0  0  0  0  0  0
  191.2200  172.0370  138.8910 C   0  0  0  0  0  1  0  0  0  0  0  0
  189.6310  174.0630  146.0800 C   0  0  0  0  0  2  0  0  0  0  0  0
  189.1770  174.9190  147.2470 C   0  0  0  0  0  1  0  0  0  0  0  0
  190.6270  177.1980  143.2740 O   0  0  0  0  0  0  0  0  0  0  0  0
  191.3280  177.6180  144.4080 C   0  0  0  0  0  2  0  0  0  0  0  0
  192.6650  176.9030  144.4850 C   0  0  0  0  0  2  0  0  0  0  0  0
  192.8020  176.1860  145.8150 C   0  0  0  0  0  2  0  0  0  0  0  0
  194.2560  175.8390  146.0830 C   0  0  0  0  0  2  0  0  0  0  0  0
  194.6440  174.5120  145.4280 C   0  0  1  0  0  3  0  0  0  0  0  0
  193.6460  173.3630  145.6050 C   0  0  0  0  0  2  0  0  0  0  0  0
  192.9890  173.0810  144.4190 F   0  0  0  0  0  0  0  0  0  0  0  0
  195.1860  174.6560  144.1230 O   0  0  0  0  0  0  0  0  0  0  0  0
  197.1000  175.9700  143.3970 C   0  0  0  0  0  1  0  0  0  0  0  0
  197.2090  174.5460  145.3340 F   0  0  0  0  0  0  0  0  0  0  0  0
  196.6020  174.7180  144.0980 C   0  0  1  0  0  3  0  0  0  0  0  0
  188.0460  177.3500  141.7700 O   0  0  0  0  0  0  0  0  0  0  0  0
  186.6740  177.6800  141.9500 C   0  0  1  0  0  0  0  0  0  0  0  0
  186.4910  179.0310  142.6480 C   0  0  0  0  0  1  0  0  0  0  0  0
  185.8700  177.6190  140.6320 C   0  0  0  0  0  2  0  0  0  0  0  0
  184.5270  178.3370  140.6760 C   0  0  0  0  0  1  0  0  0  0  0  0
  186.0690  176.6460  142.9030 C   0  0  0  0  0  2  0  0  0  0  0  0
  185.3890  177.2550  144.1320 C   0  0  0  0  0  2  0  0  0  0  0  0
  185.9170  176.6550  145.4300 C   0  0  0  0  0  2  0  0  0  0  0  0
  184.2500  178.3370  146.2170 C   0  0  0  0  0  1  0  0  0  0  0  0
  185.3000  177.3290  146.6470 C   0  0  0  0  0  2  0  0  0  0  0  0
  3 16  1  6  0  0  0
  3  1  1  0  0  0  0
  4  2  1  6  0  0  0
  4  5  1  0  0  0  0
  5  8  1  0  0  0  0
  6  9  1  6  0  0  0
  6 10  1  0  0  0  0
  6  4  1  0  0  0  0
  7  9  1  0  0  0  0
  7 11  1  0  0  0  0
  8  1  1  0  0  0  0
  8 14  1  1  0  0  0
 10 28  1  6  0  0  0
 10  3  1  0  0  0  0
 11 12  1  6  0  0  0
 11  2  1  0  0  0  0
 13 12  1  0  0  0  0
 14 15  1  0  0  0  0
 16 17  1  0  0  0  0
 17 18  1  0  0  0  0
 18 19  1  0  0  0  0
 19 20  1  0  0  0  0
 21 22  1  6  0  0  0
 21 20  1  0  0  0  0
 23 22  1  0  0  0  0
 24 21  1  0  0  0  0
 27 25  1  1  0  0  0
 27 24  1  0  0  0  0
 27 26  1  0  0  0  0
 28 29  1  0  0  0  0
 29 30  1  1  0  0  0
 29 33  1  0  0  0  0
 31 32  1  0  0  0  0
 31 29  1  0  0  0  0
 33 34  1  0  0  0  0
 34 35  1  0  0  0  0
 35 37  1  0  0  0  0
 36 37  1  0  0  0  0
M  END
>  <MODEL>
2

>  <REMARK>
 VINA RESULT:      -6.0      1.761      4.591
  Name = 
  18 active torsions:
  status: ('A' for Active; 'I' for Inactive)
    1  A    between atoms: C_1  and  C_5
    2  A    between atoms: C_1  and  C_17
    3  A    between atoms: C_1  and  O_36
    4  A    between atoms: O_2  and  C_6
    5  A    between atoms: O_2  and  C_35
    6  A    between atoms: C_3  and  C_32
    7  A    between atoms: C_6  and  C_8
    8  A    between atoms: C_6  and  C_31
    9  A    between atoms: C_7  and  O_14
   10  A    between atoms: C_7  and  C_27
   11  A    between atoms: C_10  and  O_14
   12  A    between atoms: C_17  and  C_33
   13  A    between atoms: C_22  and  C_24
   14  A    between atoms: C_26  and  C_33
   15  A    between atoms: C_26  and  C_34
   16  A    between atoms: C_27  and  C_37
   17  A    between atoms: C_29  and  O_36
   18  A    between atoms: C_31  and  C_37
                            x       y       z     vdW  Elec       q    Type
                         _______ _______ _______ _____ _____    ______ ____

>  <TORSDO>
F 18

$$$$
=
 OpenBabel11052420063D

 37 38  0  0  1  0  0  0  0  0999 V2000
  190.6440  177.3310  144.1430 O   0  0  0  0  0  0  0  0  0  0  0  0
  189.9890  173.6970  141.5030 C   0  0  0  0  0  2  0  0  0  0  0  0
  191.4490  176.3460  144.7780 C   0  0  2  0  0  3  0  0  0  0  0  0
  190.6790  174.8840  142.1700 C   0  0  1  0  0  3  0  0  0  0  0  0
  189.7150  175.6660  142.8170 O   0  0  0  0  0  0  0  0  0  0  0  0
  191.7490  174.3940  143.1670 C   0  0  1  0  0  3  0  0  0  0  0  0
  192.0860  172.3290  141.7780 C   0  0  0  0  0  2  0  0  0  0  0  0
  190.2610  176.9550  142.8360 C   0  0  1  0  0  3  0  0  0  0  0  0
  192.7710  173.5250  142.4320 C   0  0  0  0  0  2  0  0  0  0  0  0
  192.4410  175.5730  143.8770 C   0  0  2  0  0  3  0  0  0  0  0  0
  191.0170  172.8090  140.7980 C   0  0  1  0  0  3  0  0  0  0  0  0
  190.3460  171.6370  140.0850 C   0  0  0  0  0  2  0  0  0  0  0  0
  189.1850  172.0790  139.2040 C   0  0  0  0  0  1  0  0  0  0  0  0
  189.2440  177.9430  142.2920 C   0  0  0  0  0  2  0  0  0  0  0  0
  187.9320  177.2370  142.0000 C   0  0  0  0  0  1  0  0  0  0  0  0
  190.6640  175.4880  145.5550 O   0  0  0  0  0  0  0  0  0  0  0  0
  190.0000  176.3260  146.4530 C   0  0  0  0  0  2  0  0  0  0  0  0
  188.6260  175.7630  146.7680 C   0  0  0  0  0  2  0  0  0  0  0  0
  187.6090  176.2590  145.7580 C   0  0  0  0  0  2  0  0  0  0  0  0
  187.6040  177.7770  145.7110 C   0  0  0  0  0  2  0  0  0  0  0  0
  186.3330  178.3510  146.3420 C   0  0  1  0  0  3  0  0  0  0  0  0
  186.4120  178.6620  147.8400 C   0  0  0  0  0  2  0  0  0  0  0  0
  186.1910  180.0070  148.0860 F   0  0  0  0  0  0  0  0  0  0  0  0
  185.6960  179.3390  145.5450 O   0  0  0  0  0  0  0  0  0  0  0  0
  184.2140  178.5570  143.7820 C   0  0  0  0  0  1  0  0  0  0  0  0
  183.7290  178.1620  146.1060 F   0  0  0  0  0  0  0  0  0  0  0  0
  184.3520  179.0280  145.2190 C   0  0  1  0  0  3  0  0  0  0  0  0
  193.4990  175.0990  144.6800 O   0  0  0  0  0  0  0  0  0  0  0  0
  194.6740  175.8810  144.5130 C   0  0  1  0  0  0  0  0  0  0  0  0
  194.9440  176.2120  143.0430 C   0  0  0  0  0  1  0  0  0  0  0  0
  194.6670  177.1590  145.3810 C   0  0  0  0  0  2  0  0  0  0  0  0
  194.2800  176.9330  146.8370 C   0  0  0  0  0  1  0  0  0  0  0  0
  195.8660  175.0310  144.9620 C   0  0  0  0  0  2  0  0  0  0  0  0
  195.4780  173.6510  145.5000 C   0  0  0  0  0  2  0  0  0  0  0  0
  196.6840  172.8910  146.0400 C   0  0  0  0  0  2  0  0  0  0  0  0
  195.1340  170.9770  145.6440 C   0  0  0  0  0  1  0  0  0  0  0  0
  196.5860  171.4030  145.7380 C   0  0  0  0  0  2  0  0  0  0  0  0
  1  3  1  0  0  0  0
  3 16  1  6  0  0  0
  4  2  1  1  0  0  0
  4  5  1  0  0  0  0
  4  6  1  0  0  0  0
  5  8  1  0  0  0  0
  6  9  1  6  0  0  0
  6 10  1  0  0  0  0
  7  9  1  0  0  0  0
  8 14  1  1  0  0  0
  8  1  1  0  0  0  0
 10 28  1  1  0  0  0
 10  3  1  0  0  0  0
 11 12  1  1  0  0  0
 11  2  1  0  0  0  0
 11  7  1  0  0  0  0
 13 12  1  0  0  0  0
 15 14  1  0  0  0  0
 16 17  1  0  0  0  0
 17 18  1  0  0  0  0
 19 18  1  0  0  0  0
 20 19  1  0  0  0  0
 21 20  1  6  0  0  0
 21 22  1  0  0  0  0
 22 23  1  0  0  0  0
 24 21  1  0  0  0  0
 27 25  1  6  0  0  0
 27 24  1  0  0  0  0
 27 26  1  0  0  0  0
 29 30  1  6  0  0  0
 29 28  1  0  0  0  0
 29 33  1  0  0  0  0
 29 31  1  0  0  0  0
 31 32  1  0  0  0  0
 33 34  1  0  0  0  0
 34 35  1  0  0  0  0
 36 37  1  0  0  0  0
 37 35  1  0  0  0  0
M  END
>  <MODEL>
3

>  <REMARK>
 VINA RESULT:      -5.8      3.637      8.381
  Name = 
  18 active torsions:
  status: ('A' for Active; 'I' for Inactive)
    1  A    between atoms: C_1  and  C_5
    2  A    between atoms: C_1  and  C_17
    3  A    between atoms: C_1  and  O_36
    4  A    between atoms: O_2  and  C_6
    5  A    between atoms: O_2  and  C_35
    6  A    between atoms: C_3  and  C_32
    7  A    between atoms: C_6  and  C_8
    8  A    between atoms: C_6  and  C_31
    9  A    between atoms: C_7  and  O_14
   10  A    between atoms: C_7  and  C_27
   11  A    between atoms: C_10  and  O_14
   12  A    between atoms: C_17  and  C_33
   13  A    between atoms: C_22  and  C_24
   14  A    between atoms: C_26  and  C_33
   15  A    between atoms: C_26  and  C_34
   16  A    between atoms: C_27  and  C_37
   17  A    between atoms: C_29  and  O_36
   18  A    between atoms: C_31  and  C_37
                            x       y       z     vdW  Elec       q    Type
                         _______ _______ _______ _____ _____    ______ ____

>  <TORSDO>
F 18

$$$$
=
 OpenBabel11052420063D

 37 38  0  0  1  0  0  0  0  0999 V2000
  189.9420  176.1720  144.7730 O   0  0  0  0  0  0  0  0  0  0  0  0
  194.4600  176.0240  144.3610 C   0  0  0  0  0  2  0  0  0  0  0  0
  190.1110  175.8090  143.4080 C   0  0  2  0  0  3  0  0  0  0  0  0
  193.0090  175.5610  144.4450 C   0  0  1  0  0  3  0  0  0  0  0  0
  192.2170  176.6240  144.8970 O   0  0  0  0  0  0  0  0  0  0  0  0
  192.5230  175.0600  143.0690 C   0  0  1  0  0  3  0  0  0  0  0  0
  194.8730  174.3820  142.4970 C   0  0  0  0  0  2  0  0  0  0  0  0
  191.1270  176.0090  145.5250 C   0  0  1  0  0  3  0  0  0  0  0  0
  193.4240  173.9170  142.5960 C   0  0  0  0  0  2  0  0  0  0  0  0
  191.0500  174.6130  143.1190 C   0  0  2  0  0  3  0  0  0  0  0  0
  195.3550  174.8910  143.8540 C   0  0  1  0  0  3  0  0  0  0  0  0
  196.8210  175.3160  143.8040 C   0  0  0  0  0  2  0  0  0  0  0  0
  197.0060  176.6980  143.1930 C   0  0  0  0  0  1  0  0  0  0  0  0
  190.9430  176.6020  146.9120 C   0  0  0  0  0  2  0  0  0  0  0  0
  191.2340  175.5560  147.9720 C   0  0  0  0  0  1  0  0  0  0  0  0
  190.4270  176.9280  142.6320 O   0  0  0  0  0  0  0  0  0  0  0  0
  189.4550  177.8770  142.9600 C   0  0  0  0  0  2  0  0  0  0  0  0
  188.4800  178.0390  141.8080 C   0  0  0  0  0  2  0  0  0  0  0  0
  187.0700  178.2280  142.3360 C   0  0  0  0  0  2  0  0  0  0  0  0
  186.9880  177.8070  143.7930 C   0  0  0  0  0  2  0  0  0  0  0  0
  186.2080  178.8270  144.6260 C   0  0  1  0  0  3  0  0  0  0  0  0
  185.0300  179.5060  143.9200 C   0  0  0  0  0  2  0  0  0  0  0  0
  183.8200  178.9860  144.3500 F   0  0  0  0  0  0  0  0  0  0  0  0
  185.9610  178.4060  145.9590 O   0  0  0  0  0  0  0  0  0  0  0  0
  187.1290  176.6230  147.1320 C   0  0  0  0  0  1  0  0  0  0  0  0
  184.8390  176.3850  146.4330 F   0  0  0  0  0  0  0  0  0  0  0  0
  186.0450  177.0020  146.1380 C   0  0  1  0  0  3  0  0  0  0  0  0
  190.6780  174.0420  141.8840 O   0  0  0  0  0  0  0  0  0  0  0  0
  189.6840  173.0380  142.0510 C   0  0  1  0  0  0  0  0  0  0  0  0
  189.5930  172.5510  143.5000 C   0  0  0  0  0  1  0  0  0  0  0  0
  188.3010  173.4760  141.5200 C   0  0  0  0  0  2  0  0  0  0  0  0
  188.3480  174.5610  140.4520 C   0  0  0  0  0  1  0  0  0  0  0  0
  190.1190  171.8150  141.2390 C   0  0  0  0  0  2  0  0  0  0  0  0
  191.3930  172.0330  140.4190 C   0  0  0  0  0  2  0  0  0  0  0  0
  191.0950  172.1630  138.9290 C   0  0  0  0  0  2  0  0  0  0  0  0
  192.7220  174.0560  138.8960 C   0  0  0  0  0  1  0  0  0  0  0  0
  191.3600  173.5760  138.4300 C   0  0  0  0  0  2  0  0  0  0  0  0
  1  8  1  0  0  0  0
  3 16  1  6  0  0  0
  3  1  1  0  0  0  0
  4  2  1  6  0  0  0
  4  5  1  0  0  0  0
  5  8  1  0  0  0  0
  6  9  1  1  0  0  0
  6 10  1  0  0  0  0
  6  4  1  0  0  0  0
  7  9  1  0  0  0  0
  7 11  1  0  0  0  0
  8 14  1  1  0  0  0
 10 28  1  6  0  0  0
 10  3  1  0  0  0  0
 11 12  1  6  0  0  0
 11  2  1  0  0  0  0
 13 12  1  0  0  0  0
 14 15  1  0  0  0  0
 16 17  1  0  0  0  0
 18 19  1  0  0  0  0
 18 17  1  0  0  0  0
 19 20  1  0  0  0  0
 21 20  1  6  0  0  0
 21 24  1  0  0  0  0
 22 23  1  0  0  0  0
 22 21  1  0  0  0  0
 24 27  1  0  0  0  0
 27 26  1  0  0  0  0
 27 25  1  1  0  0  0
 28 29  1  0  0  0  0
 29 30  1  1  0  0  0
 31 29  1  0  0  0  0
 32 31  1  0  0  0  0
 33 29  1  0  0  0  0
 34 33  1  0  0  0  0
 35 34  1  0  0  0  0
 37 36  1  0  0  0  0
 37 35  1  0  0  0  0
M  END
>  <MODEL>
4

>  <REMARK>
 VINA RESULT:      -5.8      3.673      8.725
  Name = 
  18 active torsions:
  status: ('A' for Active; 'I' for Inactive)
    1  A    between atoms: C_1  and  C_5
    2  A    between atoms: C_1  and  C_17
    3  A    between atoms: C_1  and  O_36
    4  A    between atoms: O_2  and  C_6
    5  A    between atoms: O_2  and  C_35
    6  A    between atoms: C_3  and  C_32
    7  A    between atoms: C_6  and  C_8
    8  A    between atoms: C_6  and  C_31
    9  A    between atoms: C_7  and  O_14
   10  A    between atoms: C_7  and  C_27
   11  A    between atoms: C_10  and  O_14
   12  A    between atoms: C_17  and  C_33
   13  A    between atoms: C_22  and  C_24
   14  A    between atoms: C_26  and  C_33
   15  A    between atoms: C_26  and  C_34
   16  A    between atoms: C_27  and  C_37
   17  A    between atoms: C_29  and  O_36
   18  A    between atoms: C_31  and  C_37
                            x       y       z     vdW  Elec       q    Type
                         _______ _______ _______ _____ _____    ______ ____

>  <TORSDO>
F 18

$$$$
=
 OpenBabel11052420063D

 37 38  0  0  1  0  0  0  0  0999 V2000
  190.5860  175.0150  141.9380 O   0  0  0  0  0  0  0  0  0  0  0  0
  191.4650  175.8900  146.3040 C   0  0  0  0  0  2  0  0  0  0  0  0
  189.2830  175.1490  142.4890 C   0  0  2  0  0  3  0  0  0  0  0  0
  191.0220  176.0940  144.8590 C   0  0  1  0  0  3  0  0  0  0  0  0
  191.4570  175.0060  144.0910 O   0  0  0  0  0  0  0  0  0  0  0  0
  189.4890  176.2420  144.7820 C   0  0  1  0  0  3  0  0  0  0  0  0
  189.4750  177.2140  147.0980 C   0  0  0  0  0  2  0  0  0  0  0  0
  191.5900  175.5210  142.7960 C   0  0  1  0  0  3  0  0  0  0  0  0
  189.0470  177.4230  145.6490 C   0  0  0  0  0  2  0  0  0  0  0  0
  189.0110  176.4200  143.3280 C   0  0  2  0  0  3  0  0  0  0  0  0
  190.9920  177.0540  147.1780 C   0  0  1  0  0  3  0  0  0  0  0  0
  191.4620  176.8950  148.6230 C   0  0  0  0  0  2  0  0  0  0  0  0
  191.3390  178.1870  149.4200 C   0  0  0  0  0  1  0  0  0  0  0  0
  192.9620  175.1650  142.2500 C   0  0  0  0  0  2  0  0  0  0  0  0
  192.8300  174.1820  141.1010 C   0  0  0  0  0  1  0  0  0  0  0  0
  188.9050  173.9820  143.1610 O   0  0  0  0  0  0  0  0  0  0  0  0
  189.2340  172.9440  142.2870 C   0  0  0  0  0  2  0  0  0  0  0  0
  189.5130  171.6750  143.0720 C   0  0  0  0  0  2  0  0  0  0  0  0
  190.7520  171.8500  143.9320 C   0  0  0  0  0  2  0  0  0  0  0  0
  191.9660  171.2550  143.2390 C   0  0  0  0  0  2  0  0  0  0  0  0
  193.1450  171.1100  144.2040 C   0  0  1  0  0  3  0  0  0  0  0  0
  193.7800  169.7180  144.2780 C   0  0  0  0  0  2  0  0  0  0  0  0
  194.7060  169.6430  145.3050 F   0  0  0  0  0  0  0  0  0  0  0  0
  194.0580  172.1970  144.1570 O   0  0  0  0  0  0  0  0  0  0  0  0
  195.6360  173.5820  145.3860 C   0  0  0  0  0  1  0  0  0  0  0  0
  193.3440  173.3580  146.0850 F   0  0  0  0  0  0  0  0  0  0  0  0
  194.3890  172.7170  145.4350 C   0  0  1  0  0  3  0  0  0  0  0  0
  187.6250  176.6830  143.3050 O   0  0  0  0  0  0  0  0  0  0  0  0
  187.2990  177.6860  142.3510 C   0  0  1  0  0  0  0  0  0  0  0  0
  188.5370  178.4420  141.8620 C   0  0  0  0  0  1  0  0  0  0  0  0
  186.4760  177.1350  141.1660 C   0  0  0  0  0  2  0  0  0  0  0  0
  185.5120  178.1370  140.5440 C   0  0  0  0  0  1  0  0  0  0  0  0
  186.4360  178.7360  143.0570 C   0  0  0  0  0  2  0  0  0  0  0  0
  185.6350  178.1880  144.2410 C   0  0  0  0  0  2  0  0  0  0  0  0
  185.6880  179.1220  145.4450 C   0  0  0  0  0  2  0  0  0  0  0  0
  185.3860  176.8730  146.4840 C   0  0  0  0  0  1  0  0  0  0  0  0
  185.6220  178.3470  146.7530 C   0  0  0  0  0  2  0  0  0  0  0  0
  1  3  1  0  0  0  0
  1  8  1  0  0  0  0
  2 11  1  0  0  0  0
  3 16  1  1  0  0  0
  3 10  1  0  0  0  0
  4  2  1  1  0  0  0
  5  4  1  0  0  0  0
  6  4  1  0  0  0  0
  6  9  1  1  0  0  0
  7 11  1  0  0  0  0
  8 14  1  6  0  0  0
  8  5  1  0  0  0  0
  9  7  1  0  0  0  0
 10 28  1  1  0  0  0
 10  6  1  0  0  0  0
 11 12  1  1  0  0  0
 12 13  1  0  0  0  0
 15 14  1  0  0  0  0
 17 18  1  0  0  0  0
 17 16  1  0  0  0  0
 18 19  1  0  0  0  0
 20 19  1  0  0  0  0
 21 20  1  6  0  0  0
 21 22  1  0  0  0  0
 22 23  1  0  0  0  0
 24 21  1  0  0  0  0
 24 27  1  0  0  0  0
 27 25  1  6  0  0  0
 27 26  1  0  0  0  0
 29 30  1  6  0  0  0
 29 33  1  0  0  0  0
 29 28  1  0  0  0  0
 31 29  1  0  0  0  0
 32 31  1  0  0  0  0
 33 34  1  0  0  0  0
 34 35  1  0  0  0  0
 35 37  1  0  0  0  0
 36 37  1  0  0  0  0
M  END
>  <MODEL>
5

>  <REMARK>
 VINA RESULT:      -5.7      2.132      5.305
  Name = 
  18 active torsions:
  status: ('A' for Active; 'I' for Inactive)
    1  A    between atoms: C_1  and  C_5
    2  A    between atoms: C_1  and  C_17
    3  A    between atoms: C_1  and  O_36
    4  A    between atoms: O_2  and  C_6
    5  A    between atoms: O_2  and  C_35
    6  A    between atoms: C_3  and  C_32
    7  A    between atoms: C_6  and  C_8
    8  A    between atoms: C_6  and  C_31
    9  A    between atoms: C_7  and  O_14
   10  A    between atoms: C_7  and  C_27
   11  A    between atoms: C_10  and  O_14
   12  A    between atoms: C_17  and  C_33
   13  A    between atoms: C_22  and  C_24
   14  A    between atoms: C_26  and  C_33
   15  A    between atoms: C_26  and  C_34
   16  A    between atoms: C_27  and  C_37
   17  A    between atoms: C_29  and  O_36
   18  A    between atoms: C_31  and  C_37
                            x       y       z     vdW  Elec       q    Type
                         _______ _______ _______ _____ _____    ______ ____

>  <TORSDO>
F 18

$$$$
=
 OpenBabel11052420063D

 37 38  0  0  1  0  0  0  0  0999 V2000
  191.6610  175.8320  144.7350 O   0  0  0  0  0  0  0  0  0  0  0  0
  189.1690  174.2950  141.2660 C   0  0  0  0  0  2  0  0  0  0  0  0
  191.5670  174.4430  145.0200 C   0  0  2  0  0  3  0  0  0  0  0  0
  190.3680  174.5400  142.1770 C   0  0  1  0  0  3  0  0  0  0  0  0
  190.0540  175.5630  143.0790 O   0  0  0  0  0  0  0  0  0  0  0  0
  190.7490  173.2460  142.9250 C   0  0  1  0  0  3  0  0  0  0  0  0
  189.8600  171.8870  141.0080 C   0  0  0  0  0  2  0  0  0  0  0  0
  191.2890  176.1370  143.4050 C   0  0  1  0  0  3  0  0  0  0  0  0
  191.0630  172.1440  141.9100 C   0  0  0  0  0  2  0  0  0  0  0  0
  191.9410  173.4720  143.8740 C   0  0  2  0  0  3  0  0  0  0  0  0
  189.4700  173.1690  140.2750 C   0  0  1  0  0  3  0  0  0  0  0  0
  188.3000  172.9350  139.3220 C   0  0  0  0  0  2  0  0  0  0  0  0
  188.2790  173.9310  138.1700 C   0  0  0  0  0  1  0  0  0  0  0  0
  191.2100  177.6430  143.2240 C   0  0  0  0  0  2  0  0  0  0  0  0
  189.8040  178.1330  143.5160 C   0  0  0  0  0  1  0  0  0  0  0  0
  190.3290  174.1340  145.5910 O   0  0  0  0  0  0  0  0  0  0  0  0
  190.1680  175.0650  146.6200 C   0  0  0  0  0  2  0  0  0  0  0  0
  188.7000  175.1810  146.9870 C   0  0  0  0  0  2  0  0  0  0  0  0
  188.1400  176.5060  146.5030 C   0  0  0  0  0  2  0  0  0  0  0  0
  186.7390  176.7210  147.0500 C   0  0  0  0  0  2  0  0  0  0  0  0
  185.7950  177.2600  145.9730 C   0  0  1  0  0  3  0  0  0  0  0  0
  184.4550  177.8100  146.4740 C   0  0  0  0  0  2  0  0  0  0  0  0
  184.6230  178.5810  147.6130 F   0  0  0  0  0  0  0  0  0  0  0  0
  186.4450  178.0420  144.9830 O   0  0  0  0  0  0  0  0  0  0  0  0
  186.2900  176.2850  143.3070 C   0  0  0  0  0  1  0  0  0  0  0  0
  184.7370  178.1230  143.3560 F   0  0  0  0  0  0  0  0  0  0  0  0
  186.0350  177.7410  143.6590 C   0  0  1  0  0  3  0  0  0  0  0  0
  192.3450  172.2460  144.4410 O   0  0  0  0  0  0  0  0  0  0  0  0
  193.7500  172.0570  144.3310 C   0  0  1  0  0  0  0  0  0  0  0  0
  194.1300  170.5750  144.2570 C   0  0  0  0  0  1  0  0  0  0  0  0
  194.3670  172.8510  143.1580 C   0  0  0  0  0  2  0  0  0  0  0  0
  194.8950  171.9900  142.0180 C   0  0  0  0  0  1  0  0  0  0  0  0
  194.3910  172.5760  145.6210 C   0  0  0  0  0  2  0  0  0  0  0  0
  195.9140  172.7120  145.5490 C   0  0  0  0  0  2  0  0  0  0  0  0
  196.3740  174.1290  145.8730 C   0  0  0  0  0  2  0  0  0  0  0  0
  195.1530  176.1050  144.9610 C   0  0  0  0  0  1  0  0  0  0  0  0
  195.1920  175.0670  146.0670 C   0  0  0  0  0  2  0  0  0  0  0  0
  1  3  1  0  0  0  0
  3 16  1  6  0  0  0
  4  2  1  6  0  0  0
  4  6  1  0  0  0  0
  4  5  1  0  0  0  0
  5  8  1  0  0  0  0
  6  9  1  6  0  0  0
  6 10  1  0  0  0  0
  7  9  1  0  0  0  0
  8 14  1  1  0  0  0
  8  1  1  0  0  0  0
 10 28  1  1  0  0  0
 10  3  1  0  0  0  0
 11 12  1  1  0  0  0
 11  7  1  0  0  0  0
 11  2  1  0  0  0  0
 13 12  1  0  0  0  0
 14 15  1  0  0  0  0
 16 17  1  0  0  0  0
 17 18  1  0  0  0  0
 19 18  1  0  0  0  0
 19 20  1  0  0  0  0
 21 22  1  1  0  0  0
 21 20  1  0  0  0  0
 22 23  1  0  0  0  0
 24 21  1  0  0  0  0
 26 27  1  0  0  0  0
 27 25  1  1  0  0  0
 27 24  1  0  0  0  0
 29 30  1  6  0  0  0
 29 28  1  0  0  0  0
 29 33  1  0  0  0  0
 31 29  1  0  0  0  0
 32 31  1  0  0  0  0
 34 33  1  0  0  0  0
 34 35  1  0  0  0  0
 35 37  1  0  0  0  0
 36 37  1  0  0  0  0
M  END
>  <MODEL>
6

>  <REMARK>
 VINA RESULT:      -5.7      3.735      8.096
  Name = 
  18 active torsions:
  status: ('A' for Active; 'I' for Inactive)
    1  A    between atoms: C_1  and  C_5
    2  A    between atoms: C_1  and  C_17
    3  A    between atoms: C_1  and  O_36
    4  A    between atoms: O_2  and  C_6
    5  A    between atoms: O_2  and  C_35
    6  A    between atoms: C_3  and  C_32
    7  A    between atoms: C_6  and  C_8
    8  A    between atoms: C_6  and  C_31
    9  A    between atoms: C_7  and  O_14
   10  A    between atoms: C_7  and  C_27
   11  A    between atoms: C_10  and  O_14
   12  A    between atoms: C_17  and  C_33
   13  A    between atoms: C_22  and  C_24
   14  A    between atoms: C_26  and  C_33
   15  A    between atoms: C_26  and  C_34
   16  A    between atoms: C_27  and  C_37
   17  A    between atoms: C_29  and  O_36
   18  A    between atoms: C_31  and  C_37
                            x       y       z     vdW  Elec       q    Type
                         _______ _______ _______ _____ _____    ______ ____

>  <TORSDO>
F 18

$$$$
=
 OpenBabel11052420063D

 37 38  0  0  1  0  0  0  0  0999 V2000
  191.0240  174.5850  141.8960 O   0  0  0  0  0  0  0  0  0  0  0  0
  191.6770  175.5680  146.2800 C   0  0  0  0  0  2  0  0  0  0  0  0
  189.6940  174.7370  142.3750 C   0  0  2  0  0  3  0  0  0  0  0  0
  191.3110  175.7370  144.8080 C   0  0  1  0  0  3  0  0  0  0  0  0
  191.7800  174.6290  144.0920 O   0  0  0  0  0  0  0  0  0  0  0  0
  189.7840  175.8880  144.6470 C   0  0  1  0  0  3  0  0  0  0  0  0
  189.6540  176.9190  146.9340 C   0  0  0  0  0  2  0  0  0  0  0  0
  191.9830  175.1090  142.7930 C   0  0  1  0  0  3  0  0  0  0  0  0
  189.3030  177.0920  145.4600 C   0  0  0  0  0  2  0  0  0  0  0  0
  189.3840  176.0310  143.1670 C   0  0  2  0  0  3  0  0  0  0  0  0
  191.1640  176.7550  147.0980 C   0  0  1  0  0  3  0  0  0  0  0  0
  191.5570  176.6320  148.5690 C   0  0  0  0  0  2  0  0  0  0  0  0
  191.5410  177.9730  149.2900 C   0  0  0  0  0  1  0  0  0  0  0  0
  193.3810  174.7360  142.3290 C   0  0  0  0  0  2  0  0  0  0  0  0
  194.0470  173.8310  143.3480 C   0  0  0  0  0  1  0  0  0  0  0  0
  189.2760  173.5900  143.0560 O   0  0  0  0  0  0  0  0  0  0  0  0
  189.0850  172.6320  142.0570 C   0  0  0  0  0  2  0  0  0  0  0  0
  187.9180  173.0310  141.1730 C   0  0  0  0  0  2  0  0  0  0  0  0
  188.1960  172.6510  139.7300 C   0  0  0  0  0  2  0  0  0  0  0  0
  188.6170  173.8740  138.9320 C   0  0  0  0  0  2  0  0  0  0  0  0
  189.7360  173.5380  137.9440 C   0  0  1  0  0  3  0  0  0  0  0  0
  189.4910  173.9580  136.4910 C   0  0  0  0  0  2  0  0  0  0  0  0
  190.4500  174.8600  136.0600 F   0  0  0  0  0  0  0  0  0  0  0  0
  191.0380  173.8000  138.4450 O   0  0  0  0  0  0  0  0  0  0  0  0
  191.7280  171.8220  139.6820 C   0  0  0  0  0  1  0  0  0  0  0  0
  191.8120  171.9000  137.2780 F   0  0  0  0  0  0  0  0  0  0  0  0
  191.8920  172.6670  138.4310 C   0  0  1  0  0  3  0  0  0  0  0  0
  188.0030  176.2970  143.0640 O   0  0  0  0  0  0  0  0  0  0  0  0
  187.7430  177.3770  142.1750 C   0  0  1  0  0  0  0  0  0  0  0  0
  188.9590  178.2920  142.0060 C   0  0  0  0  0  1  0  0  0  0  0  0
  187.2050  176.9040  140.8060 C   0  0  0  0  0  2  0  0  0  0  0  0
  186.2010  177.8500  140.1600 C   0  0  0  0  0  1  0  0  0  0  0  0
  186.6620  178.2540  142.8130 C   0  0  0  0  0  2  0  0  0  0  0  0
  186.1070  177.7000  144.1280 C   0  0  0  0  0  2  0  0  0  0  0  0
  185.7900  178.8090  145.1240 C   0  0  0  0  0  2  0  0  0  0  0  0
  185.1560  176.8650  146.5550 C   0  0  0  0  0  1  0  0  0  0  0  0
  184.8660  178.3180  146.2290 C   0  0  0  0  0  2  0  0  0  0  0  0
  1  3  1  0  0  0  0
  1  8  1  0  0  0  0
  2 11  1  0  0  0  0
  3 16  1  1  0  0  0
  3 10  1  0  0  0  0
  4  2  1  1  0  0  0
  5  4  1  0  0  0  0
  6  4  1  0  0  0  0
  6  9  1  1  0  0  0
  7 11  1  0  0  0  0
  8 14  1  6  0  0  0
  8  5  1  0  0  0  0
  9  7  1  0  0  0  0
 10 28  1  1  0  0  0
 10  6  1  0  0  0  0
 11 12  1  1  0  0  0
 12 13  1  0  0  0  0
 14 15  1  0  0  0  0
 17 16  1  0  0  0  0
 18 17  1  0  0  0  0
 19 18  1  0  0  0  0
 20 19  1  0  0  0  0
 21 22  1  6  0  0  0
 21 24  1  0  0  0  0
 21 20  1  0  0  0  0
 23 22  1  0  0  0  0
 26 27  1  0  0  0  0
 27 24  1  0  0  0  0
 27 25  1  1  0  0  0
 29 30  1  6  0  0  0
 29 33  1  0  0  0  0
 29 28  1  0  0  0  0
 31 29  1  0  0  0  0
 32 31  1  0  0  0  0
 33 34  1  0  0  0  0
 34 35  1  0  0  0  0
 35 37  1  0  0  0  0
 37 36  1  0  0  0  0
M  END
>  <MODEL>
7

>  <REMARK>
 VINA RESULT:      -5.5      3.175      6.637
  Name = 
  18 active torsions:
  status: ('A' for Active; 'I' for Inactive)
    1  A    between atoms: C_1  and  C_5
    2  A    between atoms: C_1  and  C_17
    3  A    between atoms: C_1  and  O_36
    4  A    between atoms: O_2  and  C_6
    5  A    between atoms: O_2  and  C_35
    6  A    between atoms: C_3  and  C_32
    7  A    between atoms: C_6  and  C_8
    8  A    between atoms: C_6  and  C_31
    9  A    between atoms: C_7  and  O_14
   10  A    between atoms: C_7  and  C_27
   11  A    between atoms: C_10  and  O_14
   12  A    between atoms: C_17  and  C_33
   13  A    between atoms: C_22  and  C_24
   14  A    between atoms: C_26  and  C_33
   15  A    between atoms: C_26  and  C_34
   16  A    between atoms: C_27  and  C_37
   17  A    between atoms: C_29  and  O_36
   18  A    between atoms: C_31  and  C_37
                            x       y       z     vdW  Elec       q    Type
                         _______ _______ _______ _____ _____    ______ ____

>  <TORSDO>
F 18

$$$$
=
 OpenBabel11052420063D

 37 38  0  0  1  0  0  0  0  0999 V2000
  190.4310  175.4580  145.1560 O   0  0  0  0  0  0  0  0  0  0  0  0
  194.6750  175.8590  143.5950 C   0  0  0  0  0  2  0  0  0  0  0  0
  190.2300  175.5680  143.7530 C   0  0  2  0  0  3  0  0  0  0  0  0
  193.3000  175.2640  143.8830 C   0  0  1  0  0  3  0  0  0  0  0  0
  192.6550  176.0510  144.8460 O   0  0  0  0  0  0  0  0  0  0  0  0
  192.4640  175.1880  142.5880 C   0  0  1  0  0  3  0  0  0  0  0  0
  194.5760  174.9440  141.2510 C   0  0  0  0  0  2  0  0  0  0  0  0
  191.7750  175.1710  145.4870 C   0  0  1  0  0  3  0  0  0  0  0  0
  193.2080  174.3430  141.5510 C   0  0  0  0  0  2  0  0  0  0  0  0
  191.0590  174.6180  142.8560 C   0  0  2  0  0  3  0  0  0  0  0  0
  195.4030  175.0340  142.5320 C   0  0  1  0  0  3  0  0  0  0  0  0
  196.8020  175.5830  142.2580 C   0  0  0  0  0  2  0  0  0  0  0  0
  196.9920  175.9940  140.8040 C   0  0  0  0  0  1  0  0  0  0  0  0
  191.9680  175.2710  146.9910 C   0  0  0  0  0  2  0  0  0  0  0  0
  190.9460  176.2210  147.5880 C   0  0  0  0  0  1  0  0  0  0  0  0
  190.3240  176.9000  143.3390 O   0  0  0  0  0  0  0  0  0  0  0  0
  189.3810  177.5820  144.1110 C   0  0  0  0  0  2  0  0  0  0  0  0
  188.0060  177.4530  143.4810 C   0  0  0  0  0  2  0  0  0  0  0  0
  187.0900  176.6420  144.3790 C   0  0  0  0  0  2  0  0  0  0  0  0
  187.2740  177.0490  145.8310 C   0  0  0  0  0  2  0  0  0  0  0  0
  185.9290  177.1860  146.5480 C   0  0  1  0  0  3  0  0  0  0  0  0
  185.9470  177.9860  147.8540 C   0  0  0  0  0  2  0  0  0  0  0  0
  187.1540  178.6440  148.0230 F   0  0  0  0  0  0  0  0  0  0  0  0
  184.8430  177.4630  145.6760 O   0  0  0  0  0  0  0  0  0  0  0  0
  184.8530  179.5140  144.3670 C   0  0  0  0  0  1  0  0  0  0  0  0
  183.1260  179.0540  145.9790 F   0  0  0  0  0  0  0  0  0  0  0  0
  184.4570  178.8280  145.6630 C   0  0  1  0  0  3  0  0  0  0  0  0
  190.3710  174.4390  141.6380 O   0  0  0  0  0  0  0  0  0  0  0  0
  189.6790  173.1970  141.6050 C   0  0  1  0  0  0  0  0  0  0  0  0
  188.2100  173.3440  142.0120 C   0  0  0  0  0  1  0  0  0  0  0  0
  189.8130  172.4780  140.2440 C   0  0  0  0  0  2  0  0  0  0  0  0
  190.4010  173.3340  139.1300 C   0  0  0  0  0  1  0  0  0  0  0  0
  190.3050  172.2890  142.6660 C   0  0  0  0  0  2  0  0  0  0  0  0
  191.1240  171.1310  142.0900 C   0  0  0  0  0  2  0  0  0  0  0  0
  192.2440  170.7020  143.0310 C   0  0  0  0  0  2  0  0  0  0  0  0
  193.7490  171.7930  144.6970 C   0  0  0  0  0  1  0  0  0  0  0  0
  192.3090  171.5950  144.2610 C   0  0  0  0  0  2  0  0  0  0  0  0
  1  8  1  0  0  0  0
  3 16  1  6  0  0  0
  3  1  1  0  0  0  0
  4  2  1  6  0  0  0
  4  5  1  0  0  0  0
  5  8  1  0  0  0  0
  6  9  1  6  0  0  0
  6 10  1  0  0  0  0
  6  4  1  0  0  0  0
  7  9  1  0  0  0  0
  7 11  1  0  0  0  0
  8 14  1  1  0  0  0
 10 28  1  6  0  0  0
 10  3  1  0  0  0  0
 11 12  1  6  0  0  0
 11  2  1  0  0  0  0
 13 12  1  0  0  0  0
 14 15  1  0  0  0  0
 16 17  1  0  0  0  0
 18 17  1  0  0  0  0
 18 19  1  0  0  0  0
 19 20  1  0  0  0  0
 21 20  1  6  0  0  0
 21 22  1  0  0  0  0
 22 23  1  0  0  0  0
 24 21  1  0  0  0  0
 27 25  1  6  0  0  0
 27 24  1  0  0  0  0
 27 26  1  0  0  0  0
 29 28  1  0  0  0  0
 29 30  1  1  0  0  0
 29 33  1  0  0  0  0
 31 29  1  0  0  0  0
 32 31  1  0  0  0  0
 34 33  1  0  0  0  0
 34 35  1  0  0  0  0
 35 37  1  0  0  0  0
 37 36  1  0  0  0  0
M  END
>  <MODEL>
8

>  <REMARK>
 VINA RESULT:      -5.5      3.676      8.835
  Name = 
  18 active torsions:
  status: ('A' for Active; 'I' for Inactive)
    1  A    between atoms: C_1  and  C_5
    2  A    between atoms: C_1  and  C_17
    3  A    between atoms: C_1  and  O_36
    4  A    between atoms: O_2  and  C_6
    5  A    between atoms: O_2  and  C_35
    6  A    between atoms: C_3  and  C_32
    7  A    between atoms: C_6  and  C_8
    8  A    between atoms: C_6  and  C_31
    9  A    between atoms: C_7  and  O_14
   10  A    between atoms: C_7  and  C_27
   11  A    between atoms: C_10  and  O_14
   12  A    between atoms: C_17  and  C_33
   13  A    between atoms: C_22  and  C_24
   14  A    between atoms: C_26  and  C_33
   15  A    between atoms: C_26  and  C_34
   16  A    between atoms: C_27  and  C_37
   17  A    between atoms: C_29  and  O_36
   18  A    between atoms: C_31  and  C_37
                            x       y       z     vdW  Elec       q    Type
                         _______ _______ _______ _____ _____    ______ ____

>  <TORSDO>
F 18

$$$$
=
 OpenBabel11052420063D

 37 38  0  0  1  0  0  0  0  0999 V2000
  189.7690  175.5900  145.3200 O   0  0  0  0  0  0  0  0  0  0  0  0
  194.1610  174.5240  145.7460 C   0  0  0  0  0  2  0  0  0  0  0  0
  190.1500  175.3300  143.9750 C   0  0  2  0  0  3  0  0  0  0  0  0
  192.6640  174.3750  145.4930 C   0  0  1  0  0  3  0  0  0  0  0  0
  192.0100  175.5340  145.9280 O   0  0  0  0  0  0  0  0  0  0  0  0
  192.3940  174.1210  143.9960 C   0  0  1  0  0  3  0  0  0  0  0  0
  194.6400  173.0160  143.7870 C   0  0  0  0  0  2  0  0  0  0  0  0
  190.7160  175.1080  146.2520 C   0  0  1  0  0  3  0  0  0  0  0  0
  193.1410  172.8620  143.5490 C   0  0  0  0  0  2  0  0  0  0  0  0
  190.8860  173.9950  143.7070 C   0  0  2  0  0  3  0  0  0  0  0  0
  194.9110  173.2800  145.2660 C   0  0  1  0  0  3  0  0  0  0  0  0
  196.4090  173.3870  145.5500 C   0  0  0  0  0  2  0  0  0  0  0  0
  197.1200  172.0450  145.4380 C   0  0  0  0  0  1  0  0  0  0  0  0
  190.3590  175.5930  147.6470 C   0  0  0  0  0  2  0  0  0  0  0  0
  191.2160  176.7880  148.0210 C   0  0  0  0  0  1  0  0  0  0  0  0
  190.8290  176.4240  143.4300 O   0  0  0  0  0  0  0  0  0  0  0  0
  189.9520  177.5010  143.5850 C   0  0  0  0  0  2  0  0  0  0  0  0
  188.9190  177.4920  142.4740 C   0  0  0  0  0  2  0  0  0  0  0  0
  187.5190  177.4500  143.0570 C   0  0  0  0  0  2  0  0  0  0  0  0
  187.5260  177.9530  144.4910 C   0  0  0  0  0  2  0  0  0  0  0  0
  186.5910  177.1290  145.3780 C   0  0  1  0  0  3  0  0  0  0  0  0
  186.8410  177.2280  146.8860 C   0  0  0  0  0  2  0  0  0  0  0  0
  185.9600  176.4280  147.5950 F   0  0  0  0  0  0  0  0  0  0  0  0
  185.2300  177.1850  144.9790 O   0  0  0  0  0  0  0  0  0  0  0  0
  184.0160  179.0390  143.9750 C   0  0  0  0  0  1  0  0  0  0  0  0
  183.7010  178.4260  146.2810 F   0  0  0  0  0  0  0  0  0  0  0  0
  184.6120  178.4360  145.2350 C   0  0  1  0  0  3  0  0  0  0  0  0
  190.6810  173.6350  142.3590 O   0  0  0  0  0  0  0  0  0  0  0  0
  189.6750  172.6380  142.2310 C   0  0  1  0  0  0  0  0  0  0  0  0
  189.3950  171.9250  143.5560 C   0  0  0  0  0  1  0  0  0  0  0  0
  188.3730  173.1860  141.6050 C   0  0  0  0  0  2  0  0  0  0  0  0
  188.5760  174.3290  140.6180 C   0  0  0  0  0  1  0  0  0  0  0  0
  190.2120  171.5540  141.2920 C   0  0  0  0  0  2  0  0  0  0  0  0
  191.3270  172.0340  140.3590 C   0  0  0  0  0  2  0  0  0  0  0  0
  191.5660  171.0610  139.2110 C   0  0  0  0  0  2  0  0  0  0  0  0
  190.0170  170.7630  137.2770 C   0  0  0  0  0  1  0  0  0  0  0  0
  191.0960  171.6390  137.8840 C   0  0  0  0  0  2  0  0  0  0  0  0
  1  8  1  0  0  0  0
  3 16  1  1  0  0  0
  3  1  1  0  0  0  0
  4  2  1  6  0  0  0
  4  5  1  0  0  0  0
  5  8  1  0  0  0  0
  6  9  1  1  0  0  0
  6  4  1  0  0  0  0
  7 11  1  0  0  0  0
  8 14  1  1  0  0  0
  9  7  1  0  0  0  0
 10 28  1  6  0  0  0
 10  3  1  0  0  0  0
 10  6  1  0  0  0  0
 11 12  1  6  0  0  0
 11  2  1  0  0  0  0
 13 12  1  0  0  0  0
 14 15  1  0  0  0  0
 16 17  1  0  0  0  0
 18 19  1  0  0  0  0
 18 17  1  0  0  0  0
 19 20  1  0  0  0  0
 21 20  1  6  0  0  0
 21 22  1  0  0  0  0
 22 23  1  0  0  0  0
 24 27  1  0  0  0  0
 24 21  1  0  0  0  0
 27 25  1  6  0  0  0
 27 26  1  0  0  0  0
 29 28  1  0  0  0  0
 29 30  1  1  0  0  0
 31 29  1  0  0  0  0
 32 31  1  0  0  0  0
 33 29  1  0  0  0  0
 34 33  1  0  0  0  0
 35 34  1  0  0  0  0
 36 37  1  0  0  0  0
 37 35  1  0  0  0  0
M  END
>  <MODEL>
9

>  <REMARK>
 VINA RESULT:      -5.5      3.683      9.160
  Name = 
  18 active torsions:
  status: ('A' for Active; 'I' for Inactive)
    1  A    between atoms: C_1  and  C_5
    2  A    between atoms: C_1  and  C_17
    3  A    between atoms: C_1  and  O_36
    4  A    between atoms: O_2  and  C_6
    5  A    between atoms: O_2  and  C_35
    6  A    between atoms: C_3  and  C_32
    7  A    between atoms: C_6  and  C_8
    8  A    between atoms: C_6  and  C_31
    9  A    between atoms: C_7  and  O_14
   10  A    between atoms: C_7  and  C_27
   11  A    between atoms: C_10  and  O_14
   12  A    between atoms: C_17  and  C_33
   13  A    between atoms: C_22  and  C_24
   14  A    between atoms: C_26  and  C_33
   15  A    between atoms: C_26  and  C_34
   16  A    between atoms: C_27  and  C_37
   17  A    between atoms: C_29  and  O_36
   18  A    between atoms: C_31  and  C_37
                            x       y       z     vdW  Elec       q    Type
                         _______ _______ _______ _____ _____    ______ ____

>  <TORSDO>
F 18

$$$$
