=
 OpenBabel11052419113D

 32 37  0  0  1  0  0  0  0  0999 V2000
  189.9940  175.6670  144.5690 C   0  0  2  0  0  3  0  0  0  0  0  0
  187.6040  176.3350  144.4170 C   0  0  0  0  0  0  0  0  0  0  0  0
  190.9090  174.6940  145.3160 C   0  0  0  0  0  2  0  0  0  0  0  0
  188.6010  175.5460  145.1850 C   0  0  2  0  0  3  0  0  0  0  0  0
  186.5230  176.9320  145.0760 C   0  0  0  0  0  0  0  0  0  0  0  0
  185.9290  177.9510  140.1470 C   0  0  0  0  0  2  0  0  0  0  0  0
  187.7100  176.3660  143.0230 C   0  0  0  0  0  0  0  0  0  0  0  0
  184.5900  178.1530  142.1600 O   0  0  0  0  0  0  0  0  0  0  0  0
  185.6000  177.5650  142.9280 C   0  0  0  0  0  0  0  0  0  0  0  0
  188.6150  175.9880  146.6450 C   0  0  1  0  0  3  0  0  0  0  0  0
  185.5180  177.5550  144.3260 C   0  0  0  0  0  3  0  0  0  0  0  0
  187.3040  175.9240  147.1710 O   0  0  0  0  0  0  0  0  0  0  0  0
  189.5490  175.0600  147.4220 C   0  0  0  0  0  2  0  0  0  0  0  0
  188.8770  175.8090  142.3920 N   0  0  0  0  0  0  0  0  0  0  0  0
  189.9360  175.4370  143.0630 C   0  0  0  0  0  0  0  0  0  0  0  0
  186.7070  176.9940  142.2750 C   0  0  0  0  0  0  0  0  0  0  0  0
  186.5010  176.9470  146.5890 C   0  0  1  0  0  3  0  0  0  0  0  0
  190.9540  175.0650  146.8030 C   0  0  0  0  0  2  0  0  0  0  0  0
  184.5230  177.9400  140.7500 C   0  0  0  0  0  2  0  0  0  0  0  0
  186.7860  177.0730  140.8810 O   0  0  0  0  0  0  0  0  0  0  0  0
  192.2470  173.2800  140.9470 C   0  0  0  0  0  0  0  0  0  0  0  0
  192.2550  172.0840  140.3100 F   0  0  0  0  0  0  0  0  0  0  0  0
  191.1080  174.9470  142.3050 C   0  0  0  0  0  0  0  0  0  0  0  0
  193.3850  174.0880  140.9070 C   0  0  0  0  0  3  0  0  0  0  0  0
  192.2640  175.7400  142.2680 C   0  0  0  0  0  3  0  0  0  0  0  0
  191.1120  173.6970  141.6530 C   0  0  0  0  0  0  0  0  0  0  0  0
  190.0080  172.8520  141.7210 O   0  0  0  0  0  1  0  0  0  0  0  0
  193.4000  175.3210  141.5720 C   0  0  0  0  0  0  0  0  0  0  0  0
  195.4860  176.1960  142.5300 C   0  0  0  0  0  2  0  0  0  0  0  0
  194.5830  176.1930  141.5580 C   0  0  0  0  0  3  0  0  0  0  0  0
  186.8560  178.3270  147.1370 C   0  0  0  0  0  2  0  0  0  0  0  0
  185.6080  179.0330  147.6260 C   0  0  0  0  0  1  0  0  0  0  0  0
  1  4  1  0  0  0  0
  1  3  1  1  0  0  0
  2  5  1  0  0  0  0
  3 18  1  0  0  0  0
  4  2  1  6  0  0  0
  4 10  1  0  0  0  0
  5 17  1  0  0  0  0
  6 19  1  0  0  0  0
  6 20  1  0  0  0  0
  7  2  2  0  0  0  0
  8  9  1  0  0  0  0
  9 11  1  0  0  0  0
 10 12  1  0  0  0  0
 10 13  1  1  0  0  0
 11  5  2  0  0  0  0
 14  7  1  0  0  0  0
 14 15  2  0  0  0  0
 15  1  1  0  0  0  0
 16  9  2  0  0  0  0
 16  7  1  0  0  0  0
 17 31  1  1  0  0  0
 17 12  1  0  0  0  0
 18 13  1  0  0  0  0
 19  8  1  0  0  0  0
 20 16  1  0  0  0  0
 21 26  1  0  0  0  0
 22 21  1  0  0  0  0
 23 15  1  0  0  0  0
 24 21  2  0  0  0  0
 24 28  1  0  0  0  0
 25 23  1  0  0  0  0
 26 27  1  0  0  0  0
 26 23  2  0  0  0  0
 28 25  2  0  0  0  0
 30 28  1  0  0  0  0
 30 29  2  0  0  0  0
 31 32  1  0  0  0  0
M  END
>  <MODEL>
1

>  <REMARK>
 VINA RESULT:      -8.1      0.000      0.000
  Name = 
  3 active torsions:
  status: ('A' for Active; 'I' for Inactive)
    1  A    between atoms: C_13  and  C_29
    2  A    between atoms: C_15  and  C_26
    3  A    between atoms: C_16  and  C_27
                            x       y       z     vdW  Elec       q    Type
                         _______ _______ _______ _____ _____    ______ ____

>  <TORSDO>
F 3

$$$$
=
 OpenBabel11052419113D

 32 37  0  0  1  0  0  0  0  0999 V2000
  190.0080  175.6160  144.5740 C   0  0  2  0  0  3  0  0  0  0  0  0
  187.6230  176.3040  144.4100 C   0  0  0  0  0  0  0  0  0  0  0  0
  190.9110  174.6380  145.3290 C   0  0  0  0  0  2  0  0  0  0  0  0
  188.6110  175.5100  145.1850 C   0  0  2  0  0  3  0  0  0  0  0  0
  186.5460  176.9130  145.0620 C   0  0  0  0  0  0  0  0  0  0  0  0
  185.9790  177.9140  140.1260 C   0  0  0  0  0  2  0  0  0  0  0  0
  187.7350  176.3270  143.0160 C   0  0  0  0  0  0  0  0  0  0  0  0
  184.6330  178.1360  142.1330 O   0  0  0  0  0  0  0  0  0  0  0  0
  185.6350  177.5440  142.9080 C   0  0  0  0  0  0  0  0  0  0  0  0
  188.6230  175.9580  146.6430 C   0  0  1  0  0  3  0  0  0  0  0  0
  185.5480  177.5400  144.3050 C   0  0  0  0  0  3  0  0  0  0  0  0
  187.3090  175.9070  147.1640 O   0  0  0  0  0  0  0  0  0  0  0  0
  189.5460  175.0260  147.4280 C   0  0  0  0  0  2  0  0  0  0  0  0
  188.8990  175.7570  142.3920 N   0  0  0  0  0  0  0  0  0  0  0  0
  189.9530  175.3800  143.0690 C   0  0  0  0  0  0  0  0  0  0  0  0
  186.7410  176.9600  142.2620 C   0  0  0  0  0  0  0  0  0  0  0  0
  186.5180  176.9350  146.5750 C   0  0  1  0  0  3  0  0  0  0  0  0
  190.9530  175.0170  146.8150 C   0  0  0  0  0  2  0  0  0  0  0  0
  184.5700  177.9180  140.7240 C   0  0  0  0  0  2  0  0  0  0  0  0
  186.8260  177.0320  140.8680 O   0  0  0  0  0  0  0  0  0  0  0  0
  193.3910  175.1080  141.4620 C   0  0  0  0  0  0  0  0  0  0  0  0
  194.5370  175.8200  141.3360 F   0  0  0  0  0  0  0  0  0  0  0  0
  191.1240  174.8770  142.3180 C   0  0  0  0  0  0  0  0  0  0  0  0
  193.2900  173.8540  140.8550 C   0  0  0  0  0  3  0  0  0  0  0  0
  191.0340  173.6270  141.6890 C   0  0  0  0  0  3  0  0  0  0  0  0
  192.3100  175.6290  142.1830 C   0  0  0  0  0  0  0  0  0  0  0  0
  192.4150  176.9020  142.7370 O   0  0  0  0  0  1  0  0  0  0  0  0
  192.1080  173.1090  140.9620 C   0  0  0  0  0  0  0  0  0  0  0  0
  190.8140  171.1300  140.2980 C   0  0  0  0  0  2  0  0  0  0  0  0
  191.9650  171.7910  140.3300 C   0  0  0  0  0  3  0  0  0  0  0  0
  186.8820  178.3140  147.1180 C   0  0  0  0  0  2  0  0  0  0  0  0
  185.6350  179.0430  147.5770 C   0  0  0  0  0  1  0  0  0  0  0  0
  1  4  1  0  0  0  0
  1  3  1  1  0  0  0
  2  5  1  0  0  0  0
  3 18  1  0  0  0  0
  4  2  1  6  0  0  0
  4 10  1  0  0  0  0
  5 17  1  0  0  0  0
  6 19  1  0  0  0  0
  6 20  1  0  0  0  0
  7  2  2  0  0  0  0
  8  9  1  0  0  0  0
  9 11  1  0  0  0  0
 10 12  1  0  0  0  0
 10 13  1  1  0  0  0
 11  5  2  0  0  0  0
 14  7  1  0  0  0  0
 14 15  2  0  0  0  0
 15  1  1  0  0  0  0
 16  9  2  0  0  0  0
 16  7  1  0  0  0  0
 17 31  1  1  0  0  0
 17 12  1  0  0  0  0
 18 13  1  0  0  0  0
 19  8  1  0  0  0  0
 20 16  1  0  0  0  0
 21 26  1  0  0  0  0
 22 21  1  0  0  0  0
 23 15  1  0  0  0  0
 24 28  1  0  0  0  0
 24 21  2  0  0  0  0
 25 23  1  0  0  0  0
 26 23  2  0  0  0  0
 26 27  1  0  0  0  0
 28 25  2  0  0  0  0
 29 30  2  0  0  0  0
 30 28  1  0  0  0  0
 31 32  1  0  0  0  0
M  END
>  <MODEL>
2

>  <REMARK>
 VINA RESULT:      -8.0      1.293      2.146
  Name = 
  3 active torsions:
  status: ('A' for Active; 'I' for Inactive)
    1  A    between atoms: C_13  and  C_29
    2  A    between atoms: C_15  and  C_26
    3  A    between atoms: C_16  and  C_27
                            x       y       z     vdW  Elec       q    Type
                         _______ _______ _______ _____ _____    ______ ____

>  <TORSDO>
F 3

$$$$
=
 OpenBabel11052419113D

 32 37  0  0  1  0  0  0  0  0999 V2000
  190.6280  175.9040  145.5360 C   0  0  2  0  0  3  0  0  0  0  0  0
  191.5820  175.0610  143.3990 C   0  0  0  0  0  0  0  0  0  0  0  0
  190.9130  176.9210  146.6430 C   0  0  0  0  0  2  0  0  0  0  0  0
  191.8350  175.9010  144.5990 C   0  0  2  0  0  3  0  0  0  0  0  0
  192.6350  174.3660  142.7960 C   0  0  0  0  0  0  0  0  0  0  0  0
  188.5180  173.4470  139.9850 C   0  0  0  0  0  2  0  0  0  0  0  0
  190.3040  175.0790  142.8320 C   0  0  0  0  0  0  0  0  0  0  0  0
  190.9090  173.0870  139.7760 O   0  0  0  0  0  0  0  0  0  0  0  0
  191.1440  173.7270  140.9970 C   0  0  0  0  0  0  0  0  0  0  0  0
  193.0850  175.4190  145.3280 C   0  0  1  0  0  3  0  0  0  0  0  0
  192.4120  173.6910  141.5890 C   0  0  0  0  0  3  0  0  0  0  0  0
  194.1700  175.3690  144.4230 O   0  0  0  0  0  0  0  0  0  0  0  0
  193.3850  176.3930  146.4690 C   0  0  0  0  0  2  0  0  0  0  0  0
  189.2320  175.7400  143.5280 N   0  0  0  0  0  0  0  0  0  0  0  0
  189.3450  176.1710  144.7570 C   0  0  0  0  0  0  0  0  0  0  0  0
  190.0820  174.3990  141.6290 C   0  0  0  0  0  0  0  0  0  0  0  0
  193.9750  174.3060  143.4960 C   0  0  1  0  0  3  0  0  0  0  0  0
  192.1770  176.5110  147.4090 C   0  0  0  0  0  2  0  0  0  0  0  0
  189.7130  173.3340  139.0360 C   0  0  0  0  0  2  0  0  0  0  0  0
  188.8140  174.3660  141.0410 O   0  0  0  0  0  0  0  0  0  0  0  0
  186.5090  176.8890  147.1900 C   0  0  0  0  0  0  0  0  0  0  0  0
  186.0130  176.4360  148.3670 F   0  0  0  0  0  0  0  0  0  0  0  0
  188.1550  176.7700  145.4010 C   0  0  0  0  0  0  0  0  0  0  0  0
  185.8790  177.9510  146.5400 C   0  0  0  0  0  3  0  0  0  0  0  0
  187.5000  177.8270  144.7530 C   0  0  0  0  0  3  0  0  0  0  0  0
  187.6380  176.2860  146.6210 C   0  0  0  0  0  0  0  0  0  0  0  0
  188.2200  175.1960  147.2610 O   0  0  0  0  0  1  0  0  0  0  0  0
  186.3690  178.4230  145.3160 C   0  0  0  0  0  0  0  0  0  0  0  0
  184.5030  179.4490  144.0900 C   0  0  0  0  0  2  0  0  0  0  0  0
  185.7260  179.5340  144.6010 C   0  0  0  0  0  3  0  0  0  0  0  0
  194.2050  172.9420  144.1410 C   0  0  0  0  0  2  0  0  0  0  0  0
  195.6190  172.8480  144.6790 C   0  0  0  0  0  1  0  0  0  0  0  0
  1  3  1  1  0  0  0
  3 18  1  0  0  0  0
  4  2  1  6  0  0  0
  4 10  1  0  0  0  0
  4  1  1  0  0  0  0
  5  2  2  0  0  0  0
  5 17  1  0  0  0  0
  6 20  1  0  0  0  0
  7  2  1  0  0  0  0
  7 14  1  0  0  0  0
  8  9  1  0  0  0  0
  9 11  2  0  0  0  0
  9 16  1  0  0  0  0
 10 13  1  1  0  0  0
 11  5  1  0  0  0  0
 12 10  1  0  0  0  0
 13 18  1  0  0  0  0
 14 15  2  0  0  0  0
 15 23  1  0  0  0  0
 15  1  1  0  0  0  0
 16  7  2  0  0  0  0
 17 31  1  1  0  0  0
 17 12  1  0  0  0  0
 19  8  1  0  0  0  0
 19  6  1  0  0  0  0
 20 16  1  0  0  0  0
 21 22  1  0  0  0  0
 23 26  2  0  0  0  0
 24 21  2  0  0  0  0
 25 28  2  0  0  0  0
 25 23  1  0  0  0  0
 26 21  1  0  0  0  0
 26 27  1  0  0  0  0
 28 24  1  0  0  0  0
 29 30  2  0  0  0  0
 30 28  1  0  0  0  0
 31 32  1  0  0  0  0
M  END
>  <MODEL>
3

>  <REMARK>
 VINA RESULT:      -8.0      2.919      6.988
  Name = 
  3 active torsions:
  status: ('A' for Active; 'I' for Inactive)
    1  A    between atoms: C_13  and  C_29
    2  A    between atoms: C_15  and  C_26
    3  A    between atoms: C_16  and  C_27
                            x       y       z     vdW  Elec       q    Type
                         _______ _______ _______ _____ _____    ______ ____

>  <TORSDO>
F 3

$$$$
=
 OpenBabel11052419113D

 32 37  0  0  1  0  0  0  0  0999 V2000
  191.4750  175.3350  145.1940 C   0  0  2  0  0  3  0  0  0  0  0  0
  189.5690  175.0750  143.6170 C   0  0  0  0  0  0  0  0  0  0  0  0
  191.7990  175.2490  146.6870 C   0  0  0  0  0  2  0  0  0  0  0  0
  189.9620  175.1690  145.0460 C   0  0  2  0  0  3  0  0  0  0  0  0
  188.3380  175.5870  143.1930 C   0  0  0  0  0  0  0  0  0  0  0  0
  190.5070  173.5150  139.1080 C   0  0  0  0  0  2  0  0  0  0  0  0
  190.4010  174.3680  142.7430 C   0  0  0  0  0  0  0  0  0  0  0  0
  188.3160  174.3820  139.6890 O   0  0  0  0  0  0  0  0  0  0  0  0
  188.7310  174.6380  140.9990 C   0  0  0  0  0  0  0  0  0  0  0  0
  189.2230  176.3180  145.7250 C   0  0  1  0  0  3  0  0  0  0  0  0
  187.9190  175.3700  141.8740 C   0  0  0  0  0  3  0  0  0  0  0  0
  187.8320  176.1710  145.5200 O   0  0  0  0  0  0  0  0  0  0  0  0
  189.5500  176.2890  147.2180 C   0  0  0  0  0  2  0  0  0  0  0  0
  191.6920  173.9280  143.1990 N   0  0  0  0  0  0  0  0  0  0  0  0
  192.2120  174.3140  144.3350 C   0  0  0  0  0  0  0  0  0  0  0  0
  189.9830  174.1570  141.4240 C   0  0  0  0  0  0  0  0  0  0  0  0
  187.5170  176.4190  144.1530 C   0  0  1  0  0  3  0  0  0  0  0  0
  191.0670  176.3670  147.4400 C   0  0  0  0  0  2  0  0  0  0  0  0
  188.9970  173.4240  138.8780 C   0  0  0  0  0  2  0  0  0  0  0  0
  190.7940  173.4800  140.5080 O   0  0  0  0  0  0  0  0  0  0  0  0
  195.9840  174.2050  144.8190 C   0  0  0  0  0  0  0  0  0  0  0  0
  197.0740  174.9930  144.6540 F   0  0  0  0  0  0  0  0  0  0  0  0
  193.5800  173.8600  144.6700 C   0  0  0  0  0  0  0  0  0  0  0  0
  196.1410  172.9080  145.3110 C   0  0  0  0  0  3  0  0  0  0  0  0
  193.7560  172.5540  145.1500 C   0  0  0  0  0  3  0  0  0  0  0  0
  194.7110  174.6820  144.4860 C   0  0  0  0  0  0  0  0  0  0  0  0
  194.5840  175.9610  143.9500 O   0  0  0  0  0  1  0  0  0  0  0  0
  195.0270  172.0740  145.4750 C   0  0  0  0  0  0  0  0  0  0  0  0
  196.3230  170.1640  146.3140 C   0  0  0  0  0  2  0  0  0  0  0  0
  195.1560  170.7010  145.9820 C   0  0  0  0  0  3  0  0  0  0  0  0
  187.6010  177.9050  143.8130 C   0  0  0  0  0  2  0  0  0  0  0  0
  186.4030  178.6410  144.3810 C   0  0  0  0  0  1  0  0  0  0  0  0
  1  3  1  1  0  0  0
  3 18  1  0  0  0  0
  4  2  1  6  0  0  0
  4  1  1  0  0  0  0
  4 10  1  0  0  0  0
  5  2  1  0  0  0  0
  5 17  1  0  0  0  0
  6 20  1  0  0  0  0
  7 14  1  0  0  0  0
  7  2  2  0  0  0  0
  8  9  1  0  0  0  0
  9 16  2  0  0  0  0
  9 11  1  0  0  0  0
 10 13  1  1  0  0  0
 11  5  2  0  0  0  0
 12 10  1  0  0  0  0
 13 18  1  0  0  0  0
 14 15  2  0  0  0  0
 15 23  1  0  0  0  0
 15  1  1  0  0  0  0
 16  7  1  0  0  0  0
 17 31  1  6  0  0  0
 17 12  1  0  0  0  0
 19  6  1  0  0  0  0
 19  8  1  0  0  0  0
 20 16  1  0  0  0  0
 21 24  1  0  0  0  0
 22 21  1  0  0  0  0
 23 25  2  0  0  0  0
 24 28  2  0  0  0  0
 25 28  1  0  0  0  0
 26 23  1  0  0  0  0
 26 21  2  0  0  0  0
 27 26  1  0  0  0  0
 28 30  1  0  0  0  0
 30 29  2  0  0  0  0
 31 32  1  0  0  0  0
M  END
>  <MODEL>
4

>  <REMARK>
 VINA RESULT:      -7.9      3.183      4.434
  Name = 
  3 active torsions:
  status: ('A' for Active; 'I' for Inactive)
    1  A    between atoms: C_13  and  C_29
    2  A    between atoms: C_15  and  C_26
    3  A    between atoms: C_16  and  C_27
                            x       y       z     vdW  Elec       q    Type
                         _______ _______ _______ _____ _____    ______ ____

>  <TORSDO>
F 3

$$$$
=
 OpenBabel11052419113D

 32 37  0  0  1  0  0  0  0  0999 V2000
  191.1790  175.7340  145.7750 C   0  0  2  0  0  3  0  0  0  0  0  0
  192.3540  174.5650  143.9200 C   0  0  0  0  0  0  0  0  0  0  0  0
  191.3160  176.9610  146.6790 C   0  0  0  0  0  2  0  0  0  0  0  0
  192.4600  175.6340  144.9470 C   0  0  2  0  0  3  0  0  0  0  0  0
  193.4900  173.8400  143.5430 C   0  0  0  0  0  0  0  0  0  0  0  0
  189.6800  172.1270  140.6720 C   0  0  0  0  0  2  0  0  0  0  0  0
  191.1300  174.3880  143.2680 C   0  0  0  0  0  0  0  0  0  0  0  0
  192.0960  171.8950  140.7140 O   0  0  0  0  0  0  0  0  0  0  0  0
  192.1920  172.7700  141.8000 C   0  0  0  0  0  0  0  0  0  0  0  0
  193.6670  175.3860  145.8470 C   0  0  1  0  0  3  0  0  0  0  0  0
  193.4050  172.9330  142.4790 C   0  0  0  0  0  3  0  0  0  0  0  0
  194.8260  175.2370  145.0510 O   0  0  0  0  0  0  0  0  0  0  0  0
  193.8170  176.5770  146.7930 C   0  0  0  0  0  2  0  0  0  0  0  0
  189.9700  175.0970  143.7400 N   0  0  0  0  0  0  0  0  0  0  0  0
  189.9550  175.7610  144.8660 C   0  0  0  0  0  0  0  0  0  0  0  0
  191.0460  173.4780  142.2090 C   0  0  0  0  0  0  0  0  0  0  0  0
  194.7660  174.0050  144.3380 C   0  0  1  0  0  3  0  0  0  0  0  0
  192.5300  176.7910  147.6010 C   0  0  0  0  0  2  0  0  0  0  0  0
  190.9560  171.9150  139.8540 C   0  0  0  0  0  2  0  0  0  0  0  0
  189.8360  173.2470  141.5460 O   0  0  0  0  0  0  0  0  0  0  0  0
  186.8400  176.6660  146.8540 C   0  0  0  0  0  0  0  0  0  0  0  0
  186.2190  176.3420  148.0140 F   0  0  0  0  0  0  0  0  0  0  0  0
  188.6850  176.3900  145.2910 C   0  0  0  0  0  0  0  0  0  0  0  0
  186.2660  177.6180  146.0090 C   0  0  0  0  0  3  0  0  0  0  0  0
  188.0880  177.3360  144.4470 C   0  0  0  0  0  3  0  0  0  0  0  0
  188.0400  176.0400  146.4960 C   0  0  0  0  0  0  0  0  0  0  0  0
  188.5680  175.0580  147.3290 O   0  0  0  0  0  1  0  0  0  0  0  0
  186.8860  177.9550  144.7980 C   0  0  0  0  0  0  0  0  0  0  0  0
  185.3910  179.8290  144.2630 C   0  0  0  0  0  2  0  0  0  0  0  0
  186.3060  178.9460  143.8810 C   0  0  0  0  0  3  0  0  0  0  0  0
  195.0110  172.8080  145.2530 C   0  0  0  0  0  2  0  0  0  0  0  0
  196.4340  172.8280  145.7730 C   0  0  0  0  0  1  0  0  0  0  0  0
  1  3  1  6  0  0  0
  3 18  1  0  0  0  0
  4  2  1  6  0  0  0
  4  1  1  0  0  0  0
  4 10  1  0  0  0  0
  5  2  1  0  0  0  0
  5 17  1  0  0  0  0
  6 20  1  0  0  0  0
  7 14  1  0  0  0  0
  7  2  2  0  0  0  0
  8  9  1  0  0  0  0
  9 16  2  0  0  0  0
  9 11  1  0  0  0  0
 10 13  1  1  0  0  0
 11  5  2  0  0  0  0
 12 10  1  0  0  0  0
 13 18  1  0  0  0  0
 14 15  2  0  0  0  0
 15 23  1  0  0  0  0
 15  1  1  0  0  0  0
 16  7  1  0  0  0  0
 17 12  1  0  0  0  0
 17 31  1  1  0  0  0
 19  6  1  0  0  0  0
 19  8  1  0  0  0  0
 20 16  1  0  0  0  0
 21 22  1  0  0  0  0
 23 26  2  0  0  0  0
 24 21  2  0  0  0  0
 25 28  2  0  0  0  0
 25 23  1  0  0  0  0
 26 21  1  0  0  0  0
 26 27  1  0  0  0  0
 28 24  1  0  0  0  0
 30 29  2  0  0  0  0
 30 28  1  0  0  0  0
 31 32  1  0  0  0  0
M  END
>  <MODEL>
5

>  <REMARK>
 VINA RESULT:      -7.8      3.048      7.250
  Name = 
  3 active torsions:
  status: ('A' for Active; 'I' for Inactive)
    1  A    between atoms: C_13  and  C_29
    2  A    between atoms: C_15  and  C_26
    3  A    between atoms: C_16  and  C_27
                            x       y       z     vdW  Elec       q    Type
                         _______ _______ _______ _____ _____    ______ ____

>  <TORSDO>
F 3

$$$$
=
 OpenBabel11052419113D

 32 37  0  0  1  0  0  0  0  0999 V2000
  188.7800  176.1960  144.3790 C   0  0  2  0  0  3  0  0  0  0  0  0
  190.2460  174.9070  142.8370 C   0  0  0  0  0  0  0  0  0  0  0  0
  188.8110  177.4180  145.2990 C   0  0  0  0  0  2  0  0  0  0  0  0
  190.2040  175.9750  143.8680 C   0  0  2  0  0  3  0  0  0  0  0  0
  191.3700  174.0820  142.7270 C   0  0  0  0  0  0  0  0  0  0  0  0
  188.1920  172.6660  139.0410 C   0  0  0  0  0  2  0  0  0  0  0  0
  189.1940  174.8270  141.9180 C   0  0  0  0  0  0  0  0  0  0  0  0
  190.5030  172.2270  139.6380 O   0  0  0  0  0  0  0  0  0  0  0  0
  190.4220  173.1050  140.7230 C   0  0  0  0  0  0  0  0  0  0  0  0
  191.1450  175.6360  145.0200 C   0  0  1  0  0  3  0  0  0  0  0  0
  191.4560  173.1720  141.6650 C   0  0  0  0  0  3  0  0  0  0  0  0
  192.4390  175.3780  144.5120 O   0  0  0  0  0  0  0  0  0  0  0  0
  191.1760  176.8220  145.9840 C   0  0  0  0  0  2  0  0  0  0  0  0
  188.0230  175.6390  142.1150 N   0  0  0  0  0  0  0  0  0  0  0  0
  187.8060  176.3160  143.2120 C   0  0  0  0  0  0  0  0  0  0  0  0
  189.2780  173.9140  140.8610 C   0  0  0  0  0  0  0  0  0  0  0  0
  192.4390  174.1470  143.7960 C   0  0  1  0  0  3  0  0  0  0  0  0
  189.7600  177.1560  146.4750 C   0  0  0  0  0  2  0  0  0  0  0  0
  189.5990  172.3350  138.5380 C   0  0  0  0  0  2  0  0  0  0  0  0
  188.2390  173.7800  139.9360 O   0  0  0  0  0  0  0  0  0  0  0  0
  184.6180  178.2210  142.3840 C   0  0  0  0  0  0  0  0  0  0  0  0
  183.9260  178.6660  141.3070 F   0  0  0  0  0  0  0  0  0  0  0  0
  186.5310  177.0570  143.3370 C   0  0  0  0  0  0  0  0  0  0  0  0
  184.1320  178.4740  143.6670 C   0  0  0  0  0  3  0  0  0  0  0  0
  186.0370  177.3330  144.6200 C   0  0  0  0  0  3  0  0  0  0  0  0
  185.8220  177.5260  142.2120 C   0  0  0  0  0  0  0  0  0  0  0  0
  186.3140  177.3290  140.9250 O   0  0  0  0  0  1  0  0  0  0  0  0
  184.8410  178.0340  144.7930 C   0  0  0  0  0  0  0  0  0  0  0  0
  185.1690  178.6570  147.1470 C   0  0  0  0  0  2  0  0  0  0  0  0
  184.3620  178.2900  146.1580 C   0  0  0  0  0  3  0  0  0  0  0  0
  192.3610  172.9450  144.7330 C   0  0  0  0  0  2  0  0  0  0  0  0
  193.7170  172.6780  145.3560 C   0  0  0  0  0  1  0  0  0  0  0  0
  1  3  1  6  0  0  0
  3 18  1  0  0  0  0
  4  2  1  6  0  0  0
  4  1  1  0  0  0  0
  4 10  1  0  0  0  0
  5  2  1  0  0  0  0
  5 17  1  0  0  0  0
  6 20  1  0  0  0  0
  7 14  1  0  0  0  0
  7  2  2  0  0  0  0
  8  9  1  0  0  0  0
  9 16  2  0  0  0  0
  9 11  1  0  0  0  0
 10 13  1  1  0  0  0
 11  5  2  0  0  0  0
 12 10  1  0  0  0  0
 13 18  1  0  0  0  0
 14 15  2  0  0  0  0
 15 23  1  0  0  0  0
 15  1  1  0  0  0  0
 16  7  1  0  0  0  0
 17 12  1  0  0  0  0
 17 31  1  1  0  0  0
 19  6  1  0  0  0  0
 19  8  1  0  0  0  0
 20 16  1  0  0  0  0
 21 24  1  0  0  0  0
 22 21  1  0  0  0  0
 23 25  2  0  0  0  0
 24 28  2  0  0  0  0
 25 28  1  0  0  0  0
 26 21  2  0  0  0  0
 26 23  1  0  0  0  0
 27 26  1  0  0  0  0
 28 30  1  0  0  0  0
 30 29  2  0  0  0  0
 31 32  1  0  0  0  0
M  END
>  <MODEL>
6

>  <REMARK>
 VINA RESULT:      -7.8      2.738      6.831
  Name = 
  3 active torsions:
  status: ('A' for Active; 'I' for Inactive)
    1  A    between atoms: C_13  and  C_29
    2  A    between atoms: C_15  and  C_26
    3  A    between atoms: C_16  and  C_27
                            x       y       z     vdW  Elec       q    Type
                         _______ _______ _______ _____ _____    ______ ____

>  <TORSDO>
F 3

$$$$
=
 OpenBabel11052419113D

 32 37  0  0  1  0  0  0  0  0999 V2000
  189.9980  175.7210  144.8300 C   0  0  2  0  0  3  0  0  0  0  0  0
  191.1090  174.3510  143.0760 C   0  0  0  0  0  0  0  0  0  0  0  0
  190.2880  176.8700  145.7990 C   0  0  0  0  0  2  0  0  0  0  0  0
  191.3190  175.3510  144.1560 C   0  0  2  0  0  3  0  0  0  0  0  0
  192.0950  173.3960  142.8040 C   0  0  0  0  0  0  0  0  0  0  0  0
  188.3920  172.6330  139.4280 C   0  0  0  0  0  2  0  0  0  0  0  0
  189.9680  174.4650  142.2770 C   0  0  0  0  0  0  0  0  0  0  0  0
  190.6720  171.8640  139.7440 O   0  0  0  0  0  0  0  0  0  0  0  0
  190.8220  172.6760  140.8720 C   0  0  0  0  0  0  0  0  0  0  0  0
  192.3190  174.8220  145.1790 C   0  0  1  0  0  3  0  0  0  0  0  0
  191.9470  172.5510  141.6970 C   0  0  0  0  0  3  0  0  0  0  0  0
  193.5070  174.4310  144.5200 O   0  0  0  0  0  0  0  0  0  0  0  0
  192.6090  175.9320  146.1900 C   0  0  0  0  0  2  0  0  0  0  0  0
  188.9430  175.4070  142.6400 N   0  0  0  0  0  0  0  0  0  0  0  0
  188.9340  176.0380  143.7860 C   0  0  0  0  0  0  0  0  0  0  0  0
  189.8190  173.6150  141.1750 C   0  0  0  0  0  0  0  0  0  0  0  0
  193.2670  173.2570  143.7500 C   0  0  1  0  0  3  0  0  0  0  0  0
  191.3090  176.4150  146.8490 C   0  0  0  0  0  2  0  0  0  0  0  0
  189.6820  172.1550  138.7580 C   0  0  0  0  0  2  0  0  0  0  0  0
  188.6800  173.6740  140.3640 O   0  0  0  0  0  0  0  0  0  0  0  0
  186.3200  178.7930  143.5530 C   0  0  0  0  0  0  0  0  0  0  0  0
  185.9440  179.7990  142.7270 F   0  0  0  0  0  0  0  0  0  0  0  0
  187.7910  176.9280  144.0850 C   0  0  0  0  0  0  0  0  0  0  0  0
  185.6220  178.5830  144.7440 C   0  0  0  0  0  3  0  0  0  0  0  0
  187.0890  176.7400  145.2840 C   0  0  0  0  0  3  0  0  0  0  0  0
  187.4120  177.9790  143.2250 C   0  0  0  0  0  0  0  0  0  0  0  0
  188.1240  178.2390  142.0580 O   0  0  0  0  0  1  0  0  0  0  0  0
  186.0060  177.5570  145.6180 C   0  0  0  0  0  0  0  0  0  0  0  0
  184.8150  178.2920  147.6370 C   0  0  0  0  0  2  0  0  0  0  0  0
  185.2980  177.3120  146.8820 C   0  0  0  0  0  3  0  0  0  0  0  0
  193.1250  172.0190  144.6320 C   0  0  0  0  0  2  0  0  0  0  0  0
  194.4130  171.7660  145.3900 C   0  0  0  0  0  1  0  0  0  0  0  0
  1  3  1  1  0  0  0
  3 18  1  0  0  0  0
  4  2  1  6  0  0  0
  4  1  1  0  0  0  0
  4 10  1  0  0  0  0
  5  2  1  0  0  0  0
  5 17  1  0  0  0  0
  6 20  1  0  0  0  0
  7 14  1  0  0  0  0
  7  2  2  0  0  0  0
  8  9  1  0  0  0  0
  9 16  2  0  0  0  0
  9 11  1  0  0  0  0
 10 13  1  1  0  0  0
 11  5  2  0  0  0  0
 12 10  1  0  0  0  0
 13 18  1  0  0  0  0
 14 15  2  0  0  0  0
 15 23  1  0  0  0  0
 15  1  1  0  0  0  0
 16  7  1  0  0  0  0
 17 12  1  0  0  0  0
 17 31  1  1  0  0  0
 19  6  1  0  0  0  0
 19  8  1  0  0  0  0
 20 16  1  0  0  0  0
 21 24  1  0  0  0  0
 22 21  1  0  0  0  0
 23 25  2  0  0  0  0
 24 28  2  0  0  0  0
 25 28  1  0  0  0  0
 26 21  2  0  0  0  0
 26 23  1  0  0  0  0
 27 26  1  0  0  0  0
 28 30  1  0  0  0  0
 30 29  2  0  0  0  0
 31 32  1  0  0  0  0
M  END
>  <MODEL>
7

>  <REMARK>
 VINA RESULT:      -7.8      2.874      6.931
  Name = 
  3 active torsions:
  status: ('A' for Active; 'I' for Inactive)
    1  A    between atoms: C_13  and  C_29
    2  A    between atoms: C_15  and  C_26
    3  A    between atoms: C_16  and  C_27
                            x       y       z     vdW  Elec       q    Type
                         _______ _______ _______ _____ _____    ______ ____

>  <TORSDO>
F 3

$$$$
=
 OpenBabel11052419113D

 32 37  0  0  1  0  0  0  0  0999 V2000
  192.1260  175.5770  145.2710 C   0  0  2  0  0  3  0  0  0  0  0  0
  190.0110  175.1510  144.0340 C   0  0  0  0  0  0  0  0  0  0  0  0
  192.6910  175.5690  146.6930 C   0  0  0  0  0  2  0  0  0  0  0  0
  190.6220  175.3230  145.3770 C   0  0  2  0  0  3  0  0  0  0  0  0
  188.6990  175.5780  143.8010 C   0  0  0  0  0  0  0  0  0  0  0  0
  190.3020  173.4620  139.4830 C   0  0  0  0  0  2  0  0  0  0  0  0
  190.7310  174.4540  143.0590 C   0  0  0  0  0  0  0  0  0  0  0  0
  188.1850  174.2330  140.3860 O   0  0  0  0  0  0  0  0  0  0  0  0
  188.7900  174.5630  141.6030 C   0  0  0  0  0  0  0  0  0  0  0  0
  189.9350  176.4580  146.1300 C   0  0  1  0  0  3  0  0  0  0  0  0
  188.0870  175.2860  142.5750 C   0  0  0  0  0  3  0  0  0  0  0  0
  188.5400  176.2280  146.1590 O   0  0  0  0  0  0  0  0  0  0  0  0
  190.4990  176.5070  147.5500 C   0  0  0  0  0  2  0  0  0  0  0  0
  192.1030  174.1030  143.3120 N   0  0  0  0  0  0  0  0  0  0  0  0
  192.7750  174.5630  144.3360 C   0  0  0  0  0  0  0  0  0  0  0  0
  190.1200  174.1680  141.8320 C   0  0  0  0  0  0  0  0  0  0  0  0
  187.9950  176.4040  144.8550 C   0  0  1  0  0  3  0  0  0  0  0  0
  192.0240  176.6760  147.5200 C   0  0  0  0  0  2  0  0  0  0  0  0
  188.7830  173.2810  139.5050 C   0  0  0  0  0  2  0  0  0  0  0  0
  190.8120  173.4990  140.8180 O   0  0  0  0  0  0  0  0  0  0  0  0
  195.9900  172.7340  145.2280 C   0  0  0  0  0  0  0  0  0  0  0  0
  196.4030  171.6190  145.8760 F   0  0  0  0  0  0  0  0  0  0  0  0
  194.2030  174.1960  144.4570 C   0  0  0  0  0  0  0  0  0  0  0  0
  196.9360  173.5890  144.6570 C   0  0  0  0  0  3  0  0  0  0  0  0
  195.1670  175.0520  143.9030 C   0  0  0  0  0  3  0  0  0  0  0  0
  194.6260  173.0380  145.1420 C   0  0  0  0  0  0  0  0  0  0  0  0
  193.7040  172.1990  145.7620 O   0  0  0  0  0  1  0  0  0  0  0  0
  196.5280  174.7550  143.9950 C   0  0  0  0  0  0  0  0  0  0  0  0
  197.2140  176.9520  143.1380 C   0  0  0  0  0  2  0  0  0  0  0  0
  197.4970  175.6800  143.3910 C   0  0  0  0  0  3  0  0  0  0  0  0
  187.9340  177.8770  144.4600 C   0  0  0  0  0  2  0  0  0  0  0  0
  186.5150  178.3950  144.5830 C   0  0  0  0  0  1  0  0  0  0  0  0
  1  4  1  0  0  0  0
  1  3  1  1  0  0  0
  3 18  1  0  0  0  0
  4  2  1  6  0  0  0
  4 10  1  0  0  0  0
  5  2  1  0  0  0  0
  5 17  1  0  0  0  0
  6 19  1  0  0  0  0
  6 20  1  0  0  0  0
  7 14  1  0  0  0  0
  7  2  2  0  0  0  0
  8  9  1  0  0  0  0
  9 16  2  0  0  0  0
  9 11  1  0  0  0  0
 10 12  1  0  0  0  0
 10 13  1  1  0  0  0
 11  5  2  0  0  0  0
 14 15  2  0  0  0  0
 15 23  1  0  0  0  0
 15  1  1  0  0  0  0
 16  7  1  0  0  0  0
 17 31  1  6  0  0  0
 17 12  1  0  0  0  0
 18 13  1  0  0  0  0
 19  8  1  0  0  0  0
 20 16  1  0  0  0  0
 21 22  1  0  0  0  0
 23 26  2  0  0  0  0
 24 21  2  0  0  0  0
 25 28  2  0  0  0  0
 25 23  1  0  0  0  0
 26 21  1  0  0  0  0
 26 27  1  0  0  0  0
 28 24  1  0  0  0  0
 29 30  2  0  0  0  0
 30 28  1  0  0  0  0
 31 32  1  0  0  0  0
M  END
>  <MODEL>
8

>  <REMARK>
 VINA RESULT:      -7.6      2.723      4.045
  Name = 
  3 active torsions:
  status: ('A' for Active; 'I' for Inactive)
    1  A    between atoms: C_13  and  C_29
    2  A    between atoms: C_15  and  C_26
    3  A    between atoms: C_16  and  C_27
                            x       y       z     vdW  Elec       q    Type
                         _______ _______ _______ _____ _____    ______ ____

>  <TORSDO>
F 3

$$$$
=
 OpenBabel11052419113D

 32 37  0  0  1  0  0  0  0  0999 V2000
  189.4820  175.1830  141.9100 C   0  0  2  0  0  3  0  0  0  0  0  0
  191.6660  174.2910  142.6990 C   0  0  0  0  0  0  0  0  0  0  0  0
  188.1420  174.7090  141.3440 C   0  0  0  0  0  2  0  0  0  0  0  0
  190.3940  173.9600  142.0060 C   0  0  2  0  0  3  0  0  0  0  0  0
  192.8520  173.6430  142.3360 C   0  0  0  0  0  0  0  0  0  0  0  0
  194.0290  176.7290  146.1800 C   0  0  0  0  0  2  0  0  0  0  0  0
  191.6230  175.1710  143.7850 C   0  0  0  0  0  0  0  0  0  0  0  0
  195.1150  174.9230  144.9760 O   0  0  0  0  0  0  0  0  0  0  0  0
  193.9740  174.7170  144.1940 C   0  0  0  0  0  0  0  0  0  0  0  0
  190.6790  173.3890  140.6210 C   0  0  1  0  0  3  0  0  0  0  0  0
  194.0130  173.8610  143.0870 C   0  0  0  0  0  3  0  0  0  0  0  0
  191.5720  172.2980  140.7350 O   0  0  0  0  0  0  0  0  0  0  0  0
  189.3560  172.9340  140.0040 C   0  0  0  0  0  2  0  0  0  0  0  0
  190.4030  175.8760  144.0740 N   0  0  0  0  0  0  0  0  0  0  0  0
  189.3780  175.8800  143.2620 C   0  0  0  0  0  0  0  0  0  0  0  0
  192.7870  175.3930  144.5300 C   0  0  0  0  0  0  0  0  0  0  0  0
  192.8650  172.7700  141.1000 C   0  0  1  0  0  3  0  0  0  0  0  0
  188.3560  174.0980  139.9540 C   0  0  0  0  0  2  0  0  0  0  0  0
  195.0270  175.5700  146.2460 C   0  0  0  0  0  2  0  0  0  0  0  0
  192.7970  176.2850  145.6070 O   0  0  0  0  0  0  0  0  0  0  0  0
  186.6800  178.5630  143.2480 C   0  0  0  0  0  0  0  0  0  0  0  0
  186.2850  179.6330  142.5160 F   0  0  0  0  0  0  0  0  0  0  0  0
  188.2010  176.7010  143.6250 C   0  0  0  0  0  0  0  0  0  0  0  0
  185.9690  178.2160  144.3980 C   0  0  0  0  0  3  0  0  0  0  0  0
  187.4860  176.3760  144.7860 C   0  0  0  0  0  3  0  0  0  0  0  0
  187.8030  177.8190  142.8630 C   0  0  0  0  0  0  0  0  0  0  0  0
  188.5260  178.2140  141.7410 O   0  0  0  0  0  1  0  0  0  0  0  0
  186.3720  177.1220  145.1760 C   0  0  0  0  0  0  0  0  0  0  0  0
  186.0450  177.0990  147.6100 C   0  0  0  0  0  2  0  0  0  0  0  0
  185.6520  176.7330  146.3960 C   0  0  0  0  0  3  0  0  0  0  0  0
  193.5650  173.4650  139.9350 C   0  0  0  0  0  2  0  0  0  0  0  0
  193.8730  172.4660  138.8380 C   0  0  0  0  0  1  0  0  0  0  0  0
  1  3  1  1  0  0  0
  1  4  1  0  0  0  0
  1 15  1  0  0  0  0
  2  7  1  0  0  0  0
  4  2  1  6  0  0  0
  5  2  2  0  0  0  0
  5 11  1  0  0  0  0
  6 19  1  0  0  0  0
  7 14  1  0  0  0  0
  7 16  2  0  0  0  0
  8 19  1  0  0  0  0
  9 16  1  0  0  0  0
  9  8  1  0  0  0  0
 10 13  1  1  0  0  0
 10 12  1  0  0  0  0
 10  4  1  0  0  0  0
 11  9  2  0  0  0  0
 12 17  1  0  0  0  0
 15 23  1  0  0  0  0
 15 14  2  0  0  0  0
 16 20  1  0  0  0  0
 17 31  1  6  0  0  0
 17  5  1  0  0  0  0
 18 13  1  0  0  0  0
 18  3  1  0  0  0  0
 20  6  1  0  0  0  0
 21 24  1  0  0  0  0
 22 21  1  0  0  0  0
 23 25  2  0  0  0  0
 24 28  2  0  0  0  0
 25 28  1  0  0  0  0
 26 21  2  0  0  0  0
 26 23  1  0  0  0  0
 27 26  1  0  0  0  0
 28 30  1  0  0  0  0
 30 29  2  0  0  0  0
 32 31  1  0  0  0  0
M  END
>  <MODEL>
9

>  <REMARK>
 VINA RESULT:      -7.3      2.952      8.037
  Name = 
  3 active torsions:
  status: ('A' for Active; 'I' for Inactive)
    1  A    between atoms: C_13  and  C_29
    2  A    between atoms: C_15  and  C_26
    3  A    between atoms: C_16  and  C_27
                            x       y       z     vdW  Elec       q    Type
                         _______ _______ _______ _____ _____    ______ ____

>  <TORSDO>
F 3

$$$$
