=
 OpenBabel11052417143D

 30 32  0  0  1  0  0  0  0  0999 V2000
  188.0250  177.5320  142.8740 C   0  0  2  0  0  3  0  0  0  0  0  0
  186.7040  178.3080  142.9490 C   0  0  2  0  0  3  0  0  0  0  0  0
  187.2800  177.7030  146.5510 C   0  0  0  0  0  3  0  0  0  0  0  0
  187.3630  177.7350  145.1560 C   0  0  0  0  0  0  0  0  0  0  0  0
  185.4250  179.1650  145.0150 C   0  0  0  0  0  3  0  0  0  0  0  0
  186.4450  178.4290  144.4060 C   0  0  0  0  0  0  0  0  0  0  0  0
  188.3460  177.0240  144.3040 C   0  0  2  0  0  3  0  0  0  0  0  0
  185.3340  179.1600  146.4150 C   0  0  0  0  0  3  0  0  0  0  0  0
  186.2570  178.4270  147.1800 C   0  0  0  0  0  3  0  0  0  0  0  0
  189.0190  178.3850  142.3840 O   0  0  0  0  0  1  0  0  0  0  0  0
  185.6130  177.5020  142.2540 C   0  0  0  0  0  2  0  0  0  0  0  0
  184.1240  178.3270  140.3940 C   0  0  0  0  0  3  0  0  0  0  0  0
  185.3360  178.0290  140.8800 C   0  0  0  0  0  3  0  0  0  0  0  0
  182.8920  178.2350  141.1280 N   0  0  0  0  0  0  0  0  0  0  0  0
  182.7760  178.6410  142.5210 C   0  0  0  0  0  1  0  0  0  0  0  0
  181.6600  177.9880  140.3950 C   0  0  0  0  0  2  0  0  0  0  0  0
  180.4390  178.2750  141.2620 C   0  0  0  0  0  2  0  0  0  0  0  0
  179.2440  178.6090  140.4330 C   0  0  0  0  0  0  0  0  0  0  0  0
  178.5030  177.4260  139.5720 S   0  0  0  0  0  0  0  0  0  0  0  0
  178.7820  179.9630  140.3950 N   0  0  0  0  0  2  0  0  0  0  0  0
  179.6480  181.0960  140.1110 C   0  0  0  0  0  1  0  0  0  0  0  0
  189.7790  177.2970  144.7590 C   0  0  0  0  0  2  0  0  0  0  0  0
  190.4110  176.0400  145.3380 C   0  0  1  0  0  3  0  0  0  0  0  0
  190.5150  176.1210  146.8350 C   0  0  1  0  0  3  0  0  0  0  0  0
  189.7280  174.9200  147.3180 C   0  0  0  0  0  2  0  0  0  0  0  0
  189.4980  174.8620  145.1040 C   0  0  0  0  0  2  0  0  0  0  0  0
  189.5370  174.0430  146.2410 O   0  0  0  0  0  0  0  0  0  0  0  0
  191.9750  175.9950  147.2440 C   0  0  0  0  0  2  0  0  0  0  0  0
  192.8740  175.8080  146.0310 C   0  0  0  0  0  2  0  0  0  0  0  0
  194.3330  175.8510  146.4420 C   0  0  0  0  0  1  0  0  0  0  0  0
  1 10  1  1  0  0  0
  1  2  1  0  0  0  0
  1  7  1  0  0  0  0
  2 11  1  6  0  0  0
  2  6  1  0  0  0  0
  3  9  1  0  0  0  0
  4  3  2  0  0  0  0
  5  8  1  0  0  0  0
  6  5  2  0  0  0  0
  6  4  1  0  0  0  0
  7 22  1  1  0  0  0
  7  4  1  0  0  0  0
  8  9  2  0  0  0  0
 12 13  2  0  0  0  0
 12 14  1  0  0  0  0
 13 11  1  0  0  0  0
 14 15  1  0  0  0  0
 16 14  1  0  0  0  0
 16 17  1  0  0  0  0
 18 17  1  0  0  0  0
 19 18  2  0  0  0  0
 20 18  1  0  0  0  0
 21 20  1  0  0  0  0
 23 22  1  1  0  0  0
 23 24  1  0  0  0  0
 24 28  1  6  0  0  0
 24 25  1  0  0  0  0
 26 23  1  0  0  0  0
 26 27  1  0  0  0  0
 27 25  1  0  0  0  0
 29 30  1  0  0  0  0
 29 28  1  0  0  0  0
M  END
>  <MODEL>
1

>  <REMARK>
 VINA RESULT:      -7.2      0.000      0.000
  Name = 
  11 active torsions:
  status: ('A' for Active; 'I' for Inactive)
    1  A    between atoms: C_1  and  C_5
    2  A    between atoms: C_1  and  C_22
    3  A    between atoms: C_2  and  N_18
    4  A    between atoms: N_3  and  C_28
    5  A    between atoms: C_7  and  C_30
    6  A    between atoms: C_10  and  C_25
    7  A    between atoms: C_11  and  C_25
    8  A    between atoms: C_13  and  C_30
    9  A    between atoms: C_14  and  N_18
   10  A    between atoms: C_14  and  C_20
   11  A    between atoms: C_20  and  C_28
                            x       y       z     vdW  Elec       q    Type
                         _______ _______ _______ _____ _____    ______ ____

>  <TORSDO>
F 11

$$$$
=
 OpenBabel11052417143D

 30 32  0  0  1  0  0  0  0  0999 V2000
  188.9670  174.8130  146.2590 C   0  0  2  0  0  3  0  0  0  0  0  0
  190.2840  174.4420  145.5660 C   0  0  2  0  0  3  0  0  0  0  0  0
  189.8280  177.8660  144.2480 C   0  0  0  0  0  3  0  0  0  0  0  0
  189.6820  176.6390  144.9020 C   0  0  0  0  0  0  0  0  0  0  0  0
  191.8440  175.9010  144.1260 C   0  0  0  0  0  3  0  0  0  0  0  0
  190.6540  175.6720  144.8220 C   0  0  0  0  0  0  0  0  0  0  0  0
  188.5080  176.1780  145.6810 C   0  0  2  0  0  3  0  0  0  0  0  0
  192.0190  177.1330  143.4780 C   0  0  0  0  0  3  0  0  0  0  0  0
  191.0110  178.1110  143.5360 C   0  0  0  0  0  3  0  0  0  0  0  0
  189.1870  174.8740  147.6390 O   0  0  0  0  0  1  0  0  0  0  0  0
  190.0350  173.2720  144.6200 C   0  0  0  0  0  2  0  0  0  0  0  0
  191.8450  172.1350  143.2830 C   0  0  0  0  0  3  0  0  0  0  0  0
  191.2650  172.4350  144.4520 C   0  0  0  0  0  3  0  0  0  0  0  0
  191.4100  172.6070  141.9980 N   0  0  0  0  0  0  0  0  0  0  0  0
  192.1110  173.6520  141.2670 C   0  0  0  0  0  1  0  0  0  0  0  0
  190.4040  171.8420  141.2770 C   0  0  0  0  0  2  0  0  0  0  0  0
  189.0340  172.5050  141.3760 C   0  0  0  0  0  2  0  0  0  0  0  0
  188.7410  173.3420  140.1770 C   0  0  0  0  0  0  0  0  0  0  0  0
  188.8920  172.6890  138.6800 S   0  0  0  0  0  0  0  0  0  0  0  0
  188.3520  174.7070  140.3610 N   0  0  0  0  0  2  0  0  0  0  0  0
  188.6100  175.4550  141.5810 C   0  0  0  0  0  1  0  0  0  0  0  0
  188.1040  177.2030  146.7400 C   0  0  0  0  0  2  0  0  0  0  0  0
  186.8510  177.9530  146.3160 C   0  0  1  0  0  3  0  0  0  0  0  0
  185.8160  177.0170  145.7590 C   0  0  1  0  0  3  0  0  0  0  0  0
  184.6130  177.2330  146.6530 C   0  0  0  0  0  2  0  0  0  0  0  0
  186.1820  178.5480  147.5300 C   0  0  0  0  0  2  0  0  0  0  0  0
  184.7950  178.4230  147.3730 O   0  0  0  0  0  0  0  0  0  0  0  0
  185.4920  177.4200  144.3280 C   0  0  0  0  0  2  0  0  0  0  0  0
  186.1590  178.7370  143.9610 C   0  0  0  0  0  2  0  0  0  0  0  0
  186.6510  178.6980  142.5270 C   0  0  0  0  0  1  0  0  0  0  0  0
  1 10  1  1  0  0  0
  2 11  1  6  0  0  0
  2  1  1  0  0  0  0
  3  4  1  0  0  0  0
  4  7  1  0  0  0  0
  5  6  1  0  0  0  0
  6  4  2  0  0  0  0
  6  2  1  0  0  0  0
  7  1  1  0  0  0  0
  7 22  1  1  0  0  0
  8  9  1  0  0  0  0
  8  5  2  0  0  0  0
  9  3  2  0  0  0  0
 12 13  2  0  0  0  0
 13 11  1  0  0  0  0
 14 12  1  0  0  0  0
 15 14  1  0  0  0  0
 16 17  1  0  0  0  0
 16 14  1  0  0  0  0
 18 20  1  0  0  0  0
 18 17  1  0  0  0  0
 19 18  2  0  0  0  0
 20 21  1  0  0  0  0
 23 22  1  1  0  0  0
 23 26  1  0  0  0  0
 24 28  1  6  0  0  0
 24 23  1  0  0  0  0
 24 25  1  0  0  0  0
 25 27  1  0  0  0  0
 27 26  1  0  0  0  0
 29 28  1  0  0  0  0
 30 29  1  0  0  0  0
M  END
>  <MODEL>
2

>  <REMARK>
 VINA RESULT:      -7.1      4.446      7.715
  Name = 
  11 active torsions:
  status: ('A' for Active; 'I' for Inactive)
    1  A    between atoms: C_1  and  C_5
    2  A    between atoms: C_1  and  C_22
    3  A    between atoms: C_2  and  N_18
    4  A    between atoms: N_3  and  C_28
    5  A    between atoms: C_7  and  C_30
    6  A    between atoms: C_10  and  C_25
    7  A    between atoms: C_11  and  C_25
    8  A    between atoms: C_13  and  C_30
    9  A    between atoms: C_14  and  N_18
   10  A    between atoms: C_14  and  C_20
   11  A    between atoms: C_20  and  C_28
                            x       y       z     vdW  Elec       q    Type
                         _______ _______ _______ _____ _____    ______ ____

>  <TORSDO>
F 11

$$$$
=
 OpenBabel11052417143D

 30 32  0  0  1  0  0  0  0  0999 V2000
  189.3430  175.8590  142.8860 C   0  0  2  0  0  3  0  0  0  0  0  0
  188.7880  175.7840  141.4590 C   0  0  2  0  0  3  0  0  0  0  0  0
  186.3030  178.0630  142.9760 C   0  0  0  0  0  3  0  0  0  0  0  0
  187.3740  177.1950  142.7380 C   0  0  0  0  0  0  0  0  0  0  0  0
  186.8450  177.0930  140.3870 C   0  0  0  0  0  3  0  0  0  0  0  0
  187.6230  176.7050  141.4810 C   0  0  0  0  0  0  0  0  0  0  0  0
  188.3140  176.6450  143.7420 C   0  0  2  0  0  3  0  0  0  0  0  0
  185.7770  177.9770  140.6000 C   0  0  0  0  0  3  0  0  0  0  0  0
  185.5040  178.4570  141.8920 C   0  0  0  0  0  3  0  0  0  0  0  0
  190.5890  176.4920  142.8500 O   0  0  0  0  0  1  0  0  0  0  0  0
  188.3580  174.3500  141.1660 C   0  0  0  0  0  2  0  0  0  0  0  0
  190.2680  172.8730  140.4430 C   0  0  0  0  0  3  0  0  0  0  0  0
  189.2580  173.7040  140.1590 C   0  0  0  0  0  3  0  0  0  0  0  0
  190.6260  172.4230  141.7590 N   0  0  0  0  0  0  0  0  0  0  0  0
  190.1400  171.1710  142.3210 C   0  0  0  0  0  1  0  0  0  0  0  0
  191.7150  173.0930  142.4540 C   0  0  0  0  0  2  0  0  0  0  0  0
  191.4710  173.1210  143.9590 C   0  0  0  0  0  2  0  0  0  0  0  0
  192.7220  172.8420  144.7230 C   0  0  0  0  0  0  0  0  0  0  0  0
  193.5030  171.4170  144.4990 S   0  0  0  0  0  0  0  0  0  0  0  0
  193.2030  173.8210  145.6490 N   0  0  0  0  0  2  0  0  0  0  0  0
  193.2760  175.2420  145.3470 C   0  0  0  0  0  1  0  0  0  0  0  0
  188.9280  177.7520  144.5990 C   0  0  0  0  0  2  0  0  0  0  0  0
  188.7980  177.4250  146.0780 C   0  0  1  0  0  3  0  0  0  0  0  0
  187.8450  176.2860  146.3040 C   0  0  1  0  0  3  0  0  0  0  0  0
  188.6830  175.2480  147.0210 C   0  0  0  0  0  2  0  0  0  0  0  0
  190.1140  176.9010  146.5980 C   0  0  0  0  0  2  0  0  0  0  0  0
  189.8480  175.8640  147.5020 O   0  0  0  0  0  0  0  0  0  0  0  0
  186.7050  176.7550  147.1970 C   0  0  0  0  0  2  0  0  0  0  0  0
  185.3930  176.8160  146.4310 C   0  0  0  0  0  2  0  0  0  0  0  0
  184.7880  178.2040  146.5290 C   0  0  0  0  0  1  0  0  0  0  0  0
  1 10  1  6  0  0  0
  1  7  1  0  0  0  0
  2 11  1  1  0  0  0
  2  6  1  0  0  0  0
  2  1  1  0  0  0  0
  4  3  1  0  0  0  0
  4  7  1  0  0  0  0
  5  8  2  0  0  0  0
  5  6  1  0  0  0  0
  6  4  2  0  0  0  0
  7 22  1  6  0  0  0
  8  9  1  0  0  0  0
  9  3  2  0  0  0  0
 12 14  1  0  0  0  0
 13 12  2  0  0  0  0
 13 11  1  0  0  0  0
 14 15  1  0  0  0  0
 14 16  1  0  0  0  0
 16 17  1  0  0  0  0
 17 18  1  0  0  0  0
 18 20  1  0  0  0  0
 19 18  2  0  0  0  0
 21 20  1  0  0  0  0
 23 22  1  6  0  0  0
 23 24  1  0  0  0  0
 23 26  1  0  0  0  0
 24 25  1  0  0  0  0
 24 28  1  1  0  0  0
 25 27  1  0  0  0  0
 26 27  1  0  0  0  0
 29 30  1  0  0  0  0
 29 28  1  0  0  0  0
M  END
>  <MODEL>
3

>  <REMARK>
 VINA RESULT:      -7.0      5.047      8.178
  Name = 
  11 active torsions:
  status: ('A' for Active; 'I' for Inactive)
    1  A    between atoms: C_1  and  C_5
    2  A    between atoms: C_1  and  C_22
    3  A    between atoms: C_2  and  N_18
    4  A    between atoms: N_3  and  C_28
    5  A    between atoms: C_7  and  C_30
    6  A    between atoms: C_10  and  C_25
    7  A    between atoms: C_11  and  C_25
    8  A    between atoms: C_13  and  C_30
    9  A    between atoms: C_14  and  N_18
   10  A    between atoms: C_14  and  C_20
   11  A    between atoms: C_20  and  C_28
                            x       y       z     vdW  Elec       q    Type
                         _______ _______ _______ _____ _____    ______ ____

>  <TORSDO>
F 11

$$$$
=
 OpenBabel11052417143D

 30 32  0  0  1  0  0  0  0  0999 V2000
  189.1580  174.5980  145.8940 C   0  0  2  0  0  3  0  0  0  0  0  0
  190.4490  174.3840  145.0950 C   0  0  2  0  0  3  0  0  0  0  0  0
  189.7640  177.9170  144.2440 C   0  0  0  0  0  3  0  0  0  0  0  0
  189.7110  176.6120  144.7440 C   0  0  0  0  0  0  0  0  0  0  0  0
  191.8560  176.0890  143.7730 C   0  0  0  0  0  3  0  0  0  0  0  0
  190.7190  175.7150  144.4940 C   0  0  0  0  0  0  0  0  0  0  0  0
  188.6050  175.9980  145.5170 C   0  0  2  0  0  3  0  0  0  0  0  0
  191.9380  177.4000  143.2780 C   0  0  0  0  0  3  0  0  0  0  0  0
  190.8920  178.3090  143.5090 C   0  0  0  0  0  3  0  0  0  0  0  0
  189.4520  174.5000  147.2580 O   0  0  0  0  0  1  0  0  0  0  0  0
  190.2010  173.3290  144.0220 C   0  0  0  0  0  2  0  0  0  0  0  0
  192.0570  171.6340  144.2030 C   0  0  0  0  0  3  0  0  0  0  0  0
  190.7880  172.0080  144.4100 C   0  0  0  0  0  3  0  0  0  0  0  0
  193.0780  172.4570  143.6180 N   0  0  0  0  0  0  0  0  0  0  0  0
  193.0840  172.8180  142.2080 C   0  0  0  0  0  1  0  0  0  0  0  0
  193.9850  173.1770  144.4990 C   0  0  0  0  0  2  0  0  0  0  0  0
  194.9890  174.0000  143.6990 C   0  0  0  0  0  2  0  0  0  0  0  0
  195.2640  175.3140  144.3510 C   0  0  0  0  0  0  0  0  0  0  0  0
  195.0140  175.4830  145.9630 S   0  0  0  0  0  0  0  0  0  0  0  0
  195.7220  176.4060  143.5460 N   0  0  0  0  0  2  0  0  0  0  0  0
  197.1110  176.5830  143.1540 C   0  0  0  0  0  1  0  0  0  0  0  0
  188.2150  176.8620  146.7160 C   0  0  0  0  0  2  0  0  0  0  0  0
  187.0140  177.7340  146.3860 C   0  0  1  0  0  3  0  0  0  0  0  0
  185.9090  176.9290  145.7630 C   0  0  1  0  0  3  0  0  0  0  0  0
  184.7340  177.1430  146.6940 C   0  0  0  0  0  2  0  0  0  0  0  0
  186.4020  178.2570  147.6620 C   0  0  0  0  0  2  0  0  0  0  0  0
  185.0080  178.2440  147.5180 O   0  0  0  0  0  0  0  0  0  0  0  0
  185.5980  177.4870  144.3820 C   0  0  0  0  0  2  0  0  0  0  0  0
  186.2730  178.8320  144.1660 C   0  0  0  0  0  2  0  0  0  0  0  0
  185.2440  179.9470  144.1730 C   0  0  0  0  0  1  0  0  0  0  0  0
  1 10  1  1  0  0  0
  2 11  1  6  0  0  0
  2  1  1  0  0  0  0
  3  4  1  0  0  0  0
  4  7  1  0  0  0  0
  5  6  1  0  0  0  0
  6  4  2  0  0  0  0
  6  2  1  0  0  0  0
  7  1  1  0  0  0  0
  7 22  1  1  0  0  0
  8  9  1  0  0  0  0
  8  5  2  0  0  0  0
  9  3  2  0  0  0  0
 11 13  1  0  0  0  0
 12 13  2  0  0  0  0
 14 12  1  0  0  0  0
 14 16  1  0  0  0  0
 15 14  1  0  0  0  0
 17 18  1  0  0  0  0
 17 16  1  0  0  0  0
 18 19  2  0  0  0  0
 20 18  1  0  0  0  0
 21 20  1  0  0  0  0
 23 22  1  1  0  0  0
 23 26  1  0  0  0  0
 24 28  1  6  0  0  0
 24 23  1  0  0  0  0
 24 25  1  0  0  0  0
 25 27  1  0  0  0  0
 27 26  1  0  0  0  0
 29 30  1  0  0  0  0
 29 28  1  0  0  0  0
M  END
>  <MODEL>
4

>  <REMARK>
 VINA RESULT:      -6.9      5.862      9.721
  Name = 
  11 active torsions:
  status: ('A' for Active; 'I' for Inactive)
    1  A    between atoms: C_1  and  C_5
    2  A    between atoms: C_1  and  C_22
    3  A    between atoms: C_2  and  N_18
    4  A    between atoms: N_3  and  C_28
    5  A    between atoms: C_7  and  C_30
    6  A    between atoms: C_10  and  C_25
    7  A    between atoms: C_11  and  C_25
    8  A    between atoms: C_13  and  C_30
    9  A    between atoms: C_14  and  N_18
   10  A    between atoms: C_14  and  C_20
   11  A    between atoms: C_20  and  C_28
                            x       y       z     vdW  Elec       q    Type
                         _______ _______ _______ _____ _____    ______ ____

>  <TORSDO>
F 11

$$$$
=
 OpenBabel11052417143D

 30 32  0  0  1  0  0  0  0  0999 V2000
  189.0630  177.6450  142.9360 C   0  0  2  0  0  3  0  0  0  0  0  0
  190.4030  176.9350  142.7070 C   0  0  2  0  0  3  0  0  0  0  0  0
  188.1100  174.0460  142.4400 C   0  0  0  0  0  3  0  0  0  0  0  0
  188.6710  175.3150  142.6140 C   0  0  0  0  0  0  0  0  0  0  0  0
  190.8660  174.4860  142.0550 C   0  0  0  0  0  3  0  0  0  0  0  0
  190.0180  175.5240  142.4490 C   0  0  0  0  0  0  0  0  0  0  0  0
  187.9700  176.5490  143.0400 C   0  0  2  0  0  3  0  0  0  0  0  0
  190.3210  173.2080  141.8570 C   0  0  0  0  0  3  0  0  0  0  0  0
  188.9470  172.9890  142.0540 C   0  0  0  0  0  3  0  0  0  0  0  0
  188.8310  178.5200  141.8700 O   0  0  0  0  0  1  0  0  0  0  0  0
  191.2540  177.0580  143.9670 C   0  0  0  0  0  2  0  0  0  0  0  0
  190.1710  176.7740  146.2240 C   0  0  0  0  0  3  0  0  0  0  0  0
  190.4350  177.5080  145.1370 C   0  0  0  0  0  3  0  0  0  0  0  0
  190.6690  175.4490  146.4710 N   0  0  0  0  0  0  0  0  0  0  0  0
  190.0700  174.2620  145.8790 C   0  0  0  0  0  1  0  0  0  0  0  0
  191.9670  175.2990  147.1100 C   0  0  0  0  0  2  0  0  0  0  0  0
  192.9640  174.6210  146.1750 C   0  0  0  0  0  2  0  0  0  0  0  0
  194.2550  175.3650  146.1170 C   0  0  0  0  0  0  0  0  0  0  0  0
  194.2650  176.9860  146.3680 S   0  0  0  0  0  0  0  0  0  0  0  0
  195.4580  174.6470  145.8240 N   0  0  0  0  0  2  0  0  0  0  0  0
  195.6300  173.8230  144.6390 C   0  0  0  0  0  1  0  0  0  0  0  0
  186.7340  176.8140  142.1810 C   0  0  0  0  0  2  0  0  0  0  0  0
  185.5010  177.0050  143.0510 C   0  0  1  0  0  3  0  0  0  0  0  0
  185.8320  177.7560  144.3100 C   0  0  1  0  0  3  0  0  0  0  0  0
  184.9340  178.9740  144.2530 C   0  0  0  0  0  2  0  0  0  0  0  0
  184.5170  177.9050  142.3440 C   0  0  0  0  0  2  0  0  0  0  0  0
  183.9330  178.7500  143.2970 O   0  0  0  0  0  0  0  0  0  0  0  0
  185.4820  176.8960  145.5150 C   0  0  0  0  0  2  0  0  0  0  0  0
  185.1590  177.7530  146.7290 C   0  0  0  0  0  2  0  0  0  0  0  0
  186.4080  177.9870  147.5580 C   0  0  0  0  0  1  0  0  0  0  0  0
  1 10  1  6  0  0  0
  1  7  1  0  0  0  0
  2  1  1  0  0  0  0
  2 11  1  1  0  0  0
  3  4  1  0  0  0  0
  4  7  1  0  0  0  0
  5  6  1  0  0  0  0
  6  4  2  0  0  0  0
  6  2  1  0  0  0  0
  7 22  1  6  0  0  0
  8  9  1  0  0  0  0
  8  5  2  0  0  0  0
  9  3  2  0  0  0  0
 11 13  1  0  0  0  0
 12 14  1  0  0  0  0
 13 12  2  0  0  0  0
 14 16  1  0  0  0  0
 15 14  1  0  0  0  0
 17 16  1  0  0  0  0
 18 17  1  0  0  0  0
 18 19  2  0  0  0  0
 20 18  1  0  0  0  0
 21 20  1  0  0  0  0
 23 22  1  6  0  0  0
 23 24  1  0  0  0  0
 24 28  1  1  0  0  0
 25 24  1  0  0  0  0
 26 23  1  0  0  0  0
 26 27  1  0  0  0  0
 27 25  1  0  0  0  0
 28 29  1  0  0  0  0
 29 30  1  0  0  0  0
M  END
>  <MODEL>
5

>  <REMARK>
 VINA RESULT:      -6.9      5.054      9.337
  Name = 
  11 active torsions:
  status: ('A' for Active; 'I' for Inactive)
    1  A    between atoms: C_1  and  C_5
    2  A    between atoms: C_1  and  C_22
    3  A    between atoms: C_2  and  N_18
    4  A    between atoms: N_3  and  C_28
    5  A    between atoms: C_7  and  C_30
    6  A    between atoms: C_10  and  C_25
    7  A    between atoms: C_11  and  C_25
    8  A    between atoms: C_13  and  C_30
    9  A    between atoms: C_14  and  N_18
   10  A    between atoms: C_14  and  C_20
   11  A    between atoms: C_20  and  C_28
                            x       y       z     vdW  Elec       q    Type
                         _______ _______ _______ _____ _____    ______ ____

>  <TORSDO>
F 11

$$$$
=
 OpenBabel11052417143D

 30 32  0  0  1  0  0  0  0  0999 V2000
  189.8330  174.8130  146.3910 C   0  0  2  0  0  3  0  0  0  0  0  0
  191.1280  174.7100  145.5770 C   0  0  2  0  0  3  0  0  0  0  0  0
  189.7300  177.8170  144.1390 C   0  0  0  0  0  3  0  0  0  0  0  0
  189.9500  176.6440  144.8680 C   0  0  0  0  0  0  0  0  0  0  0  0
  192.1420  176.3800  143.8970 C   0  0  0  0  0  3  0  0  0  0  0  0
  191.1150  175.9320  144.7320 C   0  0  0  0  0  0  0  0  0  0  0  0
  189.0030  175.9810  145.7970 C   0  0  2  0  0  3  0  0  0  0  0  0
  191.9490  177.5640  143.1690 C   0  0  0  0  0  3  0  0  0  0  0  0
  190.7440  178.2780  143.2870 C   0  0  0  0  0  3  0  0  0  0  0  0
  190.1620  175.0320  147.7330 O   0  0  0  0  0  1  0  0  0  0  0  0
  191.0830  173.4450  144.7270 C   0  0  0  0  0  2  0  0  0  0  0  0
  189.1270  172.1990  143.7390 C   0  0  0  0  0  3  0  0  0  0  0  0
  189.7290  172.8070  144.7690 C   0  0  0  0  0  3  0  0  0  0  0  0
  189.7000  172.0170  142.4350 N   0  0  0  0  0  0  0  0  0  0  0  0
  190.4490  170.8250  142.0660 C   0  0  0  0  0  1  0  0  0  0  0  0
  189.2980  172.9160  141.3640 C   0  0  0  0  0  2  0  0  0  0  0  0
  190.1680  174.1680  141.3420 C   0  0  0  0  0  2  0  0  0  0  0  0
  191.4450  173.9350  140.6060 C   0  0  0  0  0  0  0  0  0  0  0  0
  191.3970  173.4460  139.0410 S   0  0  0  0  0  0  0  0  0  0  0  0
  192.6870  174.1280  141.2920 N   0  0  0  0  0  2  0  0  0  0  0  0
  193.7980  174.8850  140.7370 C   0  0  0  0  0  1  0  0  0  0  0  0
  188.4650  176.9610  146.8390 C   0  0  0  0  0  2  0  0  0  0  0  0
  187.2270  177.6760  146.3190 C   0  0  1  0  0  3  0  0  0  0  0  0
  186.3040  176.7250  145.6100 C   0  0  1  0  0  3  0  0  0  0  0  0
  185.0040  176.8390  146.3800 C   0  0  0  0  0  2  0  0  0  0  0  0
  186.4050  178.1740  147.4830 C   0  0  0  0  0  2  0  0  0  0  0  0
  185.0500  177.9950  147.1720 O   0  0  0  0  0  0  0  0  0  0  0  0
  186.1110  177.1900  144.1740 C   0  0  0  0  0  2  0  0  0  0  0  0
  186.3440  176.0530  143.1910 C   0  0  0  0  0  2  0  0  0  0  0  0
  187.0740  176.5590  141.9610 C   0  0  0  0  0  1  0  0  0  0  0  0
  1 10  1  1  0  0  0
  2 11  1  6  0  0  0
  2  1  1  0  0  0  0
  3  4  1  0  0  0  0
  4  7  1  0  0  0  0
  5  6  1  0  0  0  0
  6  4  2  0  0  0  0
  6  2  1  0  0  0  0
  7  1  1  0  0  0  0
  7 22  1  1  0  0  0
  8  9  1  0  0  0  0
  8  5  2  0  0  0  0
  9  3  2  0  0  0  0
 11 13  1  0  0  0  0
 12 13  2  0  0  0  0
 14 12  1  0  0  0  0
 15 14  1  0  0  0  0
 16 14  1  0  0  0  0
 17 16  1  0  0  0  0
 18 20  1  0  0  0  0
 18 17  1  0  0  0  0
 19 18  2  0  0  0  0
 21 20  1  0  0  0  0
 23 22  1  1  0  0  0
 23 26  1  0  0  0  0
 24 28  1  6  0  0  0
 24 23  1  0  0  0  0
 24 25  1  0  0  0  0
 25 27  1  0  0  0  0
 27 26  1  0  0  0  0
 29 28  1  0  0  0  0
 30 29  1  0  0  0  0
M  END
>  <MODEL>
6

>  <REMARK>
 VINA RESULT:      -6.9      5.155      8.189
  Name = 
  11 active torsions:
  status: ('A' for Active; 'I' for Inactive)
    1  A    between atoms: C_1  and  C_5
    2  A    between atoms: C_1  and  C_22
    3  A    between atoms: C_2  and  N_18
    4  A    between atoms: N_3  and  C_28
    5  A    between atoms: C_7  and  C_30
    6  A    between atoms: C_10  and  C_25
    7  A    between atoms: C_11  and  C_25
    8  A    between atoms: C_13  and  C_30
    9  A    between atoms: C_14  and  N_18
   10  A    between atoms: C_14  and  C_20
   11  A    between atoms: C_20  and  C_28
                            x       y       z     vdW  Elec       q    Type
                         _______ _______ _______ _____ _____    ______ ____

>  <TORSDO>
F 11

$$$$
=
 OpenBabel11052417143D

 30 32  0  0  1  0  0  0  0  0999 V2000
  190.5840  175.8820  146.4330 C   0  0  2  0  0  3  0  0  0  0  0  0
  189.2870  175.7890  145.6220 C   0  0  2  0  0  3  0  0  0  0  0  0
  191.7210  174.7690  143.0310 C   0  0  0  0  0  3  0  0  0  0  0  0
  191.0990  175.1980  144.2080 C   0  0  0  0  0  0  0  0  0  0  0  0
  188.9140  174.9090  143.2290 C   0  0  0  0  0  3  0  0  0  0  0  0
  189.7320  175.2890  144.2960 C   0  0  0  0  0  0  0  0  0  0  0  0
  191.7640  175.6590  145.4500 C   0  0  2  0  0  3  0  0  0  0  0  0
  189.5160  174.4590  142.0450 C   0  0  0  0  0  3  0  0  0  0  0  0
  190.9160  174.3940  141.9460 C   0  0  0  0  0  3  0  0  0  0  0  0
  190.5520  174.9160  147.4440 O   0  0  0  0  0  1  0  0  0  0  0  0
  188.6670  177.1780  145.5130 C   0  0  0  0  0  2  0  0  0  0  0  0
  186.9880  177.9900  147.2080 C   0  0  0  0  0  3  0  0  0  0  0  0
  188.2440  177.6940  146.8540 C   0  0  0  0  0  3  0  0  0  0  0  0
  185.8300  177.8170  146.3770 N   0  0  0  0  0  0  0  0  0  0  0  0
  185.1720  176.5300  146.2030 C   0  0  0  0  0  1  0  0  0  0  0  0
  185.1240  179.0000  145.9070 C   0  0  0  0  0  2  0  0  0  0  0  0
  185.7980  179.5860  144.6710 C   0  0  0  0  0  2  0  0  0  0  0  0
  185.4470  178.8210  143.4400 C   0  0  0  0  0  0  0  0  0  0  0  0
  186.6430  178.2880  142.4520 S   0  0  0  0  0  0  0  0  0  0  0  0
  184.0680  178.5850  143.1380 N   0  0  0  0  0  2  0  0  0  0  0  0
  183.5800  178.2910  141.8000 C   0  0  0  0  0  1  0  0  0  0  0  0
  192.8020  174.6470  145.9360 C   0  0  0  0  0  2  0  0  0  0  0  0
  194.1700  175.2980  146.0680 C   0  0  1  0  0  3  0  0  0  0  0  0
  194.8510  175.4130  144.7340 C   0  0  1  0  0  3  0  0  0  0  0  0
  195.1020  176.8990  144.5810 C   0  0  0  0  0  2  0  0  0  0  0  0
  194.0080  176.7310  146.5130 C   0  0  0  0  0  2  0  0  0  0  0  0
  194.9520  177.5120  145.8330 O   0  0  0  0  0  0  0  0  0  0  0  0
  196.1690  174.6550  144.7760 C   0  0  0  0  0  2  0  0  0  0  0  0
  196.3950  174.0170  146.1370 C   0  0  0  0  0  2  0  0  0  0  0  0
  196.8160  172.5680  145.9790 C   0  0  0  0  0  1  0  0  0  0  0  0
  1 10  1  1  0  0  0
  2 11  1  6  0  0  0
  2  1  1  0  0  0  0
  3  4  1  0  0  0  0
  4  6  2  0  0  0  0
  4  7  1  0  0  0  0
  5  6  1  0  0  0  0
  6  2  1  0  0  0  0
  7 22  1  1  0  0  0
  7  1  1  0  0  0  0
  8  5  2  0  0  0  0
  9  8  1  0  0  0  0
  9  3  2  0  0  0  0
 11 13  1  0  0  0  0
 13 12  2  0  0  0  0
 14 12  1  0  0  0  0
 15 14  1  0  0  0  0
 16 14  1  0  0  0  0
 17 16  1  0  0  0  0
 18 17  1  0  0  0  0
 19 18  2  0  0  0  0
 20 18  1  0  0  0  0
 21 20  1  0  0  0  0
 23 22  1  6  0  0  0
 23 26  1  0  0  0  0
 24 28  1  1  0  0  0
 24 23  1  0  0  0  0
 25 24  1  0  0  0  0
 25 27  1  0  0  0  0
 27 26  1  0  0  0  0
 28 29  1  0  0  0  0
 30 29  1  0  0  0  0
M  END
>  <MODEL>
7

>  <REMARK>
 VINA RESULT:      -6.8      2.963      5.804
  Name = 
  11 active torsions:
  status: ('A' for Active; 'I' for Inactive)
    1  A    between atoms: C_1  and  C_5
    2  A    between atoms: C_1  and  C_22
    3  A    between atoms: C_2  and  N_18
    4  A    between atoms: N_3  and  C_28
    5  A    between atoms: C_7  and  C_30
    6  A    between atoms: C_10  and  C_25
    7  A    between atoms: C_11  and  C_25
    8  A    between atoms: C_13  and  C_30
    9  A    between atoms: C_14  and  N_18
   10  A    between atoms: C_14  and  C_20
   11  A    between atoms: C_20  and  C_28
                            x       y       z     vdW  Elec       q    Type
                         _______ _______ _______ _____ _____    ______ ____

>  <TORSDO>
F 11

$$$$
=
 OpenBabel11052417143D

 30 32  0  0  1  0  0  0  0  0999 V2000
  189.8010  176.9610  144.8070 C   0  0  2  0  0  3  0  0  0  0  0  0
  190.8870  176.0380  144.2420 C   0  0  2  0  0  3  0  0  0  0  0  0
  188.0260  174.9950  142.1440 C   0  0  0  0  0  3  0  0  0  0  0  0
  188.8590  175.5990  143.0910 C   0  0  0  0  0  0  0  0  0  0  0  0
  190.7860  174.4330  142.2290 C   0  0  0  0  0  3  0  0  0  0  0  0
  190.1990  175.3070  143.1480 C   0  0  0  0  0  0  0  0  0  0  0  0
  188.4540  176.5400  144.1620 C   0  0  2  0  0  3  0  0  0  0  0  0
  189.9720  173.8290  141.2580 C   0  0  0  0  0  3  0  0  0  0  0  0
  188.5950  174.1070  141.2200 C   0  0  0  0  0  3  0  0  0  0  0  0
  190.1360  178.2850  144.5070 O   0  0  0  0  0  1  0  0  0  0  0  0
  191.3530  175.0870  145.3390 C   0  0  0  0  0  2  0  0  0  0  0  0
  193.2710  176.0280  146.6760 C   0  0  0  0  0  3  0  0  0  0  0  0
  191.9610  175.8330  146.4870 C   0  0  0  0  0  3  0  0  0  0  0  0
  194.3110  175.5940  145.7850 N   0  0  0  0  0  0  0  0  0  0  0  0
  194.6940  174.1970  145.6450 C   0  0  0  0  0  1  0  0  0  0  0  0
  194.8160  176.5310  144.7940 C   0  0  0  0  0  2  0  0  0  0  0  0
  194.5140  176.0490  143.3780 C   0  0  0  0  0  2  0  0  0  0  0  0
  195.6960  176.2040  142.4820 C   0  0  0  0  0  0  0  0  0  0  0  0
  197.1840  176.4190  143.1380 S   0  0  0  0  0  0  0  0  0  0  0  0
  195.5000  176.1790  141.0640 N   0  0  0  0  0  2  0  0  0  0  0  0
  194.6830  175.1860  140.3860 C   0  0  0  0  0  1  0  0  0  0  0  0
  187.6360  177.7040  143.6030 C   0  0  0  0  0  2  0  0  0  0  0  0
  186.2010  177.6460  144.1040 C   0  0  1  0  0  3  0  0  0  0  0  0
  185.8020  178.9340  144.7680 C   0  0  1  0  0  3  0  0  0  0  0  0
  184.6040  179.4000  143.9660 C   0  0  0  0  0  2  0  0  0  0  0  0
  185.2600  177.5410  142.9300 C   0  0  0  0  0  2  0  0  0  0  0  0
  184.1300  178.3250  143.2010 O   0  0  0  0  0  0  0  0  0  0  0  0
  185.3990  178.6530  146.2080 C   0  0  0  0  0  2  0  0  0  0  0  0
  185.3610  177.1590  146.4880 C   0  0  0  0  0  2  0  0  0  0  0  0
  186.3040  176.8100  147.6250 C   0  0  0  0  0  1  0  0  0  0  0  0
  1 10  1  6  0  0  0
  2  1  1  0  0  0  0
  2 11  1  1  0  0  0
  3  4  1  0  0  0  0
  4  6  2  0  0  0  0
  4  7  1  0  0  0  0
  5  6  1  0  0  0  0
  6  2  1  0  0  0  0
  7 22  1  6  0  0  0
  7  1  1  0  0  0  0
  8  5  2  0  0  0  0
  9  8  1  0  0  0  0
  9  3  2  0  0  0  0
 11 13  1  0  0  0  0
 13 12  2  0  0  0  0
 14 12  1  0  0  0  0
 15 14  1  0  0  0  0
 16 14  1  0  0  0  0
 17 16  1  0  0  0  0
 18 19  2  0  0  0  0
 18 17  1  0  0  0  0
 20 18  1  0  0  0  0
 21 20  1  0  0  0  0
 23 22  1  6  0  0  0
 23 24  1  0  0  0  0
 24 28  1  1  0  0  0
 25 24  1  0  0  0  0
 26 27  1  0  0  0  0
 26 23  1  0  0  0  0
 27 25  1  0  0  0  0
 28 29  1  0  0  0  0
 29 30  1  0  0  0  0
M  END
>  <MODEL>
8

>  <REMARK>
 VINA RESULT:      -6.8      5.816      9.777
  Name = 
  11 active torsions:
  status: ('A' for Active; 'I' for Inactive)
    1  A    between atoms: C_1  and  C_5
    2  A    between atoms: C_1  and  C_22
    3  A    between atoms: C_2  and  N_18
    4  A    between atoms: N_3  and  C_28
    5  A    between atoms: C_7  and  C_30
    6  A    between atoms: C_10  and  C_25
    7  A    between atoms: C_11  and  C_25
    8  A    between atoms: C_13  and  C_30
    9  A    between atoms: C_14  and  N_18
   10  A    between atoms: C_14  and  C_20
   11  A    between atoms: C_20  and  C_28
                            x       y       z     vdW  Elec       q    Type
                         _______ _______ _______ _____ _____    ______ ____

>  <TORSDO>
F 11

$$$$
=
 OpenBabel11052417143D

 30 32  0  0  1  0  0  0  0  0999 V2000
  188.4780  175.2150  142.5590 C   0  0  2  0  0  3  0  0  0  0  0  0
  189.6640  174.6090  143.3200 C   0  0  2  0  0  3  0  0  0  0  0  0
  187.8780  176.2230  146.1270 C   0  0  0  0  0  3  0  0  0  0  0  0
  188.2900  175.7650  144.8720 C   0  0  0  0  0  0  0  0  0  0  0  0
  190.1100  174.5240  145.8550 C   0  0  0  0  0  3  0  0  0  0  0  0
  189.3910  174.9560  144.7380 C   0  0  0  0  0  0  0  0  0  0  0  0
  187.6910  176.1020  143.5590 C   0  0  2  0  0  3  0  0  0  0  0  0
  189.7030  174.9580  147.1260 C   0  0  0  0  0  3  0  0  0  0  0  0
  188.5930  175.8090  147.2600 C   0  0  0  0  0  3  0  0  0  0  0  0
  187.6940  174.1750  142.0490 O   0  0  0  0  0  1  0  0  0  0  0  0
  190.9540  175.2550  142.8270 C   0  0  0  0  0  2  0  0  0  0  0  0
  192.3020  173.3300  141.9160 C   0  0  0  0  0  3  0  0  0  0  0  0
  191.5870  174.4470  141.7360 C   0  0  0  0  0  3  0  0  0  0  0  0
  192.5400  172.6930  143.1810 N   0  0  0  0  0  0  0  0  0  0  0  0
  191.7090  171.6090  143.6840 C   0  0  0  0  0  1  0  0  0  0  0  0
  193.8000  172.9440  143.8630 C   0  0  0  0  0  2  0  0  0  0  0  0
  193.5700  173.6070  145.2170 C   0  0  0  0  0  2  0  0  0  0  0  0
  193.8970  175.0620  145.1780 C   0  0  0  0  0  0  0  0  0  0  0  0
  194.6940  175.6760  143.8820 S   0  0  0  0  0  0  0  0  0  0  0  0
  193.5220  175.8890  146.2850 N   0  0  0  0  0  2  0  0  0  0  0  0
  194.2560  177.0810  146.6780 C   0  0  0  0  0  1  0  0  0  0  0  0
  186.1810  175.8620  143.5560 C   0  0  0  0  0  2  0  0  0  0  0  0
  185.4370  177.1120  143.1130 C   0  0  1  0  0  3  0  0  0  0  0  0
  185.6650  178.2510  144.0660 C   0  0  1  0  0  3  0  0  0  0  0  0
  186.2690  179.3360  143.1970 C   0  0  0  0  0  2  0  0  0  0  0  0
  186.0150  177.6110  141.8110 C   0  0  0  0  0  2  0  0  0  0  0  0
  186.0440  179.0110  141.8520 O   0  0  0  0  0  0  0  0  0  0  0  0
  184.3290  178.7090  144.6310 C   0  0  0  0  0  2  0  0  0  0  0  0
  184.2340  178.4220  146.1220 C   0  0  0  0  0  2  0  0  0  0  0  0
  185.4770  178.9210  146.8360 C   0  0  0  0  0  1  0  0  0  0  0  0
  1 10  1  1  0  0  0
  1  2  1  0  0  0  0
  1  7  1  0  0  0  0
  2 11  1  6  0  0  0
  2  6  1  0  0  0  0
  3  9  1  0  0  0  0
  4  3  2  0  0  0  0
  5  8  1  0  0  0  0
  6  4  1  0  0  0  0
  6  5  2  0  0  0  0
  7 22  1  1  0  0  0
  7  4  1  0  0  0  0
  8  9  2  0  0  0  0
 12 14  1  0  0  0  0
 13 12  2  0  0  0  0
 13 11  1  0  0  0  0
 14 15  1  0  0  0  0
 14 16  1  0  0  0  0
 16 17  1  0  0  0  0
 18 17  1  0  0  0  0
 18 20  1  0  0  0  0
 19 18  2  0  0  0  0
 20 21  1  0  0  0  0
 23 22  1  1  0  0  0
 23 24  1  0  0  0  0
 24 28  1  6  0  0  0
 25 24  1  0  0  0  0
 26 27  1  0  0  0  0
 26 23  1  0  0  0  0
 27 25  1  0  0  0  0
 28 29  1  0  0  0  0
 29 30  1  0  0  0  0
M  END
>  <MODEL>
9

>  <REMARK>
 VINA RESULT:      -6.8      5.421      9.203
  Name = 
  11 active torsions:
  status: ('A' for Active; 'I' for Inactive)
    1  A    between atoms: C_1  and  C_5
    2  A    between atoms: C_1  and  C_22
    3  A    between atoms: C_2  and  N_18
    4  A    between atoms: N_3  and  C_28
    5  A    between atoms: C_7  and  C_30
    6  A    between atoms: C_10  and  C_25
    7  A    between atoms: C_11  and  C_25
    8  A    between atoms: C_13  and  C_30
    9  A    between atoms: C_14  and  N_18
   10  A    between atoms: C_14  and  C_20
   11  A    between atoms: C_20  and  C_28
                            x       y       z     vdW  Elec       q    Type
                         _______ _______ _______ _____ _____    ______ ____

>  <TORSDO>
F 11

$$$$
