=
 OpenBabel11052421283D

 32 37  0  0  1  0  0  0  0  0999 V2000
  195.4240  175.8890  142.8720 N   0  0  0  0  0  0  0  0  0  0  0  0
  195.1900  172.5460  144.4190 C   0  0  0  0  0  2  0  0  0  0  0  0
  191.8550  176.7880  144.9640 C   0  0  0  0  0  3  0  0  0  0  0  0
  188.4270  172.9440  142.0750 C   0  0  0  0  0  2  0  0  0  0  0  0
  187.7840  174.2840  141.7010 C   0  0  0  0  0  2  0  0  0  0  0  0
  193.8130  175.1650  145.5380 C   0  0  0  0  0  0  0  0  0  0  0  0
  191.9540  173.7120  144.7530 N   0  0  0  0  0  0  0  0  0  0  0  0
  195.2550  174.4450  142.7300 C   0  0  0  0  0  2  0  0  0  0  0  0
  194.1150  172.7420  145.4950 C   0  0  0  0  0  2  0  0  0  0  0  0
  189.7940  173.1300  142.7220 C   0  0  0  0  0  2  0  0  0  0  0  0
  190.9910  174.5160  144.4270 C   0  0  0  0  0  0  0  0  0  0  0  0
  189.6590  174.0460  143.9460 C   0  0  1  0  0  3  0  0  0  0  0  0
  189.6300  176.3430  144.1370 N   0  0  0  0  0  0  0  0  0  0  0  0
  196.2790  176.1340  143.9690 N   0  0  0  0  0  2  0  0  0  0  0  0
  196.2340  174.9630  144.8340 C   0  0  1  0  0  3  0  0  0  0  0  0
  196.1170  176.3550  141.6850 C   0  0  0  0  0  1  0  0  0  0  0  0
  193.2680  173.9580  145.2690 C   0  0  0  0  0  0  0  0  0  0  0  0
  195.2470  175.2100  145.9860 C   0  0  0  0  0  2  0  0  0  0  0  0
  195.9310  173.7990  143.9070 C   0  0  1  0  0  3  0  0  0  0  0  0
  188.5350  175.4800  142.2910 C   0  0  0  0  0  2  0  0  0  0  0  0
  188.8260  175.2640  143.7140 N   0  0  1  0  0  0  0  0  0  0  0  0
  193.1670  176.4330  145.3900 N   0  0  0  0  0  2  0  0  0  0  0  0
  190.9250  175.9390  144.5530 C   0  0  0  0  0  0  0  0  0  0  0  0
  189.0670  177.6640  144.4010 C   0  0  0  0  0  2  0  0  0  0  0  0
  186.6340  177.9020  144.4240 C   0  0  0  0  0  3  0  0  0  0  0  0
  185.3170  177.8140  145.0790 C   0  0  0  0  0  0  0  0  0  0  0  0
  187.6450  177.0460  146.4730 C   0  0  0  0  0  0  0  0  0  0  0  0
  186.3270  176.9620  147.1260 C   0  0  0  0  0  3  0  0  0  0  0  0
  185.2230  177.3250  146.4670 C   0  0  0  0  0  3  0  0  0  0  0  0
  184.2780  178.1550  144.4580 O   0  0  0  0  0  0  0  0  0  0  0  0
  188.6790  176.7010  147.1060 O   0  0  0  0  0  0  0  0  0  0  0  0
  187.7420  177.5330  145.0770 C   0  0  0  0  0  0  0  0  0  0  0  0
  1 14  1  0  0  0  0
  2  9  1  0  0  0  0
  3 22  1  0  0  0  0
  4 10  1  0  0  0  0
  5  4  1  0  0  0  0
  5 20  1  0  0  0  0
  6 18  1  0  0  0  0
  7 17  1  0  0  0  0
  8  1  1  0  0  0  0
 11 23  1  0  0  0  0
 11  7  2  0  0  0  0
 12 10  1  6  0  0  0
 12 11  1  0  0  0  0
 13 24  1  0  0  0  0
 13 23  1  0  0  0  0
 14 15  1  0  0  0  0
 15 18  1  1  0  0  0
 16  1  1  0  0  0  0
 17  9  1  0  0  0  0
 17  6  2  0  0  0  0
 19  8  1  6  0  0  0
 19  2  1  0  0  0  0
 19 15  1  0  0  0  0
 21 20  1  6  0  0  0
 21 12  1  0  0  0  0
 21 13  1  0  0  0  0
 22  6  1  0  0  0  0
 23  3  2  0  0  0  0
 24 32  1  0  0  0  0
 25 32  2  0  0  0  0
 25 26  1  0  0  0  0
 26 29  1  0  0  0  0
 27 31  2  0  0  0  0
 27 28  1  0  0  0  0
 29 28  2  0  0  0  0
 30 26  2  0  0  0  0
 32 27  1  0  0  0  0
M  END
>  <MODEL>
1

>  <REMARK>
 VINA RESULT:      -8.9      0.000      0.000
  Name = 
  2 active torsions:
  status: ('A' for Active; 'I' for Inactive)
    1  A    between atoms: N_16  and  C_27
    2  A    between atoms: C_27  and  C_32
                            x       y       z     vdW  Elec       q    Type
                         _______ _______ _______ _____ _____    ______ ____

>  <TORSDO>
F 2

$$$$
=
 OpenBabel11052421283D

 32 37  0  0  1  0  0  0  0  0999 V2000
  195.2780  176.0290  142.9220 N   0  0  0  0  0  0  0  0  0  0  0  0
  195.0030  172.7670  144.6280 C   0  0  0  0  0  2  0  0  0  0  0  0
  191.5910  176.9800  144.7700 C   0  0  0  0  0  3  0  0  0  0  0  0
  188.3720  172.9400  141.9090 C   0  0  0  0  0  2  0  0  0  0  0  0
  187.7330  174.2490  141.4320 C   0  0  0  0  0  2  0  0  0  0  0  0
  193.5350  175.4200  145.5330 C   0  0  0  0  0  0  0  0  0  0  0  0
  191.7390  173.8990  144.7270 N   0  0  0  0  0  0  0  0  0  0  0  0
  195.1360  174.5760  142.8470 C   0  0  0  0  0  2  0  0  0  0  0  0
  193.8690  173.0020  145.6330 C   0  0  0  0  0  2  0  0  0  0  0  0
  189.6990  173.1800  142.6170 C   0  0  0  0  0  2  0  0  0  0  0  0
  190.7860  174.6710  144.3080 C   0  0  0  0  0  0  0  0  0  0  0  0
  189.4880  174.1560  143.7830 C   0  0  1  0  0  3  0  0  0  0  0  0
  189.4200  176.4590  143.8510 N   0  0  0  0  0  0  0  0  0  0  0  0
  196.0690  176.3430  144.0480 N   0  0  0  0  0  2  0  0  0  0  0  0
  195.9930  175.2180  144.9700 C   0  0  1  0  0  3  0  0  0  0  0  0
  196.0290  176.4430  141.7500 C   0  0  0  0  0  1  0  0  0  0  0  0
  193.0210  174.1920  145.2980 C   0  0  0  0  0  0  0  0  0  0  0  0
  194.9420  175.5090  146.0530 C   0  0  0  0  0  2  0  0  0  0  0  0
  195.7540  174.0020  144.0900 C   0  0  1  0  0  3  0  0  0  0  0  0
  188.4360  175.4840  141.9970 C   0  0  0  0  0  2  0  0  0  0  0  0
  188.6530  175.3480  143.4430 N   0  0  1  0  0  0  0  0  0  0  0  0
  192.8820  176.6680  145.2830 N   0  0  0  0  0  2  0  0  0  0  0  0
  190.6950  176.0970  144.3550 C   0  0  0  0  0  0  0  0  0  0  0  0
  188.8260  177.7830  144.0140 C   0  0  0  0  0  2  0  0  0  0  0  0
  187.5190  177.2080  145.9980 C   0  0  0  0  0  3  0  0  0  0  0  0
  186.2480  177.0650  146.7310 C   0  0  0  0  0  0  0  0  0  0  0  0
  186.2540  178.0480  144.0880 C   0  0  0  0  0  0  0  0  0  0  0  0
  184.9850  177.9010  144.8230 C   0  0  0  0  0  3  0  0  0  0  0  0
  184.9810  177.4360  146.0760 C   0  0  0  0  0  3  0  0  0  0  0  0
  186.2460  176.6280  147.9110 O   0  0  0  0  0  0  0  0  0  0  0  0
  186.2430  178.4870  142.9070 O   0  0  0  0  0  0  0  0  0  0  0  0
  187.5290  177.6800  144.7460 C   0  0  0  0  0  0  0  0  0  0  0  0
  1 14  1  0  0  0  0
  2  9  1  0  0  0  0
  3 22  1  0  0  0  0
  4 10  1  0  0  0  0
  5  4  1  0  0  0  0
  5 20  1  0  0  0  0
  6 18  1  0  0  0  0
  7 17  1  0  0  0  0
  8  1  1  0  0  0  0
 11 23  1  0  0  0  0
 11  7  2  0  0  0  0
 12 10  1  6  0  0  0
 12 11  1  0  0  0  0
 13 24  1  0  0  0  0
 13 23  1  0  0  0  0
 14 15  1  0  0  0  0
 15 18  1  1  0  0  0
 16  1  1  0  0  0  0
 17  6  2  0  0  0  0
 17  9  1  0  0  0  0
 19  8  1  6  0  0  0
 19  2  1  0  0  0  0
 19 15  1  0  0  0  0
 21 20  1  6  0  0  0
 21 12  1  0  0  0  0
 21 13  1  0  0  0  0
 22  6  1  0  0  0  0
 23  3  2  0  0  0  0
 24 32  1  0  0  0  0
 25 26  1  0  0  0  0
 26 30  2  0  0  0  0
 27 32  1  0  0  0  0
 27 28  1  0  0  0  0
 28 29  2  0  0  0  0
 29 26  1  0  0  0  0
 31 27  2  0  0  0  0
 32 25  2  0  0  0  0
M  END
>  <MODEL>
2

>  <REMARK>
 VINA RESULT:      -8.8      0.724      1.503
  Name = 
  2 active torsions:
  status: ('A' for Active; 'I' for Inactive)
    1  A    between atoms: N_16  and  C_27
    2  A    between atoms: C_27  and  C_32
                            x       y       z     vdW  Elec       q    Type
                         _______ _______ _______ _____ _____    ______ ____

>  <TORSDO>
F 2

$$$$
=
 OpenBabel11052421283D

 32 37  0  0  1  0  0  0  0  0999 V2000
  194.4620  174.5120  142.9330 N   0  0  0  0  0  0  0  0  0  0  0  0
  192.7960  171.3070  142.1730 C   0  0  0  0  0  2  0  0  0  0  0  0
  190.8880  175.5590  144.9470 C   0  0  0  0  0  3  0  0  0  0  0  0
  187.4400  175.6240  140.1540 C   0  0  0  0  0  2  0  0  0  0  0  0
  187.3670  177.0840  140.6150 C   0  0  0  0  0  2  0  0  0  0  0  0
  192.0130  173.2410  144.5510 C   0  0  0  0  0  0  0  0  0  0  0  0
  190.1100  173.3370  142.9540 N   0  0  0  0  0  0  0  0  0  0  0  0
  193.9130  173.5800  141.9500 C   0  0  0  0  0  2  0  0  0  0  0  0
  191.5680  171.3340  143.0920 C   0  0  0  0  0  2  0  0  0  0  0  0
  188.5530  174.8590  140.8590 C   0  0  0  0  0  2  0  0  0  0  0  0
  189.5710  174.5050  143.1170 C   0  0  0  0  0  0  0  0  0  0  0  0
  188.3560  174.9560  142.3780 C   0  0  1  0  0  3  0  0  0  0  0  0
  188.9690  176.5790  143.8950 N   0  0  0  0  0  0  0  0  0  0  0  0
  194.9980  173.7670  144.0060 N   0  0  0  0  0  2  0  0  0  0  0  0
  194.3550  172.4590  144.0010 C   0  0  1  0  0  3  0  0  0  0  0  0
  195.5730  175.1950  142.2960 C   0  0  0  0  0  1  0  0  0  0  0  0
  191.2310  172.7080  143.5870 C   0  0  0  0  0  0  0  0  0  0  0  0
  193.2020  172.4480  145.0160 C   0  0  0  0  0  2  0  0  0  0  0  0
  193.9940  172.2030  142.5480 C   0  0  1  0  0  3  0  0  0  0  0  0
  188.2420  177.3550  141.8410 C   0  0  0  0  0  2  0  0  0  0  0  0
  188.0340  176.3290  142.8700 N   0  0  1  0  0  0  0  0  0  0  0  0
  191.8520  174.5300  145.1500 N   0  0  0  0  0  2  0  0  0  0  0  0
  189.9040  175.5260  144.0600 C   0  0  0  0  0  0  0  0  0  0  0  0
  188.7800  177.6580  144.8610 C   0  0  0  0  0  2  0  0  0  0  0  0
  186.5070  178.5580  144.8100 C   0  0  0  0  0  3  0  0  0  0  0  0
  185.1150  178.6210  145.2870 C   0  0  0  0  0  0  0  0  0  0  0  0
  186.9170  176.7730  146.4230 C   0  0  0  0  0  0  0  0  0  0  0  0
  185.5240  176.8420  146.9000 C   0  0  0  0  0  3  0  0  0  0  0  0
  184.6690  177.7170  146.3620 C   0  0  0  0  0  3  0  0  0  0  0  0
  184.3100  179.4450  144.7800 O   0  0  0  0  0  0  0  0  0  0  0  0
  187.7130  175.9450  146.9400 O   0  0  0  0  0  0  0  0  0  0  0  0
  187.3660  177.6790  145.3400 C   0  0  0  0  0  0  0  0  0  0  0  0
  1 14  1  0  0  0  0
  2 19  1  0  0  0  0
  2  9  1  0  0  0  0
  3 22  1  0  0  0  0
  4  5  1  0  0  0  0
  4 10  1  0  0  0  0
  5 20  1  0  0  0  0
  6 18  1  0  0  0  0
  6 22  1  0  0  0  0
  7 11  2  0  0  0  0
  7 17  1  0  0  0  0
  8  1  1  0  0  0  0
  9 17  1  0  0  0  0
 11 23  1  0  0  0  0
 12 10  1  6  0  0  0
 12 21  1  0  0  0  0
 12 11  1  0  0  0  0
 13 23  1  0  0  0  0
 13 24  1  0  0  0  0
 15 14  1  0  0  0  0
 15 18  1  1  0  0  0
 16  1  1  0  0  0  0
 17  6  2  0  0  0  0
 19  8  1  1  0  0  0
 19 15  1  0  0  0  0
 21 20  1  6  0  0  0
 21 13  1  0  0  0  0
 23  3  2  0  0  0  0
 24 32  1  0  0  0  0
 25 26  1  0  0  0  0
 25 32  2  0  0  0  0
 26 29  1  0  0  0  0
 27 28  1  0  0  0  0
 27 31  2  0  0  0  0
 29 28  2  0  0  0  0
 30 26  2  0  0  0  0
 32 27  1  0  0  0  0
M  END
>  <MODEL>
3

>  <REMARK>
 VINA RESULT:      -7.8      1.584      2.217
  Name = 
  2 active torsions:
  status: ('A' for Active; 'I' for Inactive)
    1  A    between atoms: N_16  and  C_27
    2  A    between atoms: C_27  and  C_32
                            x       y       z     vdW  Elec       q    Type
                         _______ _______ _______ _____ _____    ______ ____

>  <TORSDO>
F 2

$$$$
=
 OpenBabel11052421283D

 32 37  0  0  1  0  0  0  0  0999 V2000
  194.7110  172.4550  142.2290 N   0  0  0  0  0  0  0  0  0  0  0  0
  196.5860  175.2350  143.7710 C   0  0  0  0  0  2  0  0  0  0  0  0
  191.4110  175.1050  142.1550 C   0  0  0  0  0  3  0  0  0  0  0  0
  190.8160  175.5590  148.0130 C   0  0  0  0  0  2  0  0  0  0  0  0
  189.4850  174.9160  147.6090 C   0  0  0  0  0  2  0  0  0  0  0  0
  193.9740  175.5600  142.0170 C   0  0  0  0  0  0  0  0  0  0  0  0
  193.3120  176.1900  144.3300 N   0  0  0  0  0  0  0  0  0  0  0  0
  195.4300  173.0060  143.3760 C   0  0  0  0  0  2  0  0  0  0  0  0
  195.6570  176.4350  143.5550 C   0  0  0  0  0  2  0  0  0  0  0  0
  191.8320  175.5250  146.8780 C   0  0  0  0  0  2  0  0  0  0  0  0
  192.0460  175.9270  144.4170 C   0  0  0  0  0  0  0  0  0  0  0  0
  191.2350  176.2060  145.6390 C   0  0  1  0  0  3  0  0  0  0  0  0
  189.8530  175.4080  143.9750 N   0  0  0  0  0  0  0  0  0  0  0  0
  195.3020  172.9560  141.0480 N   0  0  0  0  0  2  0  0  0  0  0  0
  196.0040  174.1850  141.3920 C   0  0  1  0  0  3  0  0  0  0  0  0
  194.9340  171.0200  142.2370 C   0  0  0  0  0  1  0  0  0  0  0  0
  194.2440  176.0410  143.2510 C   0  0  0  0  0  0  0  0  0  0  0  0
  195.1190  175.3950  141.0560 C   0  0  0  0  0  2  0  0  0  0  0  0
  196.4110  174.0130  142.8460 C   0  0  1  0  0  3  0  0  0  0  0  0
  189.4030  174.6320  146.1080 C   0  0  0  0  0  2  0  0  0  0  0  0
  189.8310  175.8010  145.3300 N   0  0  1  0  0  0  0  0  0  0  0  0
  192.6940  175.1350  141.5390 N   0  0  0  0  0  0  0  0  0  0  0  0
  191.1510  175.4570  143.4060 C   0  0  2  0  0  3  0  0  0  0  0  0
  188.6270  175.2750  143.1940 C   0  0  0  0  0  2  0  0  0  0  0  0
  186.7880  176.4160  144.3310 C   0  0  0  0  0  3  0  0  0  0  0  0
  185.8890  177.5660  144.5350 C   0  0  0  0  0  0  0  0  0  0  0  0
  187.9050  177.6790  142.5660 C   0  0  0  0  0  0  0  0  0  0  0  0
  187.0010  178.8250  142.7700 C   0  0  0  0  0  3  0  0  0  0  0  0
  186.0460  178.7730  143.7030 C   0  0  0  0  0  3  0  0  0  0  0  0
  184.9900  177.5160  145.4140 O   0  0  0  0  0  0  0  0  0  0  0  0
  188.8000  177.7400  141.6810 O   0  0  0  0  0  0  0  0  0  0  0  0
  187.7510  176.4660  143.4030 C   0  0  0  0  0  0  0  0  0  0  0  0
  1 16  1  0  0  0  0
  1  8  1  0  0  0  0
  5  4  1  0  0  0  0
  6 17  2  0  0  0  0
  7 11  2  0  0  0  0
  9  2  1  0  0  0  0
 10  4  1  0  0  0  0
 11 12  1  0  0  0  0
 12 10  1  1  0  0  0
 13 21  1  0  0  0  0
 14 15  1  0  0  0  0
 14  1  1  0  0  0  0
 15 18  1  1  0  0  0
 15 19  1  0  0  0  0
 17  9  1  0  0  0  0
 17  7  1  0  0  0  0
 18  6  1  0  0  0  0
 19  8  1  1  0  0  0
 19  2  1  0  0  0  0
 20  5  1  0  0  0  0
 21 12  1  0  0  0  0
 21 20  1  1  0  0  0
 22  6  1  0  0  0  0
 22  3  2  0  0  0  0
 23  3  1  1  0  0  0
 23 13  1  0  0  0  0
 23 11  1  0  0  0  0
 24 32  1  0  0  0  0
 24 13  1  0  0  0  0
 25 26  1  0  0  0  0
 26 30  2  0  0  0  0
 27 28  1  0  0  0  0
 27 32  1  0  0  0  0
 28 29  2  0  0  0  0
 29 26  1  0  0  0  0
 31 27  2  0  0  0  0
 32 25  2  0  0  0  0
M  END
>  <MODEL>
4

>  <REMARK>
 VINA RESULT:      -7.6      2.186      3.686
  Name = 
  2 active torsions:
  status: ('A' for Active; 'I' for Inactive)
    1  A    between atoms: N_16  and  C_27
    2  A    between atoms: C_27  and  C_32
                            x       y       z     vdW  Elec       q    Type
                         _______ _______ _______ _____ _____    ______ ____

>  <TORSDO>
F 2

$$$$
=
 OpenBabel11052421283D

 32 37  0  0  1  0  0  0  0  0999 V2000
  187.8200  177.2170  145.5650 N   0  0  0  0  0  0  0  0  0  0  0  0
  186.8070  175.5230  142.4460 C   0  0  0  0  0  2  0  0  0  0  0  0
  191.7470  177.1470  143.9860 C   0  0  0  0  0  3  0  0  0  0  0  0
  192.3580  171.2740  144.0330 C   0  0  0  0  0  2  0  0  0  0  0  0
  193.4520  171.7140  145.0130 C   0  0  0  0  0  2  0  0  0  0  0  0
  189.4280  177.2590  142.8010 C   0  0  0  0  0  0  0  0  0  0  0  0
  190.2090  174.9160  142.5130 N   0  0  0  0  0  0  0  0  0  0  0  0
  187.2740  176.0410  144.8900 C   0  0  0  0  0  2  0  0  0  0  0  0
  188.0470  175.6740  141.5570 C   0  0  0  0  0  2  0  0  0  0  0  0
  191.3940  172.4080  143.7110 C   0  0  0  0  0  2  0  0  0  0  0  0
  191.3430  174.8430  143.1350 C   0  0  0  0  0  0  0  0  0  0  0  0
  192.1810  173.6090  143.1680 C   0  0  1  0  0  3  0  0  0  0  0  0
  193.2970  175.3140  144.2440 N   0  0  0  0  0  0  0  0  0  0  0  0
  187.4170  178.3680  144.8530 N   0  0  0  0  0  2  0  0  0  0  0  0
  187.0960  177.9570  143.4930 C   0  0  1  0  0  3  0  0  0  0  0  0
  187.1900  177.2880  146.8720 C   0  0  0  0  0  1  0  0  0  0  0  0
  189.2900  176.0010  142.3280 C   0  0  0  0  0  0  0  0  0  0  0  0
  188.2990  178.2270  142.5750 C   0  0  0  0  0  2  0  0  0  0  0  0
  186.6350  176.5140  143.6150 C   0  0  1  0  0  3  0  0  0  0  0  0
  193.4710  173.2280  145.2290 C   0  0  0  0  0  2  0  0  0  0  0  0
  193.4120  173.9410  143.9470 N   0  0  1  0  0  0  0  0  0  0  0  0
  190.5370  177.7600  143.5530 N   0  0  0  0  0  0  0  0  0  0  0  0
  192.0780  175.8790  143.7910 C   0  0  2  0  0  3  0  0  0  0  0  0
  194.4440  176.1030  144.6860 C   0  0  0  0  0  2  0  0  0  0  0  0
  195.6570  176.2730  142.5700 C   0  0  0  0  0  3  0  0  0  0  0  0
  196.8010  175.9750  141.6910 C   0  0  0  0  0  0  0  0  0  0  0  0
  196.7530  174.9890  144.3320 C   0  0  0  0  0  0  0  0  0  0  0  0
  197.8930  174.6900  143.4480 C   0  0  0  0  0  3  0  0  0  0  0  0
  197.9180  175.1570  142.1970 C   0  0  0  0  0  3  0  0  0  0  0  0
  196.8240  176.4160  140.5130 O   0  0  0  0  0  0  0  0  0  0  0  0
  196.7410  174.5410  145.5100 O   0  0  0  0  0  0  0  0  0  0  0  0
  195.6310  175.8140  143.8270 C   0  0  0  0  0  0  0  0  0  0  0  0
  1 16  1  0  0  0  0
  4  5  1  0  0  0  0
  5 20  1  0  0  0  0
  6 22  1  0  0  0  0
  7 11  2  0  0  0  0
  8  1  1  0  0  0  0
  9 17  1  0  0  0  0
  9  2  1  0  0  0  0
 10  4  1  0  0  0  0
 11 12  1  0  0  0  0
 11 23  1  0  0  0  0
 12 10  1  1  0  0  0
 12 21  1  0  0  0  0
 13 24  1  0  0  0  0
 14  1  1  0  0  0  0
 15 18  1  6  0  0  0
 15 19  1  0  0  0  0
 15 14  1  0  0  0  0
 17  7  1  0  0  0  0
 17  6  2  0  0  0  0
 18  6  1  0  0  0  0
 19  2  1  6  0  0  0
 19  8  1  0  0  0  0
 21 13  1  0  0  0  0
 21 20  1  1  0  0  0
 22  3  2  0  0  0  0
 23  3  1  1  0  0  0
 23 13  1  0  0  0  0
 25 32  2  0  0  0  0
 26 29  1  0  0  0  0
 26 25  1  0  0  0  0
 27 31  2  0  0  0  0
 28 27  1  0  0  0  0
 29 28  2  0  0  0  0
 30 26  2  0  0  0  0
 32 27  1  0  0  0  0
 32 24  1  0  0  0  0
M  END
>  <MODEL>
5

>  <REMARK>
 VINA RESULT:      -7.3      3.204      7.874
  Name = 
  2 active torsions:
  status: ('A' for Active; 'I' for Inactive)
    1  A    between atoms: N_16  and  C_27
    2  A    between atoms: C_27  and  C_32
                            x       y       z     vdW  Elec       q    Type
                         _______ _______ _______ _____ _____    ______ ____

>  <TORSDO>
F 2

$$$$
=
 OpenBabel11052421283D

 32 37  0  0  1  0  0  0  0  0999 V2000
  195.6180  172.9860  142.8680 N   0  0  0  0  0  0  0  0  0  0  0  0
  193.9250  169.7240  143.2090 C   0  0  0  0  0  2  0  0  0  0  0  0
  192.3580  174.5800  145.0480 C   0  0  0  0  0  3  0  0  0  0  0  0
  188.2440  173.4740  140.9590 C   0  0  0  0  0  2  0  0  0  0  0  0
  188.2100  175.0040  141.0350 C   0  0  0  0  0  2  0  0  0  0  0  0
  193.4600  172.2180  145.1000 C   0  0  0  0  0  0  0  0  0  0  0  0
  191.3410  171.9350  143.8280 N   0  0  0  0  0  0  0  0  0  0  0  0
  194.9510  171.8420  142.2490 C   0  0  0  0  0  2  0  0  0  0  0  0
  192.8450  170.0080  144.2610 C   0  0  0  0  0  2  0  0  0  0  0  0
  189.4640  172.8960  141.6650 C   0  0  0  0  0  2  0  0  0  0  0  0
  190.8090  173.1150  143.7640 C   0  0  0  0  0  0  0  0  0  0  0  0
  189.4900  173.3830  143.1200 C   0  0  1  0  0  3  0  0  0  0  0  0
  190.2850  175.3300  144.0630 N   0  0  0  0  0  0  0  0  0  0  0  0
  196.3210  172.5320  144.0050 N   0  0  0  0  0  2  0  0  0  0  0  0
  195.7120  171.2790  144.4310 C   0  0  1  0  0  3  0  0  0  0  0  0
  196.6110  173.4620  141.9210 C   0  0  0  0  0  1  0  0  0  0  0  0
  192.5560  171.4690  144.4300 C   0  0  0  0  0  0  0  0  0  0  0  0
  194.7200  171.5500  145.5730 C   0  0  0  0  0  2  0  0  0  0  0  0
  195.1470  170.6640  143.1610 C   0  0  1  0  0  3  0  0  0  0  0  0
  189.2490  175.5660  142.0080 C   0  0  0  0  0  2  0  0  0  0  0  0
  189.2150  174.8420  143.2850 N   0  0  1  0  0  0  0  0  0  0  0  0
  193.3620  173.6210  145.3640 N   0  0  0  0  0  2  0  0  0  0  0  0
  191.2560  174.3380  144.3540 C   0  0  0  0  0  0  0  0  0  0  0  0
  190.2180  176.6240  144.7360 C   0  0  0  0  0  2  0  0  0  0  0  0
  188.0500  177.7530  144.6660 C   0  0  0  0  0  3  0  0  0  0  0  0
  186.7000  178.0260  145.1890 C   0  0  0  0  0  0  0  0  0  0  0  0
  188.3620  176.1460  146.4760 C   0  0  0  0  0  0  0  0  0  0  0  0
  187.0130  176.4250  146.9980 C   0  0  0  0  0  3  0  0  0  0  0  0
  186.2240  177.3140  146.3890 C   0  0  0  0  0  3  0  0  0  0  0  0
  185.9570  178.8640  144.6150 O   0  0  0  0  0  0  0  0  0  0  0  0
  189.0970  175.3060  147.0600 O   0  0  0  0  0  0  0  0  0  0  0  0
  188.8420  176.8580  145.2680 C   0  0  0  0  0  0  0  0  0  0  0  0
  1 14  1  0  0  0  0
  2  9  1  0  0  0  0
  3 22  1  0  0  0  0
  4  5  1  0  0  0  0
  4 10  1  0  0  0  0
  5 20  1  0  0  0  0
  6 22  1  0  0  0  0
  6 18  1  0  0  0  0
  7 17  1  0  0  0  0
  8  1  1  0  0  0  0
  9 17  1  0  0  0  0
 11  7  2  0  0  0  0
 11 23  1  0  0  0  0
 12 10  1  6  0  0  0
 12 21  1  0  0  0  0
 12 11  1  0  0  0  0
 13 23  1  0  0  0  0
 13 24  1  0  0  0  0
 14 15  1  0  0  0  0
 15 18  1  1  0  0  0
 16  1  1  0  0  0  0
 17  6  2  0  0  0  0
 19  8  1  6  0  0  0
 19  2  1  0  0  0  0
 19 15  1  0  0  0  0
 21 20  1  6  0  0  0
 21 13  1  0  0  0  0
 23  3  2  0  0  0  0
 24 32  1  0  0  0  0
 25 26  1  0  0  0  0
 25 32  2  0  0  0  0
 26 29  1  0  0  0  0
 27 28  1  0  0  0  0
 27 31  2  0  0  0  0
 29 28  2  0  0  0  0
 30 26  2  0  0  0  0
 32 27  1  0  0  0  0
M  END
>  <MODEL>
6

>  <REMARK>
 VINA RESULT:      -7.2      1.738      2.245
  Name = 
  2 active torsions:
  status: ('A' for Active; 'I' for Inactive)
    1  A    between atoms: N_16  and  C_27
    2  A    between atoms: C_27  and  C_32
                            x       y       z     vdW  Elec       q    Type
                         _______ _______ _______ _____ _____    ______ ____

>  <TORSDO>
F 2

$$$$
=
 OpenBabel11052421283D

 32 37  0  0  1  0  0  0  0  0999 V2000
  193.1250  171.8510  143.2870 N   0  0  0  0  0  0  0  0  0  0  0  0
  195.1990  174.9040  143.2670 C   0  0  0  0  0  2  0  0  0  0  0  0
  189.9620  174.3400  141.9740 C   0  0  0  0  0  3  0  0  0  0  0  0
  189.6290  177.6050  146.8830 C   0  0  0  0  0  2  0  0  0  0  0  0
  188.2520  176.9330  146.8570 C   0  0  0  0  0  2  0  0  0  0  0  0
  192.5370  174.5060  141.6040 C   0  0  0  0  0  0  0  0  0  0  0  0
  192.0020  176.2170  143.3290 N   0  0  0  0  0  0  0  0  0  0  0  0
  193.9160  172.8410  144.0150 C   0  0  0  0  0  2  0  0  0  0  0  0
  194.3230  175.9070  142.5060 C   0  0  0  0  0  2  0  0  0  0  0  0
  190.5950  176.9630  145.8960 C   0  0  0  0  0  2  0  0  0  0  0  0
  190.7290  176.1110  143.5470 C   0  0  0  0  0  0  0  0  0  0  0  0
  189.9840  176.9960  144.4880 C   0  0  1  0  0  3  0  0  0  0  0  0
  188.4970  175.5840  143.4360 N   0  0  0  0  0  0  0  0  0  0  0  0
  193.6920  171.6810  142.0050 N   0  0  0  0  0  2  0  0  0  0  0  0
  194.4680  172.8750  141.7020 C   0  0  1  0  0  3  0  0  0  0  0  0
  193.2760  170.5880  143.9870 C   0  0  0  0  0  1  0  0  0  0  0  0
  192.8800  175.5060  142.4470 C   0  0  0  0  0  0  0  0  0  0  0  0
  193.6320  173.8260  140.8310 C   0  0  0  0  0  2  0  0  0  0  0  0
  194.9240  173.4020  143.0520 C   0  0  1  0  0  3  0  0  0  0  0  0
  188.0950  175.9650  145.6820 C   0  0  0  0  0  2  0  0  0  0  0  0
  188.5490  176.5820  144.4300 N   0  0  1  0  0  0  0  0  0  0  0  0
  191.2190  173.9860  141.4060 N   0  0  0  0  0  0  0  0  0  0  0  0
  189.7710  175.2680  142.9010 C   0  0  2  0  0  3  0  0  0  0  0  0
  187.2350  175.1670  142.8310 C   0  0  0  0  0  2  0  0  0  0  0  0
  185.5390  176.8930  143.1830 C   0  0  0  0  0  3  0  0  0  0  0  0
  184.7420  178.0520  142.7450 C   0  0  0  0  0  0  0  0  0  0  0  0
  186.6770  176.9340  141.0250 C   0  0  0  0  0  0  0  0  0  0  0  0
  185.8740  178.0900  140.5880 C   0  0  0  0  0  3  0  0  0  0  0  0
  184.9580  178.6220  141.4030 C   0  0  0  0  0  3  0  0  0  0  0  0
  183.8790  178.5520  143.5120 O   0  0  0  0  0  0  0  0  0  0  0  0
  187.5370  176.4410  140.2460 O   0  0  0  0  0  0  0  0  0  0  0  0
  186.4630  176.3620  142.3750 C   0  0  0  0  0  0  0  0  0  0  0  0
  1 16  1  0  0  0  0
  1  8  1  0  0  0  0
  5  4  1  0  0  0  0
  6 17  2  0  0  0  0
  7 11  2  0  0  0  0
  9  2  1  0  0  0  0
 10  4  1  0  0  0  0
 11 12  1  0  0  0  0
 12 10  1  1  0  0  0
 13 21  1  0  0  0  0
 14  1  1  0  0  0  0
 15 18  1  1  0  0  0
 15 14  1  0  0  0  0
 15 19  1  0  0  0  0
 17  9  1  0  0  0  0
 17  7  1  0  0  0  0
 18  6  1  0  0  0  0
 19  2  1  6  0  0  0
 19  8  1  0  0  0  0
 20  5  1  0  0  0  0
 21 12  1  0  0  0  0
 21 20  1  1  0  0  0
 22  6  1  0  0  0  0
 22  3  2  0  0  0  0
 23  3  1  1  0  0  0
 23 13  1  0  0  0  0
 23 11  1  0  0  0  0
 24 13  1  0  0  0  0
 26 25  1  0  0  0  0
 26 30  2  0  0  0  0
 27 32  1  0  0  0  0
 28 27  1  0  0  0  0
 28 29  2  0  0  0  0
 29 26  1  0  0  0  0
 31 27  2  0  0  0  0
 32 24  1  0  0  0  0
 32 25  2  0  0  0  0
M  END
>  <MODEL>
7

>  <REMARK>
 VINA RESULT:      -7.2      2.381      4.274
  Name = 
  2 active torsions:
  status: ('A' for Active; 'I' for Inactive)
    1  A    between atoms: N_16  and  C_27
    2  A    between atoms: C_27  and  C_32
                            x       y       z     vdW  Elec       q    Type
                         _______ _______ _______ _____ _____    ______ ____

>  <TORSDO>
F 2

$$$$
=
 OpenBabel11052421283D

 32 37  0  0  1  0  0  0  0  0999 V2000
  194.7910  172.1520  141.8800 N   0  0  0  0  0  0  0  0  0  0  0  0
  196.6590  175.3300  142.0620 C   0  0  0  0  0  2  0  0  0  0  0  0
  191.2960  174.5270  142.1240 C   0  0  0  0  0  3  0  0  0  0  0  0
  192.2600  176.5350  147.5930 C   0  0  0  0  0  2  0  0  0  0  0  0
  190.9580  175.7460  147.7710 C   0  0  0  0  0  2  0  0  0  0  0  0
  193.6490  175.0440  141.1300 C   0  0  0  0  0  0  0  0  0  0  0  0
  193.5670  176.2500  143.3030 N   0  0  0  0  0  0  0  0  0  0  0  0
  195.7210  173.0280  142.5910 C   0  0  0  0  0  2  0  0  0  0  0  0
  195.5660  176.3820  141.8370 C   0  0  0  0  0  2  0  0  0  0  0  0
  192.9260  176.2400  146.2550 C   0  0  0  0  0  2  0  0  0  0  0  0
  192.4140  175.9640  143.8210 C   0  0  0  0  0  0  0  0  0  0  0  0
  191.9370  176.5280  145.1180 C   0  0  1  0  0  3  0  0  0  0  0  0
  190.2650  175.2440  144.1870 N   0  0  0  0  0  0  0  0  0  0  0  0
  194.9740  172.3380  140.4920 N   0  0  0  0  0  2  0  0  0  0  0  0
  195.5870  173.6460  140.2980 C   0  0  1  0  0  3  0  0  0  0  0  0
  195.1830  170.7860  142.1770 C   0  0  0  0  0  1  0  0  0  0  0  0
  194.1820  175.8550  142.0700 C   0  0  0  0  0  0  0  0  0  0  0  0
  194.5020  174.6760  139.9480 C   0  0  0  0  0  2  0  0  0  0  0  0
  196.3900  173.8960  141.5630 C   0  0  1  0  0  3  0  0  0  0  0  0
  190.5080  175.0590  146.4800 C   0  0  0  0  0  2  0  0  0  0  0  0
  190.5620  175.9900  145.3460 N   0  0  1  0  0  0  0  0  0  0  0  0
  192.3500  174.4470  141.1700 N   0  0  0  0  0  0  0  0  0  0  0  0
  191.3440  175.1950  143.2680 C   0  0  2  0  0  3  0  0  0  0  0  0
  188.8990  174.8460  143.8590 C   0  0  0  0  0  2  0  0  0  0  0  0
  188.1070  176.4190  142.1640 C   0  0  0  0  0  3  0  0  0  0  0  0
  187.3530  177.6110  141.7350 C   0  0  0  0  0  0  0  0  0  0  0  0
  187.3390  176.8260  144.4440 C   0  0  0  0  0  0  0  0  0  0  0  0
  186.5900  178.0190  144.0130 C   0  0  0  0  0  3  0  0  0  0  0  0
  186.5950  178.3910  142.7300 C   0  0  0  0  0  3  0  0  0  0  0  0
  187.3580  177.9610  140.5270 O   0  0  0  0  0  0  0  0  0  0  0  0
  187.3270  176.4870  145.6580 O   0  0  0  0  0  0  0  0  0  0  0  0
  188.1000  176.0380  143.4460 C   0  0  0  0  0  0  0  0  0  0  0  0
  1 16  1  0  0  0  0
  1  8  1  0  0  0  0
  4  5  1  0  0  0  0
  6 22  1  0  0  0  0
  6 17  2  0  0  0  0
  7 11  2  0  0  0  0
  9  2  1  0  0  0  0
  9 17  1  0  0  0  0
 10  4  1  0  0  0  0
 11 12  1  0  0  0  0
 12 21  1  0  0  0  0
 12 10  1  1  0  0  0
 13 21  1  0  0  0  0
 14  1  1  0  0  0  0
 15 18  1  1  0  0  0
 15 14  1  0  0  0  0
 15 19  1  0  0  0  0
 17  7  1  0  0  0  0
 18  6  1  0  0  0  0
 19  2  1  1  0  0  0
 19  8  1  0  0  0  0
 20  5  1  0  0  0  0
 21 20  1  1  0  0  0
 22  3  2  0  0  0  0
 23  3  1  1  0  0  0
 23 11  1  0  0  0  0
 23 13  1  0  0  0  0
 24 13  1  0  0  0  0
 25 32  2  0  0  0  0
 26 25  1  0  0  0  0
 26 29  1  0  0  0  0
 27 31  2  0  0  0  0
 28 27  1  0  0  0  0
 29 28  2  0  0  0  0
 30 26  2  0  0  0  0
 32 24  1  0  0  0  0
 32 27  1  0  0  0  0
M  END
>  <MODEL>
8

>  <REMARK>
 VINA RESULT:      -7.0      2.312      4.170
  Name = 
  2 active torsions:
  status: ('A' for Active; 'I' for Inactive)
    1  A    between atoms: N_16  and  C_27
    2  A    between atoms: C_27  and  C_32
                            x       y       z     vdW  Elec       q    Type
                         _______ _______ _______ _____ _____    ______ ____

>  <TORSDO>
F 2

$$$$
=
 OpenBabel11052421283D

 32 37  0  0  1  0  0  0  0  0999 V2000
  195.0650  169.1610  146.4800 N   0  0  0  0  0  0  0  0  0  0  0  0
  197.6560  170.8880  144.4980 C   0  0  0  0  0  2  0  0  0  0  0  0
  192.2750  171.5550  144.3800 C   0  0  0  0  0  3  0  0  0  0  0  0
  194.0660  176.7280  146.5950 C   0  0  0  0  0  2  0  0  0  0  0  0
  192.6270  176.6430  147.1150 C   0  0  0  0  0  2  0  0  0  0  0  0
  194.6110  170.6350  143.6780 C   0  0  0  0  0  0  0  0  0  0  0  0
  194.9710  173.0420  144.1890 N   0  0  0  0  0  0  0  0  0  0  0  0
  196.2250  170.0490  146.4240 C   0  0  0  0  0  2  0  0  0  0  0  0
  196.8390  171.6020  143.4150 C   0  0  0  0  0  2  0  0  0  0  0  0
  194.5480  175.3960  146.0350 C   0  0  0  0  0  2  0  0  0  0  0  0
  193.8210  173.4960  144.5780 C   0  0  0  0  0  0  0  0  0  0  0  0
  193.5850  174.9240  144.9380 C   0  0  1  0  0  3  0  0  0  0  0  0
  191.5910  173.7720  145.0490 N   0  0  0  0  0  0  0  0  0  0  0  0
  195.1930  168.1930  145.4610 N   0  0  0  0  0  2  0  0  0  0  0  0
  196.0900  168.7320  144.4480 C   0  0  1  0  0  3  0  0  0  0  0  0
  195.1320  168.4540  147.7460 C   0  0  0  0  0  1  0  0  0  0  0  0
  195.3880  171.7380  143.7640 C   0  0  0  0  0  0  0  0  0  0  0  0
  195.2670  169.3360  143.3000 C   0  0  0  0  0  2  0  0  0  0  0  0
  197.0140  169.6740  145.2010 C   0  0  1  0  0  3  0  0  0  0  0  0
  191.9370  175.3360  146.7190 C   0  0  0  0  0  2  0  0  0  0  0  0
  192.1390  175.0480  145.2940 N   0  0  1  0  0  0  0  0  0  0  0  0
  193.2120  170.5650  143.9660 N   0  0  0  0  0  0  0  0  0  0  0  0
  192.5610  172.8230  144.6380 C   0  0  2  0  0  3  0  0  0  0  0  0
  190.1500  173.5620  144.9390 C   0  0  0  0  0  2  0  0  0  0  0  0
  188.9710  175.6540  144.4810 C   0  0  0  0  0  3  0  0  0  0  0  0
  188.3490  176.6330  143.5720 C   0  0  0  0  0  0  0  0  0  0  0  0
  189.5670  174.3120  142.5320 C   0  0  0  0  0  0  0  0  0  0  0  0
  188.9410  175.2920  141.6260 C   0  0  0  0  0  3  0  0  0  0  0  0
  188.3640  176.3920  142.1180 C   0  0  0  0  0  3  0  0  0  0  0  0
  187.8060  177.6700  144.0350 O   0  0  0  0  0  0  0  0  0  0  0  0
  190.1070  173.2780  142.0560 O   0  0  0  0  0  0  0  0  0  0  0  0
  189.5560  174.5550  143.9940 C   0  0  0  0  0  0  0  0  0  0  0  0
  1 16  1  0  0  0  0
  4  5  1  0  0  0  0
  6 17  2  0  0  0  0
  6 22  1  0  0  0  0
  7 11  2  0  0  0  0
  8  1  1  0  0  0  0
  9 17  1  0  0  0  0
  9  2  1  0  0  0  0
 10  4  1  0  0  0  0
 11 23  1  0  0  0  0
 11 12  1  0  0  0  0
 12 21  1  0  0  0  0
 12 10  1  1  0  0  0
 13 21  1  0  0  0  0
 14  1  1  0  0  0  0
 15 18  1  6  0  0  0
 15 19  1  0  0  0  0
 15 14  1  0  0  0  0
 17  7  1  0  0  0  0
 18  6  1  0  0  0  0
 19  2  1  6  0  0  0
 19  8  1  0  0  0  0
 20  5  1  0  0  0  0
 21 20  1  1  0  0  0
 22  3  2  0  0  0  0
 23  3  1  1  0  0  0
 23 13  1  0  0  0  0
 24 13  1  0  0  0  0
 26 30  2  0  0  0  0
 26 25  1  0  0  0  0
 27 32  1  0  0  0  0
 28 29  2  0  0  0  0
 28 27  1  0  0  0  0
 29 26  1  0  0  0  0
 31 27  2  0  0  0  0
 32 25  2  0  0  0  0
 32 24  1  0  0  0  0
M  END
>  <MODEL>
9

>  <REMARK>
 VINA RESULT:      -7.0      2.947      5.459
  Name = 
  2 active torsions:
  status: ('A' for Active; 'I' for Inactive)
    1  A    between atoms: N_16  and  C_27
    2  A    between atoms: C_27  and  C_32
                            x       y       z     vdW  Elec       q    Type
                         _______ _______ _______ _____ _____    ______ ____

>  <TORSDO>
F 2

$$$$
