=
 OpenBabel11052417583D

 31 36  0  0  1  0  0  0  0  0999 V2000
  189.6000  177.7460  145.7570 O   0  0  0  0  0  0  0  0  0  0  0  0
  192.5160  176.1410  144.0670 C   0  0  1  0  0  3  0  0  0  0  0  0
  189.2820  174.5630  146.4840 C   0  0  0  0  0  1  0  0  0  0  0  0
  189.4560  175.4160  145.2340 C   0  0  2  0  0  3  0  0  0  0  0  0
  190.3830  176.6230  145.4110 C   0  0  2  0  0  0  0  0  0  0  0  0
  190.5130  177.3640  142.8540 C   0  0  0  0  0  2  0  0  0  0  0  0
  191.6720  176.3630  146.6810 S   0  0  0  0  0  0  0  0  0  0  0  0
  191.1760  176.8520  144.1210 C   0  0  0  0  0  0  0  0  0  0  0  0
  188.2790  177.4870  145.3380 C   0  0  1  0  0  3  0  0  0  0  0  0
  188.1340  176.0410  144.9150 C   0  0  0  0  0  2  0  0  0  0  0  0
  192.7930  175.5840  145.4650 C   0  0  2  0  0  3  0  0  0  0  0  0
  191.3320  178.3070  143.7200 C   0  0  0  0  0  2  0  0  0  0  0  0
  192.5460  175.0580  143.0280 C   0  0  0  0  0  0  0  0  0  0  0  0
  193.1420  174.2200  140.8430 C   0  0  0  0  0  3  0  0  0  0  0  0
  193.1290  175.2640  141.7700 C   0  0  0  0  0  3  0  0  0  0  0  0
  192.5950  173.0160  141.1610 N   0  0  0  0  0  0  0  0  0  0  0  0
  191.5350  171.6650  142.6430 O   0  0  0  0  0  0  0  0  0  0  0  0
  191.9960  173.8110  143.3340 C   0  0  0  0  0  2  0  0  0  0  0  0
  192.0290  172.7920  142.3790 C   0  0  0  0  0  0  0  0  0  0  0  0
  185.0970  178.3320  144.9250 C   0  0  0  0  0  2  0  0  0  0  0  0
  187.6880  177.8310  147.6150 O   0  0  0  0  0  0  0  0  0  0  0  0
  183.9500  178.7380  145.7280 C   0  0  0  0  0  2  0  0  0  0  0  0
  184.8010  178.5650  146.8670 N   0  0  0  0  0  2  0  0  0  0  0  0
  187.2990  177.8210  146.4190 C   0  0  0  0  0  0  0  0  0  0  0  0
  185.9460  178.1690  146.1170 N   0  0  0  0  0  0  0  0  0  0  0  0
  196.3830  174.6750  145.4770 O   0  0  0  0  0  0  0  0  0  0  0  0
  194.2540  175.7290  145.8940 C   0  0  1  0  0  3  0  0  0  0  0  0
  195.7720  176.5160  143.9900 C   0  0  0  0  0  2  0  0  0  0  0  0
  196.4640  175.1510  144.1560 C   0  0  0  0  0  2  0  0  0  0  0  0
  195.0220  174.4150  145.7060 C   0  0  0  0  0  2  0  0  0  0  0  0
  194.9680  176.9210  145.2330 C   0  0  0  0  0  2  0  0  0  0  0  0
  2 13  1  6  0  0  0
  2  8  1  0  0  0  0
  2 11  1  0  0  0  0
  4  5  1  0  0  0  0
  4  3  1  1  0  0  0
  5  1  1  1  0  0  0
  5  7  1  0  0  0  0
  6 12  1  0  0  0  0
  6  8  1  0  0  0  0
  8  5  1  0  0  0  0
  9  1  1  0  0  0  0
  9 24  1  1  0  0  0
 10  4  1  0  0  0  0
 10  9  1  0  0  0  0
 11 27  1  0  0  0  0
 11  7  1  1  0  0  0
 12  8  1  0  0  0  0
 13 18  1  0  0  0  0
 14 16  2  0  0  0  0
 14 15  1  0  0  0  0
 15 13  2  0  0  0  0
 16 19  1  0  0  0  0
 19 17  2  0  0  0  0
 19 18  1  0  0  0  0
 20 22  1  0  0  0  0
 20 25  1  0  0  0  0
 22 23  1  0  0  0  0
 24 21  2  0  0  0  0
 25 24  1  0  0  0  0
 25 23  1  0  0  0  0
 26 30  1  0  0  0  0
 27 31  1  6  0  0  0
 28 29  1  0  0  0  0
 28 31  1  0  0  0  0
 29 26  1  0  0  0  0
 30 27  1  0  0  0  0
M  END
>  <MODEL>
1

>  <REMARK>
 VINA RESULT:      -7.8      0.000      0.000
  Name = 
  3 active torsions:
  status: ('A' for Active; 'I' for Inactive)
    1  A    between atoms: C_4  and  C_5
    2  A    between atoms: C_12  and  C_27
    3  A    between atoms: C_19  and  C_22
                            x       y       z     vdW  Elec       q    Type
                         _______ _______ _______ _____ _____    ______ ____

>  <TORSDO>
F 3

$$$$
=
 OpenBabel11052417583D

 31 36  0  0  1  0  0  0  0  0999 V2000
  192.5040  176.0720  144.0130 O   0  0  0  0  0  0  0  0  0  0  0  0
  188.8600  176.6630  143.4610 C   0  0  1  0  0  3  0  0  0  0  0  0
  191.0510  174.2920  146.3540 C   0  0  0  0  0  1  0  0  0  0  0  0
  191.0160  175.7300  145.8560 C   0  0  2  0  0  3  0  0  0  0  0  0
  191.1430  175.8810  144.3360 C   0  0  2  0  0  0  0  0  0  0  0  0
  190.6250  178.4910  144.1810 C   0  0  0  0  0  2  0  0  0  0  0  0
  190.4930  174.4440  143.4110 S   0  0  0  0  0  0  0  0  0  0  0  0
  190.2720  177.0480  143.8640 C   0  0  0  0  0  0  0  0  0  0  0  0
  193.1530  176.5410  145.1750 C   0  0  1  0  0  3  0  0  0  0  0  0
  192.2350  176.4260  146.3730 C   0  0  0  0  0  2  0  0  0  0  0  0
  188.8000  175.1340  143.4160 C   0  0  2  0  0  3  0  0  0  0  0  0
  190.9050  177.9250  142.7990 C   0  0  0  0  0  2  0  0  0  0  0  0
  187.8270  177.2250  144.3940 C   0  0  0  0  0  0  0  0  0  0  0  0
  186.6870  177.2840  146.5220 C   0  0  0  0  0  3  0  0  0  0  0  0
  187.6540  176.7180  145.6900 C   0  0  0  0  0  3  0  0  0  0  0  0
  185.9240  178.3200  146.0790 N   0  0  0  0  0  0  0  0  0  0  0  0
  185.3590  179.7920  144.4500 O   0  0  0  0  0  0  0  0  0  0  0  0
  187.0350  178.2930  143.9640 C   0  0  0  0  0  2  0  0  0  0  0  0
  186.0790  178.8320  144.8280 C   0  0  0  0  0  0  0  0  0  0  0  0
  195.7620  176.3880  143.1320 C   0  0  0  0  0  2  0  0  0  0  0  0
  194.5500  175.1150  146.4650 O   0  0  0  0  0  0  0  0  0  0  0  0
  197.0690  175.7460  143.0570 C   0  0  0  0  0  2  0  0  0  0  0  0
  196.7740  175.2010  144.3470 N   0  0  0  0  0  2  0  0  0  0  0  0
  194.4280  175.7950  145.4140 C   0  0  0  0  0  0  0  0  0  0  0  0
  195.4890  175.8060  144.4560 N   0  0  0  0  0  0  0  0  0  0  0  0
  188.0840  174.5650  139.8280 O   0  0  0  0  0  0  0  0  0  0  0  0
  187.9860  174.5970  142.2380 C   0  0  1  0  0  3  0  0  0  0  0  0
  189.1820  172.7130  140.9850 C   0  0  0  0  0  2  0  0  0  0  0  0
  189.1820  173.6860  139.7920 C   0  0  0  0  0  2  0  0  0  0  0  0
  188.2850  175.3800  140.9540 C   0  0  0  0  0  2  0  0  0  0  0  0
  188.1290  173.0780  142.0390 C   0  0  0  0  0  2  0  0  0  0  0  0
  1  5  1  0  0  0  0
  1  9  1  0  0  0  0
  2  8  1  0  0  0  0
  2 13  1  1  0  0  0
  4  3  1  6  0  0  0
  4 10  1  0  0  0  0
  5  7  1  6  0  0  0
  5  4  1  0  0  0  0
  8  6  1  0  0  0  0
  8  5  1  0  0  0  0
  9 24  1  1  0  0  0
  9 10  1  0  0  0  0
 11  7  1  6  0  0  0
 11  2  1  0  0  0  0
 12  8  1  0  0  0  0
 12  6  1  0  0  0  0
 13 15  2  0  0  0  0
 15 14  1  0  0  0  0
 16 14  2  0  0  0  0
 17 19  2  0  0  0  0
 18 13  1  0  0  0  0
 18 19  1  0  0  0  0
 19 16  1  0  0  0  0
 20 25  1  0  0  0  0
 22 20  1  0  0  0  0
 22 23  1  0  0  0  0
 23 25  1  0  0  0  0
 24 21  2  0  0  0  0
 25 24  1  0  0  0  0
 26 30  1  0  0  0  0
 27 30  1  6  0  0  0
 27 11  1  0  0  0  0
 28 31  1  0  0  0  0
 29 26  1  0  0  0  0
 29 28  1  0  0  0  0
 31 27  1  0  0  0  0
M  END
>  <MODEL>
2

>  <REMARK>
 VINA RESULT:      -7.4      2.741      7.462
  Name = 
  3 active torsions:
  status: ('A' for Active; 'I' for Inactive)
    1  A    between atoms: C_4  and  C_5
    2  A    between atoms: C_12  and  C_27
    3  A    between atoms: C_19  and  C_22
                            x       y       z     vdW  Elec       q    Type
                         _______ _______ _______ _____ _____    ______ ____

>  <TORSDO>
F 3

$$$$
=
 OpenBabel11052417583D

 31 36  0  0  1  0  0  0  0  0999 V2000
  191.8940  175.7200  143.4690 O   0  0  0  0  0  0  0  0  0  0  0  0
  188.4200  176.9240  144.1170 C   0  0  1  0  0  3  0  0  0  0  0  0
  190.4570  173.2020  145.0040 C   0  0  0  0  0  1  0  0  0  0  0  0
  190.6580  174.6930  145.2420 C   0  0  2  0  0  3  0  0  0  0  0  0
  190.5870  175.5540  143.9770 C   0  0  2  0  0  0  0  0  0  0  0  0
  190.6230  177.9440  145.1580 C   0  0  0  0  0  2  0  0  0  0  0  0
  189.5130  174.8440  142.6780 S   0  0  0  0  0  0  0  0  0  0  0  0
  189.9250  176.8950  144.3090 C   0  0  0  0  0  0  0  0  0  0  0  0
  192.7930  175.4790  144.5280 C   0  0  1  0  0  3  0  0  0  0  0  0
  192.0610  174.8980  145.7190 C   0  0  0  0  0  2  0  0  0  0  0  0
  188.0280  175.6340  143.3930 C   0  0  2  0  0  3  0  0  0  0  0  0
  190.5660  178.1020  143.6470 C   0  0  0  0  0  2  0  0  0  0  0  0
  187.6820  177.0710  145.4160 C   0  0  0  0  0  0  0  0  0  0  0  0
  187.0530  176.2770  147.6080 C   0  0  0  0  0  3  0  0  0  0  0  0
  187.7480  176.0870  146.4130 C   0  0  0  0  0  3  0  0  0  0  0  0
  186.3220  177.4080  147.8020 N   0  0  0  0  0  0  0  0  0  0  0  0
  185.5650  179.4140  147.0630 O   0  0  0  0  0  0  0  0  0  0  0  0
  186.9290  178.2260  145.6410 C   0  0  0  0  0  2  0  0  0  0  0  0
  186.2480  178.3780  146.8500 C   0  0  0  0  0  0  0  0  0  0  0  0
  195.8930  176.3730  143.7580 C   0  0  0  0  0  2  0  0  0  0  0  0
  193.6640  173.3420  143.9600 O   0  0  0  0  0  0  0  0  0  0  0  0
  197.1310  175.7670  143.2830 C   0  0  0  0  0  2  0  0  0  0  0  0
  196.4320  174.5190  143.3310 N   0  0  0  0  0  2  0  0  0  0  0  0
  193.9000  174.5700  144.0950 C   0  0  0  0  0  0  0  0  0  0  0  0
  195.2020  175.0740  143.7910 N   0  0  0  0  0  0  0  0  0  0  0  0
  185.1730  177.3920  141.8220 O   0  0  0  0  0  0  0  0  0  0  0  0
  186.9520  175.8430  142.3270 C   0  0  1  0  0  3  0  0  0  0  0  0
  187.3710  177.9190  140.8900 C   0  0  0  0  0  2  0  0  0  0  0  0
  186.0540  178.4390  141.4940 C   0  0  0  0  0  2  0  0  0  0  0  0
  185.7910  176.6870  142.8680 C   0  0  0  0  0  2  0  0  0  0  0  0
  187.5050  176.3940  141.0010 C   0  0  0  0  0  2  0  0  0  0  0  0
  1  5  1  0  0  0  0
  1  9  1  0  0  0  0
  2  8  1  0  0  0  0
  2 13  1  1  0  0  0
  4  3  1  6  0  0  0
  4 10  1  0  0  0  0
  5  7  1  6  0  0  0
  5  8  1  0  0  0  0
  5  4  1  0  0  0  0
  8  6  1  0  0  0  0
  9 24  1  6  0  0  0
  9 10  1  0  0  0  0
 11  7  1  6  0  0  0
 11  2  1  0  0  0  0
 12  8  1  0  0  0  0
 12  6  1  0  0  0  0
 13 18  1  0  0  0  0
 13 15  2  0  0  0  0
 14 16  2  0  0  0  0
 15 14  1  0  0  0  0
 18 19  1  0  0  0  0
 19 17  2  0  0  0  0
 19 16  1  0  0  0  0
 20 25  1  0  0  0  0
 21 24  2  0  0  0  0
 22 23  1  0  0  0  0
 22 20  1  0  0  0  0
 23 25  1  0  0  0  0
 25 24  1  0  0  0  0
 26 30  1  0  0  0  0
 27 31  1  6  0  0  0
 27 30  1  0  0  0  0
 27 11  1  0  0  0  0
 28 31  1  0  0  0  0
 28 29  1  0  0  0  0
 29 26  1  0  0  0  0
M  END
>  <MODEL>
3

>  <REMARK>
 VINA RESULT:      -7.4      2.673      7.961
  Name = 
  3 active torsions:
  status: ('A' for Active; 'I' for Inactive)
    1  A    between atoms: C_4  and  C_5
    2  A    between atoms: C_12  and  C_27
    3  A    between atoms: C_19  and  C_22
                            x       y       z     vdW  Elec       q    Type
                         _______ _______ _______ _____ _____    ______ ____

>  <TORSDO>
F 3

$$$$
=
 OpenBabel11052417583D

 31 36  0  0  1  0  0  0  0  0999 V2000
  188.4860  175.7920  144.5840 O   0  0  0  0  0  0  0  0  0  0  0  0
  191.6150  173.8000  144.1620 C   0  0  1  0  0  3  0  0  0  0  0  0
  190.4520  177.7650  142.8500 C   0  0  0  0  0  1  0  0  0  0  0  0
  190.5220  176.9710  144.1490 C   0  0  2  0  0  3  0  0  0  0  0  0
  189.8040  175.6190  144.1070 C   0  0  2  0  0  0  0  0  0  0  0  0
  190.6490  174.6830  146.4560 C   0  0  0  0  0  2  0  0  0  0  0  0
  189.7560  174.8770  142.4370 S   0  0  0  0  0  0  0  0  0  0  0  0
  190.5870  174.5990  144.9410 C   0  0  0  0  0  0  0  0  0  0  0  0
  188.4680  176.9690  145.3600 C   0  0  1  0  0  3  0  0  0  0  0  0
  189.7660  177.7300  145.1930 C   0  0  0  0  0  2  0  0  0  0  0  0
  191.3890  174.0900  142.6760 C   0  0  2  0  0  3  0  0  0  0  0  0
  189.7280  173.6760  145.7860 C   0  0  0  0  0  2  0  0  0  0  0  0
  193.0210  174.1230  144.5760 C   0  0  0  0  0  0  0  0  0  0  0  0
  195.1320  173.5290  145.5880 C   0  0  0  0  0  3  0  0  0  0  0  0
  193.8270  173.1830  145.2340 C   0  0  0  0  0  2  0  0  0  0  0  0
  195.6160  174.7660  145.2930 N   0  0  0  0  0  0  0  0  0  0  0  0
  195.3320  176.8270  144.3890 O   0  0  0  0  0  0  0  0  0  0  0  0
  193.5430  175.3850  144.2790 C   0  0  0  0  0  3  0  0  0  0  0  0
  194.8530  175.6920  144.6500 C   0  0  0  0  0  0  0  0  0  0  0  0
  185.9420  177.8040  147.3420 C   0  0  0  0  0  2  0  0  0  0  0  0
  187.2090  178.2750  143.8250 O   0  0  0  0  0  0  0  0  0  0  0  0
  184.6930  178.5540  147.2820 C   0  0  0  0  0  2  0  0  0  0  0  0
  185.0440  178.8520  145.9260 N   0  0  0  0  0  2  0  0  0  0  0  0
  187.3000  177.8310  144.9980 C   0  0  0  0  0  0  0  0  0  0  0  0
  186.2690  178.1250  145.9440 N   0  0  0  0  0  0  0  0  0  0  0  0
  190.1780  171.4890  140.3350 O   0  0  0  0  0  0  0  0  0  0  0  0
  191.5360  172.8520  141.7910 C   0  0  1  0  0  3  0  0  0  0  0  0
  191.3180  173.3870  139.2970 C   0  0  0  0  0  2  0  0  0  0  0  0
  190.0690  172.4880  139.3500 C   0  0  0  0  0  2  0  0  0  0  0  0
  190.1820  172.1670  141.5660 C   0  0  0  0  0  2  0  0  0  0  0  0
  192.2740  173.1310  140.4700 C   0  0  0  0  0  2  0  0  0  0  0  0
  1  9  1  0  0  0  0
  2 13  1  1  0  0  0
  2  8  1  0  0  0  0
  4  3  1  6  0  0  0
  4 10  1  0  0  0  0
  5  7  1  6  0  0  0
  5  4  1  0  0  0  0
  5  1  1  0  0  0  0
  5  8  1  0  0  0  0
  8 12  1  0  0  0  0
  8  6  1  0  0  0  0
  9 24  1  6  0  0  0
 10  9  1  0  0  0  0
 11  7  1  1  0  0  0
 11  2  1  0  0  0  0
 12  6  1  0  0  0  0
 13 15  1  0  0  0  0
 15 14  1  0  0  0  0
 16 14  2  0  0  0  0
 17 19  2  0  0  0  0
 18 13  2  0  0  0  0
 18 19  1  0  0  0  0
 19 16  1  0  0  0  0
 21 24  2  0  0  0  0
 22 20  1  0  0  0  0
 23 25  1  0  0  0  0
 23 22  1  0  0  0  0
 24 25  1  0  0  0  0
 25 20  1  0  0  0  0
 26 30  1  0  0  0  0
 27 31  1  6  0  0  0
 27 11  1  0  0  0  0
 28 29  1  0  0  0  0
 28 31  1  0  0  0  0
 29 26  1  0  0  0  0
 30 27  1  0  0  0  0
M  END
>  <MODEL>
4

>  <REMARK>
 VINA RESULT:      -7.2      2.121      4.536
  Name = 
  3 active torsions:
  status: ('A' for Active; 'I' for Inactive)
    1  A    between atoms: C_4  and  C_5
    2  A    between atoms: C_12  and  C_27
    3  A    between atoms: C_19  and  C_22
                            x       y       z     vdW  Elec       q    Type
                         _______ _______ _______ _____ _____    ______ ____

>  <TORSDO>
F 3

$$$$
=
 OpenBabel11052417583D

 31 36  0  0  1  0  0  0  0  0999 V2000
  191.1640  175.4830  144.5160 O   0  0  0  0  0  0  0  0  0  0  0  0
  187.5830  176.0640  143.6330 C   0  0  1  0  0  3  0  0  0  0  0  0
  190.9530  178.7390  144.1700 C   0  0  0  0  0  1  0  0  0  0  0  0
  190.6020  177.4990  143.3560 C   0  0  2  0  0  3  0  0  0  0  0  0
  190.0780  176.3220  144.1840 C   0  0  2  0  0  0  0  0  0  0  0  0
  189.3400  174.7510  142.1610 C   0  0  0  0  0  2  0  0  0  0  0  0
  189.2170  176.8400  145.7120 S   0  0  0  0  0  0  0  0  0  0  0  0
  189.0000  175.5790  143.3890 C   0  0  0  0  0  0  0  0  0  0  0  0
  192.1960  175.7410  143.5900 C   0  0  1  0  0  3  0  0  0  0  0  0
  191.8680  176.9660  142.7630 C   0  0  0  0  0  2  0  0  0  0  0  0
  187.6300  177.0240  144.8250 C   0  0  2  0  0  3  0  0  0  0  0  0
  189.0660  174.0650  143.4890 C   0  0  0  0  0  2  0  0  0  0  0  0
  186.9880  176.7210  142.4220 C   0  0  0  0  0  0  0  0  0  0  0  0
  187.1190  177.4860  140.1350 C   0  0  0  0  0  3  0  0  0  0  0  0
  187.7220  176.8790  141.2380 C   0  0  0  0  0  3  0  0  0  0  0  0
  185.8300  177.9160  140.2110 N   0  0  0  0  0  0  0  0  0  0  0  0
  183.9060  178.1730  141.3840 O   0  0  0  0  0  0  0  0  0  0  0  0
  185.6650  177.1650  142.4730 C   0  0  0  0  0  2  0  0  0  0  0  0
  185.0970  177.7670  141.3480 C   0  0  0  0  0  0  0  0  0  0  0  0
  195.1980  175.1480  142.3100 C   0  0  0  0  0  2  0  0  0  0  0  0
  193.5210  176.2780  145.4890 O   0  0  0  0  0  0  0  0  0  0  0  0
  196.5970  175.1710  142.7200 C   0  0  0  0  0  2  0  0  0  0  0  0
  196.1240  175.6390  143.9870 N   0  0  0  0  0  2  0  0  0  0  0  0
  193.5100  175.9100  144.2860 C   0  0  0  0  0  0  0  0  0  0  0  0
  194.7450  175.6240  143.6260 N   0  0  0  0  0  0  0  0  0  0  0  0
  185.9410  177.1730  148.1170 O   0  0  0  0  0  0  0  0  0  0  0  0
  186.4460  176.8590  145.7790 C   0  0  1  0  0  3  0  0  0  0  0  0
  185.5590  179.0940  146.6540 C   0  0  0  0  0  2  0  0  0  0  0  0
  186.0000  178.5760  148.0350 C   0  0  0  0  0  2  0  0  0  0  0  0
  186.9210  176.6980  147.2290 C   0  0  0  0  0  2  0  0  0  0  0  0
  185.3850  177.9630  145.6320 C   0  0  0  0  0  2  0  0  0  0  0  0
  2 13  1  6  0  0  0
  2 11  1  0  0  0  0
  4  3  1  1  0  0  0
  4  5  1  0  0  0  0
  5  1  1  1  0  0  0
  5  7  1  0  0  0  0
  6  8  1  0  0  0  0
  6 12  1  0  0  0  0
  8 12  1  0  0  0  0
  8  2  1  0  0  0  0
  8  5  1  0  0  0  0
  9 24  1  1  0  0  0
  9  1  1  0  0  0  0
 10  4  1  0  0  0  0
 10  9  1  0  0  0  0
 11  7  1  1  0  0  0
 11 27  1  0  0  0  0
 13 18  1  0  0  0  0
 14 16  2  0  0  0  0
 14 15  1  0  0  0  0
 15 13  2  0  0  0  0
 16 19  1  0  0  0  0
 19 17  2  0  0  0  0
 19 18  1  0  0  0  0
 20 22  1  0  0  0  0
 20 25  1  0  0  0  0
 22 23  1  0  0  0  0
 24 21  2  0  0  0  0
 25 23  1  0  0  0  0
 25 24  1  0  0  0  0
 27 31  1  1  0  0  0
 27 30  1  0  0  0  0
 28 29  1  0  0  0  0
 29 26  1  0  0  0  0
 30 26  1  0  0  0  0
 31 28  1  0  0  0  0
M  END
>  <MODEL>
5

>  <REMARK>
 VINA RESULT:      -7.1      2.931      7.677
  Name = 
  3 active torsions:
  status: ('A' for Active; 'I' for Inactive)
    1  A    between atoms: C_4  and  C_5
    2  A    between atoms: C_12  and  C_27
    3  A    between atoms: C_19  and  C_22
                            x       y       z     vdW  Elec       q    Type
                         _______ _______ _______ _____ _____    ______ ____

>  <TORSDO>
F 3

$$$$
=
 OpenBabel11052417583D

 31 36  0  0  1  0  0  0  0  0999 V2000
  189.7610  176.5750  144.9180 O   0  0  0  0  0  0  0  0  0  0  0  0
  192.4420  174.4640  143.4040 C   0  0  1  0  0  3  0  0  0  0  0  0
  191.5550  175.6090  147.4900 C   0  0  0  0  0  1  0  0  0  0  0  0
  190.8430  174.9580  146.3110 C   0  0  2  0  0  3  0  0  0  0  0  0
  190.9090  175.7580  145.0060 C   0  0  2  0  0  0  0  0  0  0  0  0
  189.8580  173.9160  143.3920 C   0  0  0  0  0  2  0  0  0  0  0  0
  192.4080  176.7960  144.8710 S   0  0  0  0  0  0  0  0  0  0  0  0
  191.0200  174.7940  143.8210 C   0  0  0  0  0  0  0  0  0  0  0  0
  188.7780  176.0140  145.7600 C   0  0  1  0  0  3  0  0  0  0  0  0
  189.3790  174.9230  146.6190 C   0  0  0  0  0  2  0  0  0  0  0  0
  193.3720  175.4140  144.1620 C   0  0  2  0  0  3  0  0  0  0  0  0
  190.1880  175.1760  142.6100 C   0  0  0  0  0  2  0  0  0  0  0  0
  192.7930  173.0280  143.6620 C   0  0  0  0  0  0  0  0  0  0  0  0
  192.8320  170.6980  143.0280 C   0  0  0  0  0  3  0  0  0  0  0  0
  192.4730  172.0170  142.7450 C   0  0  0  0  0  3  0  0  0  0  0  0
  193.4900  170.4000  144.1810 N   0  0  0  0  0  0  0  0  0  0  0  0
  194.4280  171.0580  146.1380 O   0  0  0  0  0  0  0  0  0  0  0  0
  193.4740  172.6980  144.8370 C   0  0  0  0  0  2  0  0  0  0  0  0
  193.8160  171.3660  145.0820 C   0  0  0  0  0  0  0  0  0  0  0  0
  185.5540  176.7910  145.8560 C   0  0  0  0  0  2  0  0  0  0  0  0
  188.8680  177.7750  147.3550 O   0  0  0  0  0  0  0  0  0  0  0  0
  184.6680  177.7440  146.5130 C   0  0  0  0  0  2  0  0  0  0  0  0
  185.8330  178.2210  147.1940 N   0  0  0  0  0  2  0  0  0  0  0  0
  188.1410  177.0660  146.6130 C   0  0  0  0  0  0  0  0  0  0  0  0
  186.7330  177.3090  146.5700 N   0  0  0  0  0  0  0  0  0  0  0  0
  196.9040  176.3090  143.5060 O   0  0  0  0  0  0  0  0  0  0  0  0
  194.5300  175.9330  143.3090 C   0  0  1  0  0  3  0  0  0  0  0  0
  196.2160  174.1040  142.7070 C   0  0  0  0  0  2  0  0  0  0  0  0
  197.2120  174.9370  143.5330 C   0  0  0  0  0  2  0  0  0  0  0  0
  195.6820  176.4390  144.1860 C   0  0  0  0  0  2  0  0  0  0  0  0
  195.0050  174.9270  142.2460 C   0  0  0  0  0  2  0  0  0  0  0  0
  1  5  1  0  0  0  0
  1  9  1  0  0  0  0
  2 13  1  1  0  0  0
  2  8  1  0  0  0  0
  2 11  1  0  0  0  0
  4 10  1  0  0  0  0
  4  3  1  1  0  0  0
  5  7  1  1  0  0  0
  5  4  1  0  0  0  0
  6  8  1  0  0  0  0
  8  5  1  0  0  0  0
  9 24  1  1  0  0  0
  9 10  1  0  0  0  0
 11  7  1  6  0  0  0
 12  6  1  0  0  0  0
 12  8  1  0  0  0  0
 13 18  1  0  0  0  0
 14 16  2  0  0  0  0
 15 14  1  0  0  0  0
 15 13  2  0  0  0  0
 16 19  1  0  0  0  0
 18 19  1  0  0  0  0
 19 17  2  0  0  0  0
 20 22  1  0  0  0  0
 20 25  1  0  0  0  0
 22 23  1  0  0  0  0
 24 21  2  0  0  0  0
 25 24  1  0  0  0  0
 25 23  1  0  0  0  0
 26 29  1  0  0  0  0
 26 30  1  0  0  0  0
 27 31  1  6  0  0  0
 27 11  1  0  0  0  0
 27 30  1  0  0  0  0
 28 29  1  0  0  0  0
 31 28  1  0  0  0  0
M  END
>  <MODEL>
6

>  <REMARK>
 VINA RESULT:      -7.1      1.946      2.564
  Name = 
  3 active torsions:
  status: ('A' for Active; 'I' for Inactive)
    1  A    between atoms: C_4  and  C_5
    2  A    between atoms: C_12  and  C_27
    3  A    between atoms: C_19  and  C_22
                            x       y       z     vdW  Elec       q    Type
                         _______ _______ _______ _____ _____    ______ ____

>  <TORSDO>
F 3

$$$$
=
 OpenBabel11052417583D

 31 36  0  0  1  0  0  0  0  0999 V2000
  188.8630  176.6900  144.5830 O   0  0  0  0  0  0  0  0  0  0  0  0
  192.4220  175.7630  143.9460 C   0  0  1  0  0  3  0  0  0  0  0  0
  188.6580  173.9440  142.8000 C   0  0  0  0  0  1  0  0  0  0  0  0
  189.3440  175.3000  142.6960 C   0  0  2  0  0  3  0  0  0  0  0  0
  189.8580  175.8570  144.0280 C   0  0  2  0  0  0  0  0  0  0  0  0
  191.2140  177.9360  143.0560 C   0  0  0  0  0  2  0  0  0  0  0  0
  190.3050  174.5550  145.2310 S   0  0  0  0  0  0  0  0  0  0  0  0
  191.1720  176.6090  143.7930 C   0  0  0  0  0  0  0  0  0  0  0  0
  188.0140  177.0930  143.5320 C   0  0  1  0  0  3  0  0  0  0  0  0
  188.3180  176.3040  142.2770 C   0  0  0  0  0  2  0  0  0  0  0  0
  191.9950  174.4210  144.5460 C   0  0  2  0  0  3  0  0  0  0  0  0
  191.3110  177.9040  144.5730 C   0  0  0  0  0  2  0  0  0  0  0  0
  193.1470  175.5760  142.6450 C   0  0  0  0  0  0  0  0  0  0  0  0
  193.3490  174.6110  140.4400 C   0  0  0  0  0  3  0  0  0  0  0  0
  192.6430  174.7420  141.6370 C   0  0  0  0  0  3  0  0  0  0  0  0
  194.5130  175.2910  140.2550 N   0  0  0  0  0  0  0  0  0  0  0  0
  196.0960  176.7280  141.0130 O   0  0  0  0  0  0  0  0  0  0  0  0
  194.3410  176.2680  142.4290 C   0  0  0  0  0  2  0  0  0  0  0  0
  195.0180  176.1110  141.2170 C   0  0  0  0  0  0  0  0  0  0  0  0
  186.6500  177.9150  146.4430 C   0  0  0  0  0  2  0  0  0  0  0  0
  185.7770  176.4160  143.0980 O   0  0  0  0  0  0  0  0  0  0  0  0
  185.3560  177.8540  147.1110 C   0  0  0  0  0  2  0  0  0  0  0  0
  184.8540  177.2960  145.8930 N   0  0  0  0  0  2  0  0  0  0  0  0
  186.5760  176.9390  143.9170 C   0  0  0  0  0  0  0  0  0  0  0  0
  186.1020  177.3340  145.2060 N   0  0  0  0  0  0  0  0  0  0  0  0
  195.2480  173.1040  145.7260 O   0  0  0  0  0  0  0  0  0  0  0  0
  192.9720  173.8910  145.5970 C   0  0  1  0  0  3  0  0  0  0  0  0
  194.9070  175.5030  146.0520 C   0  0  0  0  0  2  0  0  0  0  0  0
  195.7990  174.3780  145.4950 C   0  0  0  0  0  2  0  0  0  0  0  0
  194.0790  173.0490  144.9510 C   0  0  0  0  0  2  0  0  0  0  0  0
  193.5370  174.9900  146.5140 C   0  0  0  0  0  2  0  0  0  0  0  0
  2 13  1  6  0  0  0
  2 11  1  0  0  0  0
  4  3  1  1  0  0  0
  4  5  1  0  0  0  0
  5  1  1  1  0  0  0
  5  7  1  0  0  0  0
  6  8  1  0  0  0  0
  6 12  1  0  0  0  0
  8  2  1  0  0  0  0
  8  5  1  0  0  0  0
  8 12  1  0  0  0  0
  9 24  1  1  0  0  0
  9  1  1  0  0  0  0
 10  4  1  0  0  0  0
 10  9  1  0  0  0  0
 11  7  1  1  0  0  0
 11 27  1  0  0  0  0
 14 15  1  0  0  0  0
 15 13  2  0  0  0  0
 16 14  2  0  0  0  0
 16 19  1  0  0  0  0
 17 19  2  0  0  0  0
 18 13  1  0  0  0  0
 19 18  1  0  0  0  0
 20 22  1  0  0  0  0
 21 24  2  0  0  0  0
 23 22  1  0  0  0  0
 24 25  1  0  0  0  0
 25 23  1  0  0  0  0
 25 20  1  0  0  0  0
 27 30  1  6  0  0  0
 27 31  1  0  0  0  0
 28 31  1  0  0  0  0
 29 26  1  0  0  0  0
 29 28  1  0  0  0  0
 30 26  1  0  0  0  0
M  END
>  <MODEL>
7

>  <REMARK>
 VINA RESULT:      -7.0      2.056      2.659
  Name = 
  3 active torsions:
  status: ('A' for Active; 'I' for Inactive)
    1  A    between atoms: C_4  and  C_5
    2  A    between atoms: C_12  and  C_27
    3  A    between atoms: C_19  and  C_22
                            x       y       z     vdW  Elec       q    Type
                         _______ _______ _______ _____ _____    ______ ____

>  <TORSDO>
F 3

$$$$
=
 OpenBabel11052417583D

 31 36  0  0  1  0  0  0  0  0999 V2000
  188.4800  175.8450  144.5540 O   0  0  0  0  0  0  0  0  0  0  0  0
  191.6270  173.8870  144.1100 C   0  0  1  0  0  3  0  0  0  0  0  0
  190.4690  177.8990  142.9450 C   0  0  0  0  0  1  0  0  0  0  0  0
  190.5170  177.0510  144.2090 C   0  0  2  0  0  3  0  0  0  0  0  0
  189.8070  175.6980  144.0970 C   0  0  2  0  0  0  0  0  0  0  0  0
  190.6100  174.6680  146.4200 C   0  0  0  0  0  2  0  0  0  0  0  0
  189.7960  175.0280  142.3960 S   0  0  0  0  0  0  0  0  0  0  0  0
  190.5790  174.6480  144.9020 C   0  0  0  0  0  0  0  0  0  0  0  0
  188.4400  176.9890  145.3790 C   0  0  1  0  0  3  0  0  0  0  0  0
  189.7370  177.7620  145.2700 C   0  0  0  0  0  2  0  0  0  0  0  0
  191.4280  174.2390  142.6340 C   0  0  2  0  0  3  0  0  0  0  0  0
  189.7090  173.6860  145.6900 C   0  0  0  0  0  2  0  0  0  0  0  0
  193.0230  174.1990  144.5660 C   0  0  0  0  0  0  0  0  0  0  0  0
  195.1120  173.5750  145.6050 C   0  0  0  0  0  3  0  0  0  0  0  0
  193.8150  173.2390  145.2120 C   0  0  0  0  0  3  0  0  0  0  0  0
  195.5990  174.8210  145.3600 N   0  0  0  0  0  0  0  0  0  0  0  0
  195.3320  176.9090  144.5160 O   0  0  0  0  0  0  0  0  0  0  0  0
  193.5480  175.4700  144.3210 C   0  0  0  0  0  2  0  0  0  0  0  0
  194.8500  175.7660  144.7300 C   0  0  0  0  0  0  0  0  0  0  0  0
  185.9590  177.8670  147.3980 C   0  0  0  0  0  2  0  0  0  0  0  0
  187.1680  178.2950  143.8550 O   0  0  0  0  0  0  0  0  0  0  0  0
  184.7170  178.6290  147.3530 C   0  0  0  0  0  2  0  0  0  0  0  0
  185.0460  178.9130  145.9890 N   0  0  0  0  0  2  0  0  0  0  0  0
  187.2750  177.8600  145.0300 C   0  0  0  0  0  0  0  0  0  0  0  0
  186.2640  178.1730  145.9910 N   0  0  0  0  0  0  0  0  0  0  0  0
  193.3240  171.4950  141.0260 O   0  0  0  0  0  0  0  0  0  0  0  0
  191.5990  173.0400  141.7000 C   0  0  1  0  0  3  0  0  0  0  0  0
  191.9800  170.8470  142.9620 C   0  0  0  0  0  2  0  0  0  0  0  0
  193.3570  170.8450  142.2730 C   0  0  0  0  0  2  0  0  0  0  0  0
  193.0690  172.8470  141.3080 C   0  0  0  0  0  2  0  0  0  0  0  0
  190.9660  171.7470  142.2440 C   0  0  0  0  0  2  0  0  0  0  0  0
  1  9  1  0  0  0  0
  2 13  1  1  0  0  0
  2  8  1  0  0  0  0
  4  3  1  6  0  0  0
  4 10  1  0  0  0  0
  5  7  1  6  0  0  0
  5  4  1  0  0  0  0
  5  1  1  0  0  0  0
  5  8  1  0  0  0  0
  8 12  1  0  0  0  0
  8  6  1  0  0  0  0
  9 24  1  6  0  0  0
 10  9  1  0  0  0  0
 11  7  1  1  0  0  0
 11  2  1  0  0  0  0
 12  6  1  0  0  0  0
 13 15  2  0  0  0  0
 15 14  1  0  0  0  0
 16 14  2  0  0  0  0
 17 19  2  0  0  0  0
 18 13  1  0  0  0  0
 18 19  1  0  0  0  0
 19 16  1  0  0  0  0
 21 24  2  0  0  0  0
 22 20  1  0  0  0  0
 23 25  1  0  0  0  0
 23 22  1  0  0  0  0
 24 25  1  0  0  0  0
 25 20  1  0  0  0  0
 26 30  1  0  0  0  0
 26 29  1  0  0  0  0
 27 30  1  1  0  0  0
 27 31  1  0  0  0  0
 27 11  1  0  0  0  0
 29 28  1  0  0  0  0
 31 28  1  0  0  0  0
M  END
>  <MODEL>
8

>  <REMARK>
 VINA RESULT:      -7.0      2.044      4.198
  Name = 
  3 active torsions:
  status: ('A' for Active; 'I' for Inactive)
    1  A    between atoms: C_4  and  C_5
    2  A    between atoms: C_12  and  C_27
    3  A    between atoms: C_19  and  C_22
                            x       y       z     vdW  Elec       q    Type
                         _______ _______ _______ _____ _____    ______ ____

>  <TORSDO>
F 3

$$$$
=
 OpenBabel11052417583D

 31 36  0  0  1  0  0  0  0  0999 V2000
  188.6860  176.9770  144.1950 O   0  0  0  0  0  0  0  0  0  0  0  0
  192.2250  175.8730  143.7650 C   0  0  1  0  0  3  0  0  0  0  0  0
  188.4440  174.2100  142.4500 C   0  0  0  0  0  1  0  0  0  0  0  0
  189.1990  175.5300  142.3600 C   0  0  2  0  0  3  0  0  0  0  0  0
  189.6680  176.0880  143.7080 C   0  0  2  0  0  0  0  0  0  0  0  0
  191.1700  178.0830  142.7750 C   0  0  0  0  0  2  0  0  0  0  0  0
  189.9890  174.7900  144.9550 S   0  0  0  0  0  0  0  0  0  0  0  0
  191.0260  176.7740  143.5310 C   0  0  0  0  0  0  0  0  0  0  0  0
  187.9120  177.3990  143.0930 C   0  0  1  0  0  3  0  0  0  0  0  0
  188.2440  176.5720  141.8700 C   0  0  0  0  0  2  0  0  0  0  0  0
  191.7040  174.5650  144.3640 C   0  0  2  0  0  3  0  0  0  0  0  0
  191.1850  178.0760  144.2950 C   0  0  0  0  0  2  0  0  0  0  0  0
  193.0080  175.6280  142.5070 C   0  0  0  0  0  0  0  0  0  0  0  0
  194.9490  175.9590  141.1100 C   0  0  0  0  0  3  0  0  0  0  0  0
  194.2560  176.2290  142.2910 C   0  0  0  0  0  3  0  0  0  0  0  0
  194.4180  175.1190  140.1810 N   0  0  0  0  0  0  0  0  0  0  0  0
  192.7480  173.7460  139.4950 O   0  0  0  0  0  0  0  0  0  0  0  0
  192.4860  174.7650  141.5420 C   0  0  0  0  0  2  0  0  0  0  0  0
  193.2100  174.5200  140.3730 C   0  0  0  0  0  0  0  0  0  0  0  0
  185.4190  178.2890  141.0940 C   0  0  0  0  0  2  0  0  0  0  0  0
  186.0880  176.9130  144.5380 O   0  0  0  0  0  0  0  0  0  0  0  0
  183.9640  178.3720  141.1140 C   0  0  0  0  0  2  0  0  0  0  0  0
  184.0420  177.8220  142.4340 N   0  0  0  0  0  2  0  0  0  0  0  0
  186.4510  177.3190  143.4030 C   0  0  0  0  0  0  0  0  0  0  0  0
  185.4640  177.7310  142.4550 N   0  0  0  0  0  0  0  0  0  0  0  0
  194.8700  173.2570  145.7680 O   0  0  0  0  0  0  0  0  0  0  0  0
  192.5980  174.0110  145.4740 C   0  0  1  0  0  3  0  0  0  0  0  0
  194.4560  175.6350  146.1530 C   0  0  0  0  0  2  0  0  0  0  0  0
  195.4130  174.5470  145.6330 C   0  0  0  0  0  2  0  0  0  0  0  0
  193.7720  173.2120  144.8940 C   0  0  0  0  0  2  0  0  0  0  0  0
  193.0610  175.0820  146.4770 C   0  0  0  0  0  2  0  0  0  0  0  0
  2 13  1  6  0  0  0
  2 11  1  0  0  0  0
  4  3  1  1  0  0  0
  4  5  1  0  0  0  0
  5  1  1  1  0  0  0
  5  7  1  0  0  0  0
  6  8  1  0  0  0  0
  6 12  1  0  0  0  0
  8  5  1  0  0  0  0
  8  2  1  0  0  0  0
  8 12  1  0  0  0  0
  9 24  1  1  0  0  0
  9  1  1  0  0  0  0
 10  4  1  0  0  0  0
 10  9  1  0  0  0  0
 11  7  1  1  0  0  0
 11 27  1  0  0  0  0
 14 15  1  0  0  0  0
 15 13  2  0  0  0  0
 16 19  1  0  0  0  0
 16 14  2  0  0  0  0
 17 19  2  0  0  0  0
 18 13  1  0  0  0  0
 19 18  1  0  0  0  0
 20 22  1  0  0  0  0
 20 25  1  0  0  0  0
 22 23  1  0  0  0  0
 23 25  1  0  0  0  0
 24 21  2  0  0  0  0
 25 24  1  0  0  0  0
 27 30  1  6  0  0  0
 27 31  1  0  0  0  0
 28 31  1  0  0  0  0
 29 26  1  0  0  0  0
 29 28  1  0  0  0  0
 30 26  1  0  0  0  0
M  END
>  <MODEL>
9

>  <REMARK>
 VINA RESULT:      -6.8      2.344      2.755
  Name = 
  3 active torsions:
  status: ('A' for Active; 'I' for Inactive)
    1  A    between atoms: C_4  and  C_5
    2  A    between atoms: C_12  and  C_27
    3  A    between atoms: C_19  and  C_22
                            x       y       z     vdW  Elec       q    Type
                         _______ _______ _______ _____ _____    ______ ____

>  <TORSDO>
F 3

$$$$
