=
 OpenBabel11052418183D

 28 30  0  0  1  0  0  0  0  0999 V2000
  186.7530  178.6720  144.8750 C   0  0  0  0  0  2  0  0  0  0  0  0
  185.9540  179.3800  143.7760 C   0  0  0  0  0  2  0  0  0  0  0  0
  185.8530  178.6010  142.4480 C   0  0  1  0  0  3  0  0  0  0  0  0
  188.4660  178.2450  142.5890 C   0  0  0  0  0  2  0  0  0  0  0  0
  188.6450  177.0830  143.5840 C   0  0  1  0  0  3  0  0  0  0  0  0
  187.1910  178.2890  141.7340 C   0  0  1  0  0  3  0  0  0  0  0  0
  187.3850  176.3980  144.1900 C   0  0  1  0  0  3  0  0  0  0  0  0
  187.3690  176.3870  145.6730 C   0  0  2  0  0  3  0  0  0  0  0  0
  186.4080  177.2480  144.9350 N   0  0  1  0  0  0  0  0  0  0  0  0
  186.4140  177.5850  139.5850 O   0  0  0  0  0  1  0  0  0  0  0  0
  187.1150  177.1600  140.7150 C   0  0  0  0  0  2  0  0  0  0  0  0
  183.7390  177.9330  142.3500 C   0  0  0  0  0  1  0  0  0  0  0  0
  185.0370  177.4710  142.5780 O   0  0  0  0  0  0  0  0  0  0  0  0
  189.7510  176.1060  143.1620 C   0  0  1  0  0  3  0  0  0  0  0  0
  191.8600  176.6740  142.7990 C   0  0  0  0  0  1  0  0  0  0  0  0
  190.9500  176.4000  143.8200 O   0  0  0  0  0  0  0  0  0  0  0  0
  189.3900  174.6590  143.3500 C   0  0  0  0  0  0  0  0  0  0  0  0
  189.8810  174.0210  144.4210 C   0  0  0  0  0  3  0  0  0  0  0  0
  189.6200  172.5760  144.7040 C   0  0  0  0  0  2  0  0  0  0  0  0
  190.6680  171.8080  144.2000 O   0  0  0  0  0  1  0  0  0  0  0  0
  188.5290  173.9600  142.3350 C   0  0  0  0  0  2  0  0  0  0  0  0
  189.1710  174.0170  140.9610 C   0  0  0  0  0  2  0  0  0  0  0  0
  190.3680  173.3040  140.9780 O   0  0  0  0  0  1  0  0  0  0  0  0
  188.4920  177.1530  146.3920 C   0  0  0  0  0  2  0  0  0  0  0  0
  189.2650  176.2590  147.1330 O   0  0  0  0  0  0  0  0  0  0  0  0
  190.5780  176.6940  146.9500 C   0  0  0  0  0  3  0  0  0  0  0  0
  191.5300  175.6020  147.3950 C   0  0  0  0  0  2  0  0  0  0  0  0
  191.2620  176.7860  148.2990 C   0  0  0  0  0  2  0  0  0  0  0  0
  1  9  1  0  0  0  0
  2  1  1  0  0  0  0
  3 13  1  1  0  0  0
  3  2  1  0  0  0  0
  4  5  1  0  0  0  0
  5 14  1  6  0  0  0
  5  7  1  0  0  0  0
  6 11  1  1  0  0  0
  6  3  1  0  0  0  0
  6  4  1  0  0  0  0
  7  9  1  0  0  0  0
  7  8  1  0  0  0  0
  8 24  1  0  0  0  0
  9  8  1  0  0  0  0
 10 11  1  0  0  0  0
 12 13  1  0  0  0  0
 14 17  1  0  0  0  0
 14 16  1  0  0  0  0
 15 16  1  0  0  0  0
 17 18  2  0  0  0  0
 18 19  1  0  0  0  0
 20 19  1  0  0  0  0
 21 17  1  0  0  0  0
 22 23  1  0  0  0  0
 22 21  1  0  0  0  0
 24 25  1  0  0  0  0
 26 25  1  0  0  0  0
 26 27  1  0  0  0  0
 26 28  1  0  0  0  0
 27 28  1  0  0  0  0
M  END
>  <MODEL>
1

>  <REMARK>
 VINA RESULT:      -5.4      0.000      0.000
  Name = 
  11 active torsions:
  status: ('A' for Active; 'I' for Inactive)
    1  A    between atoms: C_3  and  O_28
    2  A    between atoms: C_5  and  O_21
    3  A    between atoms: C_9  and  C_13
    4  A    between atoms: C_9  and  C_14
    5  A    between atoms: C_10  and  C_13
    6  A    between atoms: C_11  and  C_22
    7  A    between atoms: C_12  and  C_15
    8  A    between atoms: C_13  and  O_24
    9  A    between atoms: C_14  and  C_18
   10  A    between atoms: C_16  and  C_20
   11  A    between atoms: C_16  and  O_21
                            x       y       z     vdW  Elec       q    Type
                         _______ _______ _______ _____ _____    ______ ____

>  <TORSDO>
F 11

$$$$
=
 OpenBabel11052418183D

 28 30  0  0  1  0  0  0  0  0999 V2000
  189.0390  176.0520  142.8770 C   0  0  0  0  0  2  0  0  0  0  0  0
  187.5530  176.0890  143.2490 C   0  0  0  0  0  2  0  0  0  0  0  0
  187.2280  176.8880  144.5280 C   0  0  1  0  0  3  0  0  0  0  0  0
  189.1720  175.5560  145.7190 C   0  0  0  0  0  2  0  0  0  0  0  0
  190.4620  176.2660  145.2640 C   0  0  1  0  0  3  0  0  0  0  0  0
  187.8840  176.3830  145.8360 C   0  0  1  0  0  3  0  0  0  0  0  0
  190.3590  177.5170  144.3430 C   0  0  1  0  0  3  0  0  0  0  0  0
  191.1340  177.3950  143.0840 C   0  0  2  0  0  3  0  0  0  0  0  0
  189.6480  177.3770  143.0370 N   0  0  1  0  0  0  0  0  0  0  0  0
  186.6700  177.5460  147.5370 O   0  0  0  0  0  1  0  0  0  0  0  0
  187.9320  177.4120  146.9570 C   0  0  0  0  0  2  0  0  0  0  0  0
  186.1410  178.7540  144.0140 C   0  0  0  0  0  1  0  0  0  0  0  0
  187.4090  178.2630  144.3320 O   0  0  0  0  0  0  0  0  0  0  0  0
  191.4960  176.3960  146.3910 C   0  0  1  0  0  3  0  0  0  0  0  0
  191.3420  177.1330  148.4740 C   0  0  0  0  0  1  0  0  0  0  0  0
  190.9180  176.1050  147.6310 O   0  0  0  0  0  0  0  0  0  0  0  0
  192.7330  175.5700  146.1810 C   0  0  0  0  0  0  0  0  0  0  0  0
  192.5840  174.3120  145.7440 C   0  0  0  0  0  3  0  0  0  0  0  0
  193.7320  173.3790  145.5240 C   0  0  0  0  0  2  0  0  0  0  0  0
  193.3190  172.3130  144.7290 O   0  0  0  0  0  1  0  0  0  0  0  0
  194.0860  176.1470  146.4910 C   0  0  0  0  0  2  0  0  0  0  0  0
  194.4410  177.2380  145.4970 C   0  0  0  0  0  2  0  0  0  0  0  0
  195.4550  176.7860  144.6550 O   0  0  0  0  0  1  0  0  0  0  0  0
  191.8010  176.0380  142.8010 C   0  0  0  0  0  2  0  0  0  0  0  0
  193.0990  176.2450  142.3340 O   0  0  0  0  0  0  0  0  0  0  0  0
  193.5330  174.9830  141.9300 C   0  0  0  0  0  3  0  0  0  0  0  0
  195.0220  175.0340  141.6530 C   0  0  0  0  0  2  0  0  0  0  0  0
  194.0380  175.0660  140.5040 C   0  0  0  0  0  2  0  0  0  0  0  0
  1  9  1  0  0  0  0
  1  2  1  0  0  0  0
  2  3  1  0  0  0  0
  3 13  1  6  0  0  0
  3  6  1  0  0  0  0
  4  6  1  0  0  0  0
  5  4  1  0  0  0  0
  5 14  1  1  0  0  0
  6 11  1  1  0  0  0
  7  5  1  0  0  0  0
  8  7  1  0  0  0  0
  9  8  1  0  0  0  0
  9  7  1  0  0  0  0
 11 10  1  0  0  0  0
 12 13  1  0  0  0  0
 14 16  1  0  0  0  0
 16 15  1  0  0  0  0
 17 14  1  0  0  0  0
 17 21  1  0  0  0  0
 18 17  2  0  0  0  0
 19 18  1  0  0  0  0
 20 19  1  0  0  0  0
 22 21  1  0  0  0  0
 23 22  1  0  0  0  0
 24  8  1  0  0  0  0
 25 24  1  0  0  0  0
 26 25  1  0  0  0  0
 27 26  1  0  0  0  0
 28 27  1  0  0  0  0
 28 26  1  0  0  0  0
M  END
>  <MODEL>
2

>  <REMARK>
 VINA RESULT:      -5.4      2.419      5.167
  Name = 
  11 active torsions:
  status: ('A' for Active; 'I' for Inactive)
    1  A    between atoms: C_3  and  O_28
    2  A    between atoms: C_5  and  O_21
    3  A    between atoms: C_9  and  C_13
    4  A    between atoms: C_9  and  C_14
    5  A    between atoms: C_10  and  C_13
    6  A    between atoms: C_11  and  C_22
    7  A    between atoms: C_12  and  C_15
    8  A    between atoms: C_13  and  O_24
    9  A    between atoms: C_14  and  C_18
   10  A    between atoms: C_16  and  C_20
   11  A    between atoms: C_16  and  O_21
                            x       y       z     vdW  Elec       q    Type
                         _______ _______ _______ _____ _____    ______ ____

>  <TORSDO>
F 11

$$$$
=
 OpenBabel11052418183D

 28 30  0  0  1  0  0  0  0  0999 V2000
  190.1150  175.4720  147.2990 C   0  0  0  0  0  2  0  0  0  0  0  0
  191.5540  174.9460  147.3160 C   0  0  0  0  0  2  0  0  0  0  0  0
  192.3750  175.2710  146.0510 C   0  0  1  0  0  3  0  0  0  0  0  0
  190.3310  174.3800  144.6340 C   0  0  0  0  0  2  0  0  0  0  0  0
  189.3270  175.5490  144.6260 C   0  0  1  0  0  3  0  0  0  0  0  0
  191.8300  174.7020  144.7170 C   0  0  1  0  0  3  0  0  0  0  0  0
  189.7080  176.8850  145.3300 C   0  0  1  0  0  3  0  0  0  0  0  0
  188.7250  177.3190  146.3530 C   0  0  2  0  0  3  0  0  0  0  0  0
  190.0680  176.8420  146.7790 N   0  0  1  0  0  0  0  0  0  0  0  0
  191.9810  174.6860  142.3300 O   0  0  0  0  0  1  0  0  0  0  0  0
  192.3640  175.3940  143.4700 C   0  0  0  0  0  2  0  0  0  0  0  0
  193.9010  176.7780  146.6190 C   0  0  0  0  0  1  0  0  0  0  0  0
  192.6720  176.6360  145.9700 O   0  0  0  0  0  0  0  0  0  0  0  0
  188.6350  175.7270  143.2680 C   0  0  1  0  0  3  0  0  0  0  0  0
  188.5250  174.4590  141.4560 C   0  0  0  0  0  1  0  0  0  0  0  0
  188.1440  174.5050  142.7980 O   0  0  0  0  0  0  0  0  0  0  0  0
  187.5480  176.7650  143.2700 C   0  0  0  0  0  0  0  0  0  0  0  0
  186.2990  176.3680  143.5480 C   0  0  0  0  0  3  0  0  0  0  0  0
  185.1260  177.2960  143.5520 C   0  0  0  0  0  2  0  0  0  0  0  0
  184.6920  177.5020  142.2450 O   0  0  0  0  0  1  0  0  0  0  0  0
  187.8710  178.1940  142.9340 C   0  0  0  0  0  2  0  0  0  0  0  0
  188.4900  178.2910  141.5520 C   0  0  0  0  0  2  0  0  0  0  0  0
  187.5600  177.8850  140.5980 O   0  0  0  0  0  1  0  0  0  0  0  0
  187.5720  176.3530  146.6720 C   0  0  0  0  0  2  0  0  0  0  0  0
  186.6460  176.9890  147.4990 O   0  0  0  0  0  0  0  0  0  0  0  0
  186.3350  178.1730  146.8320 C   0  0  0  0  0  3  0  0  0  0  0  0
  185.9310  179.2240  147.8470 C   0  0  0  0  0  2  0  0  0  0  0  0
  184.8700  178.4950  147.0500 C   0  0  0  0  0  2  0  0  0  0  0  0
  1  2  1  0  0  0  0
  3 13  1  6  0  0  0
  3  2  1  0  0  0  0
  4  6  1  0  0  0  0
  5 14  1  6  0  0  0
  5  4  1  0  0  0  0
  5  7  1  0  0  0  0
  6 11  1  6  0  0  0
  6  3  1  0  0  0  0
  7  8  1  0  0  0  0
  7  9  1  0  0  0  0
  8 24  1  0  0  0  0
  8  9  1  0  0  0  0
  9  1  1  0  0  0  0
 10 11  1  0  0  0  0
 13 12  1  0  0  0  0
 14 17  1  0  0  0  0
 15 16  1  0  0  0  0
 16 14  1  0  0  0  0
 17 18  2  0  0  0  0
 18 19  1  0  0  0  0
 20 19  1  0  0  0  0
 21 17  1  0  0  0  0
 22 21  1  0  0  0  0
 23 22  1  0  0  0  0
 24 25  1  0  0  0  0
 26 28  1  0  0  0  0
 26 25  1  0  0  0  0
 26 27  1  0  0  0  0
 28 27  1  0  0  0  0
M  END
>  <MODEL>
3

>  <REMARK>
 VINA RESULT:      -5.4      1.971      5.649
  Name = 
  11 active torsions:
  status: ('A' for Active; 'I' for Inactive)
    1  A    between atoms: C_3  and  O_28
    2  A    between atoms: C_5  and  O_21
    3  A    between atoms: C_9  and  C_13
    4  A    between atoms: C_9  and  C_14
    5  A    between atoms: C_10  and  C_13
    6  A    between atoms: C_11  and  C_22
    7  A    between atoms: C_12  and  C_15
    8  A    between atoms: C_13  and  O_24
    9  A    between atoms: C_14  and  C_18
   10  A    between atoms: C_16  and  C_20
   11  A    between atoms: C_16  and  O_21
                            x       y       z     vdW  Elec       q    Type
                         _______ _______ _______ _____ _____    ______ ____

>  <TORSDO>
F 11

$$$$
=
 OpenBabel11052418183D

 28 30  0  0  1  0  0  0  0  0999 V2000
  190.4050  175.3930  147.2740 C   0  0  0  0  0  2  0  0  0  0  0  0
  191.8680  174.9500  147.1640 C   0  0  0  0  0  2  0  0  0  0  0  0
  192.6640  175.6290  146.0300 C   0  0  1  0  0  3  0  0  0  0  0  0
  190.6570  175.0370  144.4190 C   0  0  0  0  0  2  0  0  0  0  0  0
  189.5980  176.1190  144.7070 C   0  0  1  0  0  3  0  0  0  0  0  0
  192.1390  175.3980  144.5920 C   0  0  1  0  0  3  0  0  0  0  0  0
  189.9180  177.2450  145.7340 C   0  0  1  0  0  3  0  0  0  0  0  0
  188.9230  177.3530  146.8280 C   0  0  2  0  0  3  0  0  0  0  0  0
  190.2890  176.8470  147.1250 N   0  0  1  0  0  0  0  0  0  0  0  0
  193.9420  176.1160  143.1950 O   0  0  0  0  0  1  0  0  0  0  0  0
  192.6310  176.4130  143.5690 C   0  0  0  0  0  2  0  0  0  0  0  0
  194.2260  177.0430  146.7250 C   0  0  0  0  0  1  0  0  0  0  0  0
  192.8950  176.9820  146.3070 O   0  0  0  0  0  0  0  0  0  0  0  0
  188.8890  176.6080  143.4360 C   0  0  1  0  0  3  0  0  0  0  0  0
  189.2640  178.2850  142.0390 C   0  0  0  0  0  1  0  0  0  0  0  0
  189.8160  177.0920  142.5070 O   0  0  0  0  0  0  0  0  0  0  0  0
  187.9980  175.5790  142.8010 C   0  0  0  0  0  0  0  0  0  0  0  0
  188.5700  174.6180  142.0630 C   0  0  0  0  0  3  0  0  0  0  0  0
  187.7910  173.5550  141.3550 C   0  0  0  0  0  2  0  0  0  0  0  0
  187.7360  172.4140  142.1520 O   0  0  0  0  0  1  0  0  0  0  0  0
  186.5060  175.6630  142.9770 C   0  0  0  0  0  2  0  0  0  0  0  0
  186.0090  177.0580  142.6480 C   0  0  0  0  0  2  0  0  0  0  0  0
  186.0230  177.2420  141.2670 O   0  0  0  0  0  1  0  0  0  0  0  0
  187.8190  176.2830  146.8800 C   0  0  0  0  0  2  0  0  0  0  0  0
  186.6800  176.8170  147.4830 O   0  0  0  0  0  0  0  0  0  0  0  0
  186.2410  177.8000  146.5960 C   0  0  0  0  0  3  0  0  0  0  0  0
  185.0770  178.5460  147.2170 C   0  0  0  0  0  2  0  0  0  0  0  0
  184.8230  177.4840  146.1690 C   0  0  0  0  0  2  0  0  0  0  0  0
  2  1  1  0  0  0  0
  3 13  1  1  0  0  0
  3  2  1  0  0  0  0
  4  6  1  0  0  0  0
  4  5  1  0  0  0  0
  5 14  1  6  0  0  0
  5  7  1  0  0  0  0
  6 11  1  6  0  0  0
  6  3  1  0  0  0  0
  7  8  1  0  0  0  0
  7  9  1  0  0  0  0
  8 24  1  0  0  0  0
  8  9  1  0  0  0  0
  9  1  1  0  0  0  0
 10 11  1  0  0  0  0
 13 12  1  0  0  0  0
 15 16  1  0  0  0  0
 16 14  1  0  0  0  0
 17 21  1  0  0  0  0
 17 14  1  0  0  0  0
 18 17  2  0  0  0  0
 19 18  1  0  0  0  0
 19 20  1  0  0  0  0
 22 21  1  0  0  0  0
 23 22  1  0  0  0  0
 24 25  1  0  0  0  0
 26 27  1  0  0  0  0
 26 25  1  0  0  0  0
 28 26  1  0  0  0  0
 28 27  1  0  0  0  0
M  END
>  <MODEL>
4

>  <REMARK>
 VINA RESULT:      -5.3      2.088      5.415
  Name = 
  11 active torsions:
  status: ('A' for Active; 'I' for Inactive)
    1  A    between atoms: C_3  and  O_28
    2  A    between atoms: C_5  and  O_21
    3  A    between atoms: C_9  and  C_13
    4  A    between atoms: C_9  and  C_14
    5  A    between atoms: C_10  and  C_13
    6  A    between atoms: C_11  and  C_22
    7  A    between atoms: C_12  and  C_15
    8  A    between atoms: C_13  and  O_24
    9  A    between atoms: C_14  and  C_18
   10  A    between atoms: C_16  and  C_20
   11  A    between atoms: C_16  and  O_21
                            x       y       z     vdW  Elec       q    Type
                         _______ _______ _______ _____ _____    ______ ____

>  <TORSDO>
F 11

$$$$
=
 OpenBabel11052418183D

 28 30  0  0  1  0  0  0  0  0999 V2000
  189.9630  172.7900  142.9900 C   0  0  0  0  0  2  0  0  0  0  0  0
  188.8400  172.5110  141.9870 C   0  0  0  0  0  2  0  0  0  0  0  0
  188.3930  173.7340  141.1610 C   0  0  1  0  0  3  0  0  0  0  0  0
  188.2530  175.0750  143.4310 C   0  0  0  0  0  2  0  0  0  0  0  0
  189.7110  175.4630  143.7430 C   0  0  1  0  0  3  0  0  0  0  0  0
  187.8300  174.9330  141.9620 C   0  0  1  0  0  3  0  0  0  0  0  0
  190.8340  175.0740  142.7360 C   0  0  1  0  0  3  0  0  0  0  0  0
  191.9330  174.2850  143.3450 C   0  0  2  0  0  3  0  0  0  0  0  0
  191.0020  173.6320  142.3870 N   0  0  1  0  0  0  0  0  0  0  0  0
  186.5860  176.8720  141.3180 O   0  0  0  0  0  1  0  0  0  0  0  0
  187.8340  176.2560  141.2070 C   0  0  0  0  0  2  0  0  0  0  0  0
  189.1640  173.3090  139.1230 C   0  0  0  0  0  1  0  0  0  0  0  0
  189.3780  174.1170  140.2410 O   0  0  0  0  0  0  0  0  0  0  0  0
  189.8390  176.8820  144.3120 C   0  0  1  0  0  3  0  0  0  0  0  0
  191.2250  178.4850  143.6690 C   0  0  0  0  0  1  0  0  0  0  0  0
  190.0660  177.8080  143.2890 O   0  0  0  0  0  0  0  0  0  0  0  0
  188.6710  177.3070  145.1560 C   0  0  0  0  0  0  0  0  0  0  0  0
  187.6330  177.8950  144.5450 C   0  0  0  0  0  3  0  0  0  0  0  0
  186.4260  178.3900  145.2760 C   0  0  0  0  0  2  0  0  0  0  0  0
  185.4040  177.4480  145.1750 O   0  0  0  0  0  1  0  0  0  0  0  0
  188.7020  177.0980  146.6450 C   0  0  0  0  0  2  0  0  0  0  0  0
  188.1920  175.7130  146.9990 C   0  0  0  0  0  2  0  0  0  0  0  0
  189.2730  174.8720  147.2550 O   0  0  0  0  0  1  0  0  0  0  0  0
  191.7540  173.8490  144.8090 C   0  0  0  0  0  2  0  0  0  0  0  0
  192.9330  174.0890  145.5150 O   0  0  0  0  0  0  0  0  0  0  0  0
  193.1420  175.4620  145.3940 C   0  0  0  0  0  3  0  0  0  0  0  0
  194.1680  175.9010  146.4190 C   0  0  0  0  0  2  0  0  0  0  0  0
  192.6960  176.1460  146.6690 C   0  0  0  0  0  2  0  0  0  0  0  0
  2  1  1  0  0  0  0
  3 13  1  1  0  0  0
  3  6  1  0  0  0  0
  3  2  1  0  0  0  0
  4  5  1  0  0  0  0
  5 14  1  6  0  0  0
  6 11  1  6  0  0  0
  6  4  1  0  0  0  0
  7  8  1  0  0  0  0
  7  5  1  0  0  0  0
  8 24  1  0  0  0  0
  9  7  1  0  0  0  0
  9  1  1  0  0  0  0
  9  8  1  0  0  0  0
 11 10  1  0  0  0  0
 12 13  1  0  0  0  0
 14 17  1  0  0  0  0
 16 15  1  0  0  0  0
 16 14  1  0  0  0  0
 17 21  1  0  0  0  0
 18 17  2  0  0  0  0
 18 19  1  0  0  0  0
 20 19  1  0  0  0  0
 21 22  1  0  0  0  0
 22 23  1  0  0  0  0
 24 25  1  0  0  0  0
 26 25  1  0  0  0  0
 26 27  1  0  0  0  0
 26 28  1  0  0  0  0
 27 28  1  0  0  0  0
M  END
>  <MODEL>
5

>  <REMARK>
 VINA RESULT:      -5.3      2.222      4.927
  Name = 
  11 active torsions:
  status: ('A' for Active; 'I' for Inactive)
    1  A    between atoms: C_3  and  O_28
    2  A    between atoms: C_5  and  O_21
    3  A    between atoms: C_9  and  C_13
    4  A    between atoms: C_9  and  C_14
    5  A    between atoms: C_10  and  C_13
    6  A    between atoms: C_11  and  C_22
    7  A    between atoms: C_12  and  C_15
    8  A    between atoms: C_13  and  O_24
    9  A    between atoms: C_14  and  C_18
   10  A    between atoms: C_16  and  C_20
   11  A    between atoms: C_16  and  O_21
                            x       y       z     vdW  Elec       q    Type
                         _______ _______ _______ _____ _____    ______ ____

>  <TORSDO>
F 11

$$$$
=
 OpenBabel11052418183D

 28 30  0  0  1  0  0  0  0  0999 V2000
  186.7860  178.6680  145.2600 C   0  0  0  0  0  2  0  0  0  0  0  0
  185.9130  179.6100  144.4240 C   0  0  0  0  0  2  0  0  0  0  0  0
  185.3710  178.9980  143.1170 C   0  0  1  0  0  3  0  0  0  0  0  0
  187.8310  178.1810  142.6120 C   0  0  0  0  0  2  0  0  0  0  0  0
  188.0000  176.9110  143.4680 C   0  0  1  0  0  3  0  0  0  0  0  0
  186.4300  178.5310  142.0890 C   0  0  1  0  0  3  0  0  0  0  0  0
  186.7990  176.3980  144.3160 C   0  0  1  0  0  3  0  0  0  0  0  0
  187.1120  176.2420  145.7580 C   0  0  2  0  0  3  0  0  0  0  0  0
  186.1940  177.3270  145.3190 N   0  0  1  0  0  0  0  0  0  0  0  0
  185.0870  178.1950  140.1390 O   0  0  0  0  0  1  0  0  0  0  0  0
  185.9140  177.5410  141.0540 C   0  0  0  0  0  2  0  0  0  0  0  0
  183.1780  178.6660  143.1910 C   0  0  0  0  0  1  0  0  0  0  0  0
  184.4030  178.0200  143.3720 O   0  0  0  0  0  0  0  0  0  0  0  0
  188.7750  175.8040  142.7410 C   0  0  1  0  0  3  0  0  0  0  0  0
  188.3650  174.7650  140.8290 C   0  0  0  0  0  1  0  0  0  0  0  0
  188.7390  176.0010  141.3570 O   0  0  0  0  0  0  0  0  0  0  0  0
  190.1930  175.6430  143.2120 C   0  0  0  0  0  0  0  0  0  0  0  0
  191.0010  176.7100  143.1540 C   0  0  0  0  0  3  0  0  0  0  0  0
  192.4390  176.6710  143.5640 C   0  0  0  0  0  2  0  0  0  0  0  0
  192.6380  177.5350  144.6380 O   0  0  0  0  0  1  0  0  0  0  0  0
  190.6770  174.3050  143.7000 C   0  0  0  0  0  2  0  0  0  0  0  0
  189.5030  173.4020  144.0300 C   0  0  0  0  0  2  0  0  0  0  0  0
  189.6910  172.8380  145.2900 O   0  0  0  0  0  1  0  0  0  0  0  0
  188.4930  176.7250  146.2310 C   0  0  0  0  0  2  0  0  0  0  0  0
  189.0760  175.7490  147.0390 O   0  0  0  0  0  0  0  0  0  0  0  0
  190.4480  175.9010  146.8400 C   0  0  0  0  0  3  0  0  0  0  0  0
  191.1910  175.2910  148.0110 C   0  0  0  0  0  2  0  0  0  0  0  0
  191.0120  176.7910  147.9280 C   0  0  0  0  0  2  0  0  0  0  0  0
  1  9  1  0  0  0  0
  2  1  1  0  0  0  0
  3 13  1  1  0  0  0
  3  2  1  0  0  0  0
  4  5  1  0  0  0  0
  5 14  1  6  0  0  0
  5  7  1  0  0  0  0
  6 11  1  1  0  0  0
  6  4  1  0  0  0  0
  6  3  1  0  0  0  0
  7  9  1  0  0  0  0
  7  8  1  0  0  0  0
  8 24  1  0  0  0  0
  9  8  1  0  0  0  0
 10 11  1  0  0  0  0
 12 13  1  0  0  0  0
 14 17  1  0  0  0  0
 15 16  1  0  0  0  0
 16 14  1  0  0  0  0
 17 21  1  0  0  0  0
 18 17  2  0  0  0  0
 18 19  1  0  0  0  0
 19 20  1  0  0  0  0
 21 22  1  0  0  0  0
 22 23  1  0  0  0  0
 24 25  1  0  0  0  0
 26 25  1  0  0  0  0
 26 28  1  0  0  0  0
 26 27  1  0  0  0  0
 28 27  1  0  0  0  0
M  END
>  <MODEL>
6

>  <REMARK>
 VINA RESULT:      -5.3      1.186      2.354
  Name = 
  11 active torsions:
  status: ('A' for Active; 'I' for Inactive)
    1  A    between atoms: C_3  and  O_28
    2  A    between atoms: C_5  and  O_21
    3  A    between atoms: C_9  and  C_13
    4  A    between atoms: C_9  and  C_14
    5  A    between atoms: C_10  and  C_13
    6  A    between atoms: C_11  and  C_22
    7  A    between atoms: C_12  and  C_15
    8  A    between atoms: C_13  and  O_24
    9  A    between atoms: C_14  and  C_18
   10  A    between atoms: C_16  and  C_20
   11  A    between atoms: C_16  and  O_21
                            x       y       z     vdW  Elec       q    Type
                         _______ _______ _______ _____ _____    ______ ____

>  <TORSDO>
F 11

$$$$
=
 OpenBabel11052418183D

 28 30  0  0  1  0  0  0  0  0999 V2000
  186.8670  176.3410  143.5560 C   0  0  0  0  0  2  0  0  0  0  0  0
  185.6490  176.7830  144.3740 C   0  0  0  0  0  2  0  0  0  0  0  0
  185.9630  177.7650  145.5210 C   0  0  1  0  0  3  0  0  0  0  0  0
  187.9030  176.1250  146.2440 C   0  0  0  0  0  2  0  0  0  0  0  0
  189.0590  176.4430  145.2750 C   0  0  1  0  0  3  0  0  0  0  0  0
  186.9290  177.2520  146.6160 C   0  0  1  0  0  3  0  0  0  0  0  0
  188.8830  177.5780  144.2240 C   0  0  1  0  0  3  0  0  0  0  0  0
  189.1190  177.1380  142.8280 C   0  0  2  0  0  3  0  0  0  0  0  0
  187.7410  177.4830  143.2660 N   0  0  1  0  0  0  0  0  0  0  0  0
  186.6350  178.8960  148.3290 O   0  0  0  0  0  1  0  0  0  0  0  0
  187.5740  178.3480  147.4540 C   0  0  0  0  0  2  0  0  0  0  0  0
  185.1430  179.5840  144.5490 C   0  0  0  0  0  1  0  0  0  0  0  0
  186.3290  179.0240  145.0290 O   0  0  0  0  0  0  0  0  0  0  0  0
  190.4300  176.4300  145.9650 C   0  0  1  0  0  3  0  0  0  0  0  0
  191.1900  176.7910  148.0130 C   0  0  0  0  0  1  0  0  0  0  0  0
  190.3170  175.9820  147.2850 O   0  0  0  0  0  0  0  0  0  0  0  0
  191.4740  175.6380  145.2290 C   0  0  0  0  0  0  0  0  0  0  0  0
  191.4440  174.3030  145.3350 C   0  0  0  0  0  3  0  0  0  0  0  0
  192.4440  173.4060  144.6770 C   0  0  0  0  0  2  0  0  0  0  0  0
  193.5160  173.1940  145.5400 O   0  0  0  0  0  1  0  0  0  0  0  0
  192.5320  176.3480  144.4290 C   0  0  0  0  0  2  0  0  0  0  0  0
  193.6710  176.7920  145.3280 C   0  0  0  0  0  2  0  0  0  0  0  0
  194.8860  176.4190  144.7560 O   0  0  0  0  0  1  0  0  0  0  0  0
  189.3610  175.6370  142.5970 C   0  0  0  0  0  2  0  0  0  0  0  0
  189.0340  175.3080  141.2820 O   0  0  0  0  0  0  0  0  0  0  0  0
  189.3690  173.9600  141.1620 C   0  0  0  0  0  3  0  0  0  0  0  0
  188.4250  173.2980  140.1790 C   0  0  0  0  0  2  0  0  0  0  0  0
  188.2170  173.1160  141.6670 C   0  0  0  0  0  2  0  0  0  0  0  0
  1  2  1  0  0  0  0
  2  3  1  0  0  0  0
  3 13  1  6  0  0  0
  3  6  1  0  0  0  0
  4  6  1  0  0  0  0
  5 14  1  1  0  0  0
  5  4  1  0  0  0  0
  6 11  1  6  0  0  0
  7  5  1  0  0  0  0
  8  9  1  0  0  0  0
  8  7  1  0  0  0  0
  9  1  1  0  0  0  0
  9  7  1  0  0  0  0
 11 10  1  0  0  0  0
 12 13  1  0  0  0  0
 14 16  1  0  0  0  0
 16 15  1  0  0  0  0
 17 18  2  0  0  0  0
 17 14  1  0  0  0  0
 19 18  1  0  0  0  0
 19 20  1  0  0  0  0
 21 17  1  0  0  0  0
 21 22  1  0  0  0  0
 23 22  1  0  0  0  0
 24  8  1  0  0  0  0
 25 24  1  0  0  0  0
 26 25  1  0  0  0  0
 26 28  1  0  0  0  0
 27 26  1  0  0  0  0
 27 28  1  0  0  0  0
M  END
>  <MODEL>
7

>  <REMARK>
 VINA RESULT:      -5.2      2.051      4.868
  Name = 
  11 active torsions:
  status: ('A' for Active; 'I' for Inactive)
    1  A    between atoms: C_3  and  O_28
    2  A    between atoms: C_5  and  O_21
    3  A    between atoms: C_9  and  C_13
    4  A    between atoms: C_9  and  C_14
    5  A    between atoms: C_10  and  C_13
    6  A    between atoms: C_11  and  C_22
    7  A    between atoms: C_12  and  C_15
    8  A    between atoms: C_13  and  O_24
    9  A    between atoms: C_14  and  C_18
   10  A    between atoms: C_16  and  C_20
   11  A    between atoms: C_16  and  O_21
                            x       y       z     vdW  Elec       q    Type
                         _______ _______ _______ _____ _____    ______ ____

>  <TORSDO>
F 11

$$$$
=
 OpenBabel11052418183D

 28 30  0  0  1  0  0  0  0  0999 V2000
  191.1480  172.2650  143.4130 C   0  0  0  0  0  2  0  0  0  0  0  0
  190.6730  171.2380  142.3800 C   0  0  0  0  0  2  0  0  0  0  0  0
  190.0850  171.8440  141.0900 C   0  0  1  0  0  3  0  0  0  0  0  0
  188.6130  173.4060  142.6300 C   0  0  0  0  0  2  0  0  0  0  0  0
  189.5690  174.5350  143.0620 C   0  0  1  0  0  3  0  0  0  0  0  0
  188.8350  172.7410  141.2630 C   0  0  1  0  0  3  0  0  0  0  0  0
  191.0270  174.5490  142.5160 C   0  0  1  0  0  3  0  0  0  0  0  0
  192.0610  174.5830  143.5800 C   0  0  2  0  0  3  0  0  0  0  0  0
  191.8870  173.3530  142.7640 N   0  0  1  0  0  0  0  0  0  0  0  0
  188.0110  172.9560  139.0280 O   0  0  0  0  0  1  0  0  0  0  0  0
  188.5590  173.6740  140.0920 C   0  0  0  0  0  2  0  0  0  0  0  0
  191.5570  171.4380  139.4790 C   0  0  0  0  0  1  0  0  0  0  0  0
  191.0780  172.4520  140.3120 O   0  0  0  0  0  0  0  0  0  0  0  0
  188.8900  175.9110  143.0820 C   0  0  1  0  0  3  0  0  0  0  0  0
  187.4500  176.8960  141.7180 C   0  0  0  0  0  1  0  0  0  0  0  0
  187.5790  175.8250  142.6020 O   0  0  0  0  0  0  0  0  0  0  0  0
  188.9150  176.5830  144.4260 C   0  0  0  0  0  0  0  0  0  0  0  0
  188.2020  176.0320  145.4180 C   0  0  0  0  0  3  0  0  0  0  0  0
  188.1210  176.6200  146.7910 C   0  0  0  0  0  2  0  0  0  0  0  0
  186.8840  177.2370  146.9590 O   0  0  0  0  0  1  0  0  0  0  0  0
  189.6960  177.8530  144.6190 C   0  0  0  0  0  2  0  0  0  0  0  0
  190.5680  178.1320  143.4080 C   0  0  0  0  0  2  0  0  0  0  0  0
  191.9100  178.0730  143.7800 O   0  0  0  0  0  1  0  0  0  0  0  0
  191.5740  174.4620  145.0340 C   0  0  0  0  0  2  0  0  0  0  0  0
  192.6730  174.4260  145.8920 O   0  0  0  0  0  0  0  0  0  0  0  0
  193.5620  175.3620  145.3640 C   0  0  0  0  0  3  0  0  0  0  0  0
  194.9170  175.1860  146.0200 C   0  0  0  0  0  2  0  0  0  0  0  0
  194.0010  176.3060  146.4650 C   0  0  0  0  0  2  0  0  0  0  0  0
  2  1  1  0  0  0  0
  3 13  1  1  0  0  0
  3  6  1  0  0  0  0
  3  2  1  0  0  0  0
  4  5  1  0  0  0  0
  5 14  1  6  0  0  0
  6 11  1  6  0  0  0
  6  4  1  0  0  0  0
  7  9  1  0  0  0  0
  7  5  1  0  0  0  0
  7  8  1  0  0  0  0
  8 24  1  0  0  0  0
  9  1  1  0  0  0  0
  9  8  1  0  0  0  0
 10 11  1  0  0  0  0
 12 13  1  0  0  0  0
 14 17  1  0  0  0  0
 15 16  1  0  0  0  0
 16 14  1  0  0  0  0
 17 21  1  0  0  0  0
 17 18  2  0  0  0  0
 18 19  1  0  0  0  0
 19 20  1  0  0  0  0
 22 23  1  0  0  0  0
 22 21  1  0  0  0  0
 24 25  1  0  0  0  0
 26 25  1  0  0  0  0
 26 27  1  0  0  0  0
 26 28  1  0  0  0  0
 27 28  1  0  0  0  0
M  END
>  <MODEL>
8

>  <REMARK>
 VINA RESULT:      -5.0      2.607      5.587
  Name = 
  11 active torsions:
  status: ('A' for Active; 'I' for Inactive)
    1  A    between atoms: C_3  and  O_28
    2  A    between atoms: C_5  and  O_21
    3  A    between atoms: C_9  and  C_13
    4  A    between atoms: C_9  and  C_14
    5  A    between atoms: C_10  and  C_13
    6  A    between atoms: C_11  and  C_22
    7  A    between atoms: C_12  and  C_15
    8  A    between atoms: C_13  and  O_24
    9  A    between atoms: C_14  and  C_18
   10  A    between atoms: C_16  and  C_20
   11  A    between atoms: C_16  and  O_21
                            x       y       z     vdW  Elec       q    Type
                         _______ _______ _______ _____ _____    ______ ____

>  <TORSDO>
F 11

$$$$
=
 OpenBabel11052418183D

 28 30  0  0  1  0  0  0  0  0999 V2000
  190.0220  175.8910  147.3210 C   0  0  0  0  0  2  0  0  0  0  0  0
  191.4140  175.3550  147.6730 C   0  0  0  0  0  2  0  0  0  0  0  0
  192.4310  175.3910  146.5150 C   0  0  1  0  0  3  0  0  0  0  0  0
  190.5830  174.2580  145.0070 C   0  0  0  0  0  2  0  0  0  0  0  0
  189.6520  175.4160  144.6000 C   0  0  1  0  0  3  0  0  0  0  0  0
  192.0670  174.5640  145.2580 C   0  0  1  0  0  3  0  0  0  0  0  0
  189.9890  176.8640  145.0650 C   0  0  1  0  0  3  0  0  0  0  0  0
  188.8860  177.5210  145.8080 C   0  0  2  0  0  3  0  0  0  0  0  0
  190.1230  177.1220  146.5300 N   0  0  1  0  0  0  0  0  0  0  0  0
  194.0540  174.3240  143.9490 O   0  0  0  0  0  1  0  0  0  0  0  0
  192.8170  174.9680  143.9960 C   0  0  0  0  0  2  0  0  0  0  0  0
  194.0750  176.8610  146.7640 C   0  0  0  0  0  1  0  0  0  0  0  0
  192.8060  176.7040  146.2040 O   0  0  0  0  0  0  0  0  0  0  0  0
  189.1830  175.3160  143.1410 C   0  0  1  0  0  3  0  0  0  0  0  0
  188.1650  176.8770  141.9450 C   0  0  0  0  0  1  0  0  0  0  0  0
  189.4100  176.5180  142.4640 O   0  0  0  0  0  0  0  0  0  0  0  0
  189.7860  174.1660  142.3860 C   0  0  0  0  0  0  0  0  0  0  0  0
  190.8430  174.4130  141.6000 C   0  0  0  0  0  3  0  0  0  0  0  0
  191.5140  173.3610  140.7740 C   0  0  0  0  0  2  0  0  0  0  0  0
  191.0230  173.4110  139.4720 O   0  0  0  0  0  1  0  0  0  0  0  0
  189.1840  172.7930  142.4980 C   0  0  0  0  0  2  0  0  0  0  0  0
  187.7990  172.7660  141.8780 C   0  0  0  0  0  2  0  0  0  0  0  0
  187.8920  173.0660  140.5210 O   0  0  0  0  0  1  0  0  0  0  0  0
  187.6510  176.6650  146.1320 C   0  0  0  0  0  2  0  0  0  0  0  0
  186.5230  177.2290  145.5370 O   0  0  0  0  0  0  0  0  0  0  0  0
  185.6010  177.3530  146.5770 C   0  0  0  0  0  3  0  0  0  0  0  0
  184.4790  178.2720  146.1390 C   0  0  0  0  0  2  0  0  0  0  0  0
  185.5740  178.7940  147.0450 C   0  0  0  0  0  2  0  0  0  0  0  0
  1  2  1  0  0  0  0
  3 13  1  6  0  0  0
  3  2  1  0  0  0  0
  4  6  1  0  0  0  0
  5 14  1  6  0  0  0
  5  4  1  0  0  0  0
  5  7  1  0  0  0  0
  6 11  1  6  0  0  0
  6  3  1  0  0  0  0
  7  8  1  0  0  0  0
  7  9  1  0  0  0  0
  8 24  1  0  0  0  0
  8  9  1  0  0  0  0
  9  1  1  0  0  0  0
 10 11  1  0  0  0  0
 13 12  1  0  0  0  0
 15 16  1  0  0  0  0
 16 14  1  0  0  0  0
 17 21  1  0  0  0  0
 17 14  1  0  0  0  0
 18 17  2  0  0  0  0
 19 18  1  0  0  0  0
 20 19  1  0  0  0  0
 22 21  1  0  0  0  0
 23 22  1  0  0  0  0
 25 24  1  0  0  0  0
 25 26  1  0  0  0  0
 26 28  1  0  0  0  0
 27 26  1  0  0  0  0
 27 28  1  0  0  0  0
M  END
>  <MODEL>
9

>  <REMARK>
 VINA RESULT:      -4.9      2.355      5.422
  Name = 
  11 active torsions:
  status: ('A' for Active; 'I' for Inactive)
    1  A    between atoms: C_3  and  O_28
    2  A    between atoms: C_5  and  O_21
    3  A    between atoms: C_9  and  C_13
    4  A    between atoms: C_9  and  C_14
    5  A    between atoms: C_10  and  C_13
    6  A    between atoms: C_11  and  C_22
    7  A    between atoms: C_12  and  C_15
    8  A    between atoms: C_13  and  O_24
    9  A    between atoms: C_14  and  C_18
   10  A    between atoms: C_16  and  C_20
   11  A    between atoms: C_16  and  O_21
                            x       y       z     vdW  Elec       q    Type
                         _______ _______ _______ _____ _____    ______ ____

>  <TORSDO>
F 11

$$$$
