=
 OpenBabel11052421073D

 43 46  0  0  1  0  0  0  0  0999 V2000
  190.0140  173.6150  141.3460 C   0  0  0  0  0  0  0  0  0  0  0  0
  189.6530  172.2510  144.4360 C   0  0  0  0  0  1  0  0  0  0  0  0
  192.1420  173.0980  142.4890 C   0  0  2  0  0  3  0  0  0  0  0  0
  189.9760  173.5770  143.7640 C   0  0  2  0  0  3  0  0  0  0  0  0
  194.9720  173.3160  142.2280 C   0  0  0  0  0  0  0  0  0  0  0  0
  194.3100  174.0780  143.3550 C   0  0  2  0  0  3  0  0  0  0  0  0
  196.3490  173.1520  142.2450 O   0  0  0  0  0  1  0  0  0  0  0  0
  192.1180  174.6980  144.4380 C   0  0  0  0  0  3  0  0  0  0  0  0
  189.3790  173.9180  140.2500 C   0  0  0  0  0  3  0  0  0  0  0  0
  192.8030  174.3090  143.1480 C   0  0  2  0  0  3  0  0  0  0  0  0
  192.7830  172.8680  141.1210 C   0  0  0  0  0  2  0  0  0  0  0  0
  190.6530  173.3260  142.4520 C   0  0  0  0  0  0  0  0  0  0  0  0
  190.8230  174.4350  144.6900 C   0  0  0  0  0  0  0  0  0  0  0  0
  194.2720  172.7350  141.2460 C   0  0  0  0  0  3  0  0  0  0  0  0
  190.0500  170.8710  138.1130 C   0  0  0  0  0  2  0  0  0  0  0  0
  191.4850  172.8780  137.5520 C   0  0  0  0  0  3  0  0  0  0  0  0
  191.3410  171.3770  137.4680 C   0  0  1  0  0  3  0  0  0  0  0  0
  189.7590  171.6410  139.3910 C   0  0  0  0  0  2  0  0  0  0  0  0
  189.5750  173.1070  139.0210 C   0  0  2  0  0  3  0  0  0  0  0  0
  192.4370  170.7720  138.0820 O   0  0  0  0  0  1  0  0  0  0  0  0
  190.7150  173.6170  138.2800 N   0  0  0  0  0  0  0  0  0  0  0  0
  195.0280  175.3680  143.6140 C   0  0  0  0  0  0  0  0  0  0  0  0
  195.0870  176.2520  142.7130 O   0  0  0  0  0  0  0  0  0  0  0  0
  195.6570  175.5600  144.8450 O   0  0  0  0  0  0  0  0  0  0  0  0
  195.8590  174.4900  145.7550 C   0  0  0  0  0  1  0  0  0  0  0  0
  190.2330  174.9670  145.9680 C   0  0  0  0  0  2  0  0  0  0  0  0
  190.4380  176.4820  146.1310 C   0  0  2  0  0  3  0  0  0  0  0  0
  190.7750  176.7670  147.4590 O   0  0  0  0  0  0  0  0  0  0  0  0
  191.1700  175.5420  147.9990 C   0  0  0  0  0  1  0  0  0  0  0  0
  189.2080  177.2810  145.6530 C   0  0  1  0  0  3  0  0  0  0  0  0
  190.8340  178.0720  143.8020 C   0  0  0  0  0  1  0  0  0  0  0  0
  189.3830  177.8520  144.2270 C   0  0  1  0  0  3  0  0  0  0  0  0
  188.6570  177.1390  143.2450 O   0  0  0  0  0  0  0  0  0  0  0  0
  188.3090  178.0170  142.2010 C   0  0  0  0  0  2  0  0  0  0  0  0
  186.2080  177.8340  140.8160 C   0  0  0  0  0  0  0  0  0  0  0  0
  186.8620  178.0710  142.0690 N   0  0  0  0  0  0  0  0  0  0  0  0
  184.0650  178.3720  141.8170 N   0  0  0  0  0  2  0  0  0  0  0  0
  184.6390  177.9250  143.0840 C   0  0  0  0  0  2  0  0  0  0  0  0
  186.0590  178.4690  143.2180 C   0  0  0  0  0  2  0  0  0  0  0  0
  186.8720  177.5450  139.7840 O   0  0  0  0  0  0  0  0  0  0  0  0
  184.8130  177.8620  140.7670 O   0  0  0  0  0  0  0  0  0  0  0  0
  187.9820  176.3780  145.7410 C   0  0  0  0  0  2  0  0  0  0  0  0
  187.3060  176.6200  146.9370 O   0  0  0  0  0  1  0  0  0  0  0  0
  1 12  2  0  0  0  0
  3 11  1  6  0  0  0
  3 10  1  0  0  0  0
  4  2  1  1  0  0  0
  4 13  1  0  0  0  0
  5  7  1  0  0  0  0
  5  6  1  0  0  0  0
  6 22  1  6  0  0  0
  8 13  2  0  0  0  0
  9  1  2  0  0  0  0
 10  6  1  0  0  0  0
 10  8  1  1  0  0  0
 11 14  1  0  0  0  0
 12  3  1  0  0  0  0
 12  4  1  0  0  0  0
 13 26  1  0  0  0  0
 14  5  2  0  0  0  0
 15 18  1  0  0  0  0
 16 21  2  0  0  0  0
 17 16  1  0  0  0  0
 17 20  1  1  0  0  0
 17 15  1  0  0  0  0
 19 18  1  0  0  0  0
 19  9  1  1  0  0  0
 21 19  1  0  0  0  0
 22 24  1  0  0  0  0
 23 22  2  0  0  0  0
 24 25  1  0  0  0  0
 27 26  1  1  0  0  0
 27 28  1  0  0  0  0
 28 29  1  0  0  0  0
 30 42  1  6  0  0  0
 30 27  1  0  0  0  0
 32 31  1  6  0  0  0
 32 30  1  0  0  0  0
 33 32  1  0  0  0  0
 34 33  1  0  0  0  0
 35 36  1  0  0  0  0
 36 34  1  0  0  0  0
 36 39  1  0  0  0  0
 37 38  1  0  0  0  0
 38 39  1  0  0  0  0
 40 35  2  0  0  0  0
 41 35  1  0  0  0  0
 41 37  1  0  0  0  0
 42 43  1  0  0  0  0
M  END
>  <MODEL>
1

>  <REMARK>
 VINA RESULT:      -6.8      0.000      0.000
  Name = 
  12 active torsions:
  status: ('A' for Active; 'I' for Inactive)
    1  A    between atoms: C_2  and  C_6
    2  A    between atoms: C_2  and  C_38
    3  A    between atoms: C_4  and  C_15
    4  A    between atoms: C_4  and  O_22
    5  A    between atoms: O_5  and  C_18
    6  A    between atoms: C_6  and  O_12
    7  A    between atoms: C_6  and  C_15
    8  A    between atoms: C_10  and  C_15
    9  A    between atoms: N_14  and  C_41
   10  A    between atoms: C_18  and  C_21
   11  A    between atoms: O_22  and  C_41
   12  A    between atoms: C_28  and  C_35
                            x       y       z     vdW  Elec       q    Type
                         _______ _______ _______ _____ _____    ______ ____

>  <TORSDO>
F 12

$$$$
=
 OpenBabel11052421073D

 43 46  0  0  1  0  0  0  0  0999 V2000
  189.3730  174.4150  142.3530 C   0  0  0  0  0  0  0  0  0  0  0  0
  191.5120  176.9930  142.9190 C   0  0  0  0  0  1  0  0  0  0  0  0
  188.2690  176.5650  142.8650 C   0  0  2  0  0  3  0  0  0  0  0  0
  190.6320  176.0060  143.6700 C   0  0  2  0  0  3  0  0  0  0  0  0
  185.7180  177.7630  143.2880 C   0  0  0  0  0  0  0  0  0  0  0  0
  186.6870  177.7450  144.4510 C   0  0  2  0  0  3  0  0  0  0  0  0
  184.6040  178.5870  143.3550 O   0  0  0  0  0  1  0  0  0  0  0  0
  188.9470  176.9700  145.2600 C   0  0  0  0  0  3  0  0  0  0  0  0
  189.2920  173.1970  141.8990 C   0  0  0  0  0  3  0  0  0  0  0  0
  187.8000  176.6910  144.3150 C   0  0  2  0  0  3  0  0  0  0  0  0
  187.0880  176.1260  142.0000 C   0  0  0  0  0  2  0  0  0  0  0  0
  189.4530  175.6350  142.8240 C   0  0  0  0  0  0  0  0  0  0  0  0
  190.2140  176.5970  145.0070 C   0  0  0  0  0  0  0  0  0  0  0  0
  185.9280  177.0630  142.1680 C   0  0  0  0  0  3  0  0  0  0  0  0
  188.9370  171.8370  138.3880 C   0  0  0  0  0  2  0  0  0  0  0  0
  188.4780  174.3160  138.6000 C   0  0  0  0  0  3  0  0  0  0  0  0
  188.8590  173.1860  137.6730 C   0  0  1  0  0  3  0  0  0  0  0  0
  189.5650  172.0020  139.7620 C   0  0  0  0  0  2  0  0  0  0  0  0
  188.6730  172.9300  140.5750 C   0  0  2  0  0  3  0  0  0  0  0  0
  190.0880  173.4710  137.0780 O   0  0  0  0  0  1  0  0  0  0  0  0
  188.4430  174.1870  139.8850 N   0  0  0  0  0  0  0  0  0  0  0  0
  185.9520  177.5960  145.7490 C   0  0  0  0  0  0  0  0  0  0  0  0
  185.3350  176.5250  146.0080 O   0  0  0  0  0  0  0  0  0  0  0  0
  185.9300  178.6680  146.6430 O   0  0  0  0  0  0  0  0  0  0  0  0
  186.5100  178.5730  147.9350 C   0  0  0  0  0  1  0  0  0  0  0  0
  191.2450  176.8390  146.0750 C   0  0  0  0  0  2  0  0  0  0  0  0
  191.8790  175.5380  146.5940 C   0  0  2  0  0  3  0  0  0  0  0  0
  191.5840  175.3840  147.9540 O   0  0  0  0  0  0  0  0  0  0  0  0
  191.3500  176.6800  148.4180 C   0  0  0  0  0  1  0  0  0  0  0  0
  193.3950  175.4890  146.3140 C   0  0  1  0  0  3  0  0  0  0  0  0
  192.7470  173.2960  145.1030 C   0  0  0  0  0  1  0  0  0  0  0  0
  193.7760  174.4130  145.2700 C   0  0  1  0  0  3  0  0  0  0  0  0
  194.1630  174.9540  144.0230 O   0  0  0  0  0  0  0  0  0  0  0  0
  195.4760  174.5390  143.7280 C   0  0  0  0  0  2  0  0  0  0  0  0
  196.4920  176.0270  141.9620 C   0  0  0  0  0  0  0  0  0  0  0  0
  195.7840  174.8390  142.3400 N   0  0  0  0  0  0  0  0  0  0  0  0
  196.1980  175.4740  139.6180 N   0  0  0  0  0  2  0  0  0  0  0  0
  196.1460  174.0770  140.0410 C   0  0  0  0  0  2  0  0  0  0  0  0
  195.2820  173.9570  141.2940 C   0  0  0  0  0  2  0  0  0  0  0  0
  196.8920  176.8460  142.8330 O   0  0  0  0  0  0  0  0  0  0  0  0
  196.7910  176.2350  140.6150 O   0  0  0  0  0  0  0  0  0  0  0  0
  193.8490  176.8760  145.8680 C   0  0  0  0  0  2  0  0  0  0  0  0
  194.5200  177.5090  146.9150 O   0  0  0  0  0  1  0  0  0  0  0  0
  1 12  2  0  0  0  0
  3 11  1  6  0  0  0
  3 10  1  0  0  0  0
  4  2  1  6  0  0  0
  4 13  1  0  0  0  0
  5  7  1  0  0  0  0
  5  6  1  0  0  0  0
  6 22  1  1  0  0  0
  9  1  2  0  0  0  0
 10  6  1  0  0  0  0
 10  8  1  1  0  0  0
 11 14  1  0  0  0  0
 12  3  1  0  0  0  0
 12  4  1  0  0  0  0
 13  8  2  0  0  0  0
 13 26  1  0  0  0  0
 14  5  2  0  0  0  0
 15 18  1  0  0  0  0
 16 21  2  0  0  0  0
 17 20  1  1  0  0  0
 17 15  1  0  0  0  0
 17 16  1  0  0  0  0
 18 19  1  0  0  0  0
 19  9  1  1  0  0  0
 21 19  1  0  0  0  0
 22 23  2  0  0  0  0
 22 24  1  0  0  0  0
 24 25  1  0  0  0  0
 27 26  1  1  0  0  0
 27 28  1  0  0  0  0
 28 29  1  0  0  0  0
 30 42  1  6  0  0  0
 30 27  1  0  0  0  0
 32 31  1  6  0  0  0
 32 30  1  0  0  0  0
 33 32  1  0  0  0  0
 34 33  1  0  0  0  0
 35 36  1  0  0  0  0
 35 40  2  0  0  0  0
 36 34  1  0  0  0  0
 37 38  1  0  0  0  0
 37 41  1  0  0  0  0
 38 39  1  0  0  0  0
 39 36  1  0  0  0  0
 41 35  1  0  0  0  0
 42 43  1  0  0  0  0
M  END
>  <MODEL>
2

>  <REMARK>
 VINA RESULT:      -6.8      2.383      7.213
  Name = 
  12 active torsions:
  status: ('A' for Active; 'I' for Inactive)
    1  A    between atoms: C_2  and  C_6
    2  A    between atoms: C_2  and  C_38
    3  A    between atoms: C_4  and  C_15
    4  A    between atoms: C_4  and  O_22
    5  A    between atoms: O_5  and  C_18
    6  A    between atoms: C_6  and  O_12
    7  A    between atoms: C_6  and  C_15
    8  A    between atoms: C_10  and  C_15
    9  A    between atoms: N_14  and  C_41
   10  A    between atoms: C_18  and  C_21
   11  A    between atoms: O_22  and  C_41
   12  A    between atoms: C_28  and  C_35
                            x       y       z     vdW  Elec       q    Type
                         _______ _______ _______ _____ _____    ______ ____

>  <TORSDO>
F 12

$$$$
=
 OpenBabel11052421073D

 43 46  0  0  1  0  0  0  0  0999 V2000
  192.6490  175.8710  144.9810 C   0  0  0  0  0  0  0  0  0  0  0  0
  190.2560  178.1640  144.2350 C   0  0  0  0  0  1  0  0  0  0  0  0
  191.6400  175.6020  142.7420 C   0  0  2  0  0  3  0  0  0  0  0  0
  190.4030  176.7180  144.6840 C   0  0  2  0  0  3  0  0  0  0  0  0
  191.6480  173.9310  140.4330 C   0  0  0  0  0  0  0  0  0  0  0  0
  190.3650  174.0220  141.2300 C   0  0  2  0  0  3  0  0  0  0  0  0
  191.6110  173.3820  139.1600 O   0  0  0  0  0  1  0  0  0  0  0  0
  189.2590  174.9740  143.2870 C   0  0  0  0  0  3  0  0  0  0  0  0
  193.6040  175.5830  145.8180 C   0  0  0  0  0  3  0  0  0  0  0  0
  190.5630  174.5190  142.6730 C   0  0  2  0  0  3  0  0  0  0  0  0
  192.9640  175.0160  142.2520 C   0  0  0  0  0  2  0  0  0  0  0  0
  191.6800  176.1490  144.1450 C   0  0  0  0  0  0  0  0  0  0  0  0
  189.1890  175.9130  144.2480 C   0  0  0  0  0  0  0  0  0  0  0  0
  192.8090  174.4220  140.8830 C   0  0  0  0  0  3  0  0  0  0  0  0
  196.5860  176.7000  143.7780 C   0  0  0  0  0  2  0  0  0  0  0  0
  196.5180  174.2160  144.2560 C   0  0  0  0  0  3  0  0  0  0  0  0
  197.0590  175.3070  143.3620 C   0  0  1  0  0  3  0  0  0  0  0  0
  195.1290  176.6580  144.2100 C   0  0  0  0  0  2  0  0  0  0  0  0
  195.0260  175.7300  145.4130 C   0  0  2  0  0  3  0  0  0  0  0  0
  196.6750  175.0580  142.0440 O   0  0  0  0  0  1  0  0  0  0  0  0
  195.5870  174.4220  145.1280 N   0  0  0  0  0  0  0  0  0  0  0  0
  189.6310  172.7150  141.2010 C   0  0  0  0  0  0  0  0  0  0  0  0
  190.1840  171.6680  141.6430 O   0  0  0  0  0  0  0  0  0  0  0  0
  188.3500  172.6670  140.6470 O   0  0  0  0  0  0  0  0  0  0  0  0
  188.1470  172.6030  139.2440 C   0  0  0  0  0  1  0  0  0  0  0  0
  187.8420  176.2020  144.8520 C   0  0  0  0  0  2  0  0  0  0  0  0
  187.9380  176.7400  146.2880 C   0  0  2  0  0  3  0  0  0  0  0  0
  187.6940  175.7020  147.1950 O   0  0  0  0  0  0  0  0  0  0  0  0
  188.9050  175.0160  147.2870 C   0  0  0  0  0  1  0  0  0  0  0  0
  187.0030  177.9460  146.5120 C   0  0  1  0  0  3  0  0  0  0  0  0
  184.4170  177.8710  146.5260 C   0  0  0  0  0  1  0  0  0  0  0  0
  185.6950  177.8490  145.6910 C   0  0  1  0  0  3  0  0  0  0  0  0
  185.6340  178.7730  144.6230 O   0  0  0  0  0  0  0  0  0  0  0  0
  184.5050  178.4900  143.8320 C   0  0  0  0  0  2  0  0  0  0  0  0
  183.9940  178.2000  141.3780 C   0  0  0  0  0  0  0  0  0  0  0  0
  184.9210  178.1950  142.4710 N   0  0  0  0  0  0  0  0  0  0  0  0
  185.7380  177.4350  139.8750 N   0  0  0  0  0  2  0  0  0  0  0  0
  186.6840  178.0920  140.7740 C   0  0  0  0  0  2  0  0  0  0  0  0
  186.3000  177.7940  142.2210 C   0  0  0  0  0  2  0  0  0  0  0  0
  182.7800  178.4850  141.5620 O   0  0  0  0  0  0  0  0  0  0  0  0
  184.4670  177.9480  140.0890 O   0  0  0  0  0  0  0  0  0  0  0  0
  186.7100  178.0610  148.0040 C   0  0  0  0  0  2  0  0  0  0  0  0
  187.3220  179.2060  148.5150 O   0  0  0  0  0  1  0  0  0  0  0  0
  1  9  2  0  0  0  0
  3 11  1  1  0  0  0
  3 12  1  0  0  0  0
  4  2  1  6  0  0  0
  5 14  2  0  0  0  0
  5  6  1  0  0  0  0
  6 22  1  1  0  0  0
  6 10  1  0  0  0  0
  7  5  1  0  0  0  0
  8 13  2  0  0  0  0
 10  3  1  0  0  0  0
 10  8  1  6  0  0  0
 12  4  1  0  0  0  0
 12  1  2  0  0  0  0
 13  4  1  0  0  0  0
 13 26  1  0  0  0  0
 14 11  1  0  0  0  0
 15 18  1  0  0  0  0
 16 21  2  0  0  0  0
 17 20  1  6  0  0  0
 17 15  1  0  0  0  0
 17 16  1  0  0  0  0
 18 19  1  0  0  0  0
 19  9  1  6  0  0  0
 21 19  1  0  0  0  0
 22 23  2  0  0  0  0
 24 22  1  0  0  0  0
 25 24  1  0  0  0  0
 27 26  1  6  0  0  0
 27 30  1  0  0  0  0
 27 28  1  0  0  0  0
 28 29  1  0  0  0  0
 30 42  1  1  0  0  0
 32 30  1  0  0  0  0
 32 31  1  1  0  0  0
 33 32  1  0  0  0  0
 34 33  1  0  0  0  0
 35 40  2  0  0  0  0
 35 36  1  0  0  0  0
 36 34  1  0  0  0  0
 37 41  1  0  0  0  0
 37 38  1  0  0  0  0
 38 39  1  0  0  0  0
 39 36  1  0  0  0  0
 41 35  1  0  0  0  0
 42 43  1  0  0  0  0
M  END
>  <MODEL>
3

>  <REMARK>
 VINA RESULT:      -6.6      2.447      5.402
  Name = 
  12 active torsions:
  status: ('A' for Active; 'I' for Inactive)
    1  A    between atoms: C_2  and  C_6
    2  A    between atoms: C_2  and  C_38
    3  A    between atoms: C_4  and  C_15
    4  A    between atoms: C_4  and  O_22
    5  A    between atoms: O_5  and  C_18
    6  A    between atoms: C_6  and  O_12
    7  A    between atoms: C_6  and  C_15
    8  A    between atoms: C_10  and  C_15
    9  A    between atoms: N_14  and  C_41
   10  A    between atoms: C_18  and  C_21
   11  A    between atoms: O_22  and  C_41
   12  A    between atoms: C_28  and  C_35
                            x       y       z     vdW  Elec       q    Type
                         _______ _______ _______ _____ _____    ______ ____

>  <TORSDO>
F 12

$$$$
=
 OpenBabel11052421073D

 43 46  0  0  1  0  0  0  0  0999 V2000
  189.3240  174.4330  142.2770 C   0  0  0  0  0  0  0  0  0  0  0  0
  191.5340  176.9440  142.8700 C   0  0  0  0  0  1  0  0  0  0  0  0
  188.2800  176.6180  142.7620 C   0  0  2  0  0  3  0  0  0  0  0  0
  190.6100  175.9880  143.6100 C   0  0  2  0  0  3  0  0  0  0  0  0
  185.7610  177.8980  143.1360 C   0  0  0  0  0  0  0  0  0  0  0  0
  186.7090  177.8540  144.3160 C   0  0  2  0  0  3  0  0  0  0  0  0
  184.6720  178.7570  143.1810 O   0  0  0  0  0  1  0  0  0  0  0  0
  188.9280  177.0120  145.1670 C   0  0  0  0  0  3  0  0  0  0  0  0
  189.2120  173.2160  141.8260 C   0  0  0  0  0  3  0  0  0  0  0  0
  187.7900  176.7650  144.2030 C   0  0  2  0  0  3  0  0  0  0  0  0
  187.1000  176.2130  141.8780 C   0  0  0  0  0  2  0  0  0  0  0  0
  189.4350  175.6510  142.7450 C   0  0  0  0  0  0  0  0  0  0  0  0
  190.1880  176.5980  144.9370 C   0  0  0  0  0  0  0  0  0  0  0  0
  185.9680  177.1870  142.0220 C   0  0  0  0  0  3  0  0  0  0  0  0
  188.9110  171.9230  138.2850 C   0  0  0  0  0  2  0  0  0  0  0  0
  188.3940  174.3850  138.5460 C   0  0  0  0  0  3  0  0  0  0  0  0
  188.8070  173.2840  137.5980 C   0  0  1  0  0  3  0  0  0  0  0  0
  189.5270  172.0720  139.6670 C   0  0  0  0  0  2  0  0  0  0  0  0
  188.6080  172.9630  140.4920 C   0  0  2  0  0  3  0  0  0  0  0  0
  190.0330  173.6090  137.0180 O   0  0  0  0  0  1  0  0  0  0  0  0
  188.3530  174.2280  139.8270 N   0  0  0  0  0  0  0  0  0  0  0  0
  185.9480  177.7340  145.6010 C   0  0  0  0  0  0  0  0  0  0  0  0
  185.3540  176.6560  145.8880 O   0  0  0  0  0  0  0  0  0  0  0  0
  185.8750  178.8380  146.4530 O   0  0  0  0  0  0  0  0  0  0  0  0
  185.7010  178.6890  147.8540 C   0  0  0  0  0  1  0  0  0  0  0  0
  191.2070  176.8110  146.0220 C   0  0  0  0  0  2  0  0  0  0  0  0
  191.6800  175.4960  146.6610 C   0  0  2  0  0  3  0  0  0  0  0  0
  191.4850  175.5510  148.0450 O   0  0  0  0  0  0  0  0  0  0  0  0
  191.2490  176.8990  148.3200 C   0  0  0  0  0  1  0  0  0  0  0  0
  193.1410  175.1720  146.2870 C   0  0  1  0  0  3  0  0  0  0  0  0
  194.0640  174.4020  143.9960 C   0  0  0  0  0  1  0  0  0  0  0  0
  193.2550  174.0390  145.2400 C   0  0  1  0  0  3  0  0  0  0  0  0
  193.6720  172.8060  145.7900 O   0  0  0  0  0  0  0  0  0  0  0  0
  194.1860  171.9930  144.7630 C   0  0  0  0  0  2  0  0  0  0  0  0
  196.6090  171.4240  145.1730 C   0  0  0  0  0  0  0  0  0  0  0  0
  195.2150  171.1170  145.2980 N   0  0  0  0  0  0  0  0  0  0  0  0
  197.1830  169.2970  146.1890 N   0  0  0  0  0  2  0  0  0  0  0  0
  195.8960  169.3740  146.8760 C   0  0  0  0  0  2  0  0  0  0  0  0
  194.8250  169.8470  145.8980 C   0  0  0  0  0  2  0  0  0  0  0  0
  196.9900  172.4850  144.6090 O   0  0  0  0  0  0  0  0  0  0  0  0
  197.5450  170.5600  145.7460 O   0  0  0  0  0  0  0  0  0  0  0  0
  193.8090  176.4510  145.7920 C   0  0  0  0  0  2  0  0  0  0  0  0
  194.4460  177.0900  146.8560 O   0  0  0  0  0  1  0  0  0  0  0  0
  1 12  2  0  0  0  0
  3 11  1  6  0  0  0
  3 10  1  0  0  0  0
  4  2  1  6  0  0  0
  4 13  1  0  0  0  0
  5  7  1  0  0  0  0
  5  6  1  0  0  0  0
  6 22  1  1  0  0  0
  9  1  2  0  0  0  0
 10  6  1  0  0  0  0
 10  8  1  1  0  0  0
 11 14  1  0  0  0  0
 12  3  1  0  0  0  0
 12  4  1  0  0  0  0
 13  8  2  0  0  0  0
 13 26  1  0  0  0  0
 14  5  2  0  0  0  0
 15 18  1  0  0  0  0
 16 21  2  0  0  0  0
 17 20  1  1  0  0  0
 17 15  1  0  0  0  0
 17 16  1  0  0  0  0
 18 19  1  0  0  0  0
 19  9  1  1  0  0  0
 21 19  1  0  0  0  0
 22 23  2  0  0  0  0
 22 24  1  0  0  0  0
 24 25  1  0  0  0  0
 27 26  1  6  0  0  0
 27 28  1  0  0  0  0
 28 29  1  0  0  0  0
 30 42  1  6  0  0  0
 30 27  1  0  0  0  0
 32 31  1  6  0  0  0
 32 33  1  0  0  0  0
 32 30  1  0  0  0  0
 34 36  1  0  0  0  0
 34 33  1  0  0  0  0
 35 36  1  0  0  0  0
 35 41  1  0  0  0  0
 36 39  1  0  0  0  0
 37 38  1  0  0  0  0
 39 38  1  0  0  0  0
 40 35  2  0  0  0  0
 41 37  1  0  0  0  0
 42 43  1  0  0  0  0
M  END
>  <MODEL>
4

>  <REMARK>
 VINA RESULT:      -6.5      3.192      7.962
  Name = 
  12 active torsions:
  status: ('A' for Active; 'I' for Inactive)
    1  A    between atoms: C_2  and  C_6
    2  A    between atoms: C_2  and  C_38
    3  A    between atoms: C_4  and  C_15
    4  A    between atoms: C_4  and  O_22
    5  A    between atoms: O_5  and  C_18
    6  A    between atoms: C_6  and  O_12
    7  A    between atoms: C_6  and  C_15
    8  A    between atoms: C_10  and  C_15
    9  A    between atoms: N_14  and  C_41
   10  A    between atoms: C_18  and  C_21
   11  A    between atoms: O_22  and  C_41
   12  A    between atoms: C_28  and  C_35
                            x       y       z     vdW  Elec       q    Type
                         _______ _______ _______ _____ _____    ______ ____

>  <TORSDO>
F 12

$$$$
=
 OpenBabel11052421073D

 43 46  0  0  1  0  0  0  0  0999 V2000
  189.4510  175.5060  142.4310 C   0  0  0  0  0  0  0  0  0  0  0  0
  190.7790  173.2120  144.5550 C   0  0  0  0  0  1  0  0  0  0  0  0
  189.7980  173.2720  141.4350 C   0  0  2  0  0  3  0  0  0  0  0  0
  191.1810  174.1270  143.4090 C   0  0  2  0  0  3  0  0  0  0  0  0
  189.5880  171.8170  138.9930 C   0  0  0  0  0  0  0  0  0  0  0  0
  190.9690  171.9960  139.5870 C   0  0  2  0  0  3  0  0  0  0  0  0
  189.4060  170.8770  137.9880 O   0  0  0  0  0  1  0  0  0  0  0  0
  192.3100  173.0550  141.4420 C   0  0  0  0  0  3  0  0  0  0  0  0
  188.9020  176.6850  142.3660 C   0  0  0  0  0  3  0  0  0  0  0  0
  191.0670  173.1600  140.5890 C   0  0  2  0  0  3  0  0  0  0  0  0
  188.6090  173.5360  140.5100 C   0  0  0  0  0  2  0  0  0  0  0  0
  190.0160  174.3260  142.4890 C   0  0  0  0  0  0  0  0  0  0  0  0
  192.3910  173.5550  142.6880 C   0  0  0  0  0  0  0  0  0  0  0  0
  188.5200  172.4840  139.4450 C   0  0  0  0  0  3  0  0  0  0  0  0
  185.5900  178.3730  141.6730 C   0  0  0  0  0  2  0  0  0  0  0  0
  185.5670  176.8000  143.6540 C   0  0  0  0  0  3  0  0  0  0  0  0
  184.9010  177.9760  142.9800 C   0  0  1  0  0  3  0  0  0  0  0  0
  187.1000  178.2720  141.8180 C   0  0  0  0  0  2  0  0  0  0  0  0
  187.4420  176.8200  142.1250 C   0  0  2  0  0  3  0  0  0  0  0  0
  184.8920  179.0640  143.8520 O   0  0  0  0  0  1  0  0  0  0  0  0
  186.7120  176.3330  143.2810 N   0  0  0  0  0  0  0  0  0  0  0  0
  191.9980  172.1210  138.5050 C   0  0  0  0  0  0  0  0  0  0  0  0
  191.9130  173.0510  137.6530 O   0  0  0  0  0  0  0  0  0  0  0  0
  193.0240  171.1770  138.4310 O   0  0  0  0  0  0  0  0  0  0  0  0
  192.7730  169.8290  138.0670 C   0  0  0  0  0  1  0  0  0  0  0  0
  193.7170  173.4790  143.3930 C   0  0  0  0  0  2  0  0  0  0  0  0
  194.4010  174.8490  143.5220 C   0  0  2  0  0  3  0  0  0  0  0  0
  195.1660  175.1000  142.3770 O   0  0  0  0  0  0  0  0  0  0  0  0
  194.6710  176.3040  141.8730 C   0  0  0  0  0  1  0  0  0  0  0  0
  195.2320  174.9540  144.8170 C   0  0  1  0  0  3  0  0  0  0  0  0
  194.5680  177.3050  145.6700 C   0  0  0  0  0  1  0  0  0  0  0  0
  194.5340  175.7970  145.9100 C   0  0  1  0  0  3  0  0  0  0  0  0
  193.2280  175.3480  146.2140 O   0  0  0  0  0  0  0  0  0  0  0  0
  192.5530  176.3510  146.9350 C   0  0  0  0  0  2  0  0  0  0  0  0
  190.3170  176.8040  145.8580 C   0  0  0  0  0  0  0  0  0  0  0  0
  191.1170  176.1390  146.8420 N   0  0  0  0  0  0  0  0  0  0  0  0
  188.3080  175.8410  146.8190 N   0  0  0  0  0  2  0  0  0  0  0  0
  189.1550  174.7390  147.2710 C   0  0  0  0  0  2  0  0  0  0  0  0
  190.4580  175.2990  147.8340 C   0  0  0  0  0  2  0  0  0  0  0  0
  190.8400  177.5850  145.0180 O   0  0  0  0  0  0  0  0  0  0  0  0
  188.9500  176.5250  145.7970 O   0  0  0  0  0  0  0  0  0  0  0  0
  195.5320  173.5440  145.3140 C   0  0  0  0  0  2  0  0  0  0  0  0
  196.6560  173.5670  146.1420 O   0  0  0  0  0  1  0  0  0  0  0  0
  1 12  2  0  0  0  0
  3 11  1  6  0  0  0
  3 12  1  0  0  0  0
  4  2  1  1  0  0  0
  5 14  2  0  0  0  0
  5  6  1  0  0  0  0
  6 22  1  6  0  0  0
  6 10  1  0  0  0  0
  7  5  1  0  0  0  0
  8 13  2  0  0  0  0
  9  1  2  0  0  0  0
 10  3  1  0  0  0  0
 10  8  1  1  0  0  0
 12  4  1  0  0  0  0
 13 26  1  0  0  0  0
 13  4  1  0  0  0  0
 14 11  1  0  0  0  0
 15 18  1  0  0  0  0
 15 17  1  0  0  0  0
 17 16  1  0  0  0  0
 17 20  1  1  0  0  0
 18 19  1  0  0  0  0
 19  9  1  1  0  0  0
 19 21  1  0  0  0  0
 21 16  2  0  0  0  0
 23 22  2  0  0  0  0
 24 22  1  0  0  0  0
 25 24  1  0  0  0  0
 27 26  1  6  0  0  0
 27 30  1  0  0  0  0
 28 27  1  0  0  0  0
 29 28  1  0  0  0  0
 30 42  1  1  0  0  0
 30 32  1  0  0  0  0
 32 31  1  6  0  0  0
 32 33  1  0  0  0  0
 33 34  1  0  0  0  0
 35 36  1  0  0  0  0
 36 34  1  0  0  0  0
 36 39  1  0  0  0  0
 37 38  1  0  0  0  0
 38 39  1  0  0  0  0
 40 35  2  0  0  0  0
 41 35  1  0  0  0  0
 41 37  1  0  0  0  0
 42 43  1  0  0  0  0
M  END
>  <MODEL>
5

>  <REMARK>
 VINA RESULT:      -6.4      2.114      6.632
  Name = 
  12 active torsions:
  status: ('A' for Active; 'I' for Inactive)
    1  A    between atoms: C_2  and  C_6
    2  A    between atoms: C_2  and  C_38
    3  A    between atoms: C_4  and  C_15
    4  A    between atoms: C_4  and  O_22
    5  A    between atoms: O_5  and  C_18
    6  A    between atoms: C_6  and  O_12
    7  A    between atoms: C_6  and  C_15
    8  A    between atoms: C_10  and  C_15
    9  A    between atoms: N_14  and  C_41
   10  A    between atoms: C_18  and  C_21
   11  A    between atoms: O_22  and  C_41
   12  A    between atoms: C_28  and  C_35
                            x       y       z     vdW  Elec       q    Type
                         _______ _______ _______ _____ _____    ______ ____

>  <TORSDO>
F 12

$$$$
=
 OpenBabel11052421073D

 43 46  0  0  1  0  0  0  0  0999 V2000
  189.0670  175.3140  143.6150 C   0  0  0  0  0  0  0  0  0  0  0  0
  189.6910  172.2870  145.0250 C   0  0  0  0  0  1  0  0  0  0  0  0
  189.6350  173.5330  142.0000 C   0  0  2  0  0  3  0  0  0  0  0  0
  190.4200  173.4840  144.4350 C   0  0  2  0  0  3  0  0  0  0  0  0
  190.0950  173.0400  139.2310 C   0  0  0  0  0  0  0  0  0  0  0  0
  191.2540  172.8360  140.1820 C   0  0  2  0  0  3  0  0  0  0  0  0
  190.1850  172.5320  137.9430 O   0  0  0  0  0  1  0  0  0  0  0  0
  192.0380  173.0230  142.5720 C   0  0  0  0  0  3  0  0  0  0  0  0
  188.5840  176.5010  143.8450 C   0  0  0  0  0  3  0  0  0  0  0  0
  191.0890  173.5650  141.5280 C   0  0  2  0  0  3  0  0  0  0  0  0
  188.7630  174.2400  140.9630 C   0  0  0  0  0  2  0  0  0  0  0  0
  189.5680  174.1260  143.3830 C   0  0  0  0  0  0  0  0  0  0  0  0
  191.7730  173.0520  143.8910 C   0  0  0  0  0  0  0  0  0  0  0  0
  188.9570  173.6370  139.6040 C   0  0  0  0  0  3  0  0  0  0  0  0
  185.9320  178.6620  142.2330 C   0  0  0  0  0  2  0  0  0  0  0  0
  185.2270  177.5980  144.4170 C   0  0  0  0  0  3  0  0  0  0  0  0
  184.9810  178.7140  143.4290 C   0  0  1  0  0  3  0  0  0  0  0  0
  187.3310  178.2770  142.6840 C   0  0  0  0  0  2  0  0  0  0  0  0
  187.2550  176.8880  143.3030 C   0  0  2  0  0  3  0  0  0  0  0  0
  185.1110  179.9420  144.0760 O   0  0  0  0  0  1  0  0  0  0  0  0
  186.2640  176.8290  144.3620 N   0  0  0  0  0  0  0  0  0  0  0  0
  192.5500  173.1990  139.5220 C   0  0  0  0  0  0  0  0  0  0  0  0
  193.3040  172.2940  139.0660 O   0  0  0  0  0  0  0  0  0  0  0  0
  192.9250  174.5420  139.4550 O   0  0  0  0  0  0  0  0  0  0  0  0
  194.2000  174.9840  139.8950 C   0  0  0  0  0  1  0  0  0  0  0  0
  192.8430  172.5780  144.8350 C   0  0  0  0  0  2  0  0  0  0  0  0
  193.7700  171.5280  144.2020 C   0  0  2  0  0  3  0  0  0  0  0  0
  193.4120  170.2530  144.6570 O   0  0  0  0  0  0  0  0  0  0  0  0
  193.0130  169.5650  143.5100 C   0  0  0  0  0  1  0  0  0  0  0  0
  195.2570  171.8470  144.4620 C   0  0  1  0  0  3  0  0  0  0  0  0
  196.6430  173.4010  145.9980 C   0  0  0  0  0  1  0  0  0  0  0  0
  195.4750  173.2720  145.0210 C   0  0  1  0  0  3  0  0  0  0  0  0
  195.5250  174.2660  144.0180 O   0  0  0  0  0  0  0  0  0  0  0  0
  195.5730  175.5340  144.6270 C   0  0  0  0  0  2  0  0  0  0  0  0
  193.2280  176.3500  144.1760 C   0  0  0  0  0  0  0  0  0  0  0  0
  194.2440  175.9090  145.0850 N   0  0  0  0  0  0  0  0  0  0  0  0
  191.7400  176.8030  146.0380 N   0  0  0  0  0  2  0  0  0  0  0  0
  192.4670  175.7640  146.7630 C   0  0  0  0  0  2  0  0  0  0  0  0
  193.9650  175.9250  146.5150 C   0  0  0  0  0  2  0  0  0  0  0  0
  193.4480  176.4060  142.9370 O   0  0  0  0  0  0  0  0  0  0  0  0
  191.9610  176.6550  144.6770 O   0  0  0  0  0  0  0  0  0  0  0  0
  195.8200  170.7900  145.4080 C   0  0  0  0  0  2  0  0  0  0  0  0
  196.7990  170.0450  144.7500 O   0  0  0  0  0  1  0  0  0  0  0  0
  1  9  2  0  0  0  0
  3 11  1  6  0  0  0
  3 12  1  0  0  0  0
  4  2  1  6  0  0  0
  5 14  2  0  0  0  0
  5  6  1  0  0  0  0
  6 22  1  6  0  0  0
  6 10  1  0  0  0  0
  7  5  1  0  0  0  0
  8 13  2  0  0  0  0
 10  3  1  0  0  0  0
 10  8  1  1  0  0  0
 12  1  2  0  0  0  0
 12  4  1  0  0  0  0
 13  4  1  0  0  0  0
 13 26  1  0  0  0  0
 14 11  1  0  0  0  0
 15 18  1  0  0  0  0
 15 17  1  0  0  0  0
 17 20  1  1  0  0  0
 17 16  1  0  0  0  0
 18 19  1  0  0  0  0
 19  9  1  1  0  0  0
 19 21  1  0  0  0  0
 21 16  2  0  0  0  0
 23 22  2  0  0  0  0
 24 22  1  0  0  0  0
 24 25  1  0  0  0  0
 27 30  1  0  0  0  0
 27 28  1  0  0  0  0
 27 26  1  1  0  0  0
 29 28  1  0  0  0  0
 30 32  1  0  0  0  0
 30 42  1  1  0  0  0
 32 31  1  6  0  0  0
 33 34  1  0  0  0  0
 33 32  1  0  0  0  0
 34 36  1  0  0  0  0
 35 41  1  0  0  0  0
 35 36  1  0  0  0  0
 36 39  1  0  0  0  0
 37 38  1  0  0  0  0
 39 38  1  0  0  0  0
 40 35  2  0  0  0  0
 41 37  1  0  0  0  0
 43 42  1  0  0  0  0
M  END
>  <MODEL>
6

>  <REMARK>
 VINA RESULT:      -6.2      2.694      7.190
  Name = 
  12 active torsions:
  status: ('A' for Active; 'I' for Inactive)
    1  A    between atoms: C_2  and  C_6
    2  A    between atoms: C_2  and  C_38
    3  A    between atoms: C_4  and  C_15
    4  A    between atoms: C_4  and  O_22
    5  A    between atoms: O_5  and  C_18
    6  A    between atoms: C_6  and  O_12
    7  A    between atoms: C_6  and  C_15
    8  A    between atoms: C_10  and  C_15
    9  A    between atoms: N_14  and  C_41
   10  A    between atoms: C_18  and  C_21
   11  A    between atoms: O_22  and  C_41
   12  A    between atoms: C_28  and  C_35
                            x       y       z     vdW  Elec       q    Type
                         _______ _______ _______ _____ _____    ______ ____

>  <TORSDO>
F 12

$$$$
=
 OpenBabel11052421073D

 43 46  0  0  1  0  0  0  0  0999 V2000
  190.1790  175.4020  143.8310 C   0  0  0  0  0  0  0  0  0  0  0  0
  189.6900  172.3060  145.1400 C   0  0  0  0  0  1  0  0  0  0  0  0
  189.3800  173.7220  142.2070 C   0  0  2  0  0  3  0  0  0  0  0  0
  190.6950  173.0880  144.3070 C   0  0  2  0  0  3  0  0  0  0  0  0
  188.7660  173.3390  139.4500 C   0  0  0  0  0  0  0  0  0  0  0  0
  189.9110  172.5390  140.0320 C   0  0  2  0  0  3  0  0  0  0  0  0
  188.2470  172.9710  138.2160 O   0  0  0  0  0  1  0  0  0  0  0  0
  191.3220  172.1180  142.0800 C   0  0  0  0  0  3  0  0  0  0  0  0
  190.3870  176.6520  144.1350 C   0  0  0  0  0  3  0  0  0  0  0  0
  190.4850  173.1300  141.3310 C   0  0  2  0  0  3  0  0  0  0  0  0
  188.6860  174.8450  141.4360 C   0  0  0  0  0  2  0  0  0  0  0  0
  189.9840  174.1460  143.5200 C   0  0  0  0  0  0  0  0  0  0  0  0
  191.4790  172.1400  143.4150 C   0  0  0  0  0  0  0  0  0  0  0  0
  188.1900  174.3510  140.1080 C   0  0  0  0  0  3  0  0  0  0  0  0
  186.9160  178.1350  144.3470 C   0  0  0  0  0  2  0  0  0  0  0  0
  187.9820  178.2950  142.0590 C   0  0  0  0  0  3  0  0  0  0  0  0
  186.6920  178.3020  142.8440 C   0  0  1  0  0  3  0  0  0  0  0  0
  188.0160  177.1200  144.6100 C   0  0  0  0  0  2  0  0  0  0  0  0
  189.2990  177.6520  143.9850 C   0  0  2  0  0  3  0  0  0  0  0  0
  185.8630  177.2810  142.3800 O   0  0  0  0  0  1  0  0  0  0  0  0
  189.1170  177.9640  142.5790 N   0  0  0  0  0  0  0  0  0  0  0  0
  190.9850  172.3300  139.0080 C   0  0  0  0  0  0  0  0  0  0  0  0
  191.8250  173.2440  138.7750 O   0  0  0  0  0  0  0  0  0  0  0  0
  191.0180  171.1310  138.2930 O   0  0  0  0  0  0  0  0  0  0  0  0
  190.9940  169.8720  138.9470 C   0  0  0  0  0  1  0  0  0  0  0  0
  192.4220  171.1410  144.0290 C   0  0  0  0  0  2  0  0  0  0  0  0
  193.6620  170.8820  143.1580 C   0  0  2  0  0  3  0  0  0  0  0  0
  194.0630  169.5490  143.3000 O   0  0  0  0  0  0  0  0  0  0  0  0
  193.1170  168.9800  144.1540 C   0  0  0  0  0  1  0  0  0  0  0  0
  194.8010  171.8740  143.4750 C   0  0  1  0  0  3  0  0  0  0  0  0
  195.8310  171.2480  145.7640 C   0  0  0  0  0  1  0  0  0  0  0  0
  194.9160  172.1900  144.9850 C   0  0  1  0  0  3  0  0  0  0  0  0
  195.2170  173.5450  145.2510 O   0  0  0  0  0  0  0  0  0  0  0  0
  194.3000  174.3650  144.5660 C   0  0  0  0  0  2  0  0  0  0  0  0
  194.3880  175.6850  142.4180 C   0  0  0  0  0  0  0  0  0  0  0  0
  195.0090  175.2090  143.6180 N   0  0  0  0  0  0  0  0  0  0  0  0
  196.4820  176.6890  141.7160 N   0  0  0  0  0  2  0  0  0  0  0  0
  196.8090  176.7970  143.1360 C   0  0  0  0  0  2  0  0  0  0  0  0
  196.4180  175.5040  143.8460 C   0  0  0  0  0  2  0  0  0  0  0  0
  193.1880  175.4040  142.1550 O   0  0  0  0  0  0  0  0  0  0  0  0
  195.1120  176.5250  141.5700 O   0  0  0  0  0  0  0  0  0  0  0  0
  196.1050  171.3010  142.9300 C   0  0  0  0  0  2  0  0  0  0  0  0
  196.9420  172.3430  142.5270 O   0  0  0  0  0  1  0  0  0  0  0  0
  1  9  2  0  0  0  0
  3 11  1  6  0  0  0
  3 12  1  0  0  0  0
  4  2  1  6  0  0  0
  5  6  1  0  0  0  0
  5 14  2  0  0  0  0
  6 22  1  6  0  0  0
  6 10  1  0  0  0  0
  7  5  1  0  0  0  0
  8 13  2  0  0  0  0
 10  8  1  1  0  0  0
 10  3  1  0  0  0  0
 12  1  2  0  0  0  0
 12  4  1  0  0  0  0
 13 26  1  0  0  0  0
 13  4  1  0  0  0  0
 14 11  1  0  0  0  0
 15 18  1  0  0  0  0
 16 21  2  0  0  0  0
 16 17  1  0  0  0  0
 17 20  1  6  0  0  0
 17 15  1  0  0  0  0
 19  9  1  6  0  0  0
 19 18  1  0  0  0  0
 21 19  1  0  0  0  0
 23 22  2  0  0  0  0
 24 25  1  0  0  0  0
 24 22  1  0  0  0  0
 27 28  1  0  0  0  0
 27 30  1  0  0  0  0
 27 26  1  1  0  0  0
 28 29  1  0  0  0  0
 30 42  1  1  0  0  0
 30 32  1  0  0  0  0
 32 33  1  0  0  0  0
 32 31  1  6  0  0  0
 34 33  1  0  0  0  0
 35 36  1  0  0  0  0
 36 39  1  0  0  0  0
 36 34  1  0  0  0  0
 37 38  1  0  0  0  0
 38 39  1  0  0  0  0
 40 35  2  0  0  0  0
 41 37  1  0  0  0  0
 41 35  1  0  0  0  0
 43 42  1  0  0  0  0
M  END
>  <MODEL>
7

>  <REMARK>
 VINA RESULT:      -6.1      2.532      7.722
  Name = 
  12 active torsions:
  status: ('A' for Active; 'I' for Inactive)
    1  A    between atoms: C_2  and  C_6
    2  A    between atoms: C_2  and  C_38
    3  A    between atoms: C_4  and  C_15
    4  A    between atoms: C_4  and  O_22
    5  A    between atoms: O_5  and  C_18
    6  A    between atoms: C_6  and  O_12
    7  A    between atoms: C_6  and  C_15
    8  A    between atoms: C_10  and  C_15
    9  A    between atoms: N_14  and  C_41
   10  A    between atoms: C_18  and  C_21
   11  A    between atoms: O_22  and  C_41
   12  A    between atoms: C_28  and  C_35
                            x       y       z     vdW  Elec       q    Type
                         _______ _______ _______ _____ _____    ______ ____

>  <TORSDO>
F 12

$$$$
=
 OpenBabel11052421073D

 43 46  0  0  1  0  0  0  0  0999 V2000
  189.0100  174.8760  141.9410 C   0  0  0  0  0  0  0  0  0  0  0  0
  189.7880  171.7050  142.8790 C   0  0  0  0  0  1  0  0  0  0  0  0
  189.4510  173.3350  140.0620 C   0  0  2  0  0  3  0  0  0  0  0  0
  190.4490  172.9850  142.3910 C   0  0  2  0  0  3  0  0  0  0  0  0
  189.6690  173.2200  137.2220 C   0  0  0  0  0  0  0  0  0  0  0  0
  190.9100  172.9180  138.0340 C   0  0  2  0  0  3  0  0  0  0  0  0
  189.6510  172.8870  135.8750 O   0  0  0  0  0  1  0  0  0  0  0  0
  191.9000  172.8080  140.3510 C   0  0  0  0  0  3  0  0  0  0  0  0
  188.5360  176.0120  142.3670 C   0  0  0  0  0  3  0  0  0  0  0  0
  190.8570  173.4610  139.4740 C   0  0  2  0  0  3  0  0  0  0  0  0
  188.4830  174.1530  139.2070 C   0  0  0  0  0  2  0  0  0  0  0  0
  189.5000  173.7410  141.5120 C   0  0  0  0  0  0  0  0  0  0  0  0
  191.7520  172.6580  141.6800 C   0  0  0  0  0  0  0  0  0  0  0  0
  188.5620  173.7370  137.7680 C   0  0  0  0  0  3  0  0  0  0  0  0
  185.7440  178.2860  141.2090 C   0  0  0  0  0  2  0  0  0  0  0  0
  185.2640  177.0570  143.3680 C   0  0  0  0  0  3  0  0  0  0  0  0
  184.9230  178.2440  142.4980 C   0  0  1  0  0  3  0  0  0  0  0  0
  187.1810  177.8690  141.4810 C   0  0  0  0  0  2  0  0  0  0  0  0
  187.1600  176.4370  141.9980 C   0  0  2  0  0  3  0  0  0  0  0  0
  185.1290  179.4200  143.2200 O   0  0  0  0  0  1  0  0  0  0  0  0
  186.2850  176.2970  143.1470 N   0  0  0  0  0  0  0  0  0  0  0  0
  192.1380  173.3930  137.3190 C   0  0  0  0  0  0  0  0  0  0  0  0
  192.8860  172.5650  136.7250 O   0  0  0  0  0  0  0  0  0  0  0  0
  192.4610  174.7510  137.3520 O   0  0  0  0  0  0  0  0  0  0  0  0
  192.3980  175.5610  136.1880 C   0  0  0  0  0  1  0  0  0  0  0  0
  192.9080  172.0880  142.4570 C   0  0  0  0  0  2  0  0  0  0  0  0
  193.4450  173.0590  143.5200 C   0  0  2  0  0  3  0  0  0  0  0  0
  192.9700  172.6820  144.7810 O   0  0  0  0  0  0  0  0  0  0  0  0
  194.0400  172.0190  145.3830 C   0  0  0  0  0  1  0  0  0  0  0  0
  193.1060  174.5250  143.1800 C   0  0  1  0  0  3  0  0  0  0  0  0
  193.7290  176.4560  144.7850 C   0  0  0  0  0  1  0  0  0  0  0  0
  192.7290  175.3580  144.4280 C   0  0  1  0  0  3  0  0  0  0  0  0
  191.4050  175.8520  144.3930 O   0  0  0  0  0  0  0  0  0  0  0  0
  191.2080  176.7180  145.4850 C   0  0  0  0  0  2  0  0  0  0  0  0
  189.3770  175.6450  146.8490 C   0  0  0  0  0  0  0  0  0  0  0  0
  189.8250  176.6450  145.9250 N   0  0  0  0  0  0  0  0  0  0  0  0
  187.0920  176.4240  146.6080 N   0  0  0  0  0  2  0  0  0  0  0  0
  187.6610  177.7320  146.2890 C   0  0  0  0  0  2  0  0  0  0  0  0
  188.8450  177.5530  145.3430 C   0  0  0  0  0  2  0  0  0  0  0  0
  190.1810  174.8030  147.3310 O   0  0  0  0  0  0  0  0  0  0  0  0
  188.0430  175.6550  147.2620 O   0  0  0  0  0  0  0  0  0  0  0  0
  194.2940  175.1380  142.4450 C   0  0  0  0  0  2  0  0  0  0  0  0
  193.8710  175.6570  141.2210 O   0  0  0  0  0  1  0  0  0  0  0  0
  1  9  2  0  0  0  0
  3 11  1  6  0  0  0
  3 12  1  0  0  0  0
  4  2  1  6  0  0  0
  5 14  2  0  0  0  0
  5  6  1  0  0  0  0
  6 22  1  6  0  0  0
  6 10  1  0  0  0  0
  7  5  1  0  0  0  0
  8 13  2  0  0  0  0
 10  3  1  0  0  0  0
 10  8  1  1  0  0  0
 12  1  2  0  0  0  0
 12  4  1  0  0  0  0
 13  4  1  0  0  0  0
 13 26  1  0  0  0  0
 14 11  1  0  0  0  0
 15 18  1  0  0  0  0
 15 17  1  0  0  0  0
 17 20  1  1  0  0  0
 17 16  1  0  0  0  0
 18 19  1  0  0  0  0
 19  9  1  1  0  0  0
 19 21  1  0  0  0  0
 21 16  2  0  0  0  0
 22 24  1  0  0  0  0
 23 22  2  0  0  0  0
 25 24  1  0  0  0  0
 27 26  1  6  0  0  0
 27 28  1  0  0  0  0
 28 29  1  0  0  0  0
 30 42  1  1  0  0  0
 30 27  1  0  0  0  0
 30 32  1  0  0  0  0
 32 31  1  6  0  0  0
 33 32  1  0  0  0  0
 33 34  1  0  0  0  0
 34 36  1  0  0  0  0
 35 41  1  0  0  0  0
 35 40  2  0  0  0  0
 36 35  1  0  0  0  0
 37 41  1  0  0  0  0
 38 37  1  0  0  0  0
 39 36  1  0  0  0  0
 39 38  1  0  0  0  0
 43 42  1  0  0  0  0
M  END
>  <MODEL>
8

>  <REMARK>
 VINA RESULT:      -6.1      2.244      6.448
  Name = 
  12 active torsions:
  status: ('A' for Active; 'I' for Inactive)
    1  A    between atoms: C_2  and  C_6
    2  A    between atoms: C_2  and  C_38
    3  A    between atoms: C_4  and  C_15
    4  A    between atoms: C_4  and  O_22
    5  A    between atoms: O_5  and  C_18
    6  A    between atoms: C_6  and  O_12
    7  A    between atoms: C_6  and  C_15
    8  A    between atoms: C_10  and  C_15
    9  A    between atoms: N_14  and  C_41
   10  A    between atoms: C_18  and  C_21
   11  A    between atoms: O_22  and  C_41
   12  A    between atoms: C_28  and  C_35
                            x       y       z     vdW  Elec       q    Type
                         _______ _______ _______ _____ _____    ______ ____

>  <TORSDO>
F 12

$$$$
=
 OpenBabel11052421073D

 43 46  0  0  1  0  0  0  0  0999 V2000
  190.2390  175.2780  143.6590 C   0  0  0  0  0  0  0  0  0  0  0  0
  189.6840  172.2120  145.0130 C   0  0  0  0  0  1  0  0  0  0  0  0
  189.3860  173.5960  142.0640 C   0  0  2  0  0  3  0  0  0  0  0  0
  190.7010  172.9580  144.1630 C   0  0  2  0  0  3  0  0  0  0  0  0
  188.7410  173.1940  139.3170 C   0  0  0  0  0  0  0  0  0  0  0  0
  189.8700  172.3720  139.9010 C   0  0  2  0  0  3  0  0  0  0  0  0
  188.2030  172.8220  138.0930 O   0  0  0  0  0  1  0  0  0  0  0  0
  191.2860  171.9440  141.9430 C   0  0  0  0  0  3  0  0  0  0  0  0
  190.4810  176.5260  143.9450 C   0  0  0  0  0  3  0  0  0  0  0  0
  190.4690  172.9660  141.1880 C   0  0  2  0  0  3  0  0  0  0  0  0
  188.7140  174.7260  141.2830 C   0  0  0  0  0  2  0  0  0  0  0  0
  190.0100  174.0220  143.3670 C   0  0  0  0  0  0  0  0  0  0  0  0
  191.4550  171.9790  143.2770 C   0  0  0  0  0  0  0  0  0  0  0  0
  188.1950  174.2280  139.9670 C   0  0  0  0  0  3  0  0  0  0  0  0
  187.0290  178.0640  144.0770 C   0  0  0  0  0  2  0  0  0  0  0  0
  188.1880  178.2890  141.8400 C   0  0  0  0  0  3  0  0  0  0  0  0
  186.8680  178.2900  142.5730 C   0  0  1  0  0  3  0  0  0  0  0  0
  188.1010  177.0200  144.3450 C   0  0  0  0  0  2  0  0  0  0  0  0
  189.4160  177.5510  143.7900 C   0  0  2  0  0  3  0  0  0  0  0  0
  186.0410  177.3020  142.0390 O   0  0  0  0  0  1  0  0  0  0  0  0
  189.2960  177.9170  142.3910 N   0  0  0  0  0  0  0  0  0  0  0  0
  190.9300  172.1240  138.8710 C   0  0  0  0  0  0  0  0  0  0  0  0
  191.4710  173.0950  138.2710 O   0  0  0  0  0  0  0  0  0  0  0  0
  191.2810  170.8080  138.5620 O   0  0  0  0  0  0  0  0  0  0  0  0
  190.5050  170.0190  137.6730 C   0  0  0  0  0  1  0  0  0  0  0  0
  192.3780  170.9650  143.8970 C   0  0  0  0  0  2  0  0  0  0  0  0
  193.8450  171.1690  143.4870 C   0  0  2  0  0  3  0  0  0  0  0  0
  194.6390  170.1820  144.0820 O   0  0  0  0  0  0  0  0  0  0  0  0
  193.7340  169.2180  144.5290 C   0  0  0  0  0  1  0  0  0  0  0  0
  194.3380  172.5940  143.8160 C   0  0  1  0  0  3  0  0  0  0  0  0
  196.1740  173.3300  145.4840 C   0  0  0  0  0  1  0  0  0  0  0  0
  194.7730  172.7510  145.2920 C   0  0  1  0  0  3  0  0  0  0  0  0
  193.8190  173.4230  146.0890 O   0  0  0  0  0  0  0  0  0  0  0  0
  193.5800  174.6990  145.5450 C   0  0  0  0  0  2  0  0  0  0  0  0
  193.3990  176.7790  146.9620 C   0  0  0  0  0  0  0  0  0  0  0  0
  192.8760  175.5210  146.5150 N   0  0  0  0  0  0  0  0  0  0  0  0
  191.5670  176.9970  148.5380 N   0  0  0  0  0  2  0  0  0  0  0  0
  190.7890  176.1710  147.6170 C   0  0  0  0  0  2  0  0  0  0  0  0
  191.6510  175.0140  147.1200 C   0  0  0  0  0  2  0  0  0  0  0  0
  194.4860  177.2260  146.5070 O   0  0  0  0  0  0  0  0  0  0  0  0
  192.6520  177.5380  147.8650 O   0  0  0  0  0  0  0  0  0  0  0  0
  195.4780  172.9430  142.8640 C   0  0  0  0  0  2  0  0  0  0  0  0
  195.0060  172.9530  141.5510 O   0  0  0  0  0  1  0  0  0  0  0  0
  1  9  2  0  0  0  0
  3 11  1  6  0  0  0
  3 12  1  0  0  0  0
  4  2  1  6  0  0  0
  5  6  1  0  0  0  0
  5 14  2  0  0  0  0
  6 22  1  6  0  0  0
  6 10  1  0  0  0  0
  7  5  1  0  0  0  0
  8 13  2  0  0  0  0
 10  8  1  1  0  0  0
 10  3  1  0  0  0  0
 12  1  2  0  0  0  0
 12  4  1  0  0  0  0
 13 26  1  0  0  0  0
 13  4  1  0  0  0  0
 14 11  1  0  0  0  0
 15 18  1  0  0  0  0
 16 21  2  0  0  0  0
 16 17  1  0  0  0  0
 17 20  1  6  0  0  0
 17 15  1  0  0  0  0
 19  9  1  6  0  0  0
 19 18  1  0  0  0  0
 21 19  1  0  0  0  0
 23 22  2  0  0  0  0
 24 22  1  0  0  0  0
 25 24  1  0  0  0  0
 27 30  1  0  0  0  0
 27 26  1  1  0  0  0
 27 28  1  0  0  0  0
 28 29  1  0  0  0  0
 30 42  1  6  0  0  0
 30 32  1  0  0  0  0
 32 31  1  6  0  0  0
 32 33  1  0  0  0  0
 34 33  1  0  0  0  0
 34 36  1  0  0  0  0
 35 41  1  0  0  0  0
 36 35  1  0  0  0  0
 36 39  1  0  0  0  0
 38 37  1  0  0  0  0
 39 38  1  0  0  0  0
 40 35  2  0  0  0  0
 41 37  1  0  0  0  0
 43 42  1  0  0  0  0
M  END
>  <MODEL>
9

>  <REMARK>
 VINA RESULT:      -6.0      2.597      7.319
  Name = 
  12 active torsions:
  status: ('A' for Active; 'I' for Inactive)
    1  A    between atoms: C_2  and  C_6
    2  A    between atoms: C_2  and  C_38
    3  A    between atoms: C_4  and  C_15
    4  A    between atoms: C_4  and  O_22
    5  A    between atoms: O_5  and  C_18
    6  A    between atoms: C_6  and  O_12
    7  A    between atoms: C_6  and  C_15
    8  A    between atoms: C_10  and  C_15
    9  A    between atoms: N_14  and  C_41
   10  A    between atoms: C_18  and  C_21
   11  A    between atoms: O_22  and  C_41
   12  A    between atoms: C_28  and  C_35
                            x       y       z     vdW  Elec       q    Type
                         _______ _______ _______ _____ _____    ______ ____

>  <TORSDO>
F 12

$$$$
