=
 OpenBabel11052418333D

 27 30  0  0  1  0  0  0  0  0999 V2000
  188.8650  176.4710  145.3680 C   0  0  2  0  0  3  0  0  0  0  0  0
  188.3630  177.7130  144.6230 C   0  0  0  0  0  2  0  0  0  0  0  0
  189.1940  176.2290  143.0740 C   0  0  2  0  0  3  0  0  0  0  0  0
  191.0310  174.2620  143.2570 C   0  0  1  0  0  3  0  0  0  0  0  0
  187.9270  174.7870  141.6050 O   0  0  0  0  0  1  0  0  0  0  0  0
  191.9700  173.0730  143.3550 C   0  0  0  0  0  1  0  0  0  0  0  0
  188.9910  175.4100  144.3120 C   0  0  1  0  0  3  0  0  0  0  0  0
  188.4100  177.4690  143.1690 N   0  0  1  0  0  0  0  0  0  0  0  0
  190.2040  174.2080  141.9550 C   0  0  0  0  0  2  0  0  0  0  0  0
  189.6600  173.2180  144.9680 O   0  0  0  0  0  1  0  0  0  0  0  0
  190.1660  174.4460  144.5320 C   0  0  1  0  0  3  0  0  0  0  0  0
  189.1860  175.3590  141.8070 C   0  0  2  0  0  3  0  0  0  0  0  0
  184.5700  177.8250  142.7390 C   0  0  0  0  0  2  0  0  0  0  0  0
  184.7270  177.7540  141.2150 C   0  0  0  0  0  2  0  0  0  0  0  0
  185.8370  178.5140  140.8100 O   0  0  0  0  0  0  0  0  0  0  0  0
  187.0450  177.3160  142.6170 C   0  0  2  0  0  3  0  0  0  0  0  0
  186.9990  177.7810  141.1370 C   0  0  0  0  0  2  0  0  0  0  0  0
  185.9250  178.0070  143.4360 C   0  0  1  0  0  3  0  0  0  0  0  0
  185.0530  180.1410  144.0810 O   0  0  0  0  0  1  0  0  0  0  0  0
  186.2100  179.4920  143.6470 C   0  0  0  0  0  2  0  0  0  0  0  0
  187.9340  176.0470  146.5110 C   0  0  0  0  0  2  0  0  0  0  0  0
  184.6610  178.7420  147.2130 C   0  0  0  0  0  3  0  0  0  0  0  0
  186.7990  176.9940  146.7520 C   0  0  0  0  0  0  0  0  0  0  0  0
  185.5050  176.6430  146.3480 C   0  0  0  0  0  3  0  0  0  0  0  0
  184.4380  177.5160  146.5780 C   0  0  0  0  0  3  0  0  0  0  0  0
  185.9530  179.0960  147.6150 C   0  0  0  0  0  3  0  0  0  0  0  0
  187.0210  178.2240  147.3830 C   0  0  0  0  0  3  0  0  0  0  0  0
  1 21  1  1  0  0  0
  2  1  1  0  0  0  0
  3  8  1  0  0  0  0
  3  7  1  0  0  0  0
  4  6  1  0  0  0  0
  4 11  1  0  0  0  0
  5 12  1  0  0  0  0
  7 11  1  0  0  0  0
  7  1  1  0  0  0  0
  8  2  1  0  0  0  0
  9  4  1  0  0  0  0
 11 10  1  0  0  0  0
 12  9  1  0  0  0  0
 12  3  1  0  0  0  0
 13 18  1  0  0  0  0
 14 13  1  0  0  0  0
 15 17  1  0  0  0  0
 15 14  1  0  0  0  0
 16  8  1  0  0  0  0
 16 18  1  0  0  0  0
 17 16  1  0  0  0  0
 18 20  1  0  0  0  0
 20 19  1  0  0  0  0
 21 23  1  0  0  0  0
 22 26  1  0  0  0  0
 23 27  1  0  0  0  0
 24 25  1  0  0  0  0
 24 23  2  0  0  0  0
 25 22  2  0  0  0  0
 27 26  2  0  0  0  0
M  END
>  <MODEL>
1

>  <REMARK>
 VINA RESULT:      -7.8      0.000      0.000
  Name = 
  4 active torsions:
  status: ('A' for Active; 'I' for Inactive)
    1  A    between atoms: C_1  and  C_15
    2  A    between atoms: C_9  and  C_15
    3  A    between atoms: C_14  and  N_19
    4  A    between atoms: C_17  and  C_21
                            x       y       z     vdW  Elec       q    Type
                         _______ _______ _______ _____ _____    ______ ____

>  <TORSDO>
F 4

$$$$
=
 OpenBabel11052418333D

 27 30  0  0  1  0  0  0  0  0999 V2000
  188.6860  175.8130  144.6330 C   0  0  2  0  0  3  0  0  0  0  0  0
  189.5890  175.0950  145.6420 C   0  0  0  0  0  2  0  0  0  0  0  0
  190.1810  174.4080  143.5270 C   0  0  2  0  0  3  0  0  0  0  0  0
  188.8050  174.2970  141.2090 C   0  0  1  0  0  3  0  0  0  0  0  0
  192.1060  175.1130  142.2470 O   0  0  0  0  0  1  0  0  0  0  0  0
  188.0970  174.3350  139.8670 C   0  0  0  0  0  1  0  0  0  0  0  0
  189.3810  175.6560  143.3100 C   0  0  1  0  0  3  0  0  0  0  0  0
  190.6430  174.3540  144.9220 N   0  0  1  0  0  0  0  0  0  0  0  0
  190.3270  174.1180  141.0260 C   0  0  0  0  0  2  0  0  0  0  0  0
  188.4250  176.6890  141.3860 O   0  0  0  0  0  1  0  0  0  0  0  0
  188.4280  175.4980  142.1170 C   0  0  1  0  0  3  0  0  0  0  0  0
  191.1250  174.1230  142.3480 C   0  0  2  0  0  3  0  0  0  0  0  0
  193.4480  176.6070  146.3770 C   0  0  0  0  0  2  0  0  0  0  0  0
  194.5000  175.5660  145.9770 C   0  0  0  0  0  2  0  0  0  0  0  0
  194.0310  174.2730  146.2620 O   0  0  0  0  0  0  0  0  0  0  0  0
  191.9600  175.0050  145.1040 C   0  0  2  0  0  3  0  0  0  0  0  0
  193.0760  173.9390  145.2750 C   0  0  0  0  0  2  0  0  0  0  0  0
  192.0250  176.0440  146.2520 C   0  0  1  0  0  3  0  0  0  0  0  0
  191.2960  176.4700  148.4910 O   0  0  0  0  0  1  0  0  0  0  0  0
  191.5790  175.4490  147.5840 C   0  0  0  0  0  2  0  0  0  0  0  0
  188.4460  177.2840  144.9930 C   0  0  0  0  0  2  0  0  0  0  0  0
  184.3500  178.2060  145.9110 C   0  0  0  0  0  3  0  0  0  0  0  0
  187.0160  177.6070  145.3030 C   0  0  0  0  0  0  0  0  0  0  0  0
  186.2980  176.7930  146.1870 C   0  0  0  0  0  3  0  0  0  0  0  0
  184.9660  177.0920  146.4900 C   0  0  0  0  0  3  0  0  0  0  0  0
  185.0650  179.0200  145.0260 C   0  0  0  0  0  3  0  0  0  0  0  0
  186.3960  178.7190  144.7200 C   0  0  0  0  0  3  0  0  0  0  0  0
  1 21  1  1  0  0  0
  1  2  1  0  0  0  0
  3  8  1  0  0  0  0
  4 11  1  0  0  0  0
  5 12  1  0  0  0  0
  6  4  1  0  0  0  0
  7  3  1  0  0  0  0
  7  1  1  0  0  0  0
  8 16  1  0  0  0  0
  8  2  1  0  0  0  0
  9  4  1  0  0  0  0
  9 12  1  0  0  0  0
 10 11  1  0  0  0  0
 11  7  1  0  0  0  0
 12  3  1  0  0  0  0
 14 15  1  0  0  0  0
 14 13  1  0  0  0  0
 16 17  1  0  0  0  0
 16 18  1  0  0  0  0
 17 15  1  0  0  0  0
 18 13  1  0  0  0  0
 18 20  1  0  0  0  0
 20 19  1  0  0  0  0
 21 23  1  0  0  0  0
 22 25  1  0  0  0  0
 23 24  1  0  0  0  0
 24 25  2  0  0  0  0
 26 22  2  0  0  0  0
 27 26  1  0  0  0  0
 27 23  2  0  0  0  0
M  END
>  <MODEL>
2

>  <REMARK>
 VINA RESULT:      -7.3      2.574      5.358
  Name = 
  4 active torsions:
  status: ('A' for Active; 'I' for Inactive)
    1  A    between atoms: C_1  and  C_15
    2  A    between atoms: C_9  and  C_15
    3  A    between atoms: C_14  and  N_19
    4  A    between atoms: C_17  and  C_21
                            x       y       z     vdW  Elec       q    Type
                         _______ _______ _______ _____ _____    ______ ____

>  <TORSDO>
F 4

$$$$
=
 OpenBabel11052418333D

 27 30  0  0  1  0  0  0  0  0999 V2000
  189.3330  176.8700  145.6470 C   0  0  2  0  0  3  0  0  0  0  0  0
  188.8280  176.9790  144.2040 C   0  0  0  0  0  2  0  0  0  0  0  0
  191.0100  176.2550  144.1500 C   0  0  2  0  0  3  0  0  0  0  0  0
  193.0580  176.5500  145.8820 C   0  0  1  0  0  3  0  0  0  0  0  0
  191.7940  174.0050  143.7460 O   0  0  0  0  0  1  0  0  0  0  0  0
  194.1940  176.5950  146.8880 C   0  0  0  0  0  1  0  0  0  0  0  0
  190.5670  176.0170  145.5610 C   0  0  1  0  0  3  0  0  0  0  0  0
  189.8330  176.4160  143.2840 N   0  0  1  0  0  0  0  0  0  0  0  0
  193.3250  175.4890  144.7940 C   0  0  0  0  0  2  0  0  0  0  0  0
  191.7090  175.4530  147.5760 O   0  0  0  0  0  1  0  0  0  0  0  0
  191.6690  176.4080  146.5570 C   0  0  1  0  0  3  0  0  0  0  0  0
  192.1870  175.3450  143.7600 C   0  0  2  0  0  3  0  0  0  0  0  0
  187.4700  173.6050  142.0310 C   0  0  0  0  0  2  0  0  0  0  0  0
  188.5030  173.2010  140.9700 C   0  0  0  0  0  2  0  0  0  0  0  0
  189.0640  174.3470  140.3840 O   0  0  0  0  0  0  0  0  0  0  0  0
  189.3680  175.1280  142.7210 C   0  0  2  0  0  3  0  0  0  0  0  0
  189.9770  174.8970  141.3120 C   0  0  0  0  0  2  0  0  0  0  0  0
  187.8300  174.9470  142.6810 C   0  0  1  0  0  3  0  0  0  0  0  0
  185.9430  176.4150  142.5720 O   0  0  0  0  0  1  0  0  0  0  0  0
  187.1430  176.0890  141.9380 C   0  0  0  0  0  2  0  0  0  0  0  0
  188.2850  176.2830  146.6000 C   0  0  0  0  0  2  0  0  0  0  0  0
  184.7450  178.6930  146.9550 C   0  0  0  0  0  3  0  0  0  0  0  0
  187.0450  177.1150  146.7250 C   0  0  0  0  0  0  0  0  0  0  0  0
  187.0600  178.2650  147.5230 C   0  0  0  0  0  3  0  0  0  0  0  0
  185.9100  179.0530  147.6380 C   0  0  0  0  0  3  0  0  0  0  0  0
  184.7270  177.5430  146.1600 C   0  0  0  0  0  3  0  0  0  0  0  0
  185.8750  176.7530  146.0470 C   0  0  0  0  0  3  0  0  0  0  0  0
  1 21  1  1  0  0  0
  2  1  1  0  0  0  0
  3  7  1  0  0  0  0
  4 11  1  0  0  0  0
  4  6  1  0  0  0  0
  5 12  1  0  0  0  0
  7  1  1  0  0  0  0
  7 11  1  0  0  0  0
  8  3  1  0  0  0  0
  8  2  1  0  0  0  0
  9  4  1  0  0  0  0
 11 10  1  0  0  0  0
 12  3  1  0  0  0  0
 12  9  1  0  0  0  0
 13 18  1  0  0  0  0
 14 13  1  0  0  0  0
 15 14  1  0  0  0  0
 15 17  1  0  0  0  0
 16  8  1  0  0  0  0
 17 16  1  0  0  0  0
 18 16  1  0  0  0  0
 20 19  1  0  0  0  0
 20 18  1  0  0  0  0
 21 23  1  0  0  0  0
 22 25  1  0  0  0  0
 23 24  1  0  0  0  0
 24 25  2  0  0  0  0
 26 22  2  0  0  0  0
 27 26  1  0  0  0  0
 27 23  2  0  0  0  0
M  END
>  <MODEL>
3

>  <REMARK>
 VINA RESULT:      -7.2      2.157      3.469
  Name = 
  4 active torsions:
  status: ('A' for Active; 'I' for Inactive)
    1  A    between atoms: C_1  and  C_15
    2  A    between atoms: C_9  and  C_15
    3  A    between atoms: C_14  and  N_19
    4  A    between atoms: C_17  and  C_21
                            x       y       z     vdW  Elec       q    Type
                         _______ _______ _______ _____ _____    ______ ____

>  <TORSDO>
F 4

$$$$
=
 OpenBabel11052418333D

 27 30  0  0  1  0  0  0  0  0999 V2000
  188.6840  176.5490  143.9290 C   0  0  2  0  0  3  0  0  0  0  0  0
  189.3120  176.2820  142.5570 C   0  0  0  0  0  2  0  0  0  0  0  0
  190.8320  175.6810  144.1760 C   0  0  2  0  0  3  0  0  0  0  0  0
  191.1730  176.4890  146.7270 C   0  0  1  0  0  3  0  0  0  0  0  0
  191.3820  173.4430  144.9060 O   0  0  0  0  0  1  0  0  0  0  0  0
  191.3160  176.8330  148.1990 C   0  0  0  0  0  1  0  0  0  0  0  0
  189.5220  175.7650  144.8990 C   0  0  1  0  0  3  0  0  0  0  0  0
  190.5910  175.5680  142.7300 N   0  0  1  0  0  0  0  0  0  0  0  0
  191.9680  175.2130  146.3780 C   0  0  0  0  0  2  0  0  0  0  0  0
  188.9060  175.7610  147.2010 O   0  0  0  0  0  1  0  0  0  0  0  0
  189.6920  176.4410  146.2670 C   0  0  1  0  0  3  0  0  0  0  0  0
  191.8290  174.7670  144.9070 C   0  0  2  0  0  3  0  0  0  0  0  0
  189.1350  172.3320  141.1600 C   0  0  0  0  0  2  0  0  0  0  0  0
  190.5460  171.8860  140.7540 C   0  0  0  0  0  2  0  0  0  0  0  0
  191.2710  172.9810  140.2550 O   0  0  0  0  0  0  0  0  0  0  0  0
  190.4710  174.1600  142.2880 C   0  0  2  0  0  3  0  0  0  0  0  0
  191.6530  173.7780  141.3580 C   0  0  0  0  0  2  0  0  0  0  0  0
  189.1200  173.7950  141.6230 C   0  0  1  0  0  3  0  0  0  0  0  0
  188.2050  173.9790  139.4190 O   0  0  0  0  0  1  0  0  0  0  0  0
  188.8000  174.7130  140.4460 C   0  0  0  0  0  2  0  0  0  0  0  0
  187.2030  176.1540  143.9910 C   0  0  0  0  0  2  0  0  0  0  0  0
  184.7260  178.9840  146.0710 C   0  0  0  0  0  3  0  0  0  0  0  0
  186.3430  177.1370  144.7250 C   0  0  0  0  0  0  0  0  0  0  0  0
  186.2800  178.4650  144.2870 C   0  0  0  0  0  3  0  0  0  0  0  0
  185.4730  179.3880  144.9600 C   0  0  0  0  0  3  0  0  0  0  0  0
  184.7890  177.6580  146.5120 C   0  0  0  0  0  3  0  0  0  0  0  0
  185.5990  176.7360  145.8410 C   0  0  0  0  0  3  0  0  0  0  0  0
  1 21  1  6  0  0  0
  1  7  1  0  0  0  0
  2  8  1  0  0  0  0
  2  1  1  0  0  0  0
  3  7  1  0  0  0  0
  3 12  1  0  0  0  0
  4  6  1  0  0  0  0
  5 12  1  0  0  0  0
  7 11  1  0  0  0  0
  8  3  1  0  0  0  0
  9  4  1  0  0  0  0
 11  4  1  0  0  0  0
 11 10  1  0  0  0  0
 12  9  1  0  0  0  0
 13 18  1  0  0  0  0
 14 13  1  0  0  0  0
 15 14  1  0  0  0  0
 15 17  1  0  0  0  0
 16  8  1  0  0  0  0
 17 16  1  0  0  0  0
 18 16  1  0  0  0  0
 19 20  1  0  0  0  0
 20 18  1  0  0  0  0
 21 23  1  0  0  0  0
 22 26  1  0  0  0  0
 23 27  1  0  0  0  0
 24 23  2  0  0  0  0
 24 25  1  0  0  0  0
 25 22  2  0  0  0  0
 27 26  2  0  0  0  0
M  END
>  <MODEL>
4

>  <REMARK>
 VINA RESULT:      -7.2      2.384      4.652
  Name = 
  4 active torsions:
  status: ('A' for Active; 'I' for Inactive)
    1  A    between atoms: C_1  and  C_15
    2  A    between atoms: C_9  and  C_15
    3  A    between atoms: C_14  and  N_19
    4  A    between atoms: C_17  and  C_21
                            x       y       z     vdW  Elec       q    Type
                         _______ _______ _______ _____ _____    ______ ____

>  <TORSDO>
F 4

$$$$
=
 OpenBabel11052418333D

 27 30  0  0  1  0  0  0  0  0999 V2000
  188.9380  176.7210  143.3860 C   0  0  2  0  0  3  0  0  0  0  0  0
  187.6230  176.4080  144.1090 C   0  0  0  0  0  2  0  0  0  0  0  0
  189.3440  176.2000  145.6210 C   0  0  2  0  0  3  0  0  0  0  0  0
  191.9680  175.6520  145.3120 C   0  0  1  0  0  3  0  0  0  0  0  0
  189.9680  177.7670  147.3520 O   0  0  0  0  0  1  0  0  0  0  0  0
  193.4670  175.4650  145.1620 C   0  0  0  0  0  1  0  0  0  0  0  0
  189.9310  176.9780  144.4840 C   0  0  1  0  0  3  0  0  0  0  0  0
  187.8770  176.2600  145.5550 N   0  0  1  0  0  0  0  0  0  0  0  0
  191.6140  176.1760  146.7190 C   0  0  0  0  0  2  0  0  0  0  0  0
  192.1520  177.6120  143.8910 O   0  0  0  0  0  1  0  0  0  0  0  0
  191.3550  176.4970  144.1650 C   0  0  1  0  0  3  0  0  0  0  0  0
  190.1090  176.4410  146.9330 C   0  0  2  0  0  3  0  0  0  0  0  0
  185.7870  179.4160  146.4100 C   0  0  0  0  0  2  0  0  0  0  0  0
  185.7100  178.9740  147.8770 C   0  0  0  0  0  2  0  0  0  0  0  0
  185.4770  177.5910  147.9520 O   0  0  0  0  0  0  0  0  0  0  0  0
  187.3260  177.4110  146.3060 C   0  0  2  0  0  3  0  0  0  0  0  0
  186.6900  176.9370  147.6400 C   0  0  0  0  0  2  0  0  0  0  0  0
  186.3280  178.2930  145.5140 C   0  0  1  0  0  3  0  0  0  0  0  0
  184.0660  178.2970  144.7310 O   0  0  0  0  0  1  0  0  0  0  0  0
  185.1730  177.4740  144.9460 C   0  0  0  0  0  2  0  0  0  0  0  0
  188.8180  177.9070  142.4210 C   0  0  0  0  0  2  0  0  0  0  0  0
  185.1690  177.9130  140.1500 C   0  0  0  0  0  3  0  0  0  0  0  0
  187.5450  177.9190  141.6310 C   0  0  0  0  0  0  0  0  0  0  0  0
  187.4540  177.1680  140.4530 C   0  0  0  0  0  3  0  0  0  0  0  0
  186.2670  177.1660  139.7130 C   0  0  0  0  0  3  0  0  0  0  0  0
  185.2580  178.6660  141.3260 C   0  0  0  0  0  3  0  0  0  0  0  0
  186.4460  178.6710  142.0640 C   0  0  0  0  0  3  0  0  0  0  0  0
  1 21  1  6  0  0  0
  1  2  1  0  0  0  0
  1  7  1  0  0  0  0
  2  8  1  0  0  0  0
  3 12  1  0  0  0  0
  4  9  1  0  0  0  0
  6  4  1  0  0  0  0
  7  3  1  0  0  0  0
  8  3  1  0  0  0  0
  8 16  1  0  0  0  0
  9 12  1  0  0  0  0
 10 11  1  0  0  0  0
 11  7  1  0  0  0  0
 11  4  1  0  0  0  0
 12  5  1  0  0  0  0
 13 14  1  0  0  0  0
 14 15  1  0  0  0  0
 16 17  1  0  0  0  0
 17 15  1  0  0  0  0
 18 16  1  0  0  0  0
 18 13  1  0  0  0  0
 19 20  1  0  0  0  0
 20 18  1  0  0  0  0
 22 26  1  0  0  0  0
 23 27  1  0  0  0  0
 23 21  1  0  0  0  0
 24 23  2  0  0  0  0
 25 22  2  0  0  0  0
 25 24  1  0  0  0  0
 26 27  2  0  0  0  0
M  END
>  <MODEL>
5

>  <REMARK>
 VINA RESULT:      -6.8      2.392      4.810
  Name = 
  4 active torsions:
  status: ('A' for Active; 'I' for Inactive)
    1  A    between atoms: C_1  and  C_15
    2  A    between atoms: C_9  and  C_15
    3  A    between atoms: C_14  and  N_19
    4  A    between atoms: C_17  and  C_21
                            x       y       z     vdW  Elec       q    Type
                         _______ _______ _______ _____ _____    ______ ____

>  <TORSDO>
F 4

$$$$
=
 OpenBabel11052418333D

 27 30  0  0  1  0  0  0  0  0999 V2000
  188.4200  175.8210  145.4480 C   0  0  2  0  0  3  0  0  0  0  0  0
  189.7250  175.0230  145.3490 C   0  0  0  0  0  2  0  0  0  0  0  0
  189.6410  176.4910  143.5800 C   0  0  2  0  0  3  0  0  0  0  0  0
  187.5760  177.6630  142.2980 C   0  0  1  0  0  3  0  0  0  0  0  0
  190.8490  178.5720  143.3480 O   0  0  0  0  0  1  0  0  0  0  0  0
  186.4460  178.4290  141.6350 C   0  0  0  0  0  1  0  0  0  0  0  0
  188.6220  177.0070  144.5490 C   0  0  1  0  0  3  0  0  0  0  0  0
  190.5660  175.5820  144.2730 N   0  0  1  0  0  0  0  0  0  0  0  0
  188.9440  178.2900  141.9560 C   0  0  0  0  0  2  0  0  0  0  0  0
  186.8940  178.6440  144.4110 O   0  0  0  0  0  1  0  0  0  0  0  0
  187.3500  177.4630  143.8190 C   0  0  1  0  0  3  0  0  0  0  0  0
  190.1440  177.5970  142.6370 C   0  0  2  0  0  3  0  0  0  0  0  0
  193.6180  176.4060  146.5230 C   0  0  0  0  0  2  0  0  0  0  0  0
  194.3100  177.0970  145.3420 C   0  0  0  0  0  2  0  0  0  0  0  0
  194.1270  176.3440  144.1700 O   0  0  0  0  0  0  0  0  0  0  0  0
  191.7360  176.2920  144.8360 C   0  0  2  0  0  3  0  0  0  0  0  0
  192.7990  176.5500  143.7340 C   0  0  0  0  0  2  0  0  0  0  0  0
  192.3880  175.6110  146.0660 C   0  0  1  0  0  3  0  0  0  0  0  0
  194.1080  173.9480  146.1400 O   0  0  0  0  0  1  0  0  0  0  0  0
  192.7790  174.1650  145.7740 C   0  0  0  0  0  2  0  0  0  0  0  0
  188.0830  176.2310  146.8870 C   0  0  0  0  0  2  0  0  0  0  0  0
  184.4660  178.5240  147.2450 C   0  0  0  0  0  3  0  0  0  0  0  0
  186.8270  177.0390  147.0090 C   0  0  0  0  0  0  0  0  0  0  0  0
  185.6220  176.5230  146.5190 C   0  0  0  0  0  3  0  0  0  0  0  0
  184.4420  177.2660  146.6370 C   0  0  0  0  0  3  0  0  0  0  0  0
  185.6690  179.0430  147.7330 C   0  0  0  0  0  3  0  0  0  0  0  0
  186.8490  178.3020  147.6130 C   0  0  0  0  0  3  0  0  0  0  0  0
  1 21  1  1  0  0  0
  2  1  1  0  0  0  0
  3  8  1  0  0  0  0
  3  7  1  0  0  0  0
  4 11  1  0  0  0  0
  6  4  1  0  0  0  0
  7  1  1  0  0  0  0
  8 16  1  0  0  0  0
  8  2  1  0  0  0  0
  9  4  1  0  0  0  0
  9 12  1  0  0  0  0
 11 10  1  0  0  0  0
 11  7  1  0  0  0  0
 12  5  1  0  0  0  0
 12  3  1  0  0  0  0
 14 13  1  0  0  0  0
 15 14  1  0  0  0  0
 16 18  1  0  0  0  0
 17 15  1  0  0  0  0
 17 16  1  0  0  0  0
 18 13  1  0  0  0  0
 20 18  1  0  0  0  0
 20 19  1  0  0  0  0
 21 23  1  0  0  0  0
 22 26  1  0  0  0  0
 23 27  1  0  0  0  0
 24 25  1  0  0  0  0
 24 23  2  0  0  0  0
 25 22  2  0  0  0  0
 27 26  2  0  0  0  0
M  END
>  <MODEL>
6

>  <REMARK>
 VINA RESULT:      -6.8      2.590      5.555
  Name = 
  4 active torsions:
  status: ('A' for Active; 'I' for Inactive)
    1  A    between atoms: C_1  and  C_15
    2  A    between atoms: C_9  and  C_15
    3  A    between atoms: C_14  and  N_19
    4  A    between atoms: C_17  and  C_21
                            x       y       z     vdW  Elec       q    Type
                         _______ _______ _______ _____ _____    ______ ____

>  <TORSDO>
F 4

$$$$
=
 OpenBabel11052418333D

 27 30  0  0  1  0  0  0  0  0999 V2000
  189.1750  176.6380  142.6160 C   0  0  2  0  0  3  0  0  0  0  0  0
  190.4510  177.0250  143.3720 C   0  0  0  0  0  2  0  0  0  0  0  0
  188.6400  177.6480  144.6460 C   0  0  2  0  0  3  0  0  0  0  0  0
  186.0940  178.2620  143.9950 C   0  0  1  0  0  3  0  0  0  0  0  0
  187.7730  176.5240  146.6030 O   0  0  0  0  0  1  0  0  0  0  0  0
  184.6290  178.4950  143.6760 C   0  0  0  0  0  1  0  0  0  0  0  0
  188.0850  176.6780  143.6480 C   0  0  1  0  0  3  0  0  0  0  0  0
  190.1000  177.4930  144.7260 N   0  0  1  0  0  0  0  0  0  0  0  0
  186.3010  178.0320  145.5070 C   0  0  0  0  0  2  0  0  0  0  0  0
  185.8760  176.0560  143.0040 O   0  0  0  0  0  1  0  0  0  0  0  0
  186.7290  177.1570  143.1100 C   0  0  1  0  0  3  0  0  0  0  0  0
  187.7620  177.7350  145.9060 C   0  0  2  0  0  3  0  0  0  0  0  0
  192.2350  174.9050  146.6760 C   0  0  0  0  0  2  0  0  0  0  0  0
  191.5880  175.3540  147.9930 C   0  0  0  0  0  2  0  0  0  0  0  0
  191.4730  176.7540  148.0190 O   0  0  0  0  0  0  0  0  0  0  0  0
  190.5050  176.5010  145.7470 C   0  0  2  0  0  3  0  0  0  0  0  0
  190.4010  177.1100  147.1710 C   0  0  0  0  0  2  0  0  0  0  0  0
  191.9040  175.8720  145.5300 C   0  0  1  0  0  3  0  0  0  0  0  0
  194.2500  176.3470  145.5640 O   0  0  0  0  0  1  0  0  0  0  0  0
  192.9930  176.9340  145.4120 C   0  0  0  0  0  2  0  0  0  0  0  0
  189.2810  175.2680  141.9340 C   0  0  0  0  0  2  0  0  0  0  0  0
  191.3300  172.2980  144.2680 C   0  0  0  0  0  3  0  0  0  0  0  0
  190.0040  174.2390  142.7490 C   0  0  0  0  0  0  0  0  0  0  0  0
  189.3150  173.5350  143.7440 C   0  0  0  0  0  3  0  0  0  0  0  0
  189.9780  172.5660  144.5030 C   0  0  0  0  0  3  0  0  0  0  0  0
  192.0210  173.0020  143.2770 C   0  0  0  0  0  3  0  0  0  0  0  0
  191.3590  173.9730  142.5190 C   0  0  0  0  0  3  0  0  0  0  0  0
  1 21  1  1  0  0  0
  1  2  1  0  0  0  0
  1  7  1  0  0  0  0
  2  8  1  0  0  0  0
  3  8  1  0  0  0  0
  3 12  1  0  0  0  0
  4  9  1  0  0  0  0
  6  4  1  0  0  0  0
  7  3  1  0  0  0  0
  8 16  1  0  0  0  0
  9 12  1  0  0  0  0
 10 11  1  0  0  0  0
 11  7  1  0  0  0  0
 11  4  1  0  0  0  0
 12  5  1  0  0  0  0
 13 14  1  0  0  0  0
 14 15  1  0  0  0  0
 16 17  1  0  0  0  0
 17 15  1  0  0  0  0
 18 16  1  0  0  0  0
 18 13  1  0  0  0  0
 20 18  1  0  0  0  0
 20 19  1  0  0  0  0
 21 23  1  0  0  0  0
 22 25  1  0  0  0  0
 23 24  1  0  0  0  0
 24 25  2  0  0  0  0
 26 22  2  0  0  0  0
 27 23  2  0  0  0  0
 27 26  1  0  0  0  0
M  END
>  <MODEL>
7

>  <REMARK>
 VINA RESULT:      -6.6      2.441      6.750
  Name = 
  4 active torsions:
  status: ('A' for Active; 'I' for Inactive)
    1  A    between atoms: C_1  and  C_15
    2  A    between atoms: C_9  and  C_15
    3  A    between atoms: C_14  and  N_19
    4  A    between atoms: C_17  and  C_21
                            x       y       z     vdW  Elec       q    Type
                         _______ _______ _______ _____ _____    ______ ____

>  <TORSDO>
F 4

$$$$
=
 OpenBabel11052418333D

 27 30  0  0  1  0  0  0  0  0999 V2000
  190.0030  176.2160  144.2800 C   0  0  2  0  0  3  0  0  0  0  0  0
  189.9860  175.9020  142.7800 C   0  0  0  0  0  2  0  0  0  0  0  0
  192.1340  175.6170  143.5530 C   0  0  2  0  0  3  0  0  0  0  0  0
  193.4580  176.6790  145.6500 C   0  0  1  0  0  3  0  0  0  0  0  0
  193.2560  173.5280  144.0180 O   0  0  0  0  0  1  0  0  0  0  0  0
  194.1910  177.1650  146.8880 C   0  0  0  0  0  1  0  0  0  0  0  0
  191.2850  175.6190  144.7870 C   0  0  1  0  0  3  0  0  0  0  0  0
  191.2940  175.3520  142.3760 N   0  0  1  0  0  0  0  0  0  0  0  0
  194.1830  175.4740  145.0160 C   0  0  0  0  0  2  0  0  0  0  0  0
  191.7630  175.7480  147.1190 O   0  0  0  0  0  1  0  0  0  0  0  0
  191.9500  176.4260  145.9110 C   0  0  1  0  0  3  0  0  0  0  0  0
  193.4690  174.8880  143.7790 C   0  0  2  0  0  3  0  0  0  0  0  0
  189.7620  171.8930  141.5130 C   0  0  0  0  0  2  0  0  0  0  0  0
  191.0270  171.5210  140.7290 C   0  0  0  0  0  2  0  0  0  0  0  0
  191.4640  172.6200  139.9710 O   0  0  0  0  0  0  0  0  0  0  0  0
  191.1860  173.9060  142.0760 C   0  0  2  0  0  3  0  0  0  0  0  0
  192.0740  173.5350  140.8580 C   0  0  0  0  0  2  0  0  0  0  0  0
  189.7420  173.3850  141.8700 C   0  0  1  0  0  3  0  0  0  0  0  0
  188.1920  173.3120  140.0480 O   0  0  0  0  0  1  0  0  0  0  0  0
  189.0020  174.1710  140.7920 C   0  0  0  0  0  2  0  0  0  0  0  0
  188.7740  175.6660  145.0160 C   0  0  0  0  0  2  0  0  0  0  0  0
  185.9250  178.6770  146.1460 C   0  0  0  0  0  3  0  0  0  0  0  0
  187.7870  176.7180  145.4180 C   0  0  0  0  0  0  0  0  0  0  0  0
  187.2810  177.5980  144.4550 C   0  0  0  0  0  3  0  0  0  0  0  0
  186.3510  178.5780  144.8190 C   0  0  0  0  0  3  0  0  0  0  0  0
  186.4300  177.8010  147.1120 C   0  0  0  0  0  3  0  0  0  0  0  0
  187.3620  176.8230  146.7480 C   0  0  0  0  0  3  0  0  0  0  0  0
  1  7  1  0  0  0  0
  1 21  1  1  0  0  0
  2  1  1  0  0  0  0
  3 12  1  0  0  0  0
  3  7  1  0  0  0  0
  4 11  1  0  0  0  0
  4  6  1  0  0  0  0
  7 11  1  0  0  0  0
  8  2  1  0  0  0  0
  8  3  1  0  0  0  0
  9  4  1  0  0  0  0
 11 10  1  0  0  0  0
 12  5  1  0  0  0  0
 12  9  1  0  0  0  0
 13 18  1  0  0  0  0
 14 13  1  0  0  0  0
 15 14  1  0  0  0  0
 15 17  1  0  0  0  0
 16  8  1  0  0  0  0
 17 16  1  0  0  0  0
 18 16  1  0  0  0  0
 19 20  1  0  0  0  0
 20 18  1  0  0  0  0
 21 23  1  0  0  0  0
 22 26  1  0  0  0  0
 23 27  1  0  0  0  0
 24 25  1  0  0  0  0
 24 23  2  0  0  0  0
 25 22  2  0  0  0  0
 27 26  2  0  0  0  0
M  END
>  <MODEL>
8

>  <REMARK>
 VINA RESULT:      -6.5      2.778      4.974
  Name = 
  4 active torsions:
  status: ('A' for Active; 'I' for Inactive)
    1  A    between atoms: C_1  and  C_15
    2  A    between atoms: C_9  and  C_15
    3  A    between atoms: C_14  and  N_19
    4  A    between atoms: C_17  and  C_21
                            x       y       z     vdW  Elec       q    Type
                         _______ _______ _______ _____ _____    ______ ____

>  <TORSDO>
F 4

$$$$
=
 OpenBabel11052418333D

 27 30  0  0  1  0  0  0  0  0999 V2000
  189.6840  174.7170  146.3930 C   0  0  2  0  0  3  0  0  0  0  0  0
  189.9380  173.6590  145.3130 C   0  0  0  0  0  2  0  0  0  0  0  0
  188.7250  175.3730  144.3730 C   0  0  2  0  0  3  0  0  0  0  0  0
  187.0410  177.1930  145.4370 C   0  0  1  0  0  3  0  0  0  0  0  0
  189.5450  177.1160  142.9140 O   0  0  0  0  0  1  0  0  0  0  0  0
  186.1850  178.3030  146.0200 C   0  0  0  0  0  1  0  0  0  0  0  0
  189.2790  175.9510  145.6390 C   0  0  1  0  0  3  0  0  0  0  0  0
  189.4860  174.1700  144.0050 N   0  0  1  0  0  0  0  0  0  0  0  0
  187.4670  177.5250  143.9910 C   0  0  0  0  0  2  0  0  0  0  0  0
  188.8530  177.9520  146.8640 O   0  0  0  0  0  1  0  0  0  0  0  0
  188.2280  176.8090  146.3590 C   0  0  1  0  0  3  0  0  0  0  0  0
  188.3860  176.4660  143.3460 C   0  0  2  0  0  3  0  0  0  0  0  0
  193.0380  174.0470  142.4470 C   0  0  0  0  0  2  0  0  0  0  0  0
  192.4560  174.4170  141.0760 C   0  0  0  0  0  2  0  0  0  0  0  0
  191.2600  173.7140  140.8550 O   0  0  0  0  0  0  0  0  0  0  0  0
  190.6420  174.4810  143.1340 C   0  0  2  0  0  3  0  0  0  0  0  0
  190.2550  174.3240  141.6390 C   0  0  0  0  0  2  0  0  0  0  0  0
  191.9310  173.6800  143.4450 C   0  0  1  0  0  3  0  0  0  0  0  0
  192.5490  171.5370  144.3140 O   0  0  0  0  0  1  0  0  0  0  0  0
  191.6840  172.1740  143.4230 C   0  0  0  0  0  2  0  0  0  0  0  0
  190.9050  174.9560  147.2890 C   0  0  0  0  0  2  0  0  0  0  0  0
  194.4250  176.1590  145.1360 C   0  0  0  0  0  3  0  0  0  0  0  0
  192.1310  175.3850  146.5410 C   0  0  0  0  0  0  0  0  0  0  0  0
  193.2720  174.5750  146.5610 C   0  0  0  0  0  3  0  0  0  0  0  0
  194.4190  174.9620  145.8590 C   0  0  0  0  0  3  0  0  0  0  0  0
  193.2860  176.9710  145.1160 C   0  0  0  0  0  3  0  0  0  0  0  0
  192.1410  176.5850  145.8210 C   0  0  0  0  0  3  0  0  0  0  0  0
  1 21  1  6  0  0  0
  2  1  1  0  0  0  0
  3  7  1  0  0  0  0
  4  6  1  0  0  0  0
  4 11  1  0  0  0  0
  5 12  1  0  0  0  0
  7 11  1  0  0  0  0
  7  1  1  0  0  0  0
  8  3  1  0  0  0  0
  8  2  1  0  0  0  0
  9  4  1  0  0  0  0
 11 10  1  0  0  0  0
 12  9  1  0  0  0  0
 12  3  1  0  0  0  0
 13 18  1  0  0  0  0
 14 13  1  0  0  0  0
 15 14  1  0  0  0  0
 15 17  1  0  0  0  0
 16 18  1  0  0  0  0
 16  8  1  0  0  0  0
 17 16  1  0  0  0  0
 20 18  1  0  0  0  0
 20 19  1  0  0  0  0
 22 25  1  0  0  0  0
 23 24  1  0  0  0  0
 23 21  1  0  0  0  0
 25 24  2  0  0  0  0
 26 22  2  0  0  0  0
 26 27  1  0  0  0  0
 27 23  2  0  0  0  0
M  END
>  <MODEL>
9

>  <REMARK>
 VINA RESULT:      -6.5      2.640      6.532
  Name = 
  4 active torsions:
  status: ('A' for Active; 'I' for Inactive)
    1  A    between atoms: C_1  and  C_15
    2  A    between atoms: C_9  and  C_15
    3  A    between atoms: C_14  and  N_19
    4  A    between atoms: C_17  and  C_21
                            x       y       z     vdW  Elec       q    Type
                         _______ _______ _______ _____ _____    ______ ____

>  <TORSDO>
F 4

$$$$
