=
 OpenBabel11052417593D

 31 34  0  0  1  0  0  0  0  0999 V2000
  189.5040  175.2080  146.5720 C   0  0  0  0  0  0  0  0  0  0  0  0
  189.5260  175.2380  142.7360 C   0  0  0  0  0  0  0  0  0  0  0  0
  189.8300  174.0490  142.0450 C   0  0  0  0  0  0  0  0  0  0  0  0
  191.2080  171.9940  141.6310 C   0  0  0  0  0  2  0  0  0  0  0  0
  190.0980  175.4760  144.1110 C   0  0  2  0  0  3  0  0  0  0  0  0
  190.1580  176.3380  146.8510 C   0  0  0  0  0  3  0  0  0  0  0  0
  190.7170  173.0000  142.6680 C   0  0  0  0  0  2  0  0  0  0  0  0
  188.3690  177.5320  142.7960 C   0  0  1  0  0  3  0  0  0  0  0  0
  188.9910  174.4540  147.6180 O   0  0  0  0  0  1  0  0  0  0  0  0
  188.4460  174.7690  140.2260 N   0  0  0  0  0  0  0  0  0  0  0  0
  190.0730  171.5060  140.8550 N   0  0  0  0  0  2  0  0  0  0  0  0
  188.8600  177.6430  144.2390 C   0  0  0  0  0  2  0  0  0  0  0  0
  188.6520  176.1850  142.1490 C   0  0  0  0  0  0  0  0  0  0  0  0
  189.2340  174.7600  145.1610 C   0  0  0  0  0  2  0  0  0  0  0  0
  188.4690  172.1250  139.2150 N   0  0  0  0  0  1  0  0  0  0  0  0
  190.2160  176.9730  144.4020 C   0  0  1  0  0  3  0  0  0  0  0  0
  190.7930  177.2040  145.7990 C   0  0  0  0  0  2  0  0  0  0  0  0
  188.1470  175.9250  140.8700 C   0  0  0  0  0  3  0  0  0  0  0  0
  189.2420  173.8190  140.7840 C   0  0  0  0  0  0  0  0  0  0  0  0
  189.6090  172.5880  139.9870 C   0  0  1  0  0  3  0  0  0  0  0  0
  186.8870  177.8750  142.7740 C   0  0  0  0  0  2  0  0  0  0  0  0
  186.3120  177.7080  144.1070 N   0  0  0  0  0  2  0  0  0  0  0  0
  185.6340  180.0280  144.0660 C   0  0  0  0  0  1  0  0  0  0  0  0
  184.0710  178.2960  143.2980 C   0  0  0  0  0  1  0  0  0  0  0  0
  185.1660  178.6020  144.3130 C   0  0  0  0  0  0  0  0  0  0  0  0
  183.2910  178.9320  145.8190 O   0  0  0  0  0  1  0  0  0  0  0  0
  184.6110  178.4730  145.7450 C   0  0  2  0  0  3  0  0  0  0  0  0
  185.4420  179.2040  146.6950 N   0  0  0  0  0  2  0  0  0  0  0  0
  186.2710  178.5450  147.6530 C   0  0  0  0  0  0  0  0  0  0  0  0
  186.3010  176.9140  147.7070 S   0  0  0  0  0  0  0  0  0  0  0  0
  187.0440  179.2950  148.5860 N   0  0  0  0  0  1  0  0  0  0  0  0
  1  6  2  0  0  0  0
  1  9  1  0  0  0  0
  2  5  1  0  0  0  0
  3  7  1  0  0  0  0
  3  2  2  0  0  0  0
  4  7  1  0  0  0  0
  5 16  1  0  0  0  0
  5 14  1  1  0  0  0
  8 21  1  1  0  0  0
  8 12  1  0  0  0  0
 10 19  2  0  0  0  0
 10 18  1  0  0  0  0
 11  4  1  0  0  0  0
 13  2  1  0  0  0  0
 13  8  1  0  0  0  0
 14  1  1  0  0  0  0
 16 12  1  1  0  0  0
 16 17  1  0  0  0  0
 17  6  1  0  0  0  0
 18 13  2  0  0  0  0
 19  3  1  0  0  0  0
 20 15  1  1  0  0  0
 20 19  1  0  0  0  0
 20 11  1  0  0  0  0
 21 22  1  0  0  0  0
 22 25  1  0  0  0  0
 23 25  1  0  0  0  0
 24 25  1  0  0  0  0
 25 27  1  0  0  0  0
 27 26  1  6  0  0  0
 27 28  1  0  0  0  0
 28 29  1  0  0  0  0
 29 30  2  0  0  0  0
 29 31  1  0  0  0  0
M  END
>  <MODEL>
1

>  <REMARK>
 VINA RESULT:      -7.1      0.000      0.000
  Name = 
  6 active torsions:
  status: ('A' for Active; 'I' for Inactive)
    1  A    between atoms: C_1  and  N_24
    2  A    between atoms: N_9  and  C_22
    3  A    between atoms: N_9  and  C_23
    4  A    between atoms: C_15  and  C_23
    5  A    between atoms: C_19  and  C_22
    6  A    between atoms: C_19  and  N_24
                            x       y       z     vdW  Elec       q    Type
                         _______ _______ _______ _____ _____    ______ ____

>  <TORSDO>
F 6

$$$$
=
 OpenBabel11052417593D

 31 34  0  0  1  0  0  0  0  0999 V2000
  189.4820  173.8810  141.9120 C   0  0  0  0  0  0  0  0  0  0  0  0
  191.9240  174.6640  144.7660 C   0  0  0  0  0  0  0  0  0  0  0  0
  193.1790  175.2220  144.4570 C   0  0  0  0  0  0  0  0  0  0  0  0
  195.3140  175.3320  143.1450 C   0  0  0  0  0  2  0  0  0  0  0  0
  191.2260  173.7780  143.7630 C   0  0  2  0  0  3  0  0  0  0  0  0
  189.0410  172.6700  142.2640 C   0  0  0  0  0  3  0  0  0  0  0  0
  193.8370  174.9520  143.1270 C   0  0  0  0  0  2  0  0  0  0  0  0
  190.0030  174.3190  146.4390 C   0  0  1  0  0  3  0  0  0  0  0  0
  188.9490  174.4880  140.7840 O   0  0  0  0  0  1  0  0  0  0  0  0
  193.1940  176.3280  146.5830 N   0  0  0  0  0  0  0  0  0  0  0  0
  195.4600  176.6820  143.6790 N   0  0  0  0  0  2  0  0  0  0  0  0
  189.2880  173.5540  145.3250 C   0  0  0  0  0  2  0  0  0  0  0  0
  191.3060  174.9720  146.0020 C   0  0  0  0  0  0  0  0  0  0  0  0
  190.4800  174.6470  142.7390 C   0  0  0  0  0  2  0  0  0  0  0  0
  195.2970  177.9840  145.6610 N   0  0  0  0  0  1  0  0  0  0  0  0
  190.2860  172.7950  144.4630 C   0  0  1  0  0  3  0  0  0  0  0  0
  189.5820  171.9050  143.4390 C   0  0  0  0  0  2  0  0  0  0  0  0
  191.9900  175.7940  146.9050 C   0  0  0  0  0  3  0  0  0  0  0  0
  193.7900  176.0910  145.3840 C   0  0  0  0  0  0  0  0  0  0  0  0
  195.1700  176.6440  145.1120 C   0  0  1  0  0  3  0  0  0  0  0  0
  189.0250  175.3290  147.0190 C   0  0  0  0  0  2  0  0  0  0  0  0
  188.1310  175.8230  145.9730 N   0  0  0  0  0  2  0  0  0  0  0  0
  188.8470  177.8430  147.0910 C   0  0  0  0  0  1  0  0  0  0  0  0
  189.1910  177.6120  144.6700 C   0  0  0  0  0  1  0  0  0  0  0  0
  188.2420  177.2780  145.8160 C   0  0  0  0  0  0  0  0  0  0  0  0
  186.2910  178.3770  146.7540 O   0  0  0  0  0  1  0  0  0  0  0  0
  186.8620  177.9170  145.5630 C   0  0  2  0  0  3  0  0  0  0  0  0
  185.9610  176.9720  144.9140 N   0  0  0  0  0  2  0  0  0  0  0  0
  185.7810  176.9320  143.4980 C   0  0  0  0  0  0  0  0  0  0  0  0
  184.7330  177.9630  142.7900 S   0  0  0  0  0  0  0  0  0  0  0  0
  186.4780  175.9790  142.7020 N   0  0  0  0  0  1  0  0  0  0  0  0
  1  6  2  0  0  0  0
  1 14  1  0  0  0  0
  2 13  1  0  0  0  0
  3  2  2  0  0  0  0
  3 19  1  0  0  0  0
  4 11  1  0  0  0  0
  5 14  1  6  0  0  0
  5 16  1  0  0  0  0
  5  2  1  0  0  0  0
  6 17  1  0  0  0  0
  7  4  1  0  0  0  0
  7  3  1  0  0  0  0
  8 21  1  6  0  0  0
  9  1  1  0  0  0  0
 10 18  1  0  0  0  0
 11 20  1  0  0  0  0
 12  8  1  0  0  0  0
 13  8  1  0  0  0  0
 13 18  2  0  0  0  0
 16 17  1  6  0  0  0
 16 12  1  0  0  0  0
 19 10  2  0  0  0  0
 20 19  1  0  0  0  0
 20 15  1  6  0  0  0
 22 21  1  0  0  0  0
 24 25  1  0  0  0  0
 25 22  1  0  0  0  0
 25 23  1  0  0  0  0
 27 25  1  0  0  0  0
 27 26  1  1  0  0  0
 28 27  1  0  0  0  0
 29 28  1  0  0  0  0
 30 29  2  0  0  0  0
 31 29  1  0  0  0  0
M  END
>  <MODEL>
2

>  <REMARK>
 VINA RESULT:      -7.0      3.667      5.558
  Name = 
  6 active torsions:
  status: ('A' for Active; 'I' for Inactive)
    1  A    between atoms: C_1  and  N_24
    2  A    between atoms: N_9  and  C_22
    3  A    between atoms: N_9  and  C_23
    4  A    between atoms: C_15  and  C_23
    5  A    between atoms: C_19  and  C_22
    6  A    between atoms: C_19  and  N_24
                            x       y       z     vdW  Elec       q    Type
                         _______ _______ _______ _____ _____    ______ ____

>  <TORSDO>
F 6

$$$$
=
 OpenBabel11052417593D

 31 34  0  0  1  0  0  0  0  0999 V2000
  185.0450  177.7310  145.8730 C   0  0  0  0  0  0  0  0  0  0  0  0
  188.7020  177.1000  144.9000 C   0  0  0  0  0  0  0  0  0  0  0  0
  189.6700  176.9820  145.9170 C   0  0  0  0  0  0  0  0  0  0  0  0
  190.7880  177.7280  148.0340 C   0  0  0  0  0  2  0  0  0  0  0  0
  187.4700  177.9400  145.1260 C   0  0  2  0  0  3  0  0  0  0  0  0
  184.6970  178.6780  144.9980 C   0  0  0  0  0  3  0  0  0  0  0  0
  189.4860  177.6820  147.2400 C   0  0  0  0  0  2  0  0  0  0  0  0
  187.9220  176.5620  142.5100 C   0  0  1  0  0  3  0  0  0  0  0  0
  184.0860  177.2390  146.7470 O   0  0  0  0  0  1  0  0  0  0  0  0
  190.9490  175.5230  144.5110 N   0  0  0  0  0  0  0  0  0  0  0  0
  191.3730  176.3930  148.0830 N   0  0  0  0  0  2  0  0  0  0  0  0
  186.6330  177.3060  142.8590 C   0  0  0  0  0  2  0  0  0  0  0  0
  188.8750  176.3940  143.6840 C   0  0  0  0  0  0  0  0  0  0  0  0
  186.4220  177.1220  145.8960 C   0  0  0  0  0  2  0  0  0  0  0  0
  192.4530  174.7290  146.7740 N   0  0  0  0  0  1  0  0  0  0  0  0
  186.9160  178.4660  143.8010 C   0  0  1  0  0  3  0  0  0  0  0  0
  185.6670  179.3130  144.0410 C   0  0  0  0  0  2  0  0  0  0  0  0
  190.0340  175.6290  143.5150 C   0  0  0  0  0  3  0  0  0  0  0  0
  190.7870  176.1480  145.7070 C   0  0  0  0  0  0  0  0  0  0  0  0
  191.8780  176.0630  146.7500 C   0  0  1  0  0  3  0  0  0  0  0  0
  187.5420  175.2270  141.8890 C   0  0  0  0  0  2  0  0  0  0  0  0
  188.2820  175.0220  140.6450 N   0  0  0  0  0  2  0  0  0  0  0  0
  188.1600  172.8350  141.6700 C   0  0  0  0  0  1  0  0  0  0  0  0
  188.2720  173.0210  139.2240 C   0  0  0  0  0  1  0  0  0  0  0  0
  188.7620  173.6390  140.5280 C   0  0  0  0  0  0  0  0  0  0  0  0
  190.8620  173.4940  139.3190 O   0  0  0  0  0  1  0  0  0  0  0  0
  190.3010  173.5760  140.5980 C   0  0  2  0  0  3  0  0  0  0  0  0
  190.7410  172.4440  141.4050 N   0  0  0  0  0  2  0  0  0  0  0  0
  191.7530  172.5640  142.4060 C   0  0  0  0  0  0  0  0  0  0  0  0
  191.5440  171.8410  143.8530 S   0  0  0  0  0  0  0  0  0  0  0  0
  192.9250  173.3370  142.1670 N   0  0  0  0  0  1  0  0  0  0  0  0
  1 14  1  0  0  0  0
  1  9  1  0  0  0  0
  2  5  1  0  0  0  0
  2  3  1  0  0  0  0
  3  7  1  0  0  0  0
  4 11  1  0  0  0  0
  5 14  1  6  0  0  0
  6  1  2  0  0  0  0
  7  4  1  0  0  0  0
  8 21  1  1  0  0  0
  8 12  1  0  0  0  0
  8 13  1  0  0  0  0
 10 19  1  0  0  0  0
 13  2  2  0  0  0  0
 16 12  1  6  0  0  0
 16 17  1  0  0  0  0
 16  5  1  0  0  0  0
 17  6  1  0  0  0  0
 18 13  1  0  0  0  0
 18 10  2  0  0  0  0
 19  3  2  0  0  0  0
 19 20  1  0  0  0  0
 20 15  1  1  0  0  0
 20 11  1  0  0  0  0
 22 21  1  0  0  0  0
 24 25  1  0  0  0  0
 25 27  1  0  0  0  0
 25 22  1  0  0  0  0
 25 23  1  0  0  0  0
 27 26  1  6  0  0  0
 27 28  1  0  0  0  0
 28 29  1  0  0  0  0
 29 30  2  0  0  0  0
 31 29  1  0  0  0  0
M  END
>  <MODEL>
3

>  <REMARK>
 VINA RESULT:      -6.9      3.120      6.766
  Name = 
  6 active torsions:
  status: ('A' for Active; 'I' for Inactive)
    1  A    between atoms: C_1  and  N_24
    2  A    between atoms: N_9  and  C_22
    3  A    between atoms: N_9  and  C_23
    4  A    between atoms: C_15  and  C_23
    5  A    between atoms: C_19  and  C_22
    6  A    between atoms: C_19  and  N_24
                            x       y       z     vdW  Elec       q    Type
                         _______ _______ _______ _____ _____    ______ ____

>  <TORSDO>
F 6

$$$$
=
 OpenBabel11052417593D

 31 34  0  0  1  0  0  0  0  0999 V2000
  186.1370  179.0740  147.2750 C   0  0  0  0  0  0  0  0  0  0  0  0
  186.6650  177.0270  144.0740 C   0  0  0  0  0  0  0  0  0  0  0  0
  185.9470  177.3760  142.9130 C   0  0  0  0  0  0  0  0  0  0  0  0
  183.8500  177.9950  141.6850 C   0  0  0  0  0  2  0  0  0  0  0  0
  186.0830  177.3160  145.4350 C   0  0  2  0  0  3  0  0  0  0  0  0
  186.0460  178.1100  148.1960 C   0  0  0  0  0  3  0  0  0  0  0  0
  184.5990  178.0450  143.0130 C   0  0  0  0  0  2  0  0  0  0  0  0
  188.7290  175.9490  145.1620 C   0  0  1  0  0  3  0  0  0  0  0  0
  186.0930  180.3990  147.6860 O   0  0  0  0  0  1  0  0  0  0  0  0
  187.7450  176.5410  141.5670 N   0  0  0  0  0  0  0  0  0  0  0  0
  184.7270  178.4600  140.6170 N   0  0  0  0  0  2  0  0  0  0  0  0
  188.1500  176.4010  146.5020 C   0  0  0  0  0  2  0  0  0  0  0  0
  187.9500  176.4430  143.9530 C   0  0  0  0  0  0  0  0  0  0  0  0
  186.3640  178.7770  145.8170 C   0  0  0  0  0  2  0  0  0  0  0  0
  186.6470  177.8930  139.3350 N   0  0  0  0  0  1  0  0  0  0  0  0
  186.6290  176.3420  146.4810 C   0  0  1  0  0  3  0  0  0  0  0  0
  186.0350  176.6450  147.8570 C   0  0  0  0  0  2  0  0  0  0  0  0
  188.4510  176.1900  142.6710 C   0  0  0  0  0  3  0  0  0  0  0  0
  186.5320  177.1480  141.6510 C   0  0  0  0  0  0  0  0  0  0  0  0
  185.7530  177.4420  140.3890 C   0  0  1  0  0  3  0  0  0  0  0  0
  190.1890  176.3740  145.1130 C   0  0  0  0  0  2  0  0  0  0  0  0
  191.0390  175.2210  144.8240 N   0  0  0  0  0  2  0  0  0  0  0  0
  192.2720  176.2470  146.6330 C   0  0  0  0  0  1  0  0  0  0  0  0
  192.9670  174.0480  145.7890 C   0  0  0  0  0  1  0  0  0  0  0  0
  192.3880  175.3970  145.3780 C   0  0  0  0  0  0  0  0  0  0  0  0
  193.4600  175.3170  143.2010 O   0  0  0  0  0  1  0  0  0  0  0  0
  193.3210  176.0850  144.3620 C   0  0  2  0  0  3  0  0  0  0  0  0
  194.6320  176.3390  144.9480 N   0  0  0  0  0  2  0  0  0  0  0  0
  195.8470  175.9710  144.2950 C   0  0  0  0  0  0  0  0  0  0  0  0
  196.5720  174.5600  144.6770 S   0  0  0  0  0  0  0  0  0  0  0  0
  196.4530  176.8380  143.3400 N   0  0  0  0  0  1  0  0  0  0  0  0
  1  9  1  0  0  0  0
  1  6  2  0  0  0  0
  2  5  1  0  0  0  0
  3  7  1  0  0  0  0
  3  2  2  0  0  0  0
  4  7  1  0  0  0  0
  5 14  1  1  0  0  0
  5 16  1  0  0  0  0
  8 21  1  6  0  0  0
  8 12  1  0  0  0  0
 10 19  2  0  0  0  0
 10 18  1  0  0  0  0
 11  4  1  0  0  0  0
 13  2  1  0  0  0  0
 13  8  1  0  0  0  0
 14  1  1  0  0  0  0
 16 12  1  1  0  0  0
 16 17  1  0  0  0  0
 17  6  1  0  0  0  0
 18 13  2  0  0  0  0
 19  3  1  0  0  0  0
 20 15  1  6  0  0  0
 20 11  1  0  0  0  0
 20 19  1  0  0  0  0
 22 21  1  0  0  0  0
 22 25  1  0  0  0  0
 25 24  1  0  0  0  0
 25 23  1  0  0  0  0
 27 26  1  6  0  0  0
 27 28  1  0  0  0  0
 27 25  1  0  0  0  0
 29 30  2  0  0  0  0
 29 28  1  0  0  0  0
 31 29  1  0  0  0  0
M  END
>  <MODEL>
4

>  <REMARK>
 VINA RESULT:      -6.8      3.922      6.979
  Name = 
  6 active torsions:
  status: ('A' for Active; 'I' for Inactive)
    1  A    between atoms: C_1  and  N_24
    2  A    between atoms: N_9  and  C_22
    3  A    between atoms: N_9  and  C_23
    4  A    between atoms: C_15  and  C_23
    5  A    between atoms: C_19  and  C_22
    6  A    between atoms: C_19  and  N_24
                            x       y       z     vdW  Elec       q    Type
                         _______ _______ _______ _____ _____    ______ ____

>  <TORSDO>
F 6

$$$$
=
 OpenBabel11052417593D

 31 34  0  0  1  0  0  0  0  0999 V2000
  189.5730  174.9410  146.9950 C   0  0  0  0  0  0  0  0  0  0  0  0
  189.7010  175.1500  143.1670 C   0  0  0  0  0  0  0  0  0  0  0  0
  189.8740  173.9670  142.4230 C   0  0  0  0  0  0  0  0  0  0  0  0
  190.9980  171.7780  141.9340 C   0  0  0  0  0  2  0  0  0  0  0  0
  190.2610  175.2500  144.5630 C   0  0  2  0  0  3  0  0  0  0  0  0
  190.3550  175.9660  147.3440 C   0  0  0  0  0  3  0  0  0  0  0  0
  190.6080  172.7870  143.0100 C   0  0  0  0  0  2  0  0  0  0  0  0
  188.8350  177.5660  143.3190 C   0  0  1  0  0  3  0  0  0  0  0  0
  188.9440  174.2080  147.9910 O   0  0  0  0  0  1  0  0  0  0  0  0
  188.6380  174.9400  140.6150 N   0  0  0  0  0  0  0  0  0  0  0  0
  189.8320  171.4730  141.1120 N   0  0  0  0  0  2  0  0  0  0  0  0
  189.2970  177.5460  144.7750 C   0  0  0  0  0  2  0  0  0  0  0  0
  188.9660  176.2250  142.6100 C   0  0  0  0  0  0  0  0  0  0  0  0
  189.2880  174.5980  145.5580 C   0  0  0  0  0  2  0  0  0  0  0  0
  188.3600  172.3640  139.4720 N   0  0  0  0  0  1  0  0  0  0  0  0
  190.5550  176.7050  144.9320 C   0  0  1  0  0  3  0  0  0  0  0  0
  191.1190  176.7950  146.3500 C   0  0  0  0  0  2  0  0  0  0  0  0
  188.4670  176.0920  141.3100 C   0  0  0  0  0  3  0  0  0  0  0  0
  189.2960  173.8720  141.1400 C   0  0  0  0  0  0  0  0  0  0  0  0
  189.5290  172.6450  140.2900 C   0  0  1  0  0  3  0  0  0  0  0  0
  187.4080  178.0910  143.2840 C   0  0  0  0  0  2  0  0  0  0  0  0
  187.0140  178.5640  144.6100 N   0  0  0  0  0  2  0  0  0  0  0  0
  185.5070  176.6970  144.9090 C   0  0  0  0  0  1  0  0  0  0  0  0
  185.2460  178.7000  146.3070 C   0  0  0  0  0  1  0  0  0  0  0  0
  185.6200  178.2140  144.9120 C   0  0  0  0  0  0  0  0  0  0  0  0
  183.5130  179.3390  144.4770 O   0  0  0  0  0  1  0  0  0  0  0  0
  184.6570  178.8130  143.8680 C   0  0  2  0  0  3  0  0  0  0  0  0
  184.2750  177.8140  142.8760 N   0  0  0  0  0  2  0  0  0  0  0  0
  183.8770  178.1630  141.5500 C   0  0  0  0  0  0  0  0  0  0  0  0
  182.2910  178.2190  141.1730 S   0  0  0  0  0  0  0  0  0  0  0  0
  184.8500  178.4280  140.5440 N   0  0  0  0  0  1  0  0  0  0  0  0
  1  6  2  0  0  0  0
  1  9  1  0  0  0  0
  2  5  1  0  0  0  0
  3  7  1  0  0  0  0
  3  2  2  0  0  0  0
  4  7  1  0  0  0  0
  5 16  1  0  0  0  0
  5 14  1  1  0  0  0
  8 21  1  1  0  0  0
  8 12  1  0  0  0  0
 10 19  2  0  0  0  0
 10 18  1  0  0  0  0
 11  4  1  0  0  0  0
 13  2  1  0  0  0  0
 13  8  1  0  0  0  0
 14  1  1  0  0  0  0
 16 12  1  1  0  0  0
 16 17  1  0  0  0  0
 17  6  1  0  0  0  0
 18 13  2  0  0  0  0
 19  3  1  0  0  0  0
 20 15  1  1  0  0  0
 20 11  1  0  0  0  0
 20 19  1  0  0  0  0
 21 22  1  0  0  0  0
 22 25  1  0  0  0  0
 23 25  1  0  0  0  0
 25 24  1  0  0  0  0
 27 26  1  1  0  0  0
 27 25  1  0  0  0  0
 28 27  1  0  0  0  0
 29 28  1  0  0  0  0
 30 29  2  0  0  0  0
 31 29  1  0  0  0  0
M  END
>  <MODEL>
5

>  <REMARK>
 VINA RESULT:      -6.8      1.806      2.712
  Name = 
  6 active torsions:
  status: ('A' for Active; 'I' for Inactive)
    1  A    between atoms: C_1  and  N_24
    2  A    between atoms: N_9  and  C_22
    3  A    between atoms: N_9  and  C_23
    4  A    between atoms: C_15  and  C_23
    5  A    between atoms: C_19  and  C_22
    6  A    between atoms: C_19  and  N_24
                            x       y       z     vdW  Elec       q    Type
                         _______ _______ _______ _____ _____    ______ ____

>  <TORSDO>
F 6

$$$$
=
 OpenBabel11052417593D

 31 34  0  0  1  0  0  0  0  0999 V2000
  186.1000  179.0970  147.2710 C   0  0  0  0  0  0  0  0  0  0  0  0
  186.6470  177.0380  144.0810 C   0  0  0  0  0  0  0  0  0  0  0  0
  185.9370  177.3820  142.9140 C   0  0  0  0  0  0  0  0  0  0  0  0
  183.8490  178.0000  141.6690 C   0  0  0  0  0  2  0  0  0  0  0  0
  186.0560  177.3320  145.4360 C   0  0  2  0  0  3  0  0  0  0  0  0
  186.0010  178.1370  148.1940 C   0  0  0  0  0  3  0  0  0  0  0  0
  184.5900  178.0540  143.0020 C   0  0  0  0  0  2  0  0  0  0  0  0
  188.7020  175.9600  145.1870 C   0  0  1  0  0  3  0  0  0  0  0  0
  186.0550  180.4240  147.6750 O   0  0  0  0  0  1  0  0  0  0  0  0
  187.7430  176.5400  141.5830 N   0  0  0  0  0  0  0  0  0  0  0  0
  184.7350  178.4590  140.6040 N   0  0  0  0  0  2  0  0  0  0  0  0
  188.1140  176.4190  146.5210 C   0  0  0  0  0  2  0  0  0  0  0  0
  187.9320  176.4510  143.9710 C   0  0  0  0  0  0  0  0  0  0  0  0
  186.3360  178.7950  145.8150 C   0  0  0  0  0  2  0  0  0  0  0  0
  186.6630  177.8850  139.3390 N   0  0  0  0  0  1  0  0  0  0  0  0
  186.5940  176.3620  146.4900 C   0  0  1  0  0  3  0  0  0  0  0  0
  185.9910  176.6710  147.8600 C   0  0  0  0  0  2  0  0  0  0  0  0
  188.4410  176.1920  142.6930 C   0  0  0  0  0  3  0  0  0  0  0  0
  186.5300  177.1490  141.6560 C   0  0  0  0  0  0  0  0  0  0  0  0
  185.7610  177.4390  140.3880 C   0  0  1  0  0  3  0  0  0  0  0  0
  190.1630  176.3830  145.1460 C   0  0  0  0  0  2  0  0  0  0  0  0
  190.9540  175.5470  146.0470 N   0  0  0  0  0  2  0  0  0  0  0  0
  192.4930  176.1800  144.2930 C   0  0  0  0  0  1  0  0  0  0  0  0
  193.3640  175.5850  146.5110 C   0  0  0  0  0  1  0  0  0  0  0  0
  192.2810  175.2630  145.4870 C   0  0  0  0  0  0  0  0  0  0  0  0
  193.6940  173.3070  145.2240 O   0  0  0  0  0  1  0  0  0  0  0  0
  192.3940  173.7910  145.0450 C   0  0  2  0  0  3  0  0  0  0  0  0
  191.9950  173.6330  143.6510 N   0  0  0  0  0  2  0  0  0  0  0  0
  190.7420  173.0620  143.2730 C   0  0  0  0  0  0  0  0  0  0  0  0
  189.8090  172.3450  144.4020 S   0  0  0  0  0  0  0  0  0  0  0  0
  190.3150  173.0800  141.9140 N   0  0  0  0  0  1  0  0  0  0  0  0
  1  9  1  0  0  0  0
  1  6  2  0  0  0  0
  2  5  1  0  0  0  0
  3  7  1  0  0  0  0
  3  2  2  0  0  0  0
  4  7  1  0  0  0  0
  5 14  1  1  0  0  0
  5 16  1  0  0  0  0
  8 21  1  6  0  0  0
  8 12  1  0  0  0  0
 10 19  2  0  0  0  0
 10 18  1  0  0  0  0
 11  4  1  0  0  0  0
 13  2  1  0  0  0  0
 13  8  1  0  0  0  0
 14  1  1  0  0  0  0
 16 12  1  1  0  0  0
 16 17  1  0  0  0  0
 17  6  1  0  0  0  0
 18 13  2  0  0  0  0
 19  3  1  0  0  0  0
 20 15  1  6  0  0  0
 20 11  1  0  0  0  0
 20 19  1  0  0  0  0
 21 22  1  0  0  0  0
 23 25  1  0  0  0  0
 25 22  1  0  0  0  0
 25 24  1  0  0  0  0
 27 26  1  6  0  0  0
 27 25  1  0  0  0  0
 28 27  1  0  0  0  0
 29 28  1  0  0  0  0
 29 30  2  0  0  0  0
 31 29  1  0  0  0  0
M  END
>  <MODEL>
6

>  <REMARK>
 VINA RESULT:      -6.8      2.867      6.649
  Name = 
  6 active torsions:
  status: ('A' for Active; 'I' for Inactive)
    1  A    between atoms: C_1  and  N_24
    2  A    between atoms: N_9  and  C_22
    3  A    between atoms: N_9  and  C_23
    4  A    between atoms: C_15  and  C_23
    5  A    between atoms: C_19  and  C_22
    6  A    between atoms: C_19  and  N_24
                            x       y       z     vdW  Elec       q    Type
                         _______ _______ _______ _____ _____    ______ ____

>  <TORSDO>
F 6

$$$$
=
 OpenBabel11052417593D

 31 34  0  0  1  0  0  0  0  0999 V2000
  190.5480  176.8940  147.7870 C   0  0  0  0  0  0  0  0  0  0  0  0
  187.6750  176.4300  145.2870 C   0  0  0  0  0  0  0  0  0  0  0  0
  186.4950  177.1820  145.4540 C   0  0  0  0  0  0  0  0  0  0  0  0
  184.6100  178.1060  146.8270 C   0  0  0  0  0  2  0  0  0  0  0  0
  188.5180  176.0760  146.4860 C   0  0  2  0  0  3  0  0  0  0  0  0
  190.9090  175.6280  148.0150 C   0  0  0  0  0  3  0  0  0  0  0  0
  186.0650  177.6470  146.8230 C   0  0  0  0  0  2  0  0  0  0  0  0
  189.2860  175.1470  143.7490 C   0  0  1  0  0  3  0  0  0  0  0  0
  191.2690  177.9160  148.3870 O   0  0  0  0  0  1  0  0  0  0  0  0
  186.1400  177.1250  143.0850 N   0  0  0  0  0  0  0  0  0  0  0  0
  184.3950  179.0400  145.7270 N   0  0  0  0  0  2  0  0  0  0  0  0
  190.1660  174.9500  144.9820 C   0  0  0  0  0  2  0  0  0  0  0  0
  188.0820  176.0470  143.9860 C   0  0  0  0  0  0  0  0  0  0  0  0
  189.4360  177.2560  146.8400 C   0  0  0  0  0  2  0  0  0  0  0  0
  184.2420  179.2070  143.3610 N   0  0  0  0  0  1  0  0  0  0  0  0
  189.3160  174.7950  146.2340 C   0  0  1  0  0  3  0  0  0  0  0  0
  190.1690  174.4460  147.4540 C   0  0  0  0  0  2  0  0  0  0  0  0
  187.2680  176.3940  142.9020 C   0  0  0  0  0  3  0  0  0  0  0  0
  185.7500  177.5500  144.3160 C   0  0  0  0  0  0  0  0  0  0  0  0
  184.4410  178.2910  144.4710 C   0  0  1  0  0  3  0  0  0  0  0  0
  190.1660  175.6590  142.6180 C   0  0  0  0  0  2  0  0  0  0  0  0
  190.6310  174.5420  141.7980 N   0  0  0  0  0  2  0  0  0  0  0  0
  192.3830  173.1440  142.7040 C   0  0  0  0  0  1  0  0  0  0  0  0
  192.6730  174.1660  140.4900 C   0  0  0  0  0  1  0  0  0  0  0  0
  192.0890  174.3880  141.8800 C   0  0  0  0  0  0  0  0  0  0  0  0
  193.5850  176.2850  141.6400 O   0  0  0  0  0  1  0  0  0  0  0  0
  192.7420  175.6190  142.5370 C   0  0  2  0  0  3  0  0  0  0  0  0
  193.4910  175.2390  143.7300 N   0  0  0  0  0  2  0  0  0  0  0  0
  193.5930  176.0870  144.8730 C   0  0  0  0  0  0  0  0  0  0  0  0
  194.5660  175.6590  146.1100 S   0  0  0  0  0  0  0  0  0  0  0  0
  192.8250  177.2850  144.9630 N   0  0  0  0  0  1  0  0  0  0  0  0
  1  6  2  0  0  0  0
  1  9  1  0  0  0  0
  2  3  1  0  0  0  0
  2  5  1  0  0  0  0
  3  7  1  0  0  0  0
  5 14  1  6  0  0  0
  7  4  1  0  0  0  0
  8 21  1  6  0  0  0
  8 13  1  0  0  0  0
  8 12  1  0  0  0  0
 10 19  1  0  0  0  0
 11  4  1  0  0  0  0
 13  2  2  0  0  0  0
 14  1  1  0  0  0  0
 16 12  1  6  0  0  0
 16  5  1  0  0  0  0
 16 17  1  0  0  0  0
 17  6  1  0  0  0  0
 18 10  2  0  0  0  0
 18 13  1  0  0  0  0
 19 20  1  0  0  0  0
 19  3  2  0  0  0  0
 20 15  1  6  0  0  0
 20 11  1  0  0  0  0
 22 25  1  0  0  0  0
 22 21  1  0  0  0  0
 24 25  1  0  0  0  0
 25 27  1  0  0  0  0
 25 23  1  0  0  0  0
 27 26  1  6  0  0  0
 27 28  1  0  0  0  0
 28 29  1  0  0  0  0
 29 31  1  0  0  0  0
 29 30  2  0  0  0  0
M  END
>  <MODEL>
7

>  <REMARK>
 VINA RESULT:      -6.8      3.169      6.829
  Name = 
  6 active torsions:
  status: ('A' for Active; 'I' for Inactive)
    1  A    between atoms: C_1  and  N_24
    2  A    between atoms: N_9  and  C_22
    3  A    between atoms: N_9  and  C_23
    4  A    between atoms: C_15  and  C_23
    5  A    between atoms: C_19  and  C_22
    6  A    between atoms: C_19  and  N_24
                            x       y       z     vdW  Elec       q    Type
                         _______ _______ _______ _____ _____    ______ ____

>  <TORSDO>
F 6

$$$$
=
 OpenBabel11052417593D

 31 34  0  0  1  0  0  0  0  0999 V2000
  189.6220  174.9160  147.2040 C   0  0  0  0  0  0  0  0  0  0  0  0
  190.9140  174.4020  143.6290 C   0  0  0  0  0  0  0  0  0  0  0  0
  190.9970  173.0940  143.1130 C   0  0  0  0  0  0  0  0  0  0  0  0
  191.6330  170.6720  143.2550 C   0  0  0  0  0  2  0  0  0  0  0  0
  191.0470  174.6360  145.1130 C   0  0  2  0  0  3  0  0  0  0  0  0
  190.4970  175.8080  147.6780 C   0  0  0  0  0  3  0  0  0  0  0  0
  191.2090  171.9160  144.0300 C   0  0  0  0  0  2  0  0  0  0  0  0
  190.6720  176.9300  143.2300 C   0  0  1  0  0  3  0  0  0  0  0  0
  188.5670  174.5170  148.0120 O   0  0  0  0  0  1  0  0  0  0  0  0
  190.6290  173.9560  140.9070 N   0  0  0  0  0  0  0  0  0  0  0  0
  190.7220  170.4660  142.1350 N   0  0  0  0  0  2  0  0  0  0  0  0
  190.6660  177.0800  144.7510 C   0  0  0  0  0  2  0  0  0  0  0  0
  190.6670  175.4860  142.7510 C   0  0  0  0  0  0  0  0  0  0  0  0
  189.6940  174.3850  145.7980 C   0  0  0  0  0  2  0  0  0  0  0  0
  190.0670  171.3280  140.0190 N   0  0  0  0  0  1  0  0  0  0  0  0
  191.5730  176.0440  145.4000 C   0  0  1  0  0  3  0  0  0  0  0  0
  191.7000  176.2720  146.9060 C   0  0  0  0  0  2  0  0  0  0  0  0
  190.5540  175.2250  141.3810 C   0  0  0  0  0  3  0  0  0  0  0  0
  190.8160  172.8900  141.7290 C   0  0  0  0  0  0  0  0  0  0  0  0
  190.9750  171.5080  141.1390 C   0  0  1  0  0  3  0  0  0  0  0  0
  189.4950  177.7190  142.6750 C   0  0  0  0  0  2  0  0  0  0  0  0
  188.3200  177.5350  143.5250 N   0  0  0  0  0  2  0  0  0  0  0  0
  187.4010  177.5710  141.2890 C   0  0  0  0  0  1  0  0  0  0  0  0
  186.9230  175.6660  142.7620 C   0  0  0  0  0  1  0  0  0  0  0  0
  187.1370  177.1750  142.7330 C   0  0  0  0  0  0  0  0  0  0  0  0
  186.1750  179.2020  143.6610 O   0  0  0  0  0  1  0  0  0  0  0  0
  185.8790  177.8970  143.2530 C   0  0  2  0  0  3  0  0  0  0  0  0
  185.2730  177.1590  144.3570 N   0  0  0  0  0  2  0  0  0  0  0  0
  185.2400  177.6670  145.6910 C   0  0  0  0  0  0  0  0  0  0  0  0
  186.4430  177.2920  146.7260 S   0  0  0  0  0  0  0  0  0  0  0  0
  184.1490  178.4670  146.1380 N   0  0  0  0  0  1  0  0  0  0  0  0
  1  6  2  0  0  0  0
  1  9  1  0  0  0  0
  2  5  1  0  0  0  0
  3  2  1  0  0  0  0
  3  7  1  0  0  0  0
  4  7  1  0  0  0  0
  5 16  1  0  0  0  0
  5 14  1  1  0  0  0
  8 21  1  6  0  0  0
  8 12  1  0  0  0  0
 10 18  2  0  0  0  0
 10 19  1  0  0  0  0
 11  4  1  0  0  0  0
 13  8  1  0  0  0  0
 13  2  2  0  0  0  0
 14  1  1  0  0  0  0
 16 12  1  1  0  0  0
 16 17  1  0  0  0  0
 17  6  1  0  0  0  0
 18 13  1  0  0  0  0
 19  3  2  0  0  0  0
 20 15  1  6  0  0  0
 20 19  1  0  0  0  0
 20 11  1  0  0  0  0
 21 22  1  0  0  0  0
 23 25  1  0  0  0  0
 25 24  1  0  0  0  0
 25 27  1  0  0  0  0
 25 22  1  0  0  0  0
 27 26  1  1  0  0  0
 27 28  1  0  0  0  0
 28 29  1  0  0  0  0
 29 31  1  0  0  0  0
 29 30  2  0  0  0  0
M  END
>  <MODEL>
8

>  <REMARK>
 VINA RESULT:      -6.8      1.721      2.368
  Name = 
  6 active torsions:
  status: ('A' for Active; 'I' for Inactive)
    1  A    between atoms: C_1  and  N_24
    2  A    between atoms: N_9  and  C_22
    3  A    between atoms: N_9  and  C_23
    4  A    between atoms: C_15  and  C_23
    5  A    between atoms: C_19  and  C_22
    6  A    between atoms: C_19  and  N_24
                            x       y       z     vdW  Elec       q    Type
                         _______ _______ _______ _____ _____    ______ ____

>  <TORSDO>
F 6

$$$$
=
 OpenBabel11052417593D

 31 34  0  0  1  0  0  0  0  0999 V2000
  189.6210  173.7290  142.2170 C   0  0  0  0  0  0  0  0  0  0  0  0
  191.9600  174.8950  145.0240 C   0  0  0  0  0  0  0  0  0  0  0  0
  193.2600  175.3260  144.6960 C   0  0  0  0  0  0  0  0  0  0  0  0
  195.4600  175.0920  143.5150 C   0  0  0  0  0  2  0  0  0  0  0  0
  191.2630  173.8780  144.1560 C   0  0  2  0  0  3  0  0  0  0  0  0
  189.0920  172.6240  142.7520 C   0  0  0  0  0  3  0  0  0  0  0  0
  193.9660  174.7870  143.4770 C   0  0  0  0  0  2  0  0  0  0  0  0
  189.9420  174.9530  146.6150 C   0  0  1  0  0  3  0  0  0  0  0  0
  189.1810  174.1460  140.9680 O   0  0  0  0  0  1  0  0  0  0  0  0
  193.2350  176.7970  146.5880 N   0  0  0  0  0  0  0  0  0  0  0  0
  195.6590  176.5070  143.8070 N   0  0  0  0  0  2  0  0  0  0  0  0
  189.2390  174.0360  145.6150 C   0  0  0  0  0  2  0  0  0  0  0  0
  191.3010  175.4520  146.1470 C   0  0  0  0  0  0  0  0  0  0  0  0
  190.6200  174.5810  142.9510 C   0  0  0  0  0  2  0  0  0  0  0  0
  195.4750  178.1530  145.5110 N   0  0  0  0  0  1  0  0  0  0  0  0
  190.2320  173.0850  144.9630 C   0  0  1  0  0  3  0  0  0  0  0  0
  189.5290  172.0590  144.0740 C   0  0  0  0  0  2  0  0  0  0  0  0
  191.9860  176.3900  146.9270 C   0  0  0  0  0  3  0  0  0  0  0  0
  193.8740  176.3180  145.4880 C   0  0  0  0  0  0  0  0  0  0  0  0
  195.2960  176.7440  145.2040 C   0  0  1  0  0  3  0  0  0  0  0  0
  188.9980  176.0990  146.9470 C   0  0  0  0  0  2  0  0  0  0  0  0
  187.6850  175.8590  146.3500 N   0  0  0  0  0  2  0  0  0  0  0  0
  185.4640  176.7690  146.0640 C   0  0  0  0  0  1  0  0  0  0  0  0
  187.1200  178.0110  147.3860 C   0  0  0  0  0  1  0  0  0  0  0  0
  186.9420  177.1120  146.1680 C   0  0  0  0  0  0  0  0  0  0  0  0
  186.4930  178.8550  144.5380 O   0  0  0  0  0  1  0  0  0  0  0  0
  187.4000  177.8500  144.8950 C   0  0  2  0  0  3  0  0  0  0  0  0
  187.5700  176.9200  143.7850 N   0  0  0  0  0  2  0  0  0  0  0  0
  187.9960  177.3430  142.4890 C   0  0  0  0  0  0  0  0  0  0  0  0
  187.0280  177.0910  141.2000 S   0  0  0  0  0  0  0  0  0  0  0  0
  189.2720  177.9490  142.3040 N   0  0  0  0  0  1  0  0  0  0  0  0
  1  6  2  0  0  0  0
  1 14  1  0  0  0  0
  2 13  1  0  0  0  0
  3  2  2  0  0  0  0
  3 19  1  0  0  0  0
  4 11  1  0  0  0  0
  5 14  1  6  0  0  0
  5 16  1  0  0  0  0
  5  2  1  0  0  0  0
  6 17  1  0  0  0  0
  7  4  1  0  0  0  0
  7  3  1  0  0  0  0
  8 21  1  6  0  0  0
  9  1  1  0  0  0  0
 10 18  1  0  0  0  0
 11 20  1  0  0  0  0
 12  8  1  0  0  0  0
 13  8  1  0  0  0  0
 13 18  2  0  0  0  0
 16 17  1  6  0  0  0
 16 12  1  0  0  0  0
 19 10  2  0  0  0  0
 20 19  1  0  0  0  0
 20 15  1  6  0  0  0
 22 21  1  0  0  0  0
 23 25  1  0  0  0  0
 25 22  1  0  0  0  0
 25 24  1  0  0  0  0
 27 26  1  6  0  0  0
 27 25  1  0  0  0  0
 28 27  1  0  0  0  0
 29 28  1  0  0  0  0
 30 29  2  0  0  0  0
 31 29  1  0  0  0  0
M  END
>  <MODEL>
9

>  <REMARK>
 VINA RESULT:      -6.7      3.784      5.606
  Name = 
  6 active torsions:
  status: ('A' for Active; 'I' for Inactive)
    1  A    between atoms: C_1  and  N_24
    2  A    between atoms: N_9  and  C_22
    3  A    between atoms: N_9  and  C_23
    4  A    between atoms: C_15  and  C_23
    5  A    between atoms: C_19  and  C_22
    6  A    between atoms: C_19  and  N_24
                            x       y       z     vdW  Elec       q    Type
                         _______ _______ _______ _____ _____    ______ ____

>  <TORSDO>
F 6

$$$$
