=
 OpenBabel11052418293D

 27 31  0  0  1  0  0  0  0  0999 V2000
  187.8340  177.4320  142.5360 C   0  0  0  0  0  2  0  0  0  0  0  0
  189.2540  176.9800  144.5540 C   0  0  0  0  0  0  0  0  0  0  0  0
  189.7270  175.2610  142.6930 C   0  0  0  0  0  2  0  0  0  0  0  0
  193.2730  175.8430  146.4220 S   0  0  0  0  0  0  0  0  0  0  0  0
  193.4830  173.2150  145.6740 C   0  0  0  0  0  1  0  0  0  0  0  0
  189.6780  177.6290  145.7290 C   0  0  0  0  0  3  0  0  0  0  0  0
  192.3060  174.7340  144.1700 N   0  0  0  0  0  0  0  0  0  0  0  0
  188.4090  172.7330  139.6910 O   0  0  0  0  0  0  0  0  0  0  0  0
  192.3270  174.0700  142.8740 C   0  0  0  0  0  1  0  0  0  0  0  0
  188.1340  173.7390  140.3930 C   0  0  0  0  0  0  0  0  0  0  0  0
  191.3340  175.6930  144.5960 C   0  0  0  0  0  0  0  0  0  0  0  0
  187.9740  177.3480  143.9880 N   0  0  0  0  0  0  0  0  0  0  0  0
  193.4450  174.6090  145.0740 C   0  0  1  0  0  3  0  0  0  0  0  0
  191.7000  176.3430  145.7540 C   0  0  0  0  0  0  0  0  0  0  0  0
  187.4420  176.0760  141.9580 C   0  0  1  0  0  3  0  0  0  0  0  0
  190.0950  175.9810  143.9670 C   0  0  0  0  0  0  0  0  0  0  0  0
  188.0110  173.5960  141.8810 C   0  0  0  0  0  2  0  0  0  0  0  0
  190.8930  177.3130  146.3320 C   0  0  0  0  0  3  0  0  0  0  0  0
  187.8970  175.0360  139.7440 C   0  0  0  0  0  3  0  0  0  0  0  0
  187.5990  176.1200  140.4620 C   0  0  0  0  0  3  0  0  0  0  0  0
  188.2420  174.9250  142.6060 C   0  0  1  0  0  3  0  0  0  0  0  0
  184.5770  178.0170  146.4650 C   0  0  0  0  0  3  0  0  0  0  0  0
  186.8110  177.5740  144.8150 C   0  0  0  0  0  0  0  0  0  0  0  0
  186.1690  178.8230  144.8310 C   0  0  0  0  0  3  0  0  0  0  0  0
  185.0570  179.0430  145.6480 C   0  0  0  0  0  3  0  0  0  0  0  0
  185.2100  176.7720  146.4660 C   0  0  0  0  0  3  0  0  0  0  0  0
  186.3220  176.5530  145.6480 C   0  0  0  0  0  3  0  0  0  0  0  0
  1 12  1  0  0  0  0
  2  6  1  0  0  0  0
  3 16  1  0  0  0  0
  6 18  2  0  0  0  0
  7 11  1  0  0  0  0
  7 13  1  0  0  0  0
  8 10  2  0  0  0  0
  9  7  1  0  0  0  0
 10 17  1  0  0  0  0
 11 14  2  0  0  0  0
 12  2  1  0  0  0  0
 12 23  1  0  0  0  0
 13  5  1  1  0  0  0
 13  4  1  0  0  0  0
 14 18  1  0  0  0  0
 14  4  1  0  0  0  0
 15 20  1  6  0  0  0
 15  1  1  0  0  0  0
 15 21  1  0  0  0  0
 16  2  2  0  0  0  0
 16 11  1  0  0  0  0
 19 10  1  0  0  0  0
 19 20  2  0  0  0  0
 21 17  1  6  0  0  0
 21  3  1  0  0  0  0
 22 26  1  0  0  0  0
 23 24  2  0  0  0  0
 23 27  1  0  0  0  0
 24 25  1  0  0  0  0
 25 22  2  0  0  0  0
 27 26  2  0  0  0  0
M  END
>  <MODEL>
1

>  <REMARK>
 VINA RESULT:      -7.9      0.000      0.000
  Name = 
  1 active torsions:
  status: ('A' for Active; 'I' for Inactive)
    1  A    between atoms: C_9  and  N_15
                            x       y       z     vdW  Elec       q    Type
                         _______ _______ _______ _____ _____    ______ ____

>  <TORSDO>
F 1

$$$$
=
 OpenBabel11052418293D

 27 31  0  0  1  0  0  0  0  0999 V2000
  190.7160  176.0360  143.1410 C   0  0  0  0  0  2  0  0  0  0  0  0
  188.2470  176.4100  142.8930 C   0  0  0  0  0  0  0  0  0  0  0  0
  188.9660  176.6090  145.3610 C   0  0  0  0  0  2  0  0  0  0  0  0
  184.4420  178.7090  143.9680 S   0  0  0  0  0  0  0  0  0  0  0  0
  184.0730  177.9410  146.5720 C   0  0  0  0  0  1  0  0  0  0  0  0
  187.3060  176.6960  141.8870 C   0  0  0  0  0  3  0  0  0  0  0  0
  186.3640  178.0900  145.7450 N   0  0  0  0  0  0  0  0  0  0  0  0
  191.1910  175.2910  148.5930 O   0  0  0  0  0  0  0  0  0  0  0  0
  187.1880  178.2080  146.9390 C   0  0  0  0  0  1  0  0  0  0  0  0
  191.0860  175.2940  147.3400 C   0  0  0  0  0  0  0  0  0  0  0  0
  186.7980  177.5720  144.4850 C   0  0  0  0  0  0  0  0  0  0  0  0
  189.4390  175.6710  142.5320 N   0  0  0  0  0  0  0  0  0  0  0  0
  185.0460  178.7160  145.7020 C   0  0  1  0  0  3  0  0  0  0  0  0
  185.8980  177.8150  143.4710 C   0  0  0  0  0  0  0  0  0  0  0  0
  190.9190  175.2770  144.4480 C   0  0  1  0  0  3  0  0  0  0  0  0
  187.9930  176.8510  144.2320 C   0  0  0  0  0  0  0  0  0  0  0  0
  189.8840  174.6710  146.6930 C   0  0  0  0  0  2  0  0  0  0  0  0
  186.1330  177.3930  142.1700 C   0  0  0  0  0  3  0  0  0  0  0  0
  192.1600  175.8720  146.5210 C   0  0  0  0  0  3  0  0  0  0  0  0
  192.0780  175.8870  145.1900 C   0  0  0  0  0  3  0  0  0  0  0  0
  189.6280  175.2380  145.2930 C   0  0  1  0  0  3  0  0  0  0  0  0
  189.3280  172.3150  139.9150 C   0  0  0  0  0  3  0  0  0  0  0  0
  189.3920  174.5420  141.6330 C   0  0  0  0  0  0  0  0  0  0  0  0
  188.2250  173.7700  141.5040 C   0  0  0  0  0  3  0  0  0  0  0  0
  188.1910  172.6660  140.6490 C   0  0  0  0  0  3  0  0  0  0  0  0
  190.4970  173.0680  140.0380 C   0  0  0  0  0  3  0  0  0  0  0  0
  190.5300  174.1730  140.8950 C   0  0  0  0  0  3  0  0  0  0  0  0
  2 16  1  0  0  0  0
  4 13  1  0  0  0  0
  6 18  1  0  0  0  0
  6  2  2  0  0  0  0
  7  9  1  0  0  0  0
 10  8  2  0  0  0  0
 11  7  1  0  0  0  0
 12  2  1  0  0  0  0
 12  1  1  0  0  0  0
 13  7  1  0  0  0  0
 13  5  1  1  0  0  0
 14  4  1  0  0  0  0
 14 11  1  0  0  0  0
 15  1  1  6  0  0  0
 15 20  1  0  0  0  0
 15 21  1  0  0  0  0
 16 11  2  0  0  0  0
 16  3  1  0  0  0  0
 17 10  1  0  0  0  0
 18 14  2  0  0  0  0
 19 10  1  0  0  0  0
 20 19  2  0  0  0  0
 21  3  1  1  0  0  0
 21 17  1  0  0  0  0
 22 26  2  0  0  0  0
 22 25  1  0  0  0  0
 23 12  1  0  0  0  0
 24 23  1  0  0  0  0
 25 24  2  0  0  0  0
 26 27  1  0  0  0  0
 27 23  2  0  0  0  0
M  END
>  <MODEL>
2

>  <REMARK>
 VINA RESULT:      -7.4      3.062      6.802
  Name = 
  1 active torsions:
  status: ('A' for Active; 'I' for Inactive)
    1  A    between atoms: C_9  and  N_15
                            x       y       z     vdW  Elec       q    Type
                         _______ _______ _______ _____ _____    ______ ____

>  <TORSDO>
F 1

$$$$
=
 OpenBabel11052418293D

 27 31  0  0  1  0  0  0  0  0999 V2000
  189.3340  175.4600  145.6910 C   0  0  0  0  0  2  0  0  0  0  0  0
  188.9550  175.0150  143.2510 C   0  0  0  0  0  0  0  0  0  0  0  0
  191.4740  175.0840  143.7930 C   0  0  0  0  0  2  0  0  0  0  0  0
  189.9940  172.7660  139.4060 S   0  0  0  0  0  0  0  0  0  0  0  0
  192.4720  173.7910  138.8430 C   0  0  0  0  0  1  0  0  0  0  0  0
  187.9200  174.6090  142.3880 C   0  0  0  0  0  3  0  0  0  0  0  0
  191.8270  173.6010  141.1890 N   0  0  0  0  0  0  0  0  0  0  0  0
  194.6990  176.7700  145.7670 O   0  0  0  0  0  0  0  0  0  0  0  0
  193.0820  173.6220  141.9260 C   0  0  0  0  0  1  0  0  0  0  0  0
  193.4490  176.6360  145.7510 C   0  0  0  0  0  0  0  0  0  0  0  0
  190.5540  173.9950  141.7050 C   0  0  0  0  0  0  0  0  0  0  0  0
  188.6030  175.7350  144.4570 N   0  0  0  0  0  0  0  0  0  0  0  0
  191.7570  172.9490  139.8840 C   0  0  1  0  0  3  0  0  0  0  0  0
  189.5100  173.6320  140.8830 C   0  0  0  0  0  0  0  0  0  0  0  0
  190.5670  176.3520  145.7920 C   0  0  1  0  0  3  0  0  0  0  0  0
  190.3110  174.7090  142.9070 C   0  0  0  0  0  0  0  0  0  0  0  0
  192.6590  177.1660  144.5910 C   0  0  0  0  0  2  0  0  0  0  0  0
  188.1910  173.9230  141.2060 C   0  0  0  0  0  3  0  0  0  0  0  0
  192.7720  175.9970  146.8880 C   0  0  0  0  0  3  0  0  0  0  0  0
  191.4470  175.8440  146.9020 C   0  0  0  0  0  3  0  0  0  0  0  0
  191.3110  176.4540  144.4430 C   0  0  1  0  0  3  0  0  0  0  0  0
  185.6420  178.7930  144.5080 C   0  0  0  0  0  3  0  0  0  0  0  0
  187.5900  176.7650  144.4610 C   0  0  0  0  0  0  0  0  0  0  0  0
  187.5880  177.7790  143.4880 C   0  0  0  0  0  3  0  0  0  0  0  0
  186.6190  178.7850  143.5090 C   0  0  0  0  0  3  0  0  0  0  0  0
  185.6360  177.7970  145.4860 C   0  0  0  0  0  3  0  0  0  0  0  0
  186.6070  176.7910  145.4650 C   0  0  0  0  0  3  0  0  0  0  0  0
  2 12  1  0  0  0  0
  4 13  1  0  0  0  0
  4 14  1  0  0  0  0
  6  2  2  0  0  0  0
  7 11  1  0  0  0  0
  7  9  1  0  0  0  0
 10  8  2  0  0  0  0
 10 19  1  0  0  0  0
 11 16  2  0  0  0  0
 12 23  1  0  0  0  0
 12  1  1  0  0  0  0
 13  5  1  6  0  0  0
 13  7  1  0  0  0  0
 14 18  2  0  0  0  0
 14 11  1  0  0  0  0
 15  1  1  6  0  0  0
 15 20  1  0  0  0  0
 16  2  1  0  0  0  0
 16  3  1  0  0  0  0
 17 10  1  0  0  0  0
 18  6  1  0  0  0  0
 19 20  2  0  0  0  0
 21  3  1  1  0  0  0
 21 17  1  0  0  0  0
 21 15  1  0  0  0  0
 22 26  1  0  0  0  0
 23 27  1  0  0  0  0
 24 25  1  0  0  0  0
 24 23  2  0  0  0  0
 25 22  2  0  0  0  0
 27 26  2  0  0  0  0
M  END
>  <MODEL>
3

>  <REMARK>
 VINA RESULT:      -7.4      2.955      5.103
  Name = 
  1 active torsions:
  status: ('A' for Active; 'I' for Inactive)
    1  A    between atoms: C_9  and  N_15
                            x       y       z     vdW  Elec       q    Type
                         _______ _______ _______ _____ _____    ______ ____

>  <TORSDO>
F 1

$$$$
=
 OpenBabel11052418293D

 27 31  0  0  1  0  0  0  0  0999 V2000
  190.4220  173.8720  144.6710 C   0  0  0  0  0  2  0  0  0  0  0  0
  189.5220  175.9960  145.6580 C   0  0  0  0  0  0  0  0  0  0  0  0
  188.2200  175.3440  143.5310 C   0  0  0  0  0  2  0  0  0  0  0  0
  185.9910  178.6580  146.8270 S   0  0  0  0  0  0  0  0  0  0  0  0
  185.0350  179.3860  144.3640 C   0  0  0  0  0  1  0  0  0  0  0  0
  189.5710  176.7180  146.8650 C   0  0  0  0  0  3  0  0  0  0  0  0
  186.0700  177.1870  144.5770 N   0  0  0  0  0  0  0  0  0  0  0  0
  188.1280  173.9140  139.6470 O   0  0  0  0  0  0  0  0  0  0  0  0
  185.5670  176.4240  143.4430 C   0  0  0  0  0  1  0  0  0  0  0  0
  188.7870  173.9660  140.7170 C   0  0  0  0  0  0  0  0  0  0  0  0
  187.3010  176.9420  145.2620 C   0  0  0  0  0  0  0  0  0  0  0  0
  190.6550  175.1690  145.3030 N   0  0  0  0  0  0  0  0  0  0  0  0
  185.2090  178.1600  145.2420 C   0  0  1  0  0  3  0  0  0  0  0  0
  187.4000  177.6420  146.4440 C   0  0  0  0  0  0  0  0  0  0  0  0
  190.3500  174.0230  143.1550 C   0  0  1  0  0  3  0  0  0  0  0  0
  188.3620  176.1080  144.8250 C   0  0  0  0  0  0  0  0  0  0  0  0
  189.2640  175.2910  141.2330 C   0  0  0  0  0  2  0  0  0  0  0  0
  188.5190  177.5410  147.2590 C   0  0  0  0  0  3  0  0  0  0  0  0
  189.1160  172.7230  141.4290 C   0  0  0  0  0  3  0  0  0  0  0  0
  189.8170  172.7460  142.5630 C   0  0  0  0  0  3  0  0  0  0  0  0
  189.5220  175.2590  142.7420 C   0  0  1  0  0  3  0  0  0  0  0  0
  194.6800  176.4460  145.8500 C   0  0  0  0  0  3  0  0  0  0  0  0
  192.0160  175.6150  145.4980 C   0  0  0  0  0  0  0  0  0  0  0  0
  192.5050  176.7500  144.8310 C   0  0  0  0  0  3  0  0  0  0  0  0
  193.8280  177.1650  145.0070 C   0  0  0  0  0  3  0  0  0  0  0  0
  194.2090  175.3110  146.5130 C   0  0  0  0  0  3  0  0  0  0  0  0
  192.8860  174.8960  146.3360 C   0  0  0  0  0  3  0  0  0  0  0  0
  1 12  1  0  0  0  0
  2  6  1  0  0  0  0
  3 16  1  0  0  0  0
  6 18  2  0  0  0  0
  7 13  1  0  0  0  0
  7 11  1  0  0  0  0
  8 10  2  0  0  0  0
  9  7  1  0  0  0  0
 10 17  1  0  0  0  0
 10 19  1  0  0  0  0
 11 14  2  0  0  0  0
 12 23  1  0  0  0  0
 12  2  1  0  0  0  0
 13  5  1  6  0  0  0
 13  4  1  0  0  0  0
 14  4  1  0  0  0  0
 14 18  1  0  0  0  0
 15 20  1  6  0  0  0
 15  1  1  0  0  0  0
 16 11  1  0  0  0  0
 16  2  2  0  0  0  0
 19 20  2  0  0  0  0
 21 17  1  6  0  0  0
 21 15  1  0  0  0  0
 21  3  1  0  0  0  0
 22 26  1  0  0  0  0
 23 27  1  0  0  0  0
 24 25  1  0  0  0  0
 24 23  2  0  0  0  0
 25 22  2  0  0  0  0
 27 26  2  0  0  0  0
M  END
>  <MODEL>
4

>  <REMARK>
 VINA RESULT:      -7.2      2.173      5.734
  Name = 
  1 active torsions:
  status: ('A' for Active; 'I' for Inactive)
    1  A    between atoms: C_9  and  N_15
                            x       y       z     vdW  Elec       q    Type
                         _______ _______ _______ _____ _____    ______ ____

>  <TORSDO>
F 1

$$$$
=
 OpenBabel11052418293D

 27 31  0  0  1  0  0  0  0  0999 V2000
  188.9530  175.5830  145.3950 C   0  0  0  0  0  2  0  0  0  0  0  0
  189.2480  174.1530  143.3550 C   0  0  0  0  0  0  0  0  0  0  0  0
  191.4440  174.3080  144.6960 C   0  0  0  0  0  2  0  0  0  0  0  0
  190.9240  170.4140  141.3220 S   0  0  0  0  0  0  0  0  0  0  0  0
  193.6100  170.9560  141.3420 C   0  0  0  0  0  1  0  0  0  0  0  0
  188.4640  173.4740  142.4040 C   0  0  0  0  0  3  0  0  0  0  0  0
  192.2600  171.8310  143.1780 N   0  0  0  0  0  0  0  0  0  0  0  0
  194.1920  176.4950  146.8880 O   0  0  0  0  0  0  0  0  0  0  0  0
  193.2100  172.0970  144.2480 C   0  0  0  0  0  1  0  0  0  0  0  0
  193.0050  176.4370  146.4760 C   0  0  0  0  0  0  0  0  0  0  0  0
  190.9980  172.4800  143.0070 C   0  0  0  0  0  0  0  0  0  0  0  0
  188.7010  175.3410  143.9770 N   0  0  0  0  0  0  0  0  0  0  0  0
  192.4580  170.6860  142.2930 C   0  0  1  0  0  3  0  0  0  0  0  0
  190.2010  171.8570  142.0720 C   0  0  0  0  0  0  0  0  0  0  0  0
  190.2510  176.3620  145.5820 C   0  0  1  0  0  3  0  0  0  0  0  0
  190.5530  173.6540  143.6680 C   0  0  0  0  0  0  0  0  0  0  0  0
  192.7280  176.4600  145.0020 C   0  0  0  0  0  2  0  0  0  0  0  0
  188.9350  172.3320  141.7600 C   0  0  0  0  0  3  0  0  0  0  0  0
  191.9010  176.3890  147.4440 C   0  0  0  0  0  3  0  0  0  0  0  0
  190.6320  176.3320  147.0380 C   0  0  0  0  0  3  0  0  0  0  0  0
  191.3730  175.8300  144.6640 C   0  0  1  0  0  3  0  0  0  0  0  0
  186.5280  178.2770  141.7900 C   0  0  0  0  0  3  0  0  0  0  0  0
  187.9660  176.3280  143.2210 C   0  0  0  0  0  0  0  0  0  0  0  0
  188.6270  177.2100  142.3510 C   0  0  0  0  0  3  0  0  0  0  0  0
  187.9140  178.1770  141.6370 C   0  0  0  0  0  3  0  0  0  0  0  0
  185.8580  177.4110  142.6570 C   0  0  0  0  0  3  0  0  0  0  0  0
  186.5730  176.4450  143.3710 C   0  0  0  0  0  3  0  0  0  0  0  0
  2 16  1  0  0  0  0
  2 12  1  0  0  0  0
  4 14  1  0  0  0  0
  4 13  1  0  0  0  0
  6  2  2  0  0  0  0
  7  9  1  0  0  0  0
 10  8  2  0  0  0  0
 10 19  1  0  0  0  0
 11  7  1  0  0  0  0
 11 16  2  0  0  0  0
 12  1  1  0  0  0  0
 13  5  1  6  0  0  0
 13  7  1  0  0  0  0
 14 11  1  0  0  0  0
 15  1  1  1  0  0  0
 15 20  1  0  0  0  0
 16  3  1  0  0  0  0
 17 10  1  0  0  0  0
 18 14  2  0  0  0  0
 18  6  1  0  0  0  0
 20 19  2  0  0  0  0
 21  3  1  1  0  0  0
 21 17  1  0  0  0  0
 21 15  1  0  0  0  0
 22 26  1  0  0  0  0
 23 27  1  0  0  0  0
 23 12  1  0  0  0  0
 24 23  2  0  0  0  0
 25 22  2  0  0  0  0
 25 24  1  0  0  0  0
 26 27  2  0  0  0  0
M  END
>  <MODEL>
5

>  <REMARK>
 VINA RESULT:      -7.0      3.206      5.300
  Name = 
  1 active torsions:
  status: ('A' for Active; 'I' for Inactive)
    1  A    between atoms: C_9  and  N_15
                            x       y       z     vdW  Elec       q    Type
                         _______ _______ _______ _____ _____    ______ ____

>  <TORSDO>
F 1

$$$$
=
 OpenBabel11052418293D

 27 31  0  0  1  0  0  0  0  0999 V2000
  188.9870  176.5350  142.4510 C   0  0  0  0  0  2  0  0  0  0  0  0
  190.6520  176.2830  144.3110 C   0  0  0  0  0  0  0  0  0  0  0  0
  190.9190  174.3970  142.5740 C   0  0  0  0  0  2  0  0  0  0  0  0
  194.8880  175.3470  145.7620 S   0  0  0  0  0  0  0  0  0  0  0  0
  195.0470  172.6620  145.2430 C   0  0  0  0  0  1  0  0  0  0  0  0
  191.2060  177.0420  145.3580 C   0  0  0  0  0  3  0  0  0  0  0  0
  193.6690  174.0260  143.7610 N   0  0  0  0  0  0  0  0  0  0  0  0
  189.2830  171.5900  140.0090 O   0  0  0  0  0  0  0  0  0  0  0  0
  193.5410  173.2420  142.5410 C   0  0  0  0  0  1  0  0  0  0  0  0
  189.0810  172.6570  140.6430 C   0  0  0  0  0  0  0  0  0  0  0  0
  192.7420  175.0160  144.2130 C   0  0  0  0  0  0  0  0  0  0  0  0
  189.3060  176.5900  143.8760 N   0  0  0  0  0  0  0  0  0  0  0  0
  194.9130  173.9920  144.5240 C   0  0  1  0  0  3  0  0  0  0  0  0
  193.2370  175.7740  145.2510 C   0  0  0  0  0  0  0  0  0  0  0  0
  188.5480  175.1280  142.0560 C   0  0  1  0  0  3  0  0  0  0  0  0
  191.4300  175.2370  143.7190 C   0  0  0  0  0  0  0  0  0  0  0  0
  189.1440  172.6550  142.1410 C   0  0  0  0  0  2  0  0  0  0  0  0
  192.4920  176.7910  145.8320 C   0  0  0  0  0  3  0  0  0  0  0  0
  188.7440  173.8850  139.9100 C   0  0  0  0  0  3  0  0  0  0  0  0
  188.5190  175.0310  140.5550 C   0  0  0  0  0  3  0  0  0  0  0  0
  189.4410  174.0480  142.7040 C   0  0  1  0  0  3  0  0  0  0  0  0
  186.1620  177.4460  146.6160 C   0  0  0  0  0  3  0  0  0  0  0  0
  188.2500  176.8880  144.8160 C   0  0  0  0  0  0  0  0  0  0  0  0
  188.1000  176.1370  145.9940 C   0  0  0  0  0  3  0  0  0  0  0  0
  187.0650  176.4160  146.8900 C   0  0  0  0  0  3  0  0  0  0  0  0
  186.2940  178.1960  145.4450 C   0  0  0  0  0  3  0  0  0  0  0  0
  187.3300  177.9160  144.5490 C   0  0  0  0  0  3  0  0  0  0  0  0
  1 12  1  0  0  0  0
  2  6  1  0  0  0  0
  3 21  1  0  0  0  0
  3 16  1  0  0  0  0
  6 18  2  0  0  0  0
  7 11  1  0  0  0  0
  7 13  1  0  0  0  0
  8 10  2  0  0  0  0
  9  7  1  0  0  0  0
 10 17  1  0  0  0  0
 11 14  2  0  0  0  0
 12  2  1  0  0  0  0
 12 23  1  0  0  0  0
 13  5  1  1  0  0  0
 13  4  1  0  0  0  0
 14  4  1  0  0  0  0
 14 18  1  0  0  0  0
 15 20  1  6  0  0  0
 15  1  1  0  0  0  0
 15 21  1  0  0  0  0
 16 11  1  0  0  0  0
 16  2  2  0  0  0  0
 19 20  2  0  0  0  0
 19 10  1  0  0  0  0
 21 17  1  6  0  0  0
 22 25  1  0  0  0  0
 23 24  1  0  0  0  0
 24 25  2  0  0  0  0
 26 22  2  0  0  0  0
 27 23  2  0  0  0  0
 27 26  1  0  0  0  0
M  END
>  <MODEL>
6

>  <REMARK>
 VINA RESULT:      -6.9      1.306      1.830
  Name = 
  1 active torsions:
  status: ('A' for Active; 'I' for Inactive)
    1  A    between atoms: C_9  and  N_15
                            x       y       z     vdW  Elec       q    Type
                         _______ _______ _______ _____ _____    ______ ____

>  <TORSDO>
F 1

$$$$
=
 OpenBabel11052418293D

 27 31  0  0  1  0  0  0  0  0999 V2000
  191.6360  174.9940  146.3660 C   0  0  0  0  0  2  0  0  0  0  0  0
  190.5150  173.6980  144.5330 C   0  0  0  0  0  0  0  0  0  0  0  0
  192.9910  174.1370  143.9680 C   0  0  0  0  0  2  0  0  0  0  0  0
  190.5570  170.3300  141.4380 S   0  0  0  0  0  0  0  0  0  0  0  0
  192.4090  171.2720  139.6510 C   0  0  0  0  0  1  0  0  0  0  0  0
  189.3480  172.9410  144.3210 C   0  0  0  0  0  3  0  0  0  0  0  0
  192.6920  171.8670  142.0010 N   0  0  0  0  0  0  0  0  0  0  0  0
  196.2890  176.6380  143.8850 O   0  0  0  0  0  0  0  0  0  0  0  0
  194.0940  172.2370  142.1280 C   0  0  0  0  0  1  0  0  0  0  0  0
  195.1710  176.4150  144.4150 C   0  0  0  0  0  0  0  0  0  0  0  0
  191.6330  172.3230  142.8470 C   0  0  0  0  0  0  0  0  0  0  0  0
  190.4750  174.7660  145.5090 N   0  0  0  0  0  0  0  0  0  0  0  0
  192.2980  170.7970  141.0890 C   0  0  1  0  0  3  0  0  0  0  0  0
  190.4630  171.6190  142.6610 C   0  0  0  0  0  0  0  0  0  0  0  0
  192.6140  175.9530  145.6950 C   0  0  1  0  0  3  0  0  0  0  0  0
  191.6930  173.3920  143.7780 C   0  0  0  0  0  0  0  0  0  0  0  0
  193.9300  176.4470  143.5720 C   0  0  0  0  0  2  0  0  0  0  0  0
  189.3160  171.9070  143.3870 C   0  0  0  0  0  3  0  0  0  0  0  0
  195.0870  176.1660  145.8600 C   0  0  0  0  0  3  0  0  0  0  0  0
  193.9150  175.9310  146.4510 C   0  0  0  0  0  3  0  0  0  0  0  0
  192.7930  175.6310  144.1960 C   0  0  1  0  0  3  0  0  0  0  0  0
  187.1620  177.4150  145.8680 C   0  0  0  0  0  3  0  0  0  0  0  0
  189.3420  175.6560  145.6200 C   0  0  0  0  0  0  0  0  0  0  0  0
  189.0530  176.5850  144.6070 C   0  0  0  0  0  3  0  0  0  0  0  0
  187.9690  177.4580  144.7280 C   0  0  0  0  0  3  0  0  0  0  0  0
  187.4410  176.5010  146.8870 C   0  0  0  0  0  3  0  0  0  0  0  0
  188.5270  175.6290  146.7650 C   0  0  0  0  0  3  0  0  0  0  0  0
  2 12  1  0  0  0  0
  3 21  1  0  0  0  0
  4 14  1  0  0  0  0
  6  2  1  0  0  0  0
  7  9  1  0  0  0  0
  7 11  1  0  0  0  0
  8 10  2  0  0  0  0
 10 19  1  0  0  0  0
 11 16  1  0  0  0  0
 12 23  1  0  0  0  0
 12  1  1  0  0  0  0
 13  5  1  6  0  0  0
 13  4  1  0  0  0  0
 13  7  1  0  0  0  0
 14 11  2  0  0  0  0
 14 18  1  0  0  0  0
 15  1  1  1  0  0  0
 15 20  1  0  0  0  0
 16  3  1  0  0  0  0
 16  2  2  0  0  0  0
 17 10  1  0  0  0  0
 18  6  2  0  0  0  0
 19 20  2  0  0  0  0
 21 17  1  1  0  0  0
 21 15  1  0  0  0  0
 22 26  1  0  0  0  0
 23 27  1  0  0  0  0
 24 25  1  0  0  0  0
 24 23  2  0  0  0  0
 25 22  2  0  0  0  0
 27 26  2  0  0  0  0
M  END
>  <MODEL>
7

>  <REMARK>
 VINA RESULT:      -6.9      3.429      5.622
  Name = 
  1 active torsions:
  status: ('A' for Active; 'I' for Inactive)
    1  A    between atoms: C_9  and  N_15
                            x       y       z     vdW  Elec       q    Type
                         _______ _______ _______ _____ _____    ______ ____

>  <TORSDO>
F 1

$$$$
=
 OpenBabel11052418293D

 27 31  0  0  1  0  0  0  0  0999 V2000
  193.2170  175.4390  145.1900 C   0  0  0  0  0  2  0  0  0  0  0  0
  192.9100  174.0350  143.1340 C   0  0  0  0  0  0  0  0  0  0  0  0
  190.6410  174.8710  144.0250 C   0  0  0  0  0  2  0  0  0  0  0  0
  190.8780  173.2610  139.1090 S   0  0  0  0  0  0  0  0  0  0  0  0
  188.3250  172.6660  139.9070 C   0  0  0  0  0  1  0  0  0  0  0  0
  193.6700  173.5300  142.0620 C   0  0  0  0  0  3  0  0  0  0  0  0
  189.6010  174.2450  141.2620 N   0  0  0  0  0  0  0  0  0  0  0  0
  188.0650  175.6660  147.1670 O   0  0  0  0  0  0  0  0  0  0  0  0
  188.6000  174.9850  142.0170 C   0  0  0  0  0  1  0  0  0  0  0  0
  189.2640  175.4930  146.8280 C   0  0  0  0  0  0  0  0  0  0  0  0
  190.9610  174.0500  141.6560 C   0  0  0  0  0  0  0  0  0  0  0  0
  193.5720  174.2620  144.4010 N   0  0  0  0  0  0  0  0  0  0  0  0
  189.3150  173.8160  139.8960 C   0  0  1  0  0  3  0  0  0  0  0  0
  191.7410  173.5400  140.6410 C   0  0  0  0  0  0  0  0  0  0  0  0
  192.0470  175.1260  146.1180 C   0  0  1  0  0  3  0  0  0  0  0  0
  191.5170  174.3010  142.9370 C   0  0  0  0  0  0  0  0  0  0  0  0
  189.6910  174.1730  146.2580 C   0  0  0  0  0  2  0  0  0  0  0  0
  193.0920  173.2780  140.8200 C   0  0  0  0  0  3  0  0  0  0  0  0
  190.2400  176.5710  147.0320 C   0  0  0  0  0  3  0  0  0  0  0  0
  191.5190  176.4160  146.6860 C   0  0  0  0  0  3  0  0  0  0  0  0
  190.9560  174.3010  145.4030 C   0  0  1  0  0  3  0  0  0  0  0  0
  196.3900  171.5190  146.0320 C   0  0  0  0  0  3  0  0  0  0  0  0
  194.5300  173.3230  144.9390 C   0  0  0  0  0  0  0  0  0  0  0  0
  194.1600  171.9980  145.2230 C   0  0  0  0  0  3  0  0  0  0  0  0
  195.0850  171.1000  145.7630 C   0  0  0  0  0  3  0  0  0  0  0  0
  196.7700  172.8360  145.7630 C   0  0  0  0  0  3  0  0  0  0  0  0
  195.8440  173.7340  145.2230 C   0  0  0  0  0  3  0  0  0  0  0  0
  2 12  1  0  0  0  0
  4 13  1  0  0  0  0
  4 14  1  0  0  0  0
  6  2  2  0  0  0  0
  7 11  1  0  0  0  0
  7  9  1  0  0  0  0
 10 19  1  0  0  0  0
 10  8  2  0  0  0  0
 11 16  2  0  0  0  0
 12 23  1  0  0  0  0
 12  1  1  0  0  0  0
 13  5  1  1  0  0  0
 13  7  1  0  0  0  0
 14 18  2  0  0  0  0
 14 11  1  0  0  0  0
 15  1  1  6  0  0  0
 15 20  1  0  0  0  0
 16  2  1  0  0  0  0
 16  3  1  0  0  0  0
 17 10  1  0  0  0  0
 18  6  1  0  0  0  0
 20 19  2  0  0  0  0
 21  3  1  6  0  0  0
 21 15  1  0  0  0  0
 21 17  1  0  0  0  0
 23 24  2  0  0  0  0
 23 27  1  0  0  0  0
 24 25  1  0  0  0  0
 25 22  2  0  0  0  0
 26 22  1  0  0  0  0
 27 26  2  0  0  0  0
M  END
>  <MODEL>
8

>  <REMARK>
 VINA RESULT:      -6.8      3.454      7.562
  Name = 
  1 active torsions:
  status: ('A' for Active; 'I' for Inactive)
    1  A    between atoms: C_9  and  N_15
                            x       y       z     vdW  Elec       q    Type
                         _______ _______ _______ _____ _____    ______ ____

>  <TORSDO>
F 1

$$$$
=
 OpenBabel11052418293D

 27 31  0  0  1  0  0  0  0  0999 V2000
  191.0060  175.2550  142.7770 C   0  0  0  0  0  2  0  0  0  0  0  0
  192.6570  174.9730  144.6440 C   0  0  0  0  0  0  0  0  0  0  0  0
  192.7690  172.9830  143.0090 C   0  0  0  0  0  2  0  0  0  0  0  0
  196.8160  173.7910  146.1380 S   0  0  0  0  0  0  0  0  0  0  0  0
  196.7650  171.0770  145.7610 C   0  0  0  0  0  1  0  0  0  0  0  0
  193.2740  175.7410  145.6490 C   0  0  0  0  0  3  0  0  0  0  0  0
  195.4880  172.4640  144.2110 N   0  0  0  0  0  0  0  0  0  0  0  0
  190.9070  170.1800  140.5990 O   0  0  0  0  0  0  0  0  0  0  0  0
  195.2930  171.6290  143.0350 C   0  0  0  0  0  1  0  0  0  0  0  0
  190.7910  171.2910  141.1760 C   0  0  0  0  0  0  0  0  0  0  0  0
  194.6430  173.5450  144.6110 C   0  0  0  0  0  0  0  0  0  0  0  0
  191.3360  175.3590  144.1960 N   0  0  0  0  0  0  0  0  0  0  0  0
  196.7300  172.3740  144.9730 C   0  0  1  0  0  3  0  0  0  0  0  0
  195.2000  174.3160  145.6070 C   0  0  0  0  0  0  0  0  0  0  0  0
  190.4580  173.8670  142.4570 C   0  0  1  0  0  3  0  0  0  0  0  0
  193.3490  173.8400  144.1080 C   0  0  0  0  0  0  0  0  0  0  0  0
  190.8620  171.3630  142.6720 C   0  0  0  0  0  2  0  0  0  0  0  0
  194.5390  175.4170  146.1340 C   0  0  0  0  0  3  0  0  0  0  0  0
  190.5450  172.5010  140.3790 C   0  0  0  0  0  3  0  0  0  0  0  0
  190.4130  173.6930  140.9630 C   0  0  0  0  0  3  0  0  0  0  0  0
  191.2690  172.7570  143.1600 C   0  0  1  0  0  3  0  0  0  0  0  0
  188.2840  176.6200  146.8830 C   0  0  0  0  0  3  0  0  0  0  0  0
  190.3110  175.7870  145.1200 C   0  0  0  0  0  0  0  0  0  0  0  0
  189.7340  174.8820  146.0270 C   0  0  0  0  0  3  0  0  0  0  0  0
  188.7290  175.2960  146.9050 C   0  0  0  0  0  3  0  0  0  0  0  0
  188.8420  177.5290  145.9810 C   0  0  0  0  0  3  0  0  0  0  0  0
  189.8480  177.1140  145.1030 C   0  0  0  0  0  3  0  0  0  0  0  0
  1 12  1  0  0  0  0
  2  6  1  0  0  0  0
  3 21  1  0  0  0  0
  3 16  1  0  0  0  0
  6 18  2  0  0  0  0
  7 11  1  0  0  0  0
  7 13  1  0  0  0  0
  8 10  2  0  0  0  0
  9  7  1  0  0  0  0
 10 17  1  0  0  0  0
 11 14  2  0  0  0  0
 12  2  1  0  0  0  0
 12 23  1  0  0  0  0
 13  5  1  1  0  0  0
 13  4  1  0  0  0  0
 14 18  1  0  0  0  0
 14  4  1  0  0  0  0
 15 20  1  6  0  0  0
 15  1  1  0  0  0  0
 15 21  1  0  0  0  0
 16 11  1  0  0  0  0
 16  2  2  0  0  0  0
 19 20  2  0  0  0  0
 19 10  1  0  0  0  0
 21 17  1  6  0  0  0
 22 25  1  0  0  0  0
 23 24  1  0  0  0  0
 24 25  2  0  0  0  0
 26 22  2  0  0  0  0
 27 23  2  0  0  0  0
 27 26  1  0  0  0  0
M  END
>  <MODEL>
9

>  <REMARK>
 VINA RESULT:      -6.8      2.672      4.007
  Name = 
  1 active torsions:
  status: ('A' for Active; 'I' for Inactive)
    1  A    between atoms: C_9  and  N_15
                            x       y       z     vdW  Elec       q    Type
                         _______ _______ _______ _____ _____    ______ ____

>  <TORSDO>
F 1

$$$$
