=
 OpenBabel11052417503D

 31 35  0  0  1  0  0  0  0  0999 V2000
  184.2980  177.9360  146.5130 C   0  0  1  0  0  3  0  0  0  0  0  0
  186.9490  177.2470  143.8520 C   0  0  0  0  0  0  0  0  0  0  0  0
  186.3260  177.4790  142.5900 C   0  0  0  0  0  0  0  0  0  0  0  0
  190.6440  175.9360  147.3640 O   0  0  0  0  0  0  0  0  0  0  0  0
  191.1210  175.7860  146.2060 C   0  0  0  0  0  0  0  0  0  0  0  0
  184.4410  178.1500  141.2880 C   0  0  0  0  0  0  0  0  0  0  0  0
  186.3030  177.4380  145.1110 C   0  0  0  0  0  0  0  0  0  0  0  0
  185.2050  177.9420  147.6150 O   0  0  0  0  0  0  0  0  0  0  0  0
  185.0410  177.9260  142.4870 N   0  0  0  0  0  0  0  0  0  0  0  0
  188.9610  176.5440  145.0610 C   0  0  0  0  0  0  0  0  0  0  0  0
  183.5190  179.0770  146.5360 F   0  0  0  0  0  0  0  0  0  0  0  0
  188.3370  176.8020  141.4560 N   0  0  0  0  0  0  0  0  0  0  0  0
  183.1620  178.5940  141.2450 F   0  0  0  0  0  0  0  0  0  0  0  0
  188.3210  176.7690  146.2360 N   0  0  0  0  0  0  0  0  0  0  0  0
  188.2940  176.7870  143.8510 C   0  0  0  0  0  0  0  0  0  0  0  0
  190.3190  176.0740  145.0520 N   0  0  0  0  0  2  0  0  0  0  0  0
  185.0200  177.8300  145.2000 C   0  0  0  0  0  3  0  0  0  0  0  0
  185.1390  177.9240  140.1020 C   0  0  0  0  0  3  0  0  0  0  0  0
  187.0400  177.2060  146.2990 C   0  0  0  0  0  0  0  0  0  0  0  0
  186.5120  177.4610  147.4990 C   0  0  0  0  0  3  0  0  0  0  0  0
  188.9580  176.5740  142.6380 C   0  0  0  0  0  3  0  0  0  0  0  0
  187.0570  177.2440  141.4020 C   0  0  0  0  0  0  0  0  0  0  0  0
  186.4550  177.4690  140.1640 C   0  0  0  0  0  3  0  0  0  0  0  0
  195.1890  174.4950  145.7230 C   0  0  0  0  0  0  0  0  0  0  0  0
  193.5680  176.1370  146.4420 C   0  0  0  0  0  3  0  0  0  0  0  0
  191.8190  173.1930  145.0170 O   0  0  0  0  0  1  0  0  0  0  0  0
  196.5080  174.0930  145.5750 O   0  0  0  0  0  1  0  0  0  0  0  0
  194.8960  175.7340  146.2930 C   0  0  0  0  0  3  0  0  0  0  0  0
  192.8200  174.0550  145.4480 C   0  0  0  0  0  0  0  0  0  0  0  0
  192.5130  175.3100  146.0250 C   0  0  0  0  0  0  0  0  0  0  0  0
  194.1530  173.6590  145.3020 C   0  0  0  0  0  3  0  0  0  0  0  0
  1 11  1  6  0  0  0
  1  8  1  0  0  0  0
  2  7  1  0  0  0  0
  3  2  2  0  0  0  0
  5  4  2  0  0  0  0
  6  9  2  0  0  0  0
  7 17  2  0  0  0  0
  7 19  1  0  0  0  0
  9  3  1  0  0  0  0
 10 14  2  0  0  0  0
 12 21  1  0  0  0  0
 13  6  1  0  0  0  0
 14 19  1  0  0  0  0
 15  2  1  0  0  0  0
 15 10  1  0  0  0  0
 16 10  1  0  0  0  0
 16  5  1  0  0  0  0
 17  1  1  0  0  0  0
 18 23  2  0  0  0  0
 18  6  1  0  0  0  0
 19 20  2  0  0  0  0
 20  8  1  0  0  0  0
 21 15  2  0  0  0  0
 22 12  2  0  0  0  0
 22  3  1  0  0  0  0
 23 22  1  0  0  0  0
 24 28  1  0  0  0  0
 26 29  1  0  0  0  0
 27 24  1  0  0  0  0
 28 25  2  0  0  0  0
 29 30  2  0  0  0  0
 30  5  1  0  0  0  0
 30 25  1  0  0  0  0
 31 29  1  0  0  0  0
 31 24  2  0  0  0  0
M  END
>  <MODEL>
1

>  <REMARK>
 VINA RESULT:     -10.0      0.000      0.000
  Name = 
  1 active torsions:
  status: ('A' for Active; 'I' for Inactive)
    1  A    between atoms: C_9  and  C_22
                            x       y       z     vdW  Elec       q    Type
                         _______ _______ _______ _____ _____    ______ ____

>  <TORSDO>
F 1

$$$$
=
 OpenBabel11052417503D

 31 35  0  0  1  0  0  0  0  0999 V2000
  185.6650  177.9760  141.1860 C   0  0  1  0  0  3  0  0  0  0  0  0
  187.4620  177.4120  144.5080 C   0  0  0  0  0  0  0  0  0  0  0  0
  186.5580  177.8250  145.5320 C   0  0  0  0  0  0  0  0  0  0  0  0
  191.8570  175.6180  142.2350 O   0  0  0  0  0  0  0  0  0  0  0  0
  192.0390  175.6580  143.4820 C   0  0  0  0  0  0  0  0  0  0  0  0
  184.4280  178.6520  146.2240 C   0  0  0  0  0  0  0  0  0  0  0  0
  187.1510  177.4230  143.1140 C   0  0  0  0  0  0  0  0  0  0  0  0
  186.5960  177.2370  140.3960 O   0  0  0  0  0  0  0  0  0  0  0  0
  185.2940  178.2570  145.2530 N   0  0  0  0  0  0  0  0  0  0  0  0
  189.6850  176.5520  143.9430 C   0  0  0  0  0  0  0  0  0  0  0  0
  184.3790  177.5410  140.9300 F   0  0  0  0  0  0  0  0  0  0  0  0
  188.2220  177.3610  147.2070 N   0  0  0  0  0  0  0  0  0  0  0  0
  183.1850  179.0710  145.8890 F   0  0  0  0  0  0  0  0  0  0  0  0
  189.3390  176.5470  142.6310 N   0  0  0  0  0  0  0  0  0  0  0  0
  188.7540  176.9730  144.9040 C   0  0  0  0  0  0  0  0  0  0  0  0
  190.9910  176.1140  144.3500 N   0  0  0  0  0  2  0  0  0  0  0  0
  185.9670  177.8630  142.6530 C   0  0  0  0  0  3  0  0  0  0  0  0
  184.8160  178.6240  147.5630 C   0  0  0  0  0  3  0  0  0  0  0  0
  188.1220  176.9550  142.1940 C   0  0  0  0  0  0  0  0  0  0  0  0
  187.8470  176.8570  140.8910 C   0  0  0  0  0  3  0  0  0  0  0  0
  189.1030  176.9600  146.2600 C   0  0  0  0  0  3  0  0  0  0  0  0
  186.9770  177.7850  146.8820 C   0  0  0  0  0  0  0  0  0  0  0  0
  186.0990  178.1870  147.8890 C   0  0  0  0  0  3  0  0  0  0  0  0
  195.8380  174.5180  145.1310 C   0  0  0  0  0  0  0  0  0  0  0  0
  194.4570  176.0580  143.8810 C   0  0  0  0  0  3  0  0  0  0  0  0
  192.4110  173.1790  145.0130 O   0  0  0  0  0  1  0  0  0  0  0  0
  197.0720  174.1650  145.6570 O   0  0  0  0  0  1  0  0  0  0  0  0
  195.6990  175.7050  144.4100 C   0  0  0  0  0  3  0  0  0  0  0  0
  193.4850  174.0350  144.7970 C   0  0  0  0  0  0  0  0  0  0  0  0
  193.3350  175.2350  144.0640 C   0  0  0  0  0  0  0  0  0  0  0  0
  194.7330  173.6870  145.3230 C   0  0  0  0  0  3  0  0  0  0  0  0
  1 11  1  1  0  0  0
  1 17  1  0  0  0  0
  2 15  2  0  0  0  0
  2  3  1  0  0  0  0
  3 22  1  0  0  0  0
  4  5  2  0  0  0  0
  5 30  1  0  0  0  0
  5 16  1  0  0  0  0
  6 18  2  0  0  0  0
  7  2  1  0  0  0  0
  8 20  1  0  0  0  0
  8  1  1  0  0  0  0
  9  3  2  0  0  0  0
  9  6  1  0  0  0  0
 10 16  1  0  0  0  0
 10 15  1  0  0  0  0
 13  6  1  0  0  0  0
 14 10  2  0  0  0  0
 15 21  1  0  0  0  0
 17  7  2  0  0  0  0
 18 23  1  0  0  0  0
 19 14  1  0  0  0  0
 19  7  1  0  0  0  0
 20 19  2  0  0  0  0
 21 12  2  0  0  0  0
 22 12  1  0  0  0  0
 22 23  2  0  0  0  0
 24 31  1  0  0  0  0
 24 27  1  0  0  0  0
 25 30  2  0  0  0  0
 25 28  1  0  0  0  0
 28 24  2  0  0  0  0
 29 26  1  0  0  0  0
 29 31  2  0  0  0  0
 30 29  1  0  0  0  0
M  END
>  <MODEL>
2

>  <REMARK>
 VINA RESULT:      -9.3      1.991      4.118
  Name = 
  1 active torsions:
  status: ('A' for Active; 'I' for Inactive)
    1  A    between atoms: C_9  and  C_22
                            x       y       z     vdW  Elec       q    Type
                         _______ _______ _______ _____ _____    ______ ____

>  <TORSDO>
F 1

$$$$
=
 OpenBabel11052417503D

 31 35  0  0  1  0  0  0  0  0999 V2000
  185.6220  178.0210  140.8870 C   0  0  1  0  0  3  0  0  0  0  0  0
  187.1120  176.8870  144.2160 C   0  0  0  0  0  0  0  0  0  0  0  0
  186.2440  177.3770  145.2360 C   0  0  0  0  0  0  0  0  0  0  0  0
  191.2340  174.5080  141.9670 O   0  0  0  0  0  0  0  0  0  0  0  0
  191.3540  174.4180  143.2190 C   0  0  0  0  0  0  0  0  0  0  0  0
  184.2600  178.5200  145.9130 C   0  0  0  0  0  0  0  0  0  0  0  0
  186.8820  177.0620  142.8160 C   0  0  0  0  0  0  0  0  0  0  0  0
  186.4470  177.1880  140.0730 O   0  0  0  0  0  0  0  0  0  0  0  0
  185.0930  178.0500  144.9470 N   0  0  0  0  0  0  0  0  0  0  0  0
  189.1750  175.6850  143.6640 C   0  0  0  0  0  0  0  0  0  0  0  0
  184.2940  177.8460  140.5470 F   0  0  0  0  0  0  0  0  0  0  0  0
  187.7080  176.4930  146.9270 N   0  0  0  0  0  0  0  0  0  0  0  0
  183.1310  179.1820  145.5690 F   0  0  0  0  0  0  0  0  0  0  0  0
  188.9030  175.8440  142.3440 N   0  0  0  0  0  0  0  0  0  0  0  0
  188.2840  176.1920  144.6220 C   0  0  0  0  0  0  0  0  0  0  0  0
  190.3590  174.9880  144.0820 N   0  0  0  0  0  2  0  0  0  0  0  0
  185.8210  177.7420  142.3490 C   0  0  0  0  0  3  0  0  0  0  0  0
  184.5660  178.3190  147.2590 C   0  0  0  0  0  3  0  0  0  0  0  0
  187.8030  176.4980  141.8980 C   0  0  0  0  0  0  0  0  0  0  0  0
  187.5830  176.5510  140.5820 C   0  0  0  0  0  3  0  0  0  0  0  0
  188.5530  176.0130  145.9830 C   0  0  0  0  0  3  0  0  0  0  0  0
  186.5770  177.1590  146.5930 C   0  0  0  0  0  0  0  0  0  0  0  0
  185.7320  177.6340  147.5960 C   0  0  0  0  0  3  0  0  0  0  0  0
  194.7970  172.4910  144.9150 C   0  0  0  0  0  0  0  0  0  0  0  0
  193.7620  174.3840  143.8260 C   0  0  0  0  0  3  0  0  0  0  0  0
  191.2370  171.7230  144.3800 O   0  0  0  0  0  1  0  0  0  0  0  0
  195.9190  171.8830  145.4600 O   0  0  0  0  0  1  0  0  0  0  0  0
  194.8910  173.7730  144.3730 C   0  0  0  0  0  3  0  0  0  0  0  0
  192.4360  172.4260  144.3640 C   0  0  0  0  0  0  0  0  0  0  0  0
  192.5220  173.7250  143.8120 C   0  0  0  0  0  0  0  0  0  0  0  0
  193.5720  171.8210  144.9100 C   0  0  0  0  0  3  0  0  0  0  0  0
  1 11  1  6  0  0  0
  1 17  1  0  0  0  0
  2 15  2  0  0  0  0
  2  3  1  0  0  0  0
  3 22  1  0  0  0  0
  4  5  2  0  0  0  0
  5 30  1  0  0  0  0
  5 16  1  0  0  0  0
  6 18  2  0  0  0  0
  7  2  1  0  0  0  0
  8 20  1  0  0  0  0
  8  1  1  0  0  0  0
  9  3  2  0  0  0  0
  9  6  1  0  0  0  0
 10 16  1  0  0  0  0
 10 15  1  0  0  0  0
 13  6  1  0  0  0  0
 14 10  2  0  0  0  0
 15 21  1  0  0  0  0
 17  7  2  0  0  0  0
 18 23  1  0  0  0  0
 19 14  1  0  0  0  0
 19  7  1  0  0  0  0
 20 19  2  0  0  0  0
 21 12  2  0  0  0  0
 22 12  1  0  0  0  0
 22 23  2  0  0  0  0
 24 27  1  0  0  0  0
 25 28  1  0  0  0  0
 28 24  2  0  0  0  0
 29 26  1  0  0  0  0
 29 31  2  0  0  0  0
 30 25  2  0  0  0  0
 30 29  1  0  0  0  0
 31 24  1  0  0  0  0
M  END
>  <MODEL>
3

>  <REMARK>
 VINA RESULT:      -9.1      2.270      4.236
  Name = 
  1 active torsions:
  status: ('A' for Active; 'I' for Inactive)
    1  A    between atoms: C_9  and  C_22
                            x       y       z     vdW  Elec       q    Type
                         _______ _______ _______ _____ _____    ______ ____

>  <TORSDO>
F 1

$$$$
=
 OpenBabel11052417503D

 31 35  0  0  1  0  0  0  0  0999 V2000
  190.2710  176.7910  147.5820 C   0  0  1  0  0  3  0  0  0  0  0  0
  187.9070  176.6070  144.5890 C   0  0  0  0  0  0  0  0  0  0  0  0
  186.7640  177.3920  144.9260 C   0  0  0  0  0  0  0  0  0  0  0  0
  191.0770  173.4410  141.8270 O   0  0  0  0  0  0  0  0  0  0  0  0
  190.0210  173.6270  141.1630 C   0  0  0  0  0  0  0  0  0  0  0  0
  185.5950  178.8340  146.4280 C   0  0  0  0  0  0  0  0  0  0  0  0
  189.0500  176.4540  145.4310 C   0  0  0  0  0  0  0  0  0  0  0  0
  191.3950  176.2270  146.9080 O   0  0  0  0  0  0  0  0  0  0  0  0
  186.6810  178.0840  146.0990 N   0  0  0  0  0  0  0  0  0  0  0  0
  188.9940  175.1450  142.9510 C   0  0  0  0  0  0  0  0  0  0  0  0
  190.6340  177.9740  148.1960 F   0  0  0  0  0  0  0  0  0  0  0  0
  185.7200  176.7940  142.8430 N   0  0  0  0  0  0  0  0  0  0  0  0
  185.5660  179.5000  147.6060 F   0  0  0  0  0  0  0  0  0  0  0  0
  190.0750  175.0520  143.7660 N   0  0  0  0  0  0  0  0  0  0  0  0
  187.8980  175.9290  143.3390 C   0  0  0  0  0  0  0  0  0  0  0  0
  188.9760  174.4590  141.6890 N   0  0  0  0  0  2  0  0  0  0  0  0
  189.1210  177.0270  146.6450 C   0  0  0  0  0  3  0  0  0  0  0  0
  184.5120  178.9190  145.5530 C   0  0  0  0  0  3  0  0  0  0  0  0
  190.1400  175.6750  144.9680 C   0  0  0  0  0  0  0  0  0  0  0  0
  191.2680  175.5780  145.6760 C   0  0  0  0  0  3  0  0  0  0  0  0
  186.7900  176.0430  142.4910 C   0  0  0  0  0  3  0  0  0  0  0  0
  185.6800  177.4630  144.0210 C   0  0  0  0  0  0  0  0  0  0  0  0
  184.5600  178.2280  144.3440 C   0  0  0  0  0  3  0  0  0  0  0  0
  189.4910  171.8740  137.2780 C   0  0  0  0  0  0  0  0  0  0  0  0
  189.4590  173.7910  138.7500 C   0  0  0  0  0  3  0  0  0  0  0  0
  190.4420  170.7650  140.6580 O   0  0  0  0  0  1  0  0  0  0  0  0
  189.3160  171.3240  136.0170 O   0  0  0  0  0  1  0  0  0  0  0  0
  189.2830  173.2390  137.4810 C   0  0  0  0  0  3  0  0  0  0  0  0
  190.0570  171.6080  139.6220 C   0  0  0  0  0  0  0  0  0  0  0  0
  189.8470  172.9910  139.8370 C   0  0  0  0  0  0  0  0  0  0  0  0
  189.8770  171.0630  138.3470 C   0  0  0  0  0  3  0  0  0  0  0  0
  1 11  1  6  0  0  0
  2  3  1  0  0  0  0
  2  7  1  0  0  0  0
  3  9  1  0  0  0  0
  5 16  1  0  0  0  0
  5  4  2  0  0  0  0
  6 13  1  0  0  0  0
  7 17  2  0  0  0  0
  8  1  1  0  0  0  0
  9  6  2  0  0  0  0
 10 15  1  0  0  0  0
 10 14  2  0  0  0  0
 12 22  1  0  0  0  0
 14 19  1  0  0  0  0
 15  2  2  0  0  0  0
 16 10  1  0  0  0  0
 17  1  1  0  0  0  0
 18  6  1  0  0  0  0
 19  7  1  0  0  0  0
 19 20  2  0  0  0  0
 20  8  1  0  0  0  0
 21 12  2  0  0  0  0
 21 15  1  0  0  0  0
 22 23  1  0  0  0  0
 22  3  2  0  0  0  0
 23 18  2  0  0  0  0
 24 28  2  0  0  0  0
 24 31  1  0  0  0  0
 25 30  2  0  0  0  0
 27 24  1  0  0  0  0
 28 25  1  0  0  0  0
 29 30  1  0  0  0  0
 29 26  1  0  0  0  0
 30  5  1  0  0  0  0
 31 29  2  0  0  0  0
M  END
>  <MODEL>
4

>  <REMARK>
 VINA RESULT:      -8.7      3.809      6.065
  Name = 
  1 active torsions:
  status: ('A' for Active; 'I' for Inactive)
    1  A    between atoms: C_9  and  C_22
                            x       y       z     vdW  Elec       q    Type
                         _______ _______ _______ _____ _____    ______ ____

>  <TORSDO>
F 1

$$$$
=
 OpenBabel11052417503D

 31 35  0  0  1  0  0  0  0  0999 V2000
  195.7410  174.2470  145.6430 C   0  0  1  0  0  3  0  0  0  0  0  0
  192.2470  173.2550  144.4610 C   0  0  0  0  0  0  0  0  0  0  0  0
  192.3900  172.0110  143.7770 C   0  0  0  0  0  0  0  0  0  0  0  0
  189.9680  177.5730  146.4260 O   0  0  0  0  0  0  0  0  0  0  0  0
  189.0900  176.8950  145.8270 C   0  0  0  0  0  0  0  0  0  0  0  0
  193.7310  170.1790  143.0390 C   0  0  0  0  0  0  0  0  0  0  0  0
  193.3240  173.9470  145.0960 C   0  0  0  0  0  0  0  0  0  0  0  0
  195.3030  175.2910  146.5130 O   0  0  0  0  0  0  0  0  0  0  0  0
  193.5880  171.3650  143.6890 N   0  0  0  0  0  0  0  0  0  0  0  0
  190.7520  175.0650  145.1610 C   0  0  0  0  0  0  0  0  0  0  0  0
  196.5880  173.3920  146.3200 F   0  0  0  0  0  0  0  0  0  0  0  0
  190.0460  172.0250  143.2350 N   0  0  0  0  0  0  0  0  0  0  0  0
  194.9450  169.5820  142.9830 F   0  0  0  0  0  0  0  0  0  0  0  0
  191.7950  175.6750  145.7790 N   0  0  0  0  0  0  0  0  0  0  0  0
  190.9540  173.8440  144.5010 C   0  0  0  0  0  0  0  0  0  0  0  0
  189.4430  175.6570  145.1930 N   0  0  0  0  0  2  0  0  0  0  0  0
  194.5840  173.4800  145.0690 C   0  0  0  0  0  3  0  0  0  0  0  0
  192.6300  169.5760  142.4320 C   0  0  0  0  0  3  0  0  0  0  0  0
  193.0490  175.1610  145.7740 C   0  0  0  0  0  0  0  0  0  0  0  0
  194.0010  175.7960  146.4620 C   0  0  0  0  0  3  0  0  0  0  0  0
  189.8770  173.2040  143.8780 C   0  0  0  0  0  3  0  0  0  0  0  0
  191.2570  171.4200  143.1710 C   0  0  0  0  0  0  0  0  0  0  0  0
  191.3880  170.2040  142.5010 C   0  0  0  0  0  3  0  0  0  0  0  0
  185.0110  178.2360  145.7660 C   0  0  0  0  0  0  0  0  0  0  0  0
  186.8950  177.2660  146.9270 C   0  0  0  0  0  3  0  0  0  0  0  0
  187.8470  178.0420  143.4270 O   0  0  0  0  0  1  0  0  0  0  0  0
  183.6920  178.6660  145.7630 O   0  0  0  0  0  1  0  0  0  0  0  0
  185.5670  177.6970  146.9260 C   0  0  0  0  0  3  0  0  0  0  0  0
  187.1140  177.9160  144.6010 C   0  0  0  0  0  0  0  0  0  0  0  0
  187.6870  177.3670  145.7720 C   0  0  0  0  0  0  0  0  0  0  0  0
  185.7830  178.3450  144.6080 C   0  0  0  0  0  3  0  0  0  0  0  0
  1 11  1  1  0  0  0
  1  8  1  0  0  0  0
  2 15  1  0  0  0  0
  2  7  1  0  0  0  0
  3  2  2  0  0  0  0
  5  4  2  0  0  0  0
  6  9  2  0  0  0  0
  7 19  1  0  0  0  0
  9  3  1  0  0  0  0
 10 16  1  0  0  0  0
 10 14  2  0  0  0  0
 12 21  1  0  0  0  0
 13  6  1  0  0  0  0
 15 10  1  0  0  0  0
 16  5  1  0  0  0  0
 17  7  2  0  0  0  0
 17  1  1  0  0  0  0
 18 23  2  0  0  0  0
 18  6  1  0  0  0  0
 19 14  1  0  0  0  0
 19 20  2  0  0  0  0
 20  8  1  0  0  0  0
 21 15  2  0  0  0  0
 22 12  2  0  0  0  0
 22  3  1  0  0  0  0
 23 22  1  0  0  0  0
 24 28  1  0  0  0  0
 26 29  1  0  0  0  0
 27 24  1  0  0  0  0
 28 25  2  0  0  0  0
 29 31  1  0  0  0  0
 29 30  2  0  0  0  0
 30  5  1  0  0  0  0
 30 25  1  0  0  0  0
 31 24  2  0  0  0  0
M  END
>  <MODEL>
5

>  <REMARK>
 VINA RESULT:      -8.2      4.553      8.695
  Name = 
  1 active torsions:
  status: ('A' for Active; 'I' for Inactive)
    1  A    between atoms: C_9  and  C_22
                            x       y       z     vdW  Elec       q    Type
                         _______ _______ _______ _____ _____    ______ ____

>  <TORSDO>
F 1

$$$$
=
 OpenBabel11052417503D

 31 35  0  0  1  0  0  0  0  0999 V2000
  186.3040  179.0260  143.2270 C   0  0  1  0  0  3  0  0  0  0  0  0
  188.8720  176.2070  143.4430 C   0  0  0  0  0  0  0  0  0  0  0  0
  189.4690  176.3020  144.7350 C   0  0  0  0  0  0  0  0  0  0  0  0
  187.9170  174.4840  138.5620 O   0  0  0  0  0  0  0  0  0  0  0  0
  188.8490  173.7920  139.0550 C   0  0  0  0  0  0  0  0  0  0  0  0
  189.6300  177.3200  146.8880 C   0  0  0  0  0  0  0  0  0  0  0  0
  187.8230  177.0610  142.9810 C   0  0  0  0  0  0  0  0  0  0  0  0
  185.6680  178.5450  142.0440 O   0  0  0  0  0  0  0  0  0  0  0  0
  189.0660  177.2250  145.6550 N   0  0  0  0  0  0  0  0  0  0  0  0
  188.8110  175.0640  141.2770 C   0  0  0  0  0  0  0  0  0  0  0  0
  185.3590  179.2730  144.2040 F   0  0  0  0  0  0  0  0  0  0  0  0
  190.9440  174.4770  144.2020 N   0  0  0  0  0  0  0  0  0  0  0  0
  189.1890  178.2560  147.7610 F   0  0  0  0  0  0  0  0  0  0  0  0
  187.7940  175.8740  140.8880 N   0  0  0  0  0  0  0  0  0  0  0  0
  189.3610  175.2070  142.5590 C   0  0  0  0  0  0  0  0  0  0  0  0
  189.3130  174.0530  140.3880 N   0  0  0  0  0  2  0  0  0  0  0  0
  187.3330  178.0580  143.7370 C   0  0  0  0  0  3  0  0  0  0  0  0
  190.6610  176.4560  147.2550 C   0  0  0  0  0  3  0  0  0  0  0  0
  187.2880  176.8450  141.6870 C   0  0  0  0  0  0  0  0  0  0  0  0
  186.2450  177.5530  141.2460 C   0  0  0  0  0  3  0  0  0  0  0  0
  190.3970  174.3600  142.9690 C   0  0  0  0  0  3  0  0  0  0  0  0
  190.5120  175.4120  145.0820 C   0  0  0  0  0  0  0  0  0  0  0  0
  191.1010  175.4980  146.3440 C   0  0  0  0  0  3  0  0  0  0  0  0
  190.6240  170.5730  136.8340 C   0  0  0  0  0  0  0  0  0  0  0  0
  189.3160  171.3800  138.7000 C   0  0  0  0  0  3  0  0  0  0  0  0
  190.4160  174.2420  136.6120 O   0  0  0  0  0  1  0  0  0  0  0  0
  191.1900  169.5210  136.1280 O   0  0  0  0  0  1  0  0  0  0  0  0
  189.8850  170.3210  137.9910 C   0  0  0  0  0  3  0  0  0  0  0  0
  190.2240  172.9510  137.0920 C   0  0  0  0  0  0  0  0  0  0  0  0
  189.4740  172.7060  138.2660 C   0  0  0  0  0  0  0  0  0  0  0  0
  190.7920  171.8850  136.3880 C   0  0  0  0  0  3  0  0  0  0  0  0
  1 17  1  0  0  0  0
  1 11  1  1  0  0  0
  2  3  1  0  0  0  0
  3 22  2  0  0  0  0
  3  9  1  0  0  0  0
  4  5  2  0  0  0  0
  5 16  1  0  0  0  0
  6 18  1  0  0  0  0
  6 13  1  0  0  0  0
  7  2  1  0  0  0  0
  7 17  2  0  0  0  0
  8  1  1  0  0  0  0
  9  6  2  0  0  0  0
 10 15  1  0  0  0  0
 12 22  1  0  0  0  0
 14 10  2  0  0  0  0
 14 19  1  0  0  0  0
 15 21  1  0  0  0  0
 15  2  2  0  0  0  0
 16 10  1  0  0  0  0
 19  7  1  0  0  0  0
 20 19  2  0  0  0  0
 20  8  1  0  0  0  0
 21 12  2  0  0  0  0
 22 23  1  0  0  0  0
 23 18  2  0  0  0  0
 24 28  1  0  0  0  0
 26 29  1  0  0  0  0
 27 24  1  0  0  0  0
 28 25  2  0  0  0  0
 29 30  2  0  0  0  0
 30 25  1  0  0  0  0
 30  5  1  0  0  0  0
 31 24  2  0  0  0  0
 31 29  1  0  0  0  0
M  END
>  <MODEL>
6

>  <REMARK>
 VINA RESULT:      -8.1      4.697      7.060
  Name = 
  1 active torsions:
  status: ('A' for Active; 'I' for Inactive)
    1  A    between atoms: C_9  and  C_22
                            x       y       z     vdW  Elec       q    Type
                         _______ _______ _______ _____ _____    ______ ____

>  <TORSDO>
F 1

$$$$
=
 OpenBabel11052417503D

 31 35  0  0  1  0  0  0  0  0999 V2000
  185.7060  177.6450  147.2410 C   0  0  1  0  0  3  0  0  0  0  0  0
  187.0020  176.9100  143.7240 C   0  0  0  0  0  0  0  0  0  0  0  0
  186.0040  177.3780  142.8190 C   0  0  0  0  0  0  0  0  0  0  0  0
  191.4450  174.6740  145.4450 O   0  0  0  0  0  0  0  0  0  0  0  0
  191.4210  174.5970  144.1870 C   0  0  0  0  0  0  0  0  0  0  0  0
  183.9200  178.4620  142.3920 C   0  0  0  0  0  0  0  0  0  0  0  0
  186.9180  177.0390  145.1450 C   0  0  0  0  0  0  0  0  0  0  0  0
  186.9440  177.3890  147.9030 O   0  0  0  0  0  0  0  0  0  0  0  0
  184.8750  178.0130  143.2490 N   0  0  0  0  0  0  0  0  0  0  0  0
  189.1600  175.7870  144.0160 C   0  0  0  0  0  0  0  0  0  0  0  0
  185.2080  178.8740  147.6290 F   0  0  0  0  0  0  0  0  0  0  0  0
  187.2910  176.5630  140.9570 N   0  0  0  0  0  0  0  0  0  0  0  0
  182.8200  179.0860  142.8740 F   0  0  0  0  0  0  0  0  0  0  0  0
  189.0580  175.9580  145.3580 N   0  0  0  0  0  0  0  0  0  0  0  0
  188.1450  176.2670  143.1750 C   0  0  0  0  0  0  0  0  0  0  0  0
  190.3100  175.1340  143.4530 N   0  0  0  0  0  2  0  0  0  0  0  0
  185.8530  177.5960  145.7470 C   0  0  0  0  0  3  0  0  0  0  0  0
  184.0730  178.2830  141.0170 C   0  0  0  0  0  3  0  0  0  0  0  0
  187.9920  176.5630  145.9380 C   0  0  0  0  0  0  0  0  0  0  0  0
  188.0050  176.7450  147.2610 C   0  0  0  0  0  3  0  0  0  0  0  0
  188.2580  176.1080  141.7890 C   0  0  0  0  0  3  0  0  0  0  0  0
  186.1840  177.1860  141.4300 C   0  0  0  0  0  0  0  0  0  0  0  0
  185.2130  177.6410  140.5380 C   0  0  0  0  0  3  0  0  0  0  0  0
  194.5930  172.6470  142.0460 C   0  0  0  0  0  0  0  0  0  0  0  0
  192.3580  172.6480  142.9670 C   0  0  0  0  0  3  0  0  0  0  0  0
  194.0050  175.8950  143.6760 O   0  0  0  0  0  1  0  0  0  0  0  0
  195.6070  172.0030  141.3530 O   0  0  0  0  0  1  0  0  0  0  0  0
  193.3770  171.9990  142.2690 C   0  0  0  0  0  3  0  0  0  0  0  0
  193.7700  174.6030  143.2210 C   0  0  0  0  0  0  0  0  0  0  0  0
  192.5350  173.9540  143.4530 C   0  0  0  0  0  0  0  0  0  0  0  0
  194.7870  173.9450  142.5220 C   0  0  0  0  0  3  0  0  0  0  0  0
  1 11  1  6  0  0  0
  1  8  1  0  0  0  0
  2  7  1  0  0  0  0
  3  9  1  0  0  0  0
  3  2  2  0  0  0  0
  5  4  2  0  0  0  0
  6 13  1  0  0  0  0
  6  9  2  0  0  0  0
  7 17  2  0  0  0  0
  7 19  1  0  0  0  0
 10 14  2  0  0  0  0
 12 22  2  0  0  0  0
 12 21  1  0  0  0  0
 14 19  1  0  0  0  0
 15  2  1  0  0  0  0
 15 10  1  0  0  0  0
 16 10  1  0  0  0  0
 16  5  1  0  0  0  0
 17  1  1  0  0  0  0
 18  6  1  0  0  0  0
 19 20  2  0  0  0  0
 20  8  1  0  0  0  0
 21 15  2  0  0  0  0
 22  3  1  0  0  0  0
 23 18  2  0  0  0  0
 23 22  1  0  0  0  0
 24 28  2  0  0  0  0
 24 31  1  0  0  0  0
 25 30  2  0  0  0  0
 27 24  1  0  0  0  0
 28 25  1  0  0  0  0
 29 30  1  0  0  0  0
 29 26  1  0  0  0  0
 30  5  1  0  0  0  0
 31 29  2  0  0  0  0
M  END
>  <MODEL>
7

>  <REMARK>
 VINA RESULT:      -7.9      1.992      2.432
  Name = 
  1 active torsions:
  status: ('A' for Active; 'I' for Inactive)
    1  A    between atoms: C_9  and  C_22
                            x       y       z     vdW  Elec       q    Type
                         _______ _______ _______ _____ _____    ______ ____

>  <TORSDO>
F 1

$$$$
=
 OpenBabel11052417503D

 31 35  0  0  1  0  0  0  0  0999 V2000
  193.0990  175.3740  145.7530 C   0  0  1  0  0  3  0  0  0  0  0  0
  190.3810  173.9340  143.4890 C   0  0  0  0  0  0  0  0  0  0  0  0
  190.8130  172.6250  143.1210 C   0  0  0  0  0  0  0  0  0  0  0  0
  187.4030  178.2680  143.7080 O   0  0  0  0  0  0  0  0  0  0  0  0
  186.8500  177.4420  142.9330 C   0  0  0  0  0  0  0  0  0  0  0  0
  192.3830  170.8310  143.2600 C   0  0  0  0  0  0  0  0  0  0  0  0
  191.1020  174.7960  144.3710 C   0  0  0  0  0  0  0  0  0  0  0  0
  192.3270  176.4850  146.2090 O   0  0  0  0  0  0  0  0  0  0  0  0
  191.9650  172.0780  143.6060 N   0  0  0  0  0  0  0  0  0  0  0  0
  188.6860  175.6880  143.2600 C   0  0  0  0  0  0  0  0  0  0  0  0
  193.6310  174.6960  146.8320 F   0  0  0  0  0  0  0  0  0  0  0  0
  188.8740  172.3630  141.7210 N   0  0  0  0  0  0  0  0  0  0  0  0
  193.5350  170.3390  143.7730 F   0  0  0  0  0  0  0  0  0  0  0  0
  189.3840  176.4630  144.1270 N   0  0  0  0  0  0  0  0  0  0  0  0
  189.1630  174.4100  142.9330 C   0  0  0  0  0  0  0  0  0  0  0  0
  187.4560  176.1640  142.6900 N   0  0  0  0  0  2  0  0  0  0  0  0
  192.2820  174.4400  144.9070 C   0  0  0  0  0  3  0  0  0  0  0  0
  191.6260  170.0590  142.3790 C   0  0  0  0  0  3  0  0  0  0  0  0
  190.5510  176.0630  144.6880 C   0  0  0  0  0  0  0  0  0  0  0  0
  191.1380  176.8650  145.5800 C   0  0  0  0  0  3  0  0  0  0  0  0
  188.4350  173.6010  142.0530 C   0  0  0  0  0  3  0  0  0  0  0  0
  190.0260  171.8620  142.2270 C   0  0  0  0  0  0  0  0  0  0  0  0
  190.4420  170.5810  141.8620 C   0  0  0  0  0  3  0  0  0  0  0  0
  183.0960  178.4240  141.0910 C   0  0  0  0  0  0  0  0  0  0  0  0
  184.4270  177.9720  143.0570 C   0  0  0  0  0  3  0  0  0  0  0  0
  186.5530  177.7380  140.0260 O   0  0  0  0  0  1  0  0  0  0  0  0
  181.8760  178.7430  140.5120 O   0  0  0  0  0  1  0  0  0  0  0  0
  183.1990  178.2920  142.4760 C   0  0  0  0  0  3  0  0  0  0  0  0
  185.4570  177.9160  140.8620 C   0  0  0  0  0  0  0  0  0  0  0  0
  185.5710  177.7790  142.2650 C   0  0  0  0  0  0  0  0  0  0  0  0
  184.2230  178.2360  140.2880 C   0  0  0  0  0  3  0  0  0  0  0  0
  1  8  1  0  0  0  0
  1 11  1  1  0  0  0
  2  7  1  0  0  0  0
  3  2  1  0  0  0  0
  3  9  1  0  0  0  0
  5  4  2  0  0  0  0
  6  9  2  0  0  0  0
  6 13  1  0  0  0  0
  7 19  1  0  0  0  0
  7 17  2  0  0  0  0
 10 14  2  0  0  0  0
 12 21  2  0  0  0  0
 12 22  1  0  0  0  0
 14 19  1  0  0  0  0
 15 10  1  0  0  0  0
 15  2  2  0  0  0  0
 16  5  1  0  0  0  0
 16 10  1  0  0  0  0
 17  1  1  0  0  0  0
 18  6  1  0  0  0  0
 19 20  2  0  0  0  0
 20  8  1  0  0  0  0
 21 15  1  0  0  0  0
 22  3  2  0  0  0  0
 23 22  1  0  0  0  0
 23 18  2  0  0  0  0
 24 28  1  0  0  0  0
 26 29  1  0  0  0  0
 27 24  1  0  0  0  0
 28 25  2  0  0  0  0
 29 30  2  0  0  0  0
 30  5  1  0  0  0  0
 30 25  1  0  0  0  0
 31 29  1  0  0  0  0
 31 24  2  0  0  0  0
M  END
>  <MODEL>
8

>  <REMARK>
 VINA RESULT:      -7.8      4.573      8.544
  Name = 
  1 active torsions:
  status: ('A' for Active; 'I' for Inactive)
    1  A    between atoms: C_9  and  C_22
                            x       y       z     vdW  Elec       q    Type
                         _______ _______ _______ _____ _____    ______ ____

>  <TORSDO>
F 1

$$$$
=
 OpenBabel11052417503D

 31 35  0  0  1  0  0  0  0  0999 V2000
  184.3720  177.9260  145.9550 C   0  0  1  0  0  3  0  0  0  0  0  0
  186.7070  176.6660  143.2080 C   0  0  0  0  0  0  0  0  0  0  0  0
  186.1480  177.1010  141.9700 C   0  0  0  0  0  0  0  0  0  0  0  0
  189.9800  174.2990  146.5830 O   0  0  0  0  0  0  0  0  0  0  0  0
  190.3830  174.0730  145.4100 C   0  0  0  0  0  0  0  0  0  0  0  0
  184.4860  178.2920  140.7380 C   0  0  0  0  0  0  0  0  0  0  0  0
  186.1530  176.9720  144.4890 C   0  0  0  0  0  0  0  0  0  0  0  0
  185.2650  177.6530  147.0340 O   0  0  0  0  0  0  0  0  0  0  0  0
  185.0240  177.8730  141.9140 N   0  0  0  0  0  0  0  0  0  0  0  0
  188.4810  175.4140  144.3440 C   0  0  0  0  0  0  0  0  0  0  0  0
  183.9220  179.2300  146.0340 F   0  0  0  0  0  0  0  0  0  0  0  0
  187.8920  175.9620  140.7660 N   0  0  0  0  0  0  0  0  0  0  0  0
  183.3690  179.0570  140.7410 F   0  0  0  0  0  0  0  0  0  0  0  0
  187.9410  175.7550  145.5420 N   0  0  0  0  0  0  0  0  0  0  0  0
  187.8830  175.8690  143.1590 C   0  0  0  0  0  0  0  0  0  0  0  0
  189.6670  174.6050  144.2860 N   0  0  0  0  0  2  0  0  0  0  0  0
  185.0210  177.6840  144.6220 C   0  0  0  0  0  3  0  0  0  0  0  0
  185.0820  177.9350  139.5280 C   0  0  0  0  0  3  0  0  0  0  0  0
  186.8220  176.5110  145.6500 C   0  0  0  0  0  0  0  0  0  0  0  0
  186.3970  176.8500  146.8700 C   0  0  0  0  0  3  0  0  0  0  0  0
  188.4490  175.5350  141.9240 C   0  0  0  0  0  3  0  0  0  0  0  0
  186.7730  176.7270  140.7580 C   0  0  0  0  0  0  0  0  0  0  0  0
  186.2310  177.1480  139.5430 C   0  0  0  0  0  3  0  0  0  0  0  0
  193.8450  171.6360  144.6880 C   0  0  0  0  0  0  0  0  0  0  0  0
  191.4790  172.0650  144.4440 C   0  0  0  0  0  3  0  0  0  0  0  0
  193.0510  174.7940  146.4050 O   0  0  0  0  0  1  0  0  0  0  0  0
  194.9530  170.8380  144.4450 O   0  0  0  0  0  1  0  0  0  0  0  0
  192.5930  171.2610  144.1990 C   0  0  0  0  0  3  0  0  0  0  0  0
  192.8700  173.6280  145.6710 C   0  0  0  0  0  0  0  0  0  0  0  0
  191.5970  173.2560  145.1790 C   0  0  0  0  0  0  0  0  0  0  0  0
  193.9810  172.8160  145.4220 C   0  0  0  0  0  3  0  0  0  0  0  0
  1 11  1  6  0  0  0
  1  8  1  0  0  0  0
  2  7  1  0  0  0  0
  3  2  2  0  0  0  0
  5  4  2  0  0  0  0
  6 13  1  0  0  0  0
  6  9  2  0  0  0  0
  7 17  2  0  0  0  0
  7 19  1  0  0  0  0
  9  3  1  0  0  0  0
 10 14  2  0  0  0  0
 12 21  1  0  0  0  0
 14 19  1  0  0  0  0
 15  2  1  0  0  0  0
 15 10  1  0  0  0  0
 16 10  1  0  0  0  0
 16  5  1  0  0  0  0
 17  1  1  0  0  0  0
 18 23  2  0  0  0  0
 18  6  1  0  0  0  0
 19 20  2  0  0  0  0
 20  8  1  0  0  0  0
 21 15  2  0  0  0  0
 22 12  2  0  0  0  0
 22  3  1  0  0  0  0
 23 22  1  0  0  0  0
 24 31  1  0  0  0  0
 25 30  2  0  0  0  0
 27 24  1  0  0  0  0
 28 25  1  0  0  0  0
 28 24  2  0  0  0  0
 29 26  1  0  0  0  0
 30  5  1  0  0  0  0
 30 29  1  0  0  0  0
 31 29  2  0  0  0  0
M  END
>  <MODEL>
9

>  <REMARK>
 VINA RESULT:      -7.8      1.521      1.969
  Name = 
  1 active torsions:
  status: ('A' for Active; 'I' for Inactive)
    1  A    between atoms: C_9  and  C_22
                            x       y       z     vdW  Elec       q    Type
                         _______ _______ _______ _____ _____    ______ ____

>  <TORSDO>
F 1

$$$$
