=
 OpenBabel11052417253D

 25 29  0  0  1  0  0  0  0  0999 V2000
  186.2350  178.1170  143.3590 C   0  0  0  0  0  0  0  0  0  0  0  0
  186.5070  178.0430  144.7290 C   0  0  0  0  0  0  0  0  0  0  0  0
  183.9490  178.8060  143.7710 C   0  0  0  0  0  3  0  0  0  0  0  0
  187.1350  177.9110  142.1810 C   0  0  2  0  0  3  0  0  0  0  0  0
  187.1920  176.4330  139.7170 C   0  0  0  0  0  3  0  0  0  0  0  0
  184.1900  178.7210  145.1530 C   0  0  0  0  0  3  0  0  0  0  0  0
  186.2220  178.1480  141.0530 N   0  0  0  0  0  0  0  0  0  0  0  0
  186.4220  177.5220  139.7830 C   0  0  0  0  0  3  0  0  0  0  0  0
  185.7030  178.2690  147.0190 C   0  0  0  0  0  0  0  0  0  0  0  0
  184.7200  178.5460  147.9140 F   0  0  0  0  0  0  0  0  0  0  0  0
  187.7700  177.6840  145.2090 C   0  0  0  0  0  3  0  0  0  0  0  0
  187.7770  175.8640  140.9500 C   0  0  0  0  0  3  0  0  0  0  0  0
  184.9950  178.5040  142.9030 C   0  0  0  0  0  0  0  0  0  0  0  0
  184.9460  178.5300  141.4880 N   0  0  0  0  0  2  0  0  0  0  0  0
  186.9690  177.9040  147.4860 C   0  0  0  0  0  3  0  0  0  0  0  0
  187.7100  176.5200  142.1150 C   0  0  0  0  0  3  0  0  0  0  0  0
  188.0030  177.6200  146.5860 C   0  0  0  0  0  0  0  0  0  0  0  0
  185.4600  178.3440  145.6410 C   0  0  0  0  0  0  0  0  0  0  0  0
  189.3420  177.2120  147.0950 C   0  0  0  0  0  2  0  0  0  0  0  0
  190.0020  176.2520  146.1220 C   0  0  2  0  0  3  0  0  0  0  0  0
  189.5800  174.8360  146.4680 C   0  0  2  0  0  3  0  0  0  0  0  0
  190.9510  175.3450  146.8750 C   0  0  0  0  0  2  0  0  0  0  0  0
  189.6950  173.9670  145.2590 C   0  0  0  0  0  0  0  0  0  0  0  0
  189.7920  174.5360  143.9950 O   0  0  0  0  0  0  0  0  0  0  0  0
  189.6620  172.7130  145.3770 O   0  0  0  0  0  1  0  0  0  0  0  0
  1  2  1  0  0  0  0
  2 11  2  0  0  0  0
  2 18  1  0  0  0  0
  3  6  2  0  0  0  0
  4 16  1  6  0  0  0
  4  1  1  0  0  0  0
  5  8  2  0  0  0  0
  5 12  1  0  0  0  0
  6 18  1  0  0  0  0
  7 14  1  0  0  0  0
  7  4  1  0  0  0  0
  8  7  1  0  0  0  0
  9 15  1  0  0  0  0
  9 10  1  0  0  0  0
 11 17  1  0  0  0  0
 12 16  2  0  0  0  0
 13  1  2  0  0  0  0
 13  3  1  0  0  0  0
 14 13  1  0  0  0  0
 17 19  1  0  0  0  0
 17 15  2  0  0  0  0
 18  9  2  0  0  0  0
 20 21  1  0  0  0  0
 20 22  1  0  0  0  0
 20 19  1  1  0  0  0
 21 23  1  6  0  0  0
 21 22  1  0  0  0  0
 23 25  1  0  0  0  0
 24 23  2  0  0  0  0
M  END
>  <MODEL>
1

>  <REMARK>
 VINA RESULT:      -8.1      0.000      0.000
  Name = 
  3 active torsions:
  status: ('A' for Active; 'I' for Inactive)
    1  A    between atoms: C_2  and  C_21
    2  A    between atoms: C_6  and  C_15
    3  A    between atoms: C_6  and  C_23
                            x       y       z     vdW  Elec       q    Type
                         _______ _______ _______ _____ _____    ______ ____

>  <TORSDO>
F 3

$$$$
=
 OpenBabel11052417253D

 25 29  0  0  1  0  0  0  0  0999 V2000
  186.6000  177.5330  143.6500 C   0  0  0  0  0  0  0  0  0  0  0  0
  187.0970  176.9630  144.8270 C   0  0  0  0  0  0  0  0  0  0  0  0
  184.5770  178.2620  144.7670 C   0  0  0  0  0  3  0  0  0  0  0  0
  187.2250  177.6590  142.2970 C   0  0  2  0  0  3  0  0  0  0  0  0
  186.5860  177.1290  139.5450 C   0  0  0  0  0  3  0  0  0  0  0  0
  185.0440  177.6800  145.9570 C   0  0  0  0  0  3  0  0  0  0  0  0
  186.1790  178.3620  141.5400 N   0  0  0  0  0  0  0  0  0  0  0  0
  186.0380  178.1980  140.1260 C   0  0  0  0  0  3  0  0  0  0  0  0
  186.7670  176.4600  147.1900 C   0  0  0  0  0  0  0  0  0  0  0  0
  186.0230  176.5070  148.3240 F   0  0  0  0  0  0  0  0  0  0  0  0
  188.3460  176.3350  144.8680 C   0  0  0  0  0  3  0  0  0  0  0  0
  187.2770  176.1120  140.3670 C   0  0  0  0  0  3  0  0  0  0  0  0
  185.3830  178.1770  143.6340 C   0  0  0  0  0  0  0  0  0  0  0  0
  185.0860  178.6960  142.3510 N   0  0  0  0  0  2  0  0  0  0  0  0
  188.0160  175.8320  147.2170 C   0  0  0  0  0  3  0  0  0  0  0  0
  187.5330  176.3270  141.6640 C   0  0  0  0  0  3  0  0  0  0  0  0
  188.8070  175.7750  146.0630 C   0  0  0  0  0  0  0  0  0  0  0  0
  186.2970  177.0330  145.9990 C   0  0  0  0  0  0  0  0  0  0  0  0
  190.1260  175.0840  146.0990 C   0  0  0  0  0  2  0  0  0  0  0  0
  191.2500  176.1020  146.1280 C   0  0  2  0  0  3  0  0  0  0  0  0
  192.5400  175.4000  146.5090 C   0  0  2  0  0  3  0  0  0  0  0  0
  191.7860  176.2220  147.5380 C   0  0  0  0  0  2  0  0  0  0  0  0
  193.7070  176.1740  145.9910 C   0  0  0  0  0  0  0  0  0  0  0  0
  193.5460  177.0570  144.9300 O   0  0  0  0  0  0  0  0  0  0  0  0
  194.8520  175.9980  146.4870 O   0  0  0  0  0  1  0  0  0  0  0  0
  1  2  1  0  0  0  0
  2 11  2  0  0  0  0
  2 18  1  0  0  0  0
  3  6  2  0  0  0  0
  4 16  1  6  0  0  0
  4  1  1  0  0  0  0
  5  8  2  0  0  0  0
  5 12  1  0  0  0  0
  6 18  1  0  0  0  0
  7  4  1  0  0  0  0
  7 14  1  0  0  0  0
  8  7  1  0  0  0  0
  9 15  1  0  0  0  0
  9 10  1  0  0  0  0
 11 17  1  0  0  0  0
 12 16  2  0  0  0  0
 13  1  2  0  0  0  0
 13  3  1  0  0  0  0
 14 13  1  0  0  0  0
 17 19  1  0  0  0  0
 17 15  2  0  0  0  0
 18  9  2  0  0  0  0
 20 19  1  1  0  0  0
 20 21  1  0  0  0  0
 20 22  1  0  0  0  0
 21 23  1  6  0  0  0
 21 22  1  0  0  0  0
 23 25  1  0  0  0  0
 24 23  2  0  0  0  0
M  END
>  <MODEL>
2

>  <REMARK>
 VINA RESULT:      -7.6      1.955      2.335
  Name = 
  3 active torsions:
  status: ('A' for Active; 'I' for Inactive)
    1  A    between atoms: C_2  and  C_21
    2  A    between atoms: C_6  and  C_15
    3  A    between atoms: C_6  and  C_23
                            x       y       z     vdW  Elec       q    Type
                         _______ _______ _______ _____ _____    ______ ____

>  <TORSDO>
F 3

$$$$
=
 OpenBabel11052417253D

 25 29  0  0  1  0  0  0  0  0999 V2000
  186.8430  177.7230  143.8920 C   0  0  0  0  0  0  0  0  0  0  0  0
  188.0020  177.3580  144.5850 C   0  0  0  0  0  0  0  0  0  0  0  0
  185.4290  177.0130  145.7280 C   0  0  0  0  0  3  0  0  0  0  0  0
  186.6790  178.3820  142.5590 C   0  0  2  0  0  3  0  0  0  0  0  0
  185.2180  178.0100  140.1120 C   0  0  0  0  0  3  0  0  0  0  0  0
  186.5760  176.6200  146.4380 C   0  0  0  0  0  3  0  0  0  0  0  0
  185.2170  178.4830  142.4440 N   0  0  0  0  0  0  0  0  0  0  0  0
  184.5630  178.4860  141.1730 C   0  0  0  0  0  3  0  0  0  0  0  0
  189.0070  176.4040  146.5910 C   0  0  0  0  0  0  0  0  0  0  0  0
  188.9040  175.8530  147.8270 F   0  0  0  0  0  0  0  0  0  0  0  0
  189.2740  177.5400  144.0350 C   0  0  0  0  0  3  0  0  0  0  0  0
  186.5750  177.4450  140.2720 C   0  0  0  0  0  3  0  0  0  0  0  0
  185.5980  177.5680  144.4620 C   0  0  0  0  0  0  0  0  0  0  0  0
  184.5720  178.0200  143.5990 N   0  0  0  0  0  2  0  0  0  0  0  0
  190.2730  176.5870  146.0280 C   0  0  0  0  0  3  0  0  0  0  0  0
  187.2440  177.5660  141.4260 C   0  0  0  0  0  3  0  0  0  0  0  0
  190.4090  177.1590  144.7580 C   0  0  0  0  0  0  0  0  0  0  0  0
  187.8620  176.7880  145.8790 C   0  0  0  0  0  0  0  0  0  0  0  0
  191.7620  177.3300  144.1580 C   0  0  0  0  0  2  0  0  0  0  0  0
  192.7210  176.3020  144.7280 C   0  0  2  0  0  3  0  0  0  0  0  0
  194.0350  176.3840  143.9740 C   0  0  2  0  0  3  0  0  0  0  0  0
  193.0470  175.2740  143.6670 C   0  0  0  0  0  2  0  0  0  0  0  0
  195.1410  175.8620  144.8310 C   0  0  0  0  0  0  0  0  0  0  0  0
  194.9620  175.7310  146.2030 O   0  0  0  0  0  1  0  0  0  0  0  0
  196.2570  175.5780  144.3190 O   0  0  0  0  0  0  0  0  0  0  0  0
  1 13  2  0  0  0  0
  1  2  1  0  0  0  0
  2 18  1  0  0  0  0
  3  6  2  0  0  0  0
  4 16  1  6  0  0  0
  4  1  1  0  0  0  0
  5 12  1  0  0  0  0
  5  8  2  0  0  0  0
  7  4  1  0  0  0  0
  7 14  1  0  0  0  0
  8  7  1  0  0  0  0
  9 10  1  0  0  0  0
 11  2  2  0  0  0  0
 11 17  1  0  0  0  0
 12 16  2  0  0  0  0
 13  3  1  0  0  0  0
 14 13  1  0  0  0  0
 15  9  1  0  0  0  0
 17 15  2  0  0  0  0
 18  6  1  0  0  0  0
 18  9  2  0  0  0  0
 19 17  1  0  0  0  0
 20 19  1  6  0  0  0
 21 20  1  0  0  0  0
 21 23  1  1  0  0  0
 22 21  1  0  0  0  0
 22 20  1  0  0  0  0
 23 24  1  0  0  0  0
 25 23  2  0  0  0  0
M  END
>  <MODEL>
3

>  <REMARK>
 VINA RESULT:      -7.5      2.841      3.563
  Name = 
  3 active torsions:
  status: ('A' for Active; 'I' for Inactive)
    1  A    between atoms: C_2  and  C_21
    2  A    between atoms: C_6  and  C_15
    3  A    between atoms: C_6  and  C_23
                            x       y       z     vdW  Elec       q    Type
                         _______ _______ _______ _____ _____    ______ ____

>  <TORSDO>
F 3

$$$$
=
 OpenBabel11052417253D

 25 29  0  0  1  0  0  0  0  0999 V2000
  189.3490  175.8800  145.0970 C   0  0  0  0  0  0  0  0  0  0  0  0
  188.2100  176.6120  145.4480 C   0  0  0  0  0  0  0  0  0  0  0  0
  189.3420  174.7070  147.2180 C   0  0  0  0  0  3  0  0  0  0  0  0
  190.1300  175.8570  143.8210 C   0  0  2  0  0  3  0  0  0  0  0  0
  192.8540  176.0790  142.9310 C   0  0  0  0  0  3  0  0  0  0  0  0
  188.2090  175.4440  147.6030 C   0  0  0  0  0  3  0  0  0  0  0  0
  191.1810  174.8750  144.1230 N   0  0  0  0  0  0  0  0  0  0  0  0
  192.4630  174.9320  143.4920 C   0  0  0  0  0  3  0  0  0  0  0  0
  186.4990  177.1200  147.1100 C   0  0  0  0  0  0  0  0  0  0  0  0
  185.9330  176.9350  148.3290 F   0  0  0  0  0  0  0  0  0  0  0  0
  187.6360  177.5400  144.5740 C   0  0  0  0  0  3  0  0  0  0  0  0
  191.9880  177.2750  143.0140 C   0  0  0  0  0  3  0  0  0  0  0  0
  189.8820  174.9450  145.9570 C   0  0  0  0  0  0  0  0  0  0  0  0
  191.0150  174.3090  145.3940 N   0  0  0  0  0  2  0  0  0  0  0  0
  185.9380  178.0490  146.2290 C   0  0  0  0  0  3  0  0  0  0  0  0
  190.7340  177.1930  143.4770 C   0  0  0  0  0  3  0  0  0  0  0  0
  186.4980  178.2540  144.9620 C   0  0  0  0  0  0  0  0  0  0  0  0
  187.6360  176.3920  146.7290 C   0  0  0  0  0  0  0  0  0  0  0  0
  185.9030  179.2620  144.0400 C   0  0  0  0  0  2  0  0  0  0  0  0
  185.6980  178.6560  142.6640 C   0  0  2  0  0  3  0  0  0  0  0  0
  184.2230  178.3530  142.4760 C   0  0  2  0  0  3  0  0  0  0  0  0
  185.1950  177.2360  142.8090 C   0  0  0  0  0  2  0  0  0  0  0  0
  183.8960  178.3300  141.0190 C   0  0  0  0  0  0  0  0  0  0  0  0
  182.6410  177.9150  140.5900 O   0  0  0  0  0  1  0  0  0  0  0  0
  184.7710  178.6460  140.1700 O   0  0  0  0  0  0  0  0  0  0  0  0
  1  2  2  0  0  0  0
  1 13  1  0  0  0  0
  2 18  1  0  0  0  0
  3  6  1  0  0  0  0
  4 16  1  1  0  0  0
  4  7  1  0  0  0  0
  4  1  1  0  0  0  0
  5 12  1  0  0  0  0
  5  8  2  0  0  0  0
  7 14  1  0  0  0  0
  8  7  1  0  0  0  0
  9 10  1  0  0  0  0
 11 17  2  0  0  0  0
 11  2  1  0  0  0  0
 12 16  2  0  0  0  0
 13  3  2  0  0  0  0
 14 13  1  0  0  0  0
 15  9  2  0  0  0  0
 17 15  1  0  0  0  0
 18  9  1  0  0  0  0
 18  6  2  0  0  0  0
 19 17  1  0  0  0  0
 20 22  1  0  0  0  0
 20 19  1  1  0  0  0
 21 23  1  6  0  0  0
 21 20  1  0  0  0  0
 21 22  1  0  0  0  0
 24 23  1  0  0  0  0
 25 23  2  0  0  0  0
M  END
>  <MODEL>
4

>  <REMARK>
 VINA RESULT:      -7.5      3.565      5.839
  Name = 
  3 active torsions:
  status: ('A' for Active; 'I' for Inactive)
    1  A    between atoms: C_2  and  C_21
    2  A    between atoms: C_6  and  C_15
    3  A    between atoms: C_6  and  C_23
                            x       y       z     vdW  Elec       q    Type
                         _______ _______ _______ _____ _____    ______ ____

>  <TORSDO>
F 3

$$$$
=
 OpenBabel11052417253D

 25 29  0  0  1  0  0  0  0  0999 V2000
  185.8920  177.2240  144.1550 C   0  0  0  0  0  0  0  0  0  0  0  0
  186.7700  176.6580  143.2250 C   0  0  0  0  0  0  0  0  0  0  0  0
  184.6140  178.3070  142.4030 C   0  0  0  0  0  3  0  0  0  0  0  0
  185.8220  177.0670  145.6410 C   0  0  2  0  0  3  0  0  0  0  0  0
  185.6700  178.7030  147.9990 C   0  0  0  0  0  3  0  0  0  0  0  0
  185.4940  177.7660  141.4500 C   0  0  0  0  0  3  0  0  0  0  0  0
  184.6730  177.9160  145.9860 N   0  0  0  0  0  0  0  0  0  0  0  0
  184.5670  178.5520  147.2630 C   0  0  0  0  0  3  0  0  0  0  0  0
  187.4410  176.3960  140.8960 C   0  0  0  0  0  0  0  0  0  0  0  0
  187.2770  176.6550  139.5740 F   0  0  0  0  0  0  0  0  0  0  0  0
  187.8260  175.8310  143.6210 C   0  0  0  0  0  3  0  0  0  0  0  0
  186.9790  178.2640  147.4700 C   0  0  0  0  0  3  0  0  0  0  0  0
  184.8380  178.0100  143.7460 C   0  0  0  0  0  0  0  0  0  0  0  0
  184.0670  178.4590  144.8450 N   0  0  0  0  0  2  0  0  0  0  0  0
  188.4950  175.5740  141.3060 C   0  0  0  0  0  3  0  0  0  0  0  0
  187.0650  177.5460  146.3430 C   0  0  0  0  0  3  0  0  0  0  0  0
  188.6840  175.2850  142.6620 C   0  0  0  0  0  0  0  0  0  0  0  0
  186.5690  176.9430  141.8480 C   0  0  0  0  0  0  0  0  0  0  0  0
  189.8240  174.4250  143.0890 C   0  0  0  0  0  2  0  0  0  0  0  0
  189.6730  174.0440  144.5500 C   0  0  2  0  0  3  0  0  0  0  0  0
  190.7210  174.7840  145.3600 C   0  0  2  0  0  3  0  0  0  0  0  0
  190.9190  173.3210  145.0120 C   0  0  0  0  0  2  0  0  0  0  0  0
  190.2610  174.9160  146.7760 C   0  0  0  0  0  0  0  0  0  0  0  0
  188.9420  174.6390  147.1120 O   0  0  0  0  0  0  0  0  0  0  0  0
  191.0590  175.3180  147.6640 O   0  0  0  0  0  1  0  0  0  0  0  0
  1  4  1  0  0  0  0
  2 11  1  0  0  0  0
  2  1  2  0  0  0  0
  3 13  2  0  0  0  0
  4  7  1  0  0  0  0
  4 16  1  1  0  0  0
  6 18  2  0  0  0  0
  6  3  1  0  0  0  0
  7  8  1  0  0  0  0
  8  5  2  0  0  0  0
  9 15  2  0  0  0  0
  9 18  1  0  0  0  0
 10  9  1  0  0  0  0
 12  5  1  0  0  0  0
 13  1  1  0  0  0  0
 13 14  1  0  0  0  0
 14  7  1  0  0  0  0
 15 17  1  0  0  0  0
 16 12  2  0  0  0  0
 17 19  1  0  0  0  0
 17 11  2  0  0  0  0
 18  2  1  0  0  0  0
 20 19  1  6  0  0  0
 20 22  1  0  0  0  0
 20 21  1  0  0  0  0
 21 23  1  1  0  0  0
 22 21  1  0  0  0  0
 23 24  2  0  0  0  0
 23 25  1  0  0  0  0
M  END
>  <MODEL>
5

>  <REMARK>
 VINA RESULT:      -7.4      2.566      4.765
  Name = 
  3 active torsions:
  status: ('A' for Active; 'I' for Inactive)
    1  A    between atoms: C_2  and  C_21
    2  A    between atoms: C_6  and  C_15
    3  A    between atoms: C_6  and  C_23
                            x       y       z     vdW  Elec       q    Type
                         _______ _______ _______ _____ _____    ______ ____

>  <TORSDO>
F 3

$$$$
=
 OpenBabel11052417253D

 25 29  0  0  1  0  0  0  0  0999 V2000
  185.7420  177.3030  143.9850 C   0  0  0  0  0  0  0  0  0  0  0  0
  186.5190  176.7400  142.9680 C   0  0  0  0  0  0  0  0  0  0  0  0
  184.5160  178.6660  142.4000 C   0  0  0  0  0  3  0  0  0  0  0  0
  185.7140  177.0160  145.4530 C   0  0  2  0  0  3  0  0  0  0  0  0
  185.8270  178.4340  147.9510 C   0  0  0  0  0  3  0  0  0  0  0  0
  185.2960  178.1300  141.3610 C   0  0  0  0  0  3  0  0  0  0  0  0
  184.6750  177.9420  145.9270 N   0  0  0  0  0  0  0  0  0  0  0  0
  184.6860  178.4640  147.2580 C   0  0  0  0  0  3  0  0  0  0  0  0
  187.0670  176.6280  140.5940 C   0  0  0  0  0  0  0  0  0  0  0  0
  186.8780  177.0230  139.3100 F   0  0  0  0  0  0  0  0  0  0  0  0
  187.4960  175.7780  143.2380 C   0  0  0  0  0  3  0  0  0  0  0  0
  187.0610  177.9160  147.3220 C   0  0  0  0  0  3  0  0  0  0  0  0
  184.7600  178.2250  143.6980 C   0  0  0  0  0  0  0  0  0  0  0  0
  184.0840  178.6460  144.8680 N   0  0  0  0  0  2  0  0  0  0  0  0
  188.0440  175.6700  140.8780 C   0  0  0  0  0  3  0  0  0  0  0  0
  187.0270  177.3010  146.1330 C   0  0  0  0  0  3  0  0  0  0  0  0
  188.2550  175.2390  142.1930 C   0  0  0  0  0  0  0  0  0  0  0  0
  186.2940  177.1690  141.6320 C   0  0  0  0  0  0  0  0  0  0  0  0
  189.3140  174.2330  142.4870 C   0  0  0  0  0  2  0  0  0  0  0  0
  190.0690  174.6200  143.7450 C   0  0  2  0  0  3  0  0  0  0  0  0
  191.1110  175.6640  143.3900 C   0  0  2  0  0  3  0  0  0  0  0  0
  191.5220  174.2190  143.6040 C   0  0  0  0  0  2  0  0  0  0  0  0
  191.4440  176.4740  144.6000 C   0  0  0  0  0  0  0  0  0  0  0  0
  190.5590  176.5300  145.6700 O   0  0  0  0  0  1  0  0  0  0  0  0
  192.5090  177.1450  144.6380 O   0  0  0  0  0  0  0  0  0  0  0  0
  1  4  1  0  0  0  0
  2 11  1  0  0  0  0
  2  1  2  0  0  0  0
  3 13  2  0  0  0  0
  4  7  1  0  0  0  0
  4 16  1  1  0  0  0
  6 18  2  0  0  0  0
  6  3  1  0  0  0  0
  7  8  1  0  0  0  0
  8  5  2  0  0  0  0
  9 15  2  0  0  0  0
  9 18  1  0  0  0  0
 10  9  1  0  0  0  0
 12  5  1  0  0  0  0
 13  1  1  0  0  0  0
 13 14  1  0  0  0  0
 14  7  1  0  0  0  0
 15 17  1  0  0  0  0
 16 12  2  0  0  0  0
 17 19  1  0  0  0  0
 17 11  2  0  0  0  0
 18  2  1  0  0  0  0
 20 19  1  6  0  0  0
 21 22  1  0  0  0  0
 21 20  1  0  0  0  0
 21 23  1  1  0  0  0
 22 20  1  0  0  0  0
 23 25  2  0  0  0  0
 23 24  1  0  0  0  0
M  END
>  <MODEL>
6

>  <REMARK>
 VINA RESULT:      -7.4      2.708      4.936
  Name = 
  3 active torsions:
  status: ('A' for Active; 'I' for Inactive)
    1  A    between atoms: C_2  and  C_21
    2  A    between atoms: C_6  and  C_15
    3  A    between atoms: C_6  and  C_23
                            x       y       z     vdW  Elec       q    Type
                         _______ _______ _______ _____ _____    ______ ____

>  <TORSDO>
F 3

$$$$
=
 OpenBabel11052417253D

 25 29  0  0  1  0  0  0  0  0999 V2000
  190.4500  176.2760  143.9840 C   0  0  0  0  0  0  0  0  0  0  0  0
  189.3760  176.4310  143.1010 C   0  0  0  0  0  0  0  0  0  0  0  0
  191.3080  174.3880  142.7310 C   0  0  0  0  0  3  0  0  0  0  0  0
  190.8540  177.0950  145.1680 C   0  0  2  0  0  3  0  0  0  0  0  0
  191.5590  176.7290  147.9310 C   0  0  0  0  0  3  0  0  0  0  0  0
  190.2280  174.5090  141.8400 C   0  0  0  0  0  3  0  0  0  0  0  0
  192.0620  176.3950  145.6290 N   0  0  0  0  0  0  0  0  0  0  0  0
  192.4630  176.4150  147.0010 C   0  0  0  0  0  3  0  0  0  0  0  0
  188.1900  175.6500  141.1190 C   0  0  0  0  0  0  0  0  0  0  0  0
  188.0520  174.7940  140.0740 F   0  0  0  0  0  0  0  0  0  0  0  0
  188.4290  177.4450  143.2670 C   0  0  0  0  0  3  0  0  0  0  0  0
  190.1580  176.9990  147.5400 C   0  0  0  0  0  3  0  0  0  0  0  0
  191.3930  175.2920  143.7870 C   0  0  0  0  0  0  0  0  0  0  0  0
  192.3990  175.3300  144.7820 N   0  0  0  0  0  2  0  0  0  0  0  0
  187.2470  176.6660  141.2990 C   0  0  0  0  0  3  0  0  0  0  0  0
  189.8090  177.1190  146.2530 C   0  0  0  0  0  3  0  0  0  0  0  0
  187.3680  177.5660  142.3640 C   0  0  0  0  0  0  0  0  0  0  0  0
  189.2620  175.5230  142.0130 C   0  0  0  0  0  0  0  0  0  0  0  0
  186.3450  178.6320  142.5580 C   0  0  0  0  0  2  0  0  0  0  0  0
  186.2320  178.9870  144.0290 C   0  0  2  0  0  3  0  0  0  0  0  0
  185.0030  178.3090  144.6050 C   0  0  2  0  0  3  0  0  0  0  0  0
  184.9670  179.7860  144.2590 C   0  0  0  0  0  2  0  0  0  0  0  0
  185.1690  178.1320  146.0780 C   0  0  0  0  0  0  0  0  0  0  0  0
  184.0690  178.2220  146.9220 O   0  0  0  0  0  1  0  0  0  0  0  0
  186.3150  177.9430  146.5670 O   0  0  0  0  0  0  0  0  0  0  0  0
  1  4  1  0  0  0  0
  2 11  1  0  0  0  0
  2  1  2  0  0  0  0
  3 13  2  0  0  0  0
  4  7  1  0  0  0  0
  4 16  1  1  0  0  0
  6 18  2  0  0  0  0
  6  3  1  0  0  0  0
  7  8  1  0  0  0  0
  8  5  2  0  0  0  0
  9 15  2  0  0  0  0
  9 18  1  0  0  0  0
 10  9  1  0  0  0  0
 12  5  1  0  0  0  0
 13  1  1  0  0  0  0
 13 14  1  0  0  0  0
 14  7  1  0  0  0  0
 15 17  1  0  0  0  0
 16 12  2  0  0  0  0
 17 19  1  0  0  0  0
 17 11  2  0  0  0  0
 18  2  1  0  0  0  0
 20 19  1  6  0  0  0
 20 22  1  0  0  0  0
 20 21  1  0  0  0  0
 21 23  1  1  0  0  0
 22 21  1  0  0  0  0
 23 25  2  0  0  0  0
 23 24  1  0  0  0  0
M  END
>  <MODEL>
7

>  <REMARK>
 VINA RESULT:      -7.3      3.727      6.801
  Name = 
  3 active torsions:
  status: ('A' for Active; 'I' for Inactive)
    1  A    between atoms: C_2  and  C_21
    2  A    between atoms: C_6  and  C_15
    3  A    between atoms: C_6  and  C_23
                            x       y       z     vdW  Elec       q    Type
                         _______ _______ _______ _____ _____    ______ ____

>  <TORSDO>
F 3

$$$$
=
 OpenBabel11052417253D

 25 29  0  0  1  0  0  0  0  0999 V2000
  186.7400  177.8800  143.8370 C   0  0  0  0  0  0  0  0  0  0  0  0
  187.9520  177.6000  144.4760 C   0  0  0  0  0  0  0  0  0  0  0  0
  185.4650  177.1040  145.7460 C   0  0  0  0  0  3  0  0  0  0  0  0
  186.4700  178.5090  142.5060 C   0  0  2  0  0  3  0  0  0  0  0  0
  184.9230  178.0100  140.1360 C   0  0  0  0  0  3  0  0  0  0  0  0
  186.6680  176.7950  146.4030 C   0  0  0  0  0  3  0  0  0  0  0  0
  185.0010  178.5130  142.4610 N   0  0  0  0  0  0  0  0  0  0  0  0
  184.2890  178.4560  141.2220 C   0  0  0  0  0  3  0  0  0  0  0  0
  189.1120  176.7410  146.4410 C   0  0  0  0  0  0  0  0  0  0  0  0
  189.1040  176.2010  147.6870 F   0  0  0  0  0  0  0  0  0  0  0  0
  189.1820  177.8580  143.8640 C   0  0  0  0  0  3  0  0  0  0  0  0
  186.3200  177.5370  140.2370 C   0  0  0  0  0  3  0  0  0  0  0  0
  185.5370  177.6510  144.4670 C   0  0  0  0  0  0  0  0  0  0  0  0
  184.4430  178.0240  143.6500 N   0  0  0  0  0  2  0  0  0  0  0  0
  190.3350  176.9990  145.8160 C   0  0  0  0  0  3  0  0  0  0  0  0
  187.0340  177.7160  141.3560 C   0  0  0  0  0  3  0  0  0  0  0  0
  190.3720  177.5620  144.5350 C   0  0  0  0  0  0  0  0  0  0  0  0
  187.9110  177.0400  145.7820 C   0  0  0  0  0  0  0  0  0  0  0  0
  191.6820  177.8130  143.8700 C   0  0  0  0  0  2  0  0  0  0  0  0
  191.9550  176.7420  142.8310 C   0  0  2  0  0  3  0  0  0  0  0  0
  192.1750  175.4180  143.5370 C   0  0  2  0  0  3  0  0  0  0  0  0
  193.3590  176.2090  143.0140 C   0  0  0  0  0  2  0  0  0  0  0  0
  191.8600  174.2930  142.6070 C   0  0  0  0  0  0  0  0  0  0  0  0
  192.3520  173.0180  142.8590 O   0  0  0  0  0  1  0  0  0  0  0  0
  191.1820  174.5040  141.5660 O   0  0  0  0  0  0  0  0  0  0  0  0
  1 13  2  0  0  0  0
  1  2  1  0  0  0  0
  2 18  1  0  0  0  0
  3  6  2  0  0  0  0
  4 16  1  6  0  0  0
  4  1  1  0  0  0  0
  5 12  1  0  0  0  0
  5  8  2  0  0  0  0
  7  4  1  0  0  0  0
  7 14  1  0  0  0  0
  8  7  1  0  0  0  0
  9 10  1  0  0  0  0
 11  2  2  0  0  0  0
 11 17  1  0  0  0  0
 12 16  2  0  0  0  0
 13  3  1  0  0  0  0
 14 13  1  0  0  0  0
 15  9  1  0  0  0  0
 17 15  2  0  0  0  0
 18  6  1  0  0  0  0
 18  9  2  0  0  0  0
 19 17  1  0  0  0  0
 20 22  1  0  0  0  0
 20 21  1  0  0  0  0
 20 19  1  1  0  0  0
 21 23  1  6  0  0  0
 22 21  1  0  0  0  0
 23 24  1  0  0  0  0
 25 23  2  0  0  0  0
M  END
>  <MODEL>
8

>  <REMARK>
 VINA RESULT:      -7.2      2.389      3.133
  Name = 
  3 active torsions:
  status: ('A' for Active; 'I' for Inactive)
    1  A    between atoms: C_2  and  C_21
    2  A    between atoms: C_6  and  C_15
    3  A    between atoms: C_6  and  C_23
                            x       y       z     vdW  Elec       q    Type
                         _______ _______ _______ _____ _____    ______ ____

>  <TORSDO>
F 3

$$$$
=
 OpenBabel11052417253D

 25 29  0  0  1  0  0  0  0  0999 V2000
  190.5340  173.9800  144.7900 C   0  0  0  0  0  0  0  0  0  0  0  0
  190.3230  175.0650  145.6470 C   0  0  0  0  0  0  0  0  0  0  0  0
  192.8580  173.8100  145.4530 C   0  0  0  0  0  3  0  0  0  0  0  0
  189.5750  173.2380  143.9130 C   0  0  2  0  0  3  0  0  0  0  0  0
  189.3560  172.3500  141.1880 C   0  0  0  0  0  3  0  0  0  0  0  0
  192.6780  174.9100  146.3070 C   0  0  0  0  0  3  0  0  0  0  0  0
  190.4420  172.2200  143.3020 N   0  0  0  0  0  0  0  0  0  0  0  0
  190.1630  171.6760  142.0100 C   0  0  0  0  0  3  0  0  0  0  0  0
  191.2380  176.6340  147.2720 C   0  0  0  0  0  0  0  0  0  0  0  0
  192.2690  177.1150  148.0130 F   0  0  0  0  0  0  0  0  0  0  0  0
  189.0720  175.6790  145.7600 C   0  0  0  0  0  3  0  0  0  0  0  0
  188.8090  173.6610  141.5990 C   0  0  0  0  0  3  0  0  0  0  0  0
  191.7640  173.3660  144.7140 C   0  0  0  0  0  0  0  0  0  0  0  0
  191.7490  172.2810  143.8050 N   0  0  0  0  0  2  0  0  0  0  0  0
  189.9830  177.2420  147.3730 C   0  0  0  0  0  3  0  0  0  0  0  0
  188.9520  174.1090  142.8530 C   0  0  0  0  0  3  0  0  0  0  0  0
  188.9010  176.7630  146.6260 C   0  0  0  0  0  0  0  0  0  0  0  0
  191.4200  175.5420  146.4130 C   0  0  0  0  0  0  0  0  0  0  0  0
  187.5730  177.4310  146.7260 C   0  0  0  0  0  2  0  0  0  0  0  0
  186.5960  176.8050  145.7480 C   0  0  2  0  0  3  0  0  0  0  0  0
  185.9530  177.9040  144.9240 C   0  0  2  0  0  3  0  0  0  0  0  0
  185.1920  177.2670  146.0720 C   0  0  0  0  0  2  0  0  0  0  0  0
  185.4780  177.3460  143.6230 C   0  0  0  0  0  0  0  0  0  0  0  0
  184.4070  177.9320  142.9590 O   0  0  0  0  0  0  0  0  0  0  0  0
  186.0190  176.3150  143.1430 O   0  0  0  0  0  1  0  0  0  0  0  0
  1  2  1  0  0  0  0
  2 11  2  0  0  0  0
  2 18  1  0  0  0  0
  3  6  2  0  0  0  0
  4 16  1  6  0  0  0
  4  1  1  0  0  0  0
  5 12  1  0  0  0  0
  5  8  2  0  0  0  0
  6 18  1  0  0  0  0
  7 14  1  0  0  0  0
  7  4  1  0  0  0  0
  8  7  1  0  0  0  0
  9 15  1  0  0  0  0
  9 10  1  0  0  0  0
 11 17  1  0  0  0  0
 12 16  2  0  0  0  0
 13  1  2  0  0  0  0
 13  3  1  0  0  0  0
 14 13  1  0  0  0  0
 17 19  1  0  0  0  0
 17 15  2  0  0  0  0
 18  9  2  0  0  0  0
 20 22  1  0  0  0  0
 20 19  1  1  0  0  0
 21 23  1  6  0  0  0
 21 20  1  0  0  0  0
 21 22  1  0  0  0  0
 24 23  2  0  0  0  0
 25 23  1  0  0  0  0
M  END
>  <MODEL>
9

>  <REMARK>
 VINA RESULT:      -7.2      3.603      6.128
  Name = 
  3 active torsions:
  status: ('A' for Active; 'I' for Inactive)
    1  A    between atoms: C_2  and  C_21
    2  A    between atoms: C_6  and  C_15
    3  A    between atoms: C_6  and  C_23
                            x       y       z     vdW  Elec       q    Type
                         _______ _______ _______ _____ _____    ______ ____

>  <TORSDO>
F 3

$$$$
