=
 OpenBabel11052421353D

 32 36  0  0  1  0  0  0  0  0999 V2000
  185.2350  178.2220  144.7490 C   0  0  2  0  0  3  0  0  0  0  0  0
  189.2420  177.3800  143.2470 C   0  0  0  0  0  0  0  0  0  0  0  0
  190.9470  176.7900  147.8970 C   0  0  0  0  0  3  0  0  0  0  0  0
  192.1520  176.5980  147.3600 C   0  0  0  0  0  3  0  0  0  0  0  0
  186.7720  177.6560  142.8380 C   0  0  1  0  0  3  0  0  0  0  0  0
  187.5670  177.5140  145.2140 C   0  0  0  0  0  2  0  0  0  0  0  0
  185.0890  179.0230  145.8680 F   0  0  0  0  0  0  0  0  0  0  0  0
  189.7030  176.9550  147.0660 C   0  0  0  0  0  3  0  0  0  0  0  0
  188.9810  177.3510  144.7150 C   0  0  0  0  0  0  0  0  0  0  0  0
  189.9740  177.0630  145.5810 C   0  0  0  0  0  0  0  0  0  0  0  0
  191.5440  176.7790  143.6330 N   0  0  0  0  0  0  0  0  0  0  0  0
  184.5750  177.9330  142.3750 C   0  0  1  0  0  3  0  0  0  0  0  0
  186.6790  178.2860  144.2420 C   0  0  2  0  0  3  0  0  0  0  0  0
  185.8710  178.2820  141.9560 O   0  0  0  0  0  0  0  0  0  0  0  0
  184.2460  178.6610  143.6760 C   0  0  0  0  0  2  0  0  0  0  0  0
  192.3470  176.5700  145.9040 C   0  0  0  0  0  3  0  0  0  0  0  0
  191.3360  176.7860  145.0570 C   0  0  1  0  0  3  0  0  0  0  0  0
  188.1830  177.8250  142.2850 C   0  0  0  0  0  2  0  0  0  0  0  0
  190.4570  177.1200  142.7630 C   0  0  0  0  0  3  0  0  0  0  0  0
  183.5830  178.2910  141.3200 C   0  0  0  0  0  0  0  0  0  0  0  0
  182.1930  178.2910  141.6380 N   0  0  0  0  0  2  0  0  0  0  0  0
  183.9700  178.6050  140.1630 O   0  0  0  0  0  0  0  0  0  0  0  0
  181.2690  178.6170  140.7040 O   0  0  0  0  0  1  0  0  0  0  0  0
  192.8250  176.4160  143.0360 C   0  0  0  0  0  2  0  0  0  0  0  0
  190.8660  171.7180  141.7120 S   0  0  0  0  0  1  0  0  0  0  0  0
  192.0000  174.1260  142.4480 C   0  0  0  0  0  3  0  0  0  0  0  0
  194.1280  174.3320  143.5910 C   0  0  0  0  0  0  0  0  0  0  0  0
  194.2620  172.9410  143.5830 C   0  0  0  0  0  3  0  0  0  0  0  0
  193.2680  172.1420  143.0100 C   0  0  0  0  0  3  0  0  0  0  0  0
  192.1380  172.7360  142.4430 C   0  0  0  0  0  0  0  0  0  0  0  0
  195.1070  175.0910  144.1430 F   0  0  0  0  0  0  0  0  0  0  0  0
  192.9930  174.9300  143.0220 C   0  0  0  0  0  0  0  0  0  0  0  0
  1  7  1  1  0  0  0
  2  9  1  0  0  0  0
  4  3  1  0  0  0  0
  5 18  1  6  0  0  0
  5 13  1  0  0  0  0
  8  3  2  0  0  0  0
  9  6  1  0  0  0  0
  9 10  2  0  0  0  0
 10  8  1  0  0  0  0
 11 17  1  0  0  0  0
 12 20  1  6  0  0  0
 12 15  1  0  0  0  0
 13  1  1  0  0  0  0
 13  6  1  1  0  0  0
 14 12  1  0  0  0  0
 14  5  1  0  0  0  0
 15  1  1  0  0  0  0
 16  4  2  0  0  0  0
 17 10  1  0  0  0  0
 17 16  1  1  0  0  0
 18  2  1  0  0  0  0
 19  2  2  0  0  0  0
 19 11  1  0  0  0  0
 20 21  1  0  0  0  0
 22 20  2  0  0  0  0
 23 21  1  0  0  0  0
 24 11  1  0  0  0  0
 25 30  1  0  0  0  0
 26 32  1  0  0  0  0
 27 31  1  0  0  0  0
 28 27  1  0  0  0  0
 29 28  2  0  0  0  0
 30 26  2  0  0  0  0
 30 29  1  0  0  0  0
 32 24  1  0  0  0  0
 32 27  2  0  0  0  0
M  END
>  <MODEL>
1

>  <REMARK>
 VINA RESULT:      -8.7      0.000      0.000
  Name = 
  3 active torsions:
  status: ('A' for Active; 'I' for Inactive)
    1  A    between atoms: C_1  and  C_19
    2  A    between atoms: N_16  and  C_27
    3  A    between atoms: C_27  and  C_32
                            x       y       z     vdW  Elec       q    Type
                         _______ _______ _______ _____ _____    ______ ____

>  <TORSDO>
F 3

$$$$
=
 OpenBabel11052421353D

 32 36  0  0  1  0  0  0  0  0999 V2000
  185.5240  178.3730  144.7830 C   0  0  2  0  0  3  0  0  0  0  0  0
  189.4360  177.1450  143.2990 C   0  0  0  0  0  0  0  0  0  0  0  0
  191.1820  176.7960  147.9590 C   0  0  0  0  0  3  0  0  0  0  0  0
  192.3620  176.4810  147.4230 C   0  0  0  0  0  3  0  0  0  0  0  0
  186.9840  177.5580  142.9020 C   0  0  1  0  0  3  0  0  0  0  0  0
  187.8110  177.5440  145.2710 C   0  0  0  0  0  2  0  0  0  0  0  0
  185.4530  179.2650  145.8380 F   0  0  0  0  0  0  0  0  0  0  0  0
  189.9370  176.9820  147.1330 C   0  0  0  0  0  3  0  0  0  0  0  0
  189.2010  177.2460  144.7690 C   0  0  0  0  0  0  0  0  0  0  0  0
  190.1880  176.9570  145.6410 C   0  0  0  0  0  0  0  0  0  0  0  0
  191.6990  176.4180  143.7010 N   0  0  0  0  0  0  0  0  0  0  0  0
  184.8030  177.9490  142.4480 C   0  0  1  0  0  3  0  0  0  0  0  0
  186.9590  178.2980  144.2540 C   0  0  2  0  0  3  0  0  0  0  0  0
  186.1120  178.1750  141.9860 O   0  0  0  0  0  0  0  0  0  0  0  0
  184.5470  178.7960  143.6920 C   0  0  0  0  0  2  0  0  0  0  0  0
  192.5280  176.3280  145.9710 C   0  0  0  0  0  3  0  0  0  0  0  0
  191.5180  176.5470  145.1230 C   0  0  1  0  0  3  0  0  0  0  0  0
  188.3930  177.5870  142.3190 C   0  0  0  0  0  2  0  0  0  0  0  0
  190.6230  176.7650  142.8210 C   0  0  0  0  0  3  0  0  0  0  0  0
  183.8190  178.2930  141.3810 C   0  0  0  0  0  0  0  0  0  0  0  0
  182.4240  178.2470  141.6740 N   0  0  0  0  0  2  0  0  0  0  0  0
  184.2150  178.6350  140.2350 O   0  0  0  0  0  0  0  0  0  0  0  0
  181.5060  178.5600  140.7300 O   0  0  0  0  0  1  0  0  0  0  0  0
  192.9420  175.9220  143.1170 C   0  0  0  0  0  2  0  0  0  0  0  0
  192.5760  173.4180  138.5070 S   0  0  0  0  0  1  0  0  0  0  0  0
  192.7510  174.6210  140.9870 C   0  0  0  0  0  3  0  0  0  0  0  0
  192.4120  173.4590  143.0880 C   0  0  0  0  0  0  0  0  0  0  0  0
  192.1750  172.2730  142.3880 C   0  0  0  0  0  3  0  0  0  0  0  0
  192.2250  172.2590  140.9910 C   0  0  0  0  0  3  0  0  0  0  0  0
  192.5130  173.4330  140.2920 C   0  0  0  0  0  0  0  0  0  0  0  0
  192.3680  173.4520  144.4430 F   0  0  0  0  0  0  0  0  0  0  0  0
  192.7020  174.6400  142.3860 C   0  0  0  0  0  0  0  0  0  0  0  0
  1  7  1  1  0  0  0
  2  9  1  0  0  0  0
  4  3  1  0  0  0  0
  5 18  1  6  0  0  0
  5 13  1  0  0  0  0
  8  3  2  0  0  0  0
  9  6  1  0  0  0  0
  9 10  2  0  0  0  0
 10  8  1  0  0  0  0
 11 17  1  0  0  0  0
 12 20  1  6  0  0  0
 12 15  1  0  0  0  0
 13  1  1  0  0  0  0
 13  6  1  1  0  0  0
 14 12  1  0  0  0  0
 14  5  1  0  0  0  0
 15  1  1  0  0  0  0
 16  4  2  0  0  0  0
 17 10  1  0  0  0  0
 17 16  1  6  0  0  0
 18  2  1  0  0  0  0
 19  2  2  0  0  0  0
 19 11  1  0  0  0  0
 20 21  1  0  0  0  0
 22 20  2  0  0  0  0
 23 21  1  0  0  0  0
 24 11  1  0  0  0  0
 25 30  1  0  0  0  0
 26 32  1  0  0  0  0
 27 31  1  0  0  0  0
 28 27  1  0  0  0  0
 29 28  2  0  0  0  0
 30 26  2  0  0  0  0
 30 29  1  0  0  0  0
 32 27  2  0  0  0  0
 32 24  1  0  0  0  0
M  END
>  <MODEL>
2

>  <REMARK>
 VINA RESULT:      -8.6      1.132      1.284
  Name = 
  3 active torsions:
  status: ('A' for Active; 'I' for Inactive)
    1  A    between atoms: C_1  and  C_19
    2  A    between atoms: N_16  and  C_27
    3  A    between atoms: C_27  and  C_32
                            x       y       z     vdW  Elec       q    Type
                         _______ _______ _______ _____ _____    ______ ____

>  <TORSDO>
F 3

$$$$
=
 OpenBabel11052421353D

 32 36  0  0  1  0  0  0  0  0999 V2000
  185.6690  178.6120  144.5530 C   0  0  2  0  0  3  0  0  0  0  0  0
  188.8760  175.9300  143.3110 C   0  0  0  0  0  0  0  0  0  0  0  0
  190.9960  176.2500  147.8150 C   0  0  0  0  0  3  0  0  0  0  0  0
  191.9670  175.4700  147.3400 C   0  0  0  0  0  3  0  0  0  0  0  0
  186.6080  176.9510  142.9120 C   0  0  1  0  0  3  0  0  0  0  0  0
  187.6740  177.2810  145.1600 C   0  0  0  0  0  2  0  0  0  0  0  0
  185.9760  179.7180  145.3250 F   0  0  0  0  0  0  0  0  0  0  0  0
  189.7630  176.5890  147.0190 C   0  0  0  0  0  3  0  0  0  0  0  0
  188.8540  176.4620  144.7040 C   0  0  0  0  0  0  0  0  0  0  0  0
  189.8170  176.1170  145.5830 C   0  0  0  0  0  0  0  0  0  0  0  0
  190.8750  174.6800  143.8070 N   0  0  0  0  0  0  0  0  0  0  0  0
  184.5860  177.8550  142.4540 C   0  0  1  0  0  3  0  0  0  0  0  0
  186.9520  177.9780  144.0090 C   0  0  2  0  0  3  0  0  0  0  0  0
  185.8410  177.5520  141.8970 O   0  0  0  0  0  0  0  0  0  0  0  0
  184.7270  179.0230  143.4280 C   0  0  0  0  0  2  0  0  0  0  0  0
  191.9100  174.9150  145.9800 C   0  0  0  0  0  3  0  0  0  0  0  0
  190.9090  175.2100  145.1450 C   0  0  1  0  0  3  0  0  0  0  0  0
  187.8890  176.4060  142.2890 C   0  0  0  0  0  2  0  0  0  0  0  0
  189.8430  175.1030  142.9090 C   0  0  0  0  0  3  0  0  0  0  0  0
  183.6170  178.2010  141.3740 C   0  0  0  0  0  0  0  0  0  0  0  0
  182.2220  178.2190  141.6640 N   0  0  0  0  0  2  0  0  0  0  0  0
  184.0290  178.4890  140.2180 O   0  0  0  0  0  0  0  0  0  0  0  0
  181.3180  178.5360  140.7070 O   0  0  0  0  0  1  0  0  0  0  0  0
  191.8510  173.7030  143.3330 C   0  0  0  0  0  2  0  0  0  0  0  0
  196.3390  176.4430  143.2450 S   0  0  0  0  0  1  0  0  0  0  0  0
  193.9850  175.0000  143.1640 C   0  0  0  0  0  3  0  0  0  0  0  0
  192.8320  174.3960  141.1190 C   0  0  0  0  0  0  0  0  0  0  0  0
  193.8240  175.0410  140.3740 C   0  0  0  0  0  3  0  0  0  0  0  0
  194.8940  175.6660  141.0210 C   0  0  0  0  0  3  0  0  0  0  0  0
  194.9740  175.6450  142.4160 C   0  0  0  0  0  0  0  0  0  0  0  0
  191.8060  173.7890  140.4730 F   0  0  0  0  0  0  0  0  0  0  0  0
  192.9110  174.3740  142.5200 C   0  0  0  0  0  0  0  0  0  0  0  0
  1  7  1  6  0  0  0
  2  9  1  0  0  0  0
  4  3  1  0  0  0  0
  5 18  1  6  0  0  0
  5 13  1  0  0  0  0
  8  3  2  0  0  0  0
  9  6  1  0  0  0  0
  9 10  2  0  0  0  0
 10  8  1  0  0  0  0
 11 17  1  0  0  0  0
 12 20  1  6  0  0  0
 12 15  1  0  0  0  0
 13  1  1  0  0  0  0
 13  6  1  1  0  0  0
 14 12  1  0  0  0  0
 14  5  1  0  0  0  0
 15  1  1  0  0  0  0
 16  4  2  0  0  0  0
 17 10  1  0  0  0  0
 17 16  1  6  0  0  0
 18  2  1  0  0  0  0
 19  2  2  0  0  0  0
 19 11  1  0  0  0  0
 20 21  1  0  0  0  0
 22 20  2  0  0  0  0
 23 21  1  0  0  0  0
 24 11  1  0  0  0  0
 27 32  2  0  0  0  0
 28 29  2  0  0  0  0
 28 27  1  0  0  0  0
 29 30  1  0  0  0  0
 30 26  2  0  0  0  0
 30 25  1  0  0  0  0
 31 27  1  0  0  0  0
 32 26  1  0  0  0  0
 32 24  1  0  0  0  0
M  END
>  <MODEL>
3

>  <REMARK>
 VINA RESULT:      -8.6      2.029      2.369
  Name = 
  3 active torsions:
  status: ('A' for Active; 'I' for Inactive)
    1  A    between atoms: C_1  and  C_19
    2  A    between atoms: N_16  and  C_27
    3  A    between atoms: C_27  and  C_32
                            x       y       z     vdW  Elec       q    Type
                         _______ _______ _______ _____ _____    ______ ____

>  <TORSDO>
F 3

$$$$
=
 OpenBabel11052421353D

 32 36  0  0  1  0  0  0  0  0999 V2000
  185.7370  177.5450  140.2170 C   0  0  2  0  0  3  0  0  0  0  0  0
  187.9970  175.9950  143.6090 C   0  0  0  0  0  0  0  0  0  0  0  0
  185.1360  178.5600  146.7890 C   0  0  0  0  0  3  0  0  0  0  0  0
  185.9110  178.0860  147.7650 C   0  0  0  0  0  3  0  0  0  0  0  0
  187.3950  175.9060  141.1650 C   0  0  1  0  0  3  0  0  0  0  0  0
  185.9930  177.3370  142.6760 C   0  0  0  0  0  2  0  0  0  0  0  0
  185.3570  178.8750  140.2110 F   0  0  0  0  0  0  0  0  0  0  0  0
  185.2830  178.1320  145.3530 C   0  0  0  0  0  2  0  0  0  0  0  0
  186.8450  176.9130  143.8450 C   0  0  0  0  0  0  0  0  0  0  0  0
  186.4960  177.2640  145.0990 C   0  0  0  0  0  0  0  0  0  0  0  0
  188.3570  175.8180  145.9850 N   0  0  0  0  0  0  0  0  0  0  0  0
  186.9460  175.7870  138.9510 C   0  0  1  0  0  3  0  0  0  0  0  0
  186.7400  177.2890  141.3450 C   0  0  2  0  0  3  0  0  0  0  0  0
  187.9890  175.8050  139.8930 O   0  0  0  0  0  0  0  0  0  0  0  0
  186.3190  177.1770  138.8570 C   0  0  0  0  0  2  0  0  0  0  0  0
  186.9930  177.1300  147.4900 C   0  0  0  0  0  3  0  0  0  0  0  0
  187.2790  176.7360  146.2450 C   0  0  0  0  0  0  0  0  0  0  0  0
  188.4770  175.7010  142.2200 C   0  0  0  0  0  2  0  0  0  0  0  0
  188.7000  175.5020  144.6300 C   0  0  0  0  0  3  0  0  0  0  0  0
  187.4680  175.3680  137.6180 C   0  0  0  0  0  0  0  0  0  0  0  0
  187.1380  176.1370  136.4640 N   0  0  0  0  0  2  0  0  0  0  0  0
  188.2060  174.3520  137.5140 O   0  0  0  0  0  0  0  0  0  0  0  0
  187.6020  175.7860  135.2410 O   0  0  0  0  0  1  0  0  0  0  0  0
  189.1070  175.1750  147.0600 C   0  0  0  0  0  2  0  0  0  0  0  0
  193.6920  173.3200  145.2730 S   0  0  0  0  0  1  0  0  0  0  0  0
  191.3430  174.4030  146.2420 C   0  0  0  0  0  3  0  0  0  0  0  0
  191.1930  176.5600  147.3380 C   0  0  0  0  0  0  0  0  0  0  0  0
  192.5690  176.7370  147.1690 C   0  0  0  0  0  3  0  0  0  0  0  0
  193.3330  175.7490  146.5390 C   0  0  0  0  0  3  0  0  0  0  0  0
  192.7190  174.5830  146.0760 C   0  0  0  0  0  0  0  0  0  0  0  0
  190.4670  177.5320  147.9440 F   0  0  0  0  0  0  0  0  0  0  0  0
  190.5750  175.3880  146.8730 C   0  0  0  0  0  0  0  0  0  0  0  0
  1  7  1  6  0  0  0
  1 13  1  0  0  0  0
  2  9  1  0  0  0  0
  2 19  2  0  0  0  0
  3  4  2  0  0  0  0
  5 13  1  0  0  0  0
  5 18  1  1  0  0  0
  6  9  1  0  0  0  0
  8  3  1  0  0  0  0
  9 10  2  0  0  0  0
 10  8  1  0  0  0  0
 10 17  1  0  0  0  0
 11 17  1  0  0  0  0
 11 24  1  0  0  0  0
 12 20  1  6  0  0  0
 12 14  1  0  0  0  0
 13  6  1  1  0  0  0
 14  5  1  0  0  0  0
 15 12  1  0  0  0  0
 15  1  1  0  0  0  0
 16  4  1  0  0  0  0
 17 16  2  0  0  0  0
 18  2  1  0  0  0  0
 19 11  1  0  0  0  0
 21 20  1  0  0  0  0
 22 20  2  0  0  0  0
 23 21  1  0  0  0  0
 25 30  1  0  0  0  0
 26 32  1  0  0  0  0
 27 31  1  0  0  0  0
 28 27  1  0  0  0  0
 29 28  2  0  0  0  0
 30 26  2  0  0  0  0
 30 29  1  0  0  0  0
 32 24  1  0  0  0  0
 32 27  2  0  0  0  0
M  END
>  <MODEL>
4

>  <REMARK>
 VINA RESULT:      -8.1      3.532      4.987
  Name = 
  3 active torsions:
  status: ('A' for Active; 'I' for Inactive)
    1  A    between atoms: C_1  and  C_19
    2  A    between atoms: N_16  and  C_27
    3  A    between atoms: C_27  and  C_32
                            x       y       z     vdW  Elec       q    Type
                         _______ _______ _______ _____ _____    ______ ____

>  <TORSDO>
F 3

$$$$
=
 OpenBabel11052421353D

 32 36  0  0  1  0  0  0  0  0999 V2000
  190.5260  171.0550  141.2680 C   0  0  2  0  0  3  0  0  0  0  0  0
  188.9720  175.0750  141.9300 C   0  0  0  0  0  0  0  0  0  0  0  0
  189.4990  174.5530  146.8620 C   0  0  0  0  0  3  0  0  0  0  0  0
  188.9630  175.7690  146.9820 C   0  0  0  0  0  3  0  0  0  0  0  0
  189.8850  173.3180  140.3730 C   0  0  1  0  0  3  0  0  0  0  0  0
  190.0570  172.9130  142.8440 C   0  0  0  0  0  2  0  0  0  0  0  0
  190.1290  170.0320  142.1110 F   0  0  0  0  0  0  0  0  0  0  0  0
  189.8200  173.9330  145.5290 C   0  0  0  0  0  3  0  0  0  0  0  0
  189.4010  174.2470  143.0940 C   0  0  0  0  0  0  0  0  0  0  0  0
  189.3160  174.7340  144.3480 C   0  0  0  0  0  0  0  0  0  0  0  0
  188.4120  176.8910  143.4130 N   0  0  0  0  0  0  0  0  0  0  0  0
  190.6530  171.7830  138.9000 C   0  0  1  0  0  3  0  0  0  0  0  0
  189.6610  172.2960  141.5050 C   0  0  2  0  0  3  0  0  0  0  0  0
  189.6360  172.7280  139.1200 O   0  0  0  0  0  0  0  0  0  0  0  0
  190.4430  170.5830  139.8210 C   0  0  0  0  0  2  0  0  0  0  0  0
  188.6180  176.5730  145.8010 C   0  0  0  0  0  3  0  0  0  0  0  0
  188.7770  176.1020  144.5610 C   0  0  1  0  0  3  0  0  0  0  0  0
  188.9380  174.5020  140.5460 C   0  0  0  0  0  2  0  0  0  0  0  0
  188.4990  176.3110  142.1060 C   0  0  0  0  0  3  0  0  0  0  0  0
  190.6430  171.3440  137.4750 C   0  0  0  0  0  0  0  0  0  0  0  0
  189.5780  171.7580  136.6220 N   0  0  0  0  0  2  0  0  0  0  0  0
  191.5740  170.6250  137.0230 O   0  0  0  0  0  0  0  0  0  0  0  0
  189.5440  171.3820  135.3220 O   0  0  0  0  0  1  0  0  0  0  0  0
  187.9740  178.2780  143.5300 C   0  0  0  0  0  2  0  0  0  0  0  0
  183.6730  178.1630  140.5050 S   0  0  0  0  0  1  0  0  0  0  0  0
  185.8560  178.2340  142.1960 C   0  0  0  0  0  3  0  0  0  0  0  0
  185.7090  178.5900  144.5890 C   0  0  0  0  0  0  0  0  0  0  0  0
  184.3180  178.6830  144.4860 C   0  0  0  0  0  3  0  0  0  0  0  0
  183.6960  178.5530  143.2410 C   0  0  0  0  0  3  0  0  0  0  0  0
  184.4650  178.3280  142.0970 C   0  0  0  0  0  0  0  0  0  0  0  0
  186.2940  178.7100  145.8070 F   0  0  0  0  0  0  0  0  0  0  0  0
  186.4830  178.3640  143.4400 C   0  0  0  0  0  0  0  0  0  0  0  0
  1 13  1  0  0  0  0
  1  7  1  1  0  0  0
  2 19  2  0  0  0  0
  2  9  1  0  0  0  0
  3  4  1  0  0  0  0
  5 18  1  1  0  0  0
  5 13  1  0  0  0  0
  6  9  1  0  0  0  0
  8  3  2  0  0  0  0
  9 10  2  0  0  0  0
 10 17  1  0  0  0  0
 10  8  1  0  0  0  0
 11 24  1  0  0  0  0
 11 17  1  0  0  0  0
 12 20  1  6  0  0  0
 12 14  1  0  0  0  0
 12 15  1  0  0  0  0
 13  6  1  1  0  0  0
 14  5  1  0  0  0  0
 15  1  1  0  0  0  0
 16  4  2  0  0  0  0
 17 16  1  1  0  0  0
 18  2  1  0  0  0  0
 19 11  1  0  0  0  0
 21 20  1  0  0  0  0
 22 20  2  0  0  0  0
 23 21  1  0  0  0  0
 25 30  1  0  0  0  0
 26 32  1  0  0  0  0
 27 31  1  0  0  0  0
 28 27  1  0  0  0  0
 29 28  2  0  0  0  0
 30 26  2  0  0  0  0
 30 29  1  0  0  0  0
 32 24  1  0  0  0  0
 32 27  2  0  0  0  0
M  END
>  <MODEL>
5

>  <REMARK>
 VINA RESULT:      -8.0      4.553      7.876
  Name = 
  3 active torsions:
  status: ('A' for Active; 'I' for Inactive)
    1  A    between atoms: C_1  and  C_19
    2  A    between atoms: N_16  and  C_27
    3  A    between atoms: C_27  and  C_32
                            x       y       z     vdW  Elec       q    Type
                         _______ _______ _______ _____ _____    ______ ____

>  <TORSDO>
F 3

$$$$
=
 OpenBabel11052421353D

 32 36  0  0  1  0  0  0  0  0999 V2000
  191.8200  171.0470  141.0010 C   0  0  2  0  0  3  0  0  0  0  0  0
  190.0110  174.7020  142.5450 C   0  0  0  0  0  0  0  0  0  0  0  0
  193.1370  174.7000  146.4330 C   0  0  0  0  0  3  0  0  0  0  0  0
  192.4940  175.7850  146.8660 C   0  0  0  0  0  3  0  0  0  0  0  0
  190.3330  173.0500  140.6710 C   0  0  1  0  0  3  0  0  0  0  0  0
  191.8530  172.8900  142.6610 C   0  0  0  0  0  2  0  0  0  0  0  0
  192.1560  170.0360  141.8840 F   0  0  0  0  0  0  0  0  0  0  0  0
  192.8400  174.0540  145.1060 C   0  0  0  0  0  3  0  0  0  0  0  0
  191.1540  174.0770  143.2730 C   0  0  0  0  0  0  0  0  0  0  0  0
  191.6330  174.6360  144.4030 C   0  0  0  0  0  0  0  0  0  0  0  0
  189.9310  176.4780  144.1730 N   0  0  0  0  0  0  0  0  0  0  0  0
  190.5290  171.5910  138.9540 C   0  0  1  0  0  3  0  0  0  0  0  0
  190.9610  172.0990  141.7090 C   0  0  2  0  0  3  0  0  0  0  0  0
  189.6010  172.3220  139.7160 O   0  0  0  0  0  0  0  0  0  0  0  0
  191.0980  170.4530  139.7980 C   0  0  0  0  0  2  0  0  0  0  0  0
  191.4170  176.4040  146.0790 C   0  0  0  0  0  3  0  0  0  0  0  0
  191.0030  175.8770  144.9230 C   0  0  1  0  0  3  0  0  0  0  0  0
  189.3850  174.0230  141.3660 C   0  0  0  0  0  2  0  0  0  0  0  0
  189.4460  175.8240  142.9950 C   0  0  0  0  0  3  0  0  0  0  0  0
  189.8710  171.0460  137.7320 C   0  0  0  0  0  0  0  0  0  0  0  0
  189.7100  171.8840  136.5900 N   0  0  0  0  0  2  0  0  0  0  0  0
  189.4730  169.8510  137.7020 O   0  0  0  0  0  0  0  0  0  0  0  0
  189.1230  171.4170  135.4630 O   0  0  0  0  0  1  0  0  0  0  0  0
  189.3290  177.7500  144.5610 C   0  0  0  0  0  2  0  0  0  0  0  0
  184.2820  178.4040  143.2340 S   0  0  0  0  0  1  0  0  0  0  0  0
  186.8940  177.9980  144.0350 C   0  0  0  0  0  3  0  0  0  0  0  0
  187.5260  176.9610  146.1330 C   0  0  0  0  0  0  0  0  0  0  0  0
  186.1760  176.8050  146.4580 C   0  0  0  0  0  3  0  0  0  0  0  0
  185.1850  177.2450  145.5750 C   0  0  0  0  0  3  0  0  0  0  0  0
  185.5450  177.8400  144.3630 C   0  0  0  0  0  0  0  0  0  0  0  0
  188.4730  176.5210  146.9990 F   0  0  0  0  0  0  0  0  0  0  0  0
  187.8890  177.5600  144.9170 C   0  0  0  0  0  0  0  0  0  0  0  0
  1 13  1  0  0  0  0
  1  7  1  1  0  0  0
  2 19  2  0  0  0  0
  2  9  1  0  0  0  0
  3  4  1  0  0  0  0
  5 18  1  1  0  0  0
  5 13  1  0  0  0  0
  6  9  1  0  0  0  0
  8  3  2  0  0  0  0
  9 10  2  0  0  0  0
 10 17  1  0  0  0  0
 10  8  1  0  0  0  0
 11 24  1  0  0  0  0
 11 17  1  0  0  0  0
 12 20  1  6  0  0  0
 12 14  1  0  0  0  0
 12 15  1  0  0  0  0
 13  6  1  1  0  0  0
 14  5  1  0  0  0  0
 15  1  1  0  0  0  0
 16  4  2  0  0  0  0
 17 16  1  1  0  0  0
 18  2  1  0  0  0  0
 19 11  1  0  0  0  0
 21 20  1  0  0  0  0
 22 20  2  0  0  0  0
 23 21  1  0  0  0  0
 24 32  1  0  0  0  0
 25 30  1  0  0  0  0
 26 30  2  0  0  0  0
 26 32  1  0  0  0  0
 27 28  1  0  0  0  0
 27 31  1  0  0  0  0
 29 28  2  0  0  0  0
 30 29  1  0  0  0  0
 32 27  2  0  0  0  0
M  END
>  <MODEL>
6

>  <REMARK>
 VINA RESULT:      -7.8      4.323      7.518
  Name = 
  3 active torsions:
  status: ('A' for Active; 'I' for Inactive)
    1  A    between atoms: C_1  and  C_19
    2  A    between atoms: N_16  and  C_27
    3  A    between atoms: C_27  and  C_32
                            x       y       z     vdW  Elec       q    Type
                         _______ _______ _______ _____ _____    ______ ____

>  <TORSDO>
F 3

$$$$
=
 OpenBabel11052421353D

 32 36  0  0  1  0  0  0  0  0999 V2000
  188.2790  172.9070  141.5120 C   0  0  2  0  0  3  0  0  0  0  0  0
  191.9090  174.8610  142.9360 C   0  0  0  0  0  0  0  0  0  0  0  0
  190.0680  175.0820  147.5670 C   0  0  0  0  0  3  0  0  0  0  0  0
  191.1850  175.7250  147.9090 C   0  0  0  0  0  3  0  0  0  0  0  0
  190.6790  173.5750  141.1530 C   0  0  1  0  0  3  0  0  0  0  0  0
  189.6160  173.7660  143.4180 C   0  0  0  0  0  2  0  0  0  0  0  0
  187.0510  173.3490  141.9700 F   0  0  0  0  0  0  0  0  0  0  0  0
  189.8500  174.5060  146.1930 C   0  0  0  0  0  3  0  0  0  0  0  0
  190.8070  174.5560  143.8950 C   0  0  0  0  0  0  0  0  0  0  0  0
  190.9270  174.8780  145.1990 C   0  0  0  0  0  0  0  0  0  0  0  0
  193.2270  175.7910  144.7270 N   0  0  0  0  0  0  0  0  0  0  0  0
  189.6350  172.4640  139.4820 C   0  0  1  0  0  3  0  0  0  0  0  0
  189.3780  173.8940  141.9160 C   0  0  2  0  0  3  0  0  0  0  0  0
  190.4480  173.5750  139.7650 O   0  0  0  0  0  0  0  0  0  0  0  0
  188.2210  172.7220  140.0010 C   0  0  0  0  0  2  0  0  0  0  0  0
  192.2710  175.9420  146.9430 C   0  0  0  0  0  3  0  0  0  0  0  0
  192.1650  175.5510  145.6700 C   0  0  1  0  0  3  0  0  0  0  0  0
  191.7370  174.6290  141.4660 C   0  0  0  0  0  2  0  0  0  0  0  0
  193.0310  175.4520  143.3480 C   0  0  0  0  0  3  0  0  0  0  0  0
  189.6050  172.2130  138.0120 C   0  0  0  0  0  0  0  0  0  0  0  0
  189.9620  170.9260  137.5150 N   0  0  0  0  0  2  0  0  0  0  0  0
  189.2530  173.1250  137.2170 O   0  0  0  0  0  0  0  0  0  0  0  0
  189.9390  170.6650  136.1860 O   0  0  0  0  0  1  0  0  0  0  0  0
  194.5120  176.3510  145.1300 C   0  0  0  0  0  2  0  0  0  0  0  0
  196.7460  171.6490  145.8750 S   0  0  0  0  0  1  0  0  0  0  0  0
  195.6620  174.1440  145.3950 C   0  0  0  0  0  3  0  0  0  0  0  0
  196.6340  175.7820  143.8960 C   0  0  0  0  0  0  0  0  0  0  0  0
  197.6730  174.8930  143.6060 C   0  0  0  0  0  3  0  0  0  0  0  0
  197.7080  173.6320  144.2090 C   0  0  0  0  0  3  0  0  0  0  0  0
  196.7020  173.2580  145.1030 C   0  0  0  0  0  0  0  0  0  0  0  0
  196.6120  176.9970  143.2950 F   0  0  0  0  0  0  0  0  0  0  0  0
  195.6230  175.4070  144.7950 C   0  0  0  0  0  0  0  0  0  0  0  0
  1 13  1  0  0  0  0
  1  7  1  6  0  0  0
  2 19  2  0  0  0  0
  2  9  1  0  0  0  0
  3  4  1  0  0  0  0
  5 18  1  6  0  0  0
  5 13  1  0  0  0  0
  6  9  1  0  0  0  0
  8  3  2  0  0  0  0
  9 10  2  0  0  0  0
 10 17  1  0  0  0  0
 10  8  1  0  0  0  0
 11 24  1  0  0  0  0
 11 17  1  0  0  0  0
 12 20  1  6  0  0  0
 12 14  1  0  0  0  0
 12 15  1  0  0  0  0
 13  6  1  1  0  0  0
 14  5  1  0  0  0  0
 15  1  1  0  0  0  0
 16  4  2  0  0  0  0
 17 16  1  6  0  0  0
 18  2  1  0  0  0  0
 19 11  1  0  0  0  0
 21 20  1  0  0  0  0
 22 20  2  0  0  0  0
 23 21  1  0  0  0  0
 27 32  1  0  0  0  0
 28 27  2  0  0  0  0
 28 29  1  0  0  0  0
 29 30  2  0  0  0  0
 30 26  1  0  0  0  0
 30 25  1  0  0  0  0
 31 27  1  0  0  0  0
 32 24  1  0  0  0  0
 32 26  2  0  0  0  0
M  END
>  <MODEL>
7

>  <REMARK>
 VINA RESULT:      -7.5      4.993      5.768
  Name = 
  3 active torsions:
  status: ('A' for Active; 'I' for Inactive)
    1  A    between atoms: C_1  and  C_19
    2  A    between atoms: N_16  and  C_27
    3  A    between atoms: C_27  and  C_32
                            x       y       z     vdW  Elec       q    Type
                         _______ _______ _______ _____ _____    ______ ____

>  <TORSDO>
F 3

$$$$
=
 OpenBabel11052421353D

 32 36  0  0  1  0  0  0  0  0999 V2000
  193.1490  175.7180  146.5040 C   0  0  2  0  0  3  0  0  0  0  0  0
  190.0830  176.9310  143.6500 C   0  0  0  0  0  0  0  0  0  0  0  0
  186.5880  176.7420  147.2040 C   0  0  0  0  0  3  0  0  0  0  0  0
  185.7030  177.0610  146.2590 C   0  0  0  0  0  3  0  0  0  0  0  0
  192.5120  176.6580  144.2570 C   0  0  1  0  0  3  0  0  0  0  0  0
  190.8020  176.4020  146.0770 C   0  0  0  0  0  2  0  0  0  0  0  0
  192.8580  174.7290  147.4260 F   0  0  0  0  0  0  0  0  0  0  0  0
  188.0700  176.6890  146.9470 C   0  0  0  0  0  3  0  0  0  0  0  0
  189.7140  176.6930  145.0760 C   0  0  0  0  0  0  0  0  0  0  0  0
  188.4400  176.8530  145.4890 C   0  0  0  0  0  0  0  0  0  0  0  0
  187.8010  177.5220  143.1470 N   0  0  0  0  0  0  0  0  0  0  0  0
  194.7140  176.4020  144.7040 C   0  0  1  0  0  3  0  0  0  0  0  0
  192.0470  175.7880  145.4420 C   0  0  2  0  0  3  0  0  0  0  0  0
  193.7230  176.1710  143.7340 O   0  0  0  0  0  0  0  0  0  0  0  0
  194.5120  175.4460  145.8780 C   0  0  0  0  0  2  0  0  0  0  0  0
  186.1240  177.3520  144.8810 C   0  0  0  0  0  3  0  0  0  0  0  0
  187.4040  177.2590  144.5050 C   0  0  1  0  0  3  0  0  0  0  0  0
  191.4630  176.6310  143.1500 C   0  0  0  0  0  2  0  0  0  0  0  0
  189.1630  177.3090  142.7600 C   0  0  0  0  0  3  0  0  0  0  0  0
  196.0680  176.2060  144.1100 C   0  0  0  0  0  0  0  0  0  0  0  0
  196.6660  174.9120  144.1420 N   0  0  0  0  0  2  0  0  0  0  0  0
  196.6730  177.1710  143.5710 O   0  0  0  0  0  0  0  0  0  0  0  0
  197.8910  174.7010  143.6050 O   0  0  0  0  0  1  0  0  0  0  0  0
  186.8640  178.0240  142.1460 C   0  0  0  0  0  2  0  0  0  0  0  0
  188.8360  173.8050  139.7020 S   0  0  0  0  0  1  0  0  0  0  0  0
  187.7290  176.0440  140.8820 C   0  0  0  0  0  3  0  0  0  0  0  0
  186.2160  177.5660  139.7550 C   0  0  0  0  0  0  0  0  0  0  0  0
  186.3030  176.7880  138.5970 C   0  0  0  0  0  3  0  0  0  0  0  0
  187.1010  175.6400  138.5800 C   0  0  0  0  0  3  0  0  0  0  0  0
  187.8140  175.2690  139.7220 C   0  0  0  0  0  0  0  0  0  0  0  0
  185.4300  178.6710  139.7560 F   0  0  0  0  0  0  0  0  0  0  0  0
  186.9320  177.1940  140.9040 C   0  0  0  0  0  0  0  0  0  0  0  0
  1  7  1  1  0  0  0
  2  9  1  0  0  0  0
  4  3  1  0  0  0  0
  5 18  1  6  0  0  0
  5 13  1  0  0  0  0
  8  3  2  0  0  0  0
  9 10  2  0  0  0  0
  9  6  1  0  0  0  0
 10  8  1  0  0  0  0
 11 17  1  0  0  0  0
 12 20  1  6  0  0  0
 12 15  1  0  0  0  0
 13  6  1  1  0  0  0
 13  1  1  0  0  0  0
 14  5  1  0  0  0  0
 14 12  1  0  0  0  0
 15  1  1  0  0  0  0
 16  4  2  0  0  0  0
 17 16  1  6  0  0  0
 17 10  1  0  0  0  0
 18  2  1  0  0  0  0
 19 11  1  0  0  0  0
 19  2  2  0  0  0  0
 20 21  1  0  0  0  0
 22 20  2  0  0  0  0
 23 21  1  0  0  0  0
 24 11  1  0  0  0  0
 25 30  1  0  0  0  0
 26 32  1  0  0  0  0
 27 31  1  0  0  0  0
 27 32  2  0  0  0  0
 28 27  1  0  0  0  0
 29 28  2  0  0  0  0
 29 30  1  0  0  0  0
 30 26  2  0  0  0  0
 32 24  1  0  0  0  0
M  END
>  <MODEL>
8

>  <REMARK>
 VINA RESULT:      -7.5      4.249      8.111
  Name = 
  3 active torsions:
  status: ('A' for Active; 'I' for Inactive)
    1  A    between atoms: C_1  and  C_19
    2  A    between atoms: N_16  and  C_27
    3  A    between atoms: C_27  and  C_32
                            x       y       z     vdW  Elec       q    Type
                         _______ _______ _______ _____ _____    ______ ____

>  <TORSDO>
F 3

$$$$
=
 OpenBabel11052421353D

 32 36  0  0  1  0  0  0  0  0999 V2000
  188.2160  173.7080  138.6330 C   0  0  2  0  0  3  0  0  0  0  0  0
  189.8950  173.7600  142.6570 C   0  0  0  0  0  0  0  0  0  0  0  0
  187.0600  177.6790  143.8740 C   0  0  0  0  0  3  0  0  0  0  0  0
  187.6620  177.6620  145.0640 C   0  0  0  0  0  3  0  0  0  0  0  0
  189.5460  172.5900  140.4540 C   0  0  1  0  0  3  0  0  0  0  0  0
  188.1840  174.6430  140.9300 C   0  0  0  0  0  2  0  0  0  0  0  0
  188.0080  174.9060  137.9730 F   0  0  0  0  0  0  0  0  0  0  0  0
  187.3030  176.6280  142.8240 C   0  0  0  0  0  2  0  0  0  0  0  0
  188.8490  174.7540  142.2790 C   0  0  0  0  0  0  0  0  0  0  0  0
  188.4170  175.6660  143.1730 C   0  0  0  0  0  0  0  0  0  0  0  0
  189.9780  174.6780  144.8840 N   0  0  0  0  0  0  0  0  0  0  0  0
  189.3210  171.4910  138.4900 C   0  0  1  0  0  3  0  0  0  0  0  0
  189.0540  173.9390  139.8930 C   0  0  2  0  0  3  0  0  0  0  0  0
  190.2530  171.8760  139.4690 O   0  0  0  0  0  0  0  0  0  0  0  0
  188.8870  172.7170  137.6890 C   0  0  0  0  0  2  0  0  0  0  0  0
  188.6390  176.6200  145.4140 C   0  0  0  0  0  3  0  0  0  0  0  0
  189.0020  175.6780  144.5380 C   0  0  0  0  0  0  0  0  0  0  0  0
  190.4770  172.8280  141.6380 C   0  0  0  0  0  2  0  0  0  0  0  0
  190.4190  173.7520  143.8840 C   0  0  0  0  0  3  0  0  0  0  0  0
  189.9230  170.4720  137.5830 C   0  0  0  0  0  0  0  0  0  0  0  0
  190.3510  170.8600  136.2790 N   0  0  0  0  0  2  0  0  0  0  0  0
  190.0650  169.2800  137.9690 O   0  0  0  0  0  0  0  0  0  0  0  0
  190.9070  169.9590  135.4350 O   0  0  0  0  0  1  0  0  0  0  0  0
  190.5240  174.5580  146.2320 C   0  0  0  0  0  2  0  0  0  0  0  0
  195.6100  173.7570  145.1570 S   0  0  0  0  0  1  0  0  0  0  0  0
  192.9690  174.2950  145.7620 C   0  0  0  0  0  3  0  0  0  0  0  0
  192.2100  176.3290  146.8410 C   0  0  0  0  0  0  0  0  0  0  0  0
  193.5280  176.7910  146.8880 C   0  0  0  0  0  3  0  0  0  0  0  0
  194.5660  176.0070  146.3740 C   0  0  0  0  0  3  0  0  0  0  0  0
  194.2860  174.7600  145.8120 C   0  0  0  0  0  0  0  0  0  0  0  0
  191.2150  177.1060  147.3360 F   0  0  0  0  0  0  0  0  0  0  0  0
  191.9270  175.0750  146.2760 C   0  0  0  0  0  0  0  0  0  0  0  0
  1  7  1  6  0  0  0
  1 13  1  0  0  0  0
  2 19  2  0  0  0  0
  3  4  2  0  0  0  0
  4 16  1  0  0  0  0
  5 18  1  1  0  0  0
  6  9  1  0  0  0  0
  8 10  1  0  0  0  0
  8  3  1  0  0  0  0
  9  2  1  0  0  0  0
  9 10  2  0  0  0  0
 10 17  1  0  0  0  0
 11 24  1  0  0  0  0
 12 20  1  6  0  0  0
 12 14  1  0  0  0  0
 13  5  1  0  0  0  0
 13  6  1  1  0  0  0
 14  5  1  0  0  0  0
 15 12  1  0  0  0  0
 15  1  1  0  0  0  0
 17 11  1  0  0  0  0
 17 16  2  0  0  0  0
 18  2  1  0  0  0  0
 19 11  1  0  0  0  0
 20 22  2  0  0  0  0
 21 20  1  0  0  0  0
 23 21  1  0  0  0  0
 24 32  1  0  0  0  0
 25 30  1  0  0  0  0
 26 30  2  0  0  0  0
 26 32  1  0  0  0  0
 27 28  1  0  0  0  0
 27 31  1  0  0  0  0
 29 28  2  0  0  0  0
 30 29  1  0  0  0  0
 32 27  2  0  0  0  0
M  END
>  <MODEL>
9

>  <REMARK>
 VINA RESULT:      -7.5      4.970      6.818
  Name = 
  3 active torsions:
  status: ('A' for Active; 'I' for Inactive)
    1  A    between atoms: C_1  and  C_19
    2  A    between atoms: N_16  and  C_27
    3  A    between atoms: C_27  and  C_32
                            x       y       z     vdW  Elec       q    Type
                         _______ _______ _______ _____ _____    ______ ____

>  <TORSDO>
F 3

$$$$
