=
 OpenBabel11052418143D

 28 31  0  0  1  0  0  0  0  0999 V2000
  187.4110  176.7260  141.5510 C   0  0  0  0  0  0  0  0  0  0  0  0
  184.7180  179.6210  144.2370 O   0  0  0  0  0  0  0  0  0  0  0  0
  187.0380  176.9390  145.3190 C   0  0  2  0  0  3  0  0  0  0  0  0
  185.9800  178.1630  142.8750 C   0  0  0  0  0  0  0  0  0  0  0  0
  187.6390  176.7570  143.9970 N   0  0  0  0  0  2  0  0  0  0  0  0
  185.7320  178.1250  140.5120 C   0  0  0  0  0  3  0  0  0  0  0  0
  185.6070  178.7270  144.1810 C   0  0  0  0  0  0  0  0  0  0  0  0
  185.3700  178.5930  141.7360 N   0  0  0  0  0  0  0  0  0  0  0  0
  186.3510  178.3230  145.4370 C   0  0  1  0  0  3  0  0  0  0  0  0
  186.7610  177.1890  140.3980 C   0  0  0  0  0  3  0  0  0  0  0  0
  187.0030  177.2110  142.8010 C   0  0  0  0  0  0  0  0  0  0  0  0
  189.4750  177.2450  145.9220 C   0  0  0  0  0  2  0  0  0  0  0  0
  188.2210  175.3560  146.7580 O   0  0  0  0  0  0  0  0  0  0  0  0
  190.4760  175.5700  147.4930 C   0  0  0  0  0  0  0  0  0  0  0  0
  188.1130  176.7350  146.3950 C   0  0  2  0  0  3  0  0  0  0  0  0
  189.3680  174.8360  147.3720 C   0  0  0  0  0  3  0  0  0  0  0  0
  191.5610  175.0490  148.1130 F   0  0  0  0  0  0  0  0  0  0  0  0
  190.5080  176.9970  147.0190 C   0  0  0  0  0  2  0  0  0  0  0  0
  185.4440  178.4090  146.6710 C   0  0  0  0  0  2  0  0  0  0  0  0
  185.9730  179.3910  147.7070 C   0  0  0  0  0  1  0  0  0  0  0  0
  188.4530  175.7880  141.4860 O   0  0  0  0  0  0  0  0  0  0  0  0
  188.2800  174.3750  141.3610 C   0  0  2  0  0  3  0  0  0  0  0  0
  189.5520  172.4880  140.7060 C   0  0  1  0  0  3  0  0  0  0  0  0
  188.6630  173.7150  142.5380 O   0  0  0  0  0  0  0  0  0  0  0  0
  188.2380  173.6350  139.1030 O   0  0  0  0  0  1  0  0  0  0  0  0
  189.0760  173.8180  140.2020 C   0  0  1  0  0  3  0  0  0  0  0  0
  191.0680  172.4640  140.7100 C   0  0  0  0  0  1  0  0  0  0  0  0
  189.0390  172.4250  142.1290 C   0  0  0  0  0  2  0  0  0  0  0  0
  1 11  1  0  0  0  0
  3  5  1  6  0  0  0
  3  9  1  0  0  0  0
  3 15  1  0  0  0  0
  4  7  1  0  0  0  0
  6  8  2  0  0  0  0
  7  2  2  0  0  0  0
  7  9  1  0  0  0  0
  8  4  1  0  0  0  0
  9 19  1  1  0  0  0
 10  6  1  0  0  0  0
 10  1  2  0  0  0  0
 11  4  2  0  0  0  0
 11  5  1  0  0  0  0
 12 18  1  0  0  0  0
 13 16  1  0  0  0  0
 14 17  1  0  0  0  0
 15 12  1  6  0  0  0
 15 13  1  0  0  0  0
 16 14  2  0  0  0  0
 18 14  1  0  0  0  0
 19 20  1  0  0  0  0
 21  1  1  0  0  0  0
 22 21  1  1  0  0  0
 22 24  1  0  0  0  0
 23 27  1  1  0  0  0
 23 28  1  0  0  0  0
 26 25  1  6  0  0  0
 26 23  1  0  0  0  0
 26 22  1  0  0  0  0
 28 24  1  0  0  0  0
M  END
>  <MODEL>
1

>  <REMARK>
 VINA RESULT:      -8.1      0.000      0.000
  Name = 
  4 active torsions:
  status: ('A' for Active; 'I' for Inactive)
    1  A    between atoms: C_1  and  O_2
    2  A    between atoms: O_2  and  C_3
    3  A    between atoms: C_10  and  C_13
    4  A    between atoms: C_14  and  C_25
                            x       y       z     vdW  Elec       q    Type
                         _______ _______ _______ _____ _____    ______ ____

>  <TORSDO>
F 4

$$$$
=
 OpenBabel11052418143D

 28 31  0  0  1  0  0  0  0  0999 V2000
  187.3520  176.3660  141.7370 C   0  0  0  0  0  0  0  0  0  0  0  0
  185.2860  179.9950  144.0630 O   0  0  0  0  0  0  0  0  0  0  0  0
  187.0370  177.0390  145.4560 C   0  0  2  0  0  3  0  0  0  0  0  0
  186.2340  178.1850  142.8800 C   0  0  0  0  0  0  0  0  0  0  0  0
  187.5870  176.6070  144.1700 N   0  0  0  0  0  2  0  0  0  0  0  0
  185.9780  177.9510  140.5300 C   0  0  0  0  0  3  0  0  0  0  0  0
  185.9820  178.9440  144.1140 C   0  0  0  0  0  0  0  0  0  0  0  0
  185.7170  178.6050  141.6930 N   0  0  0  0  0  0  0  0  0  0  0  0
  186.6350  178.5340  145.4190 C   0  0  1  0  0  3  0  0  0  0  0  0
  186.8020  176.8250  140.5310 C   0  0  0  0  0  3  0  0  0  0  0  0
  187.0500  177.0490  142.9230 C   0  0  0  0  0  0  0  0  0  0  0  0
  189.4110  177.3760  146.2600 C   0  0  0  0  0  2  0  0  0  0  0  0
  188.2180  175.3330  146.7490 O   0  0  0  0  0  0  0  0  0  0  0  0
  190.4080  175.5530  147.6580 C   0  0  0  0  0  0  0  0  0  0  0  0
  188.0530  176.7410  146.5660 C   0  0  2  0  0  3  0  0  0  0  0  0
  189.3520  174.7900  147.3660 C   0  0  0  0  0  3  0  0  0  0  0  0
  191.4800  175.0040  148.2770 F   0  0  0  0  0  0  0  0  0  0  0  0
  190.3870  177.0300  147.3830 C   0  0  0  0  0  2  0  0  0  0  0  0
  185.7660  178.9250  146.6210 C   0  0  0  0  0  2  0  0  0  0  0  0
  184.5240  178.0540  146.7420 C   0  0  0  0  0  1  0  0  0  0  0  0
  188.1890  175.2410  141.7870 O   0  0  0  0  0  0  0  0  0  0  0  0
  189.6000  175.2550  141.5600 C   0  0  2  0  0  3  0  0  0  0  0  0
  191.5920  174.8620  142.7780 C   0  0  1  0  0  3  0  0  0  0  0  0
  190.0620  173.9850  141.1840 O   0  0  0  0  0  0  0  0  0  0  0  0
  190.7040  177.0540  142.6520 O   0  0  0  0  0  1  0  0  0  0  0  0
  190.3560  175.7110  142.7890 C   0  0  1  0  0  3  0  0  0  0  0  0
  191.6420  174.0320  144.0460 C   0  0  0  0  0  1  0  0  0  0  0  0
  191.4080  173.9520  141.5820 C   0  0  0  0  0  2  0  0  0  0  0  0
  1 21  1  0  0  0  0
  1 11  1  0  0  0  0
  2  7  2  0  0  0  0
  3  5  1  6  0  0  0
  3 15  1  0  0  0  0
  4 11  2  0  0  0  0
  4  7  1  0  0  0  0
  6 10  1  0  0  0  0
  6  8  2  0  0  0  0
  7  9  1  0  0  0  0
  8  4  1  0  0  0  0
  9  3  1  0  0  0  0
  9 19  1  1  0  0  0
 10  1  2  0  0  0  0
 11  5  1  0  0  0  0
 12 18  1  0  0  0  0
 13 16  1  0  0  0  0
 14 17  1  0  0  0  0
 15 12  1  6  0  0  0
 15 13  1  0  0  0  0
 16 14  2  0  0  0  0
 18 14  1  0  0  0  0
 19 20  1  0  0  0  0
 22 21  1  1  0  0  0
 22 26  1  0  0  0  0
 23 26  1  0  0  0  0
 23 27  1  1  0  0  0
 24 22  1  0  0  0  0
 24 28  1  0  0  0  0
 26 25  1  6  0  0  0
 28 23  1  0  0  0  0
M  END
>  <MODEL>
2

>  <REMARK>
 VINA RESULT:      -7.8      1.373      1.818
  Name = 
  4 active torsions:
  status: ('A' for Active; 'I' for Inactive)
    1  A    between atoms: C_1  and  O_2
    2  A    between atoms: O_2  and  C_3
    3  A    between atoms: C_10  and  C_13
    4  A    between atoms: C_14  and  C_25
                            x       y       z     vdW  Elec       q    Type
                         _______ _______ _______ _____ _____    ______ ____

>  <TORSDO>
F 4

$$$$
=
 OpenBabel11052418143D

 28 31  0  0  1  0  0  0  0  0999 V2000
  189.6430  175.1600  145.1400 C   0  0  0  0  0  0  0  0  0  0  0  0
  186.0870  177.0390  147.7240 O   0  0  0  0  0  0  0  0  0  0  0  0
  187.2220  177.9600  144.3160 C   0  0  2  0  0  3  0  0  0  0  0  0
  187.8970  176.1330  146.5070 C   0  0  0  0  0  0  0  0  0  0  0  0
  188.0950  176.7950  144.1600 N   0  0  0  0  0  2  0  0  0  0  0  0
  189.4010  174.5700  147.4740 C   0  0  0  0  0  3  0  0  0  0  0  0
  186.7060  176.9880  146.6250 C   0  0  0  0  0  0  0  0  0  0  0  0
  188.3350  175.4070  147.5720 N   0  0  0  0  0  0  0  0  0  0  0  0
  186.1580  177.7190  145.4160 C   0  0  1  0  0  3  0  0  0  0  0  0
  190.0690  174.4280  146.2580 C   0  0  0  0  0  3  0  0  0  0  0  0
  188.5530  176.0300  145.2750 C   0  0  0  0  0  0  0  0  0  0  0  0
  185.2560  177.5670  142.7740 C   0  0  0  0  0  2  0  0  0  0  0  0
  187.4650  177.9720  141.8830 O   0  0  0  0  0  0  0  0  0  0  0  0
  185.6920  177.7230  140.3130 C   0  0  0  0  0  0  0  0  0  0  0  0
  186.5850  178.3000  142.9620 C   0  0  2  0  0  3  0  0  0  0  0  0
  187.0000  177.7770  140.5770 C   0  0  0  0  0  3  0  0  0  0  0  0
  185.2730  177.5580  139.0370 F   0  0  0  0  0  0  0  0  0  0  0  0
  184.6800  177.9240  141.4060 C   0  0  0  0  0  2  0  0  0  0  0  0
  185.4530  179.0180  145.8260 C   0  0  0  0  0  2  0  0  0  0  0  0
  183.9370  178.8940  145.7690 C   0  0  0  0  0  1  0  0  0  0  0  0
  190.2810  175.0480  143.8950 O   0  0  0  0  0  0  0  0  0  0  0  0
  191.5520  175.6150  143.5680 C   0  0  2  0  0  3  0  0  0  0  0  0
  193.3410  176.7000  144.6750 C   0  0  1  0  0  3  0  0  0  0  0  0
  192.5770  174.6680  143.7080 O   0  0  0  0  0  0  0  0  0  0  0  0
  191.5880  177.9850  143.7360 O   0  0  0  0  0  1  0  0  0  0  0  0
  191.8650  176.8130  144.4370 C   0  0  1  0  0  3  0  0  0  0  0  0
  193.6030  176.5680  146.1620 C   0  0  0  0  0  1  0  0  0  0  0  0
  193.7340  175.4170  143.9740 C   0  0  0  0  0  2  0  0  0  0  0  0
  1 11  2  0  0  0  0
  1 10  1  0  0  0  0
  3  5  1  6  0  0  0
  3  9  1  0  0  0  0
  4  7  1  0  0  0  0
  4  8  2  0  0  0  0
  5 11  1  0  0  0  0
  6  8  1  0  0  0  0
  7  2  2  0  0  0  0
  9 19  1  1  0  0  0
  9  7  1  0  0  0  0
 10  6  2  0  0  0  0
 11  4  1  0  0  0  0
 13 15  1  0  0  0  0
 14 16  2  0  0  0  0
 14 18  1  0  0  0  0
 15 12  1  6  0  0  0
 15  3  1  0  0  0  0
 16 13  1  0  0  0  0
 17 14  1  0  0  0  0
 18 12  1  0  0  0  0
 20 19  1  0  0  0  0
 21  1  1  0  0  0  0
 22 24  1  0  0  0  0
 22 21  1  1  0  0  0
 22 26  1  0  0  0  0
 23 27  1  1  0  0  0
 24 28  1  0  0  0  0
 26 25  1  6  0  0  0
 26 23  1  0  0  0  0
 28 23  1  0  0  0  0
M  END
>  <MODEL>
3

>  <REMARK>
 VINA RESULT:      -7.7      3.414      5.825
  Name = 
  4 active torsions:
  status: ('A' for Active; 'I' for Inactive)
    1  A    between atoms: C_1  and  O_2
    2  A    between atoms: O_2  and  C_3
    3  A    between atoms: C_10  and  C_13
    4  A    between atoms: C_14  and  C_25
                            x       y       z     vdW  Elec       q    Type
                         _______ _______ _______ _____ _____    ______ ____

>  <TORSDO>
F 4

$$$$
=
 OpenBabel11052418143D

 28 31  0  0  1  0  0  0  0  0999 V2000
  189.5740  175.2490  144.4690 C   0  0  0  0  0  0  0  0  0  0  0  0
  186.5320  176.8450  147.7930 O   0  0  0  0  0  0  0  0  0  0  0  0
  186.9960  178.0250  144.3080 C   0  0  2  0  0  3  0  0  0  0  0  0
  188.0970  176.0760  146.2000 C   0  0  0  0  0  0  0  0  0  0  0  0
  187.8430  176.9000  143.9110 N   0  0  0  0  0  2  0  0  0  0  0  0
  189.7820  174.4970  146.7590 C   0  0  0  0  0  3  0  0  0  0  0  0
  186.9350  176.8850  146.5970 C   0  0  0  0  0  0  0  0  0  0  0  0
  188.7380  175.2940  147.1120 N   0  0  0  0  0  0  0  0  0  0  0  0
  186.1600  177.6790  145.5660 C   0  0  1  0  0  3  0  0  0  0  0  0
  190.2140  174.4570  145.4330 C   0  0  0  0  0  3  0  0  0  0  0  0
  188.5140  176.0760  144.8640 C   0  0  0  0  0  0  0  0  0  0  0  0
  184.7580  177.7270  143.1690 C   0  0  0  0  0  2  0  0  0  0  0  0
  186.7560  178.1520  141.8790 O   0  0  0  0  0  0  0  0  0  0  0  0
  184.7050  177.9960  140.6790 C   0  0  0  0  0  0  0  0  0  0  0  0
  186.1120  178.4370  143.1230 C   0  0  2  0  0  3  0  0  0  0  0  0
  186.0400  178.0250  140.6820 C   0  0  0  0  0  3  0  0  0  0  0  0
  184.0400  177.8970  139.5040 F   0  0  0  0  0  0  0  0  0  0  0  0
  183.9310  178.1540  141.9580 C   0  0  0  0  0  2  0  0  0  0  0  0
  185.5220  178.9270  146.1910 C   0  0  0  0  0  2  0  0  0  0  0  0
  184.0430  178.7290  146.4910 C   0  0  0  0  0  1  0  0  0  0  0  0
  189.9710  175.2400  143.1220 O   0  0  0  0  0  0  0  0  0  0  0  0
  190.1920  174.0650  142.3390 C   0  0  2  0  0  3  0  0  0  0  0  0
  189.2850  173.0240  140.4160 C   0  0  1  0  0  3  0  0  0  0  0  0
  191.0770  174.3250  141.2820 O   0  0  0  0  0  0  0  0  0  0  0  0
  188.4610  172.4530  142.5610 O   0  0  0  0  0  1  0  0  0  0  0  0
  188.8980  173.5200  141.7770 C   0  0  1  0  0  3  0  0  0  0  0  0
  188.4870  173.7700  139.3640 C   0  0  0  0  0  1  0  0  0  0  0  0
  190.7500  173.3840  140.2910 C   0  0  0  0  0  2  0  0  0  0  0  0
  1 11  2  0  0  0  0
  1 10  1  0  0  0  0
  3  5  1  6  0  0  0
  3  9  1  0  0  0  0
  4  7  1  0  0  0  0
  4  8  2  0  0  0  0
  5 11  1  0  0  0  0
  6  8  1  0  0  0  0
  7  2  2  0  0  0  0
  9 19  1  1  0  0  0
  9  7  1  0  0  0  0
 10  6  2  0  0  0  0
 11  4  1  0  0  0  0
 13 15  1  0  0  0  0
 14 16  2  0  0  0  0
 14 18  1  0  0  0  0
 15 12  1  6  0  0  0
 15  3  1  0  0  0  0
 16 13  1  0  0  0  0
 17 14  1  0  0  0  0
 18 12  1  0  0  0  0
 19 20  1  0  0  0  0
 21  1  1  0  0  0  0
 22 21  1  6  0  0  0
 23 27  1  6  0  0  0
 23 26  1  0  0  0  0
 24 22  1  0  0  0  0
 26 22  1  0  0  0  0
 26 25  1  1  0  0  0
 28 23  1  0  0  0  0
 28 24  1  0  0  0  0
M  END
>  <MODEL>
4

>  <REMARK>
 VINA RESULT:      -7.5      2.829      5.157
  Name = 
  4 active torsions:
  status: ('A' for Active; 'I' for Inactive)
    1  A    between atoms: C_1  and  O_2
    2  A    between atoms: O_2  and  C_3
    3  A    between atoms: C_10  and  C_13
    4  A    between atoms: C_14  and  C_25
                            x       y       z     vdW  Elec       q    Type
                         _______ _______ _______ _____ _____    ______ ____

>  <TORSDO>
F 4

$$$$
=
 OpenBabel11052418143D

 28 31  0  0  1  0  0  0  0  0999 V2000
  186.5970  177.7610  142.2270 C   0  0  0  0  0  0  0  0  0  0  0  0
  188.8680  174.3140  139.8170 O   0  0  0  0  0  0  0  0  0  0  0  0
  189.5320  175.5830  143.2370 C   0  0  2  0  0  3  0  0  0  0  0  0
  187.7670  176.0700  140.9480 C   0  0  0  0  0  0  0  0  0  0  0  0
  188.2980  176.3650  143.3180 N   0  0  0  0  0  2  0  0  0  0  0  0
  186.1410  177.4280  139.8740 C   0  0  0  0  0  3  0  0  0  0  0  0
  188.7150  174.9470  140.8980 C   0  0  0  0  0  0  0  0  0  0  0  0
  187.0620  176.4290  139.8400 N   0  0  0  0  0  0  0  0  0  0  0  0
  189.4270  174.4820  142.1520 C   0  0  1  0  0  3  0  0  0  0  0  0
  185.8900  178.1070  141.0660 C   0  0  0  0  0  3  0  0  0  0  0  0
  187.5540  176.7400  142.1580 C   0  0  0  0  0  0  0  0  0  0  0  0
  188.9500  175.6010  145.6980 C   0  0  0  0  0  2  0  0  0  0  0  0
  191.2230  175.2290  144.9660 O   0  0  0  0  0  0  0  0  0  0  0  0
  190.8060  175.1150  147.3080 C   0  0  0  0  0  0  0  0  0  0  0  0
  189.8540  175.0010  144.6200 C   0  0  2  0  0  3  0  0  0  0  0  0
  191.6700  175.1950  146.2930 C   0  0  0  0  0  3  0  0  0  0  0  0
  191.2700  175.0590  148.5790 F   0  0  0  0  0  0  0  0  0  0  0  0
  189.3290  175.0050  147.0530 C   0  0  0  0  0  2  0  0  0  0  0  0
  190.7960  173.8730  141.8190 C   0  0  0  0  0  2  0  0  0  0  0  0
  190.8490  172.3810  142.1150 C   0  0  0  0  0  1  0  0  0  0  0  0
  186.3760  178.4130  143.4500 O   0  0  0  0  0  0  0  0  0  0  0  0
  185.2980  178.1340  144.3460 C   0  0  2  0  0  3  0  0  0  0  0  0
  184.8550  178.2480  146.6690 C   0  0  1  0  0  3  0  0  0  0  0  0
  184.5080  179.2740  144.5530 O   0  0  0  0  0  0  0  0  0  0  0  0
  185.6980  176.2440  145.7300 O   0  0  0  0  0  1  0  0  0  0  0  0
  185.8010  177.6340  145.6820 C   0  0  1  0  0  3  0  0  0  0  0  0
  185.6290  179.1390  147.6220 C   0  0  0  0  0  1  0  0  0  0  0  0
  183.9300  179.0950  145.8200 C   0  0  0  0  0  2  0  0  0  0  0  0
  1 21  1  0  0  0  0
  2  7  2  0  0  0  0
  3  5  1  1  0  0  0
  3 15  1  0  0  0  0
  4 11  2  0  0  0  0
  6 10  1  0  0  0  0
  7  4  1  0  0  0  0
  7  9  1  0  0  0  0
  8  6  2  0  0  0  0
  8  4  1  0  0  0  0
  9 19  1  6  0  0  0
  9  3  1  0  0  0  0
 10  1  2  0  0  0  0
 11  1  1  0  0  0  0
 11  5  1  0  0  0  0
 12 18  1  0  0  0  0
 13 16  1  0  0  0  0
 14 17  1  0  0  0  0
 15 13  1  0  0  0  0
 15 12  1  1  0  0  0
 16 14  2  0  0  0  0
 18 14  1  0  0  0  0
 19 20  1  0  0  0  0
 22 21  1  6  0  0  0
 22 24  1  0  0  0  0
 22 26  1  0  0  0  0
 23 27  1  1  0  0  0
 24 28  1  0  0  0  0
 26 25  1  6  0  0  0
 26 23  1  0  0  0  0
 28 23  1  0  0  0  0
M  END
>  <MODEL>
5

>  <REMARK>
 VINA RESULT:      -7.4      1.640      5.668
  Name = 
  4 active torsions:
  status: ('A' for Active; 'I' for Inactive)
    1  A    between atoms: C_1  and  O_2
    2  A    between atoms: O_2  and  C_3
    3  A    between atoms: C_10  and  C_13
    4  A    between atoms: C_14  and  C_25
                            x       y       z     vdW  Elec       q    Type
                         _______ _______ _______ _____ _____    ______ ____

>  <TORSDO>
F 4

$$$$
=
 OpenBabel11052418143D

 28 31  0  0  1  0  0  0  0  0999 V2000
  189.0190  175.9010  146.4010 C   0  0  0  0  0  0  0  0  0  0  0  0
  191.8510  174.4710  142.8250 O   0  0  0  0  0  0  0  0  0  0  0  0
  188.1950  175.0870  142.7910 C   0  0  2  0  0  3  0  0  0  0  0  0
  190.4730  175.1100  144.6340 C   0  0  0  0  0  0  0  0  0  0  0  0
  188.1680  175.7330  144.1030 N   0  0  0  0  0  2  0  0  0  0  0  0
  191.3040  175.2450  146.8560 C   0  0  0  0  0  3  0  0  0  0  0  0
  190.7060  174.8430  143.2070 C   0  0  0  0  0  0  0  0  0  0  0  0
  191.4780  174.9540  145.5390 N   0  0  0  0  0  0  0  0  0  0  0  0
  189.6200  175.1090  142.1850 C   0  0  1  0  0  3  0  0  0  0  0  0
  190.0750  175.7270  147.3080 C   0  0  0  0  0  3  0  0  0  0  0  0
  189.2220  175.5740  145.0540 C   0  0  0  0  0  0  0  0  0  0  0  0
  187.8060  176.8910  141.0610 C   0  0  0  0  0  2  0  0  0  0  0  0
  186.0690  176.2840  142.6270 O   0  0  0  0  0  0  0  0  0  0  0  0
  185.5260  177.9250  140.9890 C   0  0  0  0  0  0  0  0  0  0  0  0
  187.1670  175.7630  141.8730 C   0  0  2  0  0  3  0  0  0  0  0  0
  185.2330  177.2890  142.1250 C   0  0  0  0  0  3  0  0  0  0  0  0
  184.6860  178.8750  140.5160 F   0  0  0  0  0  0  0  0  0  0  0  0
  186.7370  177.5410  140.1850 C   0  0  0  0  0  2  0  0  0  0  0  0
  189.7470  174.1660  140.9820 C   0  0  0  0  0  2  0  0  0  0  0  0
  189.2060  172.7750  141.2800 C   0  0  0  0  0  1  0  0  0  0  0  0
  187.7670  176.3860  146.8090 O   0  0  0  0  0  0  0  0  0  0  0  0
  187.3760  177.7610  146.8020 C   0  0  2  0  0  3  0  0  0  0  0  0
  185.4720  179.0560  146.2520 C   0  0  1  0  0  3  0  0  0  0  0  0
  186.7630  178.1160  148.0130 O   0  0  0  0  0  0  0  0  0  0  0  0
  187.1340  178.6530  144.6130 O   0  0  0  0  0  1  0  0  0  0  0  0
  186.4290  178.0640  145.6620 C   0  0  1  0  0  3  0  0  0  0  0  0
  184.0660  178.4900  146.2020 C   0  0  0  0  0  1  0  0  0  0  0  0
  185.9150  179.1890  147.6940 C   0  0  0  0  0  2  0  0  0  0  0  0
  1 21  1  0  0  0  0
  1 10  1  0  0  0  0
  2  7  2  0  0  0  0
  3  5  1  1  0  0  0
  4 11  1  0  0  0  0
  4  8  2  0  0  0  0
  5 11  1  0  0  0  0
  6 10  2  0  0  0  0
  7  4  1  0  0  0  0
  8  6  1  0  0  0  0
  9 19  1  6  0  0  0
  9  3  1  0  0  0  0
  9  7  1  0  0  0  0
 11  1  2  0  0  0  0
 14 16  2  0  0  0  0
 15 12  1  1  0  0  0
 15 13  1  0  0  0  0
 15  3  1  0  0  0  0
 16 13  1  0  0  0  0
 17 14  1  0  0  0  0
 18 14  1  0  0  0  0
 18 12  1  0  0  0  0
 19 20  1  0  0  0  0
 22 21  1  1  0  0  0
 22 24  1  0  0  0  0
 23 27  1  1  0  0  0
 23 28  1  0  0  0  0
 26 25  1  6  0  0  0
 26 23  1  0  0  0  0
 26 22  1  0  0  0  0
 28 24  1  0  0  0  0
M  END
>  <MODEL>
6

>  <REMARK>
 VINA RESULT:      -7.1      2.806      7.346
  Name = 
  4 active torsions:
  status: ('A' for Active; 'I' for Inactive)
    1  A    between atoms: C_1  and  O_2
    2  A    between atoms: O_2  and  C_3
    3  A    between atoms: C_10  and  C_13
    4  A    between atoms: C_14  and  C_25
                            x       y       z     vdW  Elec       q    Type
                         _______ _______ _______ _____ _____    ______ ____

>  <TORSDO>
F 4

$$$$
=
 OpenBabel11052418143D

 28 31  0  0  1  0  0  0  0  0999 V2000
  188.5230  173.9490  141.8590 C   0  0  0  0  0  0  0  0  0  0  0  0
  186.6610  177.7690  139.6710 O   0  0  0  0  0  0  0  0  0  0  0  0
  186.4150  176.7840  143.2360 C   0  0  2  0  0  3  0  0  0  0  0  0
  187.5380  175.8340  140.7010 C   0  0  0  0  0  0  0  0  0  0  0  0
  187.4320  175.7360  143.1440 N   0  0  0  0  0  2  0  0  0  0  0  0
  188.5700  174.1020  139.4450 C   0  0  0  0  0  3  0  0  0  0  0  0
  186.8770  177.1470  140.7470 C   0  0  0  0  0  0  0  0  0  0  0  0
  187.9100  175.2890  139.5110 N   0  0  0  0  0  0  0  0  0  0  0  0
  186.5490  177.8000  142.0740 C   0  0  1  0  0  3  0  0  0  0  0  0
  188.8910  173.4150  140.6160 C   0  0  0  0  0  3  0  0  0  0  0  0
  187.8270  175.1650  141.8960 C   0  0  0  0  0  0  0  0  0  0  0  0
  187.4680  176.7080  145.5350 C   0  0  0  0  0  2  0  0  0  0  0  0
  185.2250  177.5530  145.2290 O   0  0  0  0  0  0  0  0  0  0  0  0
  186.1240  177.6390  147.4320 C   0  0  0  0  0  0  0  0  0  0  0  0
  186.5110  177.4620  144.6100 C   0  0  2  0  0  3  0  0  0  0  0  0
  185.0750  177.7240  146.6110 C   0  0  0  0  0  3  0  0  0  0  0  0
  185.9520  177.8320  148.7610 F   0  0  0  0  0  0  0  0  0  0  0  0
  187.5070  177.4110  146.8900 C   0  0  0  0  0  2  0  0  0  0  0  0
  185.3170  178.7050  141.9580 C   0  0  0  0  0  2  0  0  0  0  0  0
  184.0170  177.9140  141.9640 C   0  0  0  0  0  1  0  0  0  0  0  0
  188.8280  173.2970  143.0640 O   0  0  0  0  0  0  0  0  0  0  0  0
  190.0060  173.5170  143.8430 C   0  0  2  0  0  3  0  0  0  0  0  0
  191.4290  175.3170  144.4290 C   0  0  1  0  0  3  0  0  0  0  0  0
  189.6790  173.8820  145.1570 O   0  0  0  0  0  0  0  0  0  0  0  0
  191.9230  173.9990  142.5240 O   0  0  0  0  0  1  0  0  0  0  0  0
  190.8810  174.5920  143.2360 C   0  0  1  0  0  3  0  0  0  0  0  0
  190.9980  176.7700  144.3750 C   0  0  0  0  0  1  0  0  0  0  0  0
  190.7730  174.6360  145.6120 C   0  0  0  0  0  2  0  0  0  0  0  0
  1 11  1  0  0  0  0
  1 21  1  0  0  0  0
  2  7  2  0  0  0  0
  3  5  1  6  0  0  0
  3 15  1  0  0  0  0
  4  7  1  0  0  0  0
  4 11  2  0  0  0  0
  6  8  2  0  0  0  0
  6 10  1  0  0  0  0
  7  9  1  0  0  0  0
  8  4  1  0  0  0  0
  9 19  1  6  0  0  0
  9  3  1  0  0  0  0
 10  1  2  0  0  0  0
 11  5  1  0  0  0  0
 12 18  1  0  0  0  0
 13 16  1  0  0  0  0
 14 17  1  0  0  0  0
 15 13  1  0  0  0  0
 15 12  1  1  0  0  0
 16 14  2  0  0  0  0
 18 14  1  0  0  0  0
 19 20  1  0  0  0  0
 22 21  1  6  0  0  0
 22 24  1  0  0  0  0
 23 27  1  6  0  0  0
 23 28  1  0  0  0  0
 24 28  1  0  0  0  0
 26 25  1  1  0  0  0
 26 22  1  0  0  0  0
 26 23  1  0  0  0  0
M  END
>  <MODEL>
7

>  <REMARK>
 VINA RESULT:      -6.8      2.304      4.167
  Name = 
  4 active torsions:
  status: ('A' for Active; 'I' for Inactive)
    1  A    between atoms: C_1  and  O_2
    2  A    between atoms: O_2  and  C_3
    3  A    between atoms: C_10  and  C_13
    4  A    between atoms: C_14  and  C_25
                            x       y       z     vdW  Elec       q    Type
                         _______ _______ _______ _____ _____    ______ ____

>  <TORSDO>
F 4

$$$$
=
 OpenBabel11052418143D

 28 31  0  0  1  0  0  0  0  0999 V2000
  186.4640  176.8930  145.3880 C   0  0  0  0  0  0  0  0  0  0  0  0
  190.2980  177.8510  148.0780 O   0  0  0  0  0  0  0  0  0  0  0  0
  189.9260  175.3450  145.3710 C   0  0  2  0  0  3  0  0  0  0  0  0
  188.3620  177.3590  146.8180 C   0  0  0  0  0  0  0  0  0  0  0  0
  188.6400  175.8630  144.9010 N   0  0  0  0  0  2  0  0  0  0  0  0
  186.2580  178.3430  147.3140 C   0  0  0  0  0  3  0  0  0  0  0  0
  189.7980  177.2190  147.1070 C   0  0  0  0  0  0  0  0  0  0  0  0
  187.5760  178.1560  147.5910 N   0  0  0  0  0  0  0  0  0  0  0  0
  190.6940  176.4120  146.1900 C   0  0  1  0  0  3  0  0  0  0  0  0
  185.6820  177.7200  146.2070 C   0  0  0  0  0  3  0  0  0  0  0  0
  187.8150  176.7030  145.7090 C   0  0  0  0  0  0  0  0  0  0  0  0
  191.6380  173.6690  144.5600 C   0  0  0  0  0  2  0  0  0  0  0  0
  191.5400  175.8920  143.6180 O   0  0  0  0  0  0  0  0  0  0  0  0
  193.1340  174.3890  142.6850 C   0  0  0  0  0  0  0  0  0  0  0  0
  190.7390  174.8440  144.1700 C   0  0  2  0  0  3  0  0  0  0  0  0
  192.6630  175.6310  142.8230 C   0  0  0  0  0  3  0  0  0  0  0  0
  194.2070  174.1640  141.8910 F   0  0  0  0  0  0  0  0  0  0  0  0
  192.4380  173.2270  143.3370 C   0  0  0  0  0  2  0  0  0  0  0  0
  191.8720  175.8030  146.9620 C   0  0  0  0  0  2  0  0  0  0  0  0
  193.1990  176.4510  146.5920 C   0  0  0  0  0  1  0  0  0  0  0  0
  185.9290  176.2480  144.2620 O   0  0  0  0  0  0  0  0  0  0  0  0
  186.0690  176.6990  142.9130 C   0  0  2  0  0  3  0  0  0  0  0  0
  187.5920  177.9720  141.6220 C   0  0  1  0  0  3  0  0  0  0  0  0
  186.8170  175.7880  142.1520 O   0  0  0  0  0  0  0  0  0  0  0  0
  185.7610  179.0430  142.6740 O   0  0  0  0  0  1  0  0  0  0  0  0
  186.7320  178.0570  142.8470 C   0  0  1  0  0  3  0  0  0  0  0  0
  189.0430  178.1780  142.0100 C   0  0  0  0  0  1  0  0  0  0  0  0
  187.3960  176.5540  141.1280 C   0  0  0  0  0  2  0  0  0  0  0  0
  1 11  2  0  0  0  0
  1 10  1  0  0  0  0
  3  5  1  6  0  0  0
  3  9  1  0  0  0  0
  4  7  1  0  0  0  0
  4  8  2  0  0  0  0
  5 11  1  0  0  0  0
  6  8  1  0  0  0  0
  7  2  2  0  0  0  0
  9 19  1  1  0  0  0
  9  7  1  0  0  0  0
 10  6  2  0  0  0  0
 11  4  1  0  0  0  0
 13 15  1  0  0  0  0
 14 16  2  0  0  0  0
 14 18  1  0  0  0  0
 15 12  1  1  0  0  0
 15  3  1  0  0  0  0
 16 13  1  0  0  0  0
 17 14  1  0  0  0  0
 18 12  1  0  0  0  0
 20 19  1  0  0  0  0
 21  1  1  0  0  0  0
 22 21  1  1  0  0  0
 23 27  1  1  0  0  0
 23 26  1  0  0  0  0
 24 22  1  0  0  0  0
 26 25  1  6  0  0  0
 26 22  1  0  0  0  0
 28 23  1  0  0  0  0
 28 24  1  0  0  0  0
M  END
>  <MODEL>
8

>  <REMARK>
 VINA RESULT:      -6.8      2.670      5.336
  Name = 
  4 active torsions:
  status: ('A' for Active; 'I' for Inactive)
    1  A    between atoms: C_1  and  O_2
    2  A    between atoms: O_2  and  C_3
    3  A    between atoms: C_10  and  C_13
    4  A    between atoms: C_14  and  C_25
                            x       y       z     vdW  Elec       q    Type
                         _______ _______ _______ _____ _____    ______ ____

>  <TORSDO>
F 4

$$$$
=
 OpenBabel11052418143D

 28 31  0  0  1  0  0  0  0  0999 V2000
  191.0890  175.4580  145.8820 C   0  0  0  0  0  0  0  0  0  0  0  0
  187.0210  177.9670  145.8500 O   0  0  0  0  0  0  0  0  0  0  0  0
  188.4950  175.8960  143.1510 C   0  0  2  0  0  3  0  0  0  0  0  0
  189.0720  176.7970  145.8800 C   0  0  0  0  0  0  0  0  0  0  0  0
  189.5100  175.2830  144.0090 N   0  0  0  0  0  2  0  0  0  0  0  0
  190.6020  176.9940  147.6860 C   0  0  0  0  0  3  0  0  0  0  0  0
  187.7850  177.1520  145.2630 C   0  0  0  0  0  0  0  0  0  0  0  0
  189.4420  177.3450  147.0700 N   0  0  0  0  0  0  0  0  0  0  0  0
  187.3260  176.4710  143.9900 C   0  0  1  0  0  3  0  0  0  0  0  0
  191.4420  176.0430  147.1070 C   0  0  0  0  0  3  0  0  0  0  0  0
  189.8980  175.8530  145.2590 C   0  0  0  0  0  0  0  0  0  0  0  0
  188.6280  173.4890  142.3840 C   0  0  0  0  0  2  0  0  0  0  0  0
  188.3320  175.2810  140.7900 O   0  0  0  0  0  0  0  0  0  0  0  0
  188.3350  173.0590  139.9340 C   0  0  0  0  0  0  0  0  0  0  0  0
  188.0130  174.8650  142.1210 C   0  0  2  0  0  3  0  0  0  0  0  0
  188.3990  174.3760  139.7240 C   0  0  0  0  0  3  0  0  0  0  0  0
  188.3790  172.2100  138.8810 F   0  0  0  0  0  0  0  0  0  0  0  0
  188.1350  172.5120  141.3190 C   0  0  0  0  0  2  0  0  0  0  0  0
  186.4260  177.3950  143.1600 C   0  0  0  0  0  2  0  0  0  0  0  0
  187.2270  178.3780  142.3180 C   0  0  0  0  0  1  0  0  0  0  0  0
  191.9000  174.4940  145.2620 O   0  0  0  0  0  0  0  0  0  0  0  0
  193.2390  174.7130  144.8110 C   0  0  2  0  0  3  0  0  0  0  0  0
  194.8420  176.4550  144.8070 C   0  0  1  0  0  3  0  0  0  0  0  0
  194.1650  174.4140  145.8220 O   0  0  0  0  0  0  0  0  0  0  0  0
  193.3720  176.2050  142.9670 O   0  0  0  0  0  1  0  0  0  0  0  0
  193.4460  176.1400  144.3580 C   0  0  1  0  0  3  0  0  0  0  0  0
  194.8080  177.6190  145.7780 C   0  0  0  0  0  1  0  0  0  0  0  0
  195.2900  175.2030  145.5320 C   0  0  0  0  0  2  0  0  0  0  0  0
  1 10  1  0  0  0  0
  3  9  1  0  0  0  0
  3  5  1  1  0  0  0
  4  8  2  0  0  0  0
  5 11  1  0  0  0  0
  7  2  2  0  0  0  0
  7  4  1  0  0  0  0
  8  6  1  0  0  0  0
  9 19  1  6  0  0  0
  9  7  1  0  0  0  0
 10  6  2  0  0  0  0
 11  4  1  0  0  0  0
 11  1  2  0  0  0  0
 13 15  1  0  0  0  0
 14 18  1  0  0  0  0
 15 12  1  1  0  0  0
 15  3  1  0  0  0  0
 16 14  2  0  0  0  0
 16 13  1  0  0  0  0
 17 14  1  0  0  0  0
 18 12  1  0  0  0  0
 20 19  1  0  0  0  0
 21  1  1  0  0  0  0
 22 21  1  1  0  0  0
 22 24  1  0  0  0  0
 23 28  1  0  0  0  0
 23 27  1  1  0  0  0
 26 25  1  6  0  0  0
 26 23  1  0  0  0  0
 26 22  1  0  0  0  0
 28 24  1  0  0  0  0
M  END
>  <MODEL>
9

>  <REMARK>
 VINA RESULT:      -6.7      3.475      6.273
  Name = 
  4 active torsions:
  status: ('A' for Active; 'I' for Inactive)
    1  A    between atoms: C_1  and  O_2
    2  A    between atoms: O_2  and  C_3
    3  A    between atoms: C_10  and  C_13
    4  A    between atoms: C_14  and  C_25
                            x       y       z     vdW  Elec       q    Type
                         _______ _______ _______ _____ _____    ______ ____

>  <TORSDO>
F 4

$$$$
