=
 OpenBabel11052417373D

 25 28  0  0  1  0  0  0  0  0999 V2000
  186.6900  177.1500  143.6860 C   0  0  2  0  0  0  0  0  0  0  0  0
  187.9820  177.7010  144.3140 C   0  0  1  0  0  3  0  0  0  0  0  0
  187.9560  177.6540  141.3700 C   0  0  0  0  0  2  0  0  0  0  0  0
  185.3860  177.4740  144.4250 C   0  0  0  0  0  2  0  0  0  0  0  0
  183.1130  178.6640  141.8730 N   0  0  0  0  0  1  0  0  0  0  0  0
  189.0120  178.3760  142.2120 C   0  0  0  0  0  2  0  0  0  0  0  0
  184.1760  177.8700  142.4610 C   0  0  2  0  0  3  0  0  0  0  0  0
  184.6040  178.4780  143.7120 N   0  0  0  0  0  2  0  0  0  0  0  0
  190.2960  178.0470  144.4080 C   0  0  2  0  0  3  0  0  0  0  0  0
  191.6770  177.6130  143.9330 C   0  0  0  0  0  1  0  0  0  0  0  0
  188.3760  177.1740  145.6740 C   0  0  0  0  0  2  0  0  0  0  0  0
  186.5810  175.9170  142.7730 C   0  0  1  0  0  3  0  0  0  0  0  0
  186.6570  177.3240  142.1480 C   0  0  1  0  0  0  0  0  0  0  0  0
  185.3510  177.7950  141.4920 C   0  0  0  0  0  2  0  0  0  0  0  0
  187.8620  175.0910  142.7140 C   0  0  0  0  0  1  0  0  0  0  0  0
  189.8720  177.4960  145.7910 C   0  0  1  0  0  3  0  0  0  0  0  0
  189.2150  177.5700  143.4750 C   0  0  1  0  0  3  0  0  0  0  0  0
  190.6280  176.2350  146.2100 C   0  0  0  0  0  2  0  0  0  0  0  0
  189.6740  175.0790  146.4680 C   0  0  0  0  0  2  0  0  0  0  0  0
  190.0210  173.8920  145.5850 C   0  0  0  0  0  2  0  0  0  0  0  0
  191.1230  174.2630  144.6050 C   0  0  0  0  0  2  0  0  0  0  0  0
  192.2840  173.2770  144.6650 C   0  0  0  0  0  2  0  0  0  0  0  0
  193.3020  173.6780  145.7260 C   0  0  0  0  0  2  0  0  0  0  0  0
  194.0260  174.9590  145.3450 C   0  0  0  0  0  2  0  0  0  0  0  0
  194.2120  175.7570  146.4740 O   0  0  0  0  0  1  0  0  0  0  0  0
  1  2  1  0  0  0  0
  1  4  1  1  0  0  0
  2 11  1  1  0  0  0
  3  6  1  0  0  0  0
  7  5  1  6  0  0  0
  7  8  1  0  0  0  0
  8  4  1  0  0  0  0
  9 10  1  6  0  0  0
  9 16  1  0  0  0  0
 11 16  1  0  0  0  0
 12 15  1  6  0  0  0
 12  1  1  0  0  0  0
 13  3  1  6  0  0  0
 13 12  1  0  0  0  0
 13  1  1  0  0  0  0
 14 13  1  0  0  0  0
 14  7  1  0  0  0  0
 16 18  1  6  0  0  0
 17  6  1  6  0  0  0
 17  2  1  0  0  0  0
 17  9  1  0  0  0  0
 18 19  1  0  0  0  0
 20 19  1  0  0  0  0
 21 22  1  0  0  0  0
 21 20  1  0  0  0  0
 22 23  1  0  0  0  0
 24 23  1  0  0  0  0
 24 25  1  0  0  0  0
M  END
>  <MODEL>
1

>  <REMARK>
 VINA RESULT:      -6.4      0.000      0.000
  Name = 
  7 active torsions:
  status: ('A' for Active; 'I' for Inactive)
    1  A    between atoms: C_2  and  C_7
    2  A    between atoms: C_2  and  C_25
    3  A    between atoms: C_6  and  C_15
    4  A    between atoms: C_6  and  C_21
    5  A    between atoms: C_15  and  C_20
    6  A    between atoms: C_20  and  C_23
    7  A    between atoms: C_21  and  C_25
                            x       y       z     vdW  Elec       q    Type
                         _______ _______ _______ _____ _____    ______ ____

>  <TORSDO>
F 7

$$$$
=
 OpenBabel11052417373D

 25 28  0  0  1  0  0  0  0  0999 V2000
  186.6030  177.2010  143.6640 C   0  0  2  0  0  0  0  0  0  0  0  0
  187.8900  177.7500  144.3060 C   0  0  1  0  0  3  0  0  0  0  0  0
  187.9560  177.5480  141.3680 C   0  0  0  0  0  2  0  0  0  0  0  0
  185.2860  177.5980  144.3420 C   0  0  0  0  0  2  0  0  0  0  0  0
  183.1300  178.7120  141.6570 N   0  0  0  0  0  1  0  0  0  0  0  0
  189.0050  178.2850  142.2070 C   0  0  0  0  0  2  0  0  0  0  0  0
  184.1510  177.9220  142.3210 C   0  0  2  0  0  3  0  0  0  0  0  0
  184.5570  178.5840  143.5520 N   0  0  0  0  0  2  0  0  0  0  0  0
  190.2080  178.0380  144.4580 C   0  0  2  0  0  3  0  0  0  0  0  0
  191.5910  177.5420  144.0530 C   0  0  0  0  0  1  0  0  0  0  0  0
  188.2260  177.2840  145.7030 C   0  0  0  0  0  2  0  0  0  0  0  0
  186.4890  175.9250  142.8140 C   0  0  1  0  0  3  0  0  0  0  0  0
  186.6240  177.2950  142.1190 C   0  0  1  0  0  0  0  0  0  0  0  0
  185.3540  177.7650  141.3970 C   0  0  0  0  0  2  0  0  0  0  0  0
  187.7460  175.0630  142.8400 C   0  0  0  0  0  1  0  0  0  0  0  0
  189.7250  177.5730  145.8530 C   0  0  1  0  0  3  0  0  0  0  0  0
  189.1450  177.5420  143.5160 C   0  0  1  0  0  3  0  0  0  0  0  0
  190.4310  176.3150  146.3620 C   0  0  0  0  0  2  0  0  0  0  0  0
  189.4340  175.2140  146.6850 C   0  0  0  0  0  2  0  0  0  0  0  0
  189.7220  173.9710  145.8600 C   0  0  0  0  0  2  0  0  0  0  0  0
  191.0460  174.1160  145.1260 C   0  0  0  0  0  2  0  0  0  0  0  0
  191.0230  173.4060  143.7780 C   0  0  0  0  0  2  0  0  0  0  0  0
  190.2890  172.0730  143.8630 C   0  0  0  0  0  2  0  0  0  0  0  0
  189.4880  171.7990  142.6000 C   0  0  0  0  0  2  0  0  0  0  0  0
  189.9930  172.5540  141.5410 O   0  0  0  0  0  1  0  0  0  0  0  0
  1  2  1  0  0  0  0
  1  4  1  1  0  0  0
  2 11  1  1  0  0  0
  3  6  1  0  0  0  0
  7  5  1  6  0  0  0
  7  8  1  0  0  0  0
  8  4  1  0  0  0  0
  9 10  1  6  0  0  0
  9 16  1  0  0  0  0
 11 16  1  0  0  0  0
 12 15  1  1  0  0  0
 12  1  1  0  0  0  0
 13  3  1  6  0  0  0
 13 12  1  0  0  0  0
 13  1  1  0  0  0  0
 14 13  1  0  0  0  0
 14  7  1  0  0  0  0
 16 18  1  6  0  0  0
 17  6  1  6  0  0  0
 17  2  1  0  0  0  0
 17  9  1  0  0  0  0
 18 19  1  0  0  0  0
 20 19  1  0  0  0  0
 21 20  1  0  0  0  0
 22 23  1  0  0  0  0
 22 21  1  0  0  0  0
 24 23  1  0  0  0  0
 25 24  1  0  0  0  0
M  END
>  <MODEL>
2

>  <REMARK>
 VINA RESULT:      -6.4      1.716      2.088
  Name = 
  7 active torsions:
  status: ('A' for Active; 'I' for Inactive)
    1  A    between atoms: C_2  and  C_7
    2  A    between atoms: C_2  and  C_25
    3  A    between atoms: C_6  and  C_15
    4  A    between atoms: C_6  and  C_21
    5  A    between atoms: C_15  and  C_20
    6  A    between atoms: C_20  and  C_23
    7  A    between atoms: C_21  and  C_25
                            x       y       z     vdW  Elec       q    Type
                         _______ _______ _______ _____ _____    ______ ____

>  <TORSDO>
F 7

$$$$
=
 OpenBabel11052417373D

 25 28  0  0  1  0  0  0  0  0999 V2000
  189.0250  174.6000  143.0070 C   0  0  2  0  0  0  0  0  0  0  0  0
  188.8110  175.8870  143.8240 C   0  0  1  0  0  3  0  0  0  0  0  0
  191.6100  174.9910  143.6310 C   0  0  0  0  0  2  0  0  0  0  0  0
  188.1090  174.4100  141.7920 C   0  0  0  0  0  2  0  0  0  0  0  0
  190.3110  173.4810  139.0740 N   0  0  0  0  0  1  0  0  0  0  0  0
  191.1760  176.3570  144.1720 C   0  0  0  0  0  2  0  0  0  0  0  0
  189.8110  173.5490  140.4350 C   0  0  2  0  0  3  0  0  0  0  0  0
  188.8310  174.6200  140.5430 N   0  0  0  0  0  2  0  0  0  0  0  0
  189.2820  177.3750  145.5690 C   0  0  2  0  0  3  0  0  0  0  0  0
  189.9390  177.5920  146.9270 C   0  0  0  0  0  1  0  0  0  0  0  0
  187.4870  176.0510  144.5330 C   0  0  0  0  0  2  0  0  0  0  0  0
  189.6210  173.2840  143.5320 C   0  0  1  0  0  3  0  0  0  0  0  0
  190.5230  174.2840  142.7810 C   0  0  1  0  0  0  0  0  0  0  0  0
  190.9700  173.8110  141.3900 C   0  0  0  0  0  2  0  0  0  0  0  0
  189.7800  173.2500  145.0480 C   0  0  0  0  0  1  0  0  0  0  0  0
  187.7580  177.1090  145.6100 C   0  0  1  0  0  3  0  0  0  0  0  0
  189.8470  176.1700  144.8670 C   0  0  1  0  0  3  0  0  0  0  0  0
  187.2580  176.5930  146.9600 C   0  0  0  0  0  2  0  0  0  0  0  0
  185.8370  177.0560  147.2380 C   0  0  0  0  0  2  0  0  0  0  0  0
  185.5760  178.4040  146.5850 C   0  0  0  0  0  2  0  0  0  0  0  0
  184.2420  178.3910  145.8560 C   0  0  0  0  0  2  0  0  0  0  0  0
  184.2360  179.3570  144.6770 C   0  0  0  0  0  2  0  0  0  0  0  0
  185.6130  179.4560  144.0300 C   0  0  0  0  0  2  0  0  0  0  0  0
  185.6590  178.7110  142.7060 C   0  0  0  0  0  2  0  0  0  0  0  0
  186.9690  178.6670  142.2290 O   0  0  0  0  0  1  0  0  0  0  0  0
  1  4  1  6  0  0  0
  1 12  1  0  0  0  0
  1  2  1  0  0  0  0
  2 11  1  1  0  0  0
  2 17  1  0  0  0  0
  3  6  1  0  0  0  0
  7  5  1  6  0  0  0
  7  8  1  0  0  0  0
  7 14  1  0  0  0  0
  8  4  1  0  0  0  0
  9 16  1  0  0  0  0
  9 10  1  1  0  0  0
 11 16  1  0  0  0  0
 12 15  1  1  0  0  0
 13 14  1  6  0  0  0
 13  1  1  0  0  0  0
 13 12  1  0  0  0  0
 13  3  1  0  0  0  0
 16 18  1  1  0  0  0
 17  6  1  6  0  0  0
 17  9  1  0  0  0  0
 18 19  1  0  0  0  0
 20 19  1  0  0  0  0
 21 20  1  0  0  0  0
 22 21  1  0  0  0  0
 23 22  1  0  0  0  0
 24 23  1  0  0  0  0
 25 24  1  0  0  0  0
M  END
>  <MODEL>
3

>  <REMARK>
 VINA RESULT:      -6.3      3.351      5.987
  Name = 
  7 active torsions:
  status: ('A' for Active; 'I' for Inactive)
    1  A    between atoms: C_2  and  C_7
    2  A    between atoms: C_2  and  C_25
    3  A    between atoms: C_6  and  C_15
    4  A    between atoms: C_6  and  C_21
    5  A    between atoms: C_15  and  C_20
    6  A    between atoms: C_20  and  C_23
    7  A    between atoms: C_21  and  C_25
                            x       y       z     vdW  Elec       q    Type
                         _______ _______ _______ _____ _____    ______ ____

>  <TORSDO>
F 7

$$$$
=
 OpenBabel11052417373D

 25 28  0  0  1  0  0  0  0  0999 V2000
  192.1870  175.5450  144.2920 C   0  0  2  0  0  0  0  0  0  0  0  0
  191.1100  176.5790  144.6640 C   0  0  1  0  0  3  0  0  0  0  0  0
  192.2670  175.1180  146.9440 C   0  0  0  0  0  2  0  0  0  0  0  0
  193.1010  175.9120  143.1170 C   0  0  0  0  0  2  0  0  0  0  0  0
  196.4620  175.2380  144.2770 N   0  0  0  0  0  1  0  0  0  0  0  0
  191.3700  176.3540  147.0760 C   0  0  0  0  0  2  0  0  0  0  0  0
  195.0290  175.0590  144.1340 C   0  0  2  0  0  3  0  0  0  0  0  0
  194.4400  176.2660  143.5740 N   0  0  0  0  0  2  0  0  0  0  0  0
  189.3190  177.3880  145.9370 C   0  0  2  0  0  3  0  0  0  0  0  0
  188.1920  177.0700  146.9110 C   0  0  0  0  0  1  0  0  0  0  0  0
  190.0330  176.8630  143.6430 C   0  0  0  0  0  2  0  0  0  0  0  0
  192.1200  174.0320  144.5620 C   0  0  1  0  0  3  0  0  0  0  0  0
  192.8900  174.9470  145.5350 C   0  0  1  0  0  0  0  0  0  0  0  0
  194.4140  174.7690  145.4990 C   0  0  0  0  0  2  0  0  0  0  0  0
  190.7500  173.5590  145.0330 C   0  0  0  0  0  1  0  0  0  0  0  0
  188.8950  177.4980  144.4520 C   0  0  1  0  0  3  0  0  0  0  0  0
  190.3730  176.3140  145.9410 C   0  0  1  0  0  3  0  0  0  0  0  0
  187.5850  176.7770  144.1310 C   0  0  0  0  0  2  0  0  0  0  0  0
  187.0750  177.1500  142.7480 C   0  0  0  0  0  2  0  0  0  0  0  0
  185.6910  177.7720  142.8370 C   0  0  0  0  0  2  0  0  0  0  0  0
  185.7830  179.2020  143.3450 C   0  0  0  0  0  2  0  0  0  0  0  0
  184.8150  179.4540  144.4940 C   0  0  0  0  0  2  0  0  0  0  0  0
  185.4970  179.2800  145.8460 C   0  0  0  0  0  2  0  0  0  0  0  0
  184.6890  178.3760  146.7630 C   0  0  0  0  0  2  0  0  0  0  0  0
  184.7170  177.0650  146.2880 O   0  0  0  0  0  1  0  0  0  0  0  0
  1  4  1  6  0  0  0
  1 12  1  0  0  0  0
  1  2  1  0  0  0  0
  1 13  1  0  0  0  0
  2 11  1  6  0  0  0
  2 17  1  0  0  0  0
  3  6  1  0  0  0  0
  4  8  1  0  0  0  0
  7  5  1  1  0  0  0
  7 14  1  0  0  0  0
  8  7  1  0  0  0  0
  9 17  1  0  0  0  0
  9 10  1  1  0  0  0
 11 16  1  0  0  0  0
 12 15  1  1  0  0  0
 12 13  1  0  0  0  0
 13 14  1  6  0  0  0
 13  3  1  0  0  0  0
 16 18  1  1  0  0  0
 16  9  1  0  0  0  0
 17  6  1  1  0  0  0
 19 20  1  0  0  0  0
 19 18  1  0  0  0  0
 20 21  1  0  0  0  0
 21 22  1  0  0  0  0
 22 23  1  0  0  0  0
 23 24  1  0  0  0  0
 25 24  1  0  0  0  0
M  END
>  <MODEL>
4

>  <REMARK>
 VINA RESULT:      -6.2      3.973      7.477
  Name = 
  7 active torsions:
  status: ('A' for Active; 'I' for Inactive)
    1  A    between atoms: C_2  and  C_7
    2  A    between atoms: C_2  and  C_25
    3  A    between atoms: C_6  and  C_15
    4  A    between atoms: C_6  and  C_21
    5  A    between atoms: C_15  and  C_20
    6  A    between atoms: C_20  and  C_23
    7  A    between atoms: C_21  and  C_25
                            x       y       z     vdW  Elec       q    Type
                         _______ _______ _______ _____ _____    ______ ____

>  <TORSDO>
F 7

$$$$
=
 OpenBabel11052417373D

 25 28  0  0  1  0  0  0  0  0999 V2000
  187.0890  176.9330  144.0300 C   0  0  2  0  0  0  0  0  0  0  0  0
  188.5350  177.2490  144.4510 C   0  0  1  0  0  3  0  0  0  0  0  0
  187.9060  177.8370  141.6350 C   0  0  0  0  0  2  0  0  0  0  0  0
  186.0080  177.1780  145.0890 C   0  0  0  0  0  2  0  0  0  0  0  0
  183.4100  179.0360  143.3880 N   0  0  0  0  0  1  0  0  0  0  0  0
  189.1860  178.2890  142.3460 C   0  0  0  0  0  2  0  0  0  0  0  0
  184.4750  178.0650  143.5590 C   0  0  2  0  0  3  0  0  0  0  0  0
  185.2140  178.3610  144.7770 N   0  0  0  0  0  2  0  0  0  0  0  0
  190.8440  177.4110  144.0940 C   0  0  2  0  0  3  0  0  0  0  0  0
  192.0430  176.9980  143.2490 C   0  0  0  0  0  1  0  0  0  0  0  0
  189.1370  176.4170  145.5590 C   0  0  0  0  0  2  0  0  0  0  0  0
  186.6610  175.9350  142.9420 C   0  0  1  0  0  3  0  0  0  0  0  0
  186.7640  177.4350  142.6030 C   0  0  1  0  0  0  0  0  0  0  0  0
  185.4130  178.1220  142.3580 C   0  0  0  0  0  2  0  0  0  0  0  0
  187.8020  175.0570  142.4400 C   0  0  0  0  0  1  0  0  0  0  0  0
  190.6510  176.6070  145.4020 C   0  0  1  0  0  3  0  0  0  0  0  0
  189.5500  177.2200  143.3500 C   0  0  1  0  0  3  0  0  0  0  0  0
  191.3320  175.2370  145.3890 C   0  0  0  0  0  2  0  0  0  0  0  0
  192.2580  175.0690  146.5820 C   0  0  0  0  0  2  0  0  0  0  0  0
  192.8100  176.4130  147.0260 C   0  0  0  0  0  2  0  0  0  0  0  0
  194.2170  176.6140  146.4830 C   0  0  0  0  0  2  0  0  0  0  0  0
  194.8820  175.2870  146.1380 C   0  0  0  0  0  2  0  0  0  0  0  0
  195.5620  175.3420  144.7760 C   0  0  0  0  0  2  0  0  0  0  0  0
  195.6880  176.7710  144.2750 C   0  0  0  0  0  2  0  0  0  0  0  0
  196.3490  176.7910  143.0480 O   0  0  0  0  0  1  0  0  0  0  0  0
  1  2  1  0  0  0  0
  1  4  1  1  0  0  0
  2 11  1  1  0  0  0
  3  6  1  0  0  0  0
  7  5  1  6  0  0  0
  7  8  1  0  0  0  0
  8  4  1  0  0  0  0
  9 10  1  6  0  0  0
  9 16  1  0  0  0  0
 12 15  1  6  0  0  0
 12  1  1  0  0  0  0
 13  3  1  6  0  0  0
 13 12  1  0  0  0  0
 13  1  1  0  0  0  0
 14 13  1  0  0  0  0
 14  7  1  0  0  0  0
 16 18  1  6  0  0  0
 16 11  1  0  0  0  0
 17  6  1  6  0  0  0
 17  9  1  0  0  0  0
 17  2  1  0  0  0  0
 18 19  1  0  0  0  0
 19 20  1  0  0  0  0
 21 20  1  0  0  0  0
 22 21  1  0  0  0  0
 23 22  1  0  0  0  0
 24 23  1  0  0  0  0
 25 24  1  0  0  0  0
M  END
>  <MODEL>
5

>  <REMARK>
 VINA RESULT:      -6.2      1.491      2.032
  Name = 
  7 active torsions:
  status: ('A' for Active; 'I' for Inactive)
    1  A    between atoms: C_2  and  C_7
    2  A    between atoms: C_2  and  C_25
    3  A    between atoms: C_6  and  C_15
    4  A    between atoms: C_6  and  C_21
    5  A    between atoms: C_15  and  C_20
    6  A    between atoms: C_20  and  C_23
    7  A    between atoms: C_21  and  C_25
                            x       y       z     vdW  Elec       q    Type
                         _______ _______ _______ _____ _____    ______ ____

>  <TORSDO>
F 7

$$$$
=
 OpenBabel11052417373D

 25 28  0  0  1  0  0  0  0  0999 V2000
  188.6320  176.5550  142.8370 C   0  0  2  0  0  0  0  0  0  0  0  0
  188.8140  175.4580  143.9020 C   0  0  1  0  0  3  0  0  0  0  0  0
  187.6590  177.9770  144.9000 C   0  0  0  0  0  2  0  0  0  0  0  0
  188.2450  176.0780  141.4330 C   0  0  0  0  0  2  0  0  0  0  0  0
  185.4850  178.1930  140.4330 N   0  0  0  0  0  1  0  0  0  0  0  0
  187.7060  176.6710  145.7010 C   0  0  0  0  0  2  0  0  0  0  0  0
  186.7360  177.8300  141.0720 C   0  0  2  0  0  3  0  0  0  0  0  0
  186.8510  176.3800  141.1320 N   0  0  0  0  0  2  0  0  0  0  0  0
  189.2750  174.6750  146.0590 C   0  0  2  0  0  3  0  0  0  0  0  0
  189.8870  174.9630  147.4250 C   0  0  0  0  0  1  0  0  0  0  0  0
  189.9390  174.4700  143.7000 C   0  0  0  0  0  2  0  0  0  0  0  0
  189.2910  177.9440  142.8480 C   0  0  1  0  0  3  0  0  0  0  0  0
  187.8520  177.7790  143.3750 C   0  0  1  0  0  0  0  0  0  0  0  0
  186.7750  178.4110  142.4810 C   0  0  0  0  0  2  0  0  0  0  0  0
  190.3770  178.0930  143.9080 C   0  0  0  0  0  1  0  0  0  0  0  0
  190.1740  173.8680  145.0920 C   0  0  1  0  0  3  0  0  0  0  0  0
  188.9720  175.9440  145.3100 C   0  0  1  0  0  3  0  0  0  0  0  0
  191.6640  173.9440  145.4270 C   0  0  0  0  0  2  0  0  0  0  0  0
  192.3790  174.9560  144.5460 C   0  0  0  0  0  2  0  0  0  0  0  0
  192.8780  176.1290  145.3740 C   0  0  0  0  0  2  0  0  0  0  0  0
  193.9680  175.6770  146.3330 C   0  0  0  0  0  2  0  0  0  0  0  0
  195.2900  175.4440  145.6120 C   0  0  0  0  0  2  0  0  0  0  0  0
  195.5550  176.5250  144.5710 C   0  0  0  0  0  2  0  0  0  0  0  0
  196.5220  176.0410  143.5020 C   0  0  0  0  0  2  0  0  0  0  0  0
  196.4090  176.8340  142.3610 O   0  0  0  0  0  1  0  0  0  0  0  0
  1  4  1  6  0  0  0
  1 12  1  0  0  0  0
  1 13  1  0  0  0  0
  1  2  1  0  0  0  0
  2 11  1  6  0  0  0
  2 17  1  0  0  0  0
  3  6  1  0  0  0  0
  7  5  1  1  0  0  0
  7  8  1  0  0  0  0
  7 14  1  0  0  0  0
  8  4  1  0  0  0  0
  9 10  1  1  0  0  0
 11 16  1  0  0  0  0
 12 13  1  0  0  0  0
 12 15  1  1  0  0  0
 13 14  1  6  0  0  0
 13  3  1  0  0  0  0
 16 18  1  1  0  0  0
 16  9  1  0  0  0  0
 17  6  1  1  0  0  0
 17  9  1  0  0  0  0
 19 20  1  0  0  0  0
 19 18  1  0  0  0  0
 20 21  1  0  0  0  0
 22 21  1  0  0  0  0
 23 22  1  0  0  0  0
 24 23  1  0  0  0  0
 25 24  1  0  0  0  0
M  END
>  <MODEL>
6

>  <REMARK>
 VINA RESULT:      -6.1      1.906      3.491
  Name = 
  7 active torsions:
  status: ('A' for Active; 'I' for Inactive)
    1  A    between atoms: C_2  and  C_7
    2  A    between atoms: C_2  and  C_25
    3  A    between atoms: C_6  and  C_15
    4  A    between atoms: C_6  and  C_21
    5  A    between atoms: C_15  and  C_20
    6  A    between atoms: C_20  and  C_23
    7  A    between atoms: C_21  and  C_25
                            x       y       z     vdW  Elec       q    Type
                         _______ _______ _______ _____ _____    ______ ____

>  <TORSDO>
F 7

$$$$
=
 OpenBabel11052417373D

 25 28  0  0  1  0  0  0  0  0999 V2000
  187.4910  176.5840  144.2340 C   0  0  2  0  0  0  0  0  0  0  0  0
  188.9640  176.3160  144.5930 C   0  0  1  0  0  3  0  0  0  0  0  0
  188.5500  177.8340  142.1040 C   0  0  0  0  0  2  0  0  0  0  0  0
  186.5430  176.8350  145.4120 C   0  0  0  0  0  2  0  0  0  0  0  0
  184.6620  179.7920  144.5080 N   0  0  0  0  0  1  0  0  0  0  0  0
  189.9070  177.6600  142.7930 C   0  0  0  0  0  2  0  0  0  0  0  0
  185.3660  178.5380  144.3180 C   0  0  2  0  0  3  0  0  0  0  0  0
  186.1620  178.2400  145.5000 N   0  0  0  0  0  2  0  0  0  0  0  0
  191.2050  175.8670  144.0870 C   0  0  2  0  0  3  0  0  0  0  0  0
  192.2120  175.3660  143.0590 C   0  0  0  0  0  1  0  0  0  0  0  0
  189.2730  175.0650  145.3810 C   0  0  0  0  0  2  0  0  0  0  0  0
  186.7690  176.1110  142.9620 C   0  0  1  0  0  3  0  0  0  0  0  0
  187.3400  177.5410  143.0280 C   0  0  1  0  0  0  0  0  0  0  0  0
  186.2730  178.6440  143.0970 C   0  0  0  0  0  2  0  0  0  0  0  0
  187.5750  175.1080  142.1440 C   0  0  0  0  0  1  0  0  0  0  0  0
  190.7700  174.8240  145.1450 C   0  0  1  0  0  3  0  0  0  0  0  0
  189.9160  176.2930  143.4380 C   0  0  1  0  0  3  0  0  0  0  0  0
  190.9840  173.3750  144.7060 C   0  0  0  0  0  2  0  0  0  0  0  0
  189.7070  172.5610  144.8450 C   0  0  0  0  0  2  0  0  0  0  0  0
  189.3250  171.9320  143.5150 C   0  0  0  0  0  2  0  0  0  0  0  0
  190.3320  172.3100  142.4410 C   0  0  0  0  0  2  0  0  0  0  0  0
  189.7120  172.2680  141.0490 C   0  0  0  0  0  2  0  0  0  0  0  0
  190.2020  173.4230  140.1850 C   0  0  0  0  0  2  0  0  0  0  0  0
  189.2590  173.6850  139.0220 C   0  0  0  0  0  2  0  0  0  0  0  0
  188.1770  172.8070  139.0770 O   0  0  0  0  0  1  0  0  0  0  0  0
  1  2  1  0  0  0  0
  1  4  1  1  0  0  0
  2 11  1  6  0  0  0
  3  6  1  0  0  0  0
  4  8  1  0  0  0  0
  7  5  1  1  0  0  0
  7  8  1  0  0  0  0
  9 10  1  6  0  0  0
  9 16  1  0  0  0  0
 12 15  1  6  0  0  0
 12 13  1  0  0  0  0
 12  1  1  0  0  0  0
 13  3  1  6  0  0  0
 13 14  1  0  0  0  0
 13  1  1  0  0  0  0
 14  7  1  0  0  0  0
 16 18  1  6  0  0  0
 16 11  1  0  0  0  0
 17  6  1  1  0  0  0
 17  9  1  0  0  0  0
 17  2  1  0  0  0  0
 18 19  1  0  0  0  0
 20 19  1  0  0  0  0
 21 20  1  0  0  0  0
 22 21  1  0  0  0  0
 23 22  1  0  0  0  0
 24 25  1  0  0  0  0
 24 23  1  0  0  0  0
M  END
>  <MODEL>
7

>  <REMARK>
 VINA RESULT:      -6.0      2.830      3.618
  Name = 
  7 active torsions:
  status: ('A' for Active; 'I' for Inactive)
    1  A    between atoms: C_2  and  C_7
    2  A    between atoms: C_2  and  C_25
    3  A    between atoms: C_6  and  C_15
    4  A    between atoms: C_6  and  C_21
    5  A    between atoms: C_15  and  C_20
    6  A    between atoms: C_20  and  C_23
    7  A    between atoms: C_21  and  C_25
                            x       y       z     vdW  Elec       q    Type
                         _______ _______ _______ _____ _____    ______ ____

>  <TORSDO>
F 7

$$$$
=
 OpenBabel11052417373D

 25 28  0  0  1  0  0  0  0  0999 V2000
  189.6580  174.3100  143.2150 C   0  0  2  0  0  0  0  0  0  0  0  0
  189.1190  174.6510  144.6160 C   0  0  1  0  0  3  0  0  0  0  0  0
  188.4900  176.6320  142.5290 C   0  0  0  0  0  2  0  0  0  0  0  0
  189.6660  172.8250  142.8370 C   0  0  0  0  0  2  0  0  0  0  0  0
  188.1950  172.6730  139.5340 N   0  0  0  0  0  1  0  0  0  0  0  0
  187.8630  176.6220  143.9270 C   0  0  0  0  0  2  0  0  0  0  0  0
  188.9730  173.2100  140.6350 C   0  0  2  0  0  3  0  0  0  0  0  0
  188.6240  172.5160  141.8650 N   0  0  0  0  0  2  0  0  0  0  0  0
  188.5380  176.1150  146.3480 C   0  0  2  0  0  3  0  0  0  0  0  0
  188.6870  177.5030  146.9590 C   0  0  0  0  0  1  0  0  0  0  0  0
  189.8960  174.1380  145.8060 C   0  0  0  0  0  2  0  0  0  0  0  0
  190.6520  175.1520  142.3980 C   0  0  1  0  0  3  0  0  0  0  0  0
  189.1390  175.2820  142.1280 C   0  0  1  0  0  0  0  0  0  0  0  0
  188.6850  174.7000  140.7810 C   0  0  0  0  0  2  0  0  0  0  0  0
  191.2870  176.2860  143.1960 C   0  0  0  0  0  1  0  0  0  0  0  0
  189.4370  175.0210  146.9730 C   0  0  1  0  0  3  0  0  0  0  0  0
  188.9090  176.1090  144.8900 C   0  0  1  0  0  3  0  0  0  0  0  0
  190.6640  175.5730  147.7000 C   0  0  0  0  0  2  0  0  0  0  0  0
  191.9400  175.2890  146.9240 C   0  0  0  0  0  2  0  0  0  0  0  0
  192.7190  176.5730  146.6860 C   0  0  0  0  0  2  0  0  0  0  0  0
  194.1930  176.2670  146.4730 C   0  0  0  0  0  2  0  0  0  0  0  0
  194.3950  174.9320  145.7660 C   0  0  0  0  0  2  0  0  0  0  0  0
  195.6800  174.9230  144.9480 C   0  0  0  0  0  2  0  0  0  0  0  0
  195.7700  176.1400  144.0420 C   0  0  0  0  0  2  0  0  0  0  0  0
  194.8290  176.0430  143.0160 O   0  0  0  0  0  1  0  0  0  0  0  0
  1  4  1  6  0  0  0
  1  2  1  0  0  0  0
  2 17  1  0  0  0  0
  2 11  1  1  0  0  0
  3  6  1  0  0  0  0
  7  5  1  6  0  0  0
  7 14  1  0  0  0  0
  7  8  1  0  0  0  0
  8  4  1  0  0  0  0
  9 10  1  1  0  0  0
  9 16  1  0  0  0  0
 11 16  1  0  0  0  0
 12 15  1  1  0  0  0
 12  1  1  0  0  0  0
 13 14  1  6  0  0  0
 13 12  1  0  0  0  0
 13  3  1  0  0  0  0
 13  1  1  0  0  0  0
 16 18  1  6  0  0  0
 17  6  1  6  0  0  0
 17  9  1  0  0  0  0
 19 18  1  0  0  0  0
 20 19  1  0  0  0  0
 21 20  1  0  0  0  0
 22 21  1  0  0  0  0
 23 22  1  0  0  0  0
 24 23  1  0  0  0  0
 25 24  1  0  0  0  0
M  END
>  <MODEL>
8

>  <REMARK>
 VINA RESULT:      -5.9      2.977      4.197
  Name = 
  7 active torsions:
  status: ('A' for Active; 'I' for Inactive)
    1  A    between atoms: C_2  and  C_7
    2  A    between atoms: C_2  and  C_25
    3  A    between atoms: C_6  and  C_15
    4  A    between atoms: C_6  and  C_21
    5  A    between atoms: C_15  and  C_20
    6  A    between atoms: C_20  and  C_23
    7  A    between atoms: C_21  and  C_25
                            x       y       z     vdW  Elec       q    Type
                         _______ _______ _______ _____ _____    ______ ____

>  <TORSDO>
F 7

$$$$
=
 OpenBabel11052417373D

 25 28  0  0  1  0  0  0  0  0999 V2000
  188.1640  176.5610  143.4840 C   0  0  2  0  0  0  0  0  0  0  0  0
  188.5660  175.4520  144.4730 C   0  0  1  0  0  3  0  0  0  0  0  0
  187.6960  177.9740  145.7220 C   0  0  0  0  0  2  0  0  0  0  0  0
  187.4660  176.1010  142.1990 C   0  0  0  0  0  2  0  0  0  0  0  0
  184.5780  178.2540  141.8580 N   0  0  0  0  0  1  0  0  0  0  0  0
  187.9060  176.6610  146.4830 C   0  0  0  0  0  2  0  0  0  0  0  0
  185.9360  177.8720  142.1970 C   0  0  2  0  0  3  0  0  0  0  0  0
  186.0430  176.4210  142.2210 N   0  0  0  0  0  2  0  0  0  0  0  0
  189.4900  174.6440  146.4670 C   0  0  2  0  0  3  0  0  0  0  0  0
  190.3960  174.9140  147.6620 C   0  0  0  0  0  1  0  0  0  0  0  0
  189.6050  174.4550  144.0170 C   0  0  0  0  0  2  0  0  0  0  0  0
  188.8260  177.9430  143.3550 C   0  0  1  0  0  3  0  0  0  0  0  0
  187.5390  177.7880  144.1910 C   0  0  1  0  0  0  0  0  0  0  0  0
  186.2980  178.4400  143.5650 C   0  0  0  0  0  2  0  0  0  0  0  0
  190.1240  178.0710  144.1460 C   0  0  0  0  0  1  0  0  0  0  0  0
  190.1390  173.8370  145.3170 C   0  0  1  0  0  3  0  0  0  0  0  0
  189.0420  175.9230  145.8130 C   0  0  1  0  0  3  0  0  0  0  0  0
  191.6670  173.8940  145.3100 C   0  0  0  0  0  2  0  0  0  0  0  0
  192.1840  174.7500  144.1650 C   0  0  0  0  0  2  0  0  0  0  0  0
  193.1180  175.8310  144.6840 C   0  0  0  0  0  2  0  0  0  0  0  0
  193.6000  175.4890  146.0840 C   0  0  0  0  0  2  0  0  0  0  0  0
  195.1120  175.3020  146.1280 C   0  0  0  0  0  2  0  0  0  0  0  0
  195.6240  174.5990  144.8770 C   0  0  0  0  0  2  0  0  0  0  0  0
  197.0700  174.1610  145.0390 C   0  0  0  0  0  2  0  0  0  0  0  0
  197.8780  174.8290  144.1200 O   0  0  0  0  0  1  0  0  0  0  0  0
  1  4  1  6  0  0  0
  1 13  1  0  0  0  0
  1  2  1  0  0  0  0
  2 11  1  6  0  0  0
  2 17  1  0  0  0  0
  3  6  1  0  0  0  0
  4  8  1  0  0  0  0
  7  5  1  1  0  0  0
  7  8  1  0  0  0  0
  7 14  1  0  0  0  0
  9 10  1  1  0  0  0
 11 16  1  0  0  0  0
 12  1  1  0  0  0  0
 12 15  1  1  0  0  0
 12 13  1  0  0  0  0
 13 14  1  6  0  0  0
 13  3  1  0  0  0  0
 16 18  1  6  0  0  0
 16  9  1  0  0  0  0
 17  9  1  0  0  0  0
 17  6  1  1  0  0  0
 19 20  1  0  0  0  0
 19 18  1  0  0  0  0
 20 21  1  0  0  0  0
 21 22  1  0  0  0  0
 23 24  1  0  0  0  0
 23 22  1  0  0  0  0
 25 24  1  0  0  0  0
M  END
>  <MODEL>
9

>  <REMARK>
 VINA RESULT:      -5.8      1.673      3.334
  Name = 
  7 active torsions:
  status: ('A' for Active; 'I' for Inactive)
    1  A    between atoms: C_2  and  C_7
    2  A    between atoms: C_2  and  C_25
    3  A    between atoms: C_6  and  C_15
    4  A    between atoms: C_6  and  C_21
    5  A    between atoms: C_15  and  C_20
    6  A    between atoms: C_20  and  C_23
    7  A    between atoms: C_21  and  C_25
                            x       y       z     vdW  Elec       q    Type
                         _______ _______ _______ _____ _____    ______ ____

>  <TORSDO>
F 7

$$$$
