=
 OpenBabel11052419203D

 32 33  0  0  1  0  0  0  0  0999 V2000
  187.3530  178.0430  143.4320 C   0  0  1  0  0  3  0  0  0  0  0  0
  188.1300  177.3750  144.5240 C   0  0  0  0  0  0  0  0  0  0  0  0
  187.4470  176.6310  145.4980 C   0  0  0  0  0  3  0  0  0  0  0  0
  192.3570  176.0770  146.5140 C   0  0  0  0  0  3  0  0  0  0  0  0
  189.5330  177.4120  144.5300 C   0  0  0  0  0  3  0  0  0  0  0  0
  190.2730  175.2840  147.4760 C   0  0  0  0  0  3  0  0  0  0  0  0
  189.5550  175.9780  146.4960 C   0  0  0  0  0  0  0  0  0  0  0  0
  188.1570  175.9360  146.4830 C   0  0  0  0  0  3  0  0  0  0  0  0
  190.2480  176.7280  145.5150 C   0  0  0  0  0  0  0  0  0  0  0  0
  191.6720  175.3340  147.4850 C   0  0  0  0  0  3  0  0  0  0  0  0
  191.6460  176.7720  145.5300 C   0  0  0  0  0  3  0  0  0  0  0  0
  187.8140  177.6160  142.1790 O   0  0  0  0  0  0  0  0  0  0  0  0
  187.0050  176.5260  141.8310 C   0  0  0  0  0  2  0  0  0  0  0  0
  187.8440  175.3120  141.6090 C   0  0  0  0  0  0  0  0  0  0  0  0
  188.2690  175.0590  140.4510 O   0  0  0  0  0  0  0  0  0  0  0  0
  188.1920  174.5010  142.6920 O   0  0  0  0  0  0  0  0  0  0  0  0
  189.0010  173.3400  142.5450 C   0  0  0  0  0  2  0  0  0  0  0  0
  190.4520  173.6100  142.9570 C   0  0  1  0  0  3  0  0  0  0  0  0
  190.7460  173.0620  144.3160 C   0  0  0  0  0  0  0  0  0  0  0  0
  189.7100  172.7100  145.1760 O   0  0  0  0  0  1  0  0  0  0  0  0
  191.9850  172.8980  144.6960 C   0  0  0  0  0  0  0  0  0  0  0  0
  193.1590  172.7400  145.0620 O   0  0  0  0  0  0  0  0  0  0  0  0
  191.4570  173.0780  141.9380 C   0  0  0  0  0  2  0  0  0  0  0  0
  191.3250  173.7070  139.7720 O   0  0  0  0  0  1  0  0  0  0  0  0
  191.8020  174.1110  140.9740 N   0  0  0  0  0  2  0  0  0  0  0  0
  185.9350  177.7210  143.5650 N   0  0  0  0  0  2  0  0  0  0  0  0
  183.9560  178.6140  143.1480 O   0  0  0  0  0  1  0  0  0  0  0  0
  185.2210  178.9260  143.5170 N   0  0  0  0  0  0  0  0  0  0  0  0
  185.1400  179.4190  144.8810 C   0  0  0  0  0  2  0  0  0  0  0  0
  184.1470  178.5920  145.6880 C   0  0  0  0  0  2  0  0  0  0  0  0
  185.8520  179.2340  147.3860 C   0  0  0  0  0  1  0  0  0  0  0  0
  184.6340  178.3760  147.1090 C   0  0  0  0  0  2  0  0  0  0  0  0
  1 12  1  6  0  0  0
  1 26  1  0  0  0  0
  1  2  1  0  0  0  0
  2  5  2  0  0  0  0
  2  3  1  0  0  0  0
  3  8  2  0  0  0  0
  4 10  1  0  0  0  0
  5  9  1  0  0  0  0
  6 10  2  0  0  0  0
  7  6  1  0  0  0  0
  8  7  1  0  0  0  0
  9 11  1  0  0  0  0
  9  7  2  0  0  0  0
 11  4  2  0  0  0  0
 13 12  1  0  0  0  0
 14 13  1  0  0  0  0
 14 16  1  0  0  0  0
 15 14  2  0  0  0  0
 17 16  1  0  0  0  0
 17 18  1  0  0  0  0
 18 23  1  6  0  0  0
 18 19  1  0  0  0  0
 19 21  2  0  0  0  0
 19 20  1  0  0  0  0
 21 22  2  0  0  0  0
 24 25  1  0  0  0  0
 25 23  1  0  0  0  0
 27 28  1  0  0  0  0
 28 26  1  0  0  0  0
 28 29  1  0  0  0  0
 29 30  1  0  0  0  0
 30 32  1  0  0  0  0
 32 31  1  0  0  0  0
M  END
>  <MODEL>
1

>  <REMARK>
 VINA RESULT:      -6.0      0.000      0.000
  Name = 
  15 active torsions:
  status: ('A' for Active; 'I' for Inactive)
    1  A    between atoms: O_1  and  C_4
    2  A    between atoms: O_1  and  C_5
    3  A    between atoms: C_2  and  C_5
    4  A    between atoms: C_3  and  C_20
    5  A    between atoms: C_4  and  C_24
    6  A    between atoms: C_5  and  N_14
    7  A    between atoms: C_13  and  C_18
    8  A    between atoms: C_13  and  C_29
    9  A    between atoms: N_14  and  N_30
   10  A    between atoms: C_15  and  O_16
   11  A    between atoms: C_15  and  C_20
   12  A    between atoms: O_16  and  C_24
   13  A    between atoms: C_18  and  N_30
   14  A    between atoms: N_19  and  C_26
   15  A    between atoms: C_20  and  C_26
                            x       y       z     vdW  Elec       q    Type
                         _______ _______ _______ _____ _____    ______ ____

>  <TORSDO>
F 15

$$$$
=
 OpenBabel11052419203D

 32 33  0  0  1  0  0  0  0  0999 V2000
  187.8500  177.9860  143.0800 C   0  0  1  0  0  3  0  0  0  0  0  0
  188.4690  177.3280  144.2740 C   0  0  0  0  0  0  0  0  0  0  0  0
  187.6590  176.5940  145.1520 C   0  0  0  0  0  3  0  0  0  0  0  0
  192.3830  176.0470  146.8360 C   0  0  0  0  0  3  0  0  0  0  0  0
  189.8580  177.3650  144.4720 C   0  0  0  0  0  3  0  0  0  0  0  0
  190.1850  175.2640  147.5110 C   0  0  0  0  0  3  0  0  0  0  0  0
  189.6100  175.9490  146.4360 C   0  0  0  0  0  0  0  0  0  0  0  0
  188.2260  175.9080  146.2320 C   0  0  0  0  0  3  0  0  0  0  0  0
  190.4310  176.6900  145.5520 C   0  0  0  0  0  0  0  0  0  0  0  0
  191.5700  175.3140  147.7100 C   0  0  0  0  0  3  0  0  0  0  0  0
  191.8140  176.7340  145.7570 C   0  0  0  0  0  3  0  0  0  0  0  0
  188.4420  177.5080  141.9030 O   0  0  0  0  0  0  0  0  0  0  0  0
  187.5770  176.5160  141.4220 C   0  0  0  0  0  2  0  0  0  0  0  0
  188.3120  175.2290  141.2520 C   0  0  0  0  0  0  0  0  0  0  0  0
  188.3550  174.6890  140.1150 O   0  0  0  0  0  0  0  0  0  0  0  0
  188.9860  174.6660  142.3380 O   0  0  0  0  0  0  0  0  0  0  0  0
  190.3810  174.3840  142.3050 C   0  0  0  0  0  2  0  0  0  0  0  0
  190.8470  173.7040  143.5980 C   0  0  1  0  0  3  0  0  0  0  0  0
  190.1650  172.3900  143.8020 C   0  0  0  0  0  0  0  0  0  0  0  0
  189.4640  172.1340  144.9770 O   0  0  0  0  0  1  0  0  0  0  0  0
  190.2140  171.4810  142.8670 C   0  0  0  0  0  0  0  0  0  0  0  0
  190.2570  170.6130  141.9830 O   0  0  0  0  0  0  0  0  0  0  0  0
  192.3640  173.5330  143.6520 C   0  0  0  0  0  2  0  0  0  0  0  0
  193.5010  171.9430  144.7830 O   0  0  0  0  0  1  0  0  0  0  0  0
  192.7800  173.0750  144.9680 N   0  0  0  0  0  2  0  0  0  0  0  0
  186.4170  177.7120  143.0520 N   0  0  0  0  0  2  0  0  0  0  0  0
  184.5180  178.6340  142.3920 O   0  0  0  0  0  1  0  0  0  0  0  0
  185.7560  178.9310  142.8550 N   0  0  0  0  0  0  0  0  0  0  0  0
  185.5690  179.5230  144.1690 C   0  0  0  0  0  2  0  0  0  0  0  0
  184.2630  179.0410  144.7890 C   0  0  0  0  0  2  0  0  0  0  0  0
  185.5270  179.0400  146.9350 C   0  0  0  0  0  1  0  0  0  0  0  0
  184.5100  178.3000  146.0890 C   0  0  0  0  0  2  0  0  0  0  0  0
  1 12  1  6  0  0  0
  1  2  1  0  0  0  0
  2  5  2  0  0  0  0
  2  3  1  0  0  0  0
  3  8  2  0  0  0  0
  4 10  1  0  0  0  0
  5  9  1  0  0  0  0
  6 10  2  0  0  0  0
  7  6  1  0  0  0  0
  8  7  1  0  0  0  0
  9 11  1  0  0  0  0
  9  7  2  0  0  0  0
 11  4  2  0  0  0  0
 13 12  1  0  0  0  0
 14 13  1  0  0  0  0
 14 16  1  0  0  0  0
 15 14  2  0  0  0  0
 17 16  1  0  0  0  0
 18 17  1  6  0  0  0
 18 23  1  0  0  0  0
 18 19  1  0  0  0  0
 19 20  1  0  0  0  0
 21 19  2  0  0  0  0
 22 21  2  0  0  0  0
 23 25  1  0  0  0  0
 24 25  1  0  0  0  0
 26  1  1  0  0  0  0
 27 28  1  0  0  0  0
 28 26  1  0  0  0  0
 28 29  1  0  0  0  0
 29 30  1  0  0  0  0
 30 32  1  0  0  0  0
 32 31  1  0  0  0  0
M  END
>  <MODEL>
2

>  <REMARK>
 VINA RESULT:      -6.0      1.263      1.766
  Name = 
  15 active torsions:
  status: ('A' for Active; 'I' for Inactive)
    1  A    between atoms: O_1  and  C_4
    2  A    between atoms: O_1  and  C_5
    3  A    between atoms: C_2  and  C_5
    4  A    between atoms: C_3  and  C_20
    5  A    between atoms: C_4  and  C_24
    6  A    between atoms: C_5  and  N_14
    7  A    between atoms: C_13  and  C_18
    8  A    between atoms: C_13  and  C_29
    9  A    between atoms: N_14  and  N_30
   10  A    between atoms: C_15  and  O_16
   11  A    between atoms: C_15  and  C_20
   12  A    between atoms: O_16  and  C_24
   13  A    between atoms: C_18  and  N_30
   14  A    between atoms: N_19  and  C_26
   15  A    between atoms: C_20  and  C_26
                            x       y       z     vdW  Elec       q    Type
                         _______ _______ _______ _____ _____    ______ ____

>  <TORSDO>
F 15

$$$$
=
 OpenBabel11052419203D

 32 33  0  0  1  0  0  0  0  0999 V2000
  188.0610  177.4710  145.6750 C   0  0  1  0  0  3  0  0  0  0  0  0
  189.4060  176.8790  145.9620 C   0  0  0  0  0  0  0  0  0  0  0  0
  189.5260  175.8920  146.9510 C   0  0  0  0  0  3  0  0  0  0  0  0
  194.1100  176.3680  144.9000 C   0  0  0  0  0  3  0  0  0  0  0  0
  190.5250  177.2370  145.1940 C   0  0  0  0  0  3  0  0  0  0  0  0
  193.1110  175.0120  146.6500 C   0  0  0  0  0  3  0  0  0  0  0  0
  191.8760  175.6310  146.4250 C   0  0  0  0  0  0  0  0  0  0  0  0
  190.7580  175.2710  147.1850 C   0  0  0  0  0  3  0  0  0  0  0  0
  191.7590  176.6270  145.4260 C   0  0  0  0  0  0  0  0  0  0  0  0
  194.2260  175.3810  145.8880 C   0  0  0  0  0  3  0  0  0  0  0  0
  192.8780  176.9890  144.6690 C   0  0  0  0  0  3  0  0  0  0  0  0
  187.9800  177.8580  144.3300 O   0  0  0  0  0  0  0  0  0  0  0  0
  187.3470  176.7960  143.6710 C   0  0  0  0  0  2  0  0  0  0  0  0
  187.9940  176.5520  142.3480 C   0  0  0  0  0  0  0  0  0  0  0  0
  187.6730  177.2680  141.3630 O   0  0  0  0  0  0  0  0  0  0  0  0
  188.9820  175.5720  142.2290 O   0  0  0  0  0  0  0  0  0  0  0  0
  189.1110  174.5040  143.1600 C   0  0  0  0  0  2  0  0  0  0  0  0
  190.5250  173.9120  143.1440 C   0  0  1  0  0  3  0  0  0  0  0  0
  190.7190  172.9280  144.2520 C   0  0  0  0  0  0  0  0  0  0  0  0
  189.6580  172.5770  145.0800 O   0  0  0  0  0  1  0  0  0  0  0  0
  191.8900  172.3800  144.4360 C   0  0  0  0  0  0  0  0  0  0  0  0
  193.0000  171.8570  144.6150 O   0  0  0  0  0  0  0  0  0  0  0  0
  190.8770  173.2800  141.8000 C   0  0  0  0  0  2  0  0  0  0  0  0
  192.2430  175.0790  141.8020 O   0  0  0  0  0  1  0  0  0  0  0  0
  192.1200  173.8330  141.2850 N   0  0  0  0  0  2  0  0  0  0  0  0
  187.0180  176.4930  145.9650 N   0  0  0  0  0  2  0  0  0  0  0  0
  186.6650  178.2700  147.2340 O   0  0  0  0  0  1  0  0  0  0  0  0
  186.2320  177.0070  147.0050 N   0  0  0  0  0  0  0  0  0  0  0  0
  184.8790  177.1250  146.4880 C   0  0  0  0  0  2  0  0  0  0  0  0
  184.5070  178.5910  146.3030 C   0  0  0  0  0  2  0  0  0  0  0  0
  185.2210  179.8280  144.2620 C   0  0  0  0  0  1  0  0  0  0  0  0
  184.1800  178.8990  144.8530 C   0  0  0  0  0  2  0  0  0  0  0  0
  1 12  1  6  0  0  0
  1  2  1  0  0  0  0
  1 26  1  0  0  0  0
  2  3  1  0  0  0  0
  3  8  2  0  0  0  0
  4 10  1  0  0  0  0
  5  9  1  0  0  0  0
  5  2  2  0  0  0  0
  7  6  1  0  0  0  0
  7  8  1  0  0  0  0
  9  7  2  0  0  0  0
 10  6  2  0  0  0  0
 11  4  2  0  0  0  0
 11  9  1  0  0  0  0
 13 12  1  0  0  0  0
 14 13  1  0  0  0  0
 15 14  2  0  0  0  0
 16 14  1  0  0  0  0
 16 17  1  0  0  0  0
 18 23  1  6  0  0  0
 18 17  1  0  0  0  0
 18 19  1  0  0  0  0
 19 21  2  0  0  0  0
 19 20  1  0  0  0  0
 21 22  2  0  0  0  0
 25 23  1  0  0  0  0
 25 24  1  0  0  0  0
 26 28  1  0  0  0  0
 28 27  1  0  0  0  0
 29 28  1  0  0  0  0
 30 29  1  0  0  0  0
 31 32  1  0  0  0  0
 32 30  1  0  0  0  0
M  END
>  <MODEL>
3

>  <REMARK>
 VINA RESULT:      -5.8      1.656      2.256
  Name = 
  15 active torsions:
  status: ('A' for Active; 'I' for Inactive)
    1  A    between atoms: O_1  and  C_4
    2  A    between atoms: O_1  and  C_5
    3  A    between atoms: C_2  and  C_5
    4  A    between atoms: C_3  and  C_20
    5  A    between atoms: C_4  and  C_24
    6  A    between atoms: C_5  and  N_14
    7  A    between atoms: C_13  and  C_18
    8  A    between atoms: C_13  and  C_29
    9  A    between atoms: N_14  and  N_30
   10  A    between atoms: C_15  and  O_16
   11  A    between atoms: C_15  and  C_20
   12  A    between atoms: O_16  and  C_24
   13  A    between atoms: C_18  and  N_30
   14  A    between atoms: N_19  and  C_26
   15  A    between atoms: C_20  and  C_26
                            x       y       z     vdW  Elec       q    Type
                         _______ _______ _______ _____ _____    ______ ____

>  <TORSDO>
F 15

$$$$
=
 OpenBabel11052419203D

 32 33  0  0  1  0  0  0  0  0999 V2000
  187.7580  178.1190  142.6740 C   0  0  1  0  0  3  0  0  0  0  0  0
  188.7230  177.5400  143.6630 C   0  0  0  0  0  0  0  0  0  0  0  0
  190.0740  177.9120  143.6030 C   0  0  0  0  0  3  0  0  0  0  0  0
  189.6320  174.9190  147.6390 C   0  0  0  0  0  3  0  0  0  0  0  0
  188.2730  176.7050  144.6970 C   0  0  0  0  0  3  0  0  0  0  0  0
  191.4330  176.1350  146.5540 C   0  0  0  0  0  3  0  0  0  0  0  0
  190.5350  176.6050  145.5900 C   0  0  0  0  0  0  0  0  0  0  0  0
  190.9790  177.4430  144.5620 C   0  0  0  0  0  3  0  0  0  0  0  0
  189.1720  176.2280  145.6530 C   0  0  0  0  0  0  0  0  0  0  0  0
  190.9810  175.2920  147.5770 C   0  0  0  0  0  3  0  0  0  0  0  0
  188.7290  175.3860  146.6790 C   0  0  0  0  0  3  0  0  0  0  0  0
  188.0240  177.6230  141.3910 O   0  0  0  0  0  0  0  0  0  0  0  0
  187.1030  176.5860  141.1900 C   0  0  0  0  0  2  0  0  0  0  0  0
  187.8190  175.2870  141.0230 C   0  0  0  0  0  0  0  0  0  0  0  0
  188.2740  174.9740  139.8910 O   0  0  0  0  0  0  0  0  0  0  0  0
  188.0220  174.4600  142.1300 O   0  0  0  0  0  0  0  0  0  0  0  0
  188.1770  173.0500  142.0090 C   0  0  0  0  0  2  0  0  0  0  0  0
  189.5880  172.6040  142.4070 C   0  0  1  0  0  3  0  0  0  0  0  0
  190.4570  172.4000  141.2080 C   0  0  0  0  0  0  0  0  0  0  0  0
  189.9020  172.0140  139.9910 O   0  0  0  0  0  1  0  0  0  0  0  0
  191.7440  172.5990  141.2970 C   0  0  0  0  0  0  0  0  0  0  0  0
  192.9670  172.7860  141.3750 O   0  0  0  0  0  0  0  0  0  0  0  0
  190.2500  173.5690  143.3880 C   0  0  0  0  0  2  0  0  0  0  0  0
  189.5840  172.3070  145.1390 O   0  0  0  0  0  1  0  0  0  0  0  0
  190.6870  172.8640  144.5830 N   0  0  0  0  0  2  0  0  0  0  0  0
  186.3920  177.7760  143.0570 N   0  0  0  0  0  2  0  0  0  0  0  0
  184.4240  178.7160  142.6890 O   0  0  0  0  0  1  0  0  0  0  0  0
  185.6680  178.9710  143.1610 N   0  0  0  0  0  0  0  0  0  0  0  0
  185.5180  179.2470  144.5790 C   0  0  0  0  0  2  0  0  0  0  0  0
  184.8220  178.0850  145.2770 C   0  0  0  0  0  2  0  0  0  0  0  0
  186.0140  177.9020  147.4550 C   0  0  0  0  0  1  0  0  0  0  0  0
  184.7260  178.3160  146.7730 C   0  0  0  0  0  2  0  0  0  0  0  0
  1 12  1  6  0  0  0
  1 26  1  0  0  0  0
  1  2  1  0  0  0  0
  2  5  1  0  0  0  0
  3  2  2  0  0  0  0
  3  8  1  0  0  0  0
  5  9  2  0  0  0  0
  6 10  2  0  0  0  0
  7  9  1  0  0  0  0
  7  6  1  0  0  0  0
  8  7  2  0  0  0  0
  9 11  1  0  0  0  0
 10  4  1  0  0  0  0
 11  4  2  0  0  0  0
 13 12  1  0  0  0  0
 14 13  1  0  0  0  0
 14 16  1  0  0  0  0
 15 14  2  0  0  0  0
 17 16  1  0  0  0  0
 18 17  1  6  0  0  0
 18 23  1  0  0  0  0
 19 21  2  0  0  0  0
 19 18  1  0  0  0  0
 20 19  1  0  0  0  0
 21 22  2  0  0  0  0
 23 25  1  0  0  0  0
 25 24  1  0  0  0  0
 26 28  1  0  0  0  0
 27 28  1  0  0  0  0
 28 29  1  0  0  0  0
 29 30  1  0  0  0  0
 30 32  1  0  0  0  0
 32 31  1  0  0  0  0
M  END
>  <MODEL>
4

>  <REMARK>
 VINA RESULT:      -5.7      1.341      2.402
  Name = 
  15 active torsions:
  status: ('A' for Active; 'I' for Inactive)
    1  A    between atoms: O_1  and  C_4
    2  A    between atoms: O_1  and  C_5
    3  A    between atoms: C_2  and  C_5
    4  A    between atoms: C_3  and  C_20
    5  A    between atoms: C_4  and  C_24
    6  A    between atoms: C_5  and  N_14
    7  A    between atoms: C_13  and  C_18
    8  A    between atoms: C_13  and  C_29
    9  A    between atoms: N_14  and  N_30
   10  A    between atoms: C_15  and  O_16
   11  A    between atoms: C_15  and  C_20
   12  A    between atoms: O_16  and  C_24
   13  A    between atoms: C_18  and  N_30
   14  A    between atoms: N_19  and  C_26
   15  A    between atoms: C_20  and  C_26
                            x       y       z     vdW  Elec       q    Type
                         _______ _______ _______ _____ _____    ______ ____

>  <TORSDO>
F 15

$$$$
=
 OpenBabel11052419203D

 32 33  0  0  1  0  0  0  0  0999 V2000
  187.6990  177.2480  142.3180 C   0  0  1  0  0  3  0  0  0  0  0  0
  188.6640  177.0470  143.4460 C   0  0  0  0  0  0  0  0  0  0  0  0
  189.8100  177.8510  143.5230 C   0  0  0  0  0  3  0  0  0  0  0  0
  189.8640  174.9560  147.6540 C   0  0  0  0  0  3  0  0  0  0  0  0
  188.3860  176.1270  144.4690 C   0  0  0  0  0  3  0  0  0  0  0  0
  191.2840  176.6900  146.7160 C   0  0  0  0  0  3  0  0  0  0  0  0
  190.4150  176.8120  145.6260 C   0  0  0  0  0  0  0  0  0  0  0  0
  190.6850  177.7330  144.6080 C   0  0  0  0  0  3  0  0  0  0  0  0
  189.2590  175.9980  145.5510 C   0  0  0  0  0  0  0  0  0  0  0  0
  191.0080  175.7620  147.7270 C   0  0  0  0  0  3  0  0  0  0  0  0
  188.9910  175.0750  146.5670 C   0  0  0  0  0  3  0  0  0  0  0  0
  187.9750  176.3490  141.2790 O   0  0  0  0  0  0  0  0  0  0  0  0
  187.4170  175.1280  141.6810 C   0  0  0  0  0  2  0  0  0  0  0  0
  188.3190  174.0000  141.3030 C   0  0  0  0  0  0  0  0  0  0  0  0
  187.9140  172.8150  141.4370 O   0  0  0  0  0  0  0  0  0  0  0  0
  189.5750  174.2700  140.7560 O   0  0  0  0  0  0  0  0  0  0  0  0
  190.7780  173.7680  141.3290 C   0  0  0  0  0  2  0  0  0  0  0  0
  191.2060  174.5930  142.5480 C   0  0  1  0  0  3  0  0  0  0  0  0
  191.3700  173.7340  143.7600 C   0  0  0  0  0  0  0  0  0  0  0  0
  192.4780  173.8860  144.5890 O   0  0  0  0  0  1  0  0  0  0  0  0
  190.4600  172.8450  144.0540 C   0  0  0  0  0  0  0  0  0  0  0  0
  189.6000  171.9980  144.3380 O   0  0  0  0  0  0  0  0  0  0  0  0
  192.4750  175.4010  142.2900 C   0  0  0  0  0  2  0  0  0  0  0  0
  194.5570  175.1740  141.4430 O   0  0  0  0  0  1  0  0  0  0  0  0
  193.2770  174.7740  141.2510 N   0  0  0  0  0  2  0  0  0  0  0  0
  186.3340  177.0440  142.7920 N   0  0  0  0  0  2  0  0  0  0  0  0
  185.5590  179.0850  142.4370 O   0  0  0  0  0  1  0  0  0  0  0  0
  185.9220  178.2270  143.4200 N   0  0  0  0  0  0  0  0  0  0  0  0
  184.7090  177.9090  144.1540 C   0  0  0  0  0  2  0  0  0  0  0  0
  185.0270  177.6530  145.6220 C   0  0  0  0  0  2  0  0  0  0  0  0
  186.7600  178.0100  147.3750 C   0  0  0  0  0  1  0  0  0  0  0  0
  186.1300  178.5710  146.1160 C   0  0  0  0  0  2  0  0  0  0  0  0
  1 12  1  6  0  0  0
  1 26  1  0  0  0  0
  1  2  1  0  0  0  0
  2  3  2  0  0  0  0
  2  5  1  0  0  0  0
  3  8  1  0  0  0  0
  4 10  1  0  0  0  0
  5  9  2  0  0  0  0
  6 10  2  0  0  0  0
  7  6  1  0  0  0  0
  8  7  2  0  0  0  0
  9  7  1  0  0  0  0
  9 11  1  0  0  0  0
 11  4  2  0  0  0  0
 12 13  1  0  0  0  0
 14 15  2  0  0  0  0
 14 13  1  0  0  0  0
 16 14  1  0  0  0  0
 16 17  1  0  0  0  0
 18 17  1  6  0  0  0
 18 19  1  0  0  0  0
 19 21  2  0  0  0  0
 19 20  1  0  0  0  0
 21 22  2  0  0  0  0
 23 18  1  0  0  0  0
 25 24  1  0  0  0  0
 25 23  1  0  0  0  0
 26 28  1  0  0  0  0
 27 28  1  0  0  0  0
 28 29  1  0  0  0  0
 29 30  1  0  0  0  0
 30 32  1  0  0  0  0
 32 31  1  0  0  0  0
M  END
>  <MODEL>
5

>  <REMARK>
 VINA RESULT:      -5.5      1.474      2.170
  Name = 
  15 active torsions:
  status: ('A' for Active; 'I' for Inactive)
    1  A    between atoms: O_1  and  C_4
    2  A    between atoms: O_1  and  C_5
    3  A    between atoms: C_2  and  C_5
    4  A    between atoms: C_3  and  C_20
    5  A    between atoms: C_4  and  C_24
    6  A    between atoms: C_5  and  N_14
    7  A    between atoms: C_13  and  C_18
    8  A    between atoms: C_13  and  C_29
    9  A    between atoms: N_14  and  N_30
   10  A    between atoms: C_15  and  O_16
   11  A    between atoms: C_15  and  C_20
   12  A    between atoms: O_16  and  C_24
   13  A    between atoms: C_18  and  N_30
   14  A    between atoms: N_19  and  C_26
   15  A    between atoms: C_20  and  C_26
                            x       y       z     vdW  Elec       q    Type
                         _______ _______ _______ _____ _____    ______ ____

>  <TORSDO>
F 15

$$$$
=
 OpenBabel11052419203D

 32 33  0  0  1  0  0  0  0  0999 V2000
  190.0290  175.5730  145.8320 C   0  0  1  0  0  3  0  0  0  0  0  0
  188.8650  176.4790  145.5730 C   0  0  0  0  0  0  0  0  0  0  0  0
  188.9190  177.3760  144.4960 C   0  0  0  0  0  3  0  0  0  0  0  0
  184.3180  177.8850  146.5020 C   0  0  0  0  0  3  0  0  0  0  0  0
  187.6930  176.3750  146.3380 C   0  0  0  0  0  3  0  0  0  0  0  0
  185.5380  178.8790  144.6520 C   0  0  0  0  0  3  0  0  0  0  0  0
  186.6480  178.0830  144.9550 C   0  0  0  0  0  0  0  0  0  0  0  0
  187.8140  178.1790  144.1890 C   0  0  0  0  0  3  0  0  0  0  0  0
  186.5900  177.1780  146.0420 C   0  0  0  0  0  0  0  0  0  0  0  0
  184.3750  178.7800  145.4260 C   0  0  0  0  0  3  0  0  0  0  0  0
  185.4240  177.0840  146.8090 C   0  0  0  0  0  3  0  0  0  0  0  0
  190.3730  175.6030  147.1900 O   0  0  0  0  0  0  0  0  0  0  0  0
  191.4680  176.4730  147.2810 C   0  0  0  0  0  2  0  0  0  0  0  0
  192.6430  175.9010  146.5610 C   0  0  0  0  0  0  0  0  0  0  0  0
  193.0430  174.7430  146.8550 O   0  0  0  0  0  0  0  0  0  0  0  0
  193.2510  176.6290  145.5360 O   0  0  0  0  0  0  0  0  0  0  0  0
  194.5030  176.2530  144.9730 C   0  0  0  0  0  2  0  0  0  0  0  0
  194.3340  175.1680  143.9030 C   0  0  1  0  0  3  0  0  0  0  0  0
  193.9800  175.7570  142.5760 C   0  0  0  0  0  0  0  0  0  0  0  0
  192.6670  175.7260  142.1170 O   0  0  0  0  0  1  0  0  0  0  0  0
  194.9060  176.3200  141.8480 C   0  0  0  0  0  0  0  0  0  0  0  0
  195.7810  176.8550  141.1510 O   0  0  0  0  0  0  0  0  0  0  0  0
  195.5670  174.2750  143.7800 C   0  0  0  0  0  2  0  0  0  0  0  0
  197.6370  175.1770  143.7610 O   0  0  0  0  0  1  0  0  0  0  0  0
  196.6520  174.7850  144.6030 N   0  0  0  0  0  2  0  0  0  0  0  0
  189.6890  174.2070  145.4450 N   0  0  0  0  0  2  0  0  0  0  0  0
  191.2550  172.8410  144.6890 O   0  0  0  0  0  1  0  0  0  0  0  0
  190.4640  173.8780  144.3250 N   0  0  0  0  0  0  0  0  0  0  0  0
  189.5500  173.3620  143.3210 C   0  0  0  0  0  2  0  0  0  0  0  0
  189.3120  174.4020  142.2330 C   0  0  0  0  0  2  0  0  0  0  0  0
  187.6790  176.0010  141.2430 C   0  0  0  0  0  1  0  0  0  0  0  0
  187.8550  174.8230  142.1800 C   0  0  0  0  0  2  0  0  0  0  0  0
  1 26  1  1  0  0  0
  1 12  1  0  0  0  0
  2  1  1  0  0  0  0
  2  5  1  0  0  0  0
  3  2  2  0  0  0  0
  4 11  2  0  0  0  0
  6  7  1  0  0  0  0
  6 10  2  0  0  0  0
  7  9  1  0  0  0  0
  8  3  1  0  0  0  0
  8  7  2  0  0  0  0
  9  5  2  0  0  0  0
  9 11  1  0  0  0  0
 10  4  1  0  0  0  0
 12 13  1  0  0  0  0
 14 15  2  0  0  0  0
 14 13  1  0  0  0  0
 16 14  1  0  0  0  0
 17 16  1  0  0  0  0
 18 23  1  6  0  0  0
 18 17  1  0  0  0  0
 19 18  1  0  0  0  0
 20 19  1  0  0  0  0
 21 19  2  0  0  0  0
 22 21  2  0  0  0  0
 23 25  1  0  0  0  0
 24 25  1  0  0  0  0
 28 27  1  0  0  0  0
 28 26  1  0  0  0  0
 29 28  1  0  0  0  0
 30 29  1  0  0  0  0
 31 32  1  0  0  0  0
 32 30  1  0  0  0  0
M  END
>  <MODEL>
6

>  <REMARK>
 VINA RESULT:      -5.5      2.946      6.150
  Name = 
  15 active torsions:
  status: ('A' for Active; 'I' for Inactive)
    1  A    between atoms: O_1  and  C_4
    2  A    between atoms: O_1  and  C_5
    3  A    between atoms: C_2  and  C_5
    4  A    between atoms: C_3  and  C_20
    5  A    between atoms: C_4  and  C_24
    6  A    between atoms: C_5  and  N_14
    7  A    between atoms: C_13  and  C_18
    8  A    between atoms: C_13  and  C_29
    9  A    between atoms: N_14  and  N_30
   10  A    between atoms: C_15  and  O_16
   11  A    between atoms: C_15  and  C_20
   12  A    between atoms: O_16  and  C_24
   13  A    between atoms: C_18  and  N_30
   14  A    between atoms: N_19  and  C_26
   15  A    between atoms: C_20  and  C_26
                            x       y       z     vdW  Elec       q    Type
                         _______ _______ _______ _____ _____    ______ ____

>  <TORSDO>
F 15

$$$$
=
 OpenBabel11052419203D

 32 33  0  0  1  0  0  0  0  0999 V2000
  190.2500  176.7390  145.2090 C   0  0  1  0  0  3  0  0  0  0  0  0
  188.7950  176.9480  145.4940 C   0  0  0  0  0  0  0  0  0  0  0  0
  188.1720  176.1810  146.4890 C   0  0  0  0  0  3  0  0  0  0  0  0
  184.6780  179.4270  144.8460 C   0  0  0  0  0  3  0  0  0  0  0  0
  188.0760  177.9610  144.8410 C   0  0  0  0  0  3  0  0  0  0  0  0
  184.7750  177.6550  146.5040 C   0  0  0  0  0  3  0  0  0  0  0  0
  186.1120  177.4150  146.1710 C   0  0  0  0  0  0  0  0  0  0  0  0
  186.8330  176.4110  146.8250 C   0  0  0  0  0  3  0  0  0  0  0  0
  186.7380  178.1920  145.1660 C   0  0  0  0  0  0  0  0  0  0  0  0
  184.0590  178.6580  145.8410 C   0  0  0  0  0  3  0  0  0  0  0  0
  186.0160  179.1940  144.5090 C   0  0  0  0  0  3  0  0  0  0  0  0
  190.9850  176.7560  146.4020 O   0  0  0  0  0  0  0  0  0  0  0  0
  192.0530  175.8730  146.1990 C   0  0  0  0  0  2  0  0  0  0  0  0
  193.3430  176.6240  146.1590 C   0  0  0  0  0  0  0  0  0  0  0  0
  193.8490  177.0370  147.2350 O   0  0  0  0  0  0  0  0  0  0  0  0
  193.9980  176.8130  144.9400 O   0  0  0  0  0  0  0  0  0  0  0  0
  195.4130  176.9260  144.8460 C   0  0  0  0  0  2  0  0  0  0  0  0
  196.0070  175.8240  143.9600 C   0  0  1  0  0  3  0  0  0  0  0  0
  195.7590  174.4670  144.5340 C   0  0  0  0  0  0  0  0  0  0  0  0
  194.7910  173.6330  143.9820 O   0  0  0  0  0  1  0  0  0  0  0  0
  196.4660  174.0520  145.5500 C   0  0  0  0  0  0  0  0  0  0  0  0
  197.1330  173.6530  146.5160 O   0  0  0  0  0  0  0  0  0  0  0  0
  195.5010  175.8970  142.5220 C   0  0  0  0  0  2  0  0  0  0  0  0
  196.4160  176.0460  140.4620 O   0  0  0  0  0  1  0  0  0  0  0  0
  196.4400  176.6280  141.6850 N   0  0  0  0  0  2  0  0  0  0  0  0
  190.4430  175.4580  144.5350 N   0  0  0  0  0  2  0  0  0  0  0  0
  192.0050  175.1850  142.9940 O   0  0  0  0  0  1  0  0  0  0  0  0
  190.7810  175.7270  143.2020 N   0  0  0  0  0  0  0  0  0  0  0  0
  189.8540  174.9730  142.3760 C   0  0  0  0  0  2  0  0  0  0  0  0
  188.7000  175.8610  141.9260 C   0  0  0  0  0  2  0  0  0  0  0  0
  186.2940  176.3820  142.3060 C   0  0  0  0  0  1  0  0  0  0  0  0
  187.3660  175.3140  142.3990 C   0  0  0  0  0  2  0  0  0  0  0  0
  1 26  1  1  0  0  0
  1  2  1  0  0  0  0
  1 12  1  0  0  0  0
  2  3  1  0  0  0  0
  3  8  2  0  0  0  0
  4 10  1  0  0  0  0
  5  9  1  0  0  0  0
  5  2  2  0  0  0  0
  7  6  1  0  0  0  0
  7  8  1  0  0  0  0
  9  7  2  0  0  0  0
 10  6  2  0  0  0  0
 11  4  2  0  0  0  0
 11  9  1  0  0  0  0
 13 12  1  0  0  0  0
 14 13  1  0  0  0  0
 14 15  2  0  0  0  0
 16 14  1  0  0  0  0
 17 16  1  0  0  0  0
 18 23  1  6  0  0  0
 18 19  1  0  0  0  0
 18 17  1  0  0  0  0
 19 21  2  0  0  0  0
 20 19  1  0  0  0  0
 21 22  2  0  0  0  0
 24 25  1  0  0  0  0
 25 23  1  0  0  0  0
 27 28  1  0  0  0  0
 28 26  1  0  0  0  0
 29 28  1  0  0  0  0
 30 29  1  0  0  0  0
 30 32  1  0  0  0  0
 31 32  1  0  0  0  0
M  END
>  <MODEL>
7

>  <REMARK>
 VINA RESULT:      -5.5      3.040      5.880
  Name = 
  15 active torsions:
  status: ('A' for Active; 'I' for Inactive)
    1  A    between atoms: O_1  and  C_4
    2  A    between atoms: O_1  and  C_5
    3  A    between atoms: C_2  and  C_5
    4  A    between atoms: C_3  and  C_20
    5  A    between atoms: C_4  and  C_24
    6  A    between atoms: C_5  and  N_14
    7  A    between atoms: C_13  and  C_18
    8  A    between atoms: C_13  and  C_29
    9  A    between atoms: N_14  and  N_30
   10  A    between atoms: C_15  and  O_16
   11  A    between atoms: C_15  and  C_20
   12  A    between atoms: O_16  and  C_24
   13  A    between atoms: C_18  and  N_30
   14  A    between atoms: N_19  and  C_26
   15  A    between atoms: C_20  and  C_26
                            x       y       z     vdW  Elec       q    Type
                         _______ _______ _______ _____ _____    ______ ____

>  <TORSDO>
F 15

$$$$
=
 OpenBabel11052419203D

 32 33  0  0  1  0  0  0  0  0999 V2000
  191.0310  175.5180  145.1290 C   0  0  1  0  0  3  0  0  0  0  0  0
  192.4720  175.1500  145.3010 C   0  0  0  0  0  0  0  0  0  0  0  0
  193.4090  176.1550  145.5810 C   0  0  0  0  0  3  0  0  0  0  0  0
  195.9570  171.8040  145.7100 C   0  0  0  0  0  3  0  0  0  0  0  0
  192.8760  173.8060  145.2740 C   0  0  0  0  0  3  0  0  0  0  0  0
  196.4910  174.1510  146.0290 C   0  0  0  0  0  3  0  0  0  0  0  0
  195.1550  174.4890  145.7870 C   0  0  0  0  0  0  0  0  0  0  0  0
  194.7480  175.8260  145.8210 C   0  0  0  0  0  3  0  0  0  0  0  0
  194.2120  173.4720  145.5050 C   0  0  0  0  0  0  0  0  0  0  0  0
  196.8910  172.8100  145.9900 C   0  0  0  0  0  3  0  0  0  0  0  0
  194.6190  172.1340  145.4680 C   0  0  0  0  0  3  0  0  0  0  0  0
  190.6390  175.3300  143.7960 O   0  0  0  0  0  0  0  0  0  0  0  0
  190.0070  176.5230  143.4190 C   0  0  0  0  0  2  0  0  0  0  0  0
  188.5780  176.2610  143.0730 C   0  0  0  0  0  0  0  0  0  0  0  0
  188.2290  175.1000  142.7320 O   0  0  0  0  0  0  0  0  0  0  0  0
  187.6390  177.2890  143.1800 O   0  0  0  0  0  0  0  0  0  0  0  0
  186.2370  177.0450  143.1460 C   0  0  0  0  0  2  0  0  0  0  0  0
  185.4640  178.2800  142.6670 C   0  0  1  0  0  3  0  0  0  0  0  0
  185.1090  178.1760  141.2190 C   0  0  0  0  0  0  0  0  0  0  0  0
  186.0940  177.9440  140.2650 O   0  0  0  0  0  1  0  0  0  0  0  0
  183.8620  178.2890  140.8480 C   0  0  0  0  0  0  0  0  0  0  0  0
  182.6810  178.3950  140.4880 O   0  0  0  0  0  0  0  0  0  0  0  0
  184.2170  178.5480  143.5060 C   0  0  0  0  0  2  0  0  0  0  0  0
  183.7630  179.0150  145.6690 O   0  0  0  0  0  1  0  0  0  0  0  0
  184.5330  179.4160  144.6290 N   0  0  0  0  0  2  0  0  0  0  0  0
  190.2020  174.6930  146.0020 N   0  0  0  0  0  2  0  0  0  0  0  0
  190.2120  176.7520  146.8090 O   0  0  0  0  0  1  0  0  0  0  0  0
  189.6530  175.5310  146.9820 N   0  0  0  0  0  0  0  0  0  0  0  0
  188.2430  175.6770  146.6650 C   0  0  0  0  0  2  0  0  0  0  0  0
  187.8420  177.1470  146.6890 C   0  0  0  0  0  2  0  0  0  0  0  0
  186.3540  178.6580  147.9940 C   0  0  0  0  0  1  0  0  0  0  0  0
  186.4520  177.3310  147.2690 C   0  0  0  0  0  2  0  0  0  0  0  0
  1 12  1  6  0  0  0
  1  2  1  0  0  0  0
  1 26  1  0  0  0  0
  2  3  1  0  0  0  0
  3  8  2  0  0  0  0
  4 10  1  0  0  0  0
  5  2  2  0  0  0  0
  5  9  1  0  0  0  0
  7  8  1  0  0  0  0
  7  6  1  0  0  0  0
  9  7  2  0  0  0  0
 10  6  2  0  0  0  0
 11  9  1  0  0  0  0
 11  4  2  0  0  0  0
 13 12  1  0  0  0  0
 14 16  1  0  0  0  0
 14 13  1  0  0  0  0
 15 14  2  0  0  0  0
 17 16  1  0  0  0  0
 18 17  1  1  0  0  0
 18 23  1  0  0  0  0
 19 18  1  0  0  0  0
 20 19  1  0  0  0  0
 21 19  2  0  0  0  0
 22 21  2  0  0  0  0
 23 25  1  0  0  0  0
 25 24  1  0  0  0  0
 26 28  1  0  0  0  0
 27 28  1  0  0  0  0
 29 30  1  0  0  0  0
 29 28  1  0  0  0  0
 30 32  1  0  0  0  0
 32 31  1  0  0  0  0
M  END
>  <MODEL>
8

>  <REMARK>
 VINA RESULT:      -5.4      2.843      6.496
  Name = 
  15 active torsions:
  status: ('A' for Active; 'I' for Inactive)
    1  A    between atoms: O_1  and  C_4
    2  A    between atoms: O_1  and  C_5
    3  A    between atoms: C_2  and  C_5
    4  A    between atoms: C_3  and  C_20
    5  A    between atoms: C_4  and  C_24
    6  A    between atoms: C_5  and  N_14
    7  A    between atoms: C_13  and  C_18
    8  A    between atoms: C_13  and  C_29
    9  A    between atoms: N_14  and  N_30
   10  A    between atoms: C_15  and  O_16
   11  A    between atoms: C_15  and  C_20
   12  A    between atoms: O_16  and  C_24
   13  A    between atoms: C_18  and  N_30
   14  A    between atoms: N_19  and  C_26
   15  A    between atoms: C_20  and  C_26
                            x       y       z     vdW  Elec       q    Type
                         _______ _______ _______ _____ _____    ______ ____

>  <TORSDO>
F 15

$$$$
=
 OpenBabel11052419203D

 32 33  0  0  1  0  0  0  0  0999 V2000
  188.7140  174.0530  142.1860 C   0  0  1  0  0  3  0  0  0  0  0  0
  189.8410  174.5330  143.0480 C   0  0  0  0  0  0  0  0  0  0  0  0
  190.9520  175.1450  142.4500 C   0  0  0  0  0  3  0  0  0  0  0  0
  191.7300  175.4100  147.4270 C   0  0  0  0  0  3  0  0  0  0  0  0
  189.7540  174.4570  144.4470 C   0  0  0  0  0  3  0  0  0  0  0  0
  192.9250  176.1110  145.4310 C   0  0  0  0  0  3  0  0  0  0  0  0
  191.9020  175.5870  144.6340 C   0  0  0  0  0  0  0  0  0  0  0  0
  191.9810  175.6680  143.2400 C   0  0  0  0  0  3  0  0  0  0  0  0
  190.7810  174.9700  145.2410 C   0  0  0  0  0  0  0  0  0  0  0  0
  192.8390  176.0220  146.8260 C   0  0  0  0  0  3  0  0  0  0  0  0
  190.7030  174.8860  146.6350 C   0  0  0  0  0  3  0  0  0  0  0  0
  187.5980  174.8870  142.3400 O   0  0  0  0  0  0  0  0  0  0  0  0
  187.7700  175.9210  141.4090 C   0  0  0  0  0  2  0  0  0  0  0  0
  186.6790  176.9300  141.5520 C   0  0  0  0  0  0  0  0  0  0  0  0
  186.5760  177.8520  140.7010 O   0  0  0  0  0  0  0  0  0  0  0  0
  185.7570  176.8110  142.5940 O   0  0  0  0  0  0  0  0  0  0  0  0
  185.8150  177.6250  143.7600 C   0  0  0  0  0  2  0  0  0  0  0  0
  186.2890  176.8260  144.9800 C   0  0  1  0  0  3  0  0  0  0  0  0
  187.6260  177.2930  145.4560 C   0  0  0  0  0  0  0  0  0  0  0  0
  187.9200  177.3260  146.8150 O   0  0  0  0  0  1  0  0  0  0  0  0
  188.5320  177.6590  144.5900 C   0  0  0  0  0  0  0  0  0  0  0  0
  189.3960  178.0090  143.7730 O   0  0  0  0  0  0  0  0  0  0  0  0
  185.2760  176.8510  146.1220 C   0  0  0  0  0  2  0  0  0  0  0  0
  184.5440  178.6820  147.2240 O   0  0  0  0  0  1  0  0  0  0  0  0
  184.4390  178.0390  146.0370 N   0  0  0  0  0  2  0  0  0  0  0  0
  189.1300  174.0470  140.7870 N   0  0  0  0  0  2  0  0  0  0  0  0
  188.4350  172.8030  139.0950 O   0  0  0  0  0  1  0  0  0  0  0  0
  189.0160  172.7320  140.3160 N   0  0  0  0  0  0  0  0  0  0  0  0
  190.3680  172.2470  140.0990 C   0  0  0  0  0  2  0  0  0  0  0  0
  190.7920  171.3250  141.2350 C   0  0  0  0  0  2  0  0  0  0  0  0
  192.1000  171.6720  143.3260 C   0  0  0  0  0  1  0  0  0  0  0  0
  192.1330  171.7390  141.8120 C   0  0  0  0  0  2  0  0  0  0  0  0
  1 26  1  6  0  0  0
  1 12  1  0  0  0  0
  1  2  1  0  0  0  0
  2  5  1  0  0  0  0
  3  2  2  0  0  0  0
  3  8  1  0  0  0  0
  5  9  2  0  0  0  0
  6 10  2  0  0  0  0
  7  9  1  0  0  0  0
  7  6  1  0  0  0  0
  8  7  2  0  0  0  0
  9 11  1  0  0  0  0
 10  4  1  0  0  0  0
 11  4  2  0  0  0  0
 13 14  1  0  0  0  0
 13 12  1  0  0  0  0
 14 16  1  0  0  0  0
 15 14  2  0  0  0  0
 16 17  1  0  0  0  0
 18 17  1  6  0  0  0
 18 19  1  0  0  0  0
 18 23  1  0  0  0  0
 19 20  1  0  0  0  0
 21 19  2  0  0  0  0
 22 21  2  0  0  0  0
 25 23  1  0  0  0  0
 25 24  1  0  0  0  0
 27 28  1  0  0  0  0
 28 26  1  0  0  0  0
 29 28  1  0  0  0  0
 29 30  1  0  0  0  0
 30 32  1  0  0  0  0
 32 31  1  0  0  0  0
M  END
>  <MODEL>
9

>  <REMARK>
 VINA RESULT:      -5.4      2.219      6.301
  Name = 
  15 active torsions:
  status: ('A' for Active; 'I' for Inactive)
    1  A    between atoms: O_1  and  C_4
    2  A    between atoms: O_1  and  C_5
    3  A    between atoms: C_2  and  C_5
    4  A    between atoms: C_3  and  C_20
    5  A    between atoms: C_4  and  C_24
    6  A    between atoms: C_5  and  N_14
    7  A    between atoms: C_13  and  C_18
    8  A    between atoms: C_13  and  C_29
    9  A    between atoms: N_14  and  N_30
   10  A    between atoms: C_15  and  O_16
   11  A    between atoms: C_15  and  C_20
   12  A    between atoms: O_16  and  C_24
   13  A    between atoms: C_18  and  N_30
   14  A    between atoms: N_19  and  C_26
   15  A    between atoms: C_20  and  C_26
                            x       y       z     vdW  Elec       q    Type
                         _______ _______ _______ _____ _____    ______ ____

>  <TORSDO>
F 15

$$$$
