=
 OpenBabel11052418343D

 27 31  0  0  0  0  0  0  0  0999 V2000
  190.7470  175.0900  143.2460 N   0  0  0  0  0  0  0  0  0  0  0  0
  190.2930  175.8290  144.3050 C   0  0  0  0  0  0  0  0  0  0  0  0
  188.0700  175.8030  143.3440 N   0  0  0  0  0  0  0  0  0  0  0  0
  190.6560  176.9950  146.3940 C   0  0  0  0  0  3  0  0  0  0  0  0
  188.8360  173.9410  140.5600 C   0  0  0  0  0  0  0  0  0  0  0  0
  191.1700  176.2240  145.3440 C   0  0  0  0  0  0  0  0  0  0  0  0
  188.4220  176.9940  145.4240 C   0  0  0  0  0  0  0  0  0  0  0  0
  189.8790  174.7240  142.2760 C   0  0  0  0  0  0  0  0  0  0  0  0
  188.9070  176.2130  144.3480 C   0  0  0  0  0  0  0  0  0  0  0  0
  187.8860  174.5950  141.2770 N   0  0  0  0  0  0  0  0  0  0  0  0
  189.3170  177.3690  146.4340 C   0  0  0  0  0  3  0  0  0  0  0  0
  190.1070  173.9820  141.1450 C   0  0  0  0  0  2  0  0  0  0  0  0
  188.5710  175.0670  142.3270 C   0  0  0  0  0  0  0  0  0  0  0  0
  186.1160  176.7770  146.3920 C   0  0  0  0  0  3  0  0  0  0  0  0
  184.3650  178.3110  145.7840 C   0  0  0  0  0  3  0  0  0  0  0  0
  185.2310  178.9600  144.9620 N   0  0  0  0  0  0  0  0  0  0  0  0
  186.5230  178.5570  144.8270 C   0  0  0  0  0  3  0  0  0  0  0  0
  187.0050  177.4450  145.5350 C   0  0  0  0  0  0  0  0  0  0  0  0
  184.7940  177.2050  146.5170 C   0  0  0  0  0  3  0  0  0  0  0  0
  195.3040  175.2480  145.4720 N   0  0  0  0  0  0  0  0  0  0  0  0
  192.6140  175.8550  145.3810 C   0  0  0  0  0  0  0  0  0  0  0  0
  193.5920  176.7910  145.0180 C   0  0  0  0  0  3  0  0  0  0  0  0
  194.9080  176.4570  145.0720 N   0  0  0  0  0  0  0  0  0  0  0  0
  194.4060  174.2990  145.8440 C   0  0  0  0  0  3  0  0  0  0  0  0
  193.0450  174.5930  145.8060 C   0  0  0  0  0  3  0  0  0  0  0  0
  188.2170  174.2040  138.1930 C   0  0  0  0  0  1  0  0  0  0  0  0
  188.5310  173.2130  139.2970 C   0  0  0  0  0  2  0  0  0  0  0  0
  1  2  1  0  0  0  0
  2  9  2  0  0  0  0
  2  6  1  0  0  0  0
  3  9  1  0  0  0  0
  4 11  1  0  0  0  0
  5 12  1  0  0  0  0
  5 10  2  0  0  0  0
  6 21  1  0  0  0  0
  6  4  2  0  0  0  0
  7 18  1  0  0  0  0
  7 11  2  0  0  0  0
  8 13  1  0  0  0  0
  8  1  2  0  0  0  0
  9  7  1  0  0  0  0
 10 13  1  0  0  0  0
 12  8  1  0  0  0  0
 13  3  2  0  0  0  0
 14 19  1  0  0  0  0
 15 19  2  0  0  0  0
 16 15  1  0  0  0  0
 17 16  2  0  0  0  0
 17 18  1  0  0  0  0
 18 14  2  0  0  0  0
 20 24  1  0  0  0  0
 21 25  1  0  0  0  0
 22 23  1  0  0  0  0
 22 21  2  0  0  0  0
 23 20  2  0  0  0  0
 25 24  2  0  0  0  0
 26 27  1  0  0  0  0
 27  5  1  0  0  0  0
M  END
>  <MODEL>
1

>  <REMARK>
 VINA RESULT:      -7.6      0.000      0.000
  Name = 
  3 active torsions:
  status: ('A' for Active; 'I' for Inactive)
    1  A    between atoms: C_9  and  C_15
    2  A    between atoms: C_13  and  C_22
    3  A    between atoms: C_14  and  C_17
                            x       y       z     vdW  Elec       q    Type
                         _______ _______ _______ _____ _____    ______ ____

>  <TORSDO>
F 3

$$$$
=
 OpenBabel11052418343D

 27 31  0  0  0  0  0  0  0  0999 V2000
  187.9490  175.9260  143.4070 N   0  0  0  0  0  0  0  0  0  0  0  0
  188.7640  176.3280  144.4310 C   0  0  0  0  0  0  0  0  0  0  0  0
  190.6350  175.2390  143.3460 N   0  0  0  0  0  0  0  0  0  0  0  0
  189.1250  177.4580  146.5420 C   0  0  0  0  0  3  0  0  0  0  0  0
  188.9150  174.0790  140.6070 C   0  0  0  0  0  0  0  0  0  0  0  0
  188.2510  177.0890  145.5100 C   0  0  0  0  0  0  0  0  0  0  0  0
  191.0070  176.3450  145.4690 C   0  0  0  0  0  0  0  0  0  0  0  0
  188.4760  175.2080  142.3900 C   0  0  0  0  0  0  0  0  0  0  0  0
  190.1540  175.9580  144.4090 C   0  0  0  0  0  0  0  0  0  0  0  0
  190.1020  174.1760  141.2590 N   0  0  0  0  0  0  0  0  0  0  0  0
  190.4680  177.0960  146.5200 C   0  0  0  0  0  3  0  0  0  0  0  0
  187.8580  174.7160  141.2670 C   0  0  0  0  0  2  0  0  0  0  0  0
  189.7870  174.8770  142.3570 C   0  0  0  0  0  0  0  0  0  0  0  0
  192.8520  174.7150  145.9620 C   0  0  0  0  0  3  0  0  0  0  0  0
  195.1570  175.2990  145.5910 C   0  0  0  0  0  3  0  0  0  0  0  0
  194.7670  176.5280  145.1620 N   0  0  0  0  0  0  0  0  0  0  0  0
  193.4550  176.8850  145.1190 C   0  0  0  0  0  3  0  0  0  0  0  0
  192.4540  175.9900  145.5260 C   0  0  0  0  0  0  0  0  0  0  0  0
  194.2020  174.3670  146.0000 C   0  0  0  0  0  3  0  0  0  0  0  0
  184.1940  178.3080  145.8470 N   0  0  0  0  0  0  0  0  0  0  0  0
  186.8280  177.5260  145.6020 C   0  0  0  0  0  0  0  0  0  0  0  0
  185.9150  176.7990  146.3770 C   0  0  0  0  0  3  0  0  0  0  0  0
  184.6240  177.2120  146.4740 N   0  0  0  0  0  0  0  0  0  0  0  0
  185.0320  179.0580  145.0860 C   0  0  0  0  0  3  0  0  0  0  0  0
  186.3650  178.6770  144.9550 C   0  0  0  0  0  3  0  0  0  0  0  0
  188.1620  174.3460  138.2800 C   0  0  0  0  0  1  0  0  0  0  0  0
  188.7750  173.3970  139.2900 C   0  0  0  0  0  2  0  0  0  0  0  0
  1  2  1  0  0  0  0
  2  6  1  0  0  0  0
  3  9  1  0  0  0  0
  5 10  2  0  0  0  0
  5 12  1  0  0  0  0
  6 21  1  0  0  0  0
  6  4  2  0  0  0  0
  7 18  1  0  0  0  0
  7 11  2  0  0  0  0
  8  1  2  0  0  0  0
  9  2  2  0  0  0  0
  9  7  1  0  0  0  0
 10 13  1  0  0  0  0
 11  4  1  0  0  0  0
 12  8  1  0  0  0  0
 13  8  1  0  0  0  0
 13  3  2  0  0  0  0
 14 19  1  0  0  0  0
 15 19  2  0  0  0  0
 16 15  1  0  0  0  0
 17 16  2  0  0  0  0
 17 18  1  0  0  0  0
 18 14  2  0  0  0  0
 20 23  1  0  0  0  0
 21 22  1  0  0  0  0
 22 23  2  0  0  0  0
 24 20  2  0  0  0  0
 25 24  1  0  0  0  0
 25 21  2  0  0  0  0
 26 27  1  0  0  0  0
 27  5  1  0  0  0  0
M  END
>  <MODEL>
2

>  <REMARK>
 VINA RESULT:      -7.6      0.838      6.140
  Name = 
  3 active torsions:
  status: ('A' for Active; 'I' for Inactive)
    1  A    between atoms: C_9  and  C_15
    2  A    between atoms: C_13  and  C_22
    3  A    between atoms: C_14  and  C_17
                            x       y       z     vdW  Elec       q    Type
                         _______ _______ _______ _____ _____    ______ ____

>  <TORSDO>
F 3

$$$$
=
 OpenBabel11052418343D

 27 31  0  0  0  0  0  0  0  0999 V2000
  190.6290  174.8670  143.4030 N   0  0  0  0  0  0  0  0  0  0  0  0
  189.3060  175.2150  143.3380 C   0  0  0  0  0  0  0  0  0  0  0  0
  189.5730  176.5310  145.3540 N   0  0  0  0  0  0  0  0  0  0  0  0
  187.1310  175.1130  142.2810 C   0  0  0  0  0  3  0  0  0  0  0  0
  192.9150  175.8940  145.8320 C   0  0  0  0  0  0  0  0  0  0  0  0
  188.4810  174.7410  142.2890 C   0  0  0  0  0  0  0  0  0  0  0  0
  187.3840  176.4200  144.3210 C   0  0  0  0  0  0  0  0  0  0  0  0
  191.3870  175.3460  144.4140 C   0  0  0  0  0  0  0  0  0  0  0  0
  188.7540  176.0650  144.3590 C   0  0  0  0  0  0  0  0  0  0  0  0
  191.7960  176.5290  146.2640 N   0  0  0  0  0  0  0  0  0  0  0  0
  186.5970  175.9330  143.2710 C   0  0  0  0  0  3  0  0  0  0  0  0
  192.7200  175.1410  144.6680 C   0  0  0  0  0  2  0  0  0  0  0  0
  190.8740  176.1620  145.3640 C   0  0  0  0  0  0  0  0  0  0  0  0
  186.2260  178.5440  144.9940 C   0  0  0  0  0  3  0  0  0  0  0  0
  185.4720  178.8840  147.2530 C   0  0  0  0  0  3  0  0  0  0  0  0
  185.9570  177.6600  147.5900 N   0  0  0  0  0  0  0  0  0  0  0  0
  186.5730  176.8620  146.6780 C   0  0  0  0  0  3  0  0  0  0  0  0
  186.7340  177.2830  145.3480 C   0  0  0  0  0  0  0  0  0  0  0  0
  185.5980  179.3490  145.9440 C   0  0  0  0  0  3  0  0  0  0  0  0
  189.8750  172.1940  139.1870 N   0  0  0  0  0  0  0  0  0  0  0  0
  188.9790  173.8700  141.1860 C   0  0  0  0  0  0  0  0  0  0  0  0
  189.5310  172.6150  141.4720 C   0  0  0  0  0  3  0  0  0  0  0  0
  189.9660  171.8160  140.4620 N   0  0  0  0  0  0  0  0  0  0  0  0
  189.3430  173.3960  138.8440 C   0  0  0  0  0  3  0  0  0  0  0  0
  188.8840  174.2510  139.8420 C   0  0  0  0  0  3  0  0  0  0  0  0
  195.2670  175.1700  145.8200 C   0  0  0  0  0  1  0  0  0  0  0  0
  194.2320  176.0320  146.5150 C   0  0  0  0  0  2  0  0  0  0  0  0
  1  8  2  0  0  0  0
  2  1  1  0  0  0  0
  2  9  1  0  0  0  0
  3 13  2  0  0  0  0
  4  6  1  0  0  0  0
  4 11  2  0  0  0  0
  5 10  2  0  0  0  0
  5 27  1  0  0  0  0
  6  2  2  0  0  0  0
  7  9  2  0  0  0  0
  7 18  1  0  0  0  0
  8 12  1  0  0  0  0
  8 13  1  0  0  0  0
  9  3  1  0  0  0  0
 11  7  1  0  0  0  0
 12  5  1  0  0  0  0
 13 10  1  0  0  0  0
 14 18  2  0  0  0  0
 14 19  1  0  0  0  0
 15 16  1  0  0  0  0
 17 16  2  0  0  0  0
 18 17  1  0  0  0  0
 19 15  2  0  0  0  0
 20 23  1  0  0  0  0
 21 22  1  0  0  0  0
 21  6  1  0  0  0  0
 23 22  2  0  0  0  0
 24 20  2  0  0  0  0
 24 25  1  0  0  0  0
 25 21  2  0  0  0  0
 26 27  1  0  0  0  0
M  END
>  <MODEL>
3

>  <REMARK>
 VINA RESULT:      -7.2      1.768      5.461
  Name = 
  3 active torsions:
  status: ('A' for Active; 'I' for Inactive)
    1  A    between atoms: C_9  and  C_15
    2  A    between atoms: C_13  and  C_22
    3  A    between atoms: C_14  and  C_17
                            x       y       z     vdW  Elec       q    Type
                         _______ _______ _______ _____ _____    ______ ____

>  <TORSDO>
F 3

$$$$
=
 OpenBabel11052418343D

 27 31  0  0  0  0  0  0  0  0999 V2000
  187.9250  175.3970  141.4520 N   0  0  0  0  0  0  0  0  0  0  0  0
  188.3110  176.1510  142.5270 C   0  0  0  0  0  0  0  0  0  0  0  0
  190.3420  174.8420  142.6910 N   0  0  0  0  0  0  0  0  0  0  0  0
  187.9320  177.9350  144.1200 C   0  0  0  0  0  3  0  0  0  0  0  0
  189.7180  172.7630  140.0270 C   0  0  0  0  0  0  0  0  0  0  0  0
  187.4970  177.2070  143.0050 C   0  0  0  0  0  0  0  0  0  0  0  0
  189.9660  176.6080  144.3060 C   0  0  0  0  0  0  0  0  0  0  0  0
  188.7320  174.4030  141.0200 C   0  0  0  0  0  0  0  0  0  0  0  0
  189.5580  175.8530  143.1810 C   0  0  0  0  0  0  0  0  0  0  0  0
  190.5610  173.1220  141.0290 N   0  0  0  0  0  0  0  0  0  0  0  0
  189.1370  177.6430  144.7520 C   0  0  0  0  0  3  0  0  0  0  0  0
  188.5540  173.5390  139.9680 C   0  0  0  0  0  2  0  0  0  0  0  0
  189.9140  174.1350  141.6210 C   0  0  0  0  0  0  0  0  0  0  0  0
  191.2370  175.5290  146.1840 C   0  0  0  0  0  3  0  0  0  0  0  0
  193.6140  175.8310  146.4090 C   0  0  0  0  0  3  0  0  0  0  0  0
  193.6090  176.6200  145.3030 N   0  0  0  0  0  0  0  0  0  0  0  0
  192.4620  176.8860  144.6210 C   0  0  0  0  0  3  0  0  0  0  0  0
  191.2350  176.3530  145.0460 C   0  0  0  0  0  0  0  0  0  0  0  0
  192.4230  175.2680  146.8700 C   0  0  0  0  0  3  0  0  0  0  0  0
  183.7790  178.3320  141.2820 N   0  0  0  0  0  0  0  0  0  0  0  0
  186.2000  177.5890  142.3760 C   0  0  0  0  0  0  0  0  0  0  0  0
  185.0300  177.6380  143.1450 C   0  0  0  0  0  3  0  0  0  0  0  0
  183.8530  178.0060  142.5730 N   0  0  0  0  0  0  0  0  0  0  0  0
  184.8780  178.3100  140.4850 C   0  0  0  0  0  3  0  0  0  0  0  0
  186.1080  177.9400  141.0240 C   0  0  0  0  0  3  0  0  0  0  0  0
  189.5600  172.0620  137.6740 C   0  0  0  0  0  1  0  0  0  0  0  0
  190.0350  171.6750  139.0610 C   0  0  0  0  0  2  0  0  0  0  0  0
  1  2  1  0  0  0  0
  2  6  2  0  0  0  0
  2  9  1  0  0  0  0
  3  9  1  0  0  0  0
  4 11  2  0  0  0  0
  5 10  2  0  0  0  0
  6  4  1  0  0  0  0
  7 11  1  0  0  0  0
  7 18  1  0  0  0  0
  8  1  2  0  0  0  0
  8 13  1  0  0  0  0
  9  7  2  0  0  0  0
 10 13  1  0  0  0  0
 12  5  1  0  0  0  0
 12  8  1  0  0  0  0
 13  3  2  0  0  0  0
 14 19  1  0  0  0  0
 15 19  2  0  0  0  0
 16 15  1  0  0  0  0
 17 18  1  0  0  0  0
 17 16  2  0  0  0  0
 18 14  2  0  0  0  0
 20 23  1  0  0  0  0
 21  6  1  0  0  0  0
 21 22  1  0  0  0  0
 23 22  2  0  0  0  0
 24 25  1  0  0  0  0
 24 20  2  0  0  0  0
 25 21  2  0  0  0  0
 26 27  1  0  0  0  0
 27  5  1  0  0  0  0
M  END
>  <MODEL>
4

>  <REMARK>
 VINA RESULT:      -7.1      2.096      6.250
  Name = 
  3 active torsions:
  status: ('A' for Active; 'I' for Inactive)
    1  A    between atoms: C_9  and  C_15
    2  A    between atoms: C_13  and  C_22
    3  A    between atoms: C_14  and  C_17
                            x       y       z     vdW  Elec       q    Type
                         _______ _______ _______ _____ _____    ______ ____

>  <TORSDO>
F 3

$$$$
=
 OpenBabel11052418343D

 27 31  0  0  0  0  0  0  0  0999 V2000
  189.5330  176.6160  145.4380 N   0  0  0  0  0  0  0  0  0  0  0  0
  188.7180  176.1300  144.4500 C   0  0  0  0  0  0  0  0  0  0  0  0
  190.5950  174.9060  143.5310 N   0  0  0  0  0  0  0  0  0  0  0  0
  186.5650  175.9760  143.3550 C   0  0  0  0  0  3  0  0  0  0  0  0
  192.9240  175.9000  145.8530 C   0  0  0  0  0  0  0  0  0  0  0  0
  187.3480  176.4870  144.3980 C   0  0  0  0  0  0  0  0  0  0  0  0
  188.4520  174.7600  142.4100 C   0  0  0  0  0  0  0  0  0  0  0  0
  190.8330  176.2470  145.4600 C   0  0  0  0  0  0  0  0  0  0  0  0
  189.2720  175.2560  143.4510 C   0  0  0  0  0  0  0  0  0  0  0  0
  192.6500  175.1640  144.7450 N   0  0  0  0  0  0  0  0  0  0  0  0
  187.1030  175.1330  142.3880 C   0  0  0  0  0  3  0  0  0  0  0  0
  191.8160  176.5960  146.3520 C   0  0  0  0  0  2  0  0  0  0  0  0
  191.3500  175.4090  144.5330 C   0  0  0  0  0  0  0  0  0  0  0  0
  188.8700  174.2590  139.9860 C   0  0  0  0  0  3  0  0  0  0  0  0
  189.9320  172.2090  139.3070 C   0  0  0  0  0  3  0  0  0  0  0  0
  190.0180  171.8330  140.6090 N   0  0  0  0  0  0  0  0  0  0  0  0
  189.5500  172.6240  141.6120 C   0  0  0  0  0  3  0  0  0  0  0  0
  188.9530  173.8620  141.3300 C   0  0  0  0  0  0  0  0  0  0  0  0
  189.3550  173.4350  138.9710 C   0  0  0  0  0  3  0  0  0  0  0  0
  185.4330  179.0410  147.2020 N   0  0  0  0  0  0  0  0  0  0  0  0
  186.6940  177.3740  145.4020 C   0  0  0  0  0  0  0  0  0  0  0  0
  186.1790  178.6180  145.0160 C   0  0  0  0  0  3  0  0  0  0  0  0
  185.5660  179.4160  145.9290 N   0  0  0  0  0  0  0  0  0  0  0  0
  185.9050  177.8440  147.6380 C   0  0  0  0  0  3  0  0  0  0  0  0
  186.5410  176.9910  146.7400 C   0  0  0  0  0  3  0  0  0  0  0  0
  195.2010  174.9720  145.7660 C   0  0  0  0  0  1  0  0  0  0  0  0
  194.2680  175.9190  146.4940 C   0  0  0  0  0  2  0  0  0  0  0  0
  1  8  2  0  0  0  0
  2  1  1  0  0  0  0
  3 13  2  0  0  0  0
  4  6  2  0  0  0  0
  5 12  1  0  0  0  0
  5 27  1  0  0  0  0
  6  2  1  0  0  0  0
  6 21  1  0  0  0  0
  7  9  1  0  0  0  0
  8 12  1  0  0  0  0
  9  3  1  0  0  0  0
  9  2  2  0  0  0  0
 10  5  2  0  0  0  0
 11  7  2  0  0  0  0
 11  4  1  0  0  0  0
 13 10  1  0  0  0  0
 13  8  1  0  0  0  0
 14 18  1  0  0  0  0
 15 16  2  0  0  0  0
 16 17  1  0  0  0  0
 18 17  2  0  0  0  0
 18  7  1  0  0  0  0
 19 15  1  0  0  0  0
 19 14  2  0  0  0  0
 20 24  1  0  0  0  0
 21 25  1  0  0  0  0
 22 21  2  0  0  0  0
 22 23  1  0  0  0  0
 23 20  2  0  0  0  0
 25 24  2  0  0  0  0
 26 27  1  0  0  0  0
M  END
>  <MODEL>
5

>  <REMARK>
 VINA RESULT:      -7.1      1.548      7.022
  Name = 
  3 active torsions:
  status: ('A' for Active; 'I' for Inactive)
    1  A    between atoms: C_9  and  C_15
    2  A    between atoms: C_13  and  C_22
    3  A    between atoms: C_14  and  C_17
                            x       y       z     vdW  Elec       q    Type
                         _______ _______ _______ _____ _____    ______ ____

>  <TORSDO>
F 3

$$$$
=
 OpenBabel11052418343D

 27 31  0  0  0  0  0  0  0  0999 V2000
  190.2370  175.2660  144.7480 N   0  0  0  0  0  0  0  0  0  0  0  0
  189.0620  175.4460  144.0690 C   0  0  0  0  0  0  0  0  0  0  0  0
  188.3280  176.9900  145.7850 N   0  0  0  0  0  0  0  0  0  0  0  0
  187.5900  174.9750  142.2060 C   0  0  0  0  0  3  0  0  0  0  0  0
  191.1440  176.8080  147.7450 C   0  0  0  0  0  0  0  0  0  0  0  0
  188.8170  174.7680  142.8500 C   0  0  0  0  0  0  0  0  0  0  0  0
  186.8350  176.5110  143.9380 C   0  0  0  0  0  0  0  0  0  0  0  0
  190.4380  175.9360  145.9050 C   0  0  0  0  0  0  0  0  0  0  0  0
  188.0640  176.3280  144.6150 C   0  0  0  0  0  0  0  0  0  0  0  0
  189.9140  177.3490  147.5530 N   0  0  0  0  0  0  0  0  0  0  0  0
  186.6250  175.8260  142.7360 C   0  0  0  0  0  3  0  0  0  0  0  0
  191.5310  175.9180  146.7360 C   0  0  0  0  0  2  0  0  0  0  0  0
  189.5100  176.7810  146.4090 C   0  0  0  0  0  0  0  0  0  0  0  0
  185.2530  177.2330  145.7490 C   0  0  0  0  0  3  0  0  0  0  0  0
  183.7430  179.0770  145.4170 C   0  0  0  0  0  3  0  0  0  0  0  0
  184.2300  179.2370  144.1580 N   0  0  0  0  0  0  0  0  0  0  0  0
  185.2080  178.4310  143.6640 C   0  0  0  0  0  3  0  0  0  0  0  0
  185.7460  177.3960  144.4450 C   0  0  0  0  0  0  0  0  0  0  0  0
  184.2490  178.0690  146.2380 C   0  0  0  0  0  3  0  0  0  0  0  0
  191.6860  172.2040  141.0470 N   0  0  0  0  0  0  0  0  0  0  0  0
  189.8030  173.8500  142.2110 C   0  0  0  0  0  0  0  0  0  0  0  0
  190.9170  174.3690  141.5380 C   0  0  0  0  0  3  0  0  0  0  0  0
  191.8240  173.5290  140.9730 N   0  0  0  0  0  0  0  0  0  0  0  0
  190.6310  171.6400  141.6900 C   0  0  0  0  0  3  0  0  0  0  0  0
  189.6750  172.4580  142.2850 C   0  0  0  0  0  3  0  0  0  0  0  0
  191.3400  178.2500  149.7290 C   0  0  0  0  0  1  0  0  0  0  0  0
  192.0110  177.1730  148.9000 C   0  0  0  0  0  2  0  0  0  0  0  0
  1  8  2  0  0  0  0
  2  9  1  0  0  0  0
  2  1  1  0  0  0  0
  3 13  2  0  0  0  0
  4 11  2  0  0  0  0
  4  6  1  0  0  0  0
  5 27  1  0  0  0  0
  6  2  2  0  0  0  0
  7 18  1  0  0  0  0
  7  9  2  0  0  0  0
  8 13  1  0  0  0  0
  8 12  1  0  0  0  0
  9  3  1  0  0  0  0
 10  5  2  0  0  0  0
 11  7  1  0  0  0  0
 12  5  1  0  0  0  0
 13 10  1  0  0  0  0
 14 19  1  0  0  0  0
 15 19  2  0  0  0  0
 16 15  1  0  0  0  0
 17 16  2  0  0  0  0
 17 18  1  0  0  0  0
 18 14  2  0  0  0  0
 20 24  1  0  0  0  0
 21 25  1  0  0  0  0
 21  6  1  0  0  0  0
 22 21  2  0  0  0  0
 23 20  2  0  0  0  0
 23 22  1  0  0  0  0
 24 25  2  0  0  0  0
 27 26  1  0  0  0  0
M  END
>  <MODEL>
6

>  <REMARK>
 VINA RESULT:      -7.0      2.374      5.290
  Name = 
  3 active torsions:
  status: ('A' for Active; 'I' for Inactive)
    1  A    between atoms: C_9  and  C_15
    2  A    between atoms: C_13  and  C_22
    3  A    between atoms: C_14  and  C_17
                            x       y       z     vdW  Elec       q    Type
                         _______ _______ _______ _____ _____    ______ ____

>  <TORSDO>
F 3

$$$$
=
 OpenBabel11052418343D

 27 31  0  0  0  0  0  0  0  0999 V2000
  190.3140  174.8350  142.6830 N   0  0  0  0  0  0  0  0  0  0  0  0
  189.5260  175.8350  143.1870 C   0  0  0  0  0  0  0  0  0  0  0  0
  187.9150  175.4270  141.4250 N   0  0  0  0  0  0  0  0  0  0  0  0
  189.0850  177.5850  144.8000 C   0  0  0  0  0  3  0  0  0  0  0  0
  189.6070  172.8560  139.8960 C   0  0  0  0  0  0  0  0  0  0  0  0
  189.9200  176.5600  144.3380 C   0  0  0  0  0  0  0  0  0  0  0  0
  187.4700  177.1970  143.0170 C   0  0  0  0  0  0  0  0  0  0  0  0
  189.9020  174.1600  141.5870 C   0  0  0  0  0  0  0  0  0  0  0  0
  188.2890  176.1530  142.5250 C   0  0  0  0  0  0  0  0  0  0  0  0
  188.5060  173.6510  139.9200 N   0  0  0  0  0  0  0  0  0  0  0  0
  187.8900  177.8940  144.1570 C   0  0  0  0  0  3  0  0  0  0  0  0
  190.5160  173.1250  140.9260 C   0  0  0  0  0  2  0  0  0  0  0  0
  188.7290  174.4440  140.9760 C   0  0  0  0  0  0  0  0  0  0  0  0
  186.1410  177.9290  141.0170 C   0  0  0  0  0  3  0  0  0  0  0  0
  183.7690  178.3010  141.1700 C   0  0  0  0  0  3  0  0  0  0  0  0
  183.8120  177.9700  142.4870 N   0  0  0  0  0  0  0  0  0  0  0  0
  184.9760  177.6220  143.0980 C   0  0  0  0  0  3  0  0  0  0  0  0
  186.1830  177.5970  142.3810 C   0  0  0  0  0  0  0  0  0  0  0  0
  184.9380  178.2840  140.4080 C   0  0  0  0  0  3  0  0  0  0  0  0
  193.5260  175.8470  146.4690 N   0  0  0  0  0  0  0  0  0  0  0  0
  191.1770  176.2830  145.0900 C   0  0  0  0  0  0  0  0  0  0  0  0
  192.3710  176.9220  144.7300 C   0  0  0  0  0  3  0  0  0  0  0  0
  193.5110  176.6820  145.4300 N   0  0  0  0  0  0  0  0  0  0  0  0
  192.4010  175.2020  146.8720 C   0  0  0  0  0  3  0  0  0  0  0  0
  191.2070  175.4150  146.1870 C   0  0  0  0  0  3  0  0  0  0  0  0
  191.1770  171.1690  139.0360 C   0  0  0  0  0  1  0  0  0  0  0  0
  189.7950  171.7730  138.8920 C   0  0  0  0  0  2  0  0  0  0  0  0
  1  2  1  0  0  0  0
  2  6  1  0  0  0  0
  3  9  1  0  0  0  0
  5 10  2  0  0  0  0
  5 12  1  0  0  0  0
  6  4  2  0  0  0  0
  6 21  1  0  0  0  0
  7 11  2  0  0  0  0
  8  1  2  0  0  0  0
  9  7  1  0  0  0  0
  9  2  2  0  0  0  0
 10 13  1  0  0  0  0
 11  4  1  0  0  0  0
 12  8  1  0  0  0  0
 13  3  2  0  0  0  0
 13  8  1  0  0  0  0
 14 18  1  0  0  0  0
 15 16  2  0  0  0  0
 16 17  1  0  0  0  0
 18  7  1  0  0  0  0
 18 17  2  0  0  0  0
 19 14  2  0  0  0  0
 19 15  1  0  0  0  0
 20 24  1  0  0  0  0
 21 25  1  0  0  0  0
 22 21  2  0  0  0  0
 22 23  1  0  0  0  0
 23 20  2  0  0  0  0
 25 24  2  0  0  0  0
 27 26  1  0  0  0  0
 27  5  1  0  0  0  0
M  END
>  <MODEL>
7

>  <REMARK>
 VINA RESULT:      -6.9      2.170      2.729
  Name = 
  3 active torsions:
  status: ('A' for Active; 'I' for Inactive)
    1  A    between atoms: C_9  and  C_15
    2  A    between atoms: C_13  and  C_22
    3  A    between atoms: C_14  and  C_17
                            x       y       z     vdW  Elec       q    Type
                         _______ _______ _______ _____ _____    ______ ____

>  <TORSDO>
F 3

$$$$
=
 OpenBabel11052418343D

 27 31  0  0  0  0  0  0  0  0999 V2000
  188.3870  177.1550  145.6480 N   0  0  0  0  0  0  0  0  0  0  0  0
  188.1250  176.3960  144.5390 C   0  0  0  0  0  0  0  0  0  0  0  0
  190.1340  175.1130  144.9670 N   0  0  0  0  0  0  0  0  0  0  0  0
  186.7660  175.8440  142.6130 C   0  0  0  0  0  3  0  0  0  0  0  0
  191.1030  176.7830  147.8090 C   0  0  0  0  0  0  0  0  0  0  0  0
  186.9760  176.6390  143.7470 C   0  0  0  0  0  0  0  0  0  0  0  0
  188.7970  174.5640  143.0220 C   0  0  0  0  0  0  0  0  0  0  0  0
  189.4890  176.8880  146.3840 C   0  0  0  0  0  0  0  0  0  0  0  0
  189.0400  175.3470  144.1760 C   0  0  0  0  0  0  0  0  0  0  0  0
  191.3560  175.7880  146.9210 N   0  0  0  0  0  0  0  0  0  0  0  0
  187.6530  174.8310  142.2620 C   0  0  0  0  0  3  0  0  0  0  0  0
  189.9370  177.5040  147.5260 C   0  0  0  0  0  2  0  0  0  0  0  0
  190.3390  175.8890  146.0550 C   0  0  0  0  0  0  0  0  0  0  0  0
  190.8040  173.7560  141.7470 C   0  0  0  0  0  3  0  0  0  0  0  0
  191.4320  171.4330  141.7620 C   0  0  0  0  0  3  0  0  0  0  0  0
  190.3710  171.1610  142.5660 N   0  0  0  0  0  0  0  0  0  0  0  0
  189.5170  172.1380  142.9760 C   0  0  0  0  0  3  0  0  0  0  0  0
  189.7040  173.4690  142.5710 C   0  0  0  0  0  0  0  0  0  0  0  0
  191.6680  172.7410  141.3370 C   0  0  0  0  0  3  0  0  0  0  0  0
  184.1110  179.6670  144.5680 N   0  0  0  0  0  0  0  0  0  0  0  0
  185.9730  177.6960  144.0630 C   0  0  0  0  0  0  0  0  0  0  0  0
  185.9210  178.8710  143.3020 C   0  0  0  0  0  3  0  0  0  0  0  0
  184.9930  179.8230  143.5800 N   0  0  0  0  0  0  0  0  0  0  0  0
  184.1040  178.5480  145.3380 C   0  0  0  0  0  3  0  0  0  0  0  0
  185.0360  177.5430  145.0920 C   0  0  0  0  0  3  0  0  0  0  0  0
  191.4300  178.2250  149.7760 C   0  0  0  0  0  1  0  0  0  0  0  0
  191.9670  177.0430  148.9940 C   0  0  0  0  0  2  0  0  0  0  0  0
  1  8  2  0  0  0  0
  2  1  1  0  0  0  0
  3 13  2  0  0  0  0
  4  6  1  0  0  0  0
  5 27  1  0  0  0  0
  6 21  1  0  0  0  0
  6  2  2  0  0  0  0
  7  9  2  0  0  0  0
  8 12  1  0  0  0  0
  9  2  1  0  0  0  0
  9  3  1  0  0  0  0
 10  5  2  0  0  0  0
 11  4  2  0  0  0  0
 11  7  1  0  0  0  0
 12  5  1  0  0  0  0
 13  8  1  0  0  0  0
 13 10  1  0  0  0  0
 14 18  1  0  0  0  0
 15 16  2  0  0  0  0
 16 17  1  0  0  0  0
 18 17  2  0  0  0  0
 18  7  1  0  0  0  0
 19 14  2  0  0  0  0
 19 15  1  0  0  0  0
 20 24  1  0  0  0  0
 21 25  1  0  0  0  0
 22 23  1  0  0  0  0
 22 21  2  0  0  0  0
 23 20  2  0  0  0  0
 25 24  2  0  0  0  0
 27 26  1  0  0  0  0
M  END
>  <MODEL>
8

>  <REMARK>
 VINA RESULT:      -6.6      2.486      7.728
  Name = 
  3 active torsions:
  status: ('A' for Active; 'I' for Inactive)
    1  A    between atoms: C_9  and  C_15
    2  A    between atoms: C_13  and  C_22
    3  A    between atoms: C_14  and  C_17
                            x       y       z     vdW  Elec       q    Type
                         _______ _______ _______ _____ _____    ______ ____

>  <TORSDO>
F 3

$$$$
=
 OpenBabel11052418343D

 27 31  0  0  0  0  0  0  0  0999 V2000
  191.1130  174.6180  142.8960 N   0  0  0  0  0  0  0  0  0  0  0  0
  189.7910  174.9090  142.6940 C   0  0  0  0  0  0  0  0  0  0  0  0
  189.8640  176.4450  144.5660 N   0  0  0  0  0  0  0  0  0  0  0  0
  187.7080  174.6150  141.4970 C   0  0  0  0  0  3  0  0  0  0  0  0
  193.1760  175.9850  145.3580 C   0  0  0  0  0  0  0  0  0  0  0  0
  189.0630  174.2940  141.6470 C   0  0  0  0  0  0  0  0  0  0  0  0
  187.7660  176.1440  143.3920 C   0  0  0  0  0  0  0  0  0  0  0  0
  191.7780  175.2310  143.9010 C   0  0  0  0  0  0  0  0  0  0  0  0
  189.1380  175.8450  143.5710 C   0  0  0  0  0  0  0  0  0  0  0  0
  192.0090  176.6230  145.6320 N   0  0  0  0  0  0  0  0  0  0  0  0
  187.0770  175.5180  142.3470 C   0  0  0  0  0  3  0  0  0  0  0  0
  193.0920  175.1030  144.2740 C   0  0  0  0  0  2  0  0  0  0  0  0
  191.1700  176.1270  144.7130 C   0  0  0  0  0  0  0  0  0  0  0  0
  186.7600  176.7640  145.6070 C   0  0  0  0  0  3  0  0  0  0  0  0
  185.6500  178.8760  145.9190 C   0  0  0  0  0  3  0  0  0  0  0  0
  185.9070  179.1920  144.6230 N   0  0  0  0  0  0  0  0  0  0  0  0
  186.5720  178.3380  143.7990 C   0  0  0  0  0  3  0  0  0  0  0  0
  187.0140  177.0910  144.2650 C   0  0  0  0  0  0  0  0  0  0  0  0
  186.0750  177.6520  146.4370 C   0  0  0  0  0  3  0  0  0  0  0  0
  190.7380  171.4790  138.9400 N   0  0  0  0  0  0  0  0  0  0  0  0
  189.6690  173.3260  140.6880 C   0  0  0  0  0  0  0  0  0  0  0  0
  189.7980  171.9750  141.0350 C   0  0  0  0  0  3  0  0  0  0  0  0
  190.3320  171.0920  140.1500 N   0  0  0  0  0  0  0  0  0  0  0  0
  190.6340  172.7730  138.5420 C   0  0  0  0  0  3  0  0  0  0  0  0
  190.0930  173.7160  139.4120 C   0  0  0  0  0  3  0  0  0  0  0  0
  195.4230  175.1250  145.8700 C   0  0  0  0  0  1  0  0  0  0  0  0
  194.4300  176.2430  146.1170 C   0  0  0  0  0  2  0  0  0  0  0  0
  1  8  2  0  0  0  0
  2  1  1  0  0  0  0
  2  9  1  0  0  0  0
  3 13  2  0  0  0  0
  4  6  1  0  0  0  0
  4 11  2  0  0  0  0
  5 10  2  0  0  0  0
  5 27  1  0  0  0  0
  6  2  2  0  0  0  0
  7  9  2  0  0  0  0
  7 18  1  0  0  0  0
  8 12  1  0  0  0  0
  8 13  1  0  0  0  0
  9  3  1  0  0  0  0
 11  7  1  0  0  0  0
 12  5  1  0  0  0  0
 13 10  1  0  0  0  0
 14 19  1  0  0  0  0
 15 19  2  0  0  0  0
 16 15  1  0  0  0  0
 17 18  1  0  0  0  0
 17 16  2  0  0  0  0
 18 14  2  0  0  0  0
 20 23  1  0  0  0  0
 21 22  1  0  0  0  0
 21  6  1  0  0  0  0
 23 22  2  0  0  0  0
 24 20  2  0  0  0  0
 24 25  1  0  0  0  0
 25 21  2  0  0  0  0
 26 27  1  0  0  0  0
M  END
>  <MODEL>
9

>  <REMARK>
 VINA RESULT:      -6.6      1.866      5.443
  Name = 
  3 active torsions:
  status: ('A' for Active; 'I' for Inactive)
    1  A    between atoms: C_9  and  C_15
    2  A    between atoms: C_13  and  C_22
    3  A    between atoms: C_14  and  C_17
                            x       y       z     vdW  Elec       q    Type
                         _______ _______ _______ _____ _____    ______ ____

>  <TORSDO>
F 3

$$$$
