=
 OpenBabel11052417073D

 30 32  0  0  1  0  0  0  0  0999 V2000
  188.8730  175.4190  141.6980 C   0  0  1  0  0  3  0  0  0  0  0  0
  190.1860  175.0200  142.4480 C   0  0  2  0  0  3  0  0  0  0  0  0
  188.0630  174.2680  141.3070 N   0  0  0  0  0  2  0  0  0  0  0  0
  190.8610  171.9710  140.3600 C   0  0  0  0  0  2  0  0  0  0  0  0
  189.9000  172.7050  141.3110 C   0  0  2  0  0  3  0  0  0  0  0  0
  188.1450  172.5740  139.6750 O   0  0  0  0  0  0  0  0  0  0  0  0
  188.9060  173.4710  140.4430 C   0  0  1  0  0  3  0  0  0  0  0  0
  190.6190  173.6150  142.2210 N   0  0  0  0  0  0  0  0  0  0  0  0
  190.0690  171.1600  139.3370 C   0  0  0  0  0  2  0  0  0  0  0  0
  189.0170  172.0680  138.6980 C   0  0  0  0  0  2  0  0  0  0  0  0
  191.8450  171.9320  143.3470 N   0  0  0  0  0  2  0  0  0  0  0  0
  191.8130  173.1300  142.8530 C   0  0  0  0  0  0  0  0  0  0  0  0
  187.8030  177.7170  141.5420 C   0  0  1  0  0  3  0  0  0  0  0  0
  186.5120  178.4400  141.9510 C   0  0  0  0  0  2  0  0  0  0  0  0
  188.8780  178.5870  141.7240 O   0  0  0  0  0  1  0  0  0  0  0  0
  186.7030  175.8970  142.9300 C   0  0  0  0  0  2  0  0  0  0  0  0
  185.8670  176.7600  145.1050 C   0  0  0  0  0  1  0  0  0  0  0  0
  188.0250  176.4770  142.4140 C   0  0  1  0  0  3  0  0  0  0  0  0
  186.3030  178.3150  143.3430 O   0  0  0  0  0  0  0  0  0  0  0  0
  185.8500  176.9940  143.6080 C   0  0  1  0  0  3  0  0  0  0  0  0
  192.9450  173.9460  142.9030 O   0  0  0  0  0  0  0  0  0  0  0  0
  193.7420  174.2110  141.7560 C   0  0  0  0  0  1  0  0  0  0  0  0
  190.2660  175.5210  143.9310 C   0  0  1  0  0  3  0  0  0  0  0  0
  191.7030  177.4090  143.1550 C   0  0  0  0  0  1  0  0  0  0  0  0
  190.6610  176.9850  144.1870 C   0  0  2  0  0  3  0  0  0  0  0  0
  191.1960  177.1400  145.4700 O   0  0  0  0  0  0  0  0  0  0  0  0
  192.4570  176.5540  145.3980 C   0  0  0  0  0  1  0  0  0  0  0  0
  189.1300  175.0070  144.8260 C   0  0  0  0  0  2  0  0  0  0  0  0
  189.6240  174.1050  145.9540 C   0  0  0  0  0  2  0  0  0  0  0  0
  189.2090  174.6980  147.2860 C   0  0  0  0  0  1  0  0  0  0  0  0
  1  3  1  1  0  0  0
  1 18  1  0  0  0  0
  1  2  1  0  0  0  0
  2 23  1  1  0  0  0
  5  4  1  6  0  0  0
  5  8  1  0  0  0  0
  7  6  1  1  0  0  0
  7  3  1  0  0  0  0
  7  5  1  0  0  0  0
  8  2  1  0  0  0  0
  8 12  1  0  0  0  0
  9  4  1  0  0  0  0
 10  9  1  0  0  0  0
 10  6  1  0  0  0  0
 12 21  1  0  0  0  0
 12 11  2  0  0  0  0
 13 15  1  1  0  0  0
 13 14  1  0  0  0  0
 13 18  1  0  0  0  0
 14 19  1  0  0  0  0
 16 20  1  0  0  0  0
 18 16  1  6  0  0  0
 19 20  1  0  0  0  0
 20 17  1  1  0  0  0
 22 21  1  0  0  0  0
 23 25  1  0  0  0  0
 23 28  1  6  0  0  0
 25 24  1  6  0  0  0
 25 26  1  0  0  0  0
 27 26  1  0  0  0  0
 28 29  1  0  0  0  0
 29 30  1  0  0  0  0
M  END
>  <MODEL>
1

>  <REMARK>
 VINA RESULT:      -6.2      0.000      0.000
  Name = 
  7 active torsions:
  status: ('A' for Active; 'I' for Inactive)
    1  A    between atoms: C_1  and  C_22
    2  A    between atoms: C_4  and  C_23
    3  A    between atoms: O_7  and  C_30
    4  A    between atoms: C_10  and  C_15
    5  A    between atoms: C_10  and  C_23
    6  A    between atoms: O_11  and  C_25
    7  A    between atoms: C_23  and  C_25
                            x       y       z     vdW  Elec       q    Type
                         _______ _______ _______ _____ _____    ______ ____

>  <TORSDO>
F 7

$$$$
=
 OpenBabel11052417073D

 30 32  0  0  1  0  0  0  0  0999 V2000
  189.0250  175.4200  141.6590 C   0  0  1  0  0  3  0  0  0  0  0  0
  190.4270  175.0750  142.2600 C   0  0  2  0  0  3  0  0  0  0  0  0
  188.2130  174.2390  141.3790 N   0  0  0  0  0  2  0  0  0  0  0  0
  190.9580  172.0100  140.1530 C   0  0  0  0  0  2  0  0  0  0  0  0
  190.0880  172.7320  141.1960 C   0  0  2  0  0  3  0  0  0  0  0  0
  188.1640  172.5180  139.7730 O   0  0  0  0  0  0  0  0  0  0  0  0
  188.9780  173.4520  140.4370 C   0  0  1  0  0  3  0  0  0  0  0  0
  190.8770  173.6790  142.0060 N   0  0  0  0  0  0  0  0  0  0  0  0
  190.0810  171.1580  139.2390 C   0  0  0  0  0  2  0  0  0  0  0  0
  188.9340  172.0210  138.7100 C   0  0  0  0  0  2  0  0  0  0  0  0
  192.2760  172.0550  143.0080 N   0  0  0  0  0  2  0  0  0  0  0  0
  192.1500  173.2420  142.5030 C   0  0  0  0  0  0  0  0  0  0  0  0
  187.8540  177.6730  141.5880 C   0  0  1  0  0  3  0  0  0  0  0  0
  186.5960  178.3580  142.1380 C   0  0  0  0  0  2  0  0  0  0  0  0
  188.9080  178.5860  141.6160 O   0  0  0  0  0  1  0  0  0  0  0  0
  187.0060  175.8500  143.1400 C   0  0  0  0  0  2  0  0  0  0  0  0
  186.4110  176.7390  145.3820 C   0  0  0  0  0  1  0  0  0  0  0  0
  188.2310  176.4650  142.4520 C   0  0  1  0  0  3  0  0  0  0  0  0
  186.5640  178.2620  143.5470 O   0  0  0  0  0  0  0  0  0  0  0  0
  186.2000  176.9320  143.8950 C   0  0  1  0  0  3  0  0  0  0  0  0
  193.2530  174.0930  142.4120 O   0  0  0  0  0  0  0  0  0  0  0  0
  194.3100  174.0710  143.3610 C   0  0  0  0  0  1  0  0  0  0  0  0
  190.6590  175.6050  143.7160 C   0  0  1  0  0  3  0  0  0  0  0  0
  189.3940  174.5950  145.6160 C   0  0  0  0  0  1  0  0  0  0  0  0
  190.7220  174.5830  144.8640 C   0  0  2  0  0  3  0  0  0  0  0  0
  191.7570  174.8940  145.7530 O   0  0  0  0  0  0  0  0  0  0  0  0
  191.1170  175.1260  146.9680 C   0  0  0  0  0  1  0  0  0  0  0  0
  191.6990  176.7300  143.8130 C   0  0  0  0  0  2  0  0  0  0  0  0
  191.0680  178.1120  143.9620 C   0  0  0  0  0  2  0  0  0  0  0  0
  189.9540  178.0450  144.9880 C   0  0  0  0  0  1  0  0  0  0  0  0
  1  3  1  1  0  0  0
  1  2  1  0  0  0  0
  1 18  1  0  0  0  0
  2 23  1  1  0  0  0
  5  4  1  6  0  0  0
  5  8  1  0  0  0  0
  7  6  1  1  0  0  0
  7  5  1  0  0  0  0
  7  3  1  0  0  0  0
  8  2  1  0  0  0  0
  8 12  1  0  0  0  0
  9  4  1  0  0  0  0
 10  9  1  0  0  0  0
 10  6  1  0  0  0  0
 12 11  2  0  0  0  0
 13 15  1  1  0  0  0
 13 14  1  0  0  0  0
 13 18  1  0  0  0  0
 14 19  1  0  0  0  0
 16 20  1  0  0  0  0
 18 16  1  6  0  0  0
 19 20  1  0  0  0  0
 20 17  1  1  0  0  0
 21 12  1  0  0  0  0
 21 22  1  0  0  0  0
 23 28  1  6  0  0  0
 23 25  1  0  0  0  0
 25 24  1  1  0  0  0
 25 26  1  0  0  0  0
 26 27  1  0  0  0  0
 28 29  1  0  0  0  0
 29 30  1  0  0  0  0
M  END
>  <MODEL>
2

>  <REMARK>
 VINA RESULT:      -6.1      0.852      1.755
  Name = 
  7 active torsions:
  status: ('A' for Active; 'I' for Inactive)
    1  A    between atoms: C_1  and  C_22
    2  A    between atoms: C_4  and  C_23
    3  A    between atoms: O_7  and  C_30
    4  A    between atoms: C_10  and  C_15
    5  A    between atoms: C_10  and  C_23
    6  A    between atoms: O_11  and  C_25
    7  A    between atoms: C_23  and  C_25
                            x       y       z     vdW  Elec       q    Type
                         _______ _______ _______ _____ _____    ______ ____

>  <TORSDO>
F 7

$$$$
=
 OpenBabel11052417073D

 30 32  0  0  1  0  0  0  0  0999 V2000
  188.6290  175.5930  142.7290 C   0  0  1  0  0  3  0  0  0  0  0  0
  187.9920  176.0680  144.0760 C   0  0  2  0  0  3  0  0  0  0  0  0
  188.5850  176.6090  141.6820 N   0  0  0  0  0  2  0  0  0  0  0  0
  185.2050  178.0090  142.4710 C   0  0  0  0  0  2  0  0  0  0  0  0
  186.7220  177.8110  142.6330 C   0  0  2  0  0  3  0  0  0  0  0  0
  186.9650  177.5510  140.2570 O   0  0  0  0  0  0  0  0  0  0  0  0
  187.1840  176.9130  141.4890 C   0  0  1  0  0  3  0  0  0  0  0  0
  187.0600  177.2200  143.9400 N   0  0  0  0  0  0  0  0  0  0  0  0
  184.8860  178.4770  141.0530 C   0  0  0  0  0  2  0  0  0  0  0  0
  185.5760  177.5410  140.0580 C   0  0  0  0  0  2  0  0  0  0  0  0
  186.2700  179.0270  145.2490 N   0  0  0  0  0  2  0  0  0  0  0  0
  186.4090  177.7470  145.1060 C   0  0  0  0  0  0  0  0  0  0  0  0
  190.1320  173.6120  142.2110 C   0  0  1  0  0  3  0  0  0  0  0  0
  191.5780  173.3160  141.7880 C   0  0  0  0  0  2  0  0  0  0  0  0
  189.7340  172.6510  143.1400 O   0  0  0  0  0  1  0  0  0  0  0  0
  191.1140  175.9510  142.3430 C   0  0  0  0  0  2  0  0  0  0  0  0
  193.2740  175.9860  143.5710 C   0  0  0  0  0  1  0  0  0  0  0  0
  190.0350  174.9940  142.8640 C   0  0  1  0  0  3  0  0  0  0  0  0
  192.4830  173.9060  142.6990 O   0  0  0  0  0  0  0  0  0  0  0  0
  192.5160  175.3060  142.4500 C   0  0  1  0  0  3  0  0  0  0  0  0
  185.9010  176.8690  146.0650 O   0  0  0  0  0  0  0  0  0  0  0  0
  185.8740  177.1880  147.4500 C   0  0  0  0  0  1  0  0  0  0  0  0
  188.9950  176.1470  145.2770 C   0  0  1  0  0  3  0  0  0  0  0  0
  190.4020  178.1510  144.7960 C   0  0  0  0  0  1  0  0  0  0  0  0
  189.4170  177.5360  145.7860 C   0  0  2  0  0  3  0  0  0  0  0  0
  190.0250  177.4440  147.0420 O   0  0  0  0  0  0  0  0  0  0  0  0
  189.3710  178.3980  147.8180 C   0  0  0  0  0  1  0  0  0  0  0  0
  188.7210  175.1240  146.3880 C   0  0  0  0  0  2  0  0  0  0  0  0
  189.6330  173.9020  146.3090 C   0  0  0  0  0  2  0  0  0  0  0  0
  191.0630  174.3580  146.0950 C   0  0  0  0  0  1  0  0  0  0  0  0
  1  3  1  6  0  0  0
  1 18  1  0  0  0  0
  1  2  1  0  0  0  0
  2 23  1  1  0  0  0
  5  4  1  1  0  0  0
  5  8  1  0  0  0  0
  7  6  1  6  0  0  0
  7  3  1  0  0  0  0
  7  5  1  0  0  0  0
  8  2  1  0  0  0  0
  8 12  1  0  0  0  0
  9  4  1  0  0  0  0
 10  6  1  0  0  0  0
 10  9  1  0  0  0  0
 12 11  2  0  0  0  0
 12 21  1  0  0  0  0
 13 18  1  0  0  0  0
 13 15  1  1  0  0  0
 14 13  1  0  0  0  0
 14 19  1  0  0  0  0
 16 20  1  0  0  0  0
 18 16  1  6  0  0  0
 20 19  1  0  0  0  0
 20 17  1  1  0  0  0
 21 22  1  0  0  0  0
 23 25  1  0  0  0  0
 23 28  1  1  0  0  0
 25 24  1  6  0  0  0
 25 26  1  0  0  0  0
 26 27  1  0  0  0  0
 29 28  1  0  0  0  0
 30 29  1  0  0  0  0
M  END
>  <MODEL>
3

>  <REMARK>
 VINA RESULT:      -6.0      2.300      5.725
  Name = 
  7 active torsions:
  status: ('A' for Active; 'I' for Inactive)
    1  A    between atoms: C_1  and  C_22
    2  A    between atoms: C_4  and  C_23
    3  A    between atoms: O_7  and  C_30
    4  A    between atoms: C_10  and  C_15
    5  A    between atoms: C_10  and  C_23
    6  A    between atoms: O_11  and  C_25
    7  A    between atoms: C_23  and  C_25
                            x       y       z     vdW  Elec       q    Type
                         _______ _______ _______ _____ _____    ______ ____

>  <TORSDO>
F 7

$$$$
=
 OpenBabel11052417073D

 30 32  0  0  1  0  0  0  0  0999 V2000
  189.3490  174.0820  142.6660 C   0  0  1  0  0  3  0  0  0  0  0  0
  189.9910  174.4870  144.0340 C   0  0  2  0  0  3  0  0  0  0  0  0
  188.7260  175.2040  141.9690 N   0  0  0  0  0  2  0  0  0  0  0  0
  187.3010  176.9390  144.9630 C   0  0  0  0  0  2  0  0  0  0  0  0
  188.3900  176.5270  143.9570 C   0  0  2  0  0  3  0  0  0  0  0  0
  186.7720  176.4980  142.1820 O   0  0  0  0  0  0  0  0  0  0  0  0
  187.7090  175.7070  142.8660 C   0  0  1  0  0  3  0  0  0  0  0  0
  189.4690  175.7590  144.6030 N   0  0  0  0  0  0  0  0  0  0  0  0
  186.1330  177.5950  144.2310 C   0  0  0  0  0  2  0  0  0  0  0  0
  185.7050  176.6910  143.0740 C   0  0  0  0  0  2  0  0  0  0  0  0
  190.2070  177.5000  146.0270 N   0  0  0  0  0  2  0  0  0  0  0  0
  189.9780  176.2350  145.8580 C   0  0  0  0  0  0  0  0  0  0  0  0
  189.7800  171.8630  141.5080 C   0  0  1  0  0  3  0  0  0  0  0  0
  190.2890  171.3200  140.1650 C   0  0  0  0  0  2  0  0  0  0  0  0
  190.2730  171.0540  142.5310 O   0  0  0  0  0  1  0  0  0  0  0  0
  190.5170  174.0320  140.4110 C   0  0  0  0  0  2  0  0  0  0  0  0
  192.7860  173.8480  139.4150 C   0  0  0  0  0  1  0  0  0  0  0  0
  190.2770  173.2940  141.7340 C   0  0  1  0  0  3  0  0  0  0  0  0
  191.5710  171.8430  139.8820 O   0  0  0  0  0  0  0  0  0  0  0  0
  191.4190  173.1970  139.4730 C   0  0  1  0  0  3  0  0  0  0  0  0
  190.1940  175.3320  146.9000 O   0  0  0  0  0  0  0  0  0  0  0  0
  191.1990  175.5330  147.8840 C   0  0  0  0  0  1  0  0  0  0  0  0
  191.5460  174.3030  144.1020 C   0  0  1  0  0  3  0  0  0  0  0  0
  193.1290  175.6170  142.6900 C   0  0  0  0  0  1  0  0  0  0  0  0
  192.4320  175.5580  144.0460 C   0  0  2  0  0  3  0  0  0  0  0  0
  193.3980  175.5330  145.0580 O   0  0  0  0  0  0  0  0  0  0  0  0
  193.7390  176.8690  145.2500 C   0  0  0  0  0  1  0  0  0  0  0  0
  192.0060  173.2480  145.1180 C   0  0  0  0  0  2  0  0  0  0  0  0
  192.8930  172.1720  144.4970 C   0  0  0  0  0  2  0  0  0  0  0  0
  194.1300  171.9870  145.3540 C   0  0  0  0  0  1  0  0  0  0  0  0
  1  3  1  6  0  0  0
  1  2  1  0  0  0  0
  2 23  1  6  0  0  0
  2  8  1  0  0  0  0
  5  8  1  0  0  0  0
  5  4  1  1  0  0  0
  6  7  1  0  0  0  0
  6 10  1  0  0  0  0
  7  3  1  6  0  0  0
  7  5  1  0  0  0  0
  8 12  1  0  0  0  0
  9  4  1  0  0  0  0
 10  9  1  0  0  0  0
 12 11  2  0  0  0  0
 12 21  1  0  0  0  0
 13 18  1  0  0  0  0
 13 15  1  1  0  0  0
 14 13  1  0  0  0  0
 18 16  1  6  0  0  0
 18  1  1  0  0  0  0
 19 14  1  0  0  0  0
 20 17  1  1  0  0  0
 20 19  1  0  0  0  0
 20 16  1  0  0  0  0
 21 22  1  0  0  0  0
 23 28  1  1  0  0  0
 25 24  1  6  0  0  0
 25 23  1  0  0  0  0
 25 26  1  0  0  0  0
 26 27  1  0  0  0  0
 29 28  1  0  0  0  0
 29 30  1  0  0  0  0
M  END
>  <MODEL>
4

>  <REMARK>
 VINA RESULT:      -5.8      2.271      5.565
  Name = 
  7 active torsions:
  status: ('A' for Active; 'I' for Inactive)
    1  A    between atoms: C_1  and  C_22
    2  A    between atoms: C_4  and  C_23
    3  A    between atoms: O_7  and  C_30
    4  A    between atoms: C_10  and  C_15
    5  A    between atoms: C_10  and  C_23
    6  A    between atoms: O_11  and  C_25
    7  A    between atoms: C_23  and  C_25
                            x       y       z     vdW  Elec       q    Type
                         _______ _______ _______ _____ _____    ______ ____

>  <TORSDO>
F 7

$$$$
=
 OpenBabel11052417073D

 30 32  0  0  1  0  0  0  0  0999 V2000
  190.1930  175.5300  142.7930 C   0  0  1  0  0  3  0  0  0  0  0  0
  191.6590  175.0280  142.5830 C   0  0  2  0  0  3  0  0  0  0  0  0
  189.1870  174.5790  142.3270 N   0  0  0  0  0  2  0  0  0  0  0  0
  190.9870  173.3880  139.2710 C   0  0  0  0  0  2  0  0  0  0  0  0
  190.6550  173.4650  140.7710 C   0  0  2  0  0  3  0  0  0  0  0  0
  188.3360  173.8400  140.2610 O   0  0  0  0  0  0  0  0  0  0  0  0
  189.4500  174.3900  140.9180 C   0  0  1  0  0  3  0  0  0  0  0  0
  191.7990  173.9560  141.5600 N   0  0  0  0  0  0  0  0  0  0  0  0
  189.7360  173.0250  138.4750 C   0  0  0  0  0  2  0  0  0  0  0  0
  188.6000  173.9620  138.8870 C   0  0  0  0  0  2  0  0  0  0  0  0
  193.2390  172.1410  141.0770 N   0  0  0  0  0  2  0  0  0  0  0  0
  193.0970  173.4140  141.2730 C   0  0  0  0  0  0  0  0  0  0  0  0
  189.3430  177.4490  144.2230 C   0  0  1  0  0  3  0  0  0  0  0  0
  188.4730  177.6910  145.4660 C   0  0  0  0  0  2  0  0  0  0  0  0
  190.4220  178.3310  144.2570 O   0  0  0  0  0  1  0  0  0  0  0  0
  188.9520  175.0490  144.9570 C   0  0  0  0  0  2  0  0  0  0  0  0
  189.3580  174.7410  147.3890 C   0  0  0  0  0  1  0  0  0  0  0  0
  189.8820  176.0150  144.2150 C   0  0  1  0  0  3  0  0  0  0  0  0
  188.9700  176.9490  146.5610 O   0  0  0  0  0  0  0  0  0  0  0  0
  188.6200  175.5840  146.3700 C   0  0  1  0  0  3  0  0  0  0  0  0
  194.1940  174.2720  141.1780 O   0  0  0  0  0  0  0  0  0  0  0  0
  194.3960  175.1270  140.0610 C   0  0  0  0  0  1  0  0  0  0  0  0
  192.4680  174.8080  143.9070 C   0  0  1  0  0  3  0  0  0  0  0  0
  191.4660  172.6300  144.6010 C   0  0  0  0  0  1  0  0  0  0  0  0
  192.7770  173.3670  144.3430 C   0  0  2  0  0  3  0  0  0  0  0  0
  193.5500  173.3530  145.5100 O   0  0  0  0  0  0  0  0  0  0  0  0
  194.2090  172.1270  145.4790 C   0  0  0  0  0  1  0  0  0  0  0  0
  193.6320  175.7910  144.0980 C   0  0  0  0  0  2  0  0  0  0  0  0
  193.3580  176.8340  145.1790 C   0  0  0  0  0  2  0  0  0  0  0  0
  194.3610  176.6640  146.3030 C   0  0  0  0  0  1  0  0  0  0  0  0
  1  3  1  1  0  0  0
  1 18  1  0  0  0  0
  2  1  1  0  0  0  0
  2 23  1  1  0  0  0
  5  4  1  6  0  0  0
  5  7  1  0  0  0  0
  5  8  1  0  0  0  0
  7  6  1  6  0  0  0
  7  3  1  0  0  0  0
  8  2  1  0  0  0  0
  9 10  1  0  0  0  0
  9  4  1  0  0  0  0
 10  6  1  0  0  0  0
 11 12  2  0  0  0  0
 12  8  1  0  0  0  0
 13 15  1  1  0  0  0
 13 14  1  0  0  0  0
 14 19  1  0  0  0  0
 16 20  1  0  0  0  0
 18 13  1  0  0  0  0
 18 16  1  6  0  0  0
 20 19  1  0  0  0  0
 20 17  1  1  0  0  0
 21 12  1  0  0  0  0
 22 21  1  0  0  0  0
 23 28  1  6  0  0  0
 23 25  1  0  0  0  0
 25 24  1  1  0  0  0
 25 26  1  0  0  0  0
 27 26  1  0  0  0  0
 28 29  1  0  0  0  0
 29 30  1  0  0  0  0
M  END
>  <MODEL>
5

>  <REMARK>
 VINA RESULT:      -5.6      2.126      3.272
  Name = 
  7 active torsions:
  status: ('A' for Active; 'I' for Inactive)
    1  A    between atoms: C_1  and  C_22
    2  A    between atoms: C_4  and  C_23
    3  A    between atoms: O_7  and  C_30
    4  A    between atoms: C_10  and  C_15
    5  A    between atoms: C_10  and  C_23
    6  A    between atoms: O_11  and  C_25
    7  A    between atoms: C_23  and  C_25
                            x       y       z     vdW  Elec       q    Type
                         _______ _______ _______ _____ _____    ______ ____

>  <TORSDO>
F 7

$$$$
=
 OpenBabel11052417073D

 30 32  0  0  1  0  0  0  0  0999 V2000
  187.9880  176.1140  142.9800 C   0  0  1  0  0  3  0  0  0  0  0  0
  189.3890  175.9740  143.6620 C   0  0  2  0  0  3  0  0  0  0  0  0
  187.3440  174.8300  142.7200 N   0  0  0  0  0  2  0  0  0  0  0  0
  190.4030  172.9140  141.7330 C   0  0  0  0  0  2  0  0  0  0  0  0
  189.3970  173.5640  142.6980 C   0  0  2  0  0  3  0  0  0  0  0  0
  187.5910  173.0510  141.1990 O   0  0  0  0  0  0  0  0  0  0  0  0
  188.2480  174.1060  141.8540 C   0  0  1  0  0  3  0  0  0  0  0  0
  190.0190  174.6360  143.4960 N   0  0  0  0  0  0  0  0  0  0  0  0
  189.6870  171.9200  140.8210 C   0  0  0  0  0  2  0  0  0  0  0  0
  188.4720  172.6100  140.1990 C   0  0  0  0  0  2  0  0  0  0  0  0
  191.5540  173.2440  144.6410 N   0  0  0  0  0  2  0  0  0  0  0  0
  191.3090  174.3840  144.0740 C   0  0  0  0  0  0  0  0  0  0  0  0
  186.1710  177.8640  142.6830 C   0  0  1  0  0  3  0  0  0  0  0  0
  184.8550  178.3110  143.3370 C   0  0  0  0  0  2  0  0  0  0  0  0
  186.8750  178.9970  142.2790 O   0  0  0  0  0  1  0  0  0  0  0  0
  186.1770  176.3760  144.7420 C   0  0  0  0  0  2  0  0  0  0  0  0
  185.6680  177.6510  146.8130 C   0  0  0  0  0  1  0  0  0  0  0  0
  187.0310  177.0840  143.6830 C   0  0  1  0  0  3  0  0  0  0  0  0
  185.0630  178.5980  144.7040 O   0  0  0  0  0  0  0  0  0  0  0  0
  185.1910  177.3670  145.4040 C   0  0  1  0  0  3  0  0  0  0  0  0
  192.3020  175.3620  143.9930 O   0  0  0  0  0  0  0  0  0  0  0  0
  193.6570  175.0990  144.3320 C   0  0  0  0  0  1  0  0  0  0  0  0
  189.4770  176.5900  145.0990 C   0  0  1  0  0  3  0  0  0  0  0  0
  188.5700  175.2540  147.0020 C   0  0  0  0  0  1  0  0  0  0  0  0
  189.8440  175.6630  146.2700 C   0  0  2  0  0  3  0  0  0  0  0  0
  190.7030  176.3070  147.1670 O   0  0  0  0  0  0  0  0  0  0  0  0
  191.5510  175.3010  147.6240 C   0  0  0  0  0  1  0  0  0  0  0  0
  190.1520  177.9680  145.1490 C   0  0  0  0  0  2  0  0  0  0  0  0
  190.4470  178.5350  143.7620 C   0  0  0  0  0  2  0  0  0  0  0  0
  191.9440  178.5310  143.5270 C   0  0  0  0  0  1  0  0  0  0  0  0
  1  3  1  1  0  0  0
  1  2  1  0  0  0  0
  1 18  1  0  0  0  0
  2 23  1  1  0  0  0
  5  4  1  6  0  0  0
  5  8  1  0  0  0  0
  7  6  1  1  0  0  0
  7  5  1  0  0  0  0
  7  3  1  0  0  0  0
  8  2  1  0  0  0  0
  8 12  1  0  0  0  0
  9  4  1  0  0  0  0
 10  9  1  0  0  0  0
 10  6  1  0  0  0  0
 12 11  2  0  0  0  0
 13 15  1  1  0  0  0
 13 14  1  0  0  0  0
 13 18  1  0  0  0  0
 14 19  1  0  0  0  0
 16 20  1  0  0  0  0
 18 16  1  1  0  0  0
 19 20  1  0  0  0  0
 20 17  1  1  0  0  0
 21 12  1  0  0  0  0
 21 22  1  0  0  0  0
 23 28  1  6  0  0  0
 23 25  1  0  0  0  0
 25 24  1  1  0  0  0
 25 26  1  0  0  0  0
 26 27  1  0  0  0  0
 29 28  1  0  0  0  0
 30 29  1  0  0  0  0
M  END
>  <MODEL>
6

>  <REMARK>
 VINA RESULT:      -5.6      1.576      2.579
  Name = 
  7 active torsions:
  status: ('A' for Active; 'I' for Inactive)
    1  A    between atoms: C_1  and  C_22
    2  A    between atoms: C_4  and  C_23
    3  A    between atoms: O_7  and  C_30
    4  A    between atoms: C_10  and  C_15
    5  A    between atoms: C_10  and  C_23
    6  A    between atoms: O_11  and  C_25
    7  A    between atoms: C_23  and  C_25
                            x       y       z     vdW  Elec       q    Type
                         _______ _______ _______ _____ _____    ______ ____

>  <TORSDO>
F 7

$$$$
=
 OpenBabel11052417073D

 30 32  0  0  1  0  0  0  0  0999 V2000
  193.0440  175.1590  144.4000 C   0  0  1  0  0  3  0  0  0  0  0  0
  192.1040  174.0440  143.8330 C   0  0  2  0  0  3  0  0  0  0  0  0
  192.7920  175.4620  145.8070 N   0  0  0  0  0  2  0  0  0  0  0  0
  189.0630  175.1570  145.7380 C   0  0  0  0  0  2  0  0  0  0  0  0
  190.5180  174.6590  145.7930 C   0  0  2  0  0  3  0  0  0  0  0  0
  191.1570  176.5960  147.0640 O   0  0  0  0  0  0  0  0  0  0  0  0
  191.4130  175.8920  145.8750 C   0  0  1  0  0  3  0  0  0  0  0  0
  190.8590  173.8340  144.6190 N   0  0  0  0  0  0  0  0  0  0  0  0
  188.7980  176.1290  146.8850 C   0  0  0  0  0  2  0  0  0  0  0  0
  189.8980  177.1920  146.8940 C   0  0  0  0  0  2  0  0  0  0  0  0
  189.3210  172.0940  145.0760 N   0  0  0  0  0  2  0  0  0  0  0  0
  189.9130  172.8400  144.1970 C   0  0  0  0  0  0  0  0  0  0  0  0
  195.1440  176.0390  143.2750 C   0  0  1  0  0  3  0  0  0  0  0  0
  196.6510  176.1650  143.5390 C   0  0  0  0  0  2  0  0  0  0  0  0
  194.9530  175.7120  141.9330 O   0  0  0  0  0  1  0  0  0  0  0  0
  195.3190  174.7260  145.4420 C   0  0  0  0  0  2  0  0  0  0  0  0
  197.1870  173.0880  145.3910 C   0  0  0  0  0  1  0  0  0  0  0  0
  194.5370  174.9290  144.1400 C   0  0  1  0  0  3  0  0  0  0  0  0
  197.2030  174.8980  143.8300 O   0  0  0  0  0  0  0  0  0  0  0  0
  196.8270  174.5400  145.1540 C   0  0  1  0  0  3  0  0  0  0  0  0
  189.6150  172.7070  142.8400 O   0  0  0  0  0  0  0  0  0  0  0  0
  188.7240  173.5850  142.1670 C   0  0  0  0  0  1  0  0  0  0  0  0
  192.8440  172.7410  143.3770 C   0  0  1  0  0  3  0  0  0  0  0  0
  194.0880  171.2170  144.9130 C   0  0  0  0  0  1  0  0  0  0  0  0
  192.7340  171.4900  144.2650 C   0  0  2  0  0  3  0  0  0  0  0  0
  192.3510  170.3750  143.5110 O   0  0  0  0  0  0  0  0  0  0  0  0
  193.0640  169.3160  144.0660 C   0  0  0  0  0  1  0  0  0  0  0  0
  192.7410  172.4590  141.8720 C   0  0  0  0  0  2  0  0  0  0  0  0
  192.3530  173.6920  141.0600 C   0  0  0  0  0  2  0  0  0  0  0  0
  191.6120  173.2570  139.8120 C   0  0  0  0  0  1  0  0  0  0  0  0
  1  3  1  1  0  0  0
  2 23  1  1  0  0  0
  2  1  1  0  0  0  0
  2  8  1  0  0  0  0
  4  9  1  0  0  0  0
  5  4  1  6  0  0  0
  5  7  1  0  0  0  0
  7  3  1  1  0  0  0
  7  6  1  0  0  0  0
  8  5  1  0  0  0  0
  9 10  1  0  0  0  0
 10  6  1  0  0  0  0
 12  8  1  0  0  0  0
 12 11  2  0  0  0  0
 13 15  1  6  0  0  0
 13 14  1  0  0  0  0
 13 18  1  0  0  0  0
 14 19  1  0  0  0  0
 18  1  1  0  0  0  0
 18 16  1  1  0  0  0
 19 20  1  0  0  0  0
 20 17  1  6  0  0  0
 20 16  1  0  0  0  0
 21 12  1  0  0  0  0
 22 21  1  0  0  0  0
 23 28  1  6  0  0  0
 23 25  1  0  0  0  0
 25 24  1  6  0  0  0
 26 27  1  0  0  0  0
 26 25  1  0  0  0  0
 29 28  1  0  0  0  0
 30 29  1  0  0  0  0
M  END
>  <MODEL>
7

>  <REMARK>
 VINA RESULT:      -5.5      3.095      7.238
  Name = 
  7 active torsions:
  status: ('A' for Active; 'I' for Inactive)
    1  A    between atoms: C_1  and  C_22
    2  A    between atoms: C_4  and  C_23
    3  A    between atoms: O_7  and  C_30
    4  A    between atoms: C_10  and  C_15
    5  A    between atoms: C_10  and  C_23
    6  A    between atoms: O_11  and  C_25
    7  A    between atoms: C_23  and  C_25
                            x       y       z     vdW  Elec       q    Type
                         _______ _______ _______ _____ _____    ______ ____

>  <TORSDO>
F 7

$$$$
=
 OpenBabel11052417073D

 30 32  0  0  1  0  0  0  0  0999 V2000
  188.5320  175.3780  142.6960 C   0  0  1  0  0  3  0  0  0  0  0  0
  187.8880  176.0200  143.9690 C   0  0  2  0  0  3  0  0  0  0  0  0
  188.5770  176.2870  141.5540 N   0  0  0  0  0  2  0  0  0  0  0  0
  185.2680  177.9500  142.0920 C   0  0  0  0  0  2  0  0  0  0  0  0
  186.7650  177.6820  142.3230 C   0  0  2  0  0  3  0  0  0  0  0  0
  187.0560  177.1750  139.9920 O   0  0  0  0  0  0  0  0  0  0  0  0
  187.2030  176.6510  141.2870 C   0  0  1  0  0  3  0  0  0  0  0  0
  187.0310  177.2050  143.6920 N   0  0  0  0  0  0  0  0  0  0  0  0
  185.0160  178.2920  140.6260 C   0  0  0  0  0  2  0  0  0  0  0  0
  185.6740  177.2250  139.7500 C   0  0  0  0  0  2  0  0  0  0  0  0
  186.3160  179.1750  144.7920 N   0  0  0  0  0  2  0  0  0  0  0  0
  186.3810  177.8800  144.7790 C   0  0  0  0  0  0  0  0  0  0  0  0
  189.8280  173.1950  142.7670 C   0  0  1  0  0  3  0  0  0  0  0  0
  191.2040  172.6350  142.3790 C   0  0  0  0  0  2  0  0  0  0  0  0
  189.4440  172.6300  143.9830 O   0  0  0  0  0  1  0  0  0  0  0  0
  190.9920  175.3410  142.0650 C   0  0  0  0  0  2  0  0  0  0  0  0
  193.2490  175.5520  143.0800 C   0  0  0  0  0  1  0  0  0  0  0  0
  189.8940  174.7170  142.9350 C   0  0  1  0  0  3  0  0  0  0  0  0
  192.2290  173.3930  142.9880 O   0  0  0  0  0  0  0  0  0  0  0  0
  192.3450  174.6270  142.2920 C   0  0  1  0  0  3  0  0  0  0  0  0
  185.7960  177.1320  145.8010 O   0  0  0  0  0  0  0  0  0  0  0  0
  184.6510  177.5820  146.5130 C   0  0  0  0  0  1  0  0  0  0  0  0
  188.8610  176.1600  145.1890 C   0  0  1  0  0  3  0  0  0  0  0  0
  188.2670  175.3660  147.4800 C   0  0  0  0  0  1  0  0  0  0  0  0
  188.9670  174.9870  146.1780 C   0  0  2  0  0  3  0  0  0  0  0  0
  190.3050  174.6810  146.4470 O   0  0  0  0  0  0  0  0  0  0  0  0
  190.5640  175.2900  147.6720 C   0  0  0  0  0  1  0  0  0  0  0  0
  190.2030  176.8200  144.8450 C   0  0  0  0  0  2  0  0  0  0  0  0
  190.0600  178.2880  144.4480 C   0  0  0  0  0  2  0  0  0  0  0  0
  191.1910  178.6660  143.5130 C   0  0  0  0  0  1  0  0  0  0  0  0
  1  3  1  6  0  0  0
  1 18  1  0  0  0  0
  1  2  1  0  0  0  0
  2 23  1  1  0  0  0
  5  4  1  1  0  0  0
  5  8  1  0  0  0  0
  7  6  1  6  0  0  0
  7  3  1  0  0  0  0
  7  5  1  0  0  0  0
  8  2  1  0  0  0  0
  8 12  1  0  0  0  0
  9  4  1  0  0  0  0
 10  6  1  0  0  0  0
 10  9  1  0  0  0  0
 12 11  2  0  0  0  0
 12 21  1  0  0  0  0
 13 18  1  0  0  0  0
 13 15  1  1  0  0  0
 14 13  1  0  0  0  0
 14 19  1  0  0  0  0
 16 20  1  0  0  0  0
 18 16  1  6  0  0  0
 20 19  1  0  0  0  0
 20 17  1  1  0  0  0
 21 22  1  0  0  0  0
 23 28  1  6  0  0  0
 23 25  1  0  0  0  0
 25 26  1  0  0  0  0
 25 24  1  1  0  0  0
 26 27  1  0  0  0  0
 29 28  1  0  0  0  0
 30 29  1  0  0  0  0
M  END
>  <MODEL>
8

>  <REMARK>
 VINA RESULT:      -5.5      2.364      5.978
  Name = 
  7 active torsions:
  status: ('A' for Active; 'I' for Inactive)
    1  A    between atoms: C_1  and  C_22
    2  A    between atoms: C_4  and  C_23
    3  A    between atoms: O_7  and  C_30
    4  A    between atoms: C_10  and  C_15
    5  A    between atoms: C_10  and  C_23
    6  A    between atoms: O_11  and  C_25
    7  A    between atoms: C_23  and  C_25
                            x       y       z     vdW  Elec       q    Type
                         _______ _______ _______ _____ _____    ______ ____

>  <TORSDO>
F 7

$$$$
=
 OpenBabel11052417073D

 30 32  0  0  1  0  0  0  0  0999 V2000
  191.4400  175.4570  143.3780 C   0  0  1  0  0  3  0  0  0  0  0  0
  190.7320  174.6110  142.2680 C   0  0  2  0  0  3  0  0  0  0  0  0
  190.6310  175.6160  144.5830 N   0  0  0  0  0  2  0  0  0  0  0  0
  187.3020  175.9980  142.9180 C   0  0  0  0  0  2  0  0  0  0  0  0
  188.5230  175.2440  143.4730 C   0  0  2  0  0  3  0  0  0  0  0  0
  188.7410  176.8530  145.2440 O   0  0  0  0  0  0  0  0  0  0  0  0
  189.4160  176.2740  144.1560 C   0  0  1  0  0  3  0  0  0  0  0  0
  189.2530  174.5290  142.4110 N   0  0  0  0  0  0  0  0  0  0  0  0
  186.6650  176.8450  144.0180 C   0  0  0  0  0  2  0  0  0  0  0  0
  187.7550  177.6830  144.6870 C   0  0  0  0  0  2  0  0  0  0  0  0
  187.4960  173.0490  141.8430 N   0  0  0  0  0  2  0  0  0  0  0  0
  188.4890  173.7840  141.4510 C   0  0  0  0  0  0  0  0  0  0  0  0
  193.8950  176.1020  143.4720 C   0  0  1  0  0  3  0  0  0  0  0  0
  195.1280  175.8980  144.3640 C   0  0  0  0  0  2  0  0  0  0  0  0
  194.2960  176.0460  142.1380 O   0  0  0  0  0  1  0  0  0  0  0  0
  192.9550  174.4370  145.1440 C   0  0  0  0  0  2  0  0  0  0  0  0
  194.4820  172.5100  145.4990 C   0  0  0  0  0  1  0  0  0  0  0  0
  192.8630  174.9970  143.7200 C   0  0  1  0  0  3  0  0  0  0  0  0
  195.3690  174.5190  144.5560 O   0  0  0  0  0  0  0  0  0  0  0  0
  194.4070  174.0230  145.4780 C   0  0  1  0  0  3  0  0  0  0  0  0
  188.8050  173.8820  140.0950 O   0  0  0  0  0  0  0  0  0  0  0  0
  188.4030  172.9020  139.1480 C   0  0  0  0  0  1  0  0  0  0  0  0
  191.4540  173.2660  141.9160 C   0  0  1  0  0  3  0  0  0  0  0  0
  191.7390  171.2670  143.3830 C   0  0  0  0  0  1  0  0  0  0  0  0
  190.8110  171.9490  142.3820 C   0  0  2  0  0  3  0  0  0  0  0  0
  190.5910  171.0900  141.3000 O   0  0  0  0  0  0  0  0  0  0  0  0
  190.8300  169.8160  141.8090 C   0  0  0  0  0  1  0  0  0  0  0  0
  192.0300  173.2200  140.4940 C   0  0  0  0  0  2  0  0  0  0  0  0
  193.5450  173.0340  140.4730 C   0  0  0  0  0  2  0  0  0  0  0  0
  193.8700  171.6180  140.0420 C   0  0  0  0  0  1  0  0  0  0  0  0
  1 18  1  0  0  0  0
  1  3  1  1  0  0  0
  2 23  1  1  0  0  0
  2  8  1  0  0  0  0
  2  1  1  0  0  0  0
  4  9  1  0  0  0  0
  5  4  1  6  0  0  0
  5  7  1  0  0  0  0
  7  3  1  1  0  0  0
  7  6  1  0  0  0  0
  8  5  1  0  0  0  0
  9 10  1  0  0  0  0
 10  6  1  0  0  0  0
 12 11  2  0  0  0  0
 12  8  1  0  0  0  0
 13 15  1  6  0  0  0
 13 18  1  0  0  0  0
 13 14  1  0  0  0  0
 14 19  1  0  0  0  0
 16 20  1  0  0  0  0
 18 16  1  1  0  0  0
 19 20  1  0  0  0  0
 20 17  1  6  0  0  0
 21 12  1  0  0  0  0
 22 21  1  0  0  0  0
 23 28  1  6  0  0  0
 23 25  1  0  0  0  0
 25 24  1  1  0  0  0
 26 27  1  0  0  0  0
 26 25  1  0  0  0  0
 29 28  1  0  0  0  0
 30 29  1  0  0  0  0
M  END
>  <MODEL>
9

>  <REMARK>
 VINA RESULT:      -5.4      2.178      6.462
  Name = 
  7 active torsions:
  status: ('A' for Active; 'I' for Inactive)
    1  A    between atoms: C_1  and  C_22
    2  A    between atoms: C_4  and  C_23
    3  A    between atoms: O_7  and  C_30
    4  A    between atoms: C_10  and  C_15
    5  A    between atoms: C_10  and  C_23
    6  A    between atoms: O_11  and  C_25
    7  A    between atoms: C_23  and  C_25
                            x       y       z     vdW  Elec       q    Type
                         _______ _______ _______ _____ _____    ______ ____

>  <TORSDO>
F 7

$$$$
