=
 OpenBabel11052421143D

 43 47  0  0  1  0  0  0  0  0999 V2000
  185.1330  178.1210  147.0590 C   0  0  0  0  0  0  0  0  0  0  0  0
  189.5000  176.5720  145.0620 C   0  0  0  0  0  0  0  0  0  0  0  0
  187.8510  176.0160  143.2160 C   0  0  0  0  0  2  0  0  0  0  0  0
  187.4630  177.5790  146.6790 C   0  0  0  0  0  0  0  0  0  0  0  0
  184.8060  177.6180  145.7980 C   0  0  0  0  0  3  0  0  0  0  0  0
  184.1640  178.6290  147.8560 F   0  0  0  0  0  0  0  0  0  0  0  0
  187.1400  177.0670  145.4010 C   0  0  0  0  0  0  0  0  0  0  0  0
  186.4600  178.1010  147.4990 C   0  0  0  0  0  3  0  0  0  0  0  0
  185.8040  177.0920  144.9720 C   0  0  0  0  0  3  0  0  0  0  0  0
  188.8840  174.9940  142.7500 C   0  0  2  0  0  3  0  0  0  0  0  0
  188.1650  176.5400  144.5940 C   0  0  0  0  0  0  0  0  0  0  0  0
  189.7540  177.0670  146.3480 C   0  0  0  0  0  3  0  0  0  0  0  0
  190.6360  175.9510  144.2700 C   0  0  1  0  0  3  0  0  0  0  0  0
  190.2550  175.6510  142.8180 C   0  0  0  0  0  2  0  0  0  0  0  0
  188.7480  177.5590  147.1150 N   0  0  0  0  0  0  0  0  0  0  0  0
  188.5790  174.5470  141.3250 C   0  0  1  0  0  3  0  0  0  0  0  0
  187.9520  175.5790  140.6230 O   0  0  0  0  0  1  0  0  0  0  0  0
  189.8110  174.1860  140.6400 N   0  0  0  0  0  2  0  0  0  0  0  0
  188.5330  172.2650  139.3440 O   0  0  0  0  0  0  0  0  0  0  0  0
  189.7210  172.5030  140.2350 S   0  0  0  0  0  0  0  0  0  0  0  0
  189.5800  171.7000  141.4980 O   0  0  0  0  0  0  0  0  0  0  0  0
  191.1720  172.0300  139.4050 N   0  0  0  0  0  0  0  0  0  0  0  0
  192.4720  172.2260  139.9880 C   0  0  0  0  0  0  0  0  0  0  0  0
  193.5090  172.0490  139.2930 O   0  0  0  0  0  0  0  0  0  0  0  0
  192.6260  172.6130  141.4250 C   0  0  0  0  0  2  0  0  0  0  0  0
  193.6700  173.6680  141.5760 C   0  0  0  0  0  0  0  0  0  0  0  0
  194.3770  175.9710  141.3120 C   0  0  0  0  0  3  0  0  0  0  0  0
  195.9170  174.3270  142.2000 C   0  0  0  0  0  3  0  0  0  0  0  0
  195.6380  175.6420  141.8170 C   0  0  0  0  0  3  0  0  0  0  0  0
  194.9340  173.3410  142.0780 C   0  0  0  0  0  3  0  0  0  0  0  0
  193.3940  174.9850  141.1890 C   0  0  0  0  0  3  0  0  0  0  0  0
  191.0540  171.4100  138.0900 C   0  0  0  0  0  2  0  0  0  0  0  0
  189.6550  169.4840  137.8900 O   0  0  0  0  0  1  0  0  0  0  0  0
  190.9430  169.9010  138.2240 C   0  0  0  0  0  2  0  0  0  0  0  0
  191.8790  176.8350  144.2970 C   0  0  0  0  0  2  0  0  0  0  0  0
  194.0620  174.0110  145.5680 C   0  0  0  0  0  3  0  0  0  0  0  0
  195.2850  174.6710  145.7760 C   0  0  0  0  0  0  0  0  0  0  0  0
  194.2800  176.7410  145.0090 C   0  0  0  0  0  3  0  0  0  0  0  0
  192.9560  174.7150  145.0810 C   0  0  0  0  0  3  0  0  0  0  0  0
  193.0640  176.0800  144.7980 C   0  0  0  0  0  0  0  0  0  0  0  0
  195.3850  176.0380  145.4950 C   0  0  0  0  0  3  0  0  0  0  0  0
  196.6920  172.6430  145.9340 C   0  0  0  0  0  1  0  0  0  0  0  0
  196.4090  173.9970  146.2620 O   0  0  0  0  0  0  0  0  0  0  0  0
  1  8  1  0  0  0  0
  1  6  1  0  0  0  0
  2 12  1  0  0  0  0
  3 11  1  0  0  0  0
  4 15  1  0  0  0  0
  4  8  2  0  0  0  0
  5  1  2  0  0  0  0
  7  4  1  0  0  0  0
  9  7  2  0  0  0  0
  9  5  1  0  0  0  0
 10 16  1  6  0  0  0
 10 14  1  0  0  0  0
 10  3  1  0  0  0  0
 11  2  2  0  0  0  0
 11  7  1  0  0  0  0
 12 15  2  0  0  0  0
 13 35  1  6  0  0  0
 13  2  1  0  0  0  0
 14 13  1  0  0  0  0
 16 17  1  6  0  0  0
 18 16  1  0  0  0  0
 19 20  2  0  0  0  0
 20 18  1  0  0  0  0
 20 21  2  0  0  0  0
 22 23  1  0  0  0  0
 22 20  1  0  0  0  0
 23 25  1  0  0  0  0
 24 23  2  0  0  0  0
 25 26  1  0  0  0  0
 26 30  1  0  0  0  0
 27 29  2  0  0  0  0
 29 28  1  0  0  0  0
 30 28  2  0  0  0  0
 31 27  1  0  0  0  0
 31 26  2  0  0  0  0
 32 34  1  0  0  0  0
 32 22  1  0  0  0  0
 33 34  1  0  0  0  0
 35 40  1  0  0  0  0
 36 37  1  0  0  0  0
 37 43  1  0  0  0  0
 38 41  1  0  0  0  0
 39 36  2  0  0  0  0
 40 38  2  0  0  0  0
 40 39  1  0  0  0  0
 41 37  2  0  0  0  0
 42 43  1  0  0  0  0
M  END
>  <MODEL>
1

>  <REMARK>
 VINA RESULT:      -7.2      0.000      0.000
  Name = 
  11 active torsions:
  status: ('A' for Active; 'I' for Inactive)
    1  A    between atoms: C_1  and  C_34
    2  A    between atoms: C_1  and  C_35
    3  A    between atoms: C_2  and  N_6
    4  A    between atoms: C_2  and  C_27
    5  A    between atoms: N_4  and  S_12
    6  A    between atoms: N_4  and  C_15
    7  A    between atoms: N_6  and  S_12
    8  A    between atoms: C_11  and  C_14
    9  A    between atoms: C_14  and  C_22
   10  A    between atoms: C_15  and  C_42
   11  A    between atoms: C_19  and  O_37
                            x       y       z     vdW  Elec       q    Type
                         _______ _______ _______ _____ _____    ______ ____

>  <TORSDO>
F 11

$$$$
=
 OpenBabel11052421143D

 43 47  0  0  1  0  0  0  0  0999 V2000
  185.0820  178.1240  147.1430 C   0  0  0  0  0  0  0  0  0  0  0  0
  189.4620  176.8200  145.0040 C   0  0  0  0  0  0  0  0  0  0  0  0
  187.7900  176.2040  143.1980 C   0  0  0  0  0  2  0  0  0  0  0  0
  187.4240  177.7040  146.6910 C   0  0  0  0  0  0  0  0  0  0  0  0
  184.7440  177.6200  145.8850 C   0  0  0  0  0  3  0  0  0  0  0  0
  184.1120  178.5740  147.9740 F   0  0  0  0  0  0  0  0  0  0  0  0
  187.0910  177.1920  145.4160 C   0  0  0  0  0  0  0  0  0  0  0  0
  186.4200  178.1650  147.5460 C   0  0  0  0  0  3  0  0  0  0  0  0
  185.7420  177.1550  145.0250 C   0  0  0  0  0  3  0  0  0  0  0  0
  188.8590  175.2410  142.6900 C   0  0  2  0  0  3  0  0  0  0  0  0
  188.1170  176.7270  144.5740 C   0  0  0  0  0  0  0  0  0  0  0  0
  189.7270  177.3110  146.2890 C   0  0  0  0  0  3  0  0  0  0  0  0
  190.6030  176.2660  144.1730 C   0  0  1  0  0  3  0  0  0  0  0  0
  190.1970  175.9650  142.7280 C   0  0  0  0  0  2  0  0  0  0  0  0
  188.7200  177.7430  147.0910 N   0  0  0  0  0  0  0  0  0  0  0  0
  188.5350  174.7960  141.2680 C   0  0  1  0  0  3  0  0  0  0  0  0
  187.8450  175.8070  140.5950 O   0  0  0  0  0  1  0  0  0  0  0  0
  189.7640  174.4980  140.5470 N   0  0  0  0  0  2  0  0  0  0  0  0
  189.2220  174.0310  137.9990 O   0  0  0  0  0  0  0  0  0  0  0  0
  189.3910  173.3320  139.3200 S   0  0  0  0  0  0  0  0  0  0  0  0
  188.1170  172.6220  139.6860 O   0  0  0  0  0  0  0  0  0  0  0  0
  190.6860  172.1790  139.2050 N   0  0  0  0  0  0  0  0  0  0  0  0
  190.9510  171.2360  140.2570 C   0  0  0  0  0  0  0  0  0  0  0  0
  192.0030  170.5430  140.2330 O   0  0  0  0  0  0  0  0  0  0  0  0
  189.9820  171.0370  141.3810 C   0  0  0  0  0  2  0  0  0  0  0  0
  190.4540  171.7370  142.6110 C   0  0  0  0  0  0  0  0  0  0  0  0
  190.0270  172.5580  144.8510 C   0  0  0  0  0  3  0  0  0  0  0  0
  192.1800  172.9440  143.8110 C   0  0  0  0  0  3  0  0  0  0  0  0
  191.3200  173.0870  144.9040 C   0  0  0  0  0  3  0  0  0  0  0  0
  191.7460  172.2710  142.6650 C   0  0  0  0  0  3  0  0  0  0  0  0
  189.5930  171.8850  143.7040 C   0  0  0  0  0  3  0  0  0  0  0  0
  191.5090  172.1720  138.0010 C   0  0  0  0  0  2  0  0  0  0  0  0
  192.4970  174.3460  137.9350 O   0  0  0  0  0  1  0  0  0  0  0  0
  192.7620  173.0050  138.2100 C   0  0  0  0  0  2  0  0  0  0  0  0
  191.8020  177.2100  144.1770 C   0  0  0  0  0  2  0  0  0  0  0  0
  195.1060  175.3640  144.0280 C   0  0  0  0  0  3  0  0  0  0  0  0
  195.3620  175.1310  145.3890 C   0  0  0  0  0  0  0  0  0  0  0  0
  193.2930  176.2660  145.9540 C   0  0  0  0  0  3  0  0  0  0  0  0
  193.9510  176.0460  143.6340 C   0  0  0  0  0  3  0  0  0  0  0  0
  193.0440  176.5000  144.5970 C   0  0  0  0  0  0  0  0  0  0  0  0
  194.4480  175.5850  146.3470 C   0  0  0  0  0  3  0  0  0  0  0  0
  196.6300  173.0390  145.7510 C   0  0  0  0  0  1  0  0  0  0  0  0
  196.5080  174.4530  145.8150 O   0  0  0  0  0  0  0  0  0  0  0  0
  1  8  1  0  0  0  0
  1  6  1  0  0  0  0
  2 12  1  0  0  0  0
  3 11  1  0  0  0  0
  4 15  1  0  0  0  0
  4  8  2  0  0  0  0
  5  1  2  0  0  0  0
  7  4  1  0  0  0  0
  9  7  2  0  0  0  0
  9  5  1  0  0  0  0
 10 16  1  6  0  0  0
 10 14  1  0  0  0  0
 10  3  1  0  0  0  0
 11  2  2  0  0  0  0
 11  7  1  0  0  0  0
 12 15  2  0  0  0  0
 13 35  1  6  0  0  0
 13  2  1  0  0  0  0
 14 13  1  0  0  0  0
 16 17  1  6  0  0  0
 18 16  1  0  0  0  0
 19 20  2  0  0  0  0
 20 21  2  0  0  0  0
 20 18  1  0  0  0  0
 22 20  1  0  0  0  0
 22 23  1  0  0  0  0
 23 25  1  0  0  0  0
 24 23  2  0  0  0  0
 25 26  1  0  0  0  0
 26 30  2  0  0  0  0
 26 31  1  0  0  0  0
 27 29  1  0  0  0  0
 28 29  2  0  0  0  0
 30 28  1  0  0  0  0
 31 27  2  0  0  0  0
 32 34  1  0  0  0  0
 32 22  1  0  0  0  0
 33 34  1  0  0  0  0
 35 40  1  0  0  0  0
 36 37  1  0  0  0  0
 37 43  1  0  0  0  0
 37 41  2  0  0  0  0
 38 41  1  0  0  0  0
 39 36  2  0  0  0  0
 39 40  1  0  0  0  0
 40 38  2  0  0  0  0
 42 43  1  0  0  0  0
M  END
>  <MODEL>
2

>  <REMARK>
 VINA RESULT:      -7.1      1.461      2.397
  Name = 
  11 active torsions:
  status: ('A' for Active; 'I' for Inactive)
    1  A    between atoms: C_1  and  C_34
    2  A    between atoms: C_1  and  C_35
    3  A    between atoms: C_2  and  N_6
    4  A    between atoms: C_2  and  C_27
    5  A    between atoms: N_4  and  S_12
    6  A    between atoms: N_4  and  C_15
    7  A    between atoms: N_6  and  S_12
    8  A    between atoms: C_11  and  C_14
    9  A    between atoms: C_14  and  C_22
   10  A    between atoms: C_15  and  C_42
   11  A    between atoms: C_19  and  O_37
                            x       y       z     vdW  Elec       q    Type
                         _______ _______ _______ _____ _____    ______ ____

>  <TORSDO>
F 11

$$$$
=
 OpenBabel11052421143D

 43 47  0  0  1  0  0  0  0  0999 V2000
  194.1930  175.3210  145.7810 C   0  0  0  0  0  0  0  0  0  0  0  0
  190.3870  173.2190  143.2200 C   0  0  0  0  0  0  0  0  0  0  0  0
  189.8480  175.6910  143.0290 C   0  0  0  0  0  2  0  0  0  0  0  0
  192.6700  173.7590  144.7290 C   0  0  0  0  0  0  0  0  0  0  0  0
  193.4050  176.3890  145.3440 C   0  0  0  0  0  3  0  0  0  0  0  0
  195.3140  175.5590  146.5020 F   0  0  0  0  0  0  0  0  0  0  0  0
  191.8670  174.8340  144.2840 C   0  0  0  0  0  0  0  0  0  0  0  0
  193.8250  174.0080  145.4740 C   0  0  0  0  0  3  0  0  0  0  0  0
  192.2470  176.1490  144.6000 C   0  0  0  0  0  3  0  0  0  0  0  0
  188.4070  175.2470  142.7910 C   0  0  2  0  0  3  0  0  0  0  0  0
  190.7040  174.5600  143.5400 C   0  0  0  0  0  0  0  0  0  0  0  0
  191.2070  172.1950  143.7130 C   0  0  0  0  0  3  0  0  0  0  0  0
  189.1090  172.8570  142.4880 C   0  0  1  0  0  3  0  0  0  0  0  0
  188.4350  174.0660  141.8320 C   0  0  0  0  0  2  0  0  0  0  0  0
  192.3170  172.4810  144.4390 N   0  0  0  0  0  0  0  0  0  0  0  0
  187.5930  176.3920  142.2000 C   0  0  1  0  0  3  0  0  0  0  0  0
  187.1040  176.0330  140.9420 O   0  0  0  0  0  1  0  0  0  0  0  0
  186.4720  176.7100  143.0730 N   0  0  0  0  0  2  0  0  0  0  0  0
  186.1520  179.3250  143.3160 O   0  0  0  0  0  0  0  0  0  0  0  0
  186.8660  178.1580  143.9390 S   0  0  0  0  0  0  0  0  0  0  0  0
  188.3520  178.3790  143.8790 O   0  0  0  0  0  0  0  0  0  0  0  0
  186.3710  177.9930  145.5960 N   0  0  0  0  0  0  0  0  0  0  0  0
  186.8050  176.8870  146.4070 C   0  0  0  0  0  0  0  0  0  0  0  0
  186.2840  176.6910  147.5380 O   0  0  0  0  0  0  0  0  0  0  0  0
  187.8910  175.9680  145.9440 C   0  0  0  0  0  2  0  0  0  0  0  0
  189.1190  176.1470  146.7730 C   0  0  0  0  0  0  0  0  0  0  0  0
  190.7410  177.6040  147.8310 C   0  0  0  0  0  3  0  0  0  0  0  0
  190.9880  175.2000  147.9910 C   0  0  0  0  0  3  0  0  0  0  0  0
  191.4450  176.4870  148.2910 C   0  0  0  0  0  3  0  0  0  0  0  0
  189.8270  175.0300  147.2310 C   0  0  0  0  0  3  0  0  0  0  0  0
  189.5800  177.4340  147.0700 C   0  0  0  0  0  3  0  0  0  0  0  0
  185.5030  179.0150  146.1700 C   0  0  0  0  0  2  0  0  0  0  0  0
  183.4960  179.0260  144.8740 O   0  0  0  0  0  1  0  0  0  0  0  0
  184.0470  178.5880  146.0770 C   0  0  0  0  0  2  0  0  0  0  0  0
  189.3580  171.7820  141.4340 C   0  0  0  0  0  2  0  0  0  0  0  0
  191.3140  173.4680  138.6620 C   0  0  0  0  0  3  0  0  0  0  0  0
  190.3430  173.5680  137.6520 C   0  0  0  0  0  0  0  0  0  0  0  0
  188.7340  172.4920  139.1140 C   0  0  0  0  0  3  0  0  0  0  0  0
  190.9940  172.8810  139.8900 C   0  0  0  0  0  3  0  0  0  0  0  0
  189.7050  172.3900  140.1170 C   0  0  0  0  0  0  0  0  0  0  0  0
  189.0540  173.0770  137.8870 C   0  0  0  0  0  3  0  0  0  0  0  0
  191.7560  174.9900  136.2030 C   0  0  0  0  0  1  0  0  0  0  0  0
  190.6310  174.1480  136.4130 O   0  0  0  0  0  0  0  0  0  0  0  0
  1  6  1  0  0  0  0
  2 11  2  0  0  0  0
  2 12  1  0  0  0  0
  3 11  1  0  0  0  0
  4  8  2  0  0  0  0
  5  1  2  0  0  0  0
  7  9  2  0  0  0  0
  7  4  1  0  0  0  0
  8  1  1  0  0  0  0
  9  5  1  0  0  0  0
 10 16  1  6  0  0  0
 10  3  1  0  0  0  0
 11  7  1  0  0  0  0
 12 15  2  0  0  0  0
 13 35  1  6  0  0  0
 13  2  1  0  0  0  0
 14 13  1  0  0  0  0
 14 10  1  0  0  0  0
 15  4  1  0  0  0  0
 16 17  1  6  0  0  0
 16 18  1  0  0  0  0
 18 20  1  0  0  0  0
 19 20  2  0  0  0  0
 20 22  1  0  0  0  0
 21 20  2  0  0  0  0
 22 32  1  0  0  0  0
 22 23  1  0  0  0  0
 23 24  2  0  0  0  0
 25 23  1  0  0  0  0
 25 26  1  0  0  0  0
 26 31  2  0  0  0  0
 26 30  1  0  0  0  0
 27 29  2  0  0  0  0
 28 29  1  0  0  0  0
 30 28  2  0  0  0  0
 31 27  1  0  0  0  0
 33 34  1  0  0  0  0
 34 32  1  0  0  0  0
 36 39  1  0  0  0  0
 37 41  1  0  0  0  0
 37 36  2  0  0  0  0
 38 40  1  0  0  0  0
 39 40  2  0  0  0  0
 40 35  1  0  0  0  0
 41 38  2  0  0  0  0
 42 43  1  0  0  0  0
 43 37  1  0  0  0  0
M  END
>  <MODEL>
3

>  <REMARK>
 VINA RESULT:      -7.1      3.649      8.058
  Name = 
  11 active torsions:
  status: ('A' for Active; 'I' for Inactive)
    1  A    between atoms: C_1  and  C_34
    2  A    between atoms: C_1  and  C_35
    3  A    between atoms: C_2  and  N_6
    4  A    between atoms: C_2  and  C_27
    5  A    between atoms: N_4  and  S_12
    6  A    between atoms: N_4  and  C_15
    7  A    between atoms: N_6  and  S_12
    8  A    between atoms: C_11  and  C_14
    9  A    between atoms: C_14  and  C_22
   10  A    between atoms: C_15  and  C_42
   11  A    between atoms: C_19  and  O_37
                            x       y       z     vdW  Elec       q    Type
                         _______ _______ _______ _____ _____    ______ ____

>  <TORSDO>
F 11

$$$$
=
 OpenBabel11052421143D

 43 47  0  0  1  0  0  0  0  0999 V2000
  185.0050  178.3020  147.0190 C   0  0  0  0  0  0  0  0  0  0  0  0
  187.2210  177.0710  142.6560 C   0  0  0  0  0  0  0  0  0  0  0  0
  189.2030  177.2030  144.2340 C   0  0  0  0  0  2  0  0  0  0  0  0
  185.4520  177.7470  144.7040 C   0  0  0  0  0  0  0  0  0  0  0  0
  186.3680  178.2140  147.3080 C   0  0  0  0  0  3  0  0  0  0  0  0
  184.1240  178.6130  148.0000 F   0  0  0  0  0  0  0  0  0  0  0  0
  186.8340  177.6550  144.9880 C   0  0  0  0  0  0  0  0  0  0  0  0
  184.5470  178.0700  145.7190 C   0  0  0  0  0  3  0  0  0  0  0  0
  187.2800  177.8930  146.2990 C   0  0  0  0  0  3  0  0  0  0  0  0
  190.0440  177.4420  142.9840 C   0  0  2  0  0  3  0  0  0  0  0  0
  187.7280  177.3350  143.9510 C   0  0  0  0  0  0  0  0  0  0  0  0
  185.8440  177.2040  142.4300 C   0  0  0  0  0  3  0  0  0  0  0  0
  188.1410  176.7960  141.4820 C   0  0  1  0  0  3  0  0  0  0  0  0
  189.5740  176.4700  141.9120 C   0  0  0  0  0  2  0  0  0  0  0  0
  185.0010  177.5270  143.4430 N   0  0  0  0  0  0  0  0  0  0  0  0
  191.5210  177.2220  143.2910 C   0  0  1  0  0  3  0  0  0  0  0  0
  191.8560  177.8380  144.4990 O   0  0  0  0  0  1  0  0  0  0  0  0
  191.8030  175.7980  143.3880 N   0  0  0  0  0  2  0  0  0  0  0  0
  193.8270  176.5540  141.8600 O   0  0  0  0  0  0  0  0  0  0  0  0
  193.4510  175.5490  142.9120 S   0  0  0  0  0  0  0  0  0  0  0  0
  193.5990  174.1570  142.3630 O   0  0  0  0  0  0  0  0  0  0  0  0
  194.4870  175.7410  144.2940 N   0  0  0  0  0  0  0  0  0  0  0  0
  194.2570  175.0180  145.5150 C   0  0  0  0  0  0  0  0  0  0  0  0
  194.9050  175.3140  146.5550 O   0  0  0  0  0  0  0  0  0  0  0  0
  193.2740  173.8910  145.5740 C   0  0  0  0  0  2  0  0  0  0  0  0
  191.9710  174.3590  146.1300 C   0  0  0  0  0  0  0  0  0  0  0  0
  190.7290  175.7440  147.6840 C   0  0  0  0  0  3  0  0  0  0  0  0
  189.5500  174.2480  146.1890 C   0  0  0  0  0  3  0  0  0  0  0  0
  189.5310  175.2090  147.2040 C   0  0  0  0  0  3  0  0  0  0  0  0
  190.7700  173.8220  145.6540 C   0  0  0  0  0  3  0  0  0  0  0  0
  191.9500  175.3180  147.1490 C   0  0  0  0  0  3  0  0  0  0  0  0
  195.6200  176.6530  144.1950 C   0  0  0  0  0  2  0  0  0  0  0  0
  197.3630  176.6370  142.5600 O   0  0  0  0  0  1  0  0  0  0  0  0
  196.8360  175.9300  143.6400 C   0  0  0  0  0  2  0  0  0  0  0  0
  187.6040  175.6650  140.6090 C   0  0  0  0  0  2  0  0  0  0  0  0
  189.8070  172.6140  140.1790 C   0  0  0  0  0  3  0  0  0  0  0  0
  189.6230  171.9570  141.4070 C   0  0  0  0  0  0  0  0  0  0  0  0
  188.1270  173.7310  142.1130 C   0  0  0  0  0  3  0  0  0  0  0  0
  189.1540  173.8230  139.9220 C   0  0  0  0  0  3  0  0  0  0  0  0
  188.3150  174.3850  140.8900 C   0  0  0  0  0  0  0  0  0  0  0  0
  188.7800  172.5230  142.3700 C   0  0  0  0  0  3  0  0  0  0  0  0
  191.6750  170.6270  141.7790 C   0  0  0  0  0  1  0  0  0  0  0  0
  190.2620  170.7470  141.6950 O   0  0  0  0  0  0  0  0  0  0  0  0
  1  5  1  0  0  0  0
  1  6  1  0  0  0  0
  2 11  1  0  0  0  0
  4  7  1  0  0  0  0
  4  8  1  0  0  0  0
  7  9  1  0  0  0  0
  8  1  2  0  0  0  0
  9  5  2  0  0  0  0
 10 16  1  1  0  0  0
 10  3  1  0  0  0  0
 11  3  1  0  0  0  0
 11  7  2  0  0  0  0
 12  2  2  0  0  0  0
 12 15  1  0  0  0  0
 13 35  1  1  0  0  0
 13 14  1  0  0  0  0
 13  2  1  0  0  0  0
 14 10  1  0  0  0  0
 15  4  2  0  0  0  0
 16 18  1  0  0  0  0
 16 17  1  1  0  0  0
 19 20  2  0  0  0  0
 20 18  1  0  0  0  0
 20 22  1  0  0  0  0
 21 20  2  0  0  0  0
 22 23  1  0  0  0  0
 23 25  1  0  0  0  0
 23 24  2  0  0  0  0
 25 26  1  0  0  0  0
 26 31  1  0  0  0  0
 28 29  2  0  0  0  0
 29 27  1  0  0  0  0
 30 26  2  0  0  0  0
 30 28  1  0  0  0  0
 31 27  2  0  0  0  0
 32 22  1  0  0  0  0
 33 34  1  0  0  0  0
 34 32  1  0  0  0  0
 35 40  1  0  0  0  0
 36 37  1  0  0  0  0
 37 43  1  0  0  0  0
 37 41  2  0  0  0  0
 38 41  1  0  0  0  0
 39 36  2  0  0  0  0
 39 40  1  0  0  0  0
 40 38  2  0  0  0  0
 43 42  1  0  0  0  0
M  END
>  <MODEL>
4

>  <REMARK>
 VINA RESULT:      -7.0      2.688      5.949
  Name = 
  11 active torsions:
  status: ('A' for Active; 'I' for Inactive)
    1  A    between atoms: C_1  and  C_34
    2  A    between atoms: C_1  and  C_35
    3  A    between atoms: C_2  and  N_6
    4  A    between atoms: C_2  and  C_27
    5  A    between atoms: N_4  and  S_12
    6  A    between atoms: N_4  and  C_15
    7  A    between atoms: N_6  and  S_12
    8  A    between atoms: C_11  and  C_14
    9  A    between atoms: C_14  and  C_22
   10  A    between atoms: C_15  and  C_42
   11  A    between atoms: C_19  and  O_37
                            x       y       z     vdW  Elec       q    Type
                         _______ _______ _______ _____ _____    ______ ____

>  <TORSDO>
F 11

$$$$
=
 OpenBabel11052421143D

 43 47  0  0  1  0  0  0  0  0999 V2000
  184.6550  178.6700  145.6200 C   0  0  0  0  0  0  0  0  0  0  0  0
  188.3610  175.7030  143.9120 C   0  0  0  0  0  0  0  0  0  0  0  0
  189.3970  176.6840  146.0090 C   0  0  0  0  0  2  0  0  0  0  0  0
  186.0010  177.1340  144.3200 C   0  0  0  0  0  0  0  0  0  0  0  0
  185.6990  178.8170  146.5370 C   0  0  0  0  0  3  0  0  0  0  0  0
  183.4940  179.3420  145.8050 F   0  0  0  0  0  0  0  0  0  0  0  0
  187.0640  177.2770  145.2420 C   0  0  0  0  0  0  0  0  0  0  0  0
  184.8060  177.8300  144.5130 C   0  0  0  0  0  3  0  0  0  0  0  0
  186.8980  178.1250  146.3490 C   0  0  0  0  0  3  0  0  0  0  0  0
  190.7420  176.3700  145.3600 C   0  0  2  0  0  3  0  0  0  0  0  0
  188.2610  176.5710  145.0250 C   0  0  0  0  0  0  0  0  0  0  0  0
  187.2840  175.6240  143.0180 C   0  0  0  0  0  3  0  0  0  0  0  0
  189.6500  174.9750  143.5840 C   0  0  1  0  0  3  0  0  0  0  0  0
  190.6500  174.9820  144.7430 C   0  0  0  0  0  2  0  0  0  0  0  0
  186.1420  176.3240  143.2400 N   0  0  0  0  0  0  0  0  0  0  0  0
  191.8540  176.4160  146.4020 C   0  0  1  0  0  3  0  0  0  0  0  0
  191.3110  176.6100  147.6740 O   0  0  0  0  0  1  0  0  0  0  0  0
  192.6010  175.1670  146.3900 N   0  0  0  0  0  2  0  0  0  0  0  0
  194.8540  176.5550  146.3460 O   0  0  0  0  0  0  0  0  0  0  0  0
  194.1220  175.4650  145.6130 S   0  0  0  0  0  0  0  0  0  0  0  0
  193.8740  175.8860  144.1910 O   0  0  0  0  0  0  0  0  0  0  0  0
  195.0740  174.0120  145.6320 N   0  0  0  0  0  0  0  0  0  0  0  0
  194.4770  172.7160  145.4570 C   0  0  0  0  0  0  0  0  0  0  0  0
  195.1570  171.6750  145.6610 O   0  0  0  0  0  0  0  0  0  0  0  0
  193.0560  172.5730  145.0080 C   0  0  0  0  0  2  0  0  0  0  0  0
  192.9900  171.8690  143.6940 C   0  0  0  0  0  0  0  0  0  0  0  0
  192.0230  170.1570  142.2770 C   0  0  0  0  0  3  0  0  0  0  0  0
  193.8120  171.5560  141.4350 C   0  0  0  0  0  3  0  0  0  0  0  0
  192.8920  170.5200  141.2440 C   0  0  0  0  0  3  0  0  0  0  0  0
  193.8620  172.2290  142.6590 C   0  0  0  0  0  3  0  0  0  0  0  0
  192.0740  170.8290  143.5020 C   0  0  0  0  0  3  0  0  0  0  0  0
  196.5160  174.1260  145.8180 C   0  0  0  0  0  2  0  0  0  0  0  0
  197.1900  175.3620  143.8880 O   0  0  0  0  0  1  0  0  0  0  0  0
  197.2280  174.0980  144.4750 C   0  0  0  0  0  2  0  0  0  0  0  0
  189.3820  173.5350  143.1540 C   0  0  0  0  0  2  0  0  0  0  0  0
  189.7660  172.0430  139.6930 C   0  0  0  0  0  3  0  0  0  0  0  0
  190.8340  172.7970  139.1780 C   0  0  0  0  0  0  0  0  0  0  0  0
  190.9430  174.0370  141.2600 C   0  0  0  0  0  3  0  0  0  0  0  0
  189.2910  172.2880  140.9850 C   0  0  0  0  0  3  0  0  0  0  0  0
  189.8760  173.2870  141.7690 C   0  0  0  0  0  0  0  0  0  0  0  0
  191.4180  173.7920  139.9690 C   0  0  0  0  0  3  0  0  0  0  0  0
  191.7440  173.6360  137.0370 C   0  0  0  0  0  1  0  0  0  0  0  0
  191.3330  172.5770  137.8900 O   0  0  0  0  0  0  0  0  0  0  0  0
  1  6  1  0  0  0  0
  1  5  1  0  0  0  0
  2 11  1  0  0  0  0
  4  8  1  0  0  0  0
  4  7  1  0  0  0  0
  7  9  1  0  0  0  0
  8  1  2  0  0  0  0
  9  5  2  0  0  0  0
 10  3  1  0  0  0  0
 10 16  1  1  0  0  0
 11  7  2  0  0  0  0
 11  3  1  0  0  0  0
 12 15  1  0  0  0  0
 12  2  2  0  0  0  0
 13 35  1  1  0  0  0
 13  2  1  0  0  0  0
 13 14  1  0  0  0  0
 14 10  1  0  0  0  0
 15  4  2  0  0  0  0
 16 17  1  1  0  0  0
 18 16  1  0  0  0  0
 20 22  1  0  0  0  0
 20 19  2  0  0  0  0
 20 18  1  0  0  0  0
 21 20  2  0  0  0  0
 22 32  1  0  0  0  0
 23 22  1  0  0  0  0
 23 24  2  0  0  0  0
 25 23  1  0  0  0  0
 26 25  1  0  0  0  0
 27 31  2  0  0  0  0
 28 30  1  0  0  0  0
 29 28  2  0  0  0  0
 29 27  1  0  0  0  0
 30 26  2  0  0  0  0
 31 26  1  0  0  0  0
 33 34  1  0  0  0  0
 34 32  1  0  0  0  0
 36 39  1  0  0  0  0
 37 36  2  0  0  0  0
 37 41  1  0  0  0  0
 38 40  1  0  0  0  0
 39 40  2  0  0  0  0
 40 35  1  0  0  0  0
 41 38  2  0  0  0  0
 42 43  1  0  0  0  0
 43 37  1  0  0  0  0
M  END
>  <MODEL>
5

>  <REMARK>
 VINA RESULT:      -6.6      2.880      5.993
  Name = 
  11 active torsions:
  status: ('A' for Active; 'I' for Inactive)
    1  A    between atoms: C_1  and  C_34
    2  A    between atoms: C_1  and  C_35
    3  A    between atoms: C_2  and  N_6
    4  A    between atoms: C_2  and  C_27
    5  A    between atoms: N_4  and  S_12
    6  A    between atoms: N_4  and  C_15
    7  A    between atoms: N_6  and  S_12
    8  A    between atoms: C_11  and  C_14
    9  A    between atoms: C_14  and  C_22
   10  A    between atoms: C_15  and  C_42
   11  A    between atoms: C_19  and  O_37
                            x       y       z     vdW  Elec       q    Type
                         _______ _______ _______ _____ _____    ______ ____

>  <TORSDO>
F 11

$$$$
=
 OpenBabel11052421143D

 43 47  0  0  1  0  0  0  0  0999 V2000
  184.6170  178.6760  145.6120 C   0  0  0  0  0  0  0  0  0  0  0  0
  188.3600  175.7120  143.9790 C   0  0  0  0  0  0  0  0  0  0  0  0
  189.2950  176.5810  146.1710 C   0  0  0  0  0  2  0  0  0  0  0  0
  186.0070  177.1710  144.3200 C   0  0  0  0  0  0  0  0  0  0  0  0
  185.6120  178.7620  146.5900 C   0  0  0  0  0  3  0  0  0  0  0  0
  183.4600  179.3630  145.7630 F   0  0  0  0  0  0  0  0  0  0  0  0
  187.0190  177.2530  145.3050 C   0  0  0  0  0  0  0  0  0  0  0  0
  184.8150  177.8820  144.4790 C   0  0  0  0  0  3  0  0  0  0  0  0
  186.8070  178.0550  146.4380 C   0  0  0  0  0  3  0  0  0  0  0  0
  190.6680  176.2690  145.5830 C   0  0  2  0  0  3  0  0  0  0  0  0
  188.2140  176.5340  145.1220 C   0  0  0  0  0  0  0  0  0  0  0  0
  187.3330  175.6930  143.0250 C   0  0  0  0  0  3  0  0  0  0  0  0
  189.6520  174.9740  143.6900 C   0  0  1  0  0  3  0  0  0  0  0  0
  190.5870  174.9110  144.9010 C   0  0  0  0  0  2  0  0  0  0  0  0
  186.1930  176.4060  143.2150 N   0  0  0  0  0  0  0  0  0  0  0  0
  191.7220  176.2480  146.6850 C   0  0  1  0  0  3  0  0  0  0  0  0
  191.1070  176.1270  147.9330 O   0  0  0  0  0  1  0  0  0  0  0  0
  192.6260  175.1250  146.4890 N   0  0  0  0  0  2  0  0  0  0  0  0
  195.2670  175.2940  146.5140 O   0  0  0  0  0  0  0  0  0  0  0  0
  194.0610  175.7240  145.7250 S   0  0  0  0  0  0  0  0  0  0  0  0
  193.9990  177.2250  145.6700 O   0  0  0  0  0  0  0  0  0  0  0  0
  194.1660  175.0870  144.1120 N   0  0  0  0  0  0  0  0  0  0  0  0
  194.0560  173.6780  143.8490 C   0  0  0  0  0  0  0  0  0  0  0  0
  194.3210  173.2280  142.7020 O   0  0  0  0  0  0  0  0  0  0  0  0
  193.6020  172.7250  144.9100 C   0  0  0  0  0  2  0  0  0  0  0  0
  194.7220  171.8310  145.3260 C   0  0  0  0  0  0  0  0  0  0  0  0
  195.5030  169.6810  146.1260 C   0  0  0  0  0  3  0  0  0  0  0  0
  197.0810  171.4810  145.7600 C   0  0  0  0  0  3  0  0  0  0  0  0
  196.8140  170.1640  146.1470 C   0  0  0  0  0  3  0  0  0  0  0  0
  196.0350  172.3140  145.3510 C   0  0  0  0  0  3  0  0  0  0  0  0
  194.4560  170.5150  145.7180 C   0  0  0  0  0  3  0  0  0  0  0  0
  194.3580  176.0180  143.0060 C   0  0  0  0  0  2  0  0  0  0  0  0
  196.0880  176.7910  141.5500 O   0  0  0  0  0  1  0  0  0  0  0  0
  195.8310  176.3610  142.8510 C   0  0  0  0  0  2  0  0  0  0  0  0
  189.3830  173.5600  143.1830 C   0  0  0  0  0  2  0  0  0  0  0  0
  191.7510  171.5010  141.0600 C   0  0  0  0  0  3  0  0  0  0  0  0
  192.2220  172.4610  140.1500 C   0  0  0  0  0  0  0  0  0  0  0  0
  190.8300  174.1350  141.2200 C   0  0  0  0  0  3  0  0  0  0  0  0
  190.8230  171.8580  142.0430 C   0  0  0  0  0  3  0  0  0  0  0  0
  190.3590  173.1740  142.1230 C   0  0  0  0  0  0  0  0  0  0  0  0
  191.7570  173.7780  140.2380 C   0  0  0  0  0  3  0  0  0  0  0  0
  194.5470  172.0700  139.4030 C   0  0  0  0  0  1  0  0  0  0  0  0
  193.1500  172.1370  139.1550 O   0  0  0  0  0  0  0  0  0  0  0  0
  1  6  1  0  0  0  0
  1  5  1  0  0  0  0
  2 11  1  0  0  0  0
  4  8  1  0  0  0  0
  4  7  1  0  0  0  0
  7  9  1  0  0  0  0
  8  1  2  0  0  0  0
  9  5  2  0  0  0  0
 10  3  1  0  0  0  0
 10 16  1  1  0  0  0
 11  7  2  0  0  0  0
 11  3  1  0  0  0  0
 12 15  1  0  0  0  0
 12  2  2  0  0  0  0
 13 35  1  1  0  0  0
 13  2  1  0  0  0  0
 13 14  1  0  0  0  0
 14 10  1  0  0  0  0
 15  4  2  0  0  0  0
 16 17  1  1  0  0  0
 18 16  1  0  0  0  0
 20 18  1  0  0  0  0
 20 19  2  0  0  0  0
 21 20  2  0  0  0  0
 22 20  1  0  0  0  0
 23 22  1  0  0  0  0
 23 25  1  0  0  0  0
 24 23  2  0  0  0  0
 25 26  1  0  0  0  0
 26 30  2  0  0  0  0
 26 31  1  0  0  0  0
 27 29  1  0  0  0  0
 28 29  2  0  0  0  0
 30 28  1  0  0  0  0
 31 27  2  0  0  0  0
 32 22  1  0  0  0  0
 33 34  1  0  0  0  0
 34 32  1  0  0  0  0
 36 39  1  0  0  0  0
 37 41  1  0  0  0  0
 37 36  2  0  0  0  0
 38 40  1  0  0  0  0
 39 40  2  0  0  0  0
 40 35  1  0  0  0  0
 41 38  2  0  0  0  0
 43 42  1  0  0  0  0
 43 37  1  0  0  0  0
M  END
>  <MODEL>
6

>  <REMARK>
 VINA RESULT:      -6.5      2.850      5.648
  Name = 
  11 active torsions:
  status: ('A' for Active; 'I' for Inactive)
    1  A    between atoms: C_1  and  C_34
    2  A    between atoms: C_1  and  C_35
    3  A    between atoms: C_2  and  N_6
    4  A    between atoms: C_2  and  C_27
    5  A    between atoms: N_4  and  S_12
    6  A    between atoms: N_4  and  C_15
    7  A    between atoms: N_6  and  S_12
    8  A    between atoms: C_11  and  C_14
    9  A    between atoms: C_14  and  C_22
   10  A    between atoms: C_15  and  C_42
   11  A    between atoms: C_19  and  O_37
                            x       y       z     vdW  Elec       q    Type
                         _______ _______ _______ _____ _____    ______ ____

>  <TORSDO>
F 11

$$$$
=
 OpenBabel11052421143D

 43 47  0  0  1  0  0  0  0  0999 V2000
  185.2350  178.1930  146.0400 C   0  0  0  0  0  0  0  0  0  0  0  0
  189.7290  176.1240  145.0510 C   0  0  0  0  0  0  0  0  0  0  0  0
  188.4230  175.5760  142.9470 C   0  0  0  0  0  2  0  0  0  0  0  0
  187.5270  177.4230  146.1670 C   0  0  0  0  0  0  0  0  0  0  0  0
  185.1100  177.6270  144.7690 C   0  0  0  0  0  3  0  0  0  0  0  0
  184.1850  178.8430  146.5960 F   0  0  0  0  0  0  0  0  0  0  0  0
  187.4100  176.8470  144.8810 C   0  0  0  0  0  0  0  0  0  0  0  0
  186.4410  178.0910  146.7380 C   0  0  0  0  0  3  0  0  0  0  0  0
  186.1910  176.9560  144.1910 C   0  0  0  0  0  3  0  0  0  0  0  0
  189.4190  174.4360  142.7560 C   0  0  2  0  0  3  0  0  0  0  0  0
  188.5140  176.1740  144.3280 C   0  0  0  0  0  0  0  0  0  0  0  0
  189.7760  176.6910  146.3320 C   0  0  0  0  0  3  0  0  0  0  0  0
  190.9280  175.3490  144.5400 C   0  0  1  0  0  3  0  0  0  0  0  0
  190.8100  174.9740  143.0600 C   0  0  0  0  0  2  0  0  0  0  0  0
  188.6940  177.3240  146.8530 N   0  0  0  0  0  0  0  0  0  0  0  0
  189.3540  173.9110  141.3260 C   0  0  1  0  0  3  0  0  0  0  0  0
  188.5910  174.7720  140.5340 O   0  0  0  0  0  1  0  0  0  0  0  0
  190.6940  173.8140  140.7680 N   0  0  0  0  0  2  0  0  0  0  0  0
  189.8890  171.5130  139.7380 O   0  0  0  0  0  0  0  0  0  0  0  0
  191.0330  172.1380  140.4870 S   0  0  0  0  0  0  0  0  0  0  0  0
  191.2150  171.4440  141.8080 O   0  0  0  0  0  0  0  0  0  0  0  0
  192.4880  171.9920  139.5490 N   0  0  0  0  0  0  0  0  0  0  0  0
  193.7680  172.3760  140.0790 C   0  0  0  0  0  0  0  0  0  0  0  0
  194.7730  172.4370  139.3200 O   0  0  0  0  0  0  0  0  0  0  0  0
  193.9440  172.6830  141.5330 C   0  0  0  0  0  2  0  0  0  0  0  0
  194.6570  173.9810  141.7130 C   0  0  0  0  0  0  0  0  0  0  0  0
  194.6720  176.4010  141.5860 C   0  0  0  0  0  3  0  0  0  0  0  0
  196.6650  175.2140  142.2810 C   0  0  0  0  0  3  0  0  0  0  0  0
  196.0050  176.4160  142.0090 C   0  0  0  0  0  3  0  0  0  0  0  0
  195.9930  173.9980  142.1320 C   0  0  0  0  0  3  0  0  0  0  0  0
  193.9990  175.1850  141.4360 C   0  0  0  0  0  3  0  0  0  0  0  0
  192.3960  171.4540  138.1970 C   0  0  0  0  0  2  0  0  0  0  0  0
  192.2750  173.7080  137.4140 O   0  0  0  0  0  1  0  0  0  0  0  0
  191.7000  172.4450  137.2780 C   0  0  0  0  0  2  0  0  0  0  0  0
  192.2260  176.1200  144.7660 C   0  0  0  0  0  2  0  0  0  0  0  0
  194.2060  172.9460  145.3590 C   0  0  0  0  0  3  0  0  0  0  0  0
  195.4630  173.4600  145.7190 C   0  0  0  0  0  0  0  0  0  0  0  0
  194.6020  175.7110  145.4460 C   0  0  0  0  0  3  0  0  0  0  0  0
  193.1550  173.8120  145.0440 C   0  0  0  0  0  3  0  0  0  0  0  0
  193.3520  175.1960  145.0840 C   0  0  0  0  0  0  0  0  0  0  0  0
  195.6520  174.8460  145.7600 C   0  0  0  0  0  3  0  0  0  0  0  0
  197.4590  172.1530  145.0680 C   0  0  0  0  0  1  0  0  0  0  0  0
  196.5340  172.6210  146.0400 O   0  0  0  0  0  0  0  0  0  0  0  0
  1  6  1  0  0  0  0
  1  8  1  0  0  0  0
  2 12  1  0  0  0  0
  3 11  1  0  0  0  0
  4  8  2  0  0  0  0
  4 15  1  0  0  0  0
  5  1  2  0  0  0  0
  7  4  1  0  0  0  0
  9  5  1  0  0  0  0
  9  7  2  0  0  0  0
 10 16  1  6  0  0  0
 10  3  1  0  0  0  0
 10 14  1  0  0  0  0
 11  7  1  0  0  0  0
 11  2  2  0  0  0  0
 12 15  2  0  0  0  0
 13 35  1  6  0  0  0
 13  2  1  0  0  0  0
 14 13  1  0  0  0  0
 16 17  1  6  0  0  0
 18 16  1  0  0  0  0
 19 20  2  0  0  0  0
 20 18  1  0  0  0  0
 20 21  2  0  0  0  0
 22 23  1  0  0  0  0
 22 20  1  0  0  0  0
 23 25  1  0  0  0  0
 24 23  2  0  0  0  0
 25 26  1  0  0  0  0
 26 30  1  0  0  0  0
 27 29  2  0  0  0  0
 29 28  1  0  0  0  0
 30 28  2  0  0  0  0
 31 27  1  0  0  0  0
 31 26  2  0  0  0  0
 32 22  1  0  0  0  0
 34 33  1  0  0  0  0
 34 32  1  0  0  0  0
 35 40  1  0  0  0  0
 36 37  1  0  0  0  0
 37 41  2  0  0  0  0
 37 43  1  0  0  0  0
 38 41  1  0  0  0  0
 39 40  1  0  0  0  0
 39 36  2  0  0  0  0
 40 38  2  0  0  0  0
 42 43  1  0  0  0  0
M  END
>  <MODEL>
7

>  <REMARK>
 VINA RESULT:      -6.5      1.101      1.352
  Name = 
  11 active torsions:
  status: ('A' for Active; 'I' for Inactive)
    1  A    between atoms: C_1  and  C_34
    2  A    between atoms: C_1  and  C_35
    3  A    between atoms: C_2  and  N_6
    4  A    between atoms: C_2  and  C_27
    5  A    between atoms: N_4  and  S_12
    6  A    between atoms: N_4  and  C_15
    7  A    between atoms: N_6  and  S_12
    8  A    between atoms: C_11  and  C_14
    9  A    between atoms: C_14  and  C_22
   10  A    between atoms: C_15  and  C_42
   11  A    between atoms: C_19  and  O_37
                            x       y       z     vdW  Elec       q    Type
                         _______ _______ _______ _____ _____    ______ ____

>  <TORSDO>
F 11

$$$$
=
 OpenBabel11052421143D

 43 47  0  0  1  0  0  0  0  0999 V2000
  185.4770  179.5060  144.3070 C   0  0  0  0  0  0  0  0  0  0  0  0
  188.6600  175.8620  145.7380 C   0  0  0  0  0  0  0  0  0  0  0  0
  188.7770  175.6980  143.2090 C   0  0  0  0  0  2  0  0  0  0  0  0
  186.8200  177.9530  145.5920 C   0  0  0  0  0  0  0  0  0  0  0  0
  185.9540  178.9430  143.1210 C   0  0  0  0  0  3  0  0  0  0  0  0
  184.5950  180.5320  144.2620 F   0  0  0  0  0  0  0  0  0  0  0  0
  187.3080  177.3780  144.3950 C   0  0  0  0  0  0  0  0  0  0  0  0
  185.9090  179.0110  145.5410 C   0  0  0  0  0  3  0  0  0  0  0  0
  186.8650  177.8840  143.1630 C   0  0  0  0  0  3  0  0  0  0  0  0
  189.2380  174.2610  143.4320 C   0  0  2  0  0  3  0  0  0  0  0  0
  188.2200  176.3090  144.4700 C   0  0  0  0  0  0  0  0  0  0  0  0
  188.1210  176.4530  146.8880 C   0  0  0  0  0  3  0  0  0  0  0  0
  189.5830  174.6670  145.8840 C   0  0  1  0  0  3  0  0  0  0  0  0
  190.2530  174.2670  144.5670 C   0  0  0  0  0  2  0  0  0  0  0  0
  187.2310  177.4750  146.7930 N   0  0  0  0  0  0  0  0  0  0  0  0
  189.8670  173.7050  142.1590 C   0  0  1  0  0  3  0  0  0  0  0  0
  189.5710  174.5370  141.0770 O   0  0  0  0  0  1  0  0  0  0  0  0
  191.3110  173.6190  142.3130 N   0  0  0  0  0  2  0  0  0  0  0  0
  193.2660  172.4970  140.9260 O   0  0  0  0  0  0  0  0  0  0  0  0
  191.8620  172.2500  141.4050 S   0  0  0  0  0  0  0  0  0  0  0  0
  190.9520  172.0420  140.2270 O   0  0  0  0  0  0  0  0  0  0  0  0
  191.8340  170.8370  142.4170 N   0  0  0  0  0  0  0  0  0  0  0  0
  192.5580  170.7840  143.6580 C   0  0  0  0  0  0  0  0  0  0  0  0
  192.6740  169.6910  144.2750 O   0  0  0  0  0  0  0  0  0  0  0  0
  193.1630  172.0160  144.2550 C   0  0  0  0  0  2  0  0  0  0  0  0
  194.6220  171.8200  144.4960 C   0  0  0  0  0  0  0  0  0  0  0  0
  196.4460  171.2740  145.9950 C   0  0  0  0  0  3  0  0  0  0  0  0
  196.9100  171.8800  143.6970 C   0  0  0  0  0  3  0  0  0  0  0  0
  197.3620  171.4950  144.9630 C   0  0  0  0  0  3  0  0  0  0  0  0
  195.5420  172.0440  143.4640 C   0  0  0  0  0  3  0  0  0  0  0  0
  195.0770  171.4390  145.7630 C   0  0  0  0  0  3  0  0  0  0  0  0
  191.0440  169.6880  141.9890 C   0  0  0  0  0  2  0  0  0  0  0  0
  191.1360  168.7120  139.8110 O   0  0  0  0  0  1  0  0  0  0  0  0
  191.8340  168.8340  141.0120 C   0  0  0  0  0  2  0  0  0  0  0  0
  190.6530  174.9170  146.9420 C   0  0  0  0  0  2  0  0  0  0  0  0
  193.0610  177.0480  144.9380 C   0  0  0  0  0  3  0  0  0  0  0  0
  194.2720  176.3630  145.1300 C   0  0  0  0  0  0  0  0  0  0  0  0
  193.1150  174.7390  146.5130 C   0  0  0  0  0  3  0  0  0  0  0  0
  191.8850  176.5810  145.5330 C   0  0  0  0  0  3  0  0  0  0  0  0
  191.9110  175.4270  146.3230 C   0  0  0  0  0  0  0  0  0  0  0  0
  194.2900  175.2070  145.9190 C   0  0  0  0  0  3  0  0  0  0  0  0
  195.9040  176.3640  143.2720 C   0  0  0  0  0  1  0  0  0  0  0  0
  195.4640  176.8050  144.5490 O   0  0  0  0  0  0  0  0  0  0  0  0
  1  8  1  0  0  0  0
  2 13  1  0  0  0  0
  2 12  1  0  0  0  0
  3 10  1  0  0  0  0
  3 11  1  0  0  0  0
  4 15  1  0  0  0  0
  5  9  1  0  0  0  0
  5  1  2  0  0  0  0
  6  1  1  0  0  0  0
  7 11  1  0  0  0  0
  7  4  1  0  0  0  0
  8  4  2  0  0  0  0
  9  7  2  0  0  0  0
 10 16  1  6  0  0  0
 10 14  1  0  0  0  0
 11  2  2  0  0  0  0
 13 35  1  1  0  0  0
 14 13  1  0  0  0  0
 15 12  2  0  0  0  0
 16 17  1  6  0  0  0
 16 18  1  0  0  0  0
 19 20  2  0  0  0  0
 20 18  1  0  0  0  0
 20 22  1  0  0  0  0
 21 20  2  0  0  0  0
 22 23  1  0  0  0  0
 23 25  1  0  0  0  0
 23 24  2  0  0  0  0
 25 26  1  0  0  0  0
 26 31  1  0  0  0  0
 28 29  2  0  0  0  0
 29 27  1  0  0  0  0
 30 28  1  0  0  0  0
 30 26  2  0  0  0  0
 31 27  2  0  0  0  0
 32 22  1  0  0  0  0
 33 34  1  0  0  0  0
 34 32  1  0  0  0  0
 36 37  2  0  0  0  0
 36 39  1  0  0  0  0
 37 41  1  0  0  0  0
 39 40  2  0  0  0  0
 40 38  1  0  0  0  0
 40 35  1  0  0  0  0
 41 38  2  0  0  0  0
 42 43  1  0  0  0  0
 43 37  1  0  0  0  0
M  END
>  <MODEL>
8

>  <REMARK>
 VINA RESULT:      -6.4      2.201      3.186
  Name = 
  11 active torsions:
  status: ('A' for Active; 'I' for Inactive)
    1  A    between atoms: C_1  and  C_34
    2  A    between atoms: C_1  and  C_35
    3  A    between atoms: C_2  and  N_6
    4  A    between atoms: C_2  and  C_27
    5  A    between atoms: N_4  and  S_12
    6  A    between atoms: N_4  and  C_15
    7  A    between atoms: N_6  and  S_12
    8  A    between atoms: C_11  and  C_14
    9  A    between atoms: C_14  and  C_22
   10  A    between atoms: C_15  and  C_42
   11  A    between atoms: C_19  and  O_37
                            x       y       z     vdW  Elec       q    Type
                         _______ _______ _______ _____ _____    ______ ____

>  <TORSDO>
F 11

$$$$
=
 OpenBabel11052421143D

 43 47  0  0  1  0  0  0  0  0999 V2000
  185.5080  177.9930  147.1870 C   0  0  0  0  0  0  0  0  0  0  0  0
  190.2590  176.4960  146.3860 C   0  0  0  0  0  0  0  0  0  0  0  0
  188.9320  174.7000  145.1820 C   0  0  0  0  0  2  0  0  0  0  0  0
  187.9230  177.8040  147.1660 C   0  0  0  0  0  0  0  0  0  0  0  0
  185.4050  176.8240  146.4300 C   0  0  0  0  0  3  0  0  0  0  0  0
  184.3880  178.6550  147.5650 F   0  0  0  0  0  0  0  0  0  0  0  0
  187.8270  176.6190  146.4000 C   0  0  0  0  0  0  0  0  0  0  0  0
  186.7650  178.4820  147.5550 C   0  0  0  0  0  3  0  0  0  0  0  0
  186.5580  176.1390  146.0380 C   0  0  0  0  0  3  0  0  0  0  0  0
  190.1640  173.8190  145.3670 C   0  0  2  0  0  3  0  0  0  0  0  0
  189.0060  175.9490  146.0240 C   0  0  0  0  0  0  0  0  0  0  0  0
  190.2890  177.6580  147.1690 C   0  0  0  0  0  3  0  0  0  0  0  0
  191.5600  175.7800  146.0750 C   0  0  1  0  0  3  0  0  0  0  0  0
  191.3910  174.6590  145.0460 C   0  0  0  0  0  2  0  0  0  0  0  0
  189.1390  178.2820  147.5310 N   0  0  0  0  0  0  0  0  0  0  0  0
  190.0910  172.6090  144.4430 C   0  0  1  0  0  3  0  0  0  0  0  0
  189.4380  171.5540  145.0850 O   0  0  0  0  0  1  0  0  0  0  0  0
  189.3630  172.9510  143.2300 N   0  0  0  0  0  2  0  0  0  0  0  0
  190.0630  170.9750  141.6150 O   0  0  0  0  0  0  0  0  0  0  0  0
  190.3130  172.4340  141.8760 S   0  0  0  0  0  0  0  0  0  0  0  0
  191.7680  172.6540  142.1830 O   0  0  0  0  0  0  0  0  0  0  0  0
  189.8690  173.3580  140.4730 N   0  0  0  0  0  0  0  0  0  0  0  0
  188.6340  174.0910  140.4120 C   0  0  0  0  0  0  0  0  0  0  0  0
  188.2520  174.5940  139.3210 O   0  0  0  0  0  0  0  0  0  0  0  0
  187.7930  174.2940  141.6330 C   0  0  0  0  0  2  0  0  0  0  0  0
  187.8570  175.7160  142.0830 C   0  0  0  0  0  0  0  0  0  0  0  0
  189.1580  177.6790  142.6520 C   0  0  0  0  0  3  0  0  0  0  0  0
  186.7450  177.7310  142.8430 C   0  0  0  0  0  3  0  0  0  0  0  0
  187.9830  178.3680  142.9670 C   0  0  0  0  0  3  0  0  0  0  0  0
  186.6820  176.4060  142.4030 C   0  0  0  0  0  3  0  0  0  0  0  0
  189.0960  176.3530  142.2130 C   0  0  0  0  0  3  0  0  0  0  0  0
  190.7880  173.3920  139.3410 C   0  0  0  0  0  2  0  0  0  0  0  0
  189.6050  172.0230  137.7810 O   0  0  0  0  0  1  0  0  0  0  0  0
  190.7440  172.0750  138.5820 C   0  0  0  0  0  2  0  0  0  0  0  0
  192.6300  176.7550  145.5930 C   0  0  0  0  0  2  0  0  0  0  0  0
  195.5390  175.4230  143.5650 C   0  0  0  0  0  3  0  0  0  0  0  0
  196.2220  174.6530  144.5210 C   0  0  0  0  0  0  0  0  0  0  0  0
  194.5590  175.2670  146.1780 C   0  0  0  0  0  3  0  0  0  0  0  0
  194.3740  176.1110  143.9160 C   0  0  0  0  0  3  0  0  0  0  0  0
  193.8840  176.0360  145.2230 C   0  0  0  0  0  0  0  0  0  0  0  0
  195.7240  174.5800  145.8270 C   0  0  0  0  0  3  0  0  0  0  0  0
  197.5600  172.5740  144.4950 C   0  0  0  0  0  1  0  0  0  0  0  0
  197.3900  173.9540  144.2030 O   0  0  0  0  0  0  0  0  0  0  0  0
  1  8  1  0  0  0  0
  1  6  1  0  0  0  0
  2 12  1  0  0  0  0
  3 10  1  0  0  0  0
  3 11  1  0  0  0  0
  4 15  1  0  0  0  0
  4  8  2  0  0  0  0
  5  1  2  0  0  0  0
  7  4  1  0  0  0  0
  9  7  2  0  0  0  0
  9  5  1  0  0  0  0
 10 16  1  6  0  0  0
 11  2  2  0  0  0  0
 11  7  1  0  0  0  0
 12 15  2  0  0  0  0
 13 35  1  6  0  0  0
 13  2  1  0  0  0  0
 14 10  1  0  0  0  0
 14 13  1  0  0  0  0
 16 17  1  1  0  0  0
 18 16  1  0  0  0  0
 19 20  2  0  0  0  0
 20 21  2  0  0  0  0
 20 18  1  0  0  0  0
 22 20  1  0  0  0  0
 23 22  1  0  0  0  0
 23 25  1  0  0  0  0
 24 23  2  0  0  0  0
 25 26  1  0  0  0  0
 26 31  2  0  0  0  0
 26 30  1  0  0  0  0
 27 29  2  0  0  0  0
 28 29  1  0  0  0  0
 30 28  2  0  0  0  0
 31 27  1  0  0  0  0
 32 22  1  0  0  0  0
 33 34  1  0  0  0  0
 34 32  1  0  0  0  0
 36 39  2  0  0  0  0
 36 37  1  0  0  0  0
 37 41  2  0  0  0  0
 39 40  1  0  0  0  0
 40 35  1  0  0  0  0
 40 38  2  0  0  0  0
 41 38  1  0  0  0  0
 43 42  1  0  0  0  0
 43 37  1  0  0  0  0
M  END
>  <MODEL>
9

>  <REMARK>
 VINA RESULT:      -6.4      1.757      3.702
  Name = 
  11 active torsions:
  status: ('A' for Active; 'I' for Inactive)
    1  A    between atoms: C_1  and  C_34
    2  A    between atoms: C_1  and  C_35
    3  A    between atoms: C_2  and  N_6
    4  A    between atoms: C_2  and  C_27
    5  A    between atoms: N_4  and  S_12
    6  A    between atoms: N_4  and  C_15
    7  A    between atoms: N_6  and  S_12
    8  A    between atoms: C_11  and  C_14
    9  A    between atoms: C_14  and  C_22
   10  A    between atoms: C_15  and  C_42
   11  A    between atoms: C_19  and  O_37
                            x       y       z     vdW  Elec       q    Type
                         _______ _______ _______ _____ _____    ______ ____

>  <TORSDO>
F 11

$$$$
