=
 OpenBabel11052418083D

 28 32  0  0  1  0  0  0  0  0999 V2000
  187.9530  177.8250  144.0760 C   0  0  0  0  0  0  0  0  0  0  0  0
  192.9240  176.1650  142.9080 C   0  0  0  0  0  3  0  0  0  0  0  0
  189.6010  174.4210  146.6370 C   0  0  0  0  0  1  0  0  0  0  0  0
  193.8030  176.1360  145.1700 C   0  0  0  0  0  0  0  0  0  0  0  0
  191.2830  176.0670  144.8290 C   0  0  2  0  0  3  0  0  0  0  0  0
  195.3150  176.2050  143.2760 C   0  0  0  0  0  0  0  0  0  0  0  0
  192.6980  176.1640  144.2930 C   0  0  0  0  0  0  0  0  0  0  0  0
  192.2380  175.5540  146.9980 C   0  0  0  0  0  2  0  0  0  0  0  0
  195.1040  176.1740  144.6570 C   0  0  0  0  0  3  0  0  0  0  0  0
  188.8020  176.6980  146.0690 C   0  0  0  0  0  0  0  0  0  0  0  0
  190.3690  177.0670  144.1120 C   0  0  0  0  0  2  0  0  0  0  0  0
  193.6090  176.1160  146.6530 C   0  0  0  0  0  2  0  0  0  0  0  0
  186.5330  177.5410  146.0350 C   0  0  0  0  0  3  0  0  0  0  0  0
  189.8760  175.9210  146.7800 C   0  0  2  0  0  3  0  0  0  0  0  0
  187.5660  176.8780  146.6960 C   0  0  0  0  0  3  0  0  0  0  0  0
  196.6080  176.2410  142.7740 O   0  0  0  0  0  1  0  0  0  0  0  0
  194.2270  176.1930  142.4030 C   0  0  0  0  0  3  0  0  0  0  0  0
  191.2090  176.3090  146.2830 N   0  0  2  0  0  0  0  0  0  0  0  0
  186.7280  178.0160  144.7380 C   0  0  0  0  0  3  0  0  0  0  0  0
  189.0060  177.1730  144.7550 C   0  0  0  0  0  0  0  0  0  0  0  0
  188.1750  178.3770  142.6810 C   0  0  1  0  0  3  0  0  0  0  0  0
  187.9480  177.3790  141.5250 C   0  0  2  0  0  3  0  0  0  0  0  0
  186.9020  178.4310  141.8580 C   0  0  0  0  0  2  0  0  0  0  0  0
  188.4410  174.9290  141.9640 C   0  0  0  0  0  0  0  0  0  0  0  0
  186.2850  175.9340  142.7200 C   0  0  0  0  0  1  0  0  0  0  0  0
  187.5290  176.0430  141.9680 N   0  0  0  0  0  0  0  0  0  0  0  0
  187.9800  173.5610  142.3420 C   0  0  0  0  0  1  0  0  0  0  0  0
  189.6480  175.0900  141.6430 O   0  0  0  0  0  0  0  0  0  0  0  0
  1 19  2  0  0  0  0
  1 20  1  0  0  0  0
  2  7  1  0  0  0  0
  4 12  1  0  0  0  0
  5 11  1  6  0  0  0
  5 18  1  0  0  0  0
  6  9  2  0  0  0  0
  7  5  1  0  0  0  0
  7  4  2  0  0  0  0
  9  4  1  0  0  0  0
 10 15  1  0  0  0  0
 10 14  1  0  0  0  0
 11 20  1  0  0  0  0
 12  8  1  0  0  0  0
 13 15  2  0  0  0  0
 14  3  1  6  0  0  0
 16  6  1  0  0  0  0
 17  2  2  0  0  0  0
 17  6  1  0  0  0  0
 18 14  1  0  0  0  0
 18  8  1  1  0  0  0
 19 13  1  0  0  0  0
 20 10  2  0  0  0  0
 21  1  1  1  0  0  0
 22 23  1  0  0  0  0
 22 26  1  1  0  0  0
 22 21  1  0  0  0  0
 23 21  1  0  0  0  0
 24 26  1  0  0  0  0
 24 27  1  0  0  0  0
 26 25  1  0  0  0  0
 28 24  2  0  0  0  0
M  END
>  <MODEL>
1

>  <REMARK>
 VINA RESULT:      -8.3      0.000      0.000
  Name = 
  2 active torsions:
  status: ('A' for Active; 'I' for Inactive)
    1  A    between atoms: C_1  and  C_2
    2  A    between atoms: C_3  and  N_11
                            x       y       z     vdW  Elec       q    Type
                         _______ _______ _______ _____ _____    ______ ____

>  <TORSDO>
F 2

$$$$
=
 OpenBabel11052418083D

 28 32  0  0  1  0  0  0  0  0999 V2000
  192.6490  176.2330  143.7490 C   0  0  0  0  0  0  0  0  0  0  0  0
  188.0060  176.8770  146.3680 C   0  0  0  0  0  3  0  0  0  0  0  0
  189.2930  173.3350  142.6540 C   0  0  0  0  0  1  0  0  0  0  0  0
  186.5260  176.7830  144.4460 C   0  0  0  0  0  0  0  0  0  0  0  0
  188.8660  175.8030  144.2460 C   0  0  2  0  0  3  0  0  0  0  0  0
  185.7650  177.7750  146.5220 C   0  0  0  0  0  0  0  0  0  0  0  0
  187.7900  176.5370  145.0230 C   0  0  0  0  0  0  0  0  0  0  0  0
  187.1880  175.3180  142.5630 C   0  0  0  0  0  2  0  0  0  0  0  0
  185.5280  177.4160  145.1930 C   0  0  0  0  0  3  0  0  0  0  0  0
  190.9200  175.1840  142.3790 C   0  0  0  0  0  0  0  0  0  0  0  0
  190.2270  176.4810  144.4430 C   0  0  0  0  0  2  0  0  0  0  0  0
  186.2460  176.4210  143.0210 C   0  0  0  0  0  2  0  0  0  0  0  0
  193.2390  175.0710  141.6920 C   0  0  0  0  0  3  0  0  0  0  0  0
  189.4910  174.7720  142.1600 C   0  0  2  0  0  3  0  0  0  0  0  0
  191.8980  174.7530  141.4780 C   0  0  0  0  0  3  0  0  0  0  0  0
  184.7680  178.4010  147.2580 O   0  0  0  0  0  1  0  0  0  0  0  0
  186.9990  177.5000  147.1110 C   0  0  0  0  0  3  0  0  0  0  0  0
  188.5720  175.7300  142.8020 N   0  0  2  0  0  0  0  0  0  0  0  0
  193.6100  175.8100  142.8150 C   0  0  0  0  0  3  0  0  0  0  0  0
  191.2880  175.9310  143.5200 C   0  0  0  0  0  0  0  0  0  0  0  0
  193.0500  177.0700  144.9490 C   0  0  1  0  0  3  0  0  0  0  0  0
  193.5920  176.2820  146.1610 C   0  0  2  0  0  3  0  0  0  0  0  0
  194.5400  177.0220  145.2310 C   0  0  0  0  0  2  0  0  0  0  0  0
  194.9020  174.1520  145.7250 C   0  0  0  0  0  0  0  0  0  0  0  0
  192.4740  174.0440  146.2900 C   0  0  0  0  0  1  0  0  0  0  0  0
  193.6510  174.8300  145.9460 N   0  0  0  0  0  0  0  0  0  0  0  0
  194.9390  172.6900  145.4310 C   0  0  0  0  0  1  0  0  0  0  0  0
  195.9910  174.7830  145.7790 O   0  0  0  0  0  0  0  0  0  0  0  0
  2 17  1  0  0  0  0
  4  7  1  0  0  0  0
  4  9  2  0  0  0  0
  5 11  1  6  0  0  0
  5  7  1  0  0  0  0
  6 17  2  0  0  0  0
  6 16  1  0  0  0  0
  7  2  2  0  0  0  0
  8 12  1  0  0  0  0
  9  6  1  0  0  0  0
 10 20  2  0  0  0  0
 12  4  1  0  0  0  0
 13 19  1  0  0  0  0
 14 10  1  0  0  0  0
 14  3  1  1  0  0  0
 14 18  1  0  0  0  0
 15 13  2  0  0  0  0
 15 10  1  0  0  0  0
 18  8  1  1  0  0  0
 18  5  1  0  0  0  0
 19  1  2  0  0  0  0
 20  1  1  0  0  0  0
 20 11  1  0  0  0  0
 21  1  1  6  0  0  0
 21 23  1  0  0  0  0
 21 22  1  0  0  0  0
 22 26  1  6  0  0  0
 23 22  1  0  0  0  0
 24 28  2  0  0  0  0
 24 26  1  0  0  0  0
 26 25  1  0  0  0  0
 27 24  1  0  0  0  0
M  END
>  <MODEL>
2

>  <REMARK>
 VINA RESULT:      -8.2      2.253      7.075
  Name = 
  2 active torsions:
  status: ('A' for Active; 'I' for Inactive)
    1  A    between atoms: C_1  and  C_2
    2  A    between atoms: C_3  and  N_11
                            x       y       z     vdW  Elec       q    Type
                         _______ _______ _______ _____ _____    ______ ____

>  <TORSDO>
F 2

$$$$
=
 OpenBabel11052418083D

 28 32  0  0  1  0  0  0  0  0999 V2000
  190.7120  174.9580  144.8510 C   0  0  0  0  0  0  0  0  0  0  0  0
  187.0640  177.8130  142.1370 C   0  0  0  0  0  3  0  0  0  0  0  0
  188.6240  178.2920  147.1700 C   0  0  0  0  0  1  0  0  0  0  0  0
  185.2940  177.7510  143.7970 C   0  0  0  0  0  0  0  0  0  0  0  0
  187.6870  177.3010  144.5340 C   0  0  2  0  0  3  0  0  0  0  0  0
  184.7770  178.2590  141.4840 C   0  0  0  0  0  0  0  0  0  0  0  0
  186.6550  177.5890  143.4610 C   0  0  0  0  0  0  0  0  0  0  0  0
  185.9620  177.7370  146.1820 C   0  0  0  0  0  2  0  0  0  0  0  0
  184.3610  178.0670  142.8040 C   0  0  0  0  0  3  0  0  0  0  0  0
  189.2480  175.9850  146.5140 C   0  0  0  0  0  0  0  0  0  0  0  0
  188.6670  176.2220  144.0590 C   0  0  0  0  0  2  0  0  0  0  0  0
  184.8160  177.5410  145.2000 C   0  0  0  0  0  2  0  0  0  0  0  0
  191.1510  174.6710  147.2300 C   0  0  0  0  0  3  0  0  0  0  0  0
  188.0980  176.8850  146.8720 C   0  0  2  0  0  3  0  0  0  0  0  0
  190.0420  175.4580  147.5370 C   0  0  0  0  0  3  0  0  0  0  0  0
  183.8460  178.5740  140.5040 O   0  0  0  0  0  1  0  0  0  0  0  0
  186.1270  178.1390  141.1520 C   0  0  0  0  0  3  0  0  0  0  0  0
  187.0780  176.8680  145.8060 N   0  0  2  0  0  0  0  0  0  0  0  0
  191.4800  174.4180  145.8980 C   0  0  0  0  0  3  0  0  0  0  0  0
  189.5760  175.7370  145.1630 C   0  0  0  0  0  0  0  0  0  0  0  0
  191.0490  174.6500  143.4050 C   0  0  1  0  0  3  0  0  0  0  0  0
  192.1820  175.4980  142.7880 C   0  0  2  0  0  3  0  0  0  0  0  0
  192.4390  174.0670  143.2330 C   0  0  0  0  0  2  0  0  0  0  0  0
  194.0920  176.2790  144.2650 C   0  0  0  0  0  0  0  0  0  0  0  0
  192.1460  177.7780  143.8250 C   0  0  0  0  0  1  0  0  0  0  0  0
  192.7730  176.4670  143.7200 N   0  0  0  0  0  0  0  0  0  0  0  0
  194.6480  177.2300  145.2710 C   0  0  0  0  0  1  0  0  0  0  0  0
  194.8040  175.3060  143.9000 O   0  0  0  0  0  0  0  0  0  0  0  0
  1 20  2  0  0  0  0
  1 19  1  0  0  0  0
  2  7  1  0  0  0  0
  4 12  1  0  0  0  0
  5 11  1  6  0  0  0
  5 18  1  0  0  0  0
  6  9  2  0  0  0  0
  7  4  2  0  0  0  0
  7  5  1  0  0  0  0
  9  4  1  0  0  0  0
 10 14  1  0  0  0  0
 10 15  2  0  0  0  0
 11 20  1  0  0  0  0
 12  8  1  0  0  0  0
 13 15  1  0  0  0  0
 14  3  1  6  0  0  0
 16  6  1  0  0  0  0
 17  6  1  0  0  0  0
 17  2  2  0  0  0  0
 18  8  1  1  0  0  0
 18 14  1  0  0  0  0
 19 13  2  0  0  0  0
 20 10  1  0  0  0  0
 21  1  1  1  0  0  0
 22 23  1  0  0  0  0
 22 21  1  0  0  0  0
 22 26  1  1  0  0  0
 23 21  1  0  0  0  0
 24 27  1  0  0  0  0
 26 25  1  0  0  0  0
 26 24  1  0  0  0  0
 28 24  2  0  0  0  0
M  END
>  <MODEL>
3

>  <REMARK>
 VINA RESULT:      -7.9      2.167      6.607
  Name = 
  2 active torsions:
  status: ('A' for Active; 'I' for Inactive)
    1  A    between atoms: C_1  and  C_2
    2  A    between atoms: C_3  and  N_11
                            x       y       z     vdW  Elec       q    Type
                         _______ _______ _______ _____ _____    ______ ____

>  <TORSDO>
F 2

$$$$
=
 OpenBabel11052418083D

 28 32  0  0  1  0  0  0  0  0999 V2000
  191.2630  172.2240  143.6800 C   0  0  0  0  0  0  0  0  0  0  0  0
  187.4630  175.9780  143.1370 C   0  0  0  0  0  3  0  0  0  0  0  0
  192.4880  176.5010  144.7080 C   0  0  0  0  0  1  0  0  0  0  0  0
  187.7880  177.0880  145.2720 C   0  0  0  0  0  0  0  0  0  0  0  0
  189.6680  175.6550  144.3320 C   0  0  2  0  0  3  0  0  0  0  0  0
  185.7100  177.3700  144.0560 C   0  0  0  0  0  0  0  0  0  0  0  0
  188.2640  176.2210  144.2650 C   0  0  0  0  0  0  0  0  0  0  0  0
  190.0890  177.1650  146.1830 C   0  0  0  0  0  2  0  0  0  0  0  0
  186.5080  177.6420  145.1700 C   0  0  0  0  0  3  0  0  0  0  0  0
  191.9400  174.1120  145.0730 C   0  0  0  0  0  0  0  0  0  0  0  0
  189.6670  174.1690  143.9540 C   0  0  0  0  0  2  0  0  0  0  0  0
  188.6150  177.3900  146.4820 C   0  0  0  0  0  2  0  0  0  0  0  0
  193.3850  172.1800  144.8750 C   0  0  0  0  0  3  0  0  0  0  0  0
  191.7210  175.5080  145.5870 C   0  0  2  0  0  3  0  0  0  0  0  0
  193.1310  173.4510  145.3880 C   0  0  0  0  0  3  0  0  0  0  0  0
  184.4410  177.9250  143.9600 O   0  0  0  0  0  1  0  0  0  0  0  0
  186.1900  176.5440  143.0380 C   0  0  0  0  0  3  0  0  0  0  0  0
  190.2790  175.8090  145.6660 N   0  0  2  0  0  0  0  0  0  0  0  0
  192.4560  171.5690  144.0320 C   0  0  0  0  0  3  0  0  0  0  0  0
  190.9950  173.5020  144.2180 C   0  0  0  0  0  0  0  0  0  0  0  0
  190.2370  171.5410  142.7950 C   0  0  1  0  0  3  0  0  0  0  0  0
  190.4800  171.6630  141.2750 C   0  0  2  0  0  3  0  0  0  0  0  0
  190.8130  170.3760  142.0130 C   0  0  0  0  0  2  0  0  0  0  0  0
  192.8840  171.7480  140.4660 C   0  0  0  0  0  0  0  0  0  0  0  0
  191.5710  173.8530  140.7350 C   0  0  0  0  0  1  0  0  0  0  0  0
  191.6930  172.4140  140.9260 N   0  0  0  0  0  0  0  0  0  0  0  0
  194.1330  172.5160  140.1910 C   0  0  0  0  0  1  0  0  0  0  0  0
  192.8910  170.5010  140.2840 O   0  0  0  0  0  0  0  0  0  0  0  0
  1 19  2  0  0  0  0
  1 20  1  0  0  0  0
  2  7  1  0  0  0  0
  4 12  1  0  0  0  0
  5 11  1  1  0  0  0
  5 18  1  0  0  0  0
  6  9  2  0  0  0  0
  7  5  1  0  0  0  0
  7  4  2  0  0  0  0
  8 12  1  0  0  0  0
  9  4  1  0  0  0  0
 10 15  1  0  0  0  0
 10 14  1  0  0  0  0
 11 20  1  0  0  0  0
 13 15  2  0  0  0  0
 14  3  1  6  0  0  0
 14 18  1  0  0  0  0
 16  6  1  0  0  0  0
 17  2  2  0  0  0  0
 17  6  1  0  0  0  0
 18  8  1  6  0  0  0
 19 13  1  0  0  0  0
 20 10  2  0  0  0  0
 21  1  1  1  0  0  0
 22 26  1  1  0  0  0
 22 23  1  0  0  0  0
 22 21  1  0  0  0  0
 23 21  1  0  0  0  0
 24 26  1  0  0  0  0
 25 26  1  0  0  0  0
 27 24  1  0  0  0  0
 28 24  2  0  0  0  0
M  END
>  <MODEL>
4

>  <REMARK>
 VINA RESULT:      -7.5      3.229      6.451
  Name = 
  2 active torsions:
  status: ('A' for Active; 'I' for Inactive)
    1  A    between atoms: C_1  and  C_2
    2  A    between atoms: C_3  and  N_11
                            x       y       z     vdW  Elec       q    Type
                         _______ _______ _______ _____ _____    ______ ____

>  <TORSDO>
F 2

$$$$
=
 OpenBabel11052418083D

 28 32  0  0  1  0  0  0  0  0999 V2000
  191.9080  175.8470  144.6440 C   0  0  0  0  0  0  0  0  0  0  0  0
  187.3890  178.0960  142.8150 C   0  0  0  0  0  3  0  0  0  0  0  0
  189.5040  178.2910  147.6610 C   0  0  0  0  0  1  0  0  0  0  0  0
  185.9250  177.4200  144.6290 C   0  0  0  0  0  0  0  0  0  0  0  0
  188.4390  177.4470  145.0220 C   0  0  2  0  0  3  0  0  0  0  0  0
  184.9910  178.0790  142.4920 C   0  0  0  0  0  0  0  0  0  0  0  0
  187.2280  177.6210  144.1260 C   0  0  0  0  0  0  0  0  0  0  0  0
  186.9100  177.2630  146.8950 C   0  0  0  0  0  2  0  0  0  0  0  0
  184.8160  177.6330  143.8040 C   0  0  0  0  0  3  0  0  0  0  0  0
  190.5080  176.2910  146.5940 C   0  0  0  0  0  0  0  0  0  0  0  0
  189.5490  176.6920  144.2830 C   0  0  0  0  0  2  0  0  0  0  0  0
  185.7060  176.9310  146.0260 C   0  0  0  0  0  2  0  0  0  0  0  0
  192.7290  175.3730  146.8880 C   0  0  0  0  0  3  0  0  0  0  0  0
  189.2540  176.8480  147.2090 C   0  0  2  0  0  3  0  0  0  0  0  0
  191.5320  175.8380  147.4310 C   0  0  0  0  0  3  0  0  0  0  0  0
  183.8860  178.2910  141.6790 O   0  0  0  0  0  1  0  0  0  0  0  0
  186.2750  178.3170  142.0000 C   0  0  0  0  0  3  0  0  0  0  0  0
  188.1220  176.7300  146.2720 N   0  0  2  0  0  0  0  0  0  0  0  0
  192.9130  175.3720  145.5050 C   0  0  0  0  0  3  0  0  0  0  0  0
  190.6870  176.2960  145.1930 C   0  0  0  0  0  0  0  0  0  0  0  0
  192.0960  175.8070  143.1390 C   0  0  1  0  0  3  0  0  0  0  0  0
  191.8580  174.4350  142.4720 C   0  0  2  0  0  3  0  0  0  0  0  0
  190.8070  175.5300  142.3900 C   0  0  0  0  0  2  0  0  0  0  0  0
  190.0840  173.0040  143.5890 C   0  0  0  0  0  0  0  0  0  0  0  0
  192.5050  172.4930  143.9170 C   0  0  0  0  0  1  0  0  0  0  0  0
  191.4640  173.3790  143.4140 N   0  0  0  0  0  0  0  0  0  0  0  0
  189.6910  171.9850  144.6050 C   0  0  0  0  0  1  0  0  0  0  0  0
  189.1830  173.5310  142.8840 O   0  0  0  0  0  0  0  0  0  0  0  0
  1 20  2  0  0  0  0
  1 19  1  0  0  0  0
  2  7  1  0  0  0  0
  4 12  1  0  0  0  0
  5 11  1  6  0  0  0
  5 18  1  0  0  0  0
  6  9  2  0  0  0  0
  7  4  2  0  0  0  0
  7  5  1  0  0  0  0
  9  4  1  0  0  0  0
 10 14  1  0  0  0  0
 10 15  2  0  0  0  0
 11 20  1  0  0  0  0
 12  8  1  0  0  0  0
 13 15  1  0  0  0  0
 14  3  1  6  0  0  0
 16  6  1  0  0  0  0
 17  6  1  0  0  0  0
 17  2  2  0  0  0  0
 18  8  1  1  0  0  0
 18 14  1  0  0  0  0
 19 13  2  0  0  0  0
 20 10  1  0  0  0  0
 21  1  1  1  0  0  0
 22 21  1  0  0  0  0
 22 26  1  1  0  0  0
 23 22  1  0  0  0  0
 23 21  1  0  0  0  0
 24 27  1  0  0  0  0
 26 24  1  0  0  0  0
 26 25  1  0  0  0  0
 28 24  2  0  0  0  0
M  END
>  <MODEL>
5

>  <REMARK>
 VINA RESULT:      -7.3      2.356      6.045
  Name = 
  2 active torsions:
  status: ('A' for Active; 'I' for Inactive)
    1  A    between atoms: C_1  and  C_2
    2  A    between atoms: C_3  and  N_11
                            x       y       z     vdW  Elec       q    Type
                         _______ _______ _______ _____ _____    ______ ____

>  <TORSDO>
F 2

$$$$
=
 OpenBabel11052418083D

 28 32  0  0  1  0  0  0  0  0999 V2000
  189.6700  172.8860  142.1500 C   0  0  0  0  0  0  0  0  0  0  0  0
  187.5410  177.7220  143.1030 C   0  0  0  0  0  3  0  0  0  0  0  0
  191.1990  175.0710  145.8570 C   0  0  0  0  0  1  0  0  0  0  0  0
  187.0620  177.4130  145.4630 C   0  0  0  0  0  0  0  0  0  0  0  0
  188.7830  175.9050  144.3490 C   0  0  2  0  0  3  0  0  0  0  0  0
  185.9300  179.1500  144.2070 C   0  0  0  0  0  0  0  0  0  0  0  0
  187.7460  177.0100  144.2960 C   0  0  0  0  0  0  0  0  0  0  0  0
  188.6100  175.9870  146.7670 C   0  0  0  0  0  2  0  0  0  0  0  0
  186.1460  178.4680  145.4070 C   0  0  0  0  0  3  0  0  0  0  0  0
  190.0170  173.3490  144.5220 C   0  0  0  0  0  0  0  0  0  0  0  0
  188.6220  174.9610  143.1520 C   0  0  0  0  0  2  0  0  0  0  0  0
  187.2640  176.6950  146.7600 C   0  0  0  0  0  2  0  0  0  0  0  0
  190.9040  171.3180  143.5470 C   0  0  0  0  0  3  0  0  0  0  0  0
  189.9050  174.2630  145.7100 C   0  0  2  0  0  3  0  0  0  0  0  0
  190.7330  172.1550  144.6490 C   0  0  0  0  0  3  0  0  0  0  0  0
  185.0200  180.1970  144.1590 O   0  0  0  0  0  1  0  0  0  0  0  0
  186.6320  178.7820  143.0580 C   0  0  0  0  0  3  0  0  0  0  0  0
  188.7080  175.1170  145.5940 N   0  0  2  0  0  0  0  0  0  0  0  0
  190.3710  171.6780  142.3090 C   0  0  0  0  0  3  0  0  0  0  0  0
  189.4780  173.7220  143.2720 C   0  0  0  0  0  0  0  0  0  0  0  0
  189.0590  173.2560  140.8120 C   0  0  1  0  0  3  0  0  0  0  0  0
  190.0640  173.5640  139.6810 C   0  0  2  0  0  3  0  0  0  0  0  0
  189.3380  172.2290  139.7310 C   0  0  0  0  0  2  0  0  0  0  0  0
  192.3400  172.4620  139.4640 C   0  0  0  0  0  0  0  0  0  0  0  0
  192.0570  174.5000  140.8770 C   0  0  0  0  0  1  0  0  0  0  0  0
  191.4700  173.4280  140.0840 N   0  0  0  0  0  0  0  0  0  0  0  0
  193.7430  172.2810  139.9380 C   0  0  0  0  0  1  0  0  0  0  0  0
  191.9310  171.7520  138.5070 O   0  0  0  0  0  0  0  0  0  0  0  0
  1 19  2  0  0  0  0
  1 20  1  0  0  0  0
  2  7  1  0  0  0  0
  4 12  1  0  0  0  0
  5 11  1  6  0  0  0
  5 18  1  0  0  0  0
  6  9  2  0  0  0  0
  7  5  1  0  0  0  0
  7  4  2  0  0  0  0
  9  4  1  0  0  0  0
 10 15  1  0  0  0  0
 10 14  1  0  0  0  0
 11 20  1  0  0  0  0
 12  8  1  0  0  0  0
 13 15  2  0  0  0  0
 14  3  1  6  0  0  0
 16  6  1  0  0  0  0
 17  2  2  0  0  0  0
 17  6  1  0  0  0  0
 18 14  1  0  0  0  0
 18  8  1  1  0  0  0
 19 13  1  0  0  0  0
 20 10  2  0  0  0  0
 21  1  1  1  0  0  0
 22 23  1  0  0  0  0
 22 26  1  1  0  0  0
 22 21  1  0  0  0  0
 23 21  1  0  0  0  0
 24 27  1  0  0  0  0
 24 26  1  0  0  0  0
 26 25  1  0  0  0  0
 28 24  2  0  0  0  0
M  END
>  <MODEL>
6

>  <REMARK>
 VINA RESULT:      -7.1      3.016      6.182
  Name = 
  2 active torsions:
  status: ('A' for Active; 'I' for Inactive)
    1  A    between atoms: C_1  and  C_2
    2  A    between atoms: C_3  and  N_11
                            x       y       z     vdW  Elec       q    Type
                         _______ _______ _______ _____ _____    ______ ____

>  <TORSDO>
F 2

$$$$
=
 OpenBabel11052418083D

 28 32  0  0  1  0  0  0  0  0999 V2000
  192.5540  176.6810  144.5520 C   0  0  0  0  0  0  0  0  0  0  0  0
  194.4550  175.0770  139.7940 C   0  0  0  0  0  3  0  0  0  0  0  0
  195.7880  173.4580  144.6520 C   0  0  0  0  0  1  0  0  0  0  0  0
  196.8200  175.1890  140.3280 C   0  0  0  0  0  0  0  0  0  0  0  0
  195.1350  175.0440  142.2290 C   0  0  2  0  0  3  0  0  0  0  0  0
  196.0920  175.1910  138.0160 C   0  0  0  0  0  0  0  0  0  0  0  0
  195.4760  175.1440  140.7550 C   0  0  0  0  0  0  0  0  0  0  0  0
  197.4940  174.6690  142.6530 C   0  0  0  0  0  2  0  0  0  0  0  0
  197.1190  175.2300  138.9630 C   0  0  0  0  0  3  0  0  0  0  0  0
  194.7420  175.6820  144.9730 C   0  0  0  0  0  0  0  0  0  0  0  0
  193.9740  175.9820  142.5770 C   0  0  0  0  0  2  0  0  0  0  0  0
  197.9410  175.2430  141.3180 C   0  0  0  0  0  2  0  0  0  0  0  0
  193.3990  176.4690  146.8270 C   0  0  0  0  0  3  0  0  0  0  0  0
  195.9740  174.9690  144.4870 C   0  0  2  0  0  3  0  0  0  0  0  0
  194.5610  175.8660  146.3470 C   0  0  0  0  0  3  0  0  0  0  0  0
  196.3960  175.2310  136.6620 O   0  0  0  0  0  1  0  0  0  0  0  0
  194.7630  175.1080  138.4310 C   0  0  0  0  0  3  0  0  0  0  0  0
  196.2840  175.3610  143.1000 N   0  0  2  0  0  0  0  0  0  0  0  0
  192.4070  176.8790  145.9360 C   0  0  0  0  0  3  0  0  0  0  0  0
  193.7410  176.0910  144.0650 C   0  0  0  0  0  0  0  0  0  0  0  0
  191.4900  177.1630  143.5830 C   0  0  1  0  0  3  0  0  0  0  0  0
  190.1270  176.4450  143.6790 C   0  0  2  0  0  3  0  0  0  0  0  0
  190.3180  177.8300  144.2770 C   0  0  0  0  0  2  0  0  0  0  0  0
  189.2800  175.5830  145.9110 C   0  0  0  0  0  0  0  0  0  0  0  0
  190.5590  174.0800  144.3830 C   0  0  0  0  0  1  0  0  0  0  0  0
  190.0720  175.4110  144.7210 N   0  0  0  0  0  0  0  0  0  0  0  0
  189.2960  174.5590  146.9960 C   0  0  0  0  0  1  0  0  0  0  0  0
  188.5560  176.6040  146.0570 O   0  0  0  0  0  0  0  0  0  0  0  0
  1 19  1  0  0  0  0
  2  7  1  0  0  0  0
  4  7  2  0  0  0  0
  4 12  1  0  0  0  0
  5 11  1  1  0  0  0
  5 18  1  0  0  0  0
  6 17  1  0  0  0  0
  6  9  2  0  0  0  0
  7  5  1  0  0  0  0
  9  4  1  0  0  0  0
 10 15  2  0  0  0  0
 11 20  1  0  0  0  0
 12  8  1  0  0  0  0
 14  3  1  6  0  0  0
 14 10  1  0  0  0  0
 15 13  1  0  0  0  0
 16  6  1  0  0  0  0
 17  2  2  0  0  0  0
 18  8  1  6  0  0  0
 18 14  1  0  0  0  0
 19 13  2  0  0  0  0
 20  1  2  0  0  0  0
 20 10  1  0  0  0  0
 21 22  1  0  0  0  0
 21 23  1  0  0  0  0
 21  1  1  1  0  0  0
 22 23  1  0  0  0  0
 22 26  1  1  0  0  0
 24 28  2  0  0  0  0
 24 27  1  0  0  0  0
 25 26  1  0  0  0  0
 26 24  1  0  0  0  0
M  END
>  <MODEL>
7

>  <REMARK>
 VINA RESULT:      -7.1      2.906      5.381
  Name = 
  2 active torsions:
  status: ('A' for Active; 'I' for Inactive)
    1  A    between atoms: C_1  and  C_2
    2  A    between atoms: C_3  and  N_11
                            x       y       z     vdW  Elec       q    Type
                         _______ _______ _______ _____ _____    ______ ____

>  <TORSDO>
F 2

$$$$
=
 OpenBabel11052418083D

 28 32  0  0  1  0  0  0  0  0999 V2000
  194.1110  173.9620  143.0690 C   0  0  0  0  0  0  0  0  0  0  0  0
  189.8430  177.1160  143.8850 C   0  0  0  0  0  3  0  0  0  0  0  0
  194.5660  177.1900  146.2680 C   0  0  0  0  0  1  0  0  0  0  0  0
  189.8000  176.9950  146.3090 C   0  0  0  0  0  0  0  0  0  0  0  0
  191.9550  176.4180  145.0860 C   0  0  2  0  0  3  0  0  0  0  0  0
  187.8210  177.6800  145.0880 C   0  0  0  0  0  0  0  0  0  0  0  0
  190.4920  176.8130  145.0920 C   0  0  0  0  0  0  0  0  0  0  0  0
  191.9710  176.7910  147.4830 C   0  0  0  0  0  2  0  0  0  0  0  0
  188.4650  177.4100  146.2990 C   0  0  0  0  0  3  0  0  0  0  0  0
  194.3610  174.9160  145.3030 C   0  0  0  0  0  0  0  0  0  0  0  0
  192.2160  175.3440  144.0240 C   0  0  0  0  0  2  0  0  0  0  0  0
  190.4590  176.7010  147.6200 C   0  0  0  0  0  2  0  0  0  0  0  0
  196.0980  173.4940  144.3970 C   0  0  0  0  0  3  0  0  0  0  0  0
  193.8850  175.8240  146.4030 C   0  0  2  0  0  3  0  0  0  0  0  0
  195.6070  174.2930  145.4280 C   0  0  0  0  0  3  0  0  0  0  0  0
  186.4960  178.0930  145.0860 O   0  0  0  0  0  1  0  0  0  0  0  0
  188.5120  177.5410  143.8840 C   0  0  0  0  0  3  0  0  0  0  0  0
  192.4130  175.9150  146.3960 N   0  0  2  0  0  0  0  0  0  0  0  0
  195.3540  173.3250  143.2300 C   0  0  0  0  0  3  0  0  0  0  0  0
  193.6030  174.7530  144.1230 C   0  0  0  0  0  0  0  0  0  0  0  0
  193.2860  173.7460  141.8150 C   0  0  1  0  0  3  0  0  0  0  0  0
  193.7810  174.4860  140.5540 C   0  0  2  0  0  3  0  0  0  0  0  0
  194.0410  172.9990  140.7320 C   0  0  0  0  0  2  0  0  0  0  0  0
  196.2570  174.8980  140.1800 C   0  0  0  0  0  0  0  0  0  0  0  0
  194.8510  176.6210  141.3130 C   0  0  0  0  0  1  0  0  0  0  0  0
  195.0000  175.2770  140.7710 N   0  0  0  0  0  0  0  0  0  0  0  0
  197.5030  175.6660  140.4720 C   0  0  0  0  0  1  0  0  0  0  0  0
  196.3270  173.9110  139.4010 O   0  0  0  0  0  0  0  0  0  0  0  0
  1 19  2  0  0  0  0
  1 20  1  0  0  0  0
  2  7  1  0  0  0  0
  4 12  1  0  0  0  0
  5 11  1  6  0  0  0
  5  7  1  0  0  0  0
  5 18  1  0  0  0  0
  6  9  2  0  0  0  0
  7  4  2  0  0  0  0
  8 12  1  0  0  0  0
  9  4  1  0  0  0  0
 10 15  1  0  0  0  0
 10 14  1  0  0  0  0
 11 20  1  0  0  0  0
 13 15  2  0  0  0  0
 14  3  1  6  0  0  0
 16  6  1  0  0  0  0
 17  2  2  0  0  0  0
 17  6  1  0  0  0  0
 18 14  1  0  0  0  0
 18  8  1  1  0  0  0
 19 13  1  0  0  0  0
 20 10  2  0  0  0  0
 21  1  1  1  0  0  0
 22 23  1  0  0  0  0
 22 26  1  1  0  0  0
 22 21  1  0  0  0  0
 23 21  1  0  0  0  0
 24 27  1  0  0  0  0
 24 26  1  0  0  0  0
 26 25  1  0  0  0  0
 28 24  2  0  0  0  0
M  END
>  <MODEL>
8

>  <REMARK>
 VINA RESULT:      -7.1      2.609      6.768
  Name = 
  2 active torsions:
  status: ('A' for Active; 'I' for Inactive)
    1  A    between atoms: C_1  and  C_2
    2  A    between atoms: C_3  and  N_11
                            x       y       z     vdW  Elec       q    Type
                         _______ _______ _______ _____ _____    ______ ____

>  <TORSDO>
F 2

$$$$
=
 OpenBabel11052418083D

 28 32  0  0  1  0  0  0  0  0999 V2000
  192.7890  173.5660  143.0310 C   0  0  0  0  0  0  0  0  0  0  0  0
  189.0630  177.4280  142.8610 C   0  0  0  0  0  3  0  0  0  0  0  0
  192.6700  176.4160  146.5970 C   0  0  0  0  0  1  0  0  0  0  0  0
  188.1970  177.1510  145.1110 C   0  0  0  0  0  0  0  0  0  0  0  0
  190.5130  176.2500  144.5650 C   0  0  2  0  0  3  0  0  0  0  0  0
  186.8760  178.2910  143.4290 C   0  0  0  0  0  0  0  0  0  0  0  0
  189.2150  176.9220  144.1610 C   0  0  0  0  0  0  0  0  0  0  0  0
  189.7900  176.4480  146.8720 C   0  0  0  0  0  2  0  0  0  0  0  0
  187.0270  177.8180  144.7350 C   0  0  0  0  0  3  0  0  0  0  0  0
  192.4320  174.2970  145.3330 C   0  0  0  0  0  0  0  0  0  0  0  0
  190.9350  175.2210  143.5100 C   0  0  0  0  0  2  0  0  0  0  0  0
  188.3240  176.6460  146.5140 C   0  0  0  0  0  2  0  0  0  0  0  0
  194.1180  172.6290  144.8450 C   0  0  0  0  0  3  0  0  0  0  0  0
  191.7710  175.2030  146.3340 C   0  0  2  0  0  3  0  0  0  0  0  0
  193.4470  173.4360  145.7630 C   0  0  0  0  0  3  0  0  0  0  0  0
  185.7120  178.9530  143.0620 O   0  0  0  0  0  1  0  0  0  0  0  0
  187.8950  178.1020  142.4950 C   0  0  0  0  0  3  0  0  0  0  0  0
  190.4200  175.5800  145.8770 N   0  0  2  0  0  0  0  0  0  0  0  0
  193.7880  172.6890  143.4910 C   0  0  0  0  0  3  0  0  0  0  0  0
  192.0940  174.3660  143.9640 C   0  0  0  0  0  0  0  0  0  0  0  0
  192.4050  173.6000  141.5640 C   0  0  1  0  0  3  0  0  0  0  0  0
  193.3050  174.4690  140.6590 C   0  0  2  0  0  3  0  0  0  0  0  0
  193.4430  172.9550  140.6660 C   0  0  0  0  0  2  0  0  0  0  0  0
  195.7750  174.6670  141.2100 C   0  0  0  0  0  0  0  0  0  0  0  0
  194.1690  176.4160  141.9790 C   0  0  0  0  0  1  0  0  0  0  0  0
  194.4160  175.1150  141.3710 N   0  0  0  0  0  0  0  0  0  0  0  0
  196.8820  175.2810  141.9990 C   0  0  0  0  0  1  0  0  0  0  0  0
  196.0540  173.7480  140.3950 O   0  0  0  0  0  0  0  0  0  0  0  0
  1 19  2  0  0  0  0
  1 20  1  0  0  0  0
  2  7  1  0  0  0  0
  4 12  1  0  0  0  0
  5 11  1  6  0  0  0
  5 18  1  0  0  0  0
  6  9  2  0  0  0  0
  7  5  1  0  0  0  0
  7  4  2  0  0  0  0
  9  4  1  0  0  0  0
 10 15  1  0  0  0  0
 10 14  1  0  0  0  0
 11 20  1  0  0  0  0
 12  8  1  0  0  0  0
 13 15  2  0  0  0  0
 14  3  1  6  0  0  0
 16  6  1  0  0  0  0
 17  2  2  0  0  0  0
 17  6  1  0  0  0  0
 18 14  1  0  0  0  0
 18  8  1  1  0  0  0
 19 13  1  0  0  0  0
 20 10  2  0  0  0  0
 21  1  1  1  0  0  0
 22 23  1  0  0  0  0
 22 26  1  1  0  0  0
 22 21  1  0  0  0  0
 23 21  1  0  0  0  0
 24 26  1  0  0  0  0
 24 27  1  0  0  0  0
 26 25  1  0  0  0  0
 28 24  2  0  0  0  0
M  END
>  <MODEL>
9

>  <REMARK>
 VINA RESULT:      -7.1      2.547      6.467
  Name = 
  2 active torsions:
  status: ('A' for Active; 'I' for Inactive)
    1  A    between atoms: C_1  and  C_2
    2  A    between atoms: C_3  and  N_11
                            x       y       z     vdW  Elec       q    Type
                         _______ _______ _______ _____ _____    ______ ____

>  <TORSDO>
F 2

$$$$
