=
 OpenBabel11052418263D

 27 31  0  0  1  0  0  0  0  0999 V2000
  188.3350  178.4080  143.2400 C   0  0  0  0  0  2  0  0  0  0  0  0
  189.2710  177.1680  145.1540 C   0  0  0  0  0  0  0  0  0  0  0  0
  189.8970  175.8710  143.0750 N   0  0  0  0  0  2  0  0  0  0  0  0
  192.6710  175.4720  146.9660 C   0  0  0  0  0  2  0  0  0  0  0  0
  193.1140  173.2860  146.1300 F   0  0  0  0  0  0  0  0  0  0  0  0
  189.5500  177.4370  146.4650 N   0  0  0  0  0  0  0  0  0  0  0  0
  192.3010  174.9010  144.5760 C   0  0  2  0  0  3  0  0  0  0  0  0
  187.6760  175.6040  140.1050 C   0  0  0  0  0  3  0  0  0  0  0  0
  193.1260  175.5850  143.5000 C   0  0  0  0  0  1  0  0  0  0  0  0
  186.9360  176.7800  140.2100 C   0  0  0  0  0  0  0  0  0  0  0  0
  191.2620  175.8280  145.0930 C   0  0  0  0  0  0  0  0  0  0  0  0
  188.1360  177.7940  144.5420 N   0  0  0  0  0  0  0  0  0  0  0  0
  193.1930  174.6240  145.7970 C   0  0  1  0  0  3  0  0  0  0  0  0
  191.4760  176.1310  146.4040 C   0  0  0  0  0  0  0  0  0  0  0  0
  188.1140  177.3950  142.1820 C   0  0  0  0  0  0  0  0  0  0  0  0
  190.1430  176.3250  144.4190 C   0  0  0  0  0  0  0  0  0  0  0  0
  188.6470  175.3260  141.0670 C   0  0  0  0  0  3  0  0  0  0  0  0
  190.6200  176.9270  147.0840 N   0  0  0  0  0  0  0  0  0  0  0  0
  185.9420  177.0820  139.2400 N   0  0  0  0  0  1  0  0  0  0  0  0
  187.1730  177.6450  141.2310 N   0  0  0  0  0  0  0  0  0  0  0  0
  188.8710  176.2080  142.1270 C   0  0  0  0  0  0  0  0  0  0  0  0
  184.3250  177.9790  146.4270 C   0  0  0  0  0  3  0  0  0  0  0  0
  186.8500  177.8580  145.1940 C   0  0  0  0  0  0  0  0  0  0  0  0
  186.3470  176.7560  145.9060 C   0  0  0  0  0  3  0  0  0  0  0  0
  185.0940  176.8170  146.5210 C   0  0  0  0  0  3  0  0  0  0  0  0
  184.8090  179.0810  145.7180 C   0  0  0  0  0  3  0  0  0  0  0  0
  186.0630  179.0200  145.1040 C   0  0  0  0  0  3  0  0  0  0  0  0
  1 12  1  0  0  0  0
  2  6  1  0  0  0  0
  3 16  1  0  0  0  0
  6 18  2  0  0  0  0
  7  9  1  6  0  0  0
  7 11  1  0  0  0  0
  7 13  1  0  0  0  0
  8 10  2  0  0  0  0
  8 17  1  0  0  0  0
 10 20  1  0  0  0  0
 11 14  2  0  0  0  0
 12  2  1  0  0  0  0
 12 23  1  0  0  0  0
 13  5  1  1  0  0  0
 13  4  1  0  0  0  0
 14  4  1  0  0  0  0
 14 18  1  0  0  0  0
 15  1  1  0  0  0  0
 16 11  1  0  0  0  0
 16  2  2  0  0  0  0
 17 21  2  0  0  0  0
 19 10  1  0  0  0  0
 20 15  2  0  0  0  0
 21 15  1  0  0  0  0
 21  3  1  0  0  0  0
 22 25  1  0  0  0  0
 23 24  1  0  0  0  0
 24 25  2  0  0  0  0
 26 22  2  0  0  0  0
 27 23  2  0  0  0  0
 27 26  1  0  0  0  0
M  END
>  <MODEL>
1

>  <REMARK>
 VINA RESULT:      -8.0      0.000      0.000
  Name = 
  1 active torsions:
  status: ('A' for Active; 'I' for Inactive)
    1  A    between atoms: C_9  and  N_15
                            x       y       z     vdW  Elec       q    Type
                         _______ _______ _______ _____ _____    ______ ____

>  <TORSDO>
F 1

$$$$
=
 OpenBabel11052418263D

 27 31  0  0  1  0  0  0  0  0999 V2000
  190.0720  176.6600  143.5130 C   0  0  0  0  0  2  0  0  0  0  0  0
  188.0840  176.4480  142.0720 C   0  0  0  0  0  0  0  0  0  0  0  0
  187.2400  176.9860  144.3940 N   0  0  0  0  0  2  0  0  0  0  0  0
  184.5460  178.2060  140.6190 C   0  0  0  0  0  2  0  0  0  0  0  0
  182.7240  177.8840  142.1200 F   0  0  0  0  0  0  0  0  0  0  0  0
  187.8310  176.4600  140.7280 N   0  0  0  0  0  0  0  0  0  0  0  0
  184.8720  178.2680  143.0830 C   0  0  2  0  0  3  0  0  0  0  0  0
  188.8690  175.7220  147.4880 C   0  0  0  0  0  3  0  0  0  0  0  0
  185.3230  179.5550  143.7520 C   0  0  0  0  0  1  0  0  0  0  0  0
  190.1820  175.5510  147.0560 C   0  0  0  0  0  0  0  0  0  0  0  0
  186.0150  177.6230  142.3860 C   0  0  0  0  0  0  0  0  0  0  0  0
  189.3160  175.8880  142.5420 N   0  0  0  0  0  0  0  0  0  0  0  0
  183.8900  178.6060  141.9490 C   0  0  1  0  0  3  0  0  0  0  0  0
  185.8220  177.5950  141.0380 C   0  0  0  0  0  0  0  0  0  0  0  0
  189.6090  176.3170  144.8780 C   0  0  0  0  0  0  0  0  0  0  0  0
  187.1490  177.0400  142.9580 C   0  0  0  0  0  0  0  0  0  0  0  0
  187.9150  176.1960  146.5870 C   0  0  0  0  0  3  0  0  0  0  0  0
  186.7250  177.0120  140.2180 N   0  0  0  0  0  0  0  0  0  0  0  0
  191.1700  175.0690  147.9580 N   0  0  0  0  0  1  0  0  0  0  0  0
  190.5230  175.8560  145.7760 N   0  0  0  0  0  0  0  0  0  0  0  0
  188.2670  176.4860  145.2660 C   0  0  0  0  0  0  0  0  0  0  0  0
  190.8370  172.1720  141.1330 C   0  0  0  0  0  3  0  0  0  0  0  0
  189.8250  174.6290  142.0520 C   0  0  0  0  0  0  0  0  0  0  0  0
  189.0210  173.4770  142.0560 C   0  0  0  0  0  3  0  0  0  0  0  0
  189.5230  172.2560  141.5970 C   0  0  0  0  0  3  0  0  0  0  0  0
  191.6500  173.3070  141.1280 C   0  0  0  0  0  3  0  0  0  0  0  0
  191.1480  174.5270  141.5860 C   0  0  0  0  0  3  0  0  0  0  0  0
  1 15  1  0  0  0  0
  2 12  1  0  0  0  0
  2 16  1  0  0  0  0
  3 21  1  0  0  0  0
  4 14  1  0  0  0  0
  4 13  1  0  0  0  0
  6  2  2  0  0  0  0
  7  9  1  6  0  0  0
 10  8  1  0  0  0  0
 10 19  1  0  0  0  0
 11 16  2  0  0  0  0
 11  7  1  0  0  0  0
 12  1  1  0  0  0  0
 13  5  1  1  0  0  0
 13  7  1  0  0  0  0
 14 11  1  0  0  0  0
 15 21  2  0  0  0  0
 15 20  1  0  0  0  0
 16  3  1  0  0  0  0
 17  8  2  0  0  0  0
 18  6  1  0  0  0  0
 18 14  2  0  0  0  0
 20 10  2  0  0  0  0
 21 17  1  0  0  0  0
 22 25  1  0  0  0  0
 23 24  1  0  0  0  0
 23 12  1  0  0  0  0
 25 24  2  0  0  0  0
 26 22  2  0  0  0  0
 26 27  1  0  0  0  0
 27 23  2  0  0  0  0
M  END
>  <MODEL>
2

>  <REMARK>
 VINA RESULT:      -7.6      3.152      7.380
  Name = 
  1 active torsions:
  status: ('A' for Active; 'I' for Inactive)
    1  A    between atoms: C_9  and  N_15
                            x       y       z     vdW  Elec       q    Type
                         _______ _______ _______ _____ _____    ______ ____

>  <TORSDO>
F 1

$$$$
=
 OpenBabel11052418263D

 27 31  0  0  1  0  0  0  0  0999 V2000
  187.8410  175.3340  142.7560 C   0  0  0  0  0  2  0  0  0  0  0  0
  188.3980  176.6760  144.7470 C   0  0  0  0  0  0  0  0  0  0  0  0
  186.4460  177.8260  143.6210 N   0  0  0  0  0  2  0  0  0  0  0  0
  187.0670  178.4210  148.3390 C   0  0  0  0  0  2  0  0  0  0  0  0
  186.0470  180.5410  147.9610 F   0  0  0  0  0  0  0  0  0  0  0  0
  189.1070  176.4870  145.9010 N   0  0  0  0  0  0  0  0  0  0  0  0
  185.6680  178.8450  146.3280 C   0  0  2  0  0  3  0  0  0  0  0  0
  186.0160  177.9430  139.9300 C   0  0  0  0  0  3  0  0  0  0  0  0
  184.3720  178.0780  146.1350 C   0  0  0  0  0  1  0  0  0  0  0  0
  186.6920  176.7900  139.5390 C   0  0  0  0  0  0  0  0  0  0  0  0
  186.8310  177.9730  146.0230 C   0  0  0  0  0  0  0  0  0  0  0  0
  188.8400  176.0340  143.5450 N   0  0  0  0  0  0  0  0  0  0  0  0
  185.8390  179.1830  147.8190 C   0  0  1  0  0  3  0  0  0  0  0  0
  187.5890  177.7510  147.1330 C   0  0  0  0  0  0  0  0  0  0  0  0
  187.2200  176.2810  141.8010 C   0  0  0  0  0  0  0  0  0  0  0  0
  187.2120  177.4540  144.7820 C   0  0  0  0  0  0  0  0  0  0  0  0
  185.9510  178.2650  141.2860 C   0  0  0  0  0  3  0  0  0  0  0  0
  188.7220  177.0150  147.0670 N   0  0  0  0  0  0  0  0  0  0  0  0
  186.7700  176.4450  138.1610 N   0  0  0  0  0  1  0  0  0  0  0  0
  187.2680  175.9890  140.4730 N   0  0  0  0  0  0  0  0  0  0  0  0
  186.5640  177.4480  142.2400 C   0  0  0  0  0  0  0  0  0  0  0  0
  192.9360  176.0400  142.3880 C   0  0  0  0  0  3  0  0  0  0  0  0
  190.2260  176.0350  143.1390 C   0  0  0  0  0  0  0  0  0  0  0  0
  190.8670  174.8420  142.7650 C   0  0  0  0  0  3  0  0  0  0  0  0
  192.2140  174.8450  142.3890 C   0  0  0  0  0  3  0  0  0  0  0  0
  192.3130  177.2330  142.7630 C   0  0  0  0  0  3  0  0  0  0  0  0
  190.9680  177.2300  143.1380 C   0  0  0  0  0  3  0  0  0  0  0  0
  1 12  1  0  0  0  0
  2 16  2  0  0  0  0
  2  6  1  0  0  0  0
  3 16  1  0  0  0  0
  6 18  2  0  0  0  0
  7  9  1  1  0  0  0
  7 13  1  0  0  0  0
  8 17  1  0  0  0  0
 10  8  2  0  0  0  0
 10 20  1  0  0  0  0
 11  7  1  0  0  0  0
 11 14  2  0  0  0  0
 12  2  1  0  0  0  0
 13  5  1  6  0  0  0
 13  4  1  0  0  0  0
 14  4  1  0  0  0  0
 15 21  1  0  0  0  0
 15  1  1  0  0  0  0
 16 11  1  0  0  0  0
 17 21  2  0  0  0  0
 18 14  1  0  0  0  0
 19 10  1  0  0  0  0
 20 15  2  0  0  0  0
 21  3  1  0  0  0  0
 22 25  2  0  0  0  0
 22 26  1  0  0  0  0
 23 12  1  0  0  0  0
 24 23  2  0  0  0  0
 25 24  1  0  0  0  0
 26 27  2  0  0  0  0
 27 23  1  0  0  0  0
M  END
>  <MODEL>
3

>  <REMARK>
 VINA RESULT:      -7.6      2.749      5.535
  Name = 
  1 active torsions:
  status: ('A' for Active; 'I' for Inactive)
    1  A    between atoms: C_9  and  N_15
                            x       y       z     vdW  Elec       q    Type
                         _______ _______ _______ _____ _____    ______ ____

>  <TORSDO>
F 1

$$$$
=
 OpenBabel11052418263D

 27 31  0  0  1  0  0  0  0  0999 V2000
  189.5230  177.4130  143.3300 C   0  0  0  0  0  2  0  0  0  0  0  0
  190.1880  175.1290  142.6850 C   0  0  0  0  0  0  0  0  0  0  0  0
  187.8430  175.4760  141.8040 N   0  0  0  0  0  2  0  0  0  0  0  0
  190.6960  172.3180  139.5930 C   0  0  0  0  0  2  0  0  0  0  0  0
  188.6550  171.2010  139.0770 F   0  0  0  0  0  0  0  0  0  0  0  0
  191.3600  174.4320  142.5820 N   0  0  0  0  0  0  0  0  0  0  0  0
  188.5170  173.5130  139.6440 C   0  0  2  0  0  3  0  0  0  0  0  0
  185.2740  177.4720  143.6040 C   0  0  0  0  0  3  0  0  0  0  0  0
  188.2550  174.6470  138.6680 C   0  0  0  0  0  1  0  0  0  0  0  0
  186.0720  178.3530  144.3300 C   0  0  0  0  0  0  0  0  0  0  0  0
  189.4250  173.9670  140.7270 C   0  0  0  0  0  0  0  0  0  0  0  0
  190.0540  176.1160  143.7140 N   0  0  0  0  0  0  0  0  0  0  0  0
  189.3130  172.4070  138.9310 C   0  0  1  0  0  3  0  0  0  0  0  0
  190.6140  173.3020  140.6880 C   0  0  0  0  0  0  0  0  0  0  0  0
  188.0440  177.3830  143.4220 C   0  0  0  0  0  0  0  0  0  0  0  0
  189.1600  174.8990  141.7350 C   0  0  0  0  0  0  0  0  0  0  0  0
  185.8850  176.5280  142.7770 C   0  0  0  0  0  3  0  0  0  0  0  0
  191.5720  173.5340  141.6150 N   0  0  0  0  0  0  0  0  0  0  0  0
  185.4700  179.3220  145.1790 N   0  0  0  0  0  1  0  0  0  0  0  0
  187.4250  178.2950  144.2200 N   0  0  0  0  0  0  0  0  0  0  0  0
  187.2780  176.4590  142.6850 C   0  0  0  0  0  0  0  0  0  0  0  0
  191.2500  175.4190  147.7390 C   0  0  0  0  0  3  0  0  0  0  0  0
  190.4620  175.8660  145.0760 C   0  0  0  0  0  0  0  0  0  0  0  0
  189.6160  175.1870  145.9690 C   0  0  0  0  0  3  0  0  0  0  0  0
  190.0080  174.9620  147.2920 C   0  0  0  0  0  3  0  0  0  0  0  0
  192.0990  176.1010  146.8650 C   0  0  0  0  0  3  0  0  0  0  0  0
  191.7070  176.3250  145.5430 C   0  0  0  0  0  3  0  0  0  0  0  0
  1 15  1  0  0  0  0
  1 12  1  0  0  0  0
  2 12  1  0  0  0  0
  3 21  1  0  0  0  0
  4 14  1  0  0  0  0
  6  2  1  0  0  0  0
  7  9  1  6  0  0  0
  7 11  1  0  0  0  0
  8 10  1  0  0  0  0
 10 19  1  0  0  0  0
 11 16  1  0  0  0  0
 12 23  1  0  0  0  0
 13  5  1  1  0  0  0
 13  4  1  0  0  0  0
 13  7  1  0  0  0  0
 14 11  2  0  0  0  0
 14 18  1  0  0  0  0
 15 20  1  0  0  0  0
 16  3  1  0  0  0  0
 16  2  2  0  0  0  0
 17  8  2  0  0  0  0
 18  6  2  0  0  0  0
 20 10  2  0  0  0  0
 21 17  1  0  0  0  0
 21 15  2  0  0  0  0
 23 27  2  0  0  0  0
 23 24  1  0  0  0  0
 24 25  2  0  0  0  0
 25 22  1  0  0  0  0
 26 22  2  0  0  0  0
 27 26  1  0  0  0  0
M  END
>  <MODEL>
4

>  <REMARK>
 VINA RESULT:      -7.5      2.638      5.433
  Name = 
  1 active torsions:
  status: ('A' for Active; 'I' for Inactive)
    1  A    between atoms: C_9  and  N_15
                            x       y       z     vdW  Elec       q    Type
                         _______ _______ _______ _____ _____    ______ ____

>  <TORSDO>
F 1

$$$$
=
 OpenBabel11052418263D

 27 31  0  0  1  0  0  0  0  0999 V2000
  190.0510  176.9610  143.8880 C   0  0  0  0  0  2  0  0  0  0  0  0
  187.6040  176.8610  144.1650 C   0  0  0  0  0  0  0  0  0  0  0  0
  188.5940  176.9220  146.4920 N   0  0  0  0  0  2  0  0  0  0  0  0
  184.1450  178.5860  145.8330 C   0  0  0  0  0  2  0  0  0  0  0  0
  183.8050  177.8760  148.0820 F   0  0  0  0  0  0  0  0  0  0  0  0
  186.5080  177.0910  143.3790 N   0  0  0  0  0  0  0  0  0  0  0  0
  186.0570  178.2400  147.3840 C   0  0  2  0  0  3  0  0  0  0  0  0
  191.7980  175.2570  147.3760 C   0  0  0  0  0  3  0  0  0  0  0  0
  186.9260  179.4180  147.7850 C   0  0  0  0  0  1  0  0  0  0  0  0
  192.4560  175.2590  146.1470 C   0  0  0  0  0  0  0  0  0  0  0  0
  186.3790  177.8110  145.9990 C   0  0  0  0  0  0  0  0  0  0  0  0
  188.7870  176.3190  143.5680 N   0  0  0  0  0  0  0  0  0  0  0  0
  184.5910  178.6990  147.2990 C   0  0  1  0  0  3  0  0  0  0  0  0
  185.3220  178.0050  145.1610 C   0  0  0  0  0  0  0  0  0  0  0  0
  190.6130  176.3520  145.1150 C   0  0  0  0  0  0  0  0  0  0  0  0
  187.5590  177.2200  145.5370 C   0  0  0  0  0  0  0  0  0  0  0  0
  190.5210  175.8100  147.4620 C   0  0  0  0  0  3  0  0  0  0  0  0
  185.3900  177.6420  143.8600 N   0  0  0  0  0  0  0  0  0  0  0  0
  193.7590  174.7000  146.0380 N   0  0  0  0  0  1  0  0  0  0  0  0
  191.8590  175.8070  145.0570 N   0  0  0  0  0  0  0  0  0  0  0  0
  189.9030  176.3520  146.3310 C   0  0  0  0  0  0  0  0  0  0  0  0
  188.6970  173.0450  140.8490 C   0  0  0  0  0  3  0  0  0  0  0  0
  188.7440  175.2050  142.6510 C   0  0  0  0  0  0  0  0  0  0  0  0
  188.9420  173.8900  143.1040 C   0  0  0  0  0  3  0  0  0  0  0  0
  188.9160  172.8160  142.2100 C   0  0  0  0  0  3  0  0  0  0  0  0
  188.5050  174.3480  140.3830 C   0  0  0  0  0  3  0  0  0  0  0  0
  188.5300  175.4200  141.2780 C   0  0  0  0  0  3  0  0  0  0  0  0
  1 15  1  0  0  0  0
  2 16  1  0  0  0  0
  4 13  1  0  0  0  0
  6 18  1  0  0  0  0
  6  2  2  0  0  0  0
  7  9  1  6  0  0  0
  8 17  1  0  0  0  0
 10  8  2  0  0  0  0
 11  7  1  0  0  0  0
 12  1  1  0  0  0  0
 12  2  1  0  0  0  0
 13  7  1  0  0  0  0
 13  5  1  1  0  0  0
 14  4  1  0  0  0  0
 14 11  1  0  0  0  0
 15 21  1  0  0  0  0
 16 11  2  0  0  0  0
 16  3  1  0  0  0  0
 18 14  2  0  0  0  0
 19 10  1  0  0  0  0
 20 15  2  0  0  0  0
 20 10  1  0  0  0  0
 21  3  1  0  0  0  0
 21 17  2  0  0  0  0
 22 25  1  0  0  0  0
 23 24  1  0  0  0  0
 23 12  1  0  0  0  0
 25 24  2  0  0  0  0
 26 22  2  0  0  0  0
 26 27  1  0  0  0  0
 27 23  2  0  0  0  0
M  END
>  <MODEL>
5

>  <REMARK>
 VINA RESULT:      -7.5      2.718      6.707
  Name = 
  1 active torsions:
  status: ('A' for Active; 'I' for Inactive)
    1  A    between atoms: C_9  and  N_15
                            x       y       z     vdW  Elec       q    Type
                         _______ _______ _______ _____ _____    ______ ____

>  <TORSDO>
F 1

$$$$
=
 OpenBabel11052418263D

 27 31  0  0  1  0  0  0  0  0999 V2000
  190.2750  173.8740  144.8140 C   0  0  0  0  0  2  0  0  0  0  0  0
  189.7960  176.0690  145.8270 C   0  0  0  0  0  0  0  0  0  0  0  0
  188.2500  175.8370  143.8400 N   0  0  0  0  0  2  0  0  0  0  0  0
  186.9260  178.6710  147.4750 C   0  0  0  0  0  2  0  0  0  0  0  0
  185.7770  179.8950  145.7850 F   0  0  0  0  0  0  0  0  0  0  0  0
  190.0370  176.6790  147.0280 N   0  0  0  0  0  0  0  0  0  0  0  0
  186.3420  177.6310  145.2940 C   0  0  2  0  0  3  0  0  0  0  0  0
  189.2350  174.1200  140.6930 C   0  0  0  0  0  3  0  0  0  0  0  0
  185.3680  176.4670  145.2490 C   0  0  0  0  0  1  0  0  0  0  0  0
  190.1980  173.2260  141.1590 C   0  0  0  0  0  0  0  0  0  0  0  0
  187.6660  177.1750  145.7910 C   0  0  0  0  0  0  0  0  0  0  0  0
  190.7640  175.1500  145.3070 N   0  0  0  0  0  0  0  0  0  0  0  0
  185.8750  178.6410  146.3560 C   0  0  1  0  0  3  0  0  0  0  0  0
  187.9730  177.7540  146.9860 C   0  0  0  0  0  0  0  0  0  0  0  0
  189.9080  174.0100  143.3850 C   0  0  0  0  0  0  0  0  0  0  0  0
  188.5710  176.3180  145.1580 C   0  0  0  0  0  0  0  0  0  0  0  0
  188.6080  174.9740  141.6000 C   0  0  0  0  0  3  0  0  0  0  0  0
  189.1550  177.5080  147.5950 N   0  0  0  0  0  0  0  0  0  0  0  0
  190.8490  172.3470  140.2510 N   0  0  0  0  0  1  0  0  0  0  0  0
  190.5050  173.1850  142.4820 N   0  0  0  0  0  0  0  0  0  0  0  0
  188.9450  174.9430  142.9560 C   0  0  0  0  0  0  0  0  0  0  0  0
  194.9240  176.0520  145.3150 C   0  0  0  0  0  3  0  0  0  0  0  0
  192.1780  175.4440  145.3030 C   0  0  0  0  0  0  0  0  0  0  0  0
  193.0540  174.7810  146.1780 C   0  0  0  0  0  3  0  0  0  0  0  0
  194.4190  175.0810  146.1830 C   0  0  0  0  0  3  0  0  0  0  0  0
  194.0640  176.7240  144.4440 C   0  0  0  0  0  3  0  0  0  0  0  0
  192.7000  176.4230  144.4390 C   0  0  0  0  0  3  0  0  0  0  0  0
  1 12  1  0  0  0  0
  2  6  1  0  0  0  0
  3 16  1  0  0  0  0
  6 18  2  0  0  0  0
  7  9  1  1  0  0  0
  7 11  1  0  0  0  0
  7 13  1  0  0  0  0
  8 10  2  0  0  0  0
  8 17  1  0  0  0  0
 10 20  1  0  0  0  0
 11 14  2  0  0  0  0
 12  2  1  0  0  0  0
 13  5  1  6  0  0  0
 13  4  1  0  0  0  0
 14  4  1  0  0  0  0
 14 18  1  0  0  0  0
 15  1  1  0  0  0  0
 16 11  1  0  0  0  0
 16  2  2  0  0  0  0
 17 21  2  0  0  0  0
 19 10  1  0  0  0  0
 20 15  2  0  0  0  0
 21 15  1  0  0  0  0
 21  3  1  0  0  0  0
 22 25  1  0  0  0  0
 23 12  1  0  0  0  0
 23 24  1  0  0  0  0
 24 25  2  0  0  0  0
 26 22  2  0  0  0  0
 27 26  1  0  0  0  0
 27 23  2  0  0  0  0
M  END
>  <MODEL>
6

>  <REMARK>
 VINA RESULT:      -7.3      2.685      5.979
  Name = 
  1 active torsions:
  status: ('A' for Active; 'I' for Inactive)
    1  A    between atoms: C_9  and  N_15
                            x       y       z     vdW  Elec       q    Type
                         _______ _______ _______ _____ _____    ______ ____

>  <TORSDO>
F 1

$$$$
=
 OpenBabel11052418263D

 27 31  0  0  1  0  0  0  0  0999 V2000
  191.3670  175.6640  142.8180 C   0  0  0  0  0  2  0  0  0  0  0  0
  192.7990  175.1810  144.7650 C   0  0  0  0  0  0  0  0  0  0  0  0
  193.0010  173.1980  143.2080 N   0  0  0  0  0  2  0  0  0  0  0  0
  196.6260  174.1660  146.1940 C   0  0  0  0  0  2  0  0  0  0  0  0
  196.9960  171.8130  146.1220 F   0  0  0  0  0  0  0  0  0  0  0  0
  193.3600  175.9010  145.7840 N   0  0  0  0  0  0  0  0  0  0  0  0
  195.7440  172.7740  144.3340 C   0  0  2  0  0  3  0  0  0  0  0  0
  190.1690  171.9310  141.1600 C   0  0  0  0  0  3  0  0  0  0  0  0
  196.2510  172.9950  142.9200 C   0  0  0  0  0  1  0  0  0  0  0  0
  189.4030  173.0850  141.0080 C   0  0  0  0  0  0  0  0  0  0  0  0
  194.8000  173.8540  144.7160 C   0  0  0  0  0  0  0  0  0  0  0  0
  191.5170  175.5720  144.2600 N   0  0  0  0  0  0  0  0  0  0  0  0
  196.9130  172.9360  145.3210 C   0  0  1  0  0  3  0  0  0  0  0  0
  195.2950  174.6080  145.7380 C   0  0  0  0  0  0  0  0  0  0  0  0
  190.9690  174.3420  142.2820 C   0  0  0  0  0  0  0  0  0  0  0  0
  193.5260  174.1040  144.1970 C   0  0  0  0  0  0  0  0  0  0  0  0
  191.3530  171.9950  141.8950 C   0  0  0  0  0  3  0  0  0  0  0  0
  194.5740  175.6210  146.2680 N   0  0  0  0  0  0  0  0  0  0  0  0
  188.1930  173.0410  140.2640 N   0  0  0  0  0  1  0  0  0  0  0  0
  189.8180  174.2550  141.5600 N   0  0  0  0  0  0  0  0  0  0  0  0
  191.7630  173.1960  142.4790 C   0  0  0  0  0  0  0  0  0  0  0  0
  188.2480  176.5530  146.8030 C   0  0  0  0  0  3  0  0  0  0  0  0
  190.4170  175.9070  145.1340 C   0  0  0  0  0  0  0  0  0  0  0  0
  189.9160  174.9690  146.0520 C   0  0  0  0  0  3  0  0  0  0  0  0
  188.8390  175.2910  146.8840 C   0  0  0  0  0  3  0  0  0  0  0  0
  188.7310  177.4940  145.8910 C   0  0  0  0  0  3  0  0  0  0  0  0
  189.8080  177.1720  145.0600 C   0  0  0  0  0  3  0  0  0  0  0  0
  1 12  1  0  0  0  0
  2  6  1  0  0  0  0
  3 16  1  0  0  0  0
  6 18  2  0  0  0  0
  7  9  1  6  0  0  0
  7 11  1  0  0  0  0
  7 13  1  0  0  0  0
  8 17  1  0  0  0  0
 10  8  2  0  0  0  0
 10 20  1  0  0  0  0
 11 14  2  0  0  0  0
 12  2  1  0  0  0  0
 12 23  1  0  0  0  0
 13  5  1  1  0  0  0
 13  4  1  0  0  0  0
 14  4  1  0  0  0  0
 14 18  1  0  0  0  0
 15 21  1  0  0  0  0
 15  1  1  0  0  0  0
 16 11  1  0  0  0  0
 16  2  2  0  0  0  0
 17 21  2  0  0  0  0
 19 10  1  0  0  0  0
 20 15  2  0  0  0  0
 21  3  1  0  0  0  0
 22 25  1  0  0  0  0
 23 24  1  0  0  0  0
 24 25  2  0  0  0  0
 26 22  2  0  0  0  0
 27 23  2  0  0  0  0
 27 26  1  0  0  0  0
M  END
>  <MODEL>
7

>  <REMARK>
 VINA RESULT:      -7.1      2.983      4.199
  Name = 
  1 active torsions:
  status: ('A' for Active; 'I' for Inactive)
    1  A    between atoms: C_9  and  N_15
                            x       y       z     vdW  Elec       q    Type
                         _______ _______ _______ _____ _____    ______ ____

>  <TORSDO>
F 1

$$$$
=
 OpenBabel11052418263D

 27 31  0  0  1  0  0  0  0  0999 V2000
  188.9440  175.0430  145.7820 C   0  0  0  0  0  2  0  0  0  0  0  0
  188.8670  175.1360  143.3200 C   0  0  0  0  0  0  0  0  0  0  0  0
  191.3120  175.1160  143.9680 N   0  0  0  0  0  2  0  0  0  0  0  0
  190.0510  173.4210  139.6630 C   0  0  0  0  0  2  0  0  0  0  0  0
  192.2170  174.1640  139.0030 F   0  0  0  0  0  0  0  0  0  0  0  0
  187.9360  174.8890  142.3500 N   0  0  0  0  0  0  0  0  0  0  0  0
  191.8530  173.8000  141.3320 C   0  0  2  0  0  3  0  0  0  0  0  0
  192.6190  176.8090  147.0090 C   0  0  0  0  0  3  0  0  0  0  0  0
  192.3940  172.6320  142.1380 C   0  0  0  0  0  1  0  0  0  0  0  0
  191.4970  176.7910  147.8360 C   0  0  0  0  0  0  0  0  0  0  0  0
  190.5220  174.2090  141.8480 C   0  0  0  0  0  0  0  0  0  0  0  0
  188.4370  175.6750  144.5760 N   0  0  0  0  0  0  0  0  0  0  0  0
  191.5660  173.3330  139.8950 C   0  0  1  0  0  3  0  0  0  0  0  0
  189.5450  173.9970  140.9230 C   0  0  0  0  0  0  0  0  0  0  0  0
  190.2300  175.6740  146.1620 C   0  0  0  0  0  0  0  0  0  0  0  0
  190.2240  174.7980  143.0800 C   0  0  0  0  0  0  0  0  0  0  0  0
  192.5300  176.2510  145.7330 C   0  0  0  0  0  3  0  0  0  0  0  0
  188.2610  174.3410  141.1750 N   0  0  0  0  0  0  0  0  0  0  0  0
  191.5660  177.3550  149.1390 N   0  0  0  0  0  1  0  0  0  0  0  0
  190.3410  176.2240  147.4020 N   0  0  0  0  0  0  0  0  0  0  0  0
  191.3320  175.6890  145.2850 C   0  0  0  0  0  0  0  0  0  0  0  0
  185.6670  178.8990  144.7960 C   0  0  0  0  0  3  0  0  0  0  0  0
  187.5050  176.7740  144.6610 C   0  0  0  0  0  0  0  0  0  0  0  0
  186.5260  176.8120  145.6690 C   0  0  0  0  0  3  0  0  0  0  0  0
  185.6140  177.8690  145.7370 C   0  0  0  0  0  3  0  0  0  0  0  0
  186.6310  178.8720  143.7850 C   0  0  0  0  0  3  0  0  0  0  0  0
  187.5420  177.8160  143.7170 C   0  0  0  0  0  3  0  0  0  0  0  0
  1 15  1  0  0  0  0
  2 12  1  0  0  0  0
  3 21  1  0  0  0  0
  4 13  1  0  0  0  0
  4 14  1  0  0  0  0
  6  2  2  0  0  0  0
  7 11  1  0  0  0  0
  7  9  1  1  0  0  0
  8 10  1  0  0  0  0
 10 19  1  0  0  0  0
 11 16  2  0  0  0  0
 12 23  1  0  0  0  0
 12  1  1  0  0  0  0
 13  5  1  6  0  0  0
 13  7  1  0  0  0  0
 14 18  2  0  0  0  0
 14 11  1  0  0  0  0
 15 20  1  0  0  0  0
 16  2  1  0  0  0  0
 16  3  1  0  0  0  0
 17  8  2  0  0  0  0
 18  6  1  0  0  0  0
 20 10  2  0  0  0  0
 21 17  1  0  0  0  0
 21 15  2  0  0  0  0
 22 25  1  0  0  0  0
 23 24  1  0  0  0  0
 24 25  2  0  0  0  0
 26 22  2  0  0  0  0
 27 26  1  0  0  0  0
 27 23  2  0  0  0  0
M  END
>  <MODEL>
8

>  <REMARK>
 VINA RESULT:      -7.0      2.410      5.353
  Name = 
  1 active torsions:
  status: ('A' for Active; 'I' for Inactive)
    1  A    between atoms: C_9  and  N_15
                            x       y       z     vdW  Elec       q    Type
                         _______ _______ _______ _____ _____    ______ ____

>  <TORSDO>
F 1

$$$$
=
 OpenBabel11052418263D

 27 31  0  0  1  0  0  0  0  0999 V2000
  189.1950  176.4880  141.9160 C   0  0  0  0  0  2  0  0  0  0  0  0
  189.1040  176.8430  144.3540 C   0  0  0  0  0  0  0  0  0  0  0  0
  190.0730  174.5350  143.9950 N   0  0  0  0  0  2  0  0  0  0  0  0
  191.1830  176.9030  148.0140 C   0  0  0  0  0  2  0  0  0  0  0  0
  191.3520  174.7250  148.9640 F   0  0  0  0  0  0  0  0  0  0  0  0
  188.9770  177.9160  145.1930 N   0  0  0  0  0  0  0  0  0  0  0  0
  191.5220  174.8940  146.5910 C   0  0  2  0  0  3  0  0  0  0  0  0
  188.9960  172.2910  141.2330 C   0  0  0  0  0  3  0  0  0  0  0  0
  192.8000  174.7470  145.7840 C   0  0  0  0  0  1  0  0  0  0  0  0
  188.5660  173.2130  140.2820 C   0  0  0  0  0  0  0  0  0  0  0  0
  190.6200  175.8840  145.9490 C   0  0  0  0  0  0  0  0  0  0  0  0
  188.4270  176.8640  143.0910 N   0  0  0  0  0  0  0  0  0  0  0  0
  191.8540  175.5240  147.9540 C   0  0  1  0  0  3  0  0  0  0  0  0
  190.4410  176.9780  146.7410 C   0  0  0  0  0  0  0  0  0  0  0  0
  189.1140  175.0210  141.7270 C   0  0  0  0  0  0  0  0  0  0  0  0
  189.9480  175.7670  144.7290 C   0  0  0  0  0  0  0  0  0  0  0  0
  189.4880  172.7540  142.4540 C   0  0  0  0  0  3  0  0  0  0  0  0
  189.6200  177.9840  146.3620 N   0  0  0  0  0  0  0  0  0  0  0  0
  188.0610  172.7620  139.0320 N   0  0  0  0  0  1  0  0  0  0  0  0
  188.6400  174.5450  140.5440 N   0  0  0  0  0  0  0  0  0  0  0  0
  189.5400  174.1240  142.7250 C   0  0  0  0  0  0  0  0  0  0  0  0
  184.3760  178.1200  142.7410 C   0  0  0  0  0  3  0  0  0  0  0  0
  187.0510  177.2780  142.9650 C   0  0  0  0  0  0  0  0  0  0  0  0
  186.5820  177.8690  141.7780 C   0  0  0  0  0  3  0  0  0  0  0  0
  185.2530  178.2850  141.6660 C   0  0  0  0  0  3  0  0  0  0  0  0
  184.8290  177.5410  143.9280 C   0  0  0  0  0  3  0  0  0  0  0  0
  186.1580  177.1250  144.0400 C   0  0  0  0  0  3  0  0  0  0  0  0
  1 12  1  0  0  0  0
  2 16  2  0  0  0  0
  2  6  1  0  0  0  0
  3 16  1  0  0  0  0
  6 18  2  0  0  0  0
  7  9  1  6  0  0  0
  7 13  1  0  0  0  0
  8 17  1  0  0  0  0
 10 20  1  0  0  0  0
 10  8  2  0  0  0  0
 11  7  1  0  0  0  0
 11 14  2  0  0  0  0
 12  2  1  0  0  0  0
 13  4  1  0  0  0  0
 13  5  1  1  0  0  0
 14  4  1  0  0  0  0
 15  1  1  0  0  0  0
 15 21  1  0  0  0  0
 16 11  1  0  0  0  0
 17 21  2  0  0  0  0
 18 14  1  0  0  0  0
 19 10  1  0  0  0  0
 20 15  2  0  0  0  0
 21  3  1  0  0  0  0
 22 26  1  0  0  0  0
 23 12  1  0  0  0  0
 23 27  1  0  0  0  0
 24 23  2  0  0  0  0
 25 24  1  0  0  0  0
 25 22  2  0  0  0  0
 26 27  2  0  0  0  0
M  END
>  <MODEL>
9

>  <REMARK>
 VINA RESULT:      -6.9      2.127      2.834
  Name = 
  1 active torsions:
  status: ('A' for Active; 'I' for Inactive)
    1  A    between atoms: C_9  and  N_15
                            x       y       z     vdW  Elec       q    Type
                         _______ _______ _______ _____ _____    ______ ____

>  <TORSDO>
F 1

$$$$
