=
 OpenBabel11052420373D

 34 39  0  0  1  0  0  0  0  0999 V2000
  190.4210  176.2800  144.7070 C   0  0  1  0  0  3  0  0  0  0  0  0
  191.1060  173.9200  141.8940 C   0  0  0  0  0  3  0  0  0  0  0  0
  188.0030  172.9330  140.2940 C   0  0  0  0  0  2  0  0  0  0  0  0
  192.2070  174.1980  144.0140 C   0  0  0  0  0  3  0  0  0  0  0  0
  188.4630  177.3950  146.0260 C   0  0  2  0  0  3  0  0  0  0  0  0
  189.6380  177.5560  145.0560 C   0  0  0  0  0  2  0  0  0  0  0  0
  190.3210  174.6510  146.6570 N   0  0  0  0  0  2  0  0  0  0  0  0
  188.9140  175.0400  146.7600 C   0  0  0  0  0  2  0  0  0  0  0  0
  190.5340  173.2260  139.3490 S   0  0  0  0  0  0  0  0  0  0  0  0
  188.7520  176.4820  147.2170 C   0  0  0  0  0  2  0  0  0  0  0  0
  192.2830  174.7170  145.2500 C   0  0  0  0  0  0  0  0  0  0  0  0
  191.1620  175.5420  145.8380 C   0  0  1  0  0  3  0  0  0  0  0  0
  193.3980  174.4450  146.0300 O   0  0  0  0  0  1  0  0  0  0  0  0
  190.1140  174.2090  140.8170 C   0  0  1  0  0  3  0  0  0  0  0  0
  188.7780  172.9130  138.9910 C   0  0  0  0  0  2  0  0  0  0  0  0
  188.7320  173.8320  141.2180 C   0  0  0  0  0  0  0  0  0  0  0  0
  188.1010  174.3710  142.2600 C   0  0  0  0  0  3  0  0  0  0  0  0
  191.0650  174.4590  143.1120 C   0  0  0  0  0  0  0  0  0  0  0  0
  188.7030  175.2880  143.2450 C   0  0  0  0  0  3  0  0  0  0  0  0
  189.9990  175.3840  143.5810 C   0  0  0  0  0  0  0  0  0  0  0  0
  187.1650  177.0390  145.3010 C   0  0  0  0  0  2  0  0  0  0  0  0
  184.1010  178.0920  145.7720 O   0  0  0  0  0  1  0  0  0  0  0  0
  186.8870  178.9790  143.7840 N   0  0  0  0  0  2  0  0  0  0  0  0
  183.5860  178.1400  141.3660 C   0  0  0  0  0  0  0  0  0  0  0  0
  183.4470  178.3650  142.7410 O   0  0  0  0  0  0  0  0  0  0  0  0
  184.4970  178.8790  143.5700 C   0  0  2  0  0  3  0  0  0  0  0  0
  186.0140  178.2320  141.6460 C   0  0  0  0  0  2  0  0  0  0  0  0
  185.8000  179.1750  142.8300 C   0  0  2  0  0  3  0  0  0  0  0  0
  184.7890  178.1230  140.8010 C   0  0  0  0  0  3  0  0  0  0  0  0
  186.3270  178.2640  144.9340 C   0  0  1  0  0  3  0  0  0  0  0  0
  184.8860  177.8980  144.6350 C   0  0  1  0  0  3  0  0  0  0  0  0
  182.3730  177.9160  140.5280 C   0  0  0  0  0  2  0  0  0  0  0  0
  181.1130  178.2990  141.2880 C   0  0  0  0  0  2  0  0  0  0  0  0
  180.4550  179.4170  140.6350 N   0  0  0  0  0  1  0  0  0  0  0  0
  1  6  1  1  0  0  0
  1 12  1  0  0  0  0
  2 18  2  0  0  0  0
  3 16  1  0  0  0  0
  4 11  2  0  0  0  0
  5 21  1  6  0  0  0
  5 10  1  0  0  0  0
  6  5  1  0  0  0  0
  7  8  1  0  0  0  0
  8 10  1  0  0  0  0
  9 14  1  0  0  0  0
 11 13  1  0  0  0  0
 12 11  1  6  0  0  0
 12  7  1  0  0  0  0
 14 16  1  0  0  0  0
 14  2  1  1  0  0  0
 15  9  1  0  0  0  0
 15  3  1  0  0  0  0
 16 17  2  0  0  0  0
 17 19  1  0  0  0  0
 18 20  1  0  0  0  0
 18  4  1  0  0  0  0
 19 20  2  0  0  0  0
 20  1  1  0  0  0  0
 23 30  1  0  0  0  0
 24 25  1  0  0  0  0
 26 25  1  6  0  0  0
 26 31  1  0  0  0  0
 28 27  1  6  0  0  0
 28 26  1  0  0  0  0
 28 23  1  0  0  0  0
 29 24  2  0  0  0  0
 29 27  1  0  0  0  0
 30 21  1  6  0  0  0
 31 30  1  0  0  0  0
 31 22  1  1  0  0  0
 32 33  1  0  0  0  0
 32 24  1  0  0  0  0
 34 33  1  0  0  0  0
M  END
>  <MODEL>
1

>  <REMARK>
 VINA RESULT:      -8.5      0.000      0.000
  Name = 
  4 active torsions:
  status: ('A' for Active; 'I' for Inactive)
    1  A    between atoms: C_7  and  C_11
    2  A    between atoms: C_8  and  C_18
    3  A    between atoms: C_11  and  C_15
    4  A    between atoms: C_18  and  C_30
                            x       y       z     vdW  Elec       q    Type
                         _______ _______ _______ _____ _____    ______ ____

>  <TORSDO>
F 4

$$$$
=
 OpenBabel11052420373D

 34 39  0  0  1  0  0  0  0  0999 V2000
  189.5470  177.0650  142.8530 C   0  0  1  0  0  3  0  0  0  0  0  0
  186.0560  177.7050  144.0160 C   0  0  0  0  0  3  0  0  0  0  0  0
  185.8370  177.3200  147.6160 C   0  0  0  0  0  2  0  0  0  0  0  0
  186.8780  176.6990  141.9910 C   0  0  0  0  0  3  0  0  0  0  0  0
  191.8950  176.3120  143.7110 C   0  0  2  0  0  3  0  0  0  0  0  0
  191.0100  177.4300  143.1500 C   0  0  0  0  0  2  0  0  0  0  0  0
  189.3840  174.6010  142.2460 N   0  0  0  0  0  2  0  0  0  0  0  0
  190.3300  174.3870  143.3410 C   0  0  0  0  0  2  0  0  0  0  0  0
  184.4790  178.8870  145.8590 S   0  0  0  0  0  0  0  0  0  0  0  0
  191.7050  174.9580  143.0260 C   0  0  0  0  0  2  0  0  0  0  0  0
  187.8650  176.1860  141.2400 C   0  0  0  0  0  0  0  0  0  0  0  0
  189.2610  175.9950  141.7820 C   0  0  1  0  0  3  0  0  0  0  0  0
  187.5830  175.7730  139.9450 O   0  0  0  0  0  1  0  0  0  0  0  0
  186.1430  178.3740  145.3470 C   0  0  1  0  0  3  0  0  0  0  0  0
  184.8190  178.4430  147.5900 C   0  0  0  0  0  2  0  0  0  0  0  0
  186.6650  177.4580  146.3960 C   0  0  0  0  0  0  0  0  0  0  0  0
  187.8720  176.8970  146.3430 C   0  0  0  0  0  3  0  0  0  0  0  0
  187.0990  177.1850  143.3690 C   0  0  0  0  0  0  0  0  0  0  0  0
  188.7990  176.9680  145.1990 C   0  0  0  0  0  3  0  0  0  0  0  0
  188.4860  177.1580  143.9080 C   0  0  0  0  0  0  0  0  0  0  0  0
  191.8170  176.2270  145.2350 C   0  0  0  0  0  2  0  0  0  0  0  0
  194.6570  177.7960  145.6750 O   0  0  0  0  0  1  0  0  0  0  0  0
  193.4110  174.5070  146.0380 N   0  0  0  0  0  2  0  0  0  0  0  0
  196.6470  174.5520  143.3970 C   0  0  0  0  0  0  0  0  0  0  0  0
  196.3780  175.6350  144.2430 O   0  0  0  0  0  0  0  0  0  0  0  0
  195.4340  175.5850  145.3190 C   0  0  2  0  0  3  0  0  0  0  0  0
  194.5660  173.5100  144.1500 C   0  0  0  0  0  2  0  0  0  0  0  0
  194.7340  174.2360  145.4850 C   0  0  2  0  0  3  0  0  0  0  0  0
  195.8350  173.5000  143.3650 C   0  0  0  0  0  3  0  0  0  0  0  0
  193.1690  175.9450  145.8910 C   0  0  1  0  0  3  0  0  0  0  0  0
  194.3170  176.5630  145.1180 C   0  0  1  0  0  3  0  0  0  0  0  0
  197.8540  174.5800  142.5220 C   0  0  0  0  0  2  0  0  0  0  0  0
  197.4580  174.6000  141.0550 C   0  0  0  0  0  2  0  0  0  0  0  0
  196.8370  175.8700  140.7210 N   0  0  0  0  0  1  0  0  0  0  0  0
  1  6  1  1  0  0  0
  1 20  1  0  0  0  0
  4 18  1  0  0  0  0
  5 21  1  1  0  0  0
  6  5  1  0  0  0  0
  7  8  1  0  0  0  0
  9 15  1  0  0  0  0
 10  8  1  0  0  0  0
 10  5  1  0  0  0  0
 11  4  2  0  0  0  0
 12 11  1  1  0  0  0
 12  7  1  0  0  0  0
 12  1  1  0  0  0  0
 13 11  1  0  0  0  0
 14  2  1  6  0  0  0
 14  9  1  0  0  0  0
 14 16  1  0  0  0  0
 15  3  1  0  0  0  0
 16  3  1  0  0  0  0
 17 16  2  0  0  0  0
 18 20  1  0  0  0  0
 18  2  2  0  0  0  0
 19 17  1  0  0  0  0
 20 19  2  0  0  0  0
 24 25  1  0  0  0  0
 26 25  1  6  0  0  0
 26 28  1  0  0  0  0
 28 27  1  6  0  0  0
 28 23  1  0  0  0  0
 29 24  2  0  0  0  0
 29 27  1  0  0  0  0
 30 21  1  6  0  0  0
 30 23  1  0  0  0  0
 31 26  1  0  0  0  0
 31 22  1  1  0  0  0
 31 30  1  0  0  0  0
 32 24  1  0  0  0  0
 33 32  1  0  0  0  0
 34 33  1  0  0  0  0
M  END
>  <MODEL>
2

>  <REMARK>
 VINA RESULT:      -8.4      3.865      9.065
  Name = 
  4 active torsions:
  status: ('A' for Active; 'I' for Inactive)
    1  A    between atoms: C_7  and  C_11
    2  A    between atoms: C_8  and  C_18
    3  A    between atoms: C_11  and  C_15
    4  A    between atoms: C_18  and  C_30
                            x       y       z     vdW  Elec       q    Type
                         _______ _______ _______ _____ _____    ______ ____

>  <TORSDO>
F 4

$$$$
=
 OpenBabel11052420373D

 34 39  0  0  1  0  0  0  0  0999 V2000
  189.6310  175.1750  145.5650 C   0  0  1  0  0  3  0  0  0  0  0  0
  187.0820  177.8060  146.2940 C   0  0  0  0  0  3  0  0  0  0  0  0
  185.3500  178.7600  143.2530 C   0  0  0  0  0  2  0  0  0  0  0  0
  189.2470  177.4040  147.2640 C   0  0  0  0  0  3  0  0  0  0  0  0
  190.7070  173.8440  143.5930 C   0  0  2  0  0  3  0  0  0  0  0  0
  189.8150  173.8330  144.8380 C   0  0  0  0  0  2  0  0  0  0  0  0
  191.6980  176.6190  145.2350 N   0  0  0  0  0  2  0  0  0  0  0  0
  191.6660  176.1470  143.8500 C   0  0  0  0  0  2  0  0  0  0  0  0
  184.5700  178.6890  145.8560 S   0  0  0  0  0  0  0  0  0  0  0  0
  191.9880  174.6640  143.7450 C   0  0  0  0  0  2  0  0  0  0  0  0
  190.4370  176.7840  147.2870 C   0  0  0  0  0  0  0  0  0  0  0  0
  190.8710  175.8510  146.1820 C   0  0  1  0  0  3  0  0  0  0  0  0
  191.3150  177.0460  148.3290 O   0  0  0  0  0  1  0  0  0  0  0  0
  185.9160  177.5590  145.3970 C   0  0  1  0  0  3  0  0  0  0  0  0
  184.1130  178.9350  144.1120 C   0  0  0  0  0  2  0  0  0  0  0  0
  186.2460  177.8240  143.9710 C   0  0  0  0  0  0  0  0  0  0  0  0
  187.1900  177.1620  143.3040 C   0  0  0  0  0  3  0  0  0  0  0  0
  188.2450  177.1610  146.2040 C   0  0  0  0  0  0  0  0  0  0  0  0
  188.1370  176.1970  143.8930 C   0  0  0  0  0  3  0  0  0  0  0  0
  188.5560  176.1420  145.1660 C   0  0  0  0  0  0  0  0  0  0  0  0
  189.9220  174.1910  142.3280 C   0  0  0  0  0  2  0  0  0  0  0  0
  191.3560  171.6030  140.9260 O   0  0  0  0  0  1  0  0  0  0  0  0
  188.1760  173.1470  140.9130 N   0  0  0  0  0  2  0  0  0  0  0  0
  189.7240  172.9770  137.0370 C   0  0  0  0  0  0  0  0  0  0  0  0
  190.2650  172.2080  138.0750 O   0  0  0  0  0  0  0  0  0  0  0  0
  189.6390  172.0510  139.3540 C   0  0  2  0  0  3  0  0  0  0  0  0
  188.2720  174.0730  138.6710 C   0  0  0  0  0  2  0  0  0  0  0  0
  188.3100  172.7920  139.5030 C   0  0  2  0  0  3  0  0  0  0  0  0
  188.7380  173.8360  137.2730 C   0  0  0  0  0  3  0  0  0  0  0  0
  189.4910  172.9600  141.5310 C   0  0  1  0  0  3  0  0  0  0  0  0
  190.4960  172.5960  140.4570 C   0  0  1  0  0  3  0  0  0  0  0  0
  190.2600  172.8300  135.6530 C   0  0  0  0  0  2  0  0  0  0  0  0
  189.7280  171.5660  134.9990 C   0  0  0  0  0  2  0  0  0  0  0  0
  190.7760  170.5630  134.9190 N   0  0  0  0  0  1  0  0  0  0  0  0
  1  6  1  6  0  0  0
  1 12  1  0  0  0  0
  3 16  1  0  0  0  0
  3 15  1  0  0  0  0
  4 11  2  0  0  0  0
  5 21  1  6  0  0  0
  5 10  1  0  0  0  0
  5  6  1  0  0  0  0
  8  7  1  0  0  0  0
 10  8  1  0  0  0  0
 11 13  1  0  0  0  0
 12  7  1  6  0  0  0
 12 11  1  0  0  0  0
 14  9  1  0  0  0  0
 14  2  1  1  0  0  0
 15  9  1  0  0  0  0
 16 14  1  0  0  0  0
 17 19  1  0  0  0  0
 17 16  2  0  0  0  0
 18  2  2  0  0  0  0
 18  4  1  0  0  0  0
 19 20  2  0  0  0  0
 20  1  1  0  0  0  0
 20 18  1  0  0  0  0
 23 30  1  0  0  0  0
 24 29  2  0  0  0  0
 24 25  1  0  0  0  0
 26 25  1  6  0  0  0
 26 28  1  0  0  0  0
 26 31  1  0  0  0  0
 28 27  1  6  0  0  0
 28 23  1  0  0  0  0
 29 27  1  0  0  0  0
 30 21  1  6  0  0  0
 31 22  1  1  0  0  0
 31 30  1  0  0  0  0
 32 24  1  0  0  0  0
 33 32  1  0  0  0  0
 34 33  1  0  0  0  0
M  END
>  <MODEL>
3

>  <REMARK>
 VINA RESULT:      -8.0      3.909      7.236
  Name = 
  4 active torsions:
  status: ('A' for Active; 'I' for Inactive)
    1  A    between atoms: C_7  and  C_11
    2  A    between atoms: C_8  and  C_18
    3  A    between atoms: C_11  and  C_15
    4  A    between atoms: C_18  and  C_30
                            x       y       z     vdW  Elec       q    Type
                         _______ _______ _______ _____ _____    ______ ____

>  <TORSDO>
F 4

$$$$
=
 OpenBabel11052420373D

 34 39  0  0  1  0  0  0  0  0999 V2000
  191.0240  171.6290  143.7640 C   0  0  1  0  0  3  0  0  0  0  0  0
  193.8690  169.2700  144.3040 C   0  0  0  0  0  3  0  0  0  0  0  0
  196.6070  170.9590  145.9800 C   0  0  0  0  0  2  0  0  0  0  0  0
  192.2840  169.4330  142.5010 C   0  0  0  0  0  3  0  0  0  0  0  0
  190.3420  174.1320  144.0640 C   0  0  2  0  0  3  0  0  0  0  0  0
  190.1590  172.6710  144.4900 C   0  0  0  0  0  2  0  0  0  0  0  0
  191.5350  172.4310  141.4060 N   0  0  0  0  0  2  0  0  0  0  0  0
  191.7440  173.7420  142.0200 C   0  0  0  0  0  2  0  0  0  0  0  0
  195.7600  168.3770  146.0100 S   0  0  0  0  0  0  0  0  0  0  0  0
  190.4470  174.3360  142.5520 C   0  0  0  0  0  2  0  0  0  0  0  0
  191.3010  170.0670  141.8430 C   0  0  0  0  0  0  0  0  0  0  0  0
  190.8320  171.4450  142.2470 C   0  0  1  0  0  3  0  0  0  0  0  0
  190.7340  169.4630  140.7300 O   0  0  0  0  0  1  0  0  0  0  0  0
  194.5010  169.6230  145.6090 C   0  0  1  0  0  3  0  0  0  0  0  0
  196.8740  169.6460  146.6880 C   0  0  0  0  0  2  0  0  0  0  0  0
  195.1880  170.9410  145.5550 C   0  0  0  0  0  0  0  0  0  0  0  0
  194.5570  172.0840  145.2910 C   0  0  0  0  0  3  0  0  0  0  0  0
  192.9240  169.9970  143.7090 C   0  0  0  0  0  0  0  0  0  0  0  0
  193.1490  172.2070  144.8710 C   0  0  0  0  0  3  0  0  0  0  0  0
  192.4040  171.2860  144.2410 C   0  0  0  0  0  0  0  0  0  0  0  0
  191.4660  174.8200  144.8390 C   0  0  0  0  0  2  0  0  0  0  0  0
  190.2370  175.2360  147.8450 O   0  0  0  0  0  1  0  0  0  0  0  0
  190.6060  177.1430  144.8910 N   0  0  0  0  0  2  0  0  0  0  0  0
  186.5780  176.9010  145.9710 C   0  0  0  0  0  0  0  0  0  0  0  0
  187.5970  176.5650  146.8700 O   0  0  0  0  0  0  0  0  0  0  0  0
  188.9830  176.8450  146.6380 C   0  0  2  0  0  3  0  0  0  0  0  0
  188.2710  177.1710  144.2270 C   0  0  0  0  0  2  0  0  0  0  0  0
  189.2720  177.5570  145.3160 C   0  0  2  0  0  3  0  0  0  0  0  0
  186.8640  177.2460  144.7200 C   0  0  0  0  0  3  0  0  0  0  0  0
  190.9750  175.9810  145.7030 C   0  0  1  0  0  3  0  0  0  0  0  0
  189.7950  175.5870  146.5700 C   0  0  1  0  0  3  0  0  0  0  0  0
  185.1570  176.8700  146.4220 C   0  0  0  0  0  2  0  0  0  0  0  0
  184.6980  178.2520  146.8590 C   0  0  0  0  0  2  0  0  0  0  0  0
  183.8770  178.8570  145.8250 N   0  0  0  0  0  1  0  0  0  0  0  0
  1 20  1  0  0  0  0
  1  6  1  6  0  0  0
  3 15  1  0  0  0  0
  4 18  1  0  0  0  0
  5  6  1  0  0  0  0
  5 21  1  1  0  0  0
  7  8  1  0  0  0  0
  8 10  1  0  0  0  0
  9 15  1  0  0  0  0
 10  5  1  0  0  0  0
 11 12  1  0  0  0  0
 11  4  2  0  0  0  0
 12  7  1  6  0  0  0
 12  1  1  0  0  0  0
 13 11  1  0  0  0  0
 14  2  1  6  0  0  0
 14  9  1  0  0  0  0
 16 14  1  0  0  0  0
 16  3  1  0  0  0  0
 17 16  2  0  0  0  0
 18 20  1  0  0  0  0
 18  2  2  0  0  0  0
 19 17  1  0  0  0  0
 20 19  2  0  0  0  0
 23 28  1  0  0  0  0
 23 30  1  0  0  0  0
 24 32  1  0  0  0  0
 24 25  1  0  0  0  0
 26 25  1  6  0  0  0
 27 29  1  0  0  0  0
 28 27  1  6  0  0  0
 28 26  1  0  0  0  0
 29 24  2  0  0  0  0
 30 21  1  6  0  0  0
 30 31  1  0  0  0  0
 31 26  1  0  0  0  0
 31 22  1  1  0  0  0
 32 33  1  0  0  0  0
 34 33  1  0  0  0  0
M  END
>  <MODEL>
4

>  <REMARK>
 VINA RESULT:      -8.0      3.916      6.391
  Name = 
  4 active torsions:
  status: ('A' for Active; 'I' for Inactive)
    1  A    between atoms: C_7  and  C_11
    2  A    between atoms: C_8  and  C_18
    3  A    between atoms: C_11  and  C_15
    4  A    between atoms: C_18  and  C_30
                            x       y       z     vdW  Elec       q    Type
                         _______ _______ _______ _____ _____    ______ ____

>  <TORSDO>
F 4

$$$$
=
 OpenBabel11052420373D

 34 39  0  0  1  0  0  0  0  0999 V2000
  193.4680  176.2160  143.6600 C   0  0  1  0  0  3  0  0  0  0  0  0
  192.7770  174.2080  140.5870 C   0  0  0  0  0  3  0  0  0  0  0  0
  190.4300  171.5420  141.3250 C   0  0  0  0  0  2  0  0  0  0  0  0
  194.7860  175.3020  141.3290 C   0  0  0  0  0  3  0  0  0  0  0  0
  192.9460  176.3090  146.2160 C   0  0  2  0  0  3  0  0  0  0  0  0
  192.7650  176.9280  144.8260 C   0  0  0  0  0  2  0  0  0  0  0  0
  195.5670  175.0530  144.5030 N   0  0  0  0  0  2  0  0  0  0  0  0
  194.7480  174.6590  145.6510 C   0  0  0  0  0  2  0  0  0  0  0  0
  190.9090  172.9840  139.0720 S   0  0  0  0  0  0  0  0  0  0  0  0
  194.3720  175.8500  146.5190 C   0  0  0  0  0  2  0  0  0  0  0  0
  195.5100  175.9440  142.2600 C   0  0  0  0  0  0  0  0  0  0  0  0
  195.0060  176.1320  143.6710 C   0  0  1  0  0  3  0  0  0  0  0  0
  196.7780  176.4020  141.9310 O   0  0  0  0  0  1  0  0  0  0  0  0
  191.3450  173.7890  140.6390 C   0  0  1  0  0  3  0  0  0  0  0  0
  189.8770  171.7550  139.9300 C   0  0  0  0  0  2  0  0  0  0  0  0
  191.0950  172.8040  141.7250 C   0  0  0  0  0  0  0  0  0  0  0  0
  191.3020  173.0680  143.0140 C   0  0  0  0  0  3  0  0  0  0  0  0
  193.4190  174.8040  141.5910 C   0  0  0  0  0  0  0  0  0  0  0  0
  191.9390  174.2860  143.5460 C   0  0  0  0  0  3  0  0  0  0  0  0
  192.8110  175.0890  142.9180 C   0  0  0  0  0  0  0  0  0  0  0  0
  191.8980  175.2340  146.5060 C   0  0  0  0  0  2  0  0  0  0  0  0
  188.9960  174.0890  147.4980 O   0  0  0  0  0  1  0  0  0  0  0  0
  190.5230  177.2370  146.9930 N   0  0  0  0  0  2  0  0  0  0  0  0
  187.0690  176.9080  144.6660 C   0  0  0  0  0  0  0  0  0  0  0  0
  187.3270  176.0240  145.7220 O   0  0  0  0  0  0  0  0  0  0  0  0
  188.3650  176.2260  146.6890 C   0  0  2  0  0  3  0  0  0  0  0  0
  189.2850  177.8860  145.0090 C   0  0  0  0  0  2  0  0  0  0  0  0
  189.1810  177.5020  146.4850 C   0  0  2  0  0  3  0  0  0  0  0  0
  187.9550  177.8410  144.3330 C   0  0  0  0  0  3  0  0  0  0  0  0
  190.6370  175.7870  147.1700 C   0  0  1  0  0  3  0  0  0  0  0  0
  189.3800  175.1230  146.6450 C   0  0  1  0  0  3  0  0  0  0  0  0
  185.7900  176.7990  143.9090 C   0  0  0  0  0  2  0  0  0  0  0  0
  184.9300  178.0350  144.1210 C   0  0  0  0  0  2  0  0  0  0  0  0
  184.5120  178.1210  145.5100 N   0  0  0  0  0  1  0  0  0  0  0  0
  1 12  1  0  0  0  0
  1  6  1  1  0  0  0
  2 18  2  0  0  0  0
  3 16  1  0  0  0  0
  4 18  1  0  0  0  0
  4 11  2  0  0  0  0
  5 21  1  6  0  0  0
  5 10  1  0  0  0  0
  6  5  1  0  0  0  0
  7  8  1  0  0  0  0
  8 10  1  0  0  0  0
  9 15  1  0  0  0  0
  9 14  1  0  0  0  0
 12 11  1  6  0  0  0
 12  7  1  0  0  0  0
 13 11  1  0  0  0  0
 14  2  1  6  0  0  0
 14 16  1  0  0  0  0
 15  3  1  0  0  0  0
 16 17  2  0  0  0  0
 17 19  1  0  0  0  0
 18 20  1  0  0  0  0
 20 19  2  0  0  0  0
 20  1  1  0  0  0  0
 23 30  1  0  0  0  0
 24 25  1  0  0  0  0
 26 25  1  6  0  0  0
 28 27  1  6  0  0  0
 28 26  1  0  0  0  0
 28 23  1  0  0  0  0
 29 24  2  0  0  0  0
 29 27  1  0  0  0  0
 30 21  1  6  0  0  0
 31 26  1  0  0  0  0
 31 30  1  0  0  0  0
 31 22  1  1  0  0  0
 32 33  1  0  0  0  0
 32 24  1  0  0  0  0
 33 34  1  0  0  0  0
M  END
>  <MODEL>
5

>  <REMARK>
 VINA RESULT:      -7.9      2.736      4.542
  Name = 
  4 active torsions:
  status: ('A' for Active; 'I' for Inactive)
    1  A    between atoms: C_7  and  C_11
    2  A    between atoms: C_8  and  C_18
    3  A    between atoms: C_11  and  C_15
    4  A    between atoms: C_18  and  C_30
                            x       y       z     vdW  Elec       q    Type
                         _______ _______ _______ _____ _____    ______ ____

>  <TORSDO>
F 4

$$$$
=
 OpenBabel11052420373D

 34 39  0  0  1  0  0  0  0  0999 V2000
  191.8850  175.4490  146.4810 C   0  0  1  0  0  3  0  0  0  0  0  0
  188.9170  177.5310  145.5820 C   0  0  0  0  0  3  0  0  0  0  0  0
  188.8550  178.1600  142.0100 C   0  0  0  0  0  2  0  0  0  0  0  0
  190.3100  177.5460  147.5440 C   0  0  0  0  0  3  0  0  0  0  0  0
  194.0280  174.3700  145.4520 C   0  0  2  0  0  3  0  0  0  0  0  0
  192.6410  174.1750  146.0730 C   0  0  0  0  0  2  0  0  0  0  0  0
  193.5470  177.2690  147.1090 N   0  0  0  0  0  2  0  0  0  0  0  0
  194.3100  176.8120  145.9470 C   0  0  0  0  0  2  0  0  0  0  0  0
  186.8770  177.9150  143.8580 S   0  0  0  0  0  0  0  0  0  0  0  0
  194.8880  175.4210  146.1550 C   0  0  0  0  0  2  0  0  0  0  0  0
  191.4060  177.1670  148.2200 C   0  0  0  0  0  0  0  0  0  0  0  0
  192.4960  176.3460  147.5750 C   0  0  1  0  0  3  0  0  0  0  0  0
  191.5660  177.5850  149.5340 O   0  0  0  0  0  1  0  0  0  0  0  0
  188.4370  177.0710  144.2460 C   0  0  1  0  0  3  0  0  0  0  0  0
  187.3440  178.0850  142.1080 C   0  0  0  0  0  2  0  0  0  0  0  0
  189.4010  177.4080  143.1640 C   0  0  0  0  0  0  0  0  0  0  0  0
  190.6500  176.9480  143.1280 C   0  0  0  0  0  3  0  0  0  0  0  0
  190.0520  177.1240  146.1500 C   0  0  0  0  0  0  0  0  0  0  0  0
  191.3100  176.1780  144.1990 C   0  0  0  0  0  3  0  0  0  0  0  0
  191.0200  176.1940  145.5090 C   0  0  0  0  0  0  0  0  0  0  0  0
  193.9570  174.5700  143.9390 C   0  0  0  0  0  2  0  0  0  0  0  0
  193.3050  171.6420  142.6270 O   0  0  0  0  0  1  0  0  0  0  0  0
  196.1590  173.6030  143.3410 N   0  0  0  0  0  2  0  0  0  0  0  0
  196.4080  169.9130  145.2840 C   0  0  0  0  0  0  0  0  0  0  0  0
  195.4920  170.1340  144.2470 O   0  0  0  0  0  0  0  0  0  0  0  0
  195.5180  171.2880  143.3990 C   0  0  2  0  0  3  0  0  0  0  0  0
  197.0070  172.2830  145.1930 C   0  0  0  0  0  2  0  0  0  0  0  0
  196.6430  172.2760  143.7090 C   0  0  2  0  0  3  0  0  0  0  0  0
  197.1830  170.8990  145.7240 C   0  0  0  0  0  3  0  0  0  0  0  0
  194.7090  173.4960  143.1540 C   0  0  1  0  0  3  0  0  0  0  0  0
  194.2630  172.0970  143.5330 C   0  0  1  0  0  3  0  0  0  0  0  0
  196.5140  168.5600  145.9000 C   0  0  0  0  0  2  0  0  0  0  0  0
  196.0810  168.5940  147.3570 C   0  0  0  0  0  2  0  0  0  0  0  0
  197.1950  168.2350  148.2180 N   0  0  0  0  0  1  0  0  0  0  0  0
  1  6  1  6  0  0  0
  1 12  1  0  0  0  0
  2 18  2  0  0  0  0
  3 15  1  0  0  0  0
  3 16  1  0  0  0  0
  4 11  2  0  0  0  0
  5 21  1  6  0  0  0
  5  6  1  0  0  0  0
  5 10  1  0  0  0  0
  8 10  1  0  0  0  0
  8  7  1  0  0  0  0
  9 14  1  0  0  0  0
 11 13  1  0  0  0  0
 12  7  1  6  0  0  0
 12 11  1  0  0  0  0
 14  2  1  1  0  0  0
 15  9  1  0  0  0  0
 16 14  1  0  0  0  0
 17 16  2  0  0  0  0
 17 19  1  0  0  0  0
 18  4  1  0  0  0  0
 19 20  2  0  0  0  0
 20 18  1  0  0  0  0
 20  1  1  0  0  0  0
 23 28  1  0  0  0  0
 24 29  2  0  0  0  0
 24 32  1  0  0  0  0
 25 24  1  0  0  0  0
 26 31  1  0  0  0  0
 26 28  1  0  0  0  0
 26 25  1  1  0  0  0
 27 29  1  0  0  0  0
 28 27  1  1  0  0  0
 30 23  1  0  0  0  0
 30 31  1  0  0  0  0
 30 21  1  1  0  0  0
 31 22  1  6  0  0  0
 32 33  1  0  0  0  0
 33 34  1  0  0  0  0
M  END
>  <MODEL>
6

>  <REMARK>
 VINA RESULT:      -7.6      4.929      9.909
  Name = 
  4 active torsions:
  status: ('A' for Active; 'I' for Inactive)
    1  A    between atoms: C_7  and  C_11
    2  A    between atoms: C_8  and  C_18
    3  A    between atoms: C_11  and  C_15
    4  A    between atoms: C_18  and  C_30
                            x       y       z     vdW  Elec       q    Type
                         _______ _______ _______ _____ _____    ______ ____

>  <TORSDO>
F 4

$$$$
=
 OpenBabel11052420373D

 34 39  0  0  1  0  0  0  0  0999 V2000
  188.1430  176.0760  145.5090 C   0  0  1  0  0  3  0  0  0  0  0  0
  185.2730  178.0410  144.1490 C   0  0  0  0  0  3  0  0  0  0  0  0
  185.5700  178.3780  140.5490 C   0  0  0  0  0  2  0  0  0  0  0  0
  186.4600  178.2320  146.2330 C   0  0  0  0  0  3  0  0  0  0  0  0
  190.3840  174.9430  144.7920 C   0  0  2  0  0  3  0  0  0  0  0  0
  188.9410  174.7820  145.2840 C   0  0  0  0  0  2  0  0  0  0  0  0
  189.7250  177.9600  146.1500 N   0  0  0  0  0  2  0  0  0  0  0  0
  190.6040  177.4210  145.1110 C   0  0  0  0  0  2  0  0  0  0  0  0
  183.4160  178.2590  142.2020 S   0  0  0  0  0  0  0  0  0  0  0  0
  191.1640  176.0580  145.4890 C   0  0  0  0  0  2  0  0  0  0  0  0
  187.4830  177.9230  147.0450 C   0  0  0  0  0  0  0  0  0  0  0  0
  188.6370  177.0660  146.5810 C   0  0  1  0  0  3  0  0  0  0  0  0
  187.5070  178.4470  148.3290 O   0  0  0  0  0  1  0  0  0  0  0  0
  184.9320  177.4690  142.8130 C   0  0  1  0  0  3  0  0  0  0  0  0
  184.0570  178.2930  140.5000 C   0  0  0  0  0  2  0  0  0  0  0  0
  185.9990  177.7290  141.8100 C   0  0  0  0  0  0  0  0  0  0  0  0
  187.2480  177.2830  141.9370 C   0  0  0  0  0  3  0  0  0  0  0  0
  186.3460  177.6960  144.8590 C   0  0  0  0  0  0  0  0  0  0  0  0
  187.7990  176.6110  143.1280 C   0  0  0  0  0  3  0  0  0  0  0  0
  187.3770  176.7280  144.3960 C   0  0  0  0  0  0  0  0  0  0  0  0
  190.4650  175.0200  143.2680 C   0  0  0  0  0  2  0  0  0  0  0  0
  191.9740  172.1220  143.4870 O   0  0  0  0  0  1  0  0  0  0  0  0
  192.6970  175.3520  142.2430 N   0  0  0  0  0  2  0  0  0  0  0  0
  195.5100  174.2400  145.1250 C   0  0  0  0  0  0  0  0  0  0  0  0
  194.6570  173.2990  144.5340 O   0  0  0  0  0  0  0  0  0  0  0  0
  193.8420  173.5780  143.3890 C   0  0  2  0  0  3  0  0  0  0  0  0
  194.2950  176.0080  143.9490 C   0  0  0  0  0  2  0  0  0  0  0  0
  193.9800  174.9990  142.8440 C   0  0  2  0  0  3  0  0  0  0  0  0
  195.4020  175.5320  144.8300 C   0  0  0  0  0  3  0  0  0  0  0  0
  191.7210  174.3590  142.6990 C   0  0  1  0  0  3  0  0  0  0  0  0
  192.3840  173.4380  143.7040 C   0  0  1  0  0  3  0  0  0  0  0  0
  196.5480  173.7890  146.0950 C   0  0  0  0  0  2  0  0  0  0  0  0
  196.8070  172.2970  145.9540 C   0  0  0  0  0  2  0  0  0  0  0  0
  197.7450  172.0510  144.8720 N   0  0  0  0  0  1  0  0  0  0  0  0
  1  6  1  6  0  0  0
  1 12  1  0  0  0  0
  2 18  2  0  0  0  0
  3 16  1  0  0  0  0
  4 11  2  0  0  0  0
  5 21  1  6  0  0  0
  5  6  1  0  0  0  0
  5 10  1  0  0  0  0
  8 10  1  0  0  0  0
  8  7  1  0  0  0  0
  9 14  1  0  0  0  0
 11 13  1  0  0  0  0
 12  7  1  6  0  0  0
 12 11  1  0  0  0  0
 14  2  1  1  0  0  0
 15  3  1  0  0  0  0
 15  9  1  0  0  0  0
 16 17  2  0  0  0  0
 16 14  1  0  0  0  0
 17 19  1  0  0  0  0
 18  4  1  0  0  0  0
 19 20  2  0  0  0  0
 20 18  1  0  0  0  0
 20  1  1  0  0  0  0
 23 30  1  0  0  0  0
 23 28  1  0  0  0  0
 24 32  1  0  0  0  0
 25 24  1  0  0  0  0
 26 31  1  0  0  0  0
 26 25  1  1  0  0  0
 27 29  1  0  0  0  0
 28 26  1  0  0  0  0
 28 27  1  1  0  0  0
 29 24  2  0  0  0  0
 30 21  1  1  0  0  0
 30 31  1  0  0  0  0
 31 22  1  6  0  0  0
 33 32  1  0  0  0  0
 34 33  1  0  0  0  0
M  END
>  <MODEL>
7

>  <REMARK>
 VINA RESULT:      -7.6      3.429      8.619
  Name = 
  4 active torsions:
  status: ('A' for Active; 'I' for Inactive)
    1  A    between atoms: C_7  and  C_11
    2  A    between atoms: C_8  and  C_18
    3  A    between atoms: C_11  and  C_15
    4  A    between atoms: C_18  and  C_30
                            x       y       z     vdW  Elec       q    Type
                         _______ _______ _______ _____ _____    ______ ____

>  <TORSDO>
F 4

$$$$
=
 OpenBabel11052420373D

 34 39  0  0  1  0  0  0  0  0999 V2000
  188.1930  176.0210  146.2310 C   0  0  1  0  0  3  0  0  0  0  0  0
  185.8840  177.8930  143.9690 C   0  0  0  0  0  3  0  0  0  0  0  0
  187.0650  177.7250  140.5440 C   0  0  0  0  0  2  0  0  0  0  0  0
  186.5420  178.3190  146.2440 C   0  0  0  0  0  3  0  0  0  0  0  0
  190.4540  174.7150  146.2390 C   0  0  2  0  0  3  0  0  0  0  0  0
  188.9280  174.6790  146.3730 C   0  0  0  0  0  2  0  0  0  0  0  0
  189.7030  177.9120  147.0110 N   0  0  0  0  0  2  0  0  0  0  0  0
  190.7660  177.2030  146.2970 C   0  0  0  0  0  2  0  0  0  0  0  0
  184.5730  177.9160  141.6100 S   0  0  0  0  0  0  0  0  0  0  0  0
  191.1200  175.8830  146.9670 C   0  0  0  0  0  2  0  0  0  0  0  0
  187.3140  178.0840  147.3160 C   0  0  0  0  0  0  0  0  0  0  0  0
  188.4820  177.1280  147.2640 C   0  0  1  0  0  3  0  0  0  0  0  0
  187.0650  178.7780  148.4930 O   0  0  0  0  0  1  0  0  0  0  0  0
  185.8370  177.1580  142.6710 C   0  0  1  0  0  3  0  0  0  0  0  0
  185.6070  177.6930  140.1300 C   0  0  0  0  0  2  0  0  0  0  0  0
  187.1300  177.2370  141.9410 C   0  0  0  0  0  0  0  0  0  0  0  0
  188.2760  176.7640  142.4290 C   0  0  0  0  0  3  0  0  0  0  0  0
  186.7260  177.6060  144.9620 C   0  0  0  0  0  0  0  0  0  0  0  0
  188.4730  176.2400  143.7930 C   0  0  0  0  0  3  0  0  0  0  0  0
  187.7670  176.5450  144.8920 C   0  0  0  0  0  0  0  0  0  0  0  0
  190.9060  174.5810  144.7860 C   0  0  0  0  0  2  0  0  0  0  0  0
  192.8500  172.5620  143.0920 O   0  0  0  0  0  1  0  0  0  0  0  0
  189.4870  172.6420  144.1780 N   0  0  0  0  0  2  0  0  0  0  0  0
  189.6630  172.2910  140.0190 C   0  0  0  0  0  0  0  0  0  0  0  0
  190.7850  172.0480  140.8220 O   0  0  0  0  0  0  0  0  0  0  0  0
  190.7270  171.9290  142.2490 C   0  0  2  0  0  3  0  0  0  0  0  0
  188.4540  173.0250  142.0150 C   0  0  0  0  0  2  0  0  0  0  0  0
  189.3270  172.0800  142.8410 C   0  0  2  0  0  3  0  0  0  0  0  0
  188.5210  172.7050  140.5590 C   0  0  0  0  0  3  0  0  0  0  0  0
  190.8610  173.1410  144.2730 C   0  0  1  0  0  3  0  0  0  0  0  0
  191.5350  172.9960  142.9230 C   0  0  1  0  0  3  0  0  0  0  0  0
  189.7510  172.0830  138.5460 C   0  0  0  0  0  2  0  0  0  0  0  0
  189.9430  173.4070  137.8230 C   0  0  0  0  0  2  0  0  0  0  0  0
  191.3440  173.7900  137.8450 N   0  0  0  0  0  1  0  0  0  0  0  0
  1  6  1  6  0  0  0
  1 12  1  0  0  0  0
  2 18  2  0  0  0  0
  3 16  1  0  0  0  0
  4 11  2  0  0  0  0
  5 21  1  6  0  0  0
  5  6  1  0  0  0  0
  5 10  1  0  0  0  0
  8 10  1  0  0  0  0
  8  7  1  0  0  0  0
  9 14  1  0  0  0  0
 11 13  1  0  0  0  0
 12  7  1  6  0  0  0
 12 11  1  0  0  0  0
 14  2  1  1  0  0  0
 15  3  1  0  0  0  0
 15  9  1  0  0  0  0
 16 17  2  0  0  0  0
 16 14  1  0  0  0  0
 17 19  1  0  0  0  0
 18  4  1  0  0  0  0
 19 20  2  0  0  0  0
 20 18  1  0  0  0  0
 20  1  1  0  0  0  0
 23 30  1  0  0  0  0
 24 29  2  0  0  0  0
 24 25  1  0  0  0  0
 26 25  1  6  0  0  0
 26 28  1  0  0  0  0
 26 31  1  0  0  0  0
 28 27  1  6  0  0  0
 28 23  1  0  0  0  0
 29 27  1  0  0  0  0
 30 21  1  6  0  0  0
 31 22  1  1  0  0  0
 31 30  1  0  0  0  0
 32 24  1  0  0  0  0
 33 34  1  0  0  0  0
 33 32  1  0  0  0  0
M  END
>  <MODEL>
8

>  <REMARK>
 VINA RESULT:      -7.6      3.346      6.750
  Name = 
  4 active torsions:
  status: ('A' for Active; 'I' for Inactive)
    1  A    between atoms: C_7  and  C_11
    2  A    between atoms: C_8  and  C_18
    3  A    between atoms: C_11  and  C_15
    4  A    between atoms: C_18  and  C_30
                            x       y       z     vdW  Elec       q    Type
                         _______ _______ _______ _____ _____    ______ ____

>  <TORSDO>
F 4

$$$$
=
 OpenBabel11052420373D

 34 39  0  0  1  0  0  0  0  0999 V2000
  189.8730  175.2700  145.1990 C   0  0  1  0  0  3  0  0  0  0  0  0
  187.3840  177.5780  146.7580 C   0  0  0  0  0  3  0  0  0  0  0  0
  185.1200  178.8780  144.2390 C   0  0  0  0  0  2  0  0  0  0  0  0
  189.6960  177.1750  147.2840 C   0  0  0  0  0  3  0  0  0  0  0  0
  190.6480  174.3400  142.8860 C   0  0  2  0  0  3  0  0  0  0  0  0
  189.9830  174.0740  144.2410 C   0  0  0  0  0  2  0  0  0  0  0  0
  191.7940  176.8830  144.7830 N   0  0  0  0  0  2  0  0  0  0  0  0
  191.5440  176.6330  143.3620 C   0  0  0  0  0  2  0  0  0  0  0  0
  184.8000  178.3480  146.8850 S   0  0  0  0  0  0  0  0  0  0  0  0
  191.9030  175.2100  142.9630 C   0  0  0  0  0  2  0  0  0  0  0  0
  190.8970  176.6400  147.0110 C   0  0  0  0  0  0  0  0  0  0  0  0
  191.1720  175.9230  145.7110 C   0  0  1  0  0  3  0  0  0  0  0  0
  191.9290  176.7940  147.9260 O   0  0  0  0  0  1  0  0  0  0  0  0
  186.0910  177.3970  146.0330 C   0  0  1  0  0  3  0  0  0  0  0  0
  184.0430  178.8340  145.3040 C   0  0  0  0  0  2  0  0  0  0  0  0
  186.1630  177.9030  144.6370 C   0  0  0  0  0  0  0  0  0  0  0  0
  187.0050  177.4190  143.7250 C   0  0  0  0  0  3  0  0  0  0  0  0
  188.5390  177.0350  146.3750 C   0  0  0  0  0  0  0  0  0  0  0  0
  188.0750  176.4390  143.9850 C   0  0  0  0  0  3  0  0  0  0  0  0
  188.7080  176.2140  145.1460 C   0  0  0  0  0  0  0  0  0  0  0  0
  189.6460  174.8270  141.8410 C   0  0  0  0  0  2  0  0  0  0  0  0
  189.6350  171.5540  141.9060 O   0  0  0  0  0  1  0  0  0  0  0  0
  188.2080  174.1270  139.9470 N   0  0  0  0  0  2  0  0  0  0  0  0
  190.5240  171.6000  137.5610 C   0  0  0  0  0  0  0  0  0  0  0  0
  190.1260  171.2260  138.8510 O   0  0  0  0  0  0  0  0  0  0  0  0
  189.1520  171.9430  139.6180 C   0  0  2  0  0  3  0  0  0  0  0  0
  189.5630  173.8140  137.9580 C   0  0  0  0  0  2  0  0  0  0  0  0
  188.5610  173.1620  138.9110 C   0  0  2  0  0  3  0  0  0  0  0  0
  190.2270  172.8040  137.0820 C   0  0  0  0  0  3  0  0  0  0  0  0
  188.8630  173.6910  141.1830 C   0  0  1  0  0  3  0  0  0  0  0  0
  189.7420  172.4940  140.8810 C   0  0  1  0  0  3  0  0  0  0  0  0
  191.2880  170.6370  136.7160 C   0  0  0  0  0  2  0  0  0  0  0  0
  192.7290  171.0910  136.5500 C   0  0  0  0  0  2  0  0  0  0  0  0
  193.3610  171.2360  137.8490 N   0  0  0  0  0  1  0  0  0  0  0  0
  1  6  1  6  0  0  0
  1 12  1  0  0  0  0
  3 16  1  0  0  0  0
  3 15  1  0  0  0  0
  5 21  1  6  0  0  0
  5 10  1  0  0  0  0
  5  6  1  0  0  0  0
  8  7  1  0  0  0  0
 10  8  1  0  0  0  0
 11  4  2  0  0  0  0
 11 13  1  0  0  0  0
 12  7  1  6  0  0  0
 12 11  1  0  0  0  0
 14  2  1  1  0  0  0
 14  9  1  0  0  0  0
 15  9  1  0  0  0  0
 16 14  1  0  0  0  0
 17 19  1  0  0  0  0
 17 16  2  0  0  0  0
 18  2  2  0  0  0  0
 18  4  1  0  0  0  0
 19 20  2  0  0  0  0
 20  1  1  0  0  0  0
 20 18  1  0  0  0  0
 23 30  1  0  0  0  0
 24 25  1  0  0  0  0
 26 25  1  6  0  0  0
 26 31  1  0  0  0  0
 28 27  1  6  0  0  0
 28 26  1  0  0  0  0
 28 23  1  0  0  0  0
 29 24  2  0  0  0  0
 29 27  1  0  0  0  0
 30 21  1  6  0  0  0
 31 30  1  0  0  0  0
 31 22  1  1  0  0  0
 32 24  1  0  0  0  0
 33 32  1  0  0  0  0
 33 34  1  0  0  0  0
M  END
>  <MODEL>
9

>  <REMARK>
 VINA RESULT:      -7.5      3.905      7.546
  Name = 
  4 active torsions:
  status: ('A' for Active; 'I' for Inactive)
    1  A    between atoms: C_7  and  C_11
    2  A    between atoms: C_8  and  C_18
    3  A    between atoms: C_11  and  C_15
    4  A    between atoms: C_18  and  C_30
                            x       y       z     vdW  Elec       q    Type
                         _______ _______ _______ _____ _____    ______ ____

>  <TORSDO>
F 4

$$$$
