=
 OpenBabel11052417483D

 31 36  0  0  1  0  0  0  0  0999 V2000
  191.2910  170.9690  142.9830 C   0  0  1  0  0  3  0  0  0  0  0  0
  192.8100  173.9100  144.9960 C   0  0  1  0  0  3  0  0  0  0  0  0
  194.1940  173.4190  145.3760 C   0  0  0  0  0  0  0  0  0  0  0  0
  195.6050  171.5320  144.6170 C   0  0  0  0  0  3  0  0  0  0  0  0
  191.8110  172.8050  144.6080 C   0  0  2  0  0  3  0  0  0  0  0  0
  189.8960  171.5460  142.7600 C   0  0  0  0  0  2  0  0  0  0  0  0
  194.4810  171.9520  145.5010 C   0  0  0  0  0  2  0  0  0  0  0  0
  190.8740  175.3200  145.8750 C   0  0  2  0  0  3  0  0  0  0  0  0
  191.7380  170.3000  141.7750 N   0  0  0  0  0  1  0  0  0  0  0  0
  194.6670  175.7810  145.8610 C   0  0  0  0  0  2  0  0  0  0  0  0
  196.8440  171.9970  144.7590 C   0  0  0  0  0  3  0  0  0  0  0  0
  189.9310  174.1620  145.5720 C   0  0  0  0  0  2  0  0  0  0  0  0
  192.2870  174.7930  146.1490 C   0  0  2  0  0  3  0  0  0  0  0  0
  192.2710  172.0840  143.3390 C   0  0  0  0  0  2  0  0  0  0  0  0
  197.2470  173.0320  145.7300 C   0  0  0  0  0  3  0  0  0  0  0  0
  190.4190  173.4030  144.3500 C   0  0  2  0  0  3  0  0  0  0  0  0
  189.4280  172.2960  144.0050 C   0  0  0  0  0  2  0  0  0  0  0  0
  193.2600  175.9500  146.4600 C   0  0  0  0  0  2  0  0  0  0  0  0
  195.0900  174.3400  145.7870 C   0  0  0  0  0  0  0  0  0  0  0  0
  196.4840  174.0370  146.1770 C   0  0  0  0  0  3  0  0  0  0  0  0
  190.2290  176.2230  147.3210 S   0  0  0  0  0  0  0  0  0  0  0  0
  184.6480  179.3450  144.9720 C   0  0  0  0  0  2  0  0  0  0  0  0
  186.6880  177.8050  146.2760 C   0  0  0  0  0  0  0  0  0  0  0  0
  188.0780  177.8720  144.2980 C   0  0  0  0  0  3  0  0  0  0  0  0
  189.1130  177.2810  145.0230 C   0  0  0  0  0  3  0  0  0  0  0  0
  184.2450  178.3670  146.0660 C   0  0  0  0  0  2  0  0  0  0  0  0
  188.9130  176.9720  146.3700 C   0  0  0  0  0  0  0  0  0  0  0  0
  185.4210  178.1410  147.0130 C   0  0  0  0  0  2  0  0  0  0  0  0
  186.8610  178.1560  144.9200 C   0  0  0  0  0  0  0  0  0  0  0  0
  187.7180  177.2400  146.9620 N   0  0  0  0  0  0  0  0  0  0  0  0
  185.7360  178.7230  144.1010 C   0  0  0  0  0  2  0  0  0  0  0  0
  1  9  1  6  0  0  0
  1 14  1  0  0  0  0
  2  3  1  1  0  0  0
  2 13  1  0  0  0  0
  3  7  1  0  0  0  0
  3 19  2  0  0  0  0
  4 11  2  0  0  0  0
  4  7  1  0  0  0  0
  5 14  1  6  0  0  0
  5  2  1  0  0  0  0
  6  1  1  0  0  0  0
  6 17  1  0  0  0  0
  8 13  1  0  0  0  0
  8 21  1  1  0  0  0
 10 18  1  0  0  0  0
 11 15  1  0  0  0  0
 12  8  1  0  0  0  0
 13 18  1  6  0  0  0
 15 20  2  0  0  0  0
 16 17  1  1  0  0  0
 16  5  1  0  0  0  0
 16 12  1  0  0  0  0
 19 10  1  0  0  0  0
 19 20  1  0  0  0  0
 22 26  1  0  0  0  0
 23 30  1  0  0  0  0
 23 28  1  0  0  0  0
 24 29  1  0  0  0  0
 24 25  2  0  0  0  0
 25 27  1  0  0  0  0
 26 28  1  0  0  0  0
 27 30  2  0  0  0  0
 27 21  1  0  0  0  0
 29 23  2  0  0  0  0
 31 29  1  0  0  0  0
 31 22  1  0  0  0  0
M  END
>  <MODEL>
1

>  <REMARK>
 VINA RESULT:      -9.8      0.000      0.000
  Name = 
  2 active torsions:
  status: ('A' for Active; 'I' for Inactive)
    1  A    between atoms: C_9  and  S_23
    2  A    between atoms: C_15  and  S_23
                            x       y       z     vdW  Elec       q    Type
                         _______ _______ _______ _____ _____    ______ ____

>  <TORSDO>
F 2

$$$$
=
 OpenBabel11052417483D

 31 36  0  0  1  0  0  0  0  0999 V2000
  185.0800  178.1200  141.1430 C   0  0  1  0  0  3  0  0  0  0  0  0
  187.3690  177.5010  144.2060 C   0  0  1  0  0  3  0  0  0  0  0  0
  186.5890  178.0820  145.3710 C   0  0  0  0  0  0  0  0  0  0  0  0
  184.2380  178.8040  145.6620 C   0  0  0  0  0  3  0  0  0  0  0  0
  186.9410  178.0110  142.8180 C   0  0  2  0  0  3  0  0  0  0  0  0
  186.0130  177.5940  140.0560 C   0  0  0  0  0  2  0  0  0  0  0  0
  185.5890  179.1800  145.1560 C   0  0  0  0  0  2  0  0  0  0  0  0
  189.7500  177.2090  143.3400 C   0  0  2  0  0  3  0  0  0  0  0  0
  183.7210  177.7000  140.8600 N   0  0  0  0  0  1  0  0  0  0  0  0
  188.1330  176.7860  146.7760 C   0  0  0  0  0  2  0  0  0  0  0  0
  183.9960  178.5550  146.9460 C   0  0  0  0  0  3  0  0  0  0  0  0
  189.3110  177.8130  142.0130 C   0  0  0  0  0  2  0  0  0  0  0  0
  188.8700  177.7360  144.4780 C   0  0  2  0  0  3  0  0  0  0  0  0
  185.5050  177.5820  142.5070 C   0  0  0  0  0  2  0  0  0  0  0  0
  185.0220  178.5300  148.0050 C   0  0  0  0  0  3  0  0  0  0  0  0
  187.8650  177.4450  141.7290 C   0  0  2  0  0  3  0  0  0  0  0  0
  187.4570  177.9850  140.3620 C   0  0  0  0  0  2  0  0  0  0  0  0
  189.2990  177.1360  145.8340 C   0  0  0  0  0  2  0  0  0  0  0  0
  186.9650  177.7200  146.6150 C   0  0  0  0  0  0  0  0  0  0  0  0
  186.3040  178.1760  147.8570 C   0  0  0  0  0  3  0  0  0  0  0  0
  191.4980  177.6430  143.6190 S   0  0  0  0  0  0  0  0  0  0  0  0
  194.2120  171.7250  145.6250 C   0  0  0  0  0  2  0  0  0  0  0  0
  193.5380  174.3760  144.7570 C   0  0  0  0  0  0  0  0  0  0  0  0
  191.4800  173.5850  143.7620 C   0  0  0  0  0  3  0  0  0  0  0  0
  191.1080  174.9080  143.5190 C   0  0  0  0  0  3  0  0  0  0  0  0
  195.3340  172.7090  145.3260 C   0  0  0  0  0  2  0  0  0  0  0  0
  191.9610  175.9410  143.9120 C   0  0  0  0  0  0  0  0  0  0  0  0
  194.8240  174.1380  145.4990 C   0  0  0  0  0  2  0  0  0  0  0  0
  192.6910  173.3050  144.3990 C   0  0  0  0  0  0  0  0  0  0  0  0
  193.1440  175.6560  144.5180 N   0  0  0  0  0  0  0  0  0  0  0  0
  193.1070  171.8730  144.5820 C   0  0  0  0  0  2  0  0  0  0  0  0
  1  9  1  6  0  0  0
  1 14  1  0  0  0  0
  2 13  1  0  0  0  0
  2  3  1  1  0  0  0
  3 19  2  0  0  0  0
  4 11  2  0  0  0  0
  5 14  1  6  0  0  0
  5  2  1  0  0  0  0
  6 17  1  0  0  0  0
  6  1  1  0  0  0  0
  7  3  1  0  0  0  0
  7  4  1  0  0  0  0
  8 21  1  1  0  0  0
  8 13  1  0  0  0  0
 11 15  1  0  0  0  0
 12  8  1  0  0  0  0
 13 18  1  1  0  0  0
 16 17  1  6  0  0  0
 16 12  1  0  0  0  0
 16  5  1  0  0  0  0
 18 10  1  0  0  0  0
 19 10  1  0  0  0  0
 19 20  1  0  0  0  0
 20 15  2  0  0  0  0
 21 27  1  0  0  0  0
 23 28  1  0  0  0  0
 24 29  1  0  0  0  0
 25 24  2  0  0  0  0
 25 27  1  0  0  0  0
 26 28  1  0  0  0  0
 26 22  1  0  0  0  0
 27 30  2  0  0  0  0
 29 31  1  0  0  0  0
 29 23  2  0  0  0  0
 30 23  1  0  0  0  0
 31 22  1  0  0  0  0
M  END
>  <MODEL>
2

>  <REMARK>
 VINA RESULT:      -9.5      2.538      8.776
  Name = 
  2 active torsions:
  status: ('A' for Active; 'I' for Inactive)
    1  A    between atoms: C_9  and  S_23
    2  A    between atoms: C_15  and  S_23
                            x       y       z     vdW  Elec       q    Type
                         _______ _______ _______ _____ _____    ______ ____

>  <TORSDO>
F 2

$$$$
=
 OpenBabel11052417483D

 31 36  0  0  1  0  0  0  0  0999 V2000
  191.3340  170.9300  142.9760 C   0  0  1  0  0  3  0  0  0  0  0  0
  192.8040  173.9150  144.9600 C   0  0  1  0  0  3  0  0  0  0  0  0
  194.1800  173.4340  145.3820 C   0  0  0  0  0  0  0  0  0  0  0  0
  195.6090  171.5320  144.6960 C   0  0  0  0  0  3  0  0  0  0  0  0
  191.8150  172.8010  144.5730 C   0  0  2  0  0  3  0  0  0  0  0  0
  189.9450  171.5010  142.7080 C   0  0  0  0  0  2  0  0  0  0  0  0
  194.4650  171.9700  145.5460 C   0  0  0  0  0  2  0  0  0  0  0  0
  190.8490  175.3420  145.7640 C   0  0  2  0  0  3  0  0  0  0  0  0
  191.8090  170.2360  141.7930 N   0  0  0  0  0  1  0  0  0  0  0  0
  194.6400  175.8060  145.8270 C   0  0  0  0  0  2  0  0  0  0  0  0
  196.8440  172.0010  144.8570 C   0  0  0  0  0  3  0  0  0  0  0  0
  189.9140  174.1770  145.4640 C   0  0  0  0  0  2  0  0  0  0  0  0
  192.2550  174.8220  146.0810 C   0  0  2  0  0  3  0  0  0  0  0  0
  192.3050  172.0530  143.3310 C   0  0  0  0  0  2  0  0  0  0  0  0
  197.2240  173.0570  145.8150 C   0  0  0  0  0  3  0  0  0  0  0  0
  190.4300  173.3920  144.2700 C   0  0  2  0  0  3  0  0  0  0  0  0
  189.4470  172.2770  143.9250 C   0  0  0  0  0  2  0  0  0  0  0  0
  193.2200  175.9860  146.3900 C   0  0  0  0  0  2  0  0  0  0  0  0
  195.0660  174.3640  145.7950 C   0  0  0  0  0  0  0  0  0  0  0  0
  196.4510  174.0710  146.2220 C   0  0  0  0  0  3  0  0  0  0  0  0
  190.1700  176.2750  147.1740 S   0  0  0  0  0  0  0  0  0  0  0  0
  185.2840  177.8190  142.6850 C   0  0  0  0  0  2  0  0  0  0  0  0
  187.6120  177.5070  144.3330 C   0  0  0  0  0  0  0  0  0  0  0  0
  186.2600  176.7600  146.1950 C   0  0  0  0  0  3  0  0  0  0  0  0
  187.4250  176.4530  146.8980 C   0  0  0  0  0  3  0  0  0  0  0  0
  186.4960  178.7000  142.4200 C   0  0  0  0  0  2  0  0  0  0  0  0
  188.6650  176.6720  146.2940 C   0  0  0  0  0  0  0  0  0  0  0  0
  187.7590  178.0010  142.9210 C   0  0  0  0  0  2  0  0  0  0  0  0
  186.3400  177.2750  144.8990 C   0  0  0  0  0  0  0  0  0  0  0  0
  188.7310  177.1870  145.0380 N   0  0  0  0  0  0  0  0  0  0  0  0
  185.0750  177.6700  144.1900 C   0  0  0  0  0  2  0  0  0  0  0  0
  1  9  1  6  0  0  0
  1 14  1  0  0  0  0
  2  3  1  1  0  0  0
  2 13  1  0  0  0  0
  3  7  1  0  0  0  0
  3 19  2  0  0  0  0
  4 11  2  0  0  0  0
  4  7  1  0  0  0  0
  5 14  1  6  0  0  0
  5  2  1  0  0  0  0
  6  1  1  0  0  0  0
  6 17  1  0  0  0  0
  8 13  1  0  0  0  0
  8 21  1  1  0  0  0
 10 18  1  0  0  0  0
 11 15  1  0  0  0  0
 12  8  1  0  0  0  0
 13 18  1  6  0  0  0
 15 20  2  0  0  0  0
 16 17  1  1  0  0  0
 16  5  1  0  0  0  0
 16 12  1  0  0  0  0
 19 10  1  0  0  0  0
 19 20  1  0  0  0  0
 22 31  1  0  0  0  0
 23 29  2  0  0  0  0
 23 30  1  0  0  0  0
 24 25  2  0  0  0  0
 26 22  1  0  0  0  0
 26 28  1  0  0  0  0
 27 25  1  0  0  0  0
 27 21  1  0  0  0  0
 28 23  1  0  0  0  0
 29 24  1  0  0  0  0
 30 27  2  0  0  0  0
 31 29  1  0  0  0  0
M  END
>  <MODEL>
3

>  <REMARK>
 VINA RESULT:      -9.3      0.862      1.568
  Name = 
  2 active torsions:
  status: ('A' for Active; 'I' for Inactive)
    1  A    between atoms: C_9  and  S_23
    2  A    between atoms: C_15  and  S_23
                            x       y       z     vdW  Elec       q    Type
                         _______ _______ _______ _____ _____    ______ ____

>  <TORSDO>
F 2

$$$$
=
 OpenBabel11052417483D

 31 36  0  0  1  0  0  0  0  0999 V2000
  189.0370  174.2470  141.0460 C   0  0  1  0  0  3  0  0  0  0  0  0
  188.1670  175.8550  144.4620 C   0  0  1  0  0  3  0  0  0  0  0  0
  187.4430  177.1360  144.0910 C   0  0  0  0  0  0  0  0  0  0  0  0
  186.4480  177.9890  141.9910 C   0  0  0  0  0  3  0  0  0  0  0  0
  189.0350  175.2510  143.3430 C   0  0  2  0  0  3  0  0  0  0  0  0
  189.8340  173.0510  141.5580 C   0  0  0  0  0  2  0  0  0  0  0  0
  187.7020  177.8120  142.7770 C   0  0  0  0  0  2  0  0  0  0  0  0
  189.7720  174.8930  146.1960 C   0  0  2  0  0  3  0  0  0  0  0  0
  188.1970  173.8330  139.9390 N   0  0  0  0  0  1  0  0  0  0  0  0
  186.6870  177.1340  146.4290 C   0  0  0  0  0  2  0  0  0  0  0  0
  185.4350  178.7420  142.4140 C   0  0  0  0  0  3  0  0  0  0  0  0
  190.6580  174.3990  145.0590 C   0  0  0  0  0  2  0  0  0  0  0  0
  188.9760  176.1230  145.7490 C   0  0  2  0  0  3  0  0  0  0  0  0
  188.1640  174.8150  142.1630 C   0  0  0  0  0  2  0  0  0  0  0  0
  185.3790  179.4160  143.7250 C   0  0  0  0  0  3  0  0  0  0  0  0
  189.8030  174.0250  143.8600 C   0  0  2  0  0  3  0  0  0  0  0  0
  190.6890  173.4560  142.7560 C   0  0  0  0  0  2  0  0  0  0  0  0
  188.0710  176.6420  146.8870 C   0  0  0  0  0  2  0  0  0  0  0  0
  186.7210  177.7440  145.0550 C   0  0  0  0  0  0  0  0  0  0  0  0
  185.9410  178.9860  144.8600 C   0  0  0  0  0  3  0  0  0  0  0  0
  190.8340  175.2910  147.6220 S   0  0  0  0  0  0  0  0  0  0  0  0
  196.4880  175.1130  143.8250 C   0  0  0  0  0  2  0  0  0  0  0  0
  194.3600  174.8990  145.7380 C   0  0  0  0  0  0  0  0  0  0  0  0
  193.4370  177.0190  145.0290 C   0  0  0  0  0  3  0  0  0  0  0  0
  192.3270  176.7900  145.8420 C   0  0  0  0  0  3  0  0  0  0  0  0
  196.7280  174.3300  145.1080 C   0  0  0  0  0  2  0  0  0  0  0  0
  192.2540  175.6080  146.5820 C   0  0  0  0  0  0  0  0  0  0  0  0
  195.3980  173.8140  145.6520 C   0  0  0  0  0  2  0  0  0  0  0  0
  194.4570  176.0690  144.9550 C   0  0  0  0  0  0  0  0  0  0  0  0
  193.2600  174.6970  146.5130 N   0  0  0  0  0  0  0  0  0  0  0  0
  195.6790  176.3700  144.1320 C   0  0  0  0  0  2  0  0  0  0  0  0
  1  9  1  6  0  0  0
  1  6  1  0  0  0  0
  1 14  1  0  0  0  0
  2  3  1  6  0  0  0
  2 13  1  0  0  0  0
  3 19  2  0  0  0  0
  4 11  2  0  0  0  0
  4  7  1  0  0  0  0
  5 14  1  6  0  0  0
  5 16  1  0  0  0  0
  5  2  1  0  0  0  0
  6 17  1  0  0  0  0
  7  3  1  0  0  0  0
  8 21  1  1  0  0  0
 10 18  1  0  0  0  0
 11 15  1  0  0  0  0
 12  8  1  0  0  0  0
 13  8  1  0  0  0  0
 13 18  1  1  0  0  0
 15 20  2  0  0  0  0
 16 17  1  6  0  0  0
 16 12  1  0  0  0  0
 19 10  1  0  0  0  0
 20 19  1  0  0  0  0
 22 31  1  0  0  0  0
 22 26  1  0  0  0  0
 23 30  1  0  0  0  0
 24 25  2  0  0  0  0
 25 27  1  0  0  0  0
 26 28  1  0  0  0  0
 27 21  1  0  0  0  0
 28 23  1  0  0  0  0
 29 24  1  0  0  0  0
 29 23  2  0  0  0  0
 30 27  2  0  0  0  0
 31 29  1  0  0  0  0
M  END
>  <MODEL>
4

>  <REMARK>
 VINA RESULT:      -8.9      2.160      7.787
  Name = 
  2 active torsions:
  status: ('A' for Active; 'I' for Inactive)
    1  A    between atoms: C_9  and  S_23
    2  A    between atoms: C_15  and  S_23
                            x       y       z     vdW  Elec       q    Type
                         _______ _______ _______ _____ _____    ______ ____

>  <TORSDO>
F 2

$$$$
=
 OpenBabel11052417483D

 31 36  0  0  1  0  0  0  0  0999 V2000
  185.0810  178.2360  141.0690 C   0  0  1  0  0  3  0  0  0  0  0  0
  187.1650  177.0680  144.1190 C   0  0  1  0  0  3  0  0  0  0  0  0
  186.5150  177.7670  145.2980 C   0  0  0  0  0  0  0  0  0  0  0  0
  184.3660  178.9580  145.6040 C   0  0  0  0  0  3  0  0  0  0  0  0
  186.8640  177.6940  142.7450 C   0  0  2  0  0  3  0  0  0  0  0  0
  185.8910  177.5560  139.9700 C   0  0  0  0  0  2  0  0  0  0  0  0
  185.7690  179.0560  145.1110 C   0  0  0  0  0  2  0  0  0  0  0  0
  189.4390  176.3060  143.2490 C   0  0  2  0  0  3  0  0  0  0  0  0
  183.6650  178.1180  140.7720 N   0  0  0  0  0  1  0  0  0  0  0  0
  187.7430  176.1390  146.6680 C   0  0  0  0  0  2  0  0  0  0  0  0
  184.0660  178.7300  146.8810 C   0  0  0  0  0  3  0  0  0  0  0  0
  189.1460  177.0260  141.9380 C   0  0  0  0  0  2  0  0  0  0  0  0
  188.6800  176.9750  144.3990 C   0  0  2  0  0  3  0  0  0  0  0  0
  185.3730  177.5840  142.4180 C   0  0  0  0  0  2  0  0  0  0  0  0
  185.0570  178.4620  147.9410 C   0  0  0  0  0  3  0  0  0  0  0  0
  187.6580  176.9770  141.6410 C   0  0  2  0  0  3  0  0  0  0  0  0
  187.3820  177.6270  140.2890 C   0  0  0  0  0  2  0  0  0  0  0  0
  188.9630  176.2620  145.7390 C   0  0  0  0  0  2  0  0  0  0  0  0
  186.7980  177.3010  146.5310 C   0  0  0  0  0  0  0  0  0  0  0  0
  186.2370  177.8510  147.7850 C   0  0  0  0  0  3  0  0  0  0  0  0
  191.2370  176.3570  143.5430 S   0  0  0  0  0  0  0  0  0  0  0  0
  191.0660  170.3220  140.3860 C   0  0  0  0  0  2  0  0  0  0  0  0
  190.9750  172.6130  142.1120 C   0  0  0  0  0  0  0  0  0  0  0  0
  192.6950  173.7210  140.8220 C   0  0  0  0  0  3  0  0  0  0  0  0
  192.4910  174.8780  141.5730 C   0  0  0  0  0  3  0  0  0  0  0  0
  190.6560  170.1330  141.8400 C   0  0  0  0  0  2  0  0  0  0  0  0
  191.5210  174.8800  142.5760 C   0  0  0  0  0  0  0  0  0  0  0  0
  190.0790  171.4370  142.3850 C   0  0  0  0  0  2  0  0  0  0  0  0
  191.9280  172.5810  141.0710 C   0  0  0  0  0  0  0  0  0  0  0  0
  190.7900  173.7600  142.8200 N   0  0  0  0  0  0  0  0  0  0  0  0
  192.2160  171.3220  140.3020 C   0  0  0  0  0  2  0  0  0  0  0  0
  1  9  1  6  0  0  0
  1 14  1  0  0  0  0
  2 13  1  0  0  0  0
  2  3  1  1  0  0  0
  3 19  2  0  0  0  0
  4 11  2  0  0  0  0
  5 14  1  6  0  0  0
  5  2  1  0  0  0  0
  6 17  1  0  0  0  0
  6  1  1  0  0  0  0
  7  3  1  0  0  0  0
  7  4  1  0  0  0  0
  8 21  1  1  0  0  0
  8 13  1  0  0  0  0
 11 15  1  0  0  0  0
 12  8  1  0  0  0  0
 13 18  1  1  0  0  0
 16 17  1  6  0  0  0
 16 12  1  0  0  0  0
 16  5  1  0  0  0  0
 18 10  1  0  0  0  0
 19 10  1  0  0  0  0
 19 20  1  0  0  0  0
 20 15  2  0  0  0  0
 22 26  1  0  0  0  0
 23 28  1  0  0  0  0
 23 30  1  0  0  0  0
 24 29  1  0  0  0  0
 24 25  2  0  0  0  0
 25 27  1  0  0  0  0
 26 28  1  0  0  0  0
 27 30  2  0  0  0  0
 27 21  1  0  0  0  0
 29 23  2  0  0  0  0
 31 22  1  0  0  0  0
 31 29  1  0  0  0  0
M  END
>  <MODEL>
5

>  <REMARK>
 VINA RESULT:      -8.9      3.493      8.792
  Name = 
  2 active torsions:
  status: ('A' for Active; 'I' for Inactive)
    1  A    between atoms: C_9  and  S_23
    2  A    between atoms: C_15  and  S_23
                            x       y       z     vdW  Elec       q    Type
                         _______ _______ _______ _____ _____    ______ ____

>  <TORSDO>
F 2

$$$$
=
 OpenBabel11052417483D

 31 36  0  0  1  0  0  0  0  0999 V2000
  191.1300  172.4580  140.8340 C   0  0  1  0  0  3  0  0  0  0  0  0
  191.8340  175.0030  143.6690 C   0  0  1  0  0  3  0  0  0  0  0  0
  193.3470  175.1200  143.6900 C   0  0  0  0  0  0  0  0  0  0  0  0
  195.1360  174.4300  142.1240 C   0  0  0  0  0  3  0  0  0  0  0  0
  191.2890  173.7360  142.9840 C   0  0  2  0  0  3  0  0  0  0  0  0
  189.6160  172.3610  140.9910 C   0  0  0  0  0  2  0  0  0  0  0  0
  194.2120  173.9920  143.2080 C   0  0  0  0  0  2  0  0  0  0  0  0
  189.8040  175.0160  145.2130 C   0  0  2  0  0  3  0  0  0  0  0  0
  191.4720  172.4730  139.4240 N   0  0  0  0  0  1  0  0  0  0  0  0
  192.9590  177.1600  145.0030 C   0  0  0  0  0  2  0  0  0  0  0  0
  196.0810  175.3480  142.3120 C   0  0  0  0  0  3  0  0  0  0  0  0
  189.3510  173.7060  144.5790 C   0  0  0  0  0  2  0  0  0  0  0  0
  191.3280  175.1470  145.1190 C   0  0  2  0  0  3  0  0  0  0  0  0
  191.6470  173.7330  141.4960 C   0  0  0  0  0  2  0  0  0  0  0  0
  196.2810  176.1030  143.5630 C   0  0  0  0  0  3  0  0  0  0  0  0
  189.7600  173.6680  143.1170 C   0  0  2  0  0  3  0  0  0  0  0  0
  189.2330  172.3920  142.4690 C   0  0  0  0  0  2  0  0  0  0  0  0
  191.8100  176.4680  145.7570 C   0  0  0  0  0  2  0  0  0  0  0  0
  193.8810  176.1770  144.3360 C   0  0  0  0  0  0  0  0  0  0  0  0
  195.3310  176.4530  144.4370 C   0  0  0  0  0  3  0  0  0  0  0  0
  189.2570  175.0320  146.9510 S   0  0  0  0  0  0  0  0  0  0  0  0
  184.4980  179.1060  144.2740 C   0  0  0  0  0  2  0  0  0  0  0  0
  186.8090  177.6060  145.0760 C   0  0  0  0  0  0  0  0  0  0  0  0
  185.9010  177.2900  147.2960 C   0  0  0  0  0  3  0  0  0  0  0  0
  186.9520  176.4200  147.5850 C   0  0  0  0  0  3  0  0  0  0  0  0
  185.8340  179.3980  143.6050 C   0  0  0  0  0  2  0  0  0  0  0  0
  187.9080  176.1530  146.6030 C   0  0  0  0  0  0  0  0  0  0  0  0
  186.7280  178.1630  143.6810 C   0  0  0  0  0  2  0  0  0  0  0  0
  185.8080  177.8790  146.0330 C   0  0  0  0  0  0  0  0  0  0  0  0
  187.8160  176.7440  145.3820 N   0  0  0  0  0  0  0  0  0  0  0  0
  184.7110  178.8720  145.7670 C   0  0  0  0  0  2  0  0  0  0  0  0
  1  9  1  6  0  0  0
  1  6  1  0  0  0  0
  1 14  1  0  0  0  0
  2  3  1  1  0  0  0
  2 13  1  0  0  0  0
  3 19  2  0  0  0  0
  4 11  2  0  0  0  0
  4  7  1  0  0  0  0
  5 14  1  6  0  0  0
  5 16  1  0  0  0  0
  5  2  1  0  0  0  0
  6 17  1  0  0  0  0
  7  3  1  0  0  0  0
  8 21  1  1  0  0  0
 10 18  1  0  0  0  0
 11 15  1  0  0  0  0
 12  8  1  0  0  0  0
 13  8  1  0  0  0  0
 13 18  1  6  0  0  0
 15 20  2  0  0  0  0
 16 17  1  1  0  0  0
 16 12  1  0  0  0  0
 19 20  1  0  0  0  0
 19 10  1  0  0  0  0
 22 31  1  0  0  0  0
 23 30  2  0  0  0  0
 23 29  1  0  0  0  0
 24 25  1  0  0  0  0
 26 28  1  0  0  0  0
 26 22  1  0  0  0  0
 27 21  1  0  0  0  0
 27 25  2  0  0  0  0
 28 23  1  0  0  0  0
 29 24  2  0  0  0  0
 30 27  1  0  0  0  0
 31 29  1  0  0  0  0
M  END
>  <MODEL>
6

>  <REMARK>
 VINA RESULT:      -8.6      2.050      2.527
  Name = 
  2 active torsions:
  status: ('A' for Active; 'I' for Inactive)
    1  A    between atoms: C_9  and  S_23
    2  A    between atoms: C_15  and  S_23
                            x       y       z     vdW  Elec       q    Type
                         _______ _______ _______ _____ _____    ______ ____

>  <TORSDO>
F 2

$$$$
=
 OpenBabel11052417483D

 31 36  0  0  1  0  0  0  0  0999 V2000
  195.4360  174.2270  145.0540 C   0  0  1  0  0  3  0  0  0  0  0  0
  191.8040  173.9070  143.7430 C   0  0  1  0  0  3  0  0  0  0  0  0
  191.8080  172.6030  142.9650 C   0  0  0  0  0  0  0  0  0  0  0  0
  193.3840  170.6980  142.8320 C   0  0  0  0  0  3  0  0  0  0  0  0
  193.1930  174.5290  143.9770 C   0  0  2  0  0  3  0  0  0  0  0  0
  195.3160  175.5980  145.7130 C   0  0  0  0  0  2  0  0  0  0  0  0
  193.0730  172.0760  142.3560 C   0  0  0  0  0  2  0  0  0  0  0  0
  190.7840  176.2440  143.7270 C   0  0  2  0  0  3  0  0  0  0  0  0
  196.2340  173.3530  145.8940 N   0  0  0  0  0  1  0  0  0  0  0  0
  189.3610  172.7520  143.1190 C   0  0  0  0  0  2  0  0  0  0  0  0
  192.5900  169.6580  142.5900 C   0  0  0  0  0  3  0  0  0  0  0  0
  192.1860  176.8260  143.8560 C   0  0  0  0  0  2  0  0  0  0  0  0
  190.8400  174.8790  143.0330 C   0  0  2  0  0  3  0  0  0  0  0  0
  194.0510  173.6160  144.8560 C   0  0  0  0  0  2  0  0  0  0  0  0
  191.2830  169.7400  141.9100 C   0  0  0  0  0  3  0  0  0  0  0  0
  193.0620  175.8920  144.6740 C   0  0  2  0  0  3  0  0  0  0  0  0
  194.4390  176.5180  144.8670 C   0  0  0  0  0  2  0  0  0  0  0  0
  189.4280  174.2720  142.8910 C   0  0  0  0  0  2  0  0  0  0  0  0
  190.6130  172.0490  142.6750 C   0  0  0  0  0  0  0  0  0  0  0  0
  190.4360  170.7750  141.9430 C   0  0  0  0  0  3  0  0  0  0  0  0
  189.7620  177.4140  142.7750 S   0  0  0  0  0  0  0  0  0  0  0  0
  184.1990  178.0010  146.6640 C   0  0  0  0  0  2  0  0  0  0  0  0
  186.3390  178.1170  144.7560 C   0  0  0  0  0  0  0  0  0  0  0  0
  187.9100  177.2620  146.3850 C   0  0  0  0  0  3  0  0  0  0  0  0
  188.8740  177.1650  145.3810 C   0  0  0  0  0  3  0  0  0  0  0  0
  184.1400  179.0410  145.5540 C   0  0  0  0  0  2  0  0  0  0  0  0
  188.5440  177.5410  144.0770 C   0  0  0  0  0  0  0  0  0  0  0  0
  184.9600  178.5630  144.3570 C   0  0  0  0  0  2  0  0  0  0  0  0
  186.6280  177.7230  146.0800 C   0  0  0  0  0  0  0  0  0  0  0  0
  187.2960  178.0010  143.7950 N   0  0  0  0  0  0  0  0  0  0  0  0
  185.6280  177.8910  147.1900 C   0  0  0  0  0  2  0  0  0  0  0  0
  1  6  1  0  0  0  0
  1  9  1  1  0  0  0
  2  3  1  6  0  0  0
  2  5  1  0  0  0  0
  5 16  1  0  0  0  0
  5 14  1  1  0  0  0
  7  4  1  0  0  0  0
  7  3  1  0  0  0  0
  8 21  1  6  0  0  0
  8 12  1  0  0  0  0
 11  4  2  0  0  0  0
 13 18  1  1  0  0  0
 13  8  1  0  0  0  0
 13  2  1  0  0  0  0
 14  1  1  0  0  0  0
 15 20  2  0  0  0  0
 15 11  1  0  0  0  0
 16 12  1  6  0  0  0
 16 17  1  0  0  0  0
 17  6  1  0  0  0  0
 18 10  1  0  0  0  0
 19  3  2  0  0  0  0
 19 10  1  0  0  0  0
 20 19  1  0  0  0  0
 21 27  1  0  0  0  0
 22 31  1  0  0  0  0
 23 29  1  0  0  0  0
 25 24  1  0  0  0  0
 26 22  1  0  0  0  0
 27 25  2  0  0  0  0
 28 23  1  0  0  0  0
 28 26  1  0  0  0  0
 29 24  2  0  0  0  0
 29 31  1  0  0  0  0
 30 27  1  0  0  0  0
 30 23  2  0  0  0  0
M  END
>  <MODEL>
7

>  <REMARK>
 VINA RESULT:      -8.6      2.122      4.424
  Name = 
  2 active torsions:
  status: ('A' for Active; 'I' for Inactive)
    1  A    between atoms: C_9  and  S_23
    2  A    between atoms: C_15  and  S_23
                            x       y       z     vdW  Elec       q    Type
                         _______ _______ _______ _____ _____    ______ ____

>  <TORSDO>
F 2

$$$$
=
 OpenBabel11052417483D

 31 36  0  0  1  0  0  0  0  0999 V2000
  185.4030  178.2110  141.1720 C   0  0  1  0  0  3  0  0  0  0  0  0
  187.3870  177.2850  144.3680 C   0  0  1  0  0  3  0  0  0  0  0  0
  186.5570  177.8680  145.4970 C   0  0  0  0  0  0  0  0  0  0  0  0
  184.2470  178.7490  145.6410 C   0  0  0  0  0  3  0  0  0  0  0  0
  187.1090  177.8880  142.9790 C   0  0  2  0  0  3  0  0  0  0  0  0
  186.3810  177.6680  140.1350 C   0  0  0  0  0  2  0  0  0  0  0  0
  185.6580  179.0460  145.2610 C   0  0  0  0  0  2  0  0  0  0  0  0
  189.8040  176.8570  143.6750 C   0  0  2  0  0  3  0  0  0  0  0  0
  184.0450  177.9070  140.7630 N   0  0  0  0  0  1  0  0  0  0  0  0
  187.8880  176.3990  146.9480 C   0  0  0  0  0  2  0  0  0  0  0  0
  183.8850  178.4600  146.8880 C   0  0  0  0  0  3  0  0  0  0  0  0
  189.5170  177.5530  142.3500 C   0  0  0  0  0  2  0  0  0  0  0  0
  188.8730  177.3960  144.7670 C   0  0  2  0  0  3  0  0  0  0  0  0
  185.6770  177.5820  142.5350 C   0  0  0  0  0  2  0  0  0  0  0  0
  184.8180  178.3110  148.0210 C   0  0  0  0  0  3  0  0  0  0  0  0
  188.0770  177.3060  141.9360 C   0  0  2  0  0  3  0  0  0  0  0  0
  187.8200  177.9360  140.5710 C   0  0  0  0  0  2  0  0  0  0  0  0
  189.1480  176.7050  146.1200 C   0  0  0  0  0  2  0  0  0  0  0  0
  186.8050  177.4230  146.7460 C   0  0  0  0  0  0  0  0  0  0  0  0
  186.0790  177.8700  147.9550 C   0  0  0  0  0  3  0  0  0  0  0  0
  191.5490  177.1470  144.1110 S   0  0  0  0  0  0  0  0  0  0  0  0
  194.9420  173.2590  139.6630 C   0  0  0  0  0  2  0  0  0  0  0  0
  193.6900  175.2780  141.2720 C   0  0  0  0  0  0  0  0  0  0  0  0
  191.9420  173.7420  141.9350 C   0  0  0  0  0  3  0  0  0  0  0  0
  191.4710  174.6930  142.8400 C   0  0  0  0  0  3  0  0  0  0  0  0
  195.1050  174.7200  139.2700 C   0  0  0  0  0  2  0  0  0  0  0  0
  192.1300  175.9190  142.9490 C   0  0  0  0  0  0  0  0  0  0  0  0
  194.9380  175.6060  140.5020 C   0  0  0  0  0  2  0  0  0  0  0  0
  193.0660  174.0170  141.1530 C   0  0  0  0  0  0  0  0  0  0  0  0
  193.2150  176.1810  142.1720 N   0  0  0  0  0  0  0  0  0  0  0  0
  193.5100  173.0090  140.1310 C   0  0  0  0  0  2  0  0  0  0  0  0
  1  9  1  6  0  0  0
  1 14  1  0  0  0  0
  2 13  1  0  0  0  0
  2  3  1  1  0  0  0
  3 19  2  0  0  0  0
  4 11  2  0  0  0  0
  5 14  1  6  0  0  0
  5  2  1  0  0  0  0
  6 17  1  0  0  0  0
  6  1  1  0  0  0  0
  7  3  1  0  0  0  0
  7  4  1  0  0  0  0
  8 21  1  1  0  0  0
  8 13  1  0  0  0  0
 11 15  1  0  0  0  0
 12  8  1  0  0  0  0
 13 18  1  1  0  0  0
 16 17  1  6  0  0  0
 16 12  1  0  0  0  0
 16  5  1  0  0  0  0
 18 10  1  0  0  0  0
 19 10  1  0  0  0  0
 19 20  1  0  0  0  0
 20 15  2  0  0  0  0
 22 31  1  0  0  0  0
 23 30  1  0  0  0  0
 24 25  2  0  0  0  0
 25 27  1  0  0  0  0
 26 22  1  0  0  0  0
 26 28  1  0  0  0  0
 27 21  1  0  0  0  0
 28 23  1  0  0  0  0
 29 23  2  0  0  0  0
 29 24  1  0  0  0  0
 30 27  2  0  0  0  0
 31 29  1  0  0  0  0
M  END
>  <MODEL>
8

>  <REMARK>
 VINA RESULT:      -8.5      3.584      8.994
  Name = 
  2 active torsions:
  status: ('A' for Active; 'I' for Inactive)
    1  A    between atoms: C_9  and  S_23
    2  A    between atoms: C_15  and  S_23
                            x       y       z     vdW  Elec       q    Type
                         _______ _______ _______ _____ _____    ______ ____

>  <TORSDO>
F 2

$$$$
=
 OpenBabel11052417483D

 31 36  0  0  1  0  0  0  0  0999 V2000
  194.4480  175.3380  145.1330 C   0  0  1  0  0  3  0  0  0  0  0  0
  191.0170  174.6230  143.4810 C   0  0  1  0  0  3  0  0  0  0  0  0
  191.2020  173.2690  142.8210 C   0  0  0  0  0  0  0  0  0  0  0  0
  192.9180  171.4950  143.0140 C   0  0  0  0  0  3  0  0  0  0  0  0
  192.3220  175.3720  143.8050 C   0  0  2  0  0  3  0  0  0  0  0  0
  194.1560  176.7410  145.6570 C   0  0  0  0  0  2  0  0  0  0  0  0
  192.5630  172.8020  142.3930 C   0  0  0  0  0  2  0  0  0  0  0  0
  189.8360  176.8610  143.1620 C   0  0  2  0  0  3  0  0  0  0  0  0
  195.2100  174.5990  146.1220 N   0  0  0  0  0  1  0  0  0  0  0  0
  188.7490  173.2270  142.7050 C   0  0  0  0  0  2  0  0  0  0  0  0
  192.2340  170.3780  142.7790 C   0  0  0  0  0  3  0  0  0  0  0  0
  191.1690  177.5630  143.3860 C   0  0  0  0  0  2  0  0  0  0  0  0
  190.0680  175.4570  142.5950 C   0  0  2  0  0  3  0  0  0  0  0  0
  193.1420  174.6020  144.8430 C   0  0  0  0  0  2  0  0  0  0  0  0
  191.0080  170.3000  141.9620 C   0  0  0  0  0  3  0  0  0  0  0  0
  192.0150  176.7690  144.3670 C   0  0  2  0  0  3  0  0  0  0  0  0
  193.3130  177.5190  144.6490 C   0  0  0  0  0  2  0  0  0  0  0  0
  188.7290  174.7260  142.3580 C   0  0  0  0  0  2  0  0  0  0  0  0
  190.0910  172.5980  142.4550 C   0  0  0  0  0  0  0  0  0  0  0  0
  190.0900  171.2620  141.8190 C   0  0  0  0  0  3  0  0  0  0  0  0
  188.8430  177.8670  142.0130 S   0  0  0  0  0  0  0  0  0  0  0  0
  184.9450  178.6130  147.5500 C   0  0  0  0  0  2  0  0  0  0  0  0
  186.7850  177.9150  145.4620 C   0  0  0  0  0  0  0  0  0  0  0  0
  185.3360  178.8860  143.7860 C   0  0  0  0  0  3  0  0  0  0  0  0
  186.3340  178.6900  142.8320 C   0  0  0  0  0  3  0  0  0  0  0  0
  185.8420  177.3970  147.7350 C   0  0  0  0  0  2  0  0  0  0  0  0
  187.5470  178.1170  143.2190 C   0  0  0  0  0  0  0  0  0  0  0  0
  187.1020  177.5530  146.8860 C   0  0  0  0  0  2  0  0  0  0  0  0
  185.5570  178.5160  145.1150 C   0  0  0  0  0  0  0  0  0  0  0  0
  187.7450  177.7480  144.5120 N   0  0  0  0  0  0  0  0  0  0  0  0
  184.4410  178.6660  146.1110 C   0  0  0  0  0  2  0  0  0  0  0  0
  1  6  1  0  0  0  0
  1  9  1  1  0  0  0
  2  3  1  6  0  0  0
  2  5  1  0  0  0  0
  5 16  1  0  0  0  0
  5 14  1  1  0  0  0
  7  3  1  0  0  0  0
  7  4  1  0  0  0  0
  8 21  1  6  0  0  0
  8 12  1  0  0  0  0
 11  4  2  0  0  0  0
 13 18  1  1  0  0  0
 13  8  1  0  0  0  0
 13  2  1  0  0  0  0
 14  1  1  0  0  0  0
 15 11  1  0  0  0  0
 16 12  1  6  0  0  0
 16 17  1  0  0  0  0
 17  6  1  0  0  0  0
 18 10  1  0  0  0  0
 19 10  1  0  0  0  0
 19  3  2  0  0  0  0
 20 15  2  0  0  0  0
 20 19  1  0  0  0  0
 21 27  1  0  0  0  0
 22 26  1  0  0  0  0
 23 28  1  0  0  0  0
 24 29  2  0  0  0  0
 25 27  2  0  0  0  0
 25 24  1  0  0  0  0
 27 30  1  0  0  0  0
 28 26  1  0  0  0  0
 29 23  1  0  0  0  0
 29 31  1  0  0  0  0
 30 23  2  0  0  0  0
 31 22  1  0  0  0  0
M  END
>  <MODEL>
9

>  <REMARK>
 VINA RESULT:      -8.4      2.490      4.711
  Name = 
  2 active torsions:
  status: ('A' for Active; 'I' for Inactive)
    1  A    between atoms: C_9  and  S_23
    2  A    between atoms: C_15  and  S_23
                            x       y       z     vdW  Elec       q    Type
                         _______ _______ _______ _____ _____    ______ ____

>  <TORSDO>
F 2

$$$$
