=
 OpenBabel11052418003D

 31 34  0  0  1  0  0  0  0  0999 V2000
  188.1320  177.4810  144.4410 C   0  0  0  0  0  0  0  0  0  0  0  0
  186.9050  178.1050  144.7140 C   0  0  0  0  0  0  0  0  0  0  0  0
  185.0740  179.5770  144.1740 C   0  0  0  0  0  3  0  0  0  0  0  0
  188.9250  177.5810  143.2650 N   0  0  0  0  0  0  0  0  0  0  0  0
  186.2910  178.9910  143.8250 C   0  0  0  0  0  3  0  0  0  0  0  0
  189.9950  176.0860  144.8460 C   0  0  1  0  0  3  0  0  0  0  0  0
  186.8810  176.9660  146.8410 N   0  0  0  0  0  0  0  0  0  0  0  0
  184.4920  179.2890  145.3690 N   0  0  0  0  0  0  0  0  0  0  0  0
  188.7100  176.6460  145.3600 C   0  0  0  0  0  0  0  0  0  0  0  0
  184.4090  178.1730  147.5010 N   0  0  0  0  0  1  0  0  0  0  0  0
  190.0840  176.7000  143.4150 C   0  0  2  0  0  3  0  0  0  0  0  0
  188.0760  176.3690  146.5700 C   0  0  0  0  0  3  0  0  0  0  0  0
  186.2860  177.8230  145.9570 C   0  0  0  0  0  0  0  0  0  0  0  0
  185.0610  178.4340  146.2610 C   0  0  0  0  0  0  0  0  0  0  0  0
  191.3670  178.7420  143.5420 O   0  0  0  0  0  1  0  0  0  0  0  0
  191.3860  177.4280  143.0650 C   0  0  0  0  0  2  0  0  0  0  0  0
  191.1620  176.4570  145.7660 C   0  0  0  0  0  2  0  0  0  0  0  0
  193.6420  174.5650  144.4550 O   0  0  0  0  0  0  0  0  0  0  0  0
  195.5740  175.5070  145.3830 N   0  0  0  0  0  2  0  0  0  0  0  0
  194.3050  175.2760  145.4270 C   0  0  0  0  0  0  0  0  0  0  0  0
  192.2670  174.4350  144.7650 C   0  0  2  0  0  3  0  0  0  0  0  0
  193.4220  175.7390  146.5120 C   0  0  0  0  0  2  0  0  0  0  0  0
  192.0470  175.2530  146.0530 C   0  0  1  0  0  3  0  0  0  0  0  0
  191.9610  173.0330  145.0120 N   0  0  0  0  0  2  0  0  0  0  0  0
  191.3770  172.4790  143.7980 C   0  0  0  0  0  2  0  0  0  0  0  0
  189.8860  172.4760  143.8910 C   0  0  0  0  0  0  0  0  0  0  0  0
  189.3310  171.9610  144.8480 O   0  0  0  0  0  0  0  0  0  0  0  0
  189.0740  173.0870  142.8040 C   0  0  0  0  0  1  0  0  0  0  0  0
  188.4480  178.0370  141.9650 C   0  0  0  0  0  2  0  0  0  0  0  0
  187.7600  176.9010  141.2300 C   0  0  0  0  0  2  0  0  0  0  0  0
  186.6570  177.4610  140.3580 C   0  0  0  0  0  1  0  0  0  0  0  0
  1  2  2  0  0  0  0
  1  9  1  0  0  0  0
  2 13  1  0  0  0  0
  3  8  1  0  0  0  0
  4 11  1  0  0  0  0
  4  1  1  0  0  0  0
  5  3  2  0  0  0  0
  5  2  1  0  0  0  0
  6  9  1  0  0  0  0
  6 17  1  1  0  0  0
  8 14  2  0  0  0  0
  9 12  2  0  0  0  0
 11 16  1  1  0  0  0
 11  6  1  0  0  0  0
 12  7  1  0  0  0  0
 13 14  1  0  0  0  0
 13  7  2  0  0  0  0
 14 10  1  0  0  0  0
 16 15  1  0  0  0  0
 18 21  1  0  0  0  0
 18 20  1  0  0  0  0
 19 20  2  0  0  0  0
 20 22  1  0  0  0  0
 21 24  1  1  0  0  0
 21 23  1  0  0  0  0
 23 17  1  6  0  0  0
 23 22  1  0  0  0  0
 25 26  1  0  0  0  0
 25 24  1  0  0  0  0
 26 27  2  0  0  0  0
 28 26  1  0  0  0  0
 29  4  1  0  0  0  0
 30 29  1  0  0  0  0
 31 30  1  0  0  0  0
M  END
>  <MODEL>
1

>  <REMARK>
 VINA RESULT:      -7.0      0.000      0.000
  Name = 
  8 active torsions:
  status: ('A' for Active; 'I' for Inactive)
    1  A    between atoms: C_1  and  C_24
    2  A    between atoms: C_2  and  C_25
    3  A    between atoms: N_6  and  C_19
    4  A    between atoms: N_6  and  C_24
    5  A    between atoms: N_12  and  C_25
    6  A    between atoms: C_15  and  C_20
    7  A    between atoms: C_20  and  C_23
    8  A    between atoms: C_27  and  C_28
                            x       y       z     vdW  Elec       q    Type
                         _______ _______ _______ _____ _____    ______ ____

>  <TORSDO>
F 8

$$$$
=
 OpenBabel11052418003D

 31 34  0  0  1  0  0  0  0  0999 V2000
  188.3610  176.0960  145.0890 C   0  0  0  0  0  0  0  0  0  0  0  0
  187.4620  177.0280  145.6290 C   0  0  0  0  0  0  0  0  0  0  0  0
  186.1840  177.9870  147.4340 C   0  0  0  0  0  3  0  0  0  0  0  0
  189.0660  175.0630  145.7660 N   0  0  0  0  0  0  0  0  0  0  0  0
  187.0910  177.0310  146.9750 C   0  0  0  0  0  3  0  0  0  0  0  0
  189.6550  175.0470  143.4140 C   0  0  1  0  0  3  0  0  0  0  0  0
  187.2530  177.9930  143.4270 N   0  0  0  0  0  0  0  0  0  0  0  0
  185.6650  178.9070  146.5760 N   0  0  0  0  0  0  0  0  0  0  0  0
  188.6680  176.1140  143.7540 C   0  0  0  0  0  0  0  0  0  0  0  0
  185.4220  179.9160  144.4040 N   0  0  0  0  0  1  0  0  0  0  0  0
  189.9360  174.3900  144.8000 C   0  0  2  0  0  3  0  0  0  0  0  0
  188.1220  177.0800  142.9100 C   0  0  0  0  0  3  0  0  0  0  0  0
  186.9060  177.9900  144.7500 C   0  0  0  0  0  0  0  0  0  0  0  0
  186.0010  178.9330  145.2580 C   0  0  0  0  0  0  0  0  0  0  0  0
  191.0010  172.2280  144.6340 O   0  0  0  0  0  1  0  0  0  0  0  0
  189.7810  172.8670  144.8760 C   0  0  0  0  0  2  0  0  0  0  0  0
  189.0860  174.0880  142.3630 C   0  0  0  0  0  2  0  0  0  0  0  0
  190.8770  172.0690  140.3210 O   0  0  0  0  0  0  0  0  0  0  0  0
  189.3450  171.5280  138.6360 N   0  0  0  0  0  2  0  0  0  0  0  0
  189.7550  172.3210  139.5670 C   0  0  0  0  0  0  0  0  0  0  0  0
  191.1160  173.1130  141.2470 C   0  0  2  0  0  3  0  0  0  0  0  0
  189.0830  173.5810  139.9290 C   0  0  0  0  0  2  0  0  0  0  0  0
  189.9300  174.0880  141.0970 C   0  0  1  0  0  3  0  0  0  0  0  0
  192.3580  173.7890  140.9000 N   0  0  0  0  0  2  0  0  0  0  0  0
  193.2650  173.6730  142.0330 C   0  0  0  0  0  2  0  0  0  0  0  0
  193.2320  174.9180  142.8560 C   0  0  0  0  0  0  0  0  0  0  0  0
  192.9750  175.9920  142.3370 O   0  0  0  0  0  0  0  0  0  0  0  0
  193.5330  174.8520  144.3130 C   0  0  0  0  0  1  0  0  0  0  0  0
  189.2950  175.0020  147.2030 C   0  0  0  0  0  2  0  0  0  0  0  0
  190.7500  175.3000  147.5160 C   0  0  0  0  0  2  0  0  0  0  0  0
  190.9390  176.7960  147.6520 C   0  0  0  0  0  1  0  0  0  0  0  0
  1  2  1  0  0  0  0
  1  4  1  0  0  0  0
  2  5  1  0  0  0  0
  4 29  1  0  0  0  0
  5  3  2  0  0  0  0
  6 17  1  6  0  0  0
  6  9  1  0  0  0  0
  6 11  1  0  0  0  0
  7 13  1  0  0  0  0
  8  3  1  0  0  0  0
  9  1  2  0  0  0  0
 10 14  1  0  0  0  0
 11 16  1  6  0  0  0
 11  4  1  0  0  0  0
 12  7  2  0  0  0  0
 12  9  1  0  0  0  0
 13 14  1  0  0  0  0
 13  2  2  0  0  0  0
 14  8  2  0  0  0  0
 15 16  1  0  0  0  0
 18 21  1  0  0  0  0
 19 20  2  0  0  0  0
 20 22  1  0  0  0  0
 20 18  1  0  0  0  0
 21 24  1  6  0  0  0
 22 23  1  0  0  0  0
 23 21  1  0  0  0  0
 23 17  1  1  0  0  0
 24 25  1  0  0  0  0
 25 26  1  0  0  0  0
 26 28  1  0  0  0  0
 27 26  2  0  0  0  0
 29 30  1  0  0  0  0
 30 31  1  0  0  0  0
M  END
>  <MODEL>
2

>  <REMARK>
 VINA RESULT:      -6.7      2.512      4.990
  Name = 
  8 active torsions:
  status: ('A' for Active; 'I' for Inactive)
    1  A    between atoms: C_1  and  C_24
    2  A    between atoms: C_2  and  C_25
    3  A    between atoms: N_6  and  C_19
    4  A    between atoms: N_6  and  C_24
    5  A    between atoms: N_12  and  C_25
    6  A    between atoms: C_15  and  C_20
    7  A    between atoms: C_20  and  C_23
    8  A    between atoms: C_27  and  C_28
                            x       y       z     vdW  Elec       q    Type
                         _______ _______ _______ _____ _____    ______ ____

>  <TORSDO>
F 8

$$$$
=
 OpenBabel11052418003D

 31 34  0  0  1  0  0  0  0  0999 V2000
  187.6400  176.7660  144.4090 C   0  0  0  0  0  0  0  0  0  0  0  0
  186.5680  177.2120  143.6220 C   0  0  0  0  0  0  0  0  0  0  0  0
  184.2710  177.8640  143.2860 C   0  0  0  0  0  3  0  0  0  0  0  0
  187.6540  176.5040  145.8070 N   0  0  0  0  0  0  0  0  0  0  0  0
  185.2880  177.4270  144.1370 C   0  0  0  0  0  3  0  0  0  0  0  0
  189.8550  176.0880  144.8780 C   0  0  1  0  0  3  0  0  0  0  0  0
  188.0570  177.2160  141.7230 N   0  0  0  0  0  0  0  0  0  0  0  0
  184.5260  178.0760  141.9670 N   0  0  0  0  0  0  0  0  0  0  0  0
  188.8700  176.5370  143.8500 C   0  0  0  0  0  0  0  0  0  0  0  0
  185.9670  178.1080  140.0390 N   0  0  0  0  0  1  0  0  0  0  0  0
  189.0140  176.1230  146.1910 C   0  0  2  0  0  3  0  0  0  0  0  0
  189.0920  176.7770  142.4940 C   0  0  0  0  0  3  0  0  0  0  0  0
  186.8120  177.4320  142.2430 C   0  0  0  0  0  0  0  0  0  0  0  0
  185.7590  177.8740  141.4290 C   0  0  0  0  0  0  0  0  0  0  0  0
  190.1140  174.8210  147.9020 O   0  0  0  0  0  1  0  0  0  0  0  0
  189.0160  174.8450  147.0360 C   0  0  0  0  0  2  0  0  0  0  0  0
  190.4240  174.7100  144.5280 C   0  0  0  0  0  2  0  0  0  0  0  0
  193.5230  174.7170  145.8850 O   0  0  0  0  0  0  0  0  0  0  0  0
  194.1790  172.4760  145.7180 N   0  0  0  0  0  2  0  0  0  0  0  0
  193.4620  173.4690  145.3120 C   0  0  0  0  0  0  0  0  0  0  0  0
  192.6570  175.6240  145.2290 C   0  0  2  0  0  3  0  0  0  0  0  0
  192.5030  173.3880  144.1970 C   0  0  0  0  0  2  0  0  0  0  0  0
  191.9010  174.7930  144.1720 C   0  0  1  0  0  3  0  0  0  0  0  0
  193.4480  176.6560  144.5730 N   0  0  0  0  0  2  0  0  0  0  0  0
  194.8520  176.3980  144.8620 C   0  0  0  0  0  2  0  0  0  0  0  0
  195.6420  176.3420  143.5960 C   0  0  0  0  0  0  0  0  0  0  0  0
  196.7600  176.8290  143.5470 O   0  0  0  0  0  0  0  0  0  0  0  0
  195.0570  175.7050  142.3840 C   0  0  0  0  0  1  0  0  0  0  0  0
  186.6780  177.0060  146.7660 C   0  0  0  0  0  2  0  0  0  0  0  0
  187.1100  178.3630  147.2910 C   0  0  0  0  0  2  0  0  0  0  0  0
  185.8940  179.2510  147.4480 C   0  0  0  0  0  1  0  0  0  0  0  0
  1  4  1  0  0  0  0
  2  5  1  0  0  0  0
  2  1  2  0  0  0  0
  3  5  2  0  0  0  0
  4 11  1  0  0  0  0
  4 29  1  0  0  0  0
  6 17  1  6  0  0  0
  6 11  1  0  0  0  0
  7 13  2  0  0  0  0
  7 12  1  0  0  0  0
  8  3  1  0  0  0  0
  9  1  1  0  0  0  0
  9  6  1  0  0  0  0
 10 14  1  0  0  0  0
 11 16  1  6  0  0  0
 12  9  2  0  0  0  0
 13  2  1  0  0  0  0
 14  8  2  0  0  0  0
 14 13  1  0  0  0  0
 16 15  1  0  0  0  0
 20 19  2  0  0  0  0
 20 18  1  0  0  0  0
 21 24  1  6  0  0  0
 21 18  1  0  0  0  0
 22 20  1  0  0  0  0
 23 22  1  0  0  0  0
 23 17  1  1  0  0  0
 23 21  1  0  0  0  0
 24 25  1  0  0  0  0
 26 25  1  0  0  0  0
 27 26  2  0  0  0  0
 28 26  1  0  0  0  0
 29 30  1  0  0  0  0
 30 31  1  0  0  0  0
M  END
>  <MODEL>
3

>  <REMARK>
 VINA RESULT:      -6.6      2.187      4.496
  Name = 
  8 active torsions:
  status: ('A' for Active; 'I' for Inactive)
    1  A    between atoms: C_1  and  C_24
    2  A    between atoms: C_2  and  C_25
    3  A    between atoms: N_6  and  C_19
    4  A    between atoms: N_6  and  C_24
    5  A    between atoms: N_12  and  C_25
    6  A    between atoms: C_15  and  C_20
    7  A    between atoms: C_20  and  C_23
    8  A    between atoms: C_27  and  C_28
                            x       y       z     vdW  Elec       q    Type
                         _______ _______ _______ _____ _____    ______ ____

>  <TORSDO>
F 8

$$$$
=
 OpenBabel11052418003D

 31 34  0  0  1  0  0  0  0  0999 V2000
  187.7560  176.5640  144.0240 C   0  0  0  0  0  0  0  0  0  0  0  0
  186.6520  177.2410  143.4860 C   0  0  0  0  0  0  0  0  0  0  0  0
  184.6560  178.5820  143.6620 C   0  0  0  0  0  3  0  0  0  0  0  0
  188.1650  176.4940  145.3850 N   0  0  0  0  0  0  0  0  0  0  0  0
  185.7350  177.9400  144.2730 C   0  0  0  0  0  3  0  0  0  0  0  0
  189.7160  175.2440  144.0020 C   0  0  1  0  0  3  0  0  0  0  0  0
  187.3550  176.4990  141.3000 N   0  0  0  0  0  0  0  0  0  0  0  0
  184.5010  178.5260  142.3110 N   0  0  0  0  0  0  0  0  0  0  0  0
  188.6100  175.8640  143.2140 C   0  0  0  0  0  0  0  0  0  0  0  0
  185.1580  177.8220  140.1050 N   0  0  0  0  0  1  0  0  0  0  0  0
  189.4110  175.7280  145.4530 C   0  0  2  0  0  3  0  0  0  0  0  0
  188.4220  175.8390  141.8320 C   0  0  0  0  0  3  0  0  0  0  0  0
  186.4700  177.1880  142.0820 C   0  0  0  0  0  0  0  0  0  0  0  0
  185.3730  177.8520  141.5130 C   0  0  0  0  0  0  0  0  0  0  0  0
  190.0610  175.0220  147.6690 O   0  0  0  0  0  1  0  0  0  0  0  0
  189.3400  174.6430  146.5330 C   0  0  0  0  0  2  0  0  0  0  0  0
  189.7250  173.7220  143.8320 C   0  0  0  0  0  2  0  0  0  0  0  0
  191.9070  171.1410  143.9970 O   0  0  0  0  0  0  0  0  0  0  0  0
  191.3140  169.8290  142.1510 N   0  0  0  0  0  2  0  0  0  0  0  0
  191.3510  170.9700  142.7510 C   0  0  0  0  0  0  0  0  0  0  0  0
  191.8410  172.4940  144.4050 C   0  0  2  0  0  3  0  0  0  0  0  0
  190.8130  172.2170  142.1800 C   0  0  0  0  0  2  0  0  0  0  0  0
  191.0610  173.2310  143.2970 C   0  0  1  0  0  3  0  0  0  0  0  0
  193.1910  173.0330  144.5010 N   0  0  0  0  0  2  0  0  0  0  0  0
  193.2760  173.8170  145.7260 C   0  0  0  0  0  2  0  0  0  0  0  0
  193.2850  175.2770  145.4100 C   0  0  0  0  0  0  0  0  0  0  0  0
  193.4810  175.6580  144.2680 O   0  0  0  0  0  0  0  0  0  0  0  0
  193.0730  176.2710  146.4970 C   0  0  0  0  0  1  0  0  0  0  0  0
  187.7510  177.4140  146.4370 C   0  0  0  0  0  2  0  0  0  0  0  0
  186.6400  176.7960  147.2670 C   0  0  0  0  0  2  0  0  0  0  0  0
  185.8570  177.8940  147.9550 C   0  0  0  0  0  1  0  0  0  0  0  0
  1  4  1  0  0  0  0
  2  1  1  0  0  0  0
  2  5  1  0  0  0  0
  3  5  2  0  0  0  0
  4 11  1  0  0  0  0
  4 29  1  0  0  0  0
  6 17  1  1  0  0  0
  6 11  1  0  0  0  0
  7 12  2  0  0  0  0
  7 13  1  0  0  0  0
  8  3  1  0  0  0  0
  9  6  1  0  0  0  0
  9  1  2  0  0  0  0
 10 14  1  0  0  0  0
 11 16  1  1  0  0  0
 12  9  1  0  0  0  0
 13  2  2  0  0  0  0
 14 13  1  0  0  0  0
 14  8  2  0  0  0  0
 16 15  1  0  0  0  0
 18 21  1  0  0  0  0
 19 20  2  0  0  0  0
 20 18  1  0  0  0  0
 21 24  1  6  0  0  0
 22 20  1  0  0  0  0
 22 23  1  0  0  0  0
 23 17  1  1  0  0  0
 23 21  1  0  0  0  0
 24 25  1  0  0  0  0
 26 25  1  0  0  0  0
 26 28  1  0  0  0  0
 27 26  2  0  0  0  0
 29 30  1  0  0  0  0
 30 31  1  0  0  0  0
M  END
>  <MODEL>
4

>  <REMARK>
 VINA RESULT:      -6.5      2.112      4.538
  Name = 
  8 active torsions:
  status: ('A' for Active; 'I' for Inactive)
    1  A    between atoms: C_1  and  C_24
    2  A    between atoms: C_2  and  C_25
    3  A    between atoms: N_6  and  C_19
    4  A    between atoms: N_6  and  C_24
    5  A    between atoms: N_12  and  C_25
    6  A    between atoms: C_15  and  C_20
    7  A    between atoms: C_20  and  C_23
    8  A    between atoms: C_27  and  C_28
                            x       y       z     vdW  Elec       q    Type
                         _______ _______ _______ _____ _____    ______ ____

>  <TORSDO>
F 8

$$$$
=
 OpenBabel11052418003D

 31 34  0  0  1  0  0  0  0  0999 V2000
  191.4170  176.2870  144.7890 C   0  0  0  0  0  0  0  0  0  0  0  0
  192.7730  176.0710  145.0790 C   0  0  0  0  0  0  0  0  0  0  0  0
  194.6290  175.7790  146.5880 C   0  0  0  0  0  3  0  0  0  0  0  0
  190.3330  176.4100  145.7030 N   0  0  0  0  0  0  0  0  0  0  0  0
  193.2640  175.9870  146.3830 C   0  0  0  0  0  3  0  0  0  0  0  0
  189.5100  176.6030  143.4300 C   0  0  1  0  0  3  0  0  0  0  0  0
  193.2000  176.0420  142.7040 N   0  0  0  0  0  0  0  0  0  0  0  0
  195.4720  175.6610  145.5270 N   0  0  0  0  0  0  0  0  0  0  0  0
  190.9870  176.3960  143.4930 C   0  0  0  0  0  0  0  0  0  0  0  0
  195.9570  175.6140  143.1690 N   0  0  0  0  0  1  0  0  0  0  0  0
  189.0970  176.5600  144.9330 C   0  0  2  0  0  3  0  0  0  0  0  0
  191.8820  176.2580  142.4320 C   0  0  0  0  0  3  0  0  0  0  0  0
  193.6670  175.9520  143.9860 C   0  0  0  0  0  0  0  0  0  0  0  0
  195.0290  175.7400  144.2430 C   0  0  0  0  0  0  0  0  0  0  0  0
  186.9410  177.3490  145.6840 O   0  0  0  0  0  1  0  0  0  0  0  0
  188.2620  177.7390  145.4440 C   0  0  0  0  0  2  0  0  0  0  0  0
  189.1710  177.9160  142.7180 C   0  0  0  0  0  2  0  0  0  0  0  0
  186.2820  176.2470  142.1560 O   0  0  0  0  0  0  0  0  0  0  0  0
  184.6450  177.7890  142.8060 N   0  0  0  0  0  2  0  0  0  0  0  0
  185.8360  177.5280  142.3850 C   0  0  0  0  0  0  0  0  0  0  0  0
  187.6110  176.2480  141.6700 C   0  0  2  0  0  3  0  0  0  0  0  0
  186.8510  178.5560  142.0970 C   0  0  0  0  0  2  0  0  0  0  0  0
  188.0650  177.7220  141.6910 C   0  0  1  0  0  3  0  0  0  0  0  0
  187.6240  175.7460  140.3030 N   0  0  0  0  0  2  0  0  0  0  0  0
  188.4400  174.5400  140.2750 C   0  0  0  0  0  2  0  0  0  0  0  0
  188.2570  173.8180  138.9800 C   0  0  0  0  0  0  0  0  0  0  0  0
  188.3560  172.6030  138.9340 O   0  0  0  0  0  0  0  0  0  0  0  0
  187.9690  174.5850  137.7370 C   0  0  0  0  0  1  0  0  0  0  0  0
  190.3450  175.9590  147.0880 C   0  0  0  0  0  2  0  0  0  0  0  0
  189.3530  174.8250  147.2790 C   0  0  0  0  0  2  0  0  0  0  0  0
  189.6400  173.7310  146.2730 C   0  0  0  0  0  1  0  0  0  0  0  0
  1  2  1  0  0  0  0
  1  4  1  0  0  0  0
  2  5  1  0  0  0  0
  4 29  1  0  0  0  0
  5  3  2  0  0  0  0
  6 17  1  1  0  0  0
  6  9  1  0  0  0  0
  6 11  1  0  0  0  0
  7 13  1  0  0  0  0
  8  3  1  0  0  0  0
  9  1  2  0  0  0  0
 10 14  1  0  0  0  0
 11 16  1  1  0  0  0
 11  4  1  0  0  0  0
 12  7  2  0  0  0  0
 12  9  1  0  0  0  0
 13 14  1  0  0  0  0
 13  2  2  0  0  0  0
 14  8  2  0  0  0  0
 16 15  1  0  0  0  0
 18 20  1  0  0  0  0
 20 19  2  0  0  0  0
 21 24  1  6  0  0  0
 21 23  1  0  0  0  0
 21 18  1  0  0  0  0
 22 20  1  0  0  0  0
 23 22  1  0  0  0  0
 23 17  1  1  0  0  0
 25 24  1  0  0  0  0
 26 25  1  0  0  0  0
 27 26  2  0  0  0  0
 28 26  1  0  0  0  0
 29 30  1  0  0  0  0
 31 30  1  0  0  0  0
M  END
>  <MODEL>
5

>  <REMARK>
 VINA RESULT:      -6.4      2.898      7.164
  Name = 
  8 active torsions:
  status: ('A' for Active; 'I' for Inactive)
    1  A    between atoms: C_1  and  C_24
    2  A    between atoms: C_2  and  C_25
    3  A    between atoms: N_6  and  C_19
    4  A    between atoms: N_6  and  C_24
    5  A    between atoms: N_12  and  C_25
    6  A    between atoms: C_15  and  C_20
    7  A    between atoms: C_20  and  C_23
    8  A    between atoms: C_27  and  C_28
                            x       y       z     vdW  Elec       q    Type
                         _______ _______ _______ _____ _____    ______ ____

>  <TORSDO>
F 8

$$$$
=
 OpenBabel11052418003D

 31 34  0  0  1  0  0  0  0  0999 V2000
  188.3000  175.9850  145.1320 C   0  0  0  0  0  0  0  0  0  0  0  0
  187.4220  176.9460  145.6560 C   0  0  0  0  0  0  0  0  0  0  0  0
  186.1950  177.9860  147.4520 C   0  0  0  0  0  3  0  0  0  0  0  0
  189.0120  174.9720  145.8320 N   0  0  0  0  0  0  0  0  0  0  0  0
  187.0830  177.0040  147.0100 C   0  0  0  0  0  3  0  0  0  0  0  0
  189.5450  174.8590  143.4700 C   0  0  1  0  0  3  0  0  0  0  0  0
  187.1690  177.8260  143.4240 N   0  0  0  0  0  0  0  0  0  0  0  0
  185.6640  178.8770  146.5710 N   0  0  0  0  0  0  0  0  0  0  0  0
  188.5750  175.9480  143.7910 C   0  0  0  0  0  0  0  0  0  0  0  0
  185.3790  179.8030  144.3680 N   0  0  0  0  0  1  0  0  0  0  0  0
  189.8530  174.2540  144.8740 C   0  0  2  0  0  3  0  0  0  0  0  0
  188.0180  176.8860  142.9230 C   0  0  0  0  0  3  0  0  0  0  0  0
  186.8540  177.8780  144.7530 C   0  0  0  0  0  0  0  0  0  0  0  0
  185.9690  178.8490  145.2460 C   0  0  0  0  0  0  0  0  0  0  0  0
  190.8540  172.0690  144.6330 O   0  0  0  0  0  1  0  0  0  0  0  0
  189.6860  172.7370  145.0130 C   0  0  0  0  0  2  0  0  0  0  0  0
  188.9430  173.8660  142.4710 C   0  0  0  0  0  2  0  0  0  0  0  0
  189.4590  171.8190  139.8260 O   0  0  0  0  0  0  0  0  0  0  0  0
  188.4900  172.9950  138.0500 N   0  0  0  0  0  2  0  0  0  0  0  0
  189.0390  172.9770  139.2170 C   0  0  0  0  0  0  0  0  0  0  0  0
  190.0510  172.0880  141.0830 C   0  0  2  0  0  3  0  0  0  0  0  0
  189.2840  174.1820  140.0290 C   0  0  0  0  0  2  0  0  0  0  0  0
  189.8890  173.6050  141.3080 C   0  0  1  0  0  3  0  0  0  0  0  0
  191.4660  171.7440  141.0320 N   0  0  0  0  0  2  0  0  0  0  0  0
  191.5790  170.3810  140.5340 C   0  0  0  0  0  2  0  0  0  0  0  0
  191.3810  169.4020  141.6450 C   0  0  0  0  0  0  0  0  0  0  0  0
  190.4440  168.6220  141.6180 O   0  0  0  0  0  0  0  0  0  0  0  0
  192.3230  169.3900  142.7990 C   0  0  0  0  0  1  0  0  0  0  0  0
  189.2740  174.9650  147.2660 C   0  0  0  0  0  2  0  0  0  0  0  0
  190.7330  175.2850  147.5340 C   0  0  0  0  0  2  0  0  0  0  0  0
  190.9240  176.7870  147.5480 C   0  0  0  0  0  1  0  0  0  0  0  0
  1  2  1  0  0  0  0
  1  4  1  0  0  0  0
  2  5  1  0  0  0  0
  4 29  1  0  0  0  0
  5  3  2  0  0  0  0
  6 17  1  6  0  0  0
  6  9  1  0  0  0  0
  6 11  1  0  0  0  0
  7 13  1  0  0  0  0
  8  3  1  0  0  0  0
  9  1  2  0  0  0  0
 10 14  1  0  0  0  0
 11 16  1  6  0  0  0
 11  4  1  0  0  0  0
 12  7  2  0  0  0  0
 12  9  1  0  0  0  0
 13 14  1  0  0  0  0
 13  2  2  0  0  0  0
 14  8  2  0  0  0  0
 15 16  1  0  0  0  0
 18 21  1  0  0  0  0
 19 20  2  0  0  0  0
 20 18  1  0  0  0  0
 20 22  1  0  0  0  0
 21 24  1  6  0  0  0
 21 23  1  0  0  0  0
 22 23  1  0  0  0  0
 23 17  1  1  0  0  0
 25 24  1  0  0  0  0
 25 26  1  0  0  0  0
 26 28  1  0  0  0  0
 27 26  2  0  0  0  0
 29 30  1  0  0  0  0
 30 31  1  0  0  0  0
M  END
>  <MODEL>
6

>  <REMARK>
 VINA RESULT:      -6.3      2.772      5.100
  Name = 
  8 active torsions:
  status: ('A' for Active; 'I' for Inactive)
    1  A    between atoms: C_1  and  C_24
    2  A    between atoms: C_2  and  C_25
    3  A    between atoms: N_6  and  C_19
    4  A    between atoms: N_6  and  C_24
    5  A    between atoms: N_12  and  C_25
    6  A    between atoms: C_15  and  C_20
    7  A    between atoms: C_20  and  C_23
    8  A    between atoms: C_27  and  C_28
                            x       y       z     vdW  Elec       q    Type
                         _______ _______ _______ _____ _____    ______ ____

>  <TORSDO>
F 8

$$$$
=
 OpenBabel11052418003D

 31 34  0  0  1  0  0  0  0  0999 V2000
  188.5790  176.1900  142.4420 C   0  0  0  0  0  0  0  0  0  0  0  0
  187.4830  177.0130  142.1380 C   0  0  0  0  0  0  0  0  0  0  0  0
  185.7460  177.8300  140.6800 C   0  0  0  0  0  3  0  0  0  0  0  0
  189.1710  175.1830  141.6310 N   0  0  0  0  0  0  0  0  0  0  0  0
  186.8240  176.9720  140.9080 C   0  0  0  0  0  3  0  0  0  0  0  0
  190.3330  175.3070  143.7560 C   0  0  1  0  0  3  0  0  0  0  0  0
  187.6970  177.9850  144.3360 N   0  0  0  0  0  0  0  0  0  0  0  0
  185.3440  178.6980  141.6470 N   0  0  0  0  0  0  0  0  0  0  0  0
  189.2140  176.2900  143.6510 C   0  0  0  0  0  0  0  0  0  0  0  0
  185.5040  179.6990  143.8300 N   0  0  0  0  0  1  0  0  0  0  0  0
  190.2450  174.5470  142.3970 C   0  0  2  0  0  3  0  0  0  0  0  0
  188.7640  177.1870  144.6200 C   0  0  0  0  0  3  0  0  0  0  0  0
  187.0540  177.9280  143.1300 C   0  0  0  0  0  0  0  0  0  0  0  0
  185.9640  178.7670  142.8550 C   0  0  0  0  0  0  0  0  0  0  0  0
  192.1000  173.1840  141.6670 O   0  0  0  0  0  1  0  0  0  0  0  0
  191.5380  174.4610  141.5790 C   0  0  0  0  0  2  0  0  0  0  0  0
  191.6670  176.0190  143.9970 C   0  0  0  0  0  2  0  0  0  0  0  0
  193.1690  176.8690  146.9080 O   0  0  0  0  0  0  0  0  0  0  0  0
  191.4730  176.5540  148.4900 N   0  0  0  0  0  2  0  0  0  0  0  0
  192.0020  176.2870  147.3440 C   0  0  0  0  0  0  0  0  0  0  0  0
  193.5400  176.3780  145.6330 C   0  0  2  0  0  3  0  0  0  0  0  0
  191.4300  175.3360  146.3750 C   0  0  0  0  0  2  0  0  0  0  0  0
  192.3990  175.4360  145.1970 C   0  0  1  0  0  3  0  0  0  0  0  0
  194.7820  175.6260  145.7510 N   0  0  0  0  0  2  0  0  0  0  0  0
  195.0520  175.0000  144.4640 C   0  0  0  0  0  2  0  0  0  0  0  0
  195.5290  176.0170  143.4800 C   0  0  0  0  0  0  0  0  0  0  0  0
  196.4100  176.8040  143.7850 O   0  0  0  0  0  0  0  0  0  0  0  0
  194.9130  176.0830  142.1260 C   0  0  0  0  0  1  0  0  0  0  0  0
  188.5350  174.5390  140.4890 C   0  0  0  0  0  2  0  0  0  0  0  0
  188.3960  173.0480  140.7370 C   0  0  0  0  0  2  0  0  0  0  0  0
  189.0900  172.2870  139.6290 C   0  0  0  0  0  1  0  0  0  0  0  0
  1  9  1  0  0  0  0
  2  1  2  0  0  0  0
  2 13  1  0  0  0  0
  3  5  2  0  0  0  0
  3  8  1  0  0  0  0
  4 11  1  0  0  0  0
  4  1  1  0  0  0  0
  5  2  1  0  0  0  0
  6 17  1  6  0  0  0
  7 12  1  0  0  0  0
  8 14  2  0  0  0  0
  9  6  1  0  0  0  0
  9 12  2  0  0  0  0
 11 16  1  6  0  0  0
 11  6  1  0  0  0  0
 13  7  2  0  0  0  0
 14 13  1  0  0  0  0
 14 10  1  0  0  0  0
 16 15  1  0  0  0  0
 18 20  1  0  0  0  0
 20 19  2  0  0  0  0
 21 24  1  1  0  0  0
 21 18  1  0  0  0  0
 22 20  1  0  0  0  0
 23 17  1  6  0  0  0
 23 21  1  0  0  0  0
 23 22  1  0  0  0  0
 25 24  1  0  0  0  0
 26 27  2  0  0  0  0
 26 25  1  0  0  0  0
 28 26  1  0  0  0  0
 29 30  1  0  0  0  0
 29  4  1  0  0  0  0
 31 30  1  0  0  0  0
M  END
>  <MODEL>
7

>  <REMARK>
 VINA RESULT:      -6.2      2.310      4.013
  Name = 
  8 active torsions:
  status: ('A' for Active; 'I' for Inactive)
    1  A    between atoms: C_1  and  C_24
    2  A    between atoms: C_2  and  C_25
    3  A    between atoms: N_6  and  C_19
    4  A    between atoms: N_6  and  C_24
    5  A    between atoms: N_12  and  C_25
    6  A    between atoms: C_15  and  C_20
    7  A    between atoms: C_20  and  C_23
    8  A    between atoms: C_27  and  C_28
                            x       y       z     vdW  Elec       q    Type
                         _______ _______ _______ _____ _____    ______ ____

>  <TORSDO>
F 8

$$$$
=
 OpenBabel11052418003D

 31 34  0  0  1  0  0  0  0  0999 V2000
  187.5510  176.4680  144.5020 C   0  0  0  0  0  0  0  0  0  0  0  0
  186.3910  177.1720  144.8600 C   0  0  0  0  0  0  0  0  0  0  0  0
  184.8590  178.1220  146.4600 C   0  0  0  0  0  3  0  0  0  0  0  0
  188.5560  175.9410  145.3590 N   0  0  0  0  0  0  0  0  0  0  0  0
  186.0350  177.4210  146.1870 C   0  0  0  0  0  3  0  0  0  0  0  0
  189.1270  175.4760  143.0480 C   0  0  1  0  0  3  0  0  0  0  0  0
  185.8820  177.3820  142.5100 N   0  0  0  0  0  0  0  0  0  0  0  0
  184.0680  178.5570  145.4430 N   0  0  0  0  0  0  0  0  0  0  0  0
  187.8400  176.2200  143.1870 C   0  0  0  0  0  0  0  0  0  0  0  0
  183.5120  178.8050  143.1140 N   0  0  0  0  0  1  0  0  0  0  0  0
  189.6040  175.3470  144.5270 C   0  0  2  0  0  3  0  0  0  0  0  0
  187.0080  176.6920  142.1720 C   0  0  0  0  0  3  0  0  0  0  0  0
  185.5500  177.6270  143.8140 C   0  0  0  0  0  0  0  0  0  0  0  0
  184.3810  178.3300  144.1390 C   0  0  0  0  0  0  0  0  0  0  0  0
  191.3350  173.8300  145.2610 O   0  0  0  0  0  1  0  0  0  0  0  0
  189.9640  173.9360  145.0070 C   0  0  0  0  0  2  0  0  0  0  0  0
  188.9140  174.1390  142.3330 C   0  0  0  0  0  2  0  0  0  0  0  0
  190.5070  171.6200  140.7300 O   0  0  0  0  0  0  0  0  0  0  0  0
  189.4210  171.5430  138.6580 N   0  0  0  0  0  2  0  0  0  0  0  0
  189.7730  172.1900  139.7160 C   0  0  0  0  0  0  0  0  0  0  0  0
  190.7800  172.5590  141.7530 C   0  0  2  0  0  3  0  0  0  0  0  0
  189.4410  173.6040  139.9640 C   0  0  0  0  0  2  0  0  0  0  0  0
  190.0380  173.8490  141.3490 C   0  0  1  0  0  3  0  0  0  0  0  0
  192.2140  172.8100  141.8050 N   0  0  0  0  0  2  0  0  0  0  0  0
  192.4180  174.2510  141.8010 C   0  0  0  0  0  2  0  0  0  0  0  0
  193.4790  174.6230  140.8170 C   0  0  0  0  0  0  0  0  0  0  0  0
  194.4240  175.3130  141.1620 O   0  0  0  0  0  0  0  0  0  0  0  0
  193.3730  174.1660  139.4040 C   0  0  0  0  0  1  0  0  0  0  0  0
  188.7860  176.3500  146.7380 C   0  0  0  0  0  2  0  0  0  0  0  0
  190.0870  177.1250  146.8460 C   0  0  0  0  0  2  0  0  0  0  0  0
  191.0190  176.4130  147.8030 C   0  0  0  0  0  1  0  0  0  0  0  0
  1  2  1  0  0  0  0
  1  4  1  0  0  0  0
  2  5  1  0  0  0  0
  4 29  1  0  0  0  0
  5  3  2  0  0  0  0
  6 17  1  1  0  0  0
  6  9  1  0  0  0  0
  6 11  1  0  0  0  0
  7 13  1  0  0  0  0
  8  3  1  0  0  0  0
  9  1  2  0  0  0  0
 10 14  1  0  0  0  0
 11 16  1  1  0  0  0
 11  4  1  0  0  0  0
 12  7  2  0  0  0  0
 12  9  1  0  0  0  0
 13 14  1  0  0  0  0
 13  2  2  0  0  0  0
 14  8  2  0  0  0  0
 16 15  1  0  0  0  0
 18 21  1  0  0  0  0
 19 20  2  0  0  0  0
 20 22  1  0  0  0  0
 20 18  1  0  0  0  0
 21 24  1  6  0  0  0
 22 23  1  0  0  0  0
 23 21  1  0  0  0  0
 23 17  1  1  0  0  0
 25 24  1  0  0  0  0
 26 27  2  0  0  0  0
 26 25  1  0  0  0  0
 28 26  1  0  0  0  0
 29 30  1  0  0  0  0
 30 31  1  0  0  0  0
M  END
>  <MODEL>
8

>  <REMARK>
 VINA RESULT:      -6.1      2.698      4.898
  Name = 
  8 active torsions:
  status: ('A' for Active; 'I' for Inactive)
    1  A    between atoms: C_1  and  C_24
    2  A    between atoms: C_2  and  C_25
    3  A    between atoms: N_6  and  C_19
    4  A    between atoms: N_6  and  C_24
    5  A    between atoms: N_12  and  C_25
    6  A    between atoms: C_15  and  C_20
    7  A    between atoms: C_20  and  C_23
    8  A    between atoms: C_27  and  C_28
                            x       y       z     vdW  Elec       q    Type
                         _______ _______ _______ _____ _____    ______ ____

>  <TORSDO>
F 8

$$$$
=
 OpenBabel11052418003D

 31 34  0  0  1  0  0  0  0  0999 V2000
  188.2690  176.5840  144.4330 C   0  0  0  0  0  0  0  0  0  0  0  0
  187.0100  177.1530  144.6770 C   0  0  0  0  0  0  0  0  0  0  0  0
  184.8070  177.8670  144.0100 C   0  0  0  0  0  3  0  0  0  0  0  0
  188.7560  176.0180  143.2220 N   0  0  0  0  0  0  0  0  0  0  0  0
  186.0320  177.2810  143.6890 C   0  0  0  0  0  3  0  0  0  0  0  0
  190.4580  175.8530  144.9420 C   0  0  1  0  0  3  0  0  0  0  0  0
  187.6990  177.5170  146.9610 N   0  0  0  0  0  0  0  0  0  0  0  0
  184.5690  178.3100  145.2740 N   0  0  0  0  0  0  0  0  0  0  0  0
  189.2080  176.5120  145.4270 C   0  0  0  0  0  0  0  0  0  0  0  0
  185.1970  178.6910  147.5660 N   0  0  0  0  0  1  0  0  0  0  0  0
  190.1000  175.4920  143.4680 C   0  0  2  0  0  3  0  0  0  0  0  0
  188.9210  176.9680  146.7130 C   0  0  0  0  0  3  0  0  0  0  0  0
  186.7460  177.6270  145.9860 C   0  0  0  0  0  0  0  0  0  0  0  0
  185.4990  178.2050  146.2610 C   0  0  0  0  0  0  0  0  0  0  0  0
  191.6220  174.8720  141.6980 O   0  0  0  0  0  1  0  0  0  0  0  0
  191.0870  175.9600  142.3930 C   0  0  0  0  0  2  0  0  0  0  0  0
  191.6630  176.7880  145.0900 C   0  0  0  0  0  2  0  0  0  0  0  0
  194.3600  174.9550  144.1850 O   0  0  0  0  0  0  0  0  0  0  0  0
  196.0730  176.5480  144.0880 N   0  0  0  0  0  2  0  0  0  0  0  0
  194.9310  176.1540  144.5420 C   0  0  0  0  0  0  0  0  0  0  0  0
  193.1260  174.7590  144.8510 C   0  0  2  0  0  3  0  0  0  0  0  0
  194.1120  176.9280  145.4910 C   0  0  0  0  0  2  0  0  0  0  0  0
  192.8700  176.0520  145.6520 C   0  0  1  0  0  3  0  0  0  0  0  0
  193.2450  173.6290  145.7620 N   0  0  0  0  0  2  0  0  0  0  0  0
  194.3320  172.7830  145.2880 C   0  0  0  0  0  2  0  0  0  0  0  0
  193.8470  171.3870  145.0680 C   0  0  0  0  0  0  0  0  0  0  0  0
  192.8550  171.1810  144.3880 O   0  0  0  0  0  0  0  0  0  0  0  0
  194.5670  170.2450  145.6950 C   0  0  0  0  0  1  0  0  0  0  0  0
  187.9290  175.5670  142.1110 C   0  0  0  0  0  2  0  0  0  0  0  0
  187.9800  174.0540  141.9980 C   0  0  0  0  0  2  0  0  0  0  0  0
  188.4800  173.6700  140.6220 C   0  0  0  0  0  1  0  0  0  0  0  0
  1  2  2  0  0  0  0
  1  9  1  0  0  0  0
  2 13  1  0  0  0  0
  3  8  1  0  0  0  0
  4 11  1  0  0  0  0
  4  1  1  0  0  0  0
  5  3  2  0  0  0  0
  5  2  1  0  0  0  0
  6 17  1  6  0  0  0
  6  9  1  0  0  0  0
  8 14  2  0  0  0  0
  9 12  2  0  0  0  0
 11 16  1  6  0  0  0
 11  6  1  0  0  0  0
 12  7  1  0  0  0  0
 13 14  1  0  0  0  0
 13  7  2  0  0  0  0
 14 10  1  0  0  0  0
 15 16  1  0  0  0  0
 18 20  1  0  0  0  0
 18 21  1  0  0  0  0
 19 20  2  0  0  0  0
 20 22  1  0  0  0  0
 21 23  1  0  0  0  0
 21 24  1  1  0  0  0
 22 23  1  0  0  0  0
 23 17  1  6  0  0  0
 25 24  1  0  0  0  0
 26 25  1  0  0  0  0
 26 28  1  0  0  0  0
 27 26  2  0  0  0  0
 29  4  1  0  0  0  0
 30 29  1  0  0  0  0
 31 30  1  0  0  0  0
M  END
>  <MODEL>
9

>  <REMARK>
 VINA RESULT:      -6.1      1.813      2.371
  Name = 
  8 active torsions:
  status: ('A' for Active; 'I' for Inactive)
    1  A    between atoms: C_1  and  C_24
    2  A    between atoms: C_2  and  C_25
    3  A    between atoms: N_6  and  C_19
    4  A    between atoms: N_6  and  C_24
    5  A    between atoms: N_12  and  C_25
    6  A    between atoms: C_15  and  C_20
    7  A    between atoms: C_20  and  C_23
    8  A    between atoms: C_27  and  C_28
                            x       y       z     vdW  Elec       q    Type
                         _______ _______ _______ _____ _____    ______ ____

>  <TORSDO>
F 8

$$$$
