=
 OpenBabel11052419083D

 32 36  0  0  1  0  0  0  0  0999 V2000
  193.5480  176.5010  143.2800 C   0  0  1  0  0  3  0  0  0  0  0  0
  188.2700  177.8650  145.5100 C   0  0  0  0  0  3  0  0  0  0  0  0
  192.3040  177.1660  143.4110 O   0  0  0  0  0  0  0  0  0  0  0  0
  192.7600  175.1150  145.2540 N   0  0  0  0  0  0  0  0  0  0  0  0
  189.6710  173.1710  143.8690 C   0  0  0  0  0  2  0  0  0  0  0  0
  191.2930  176.4260  142.7740 C   0  0  0  0  0  2  0  0  0  0  0  0
  189.1460  174.8990  145.5870 C   0  0  0  0  0  2  0  0  0  0  0  0
  189.9530  176.0140  144.8650 C   0  0  1  0  0  0  0  0  0  0  0  0
  192.3840  176.2450  146.1130 C   0  0  2  0  0  3  0  0  0  0  0  0
  186.2200  176.5170  145.2180 C   0  0  0  0  0  2  0  0  0  0  0  0
  187.9240  176.5620  143.4020 C   0  0  0  0  0  0  0  0  0  0  0  0
  191.2800  175.9000  147.0940 C   0  0  0  0  0  2  0  0  0  0  0  0
  193.8950  175.4810  144.3820 C   0  0  2  0  0  3  0  0  0  0  0  0
  187.0120  177.6080  145.8920 C   0  0  0  0  0  0  0  0  0  0  0  0
  186.6680  176.2820  143.7970 C   0  0  0  0  0  3  0  0  0  0  0  0
  188.9390  177.0960  144.3860 C   0  0  1  0  0  3  0  0  0  0  0  0
  190.9350  176.7360  145.8690 C   0  0  2  0  0  3  0  0  0  0  0  0
  188.8510  174.7090  142.0430 C   0  0  0  0  0  2  0  0  0  0  0  0
  193.1720  173.9790  146.0750 C   0  0  0  0  0  1  0  0  0  0  0  0
  188.4230  176.1720  142.0460 C   0  0  1  0  0  3  0  0  0  0  0  0
  190.6990  175.4500  143.6950 N   0  0  1  0  0  0  0  0  0  0  0  0
  195.1240  175.9670  145.1560 C   0  0  0  0  0  1  0  0  0  0  0  0
  189.7470  173.5230  145.3510 C   0  0  0  0  0  2  0  0  0  0  0  0
  190.0420  174.3460  142.9580 C   0  0  1  0  0  3  0  0  0  0  0  0
  187.1010  178.6370  148.0370 O   0  0  0  0  0  1  0  0  0  0  0  0
  185.0720  178.7010  146.9790 O   0  0  0  0  0  0  0  0  0  0  0  0
  186.4130  178.3400  147.0200 C   0  0  0  0  0  0  0  0  0  0  0  0
  193.9390  176.0630  141.8650 C   0  0  0  0  0  2  0  0  0  0  0  0
  195.3610  176.4980  141.5660 C   0  0  0  0  0  1  0  0  0  0  0  0
  187.4160  176.4560  140.9410 C   0  0  0  0  0  2  0  0  0  0  0  0
  187.2420  177.8320  140.8020 O   0  0  0  0  0  0  0  0  0  0  0  0
  185.8920  177.9820  140.4820 C   0  0  0  0  0  1  0  0  0  0  0  0
  1 28  1  6  0  0  0
  1  3  1  0  0  0  0
  1 13  1  0  0  0  0
  2 14  2  0  0  0  0
  4 19  1  0  0  0  0
  4  9  1  0  0  0  0
  5 23  1  0  0  0  0
  6  3  1  0  0  0  0
  8  7  1  1  0  0  0
  8 17  1  0  0  0  0
  9 12  1  1  0  0  0
 10 14  1  0  0  0  0
 11 15  2  0  0  0  0
 11 16  1  0  0  0  0
 13 22  1  1  0  0  0
 13  4  1  0  0  0  0
 14 27  1  0  0  0  0
 15 10  1  0  0  0  0
 16  8  1  0  0  0  0
 16  2  1  1  0  0  0
 17  9  1  0  0  0  0
 17 12  1  1  0  0  0
 18 20  1  0  0  0  0
 20 30  1  6  0  0  0
 20 11  1  0  0  0  0
 21  6  1  6  0  0  0
 21  8  1  0  0  0  0
 23  7  1  0  0  0  0
 24 18  1  1  0  0  0
 24 21  1  0  0  0  0
 24  5  1  0  0  0  0
 26 27  2  0  0  0  0
 27 25  1  0  0  0  0
 29 28  1  0  0  0  0
 31 30  1  0  0  0  0
 32 31  1  0  0  0  0
M  END
>  <MODEL>
1

>  <REMARK>
 VINA RESULT:      -7.9      0.000      0.000
  Name = 
  4 active torsions:
  status: ('A' for Active; 'I' for Inactive)
    1  A    between atoms: C_1  and  O_4
    2  A    between atoms: C_1  and  C_27
    3  A    between atoms: C_2  and  C_14
    4  A    between atoms: C_19  and  C_26
                            x       y       z     vdW  Elec       q    Type
                         _______ _______ _______ _____ _____    ______ ____

>  <TORSDO>
F 4

$$$$
=
 OpenBabel11052419083D

 32 36  0  0  1  0  0  0  0  0999 V2000
  187.4780  177.7160  143.7940 C   0  0  1  0  0  3  0  0  0  0  0  0
  193.2490  176.5610  144.0040 C   0  0  0  0  0  3  0  0  0  0  0  0
  188.8490  177.9050  144.0910 O   0  0  0  0  0  0  0  0  0  0  0  0
  188.2220  175.4870  142.8360 N   0  0  0  0  0  0  0  0  0  0  0  0
  189.5470  173.5220  145.9390 C   0  0  0  0  0  2  0  0  0  0  0  0
  189.1780  177.2460  145.2890 C   0  0  0  0  0  2  0  0  0  0  0  0
  191.2910  174.1830  144.2850 C   0  0  0  0  0  2  0  0  0  0  0  0
  190.8360  175.6690  144.2410 C   0  0  1  0  0  0  0  0  0  0  0  0
  189.3020  176.0190  141.9950 C   0  0  2  0  0  3  0  0  0  0  0  0
  194.3140  174.9500  145.5450 C   0  0  0  0  0  2  0  0  0  0  0  0
  192.2860  176.1940  146.2850 C   0  0  0  0  0  0  0  0  0  0  0  0
  190.4170  175.0170  141.7620 C   0  0  0  0  0  2  0  0  0  0  0  0
  187.1260  176.4710  142.9570 C   0  0  2  0  0  3  0  0  0  0  0  0
  194.3310  175.8400  144.3280 C   0  0  0  0  0  0  0  0  0  0  0  0
  193.3610  175.4480  146.6030 C   0  0  0  0  0  3  0  0  0  0  0  0
  191.9860  176.5330  144.8420 C   0  0  1  0  0  3  0  0  0  0  0  0
  190.6480  176.1540  142.7500 C   0  0  2  0  0  3  0  0  0  0  0  0
  190.2710  175.3870  147.4780 C   0  0  0  0  0  2  0  0  0  0  0  0
  187.6730  174.2740  142.2370 C   0  0  0  0  0  1  0  0  0  0  0  0
  191.2470  176.5450  147.3030 C   0  0  1  0  0  3  0  0  0  0  0  0
  189.5780  175.8580  145.0300 N   0  0  1  0  0  0  0  0  0  0  0  0
  186.5530  176.9120  141.6070 C   0  0  0  0  0  1  0  0  0  0  0  0
  190.1270  173.2440  144.5560 C   0  0  0  0  0  2  0  0  0  0  0  0
  189.4210  175.0200  146.2420 C   0  0  1  0  0  3  0  0  0  0  0  0
  196.3640  176.7920  143.5380 O   0  0  0  0  0  1  0  0  0  0  0  0
  195.7210  174.8350  142.5400 O   0  0  0  0  0  0  0  0  0  0  0  0
  195.5210  175.8540  143.4630 C   0  0  0  0  0  0  0  0  0  0  0  0
  186.4900  178.0190  144.9250 C   0  0  0  0  0  2  0  0  0  0  0  0
  185.7180  179.2870  144.6090 C   0  0  0  0  0  1  0  0  0  0  0  0
  191.8460  176.9710  148.6360 C   0  0  0  0  0  2  0  0  0  0  0  0
  191.1700  178.0890  149.1210 O   0  0  0  0  0  0  0  0  0  0  0  0
  191.5110  178.1430  150.4730 C   0  0  0  0  0  1  0  0  0  0  0  0
  1  3  1  0  0  0  0
  1 28  1  1  0  0  0
  2 14  2  0  0  0  0
  3  6  1  0  0  0  0
  4 13  1  0  0  0  0
  7 23  1  0  0  0  0
  8  7  1  1  0  0  0
  8 16  1  0  0  0  0
  8 21  1  0  0  0  0
  9 12  1  6  0  0  0
  9 17  1  0  0  0  0
  9  4  1  0  0  0  0
 10 15  1  0  0  0  0
 11 15  2  0  0  0  0
 11 20  1  0  0  0  0
 13 22  1  6  0  0  0
 13  1  1  0  0  0  0
 14 10  1  0  0  0  0
 16  2  1  6  0  0  0
 16 11  1  0  0  0  0
 17 12  1  6  0  0  0
 17  8  1  0  0  0  0
 19  4  1  0  0  0  0
 20 18  1  0  0  0  0
 20 30  1  1  0  0  0
 21  6  1  1  0  0  0
 21 24  1  0  0  0  0
 23  5  1  0  0  0  0
 24  5  1  6  0  0  0
 24 18  1  0  0  0  0
 26 27  2  0  0  0  0
 27 25  1  0  0  0  0
 27 14  1  0  0  0  0
 29 28  1  0  0  0  0
 30 31  1  0  0  0  0
 31 32  1  0  0  0  0
M  END
>  <MODEL>
2

>  <REMARK>
 VINA RESULT:      -7.7      2.022      6.876
  Name = 
  4 active torsions:
  status: ('A' for Active; 'I' for Inactive)
    1  A    between atoms: C_1  and  O_4
    2  A    between atoms: C_1  and  C_27
    3  A    between atoms: C_2  and  C_14
    4  A    between atoms: C_19  and  C_26
                            x       y       z     vdW  Elec       q    Type
                         _______ _______ _______ _____ _____    ______ ____

>  <TORSDO>
F 4

$$$$
=
 OpenBabel11052419083D

 32 36  0  0  1  0  0  0  0  0999 V2000
  193.7430  176.0480  143.1350 C   0  0  1  0  0  3  0  0  0  0  0  0
  188.1920  177.8810  143.8470 C   0  0  0  0  0  3  0  0  0  0  0  0
  192.5010  176.6440  142.8100 O   0  0  0  0  0  0  0  0  0  0  0  0
  192.6420  175.4890  145.3520 N   0  0  0  0  0  0  0  0  0  0  0  0
  189.7940  172.9990  144.3890 C   0  0  0  0  0  2  0  0  0  0  0  0
  191.5960  175.6630  142.3690 C   0  0  0  0  0  2  0  0  0  0  0  0
  189.0190  175.2250  145.2010 C   0  0  0  0  0  2  0  0  0  0  0  0
  189.9400  176.0170  144.2310 C   0  0  1  0  0  0  0  0  0  0  0  0
  192.1450  176.8410  145.6370 C   0  0  2  0  0  3  0  0  0  0  0  0
  186.2020  176.4170  143.8020 C   0  0  0  0  0  2  0  0  0  0  0  0
  188.1720  175.8500  142.3860 C   0  0  0  0  0  0  0  0  0  0  0  0
  190.8970  176.8420  146.5000 C   0  0  0  0  0  2  0  0  0  0  0  0
  193.9040  175.5510  144.5850 C   0  0  2  0  0  3  0  0  0  0  0  0
  186.8870  177.7240  144.1080 C   0  0  0  0  0  0  0  0  0  0  0  0
  186.8670  175.6770  142.6680 C   0  0  0  0  0  3  0  0  0  0  0  0
  189.0230  176.7760  143.2240 C   0  0  1  0  0  3  0  0  0  0  0  0
  190.7570  177.1220  145.0090 C   0  0  2  0  0  3  0  0  0  0  0  0
  189.2850  173.6690  142.0090 C   0  0  0  0  0  2  0  0  0  0  0  0
  192.9100  174.7810  146.6010 C   0  0  0  0  0  1  0  0  0  0  0  0
  188.8750  174.9950  141.3790 C   0  0  1  0  0  3  0  0  0  0  0  0
  190.8560  175.0870  143.4980 N   0  0  1  0  0  0  0  0  0  0  0  0
  195.0000  176.3630  145.2820 C   0  0  0  0  0  1  0  0  0  0  0  0
  189.6380  173.8990  145.6110 C   0  0  0  0  0  2  0  0  0  0  0  0
  190.3140  173.7510  143.1590 C   0  0  1  0  0  3  0  0  0  0  0  0
  185.9380  178.7980  146.0090 O   0  0  0  0  0  1  0  0  0  0  0  0
  185.5870  179.8310  143.9970 O   0  0  0  0  0  0  0  0  0  0  0  0
  186.1240  178.8010  144.7600 C   0  0  0  0  0  0  0  0  0  0  0  0
  194.3490  175.1200  142.0770 C   0  0  0  0  0  2  0  0  0  0  0  0
  195.3090  175.8990  141.1970 C   0  0  0  0  0  1  0  0  0  0  0  0
  188.0570  174.7770  140.1140 C   0  0  0  0  0  2  0  0  0  0  0  0
  188.3200  173.5110  139.5930 O   0  0  0  0  0  0  0  0  0  0  0  0
  188.4630  173.7220  138.2210 C   0  0  0  0  0  1  0  0  0  0  0  0
  1 28  1  6  0  0  0
  1 13  1  0  0  0  0
  2 14  2  0  0  0  0
  3  1  1  0  0  0  0
  4  9  1  0  0  0  0
  4 19  1  0  0  0  0
  5 23  1  0  0  0  0
  6  3  1  0  0  0  0
  7 23  1  0  0  0  0
  8 17  1  0  0  0  0
  8  7  1  1  0  0  0
  9 12  1  1  0  0  0
 10 14  1  0  0  0  0
 11 15  2  0  0  0  0
 11 16  1  0  0  0  0
 13 22  1  1  0  0  0
 13  4  1  0  0  0  0
 14 27  1  0  0  0  0
 15 10  1  0  0  0  0
 16  2  1  1  0  0  0
 16  8  1  0  0  0  0
 17  9  1  0  0  0  0
 17 12  1  1  0  0  0
 20 30  1  6  0  0  0
 20 18  1  0  0  0  0
 20 11  1  0  0  0  0
 21  6  1  6  0  0  0
 21  8  1  0  0  0  0
 24 18  1  6  0  0  0
 24 21  1  0  0  0  0
 24  5  1  0  0  0  0
 26 27  2  0  0  0  0
 27 25  1  0  0  0  0
 29 28  1  0  0  0  0
 31 30  1  0  0  0  0
 32 31  1  0  0  0  0
M  END
>  <MODEL>
3

>  <REMARK>
 VINA RESULT:      -7.6      1.522      1.786
  Name = 
  4 active torsions:
  status: ('A' for Active; 'I' for Inactive)
    1  A    between atoms: C_1  and  O_4
    2  A    between atoms: C_1  and  C_27
    3  A    between atoms: C_2  and  C_14
    4  A    between atoms: C_19  and  C_26
                            x       y       z     vdW  Elec       q    Type
                         _______ _______ _______ _____ _____    ______ ____

>  <TORSDO>
F 4

$$$$
=
 OpenBabel11052419083D

 32 36  0  0  1  0  0  0  0  0999 V2000
  195.6240  176.1570  141.7270 C   0  0  1  0  0  3  0  0  0  0  0  0
  190.8100  176.8920  145.0400 C   0  0  0  0  0  3  0  0  0  0  0  0
  194.3030  176.5400  142.0660 O   0  0  0  0  0  0  0  0  0  0  0  0
  195.7260  175.2410  144.0920 N   0  0  0  0  0  0  0  0  0  0  0  0
  193.0970  172.3560  144.1010 C   0  0  0  0  0  2  0  0  0  0  0  0
  193.4320  175.4470  141.9200 C   0  0  0  0  0  2  0  0  0  0  0  0
  192.4940  174.3360  145.4900 C   0  0  0  0  0  2  0  0  0  0  0  0
  192.7660  175.3530  144.3460 C   0  0  1  0  0  0  0  0  0  0  0  0
  195.2430  176.4550  144.7620 C   0  0  2  0  0  3  0  0  0  0  0  0
  189.2220  175.0980  145.6450 C   0  0  0  0  0  2  0  0  0  0  0  0
  190.3930  175.0070  143.4480 C   0  0  0  0  0  0  0  0  0  0  0  0
  194.5310  176.1650  146.0700 C   0  0  0  0  0  2  0  0  0  0  0  0
  196.4850  175.5890  142.8720 C   0  0  2  0  0  3  0  0  0  0  0  0
  189.7970  176.4820  145.8150 C   0  0  0  0  0  0  0  0  0  0  0  0
  189.3910  174.5790  144.2390 C   0  0  0  0  0  3  0  0  0  0  0  0
  191.4040  176.0060  143.9620 C   0  0  1  0  0  3  0  0  0  0  0  0
  193.6970  176.5260  144.8470 C   0  0  2  0  0  3  0  0  0  0  0  0
  191.4860  173.0990  142.3060 C   0  0  0  0  0  2  0  0  0  0  0  0
  196.6190  174.5020  144.9810 C   0  0  0  0  0  1  0  0  0  0  0  0
  190.6680  174.3730  142.1210 C   0  0  1  0  0  3  0  0  0  0  0  0
  193.3630  174.6630  143.1580 N   0  0  1  0  0  0  0  0  0  0  0  0
  197.6630  176.5320  143.1380 C   0  0  0  0  0  1  0  0  0  0  0  0
  193.3960  173.1170  145.3880 C   0  0  0  0  0  2  0  0  0  0  0  0
  192.9030  173.2800  142.8940 C   0  0  1  0  0  3  0  0  0  0  0  0
  190.0660  177.9160  147.6950 O   0  0  0  0  0  1  0  0  0  0  0  0
  187.9100  177.5440  147.0200 O   0  0  0  0  0  0  0  0  0  0  0  0
  189.2800  177.3500  146.8840 C   0  0  0  0  0  0  0  0  0  0  0  0
  195.7990  175.4370  140.3860 C   0  0  0  0  0  2  0  0  0  0  0  0
  196.5950  174.1610  140.5870 C   0  0  0  0  0  1  0  0  0  0  0  0
  189.4030  174.1060  141.3190 C   0  0  0  0  0  2  0  0  0  0  0  0
  189.7370  173.6900  140.0320 O   0  0  0  0  0  0  0  0  0  0  0  0
  188.5910  173.0470  139.5640 C   0  0  0  0  0  1  0  0  0  0  0  0
  1 28  1  6  0  0  0
  1  3  1  0  0  0  0
  1 13  1  0  0  0  0
  2 14  2  0  0  0  0
  4  9  1  0  0  0  0
  4 19  1  0  0  0  0
  5 23  1  0  0  0  0
  6  3  1  0  0  0  0
  8 17  1  0  0  0  0
  8  7  1  1  0  0  0
  9 17  1  0  0  0  0
  9 12  1  1  0  0  0
 10 14  1  0  0  0  0
 11 16  1  0  0  0  0
 11 15  2  0  0  0  0
 13 22  1  1  0  0  0
 13  4  1  0  0  0  0
 14 27  1  0  0  0  0
 15 10  1  0  0  0  0
 16  8  1  0  0  0  0
 16  2  1  1  0  0  0
 17 12  1  1  0  0  0
 20 30  1  1  0  0  0
 20 18  1  0  0  0  0
 20 11  1  0  0  0  0
 21  6  1  6  0  0  0
 21  8  1  0  0  0  0
 23  7  1  0  0  0  0
 24 18  1  1  0  0  0
 24 21  1  0  0  0  0
 24  5  1  0  0  0  0
 27 26  2  0  0  0  0
 27 25  1  0  0  0  0
 28 29  1  0  0  0  0
 31 30  1  0  0  0  0
 32 31  1  0  0  0  0
M  END
>  <MODEL>
4

>  <REMARK>
 VINA RESULT:      -6.8      2.324      3.244
  Name = 
  4 active torsions:
  status: ('A' for Active; 'I' for Inactive)
    1  A    between atoms: C_1  and  O_4
    2  A    between atoms: C_1  and  C_27
    3  A    between atoms: C_2  and  C_14
    4  A    between atoms: C_19  and  C_26
                            x       y       z     vdW  Elec       q    Type
                         _______ _______ _______ _____ _____    ______ ____

>  <TORSDO>
F 4

$$$$
=
 OpenBabel11052419083D

 32 36  0  0  1  0  0  0  0  0999 V2000
  188.1770  175.7750  141.6540 C   0  0  1  0  0  3  0  0  0  0  0  0
  193.6410  175.9260  143.8480 C   0  0  0  0  0  3  0  0  0  0  0  0
  189.3160  176.2890  142.3210 O   0  0  0  0  0  0  0  0  0  0  0  0
  189.5570  173.6600  141.4030 N   0  0  0  0  0  0  0  0  0  0  0  0
  190.0530  172.4150  145.0700 C   0  0  0  0  0  2  0  0  0  0  0  0
  189.3220  175.8660  143.6610 C   0  0  0  0  0  2  0  0  0  0  0  0
  192.1220  173.2330  143.9440 C   0  0  0  0  0  2  0  0  0  0  0  0
  191.4720  174.5690  143.4880 C   0  0  1  0  0  0  0  0  0  0  0  0
  190.7560  174.3070  140.8530 C   0  0  2  0  0  3  0  0  0  0  0  0
  194.3680  174.7800  145.9130 C   0  0  0  0  0  2  0  0  0  0  0  0
  192.0350  175.6370  145.7460 C   0  0  0  0  0  0  0  0  0  0  0  0
  192.0320  173.5490  141.1660 C   0  0  0  0  0  2  0  0  0  0  0  0
  188.3400  174.3910  140.9950 C   0  0  2  0  0  3  0  0  0  0  0  0
  194.6510  175.4990  144.6180 C   0  0  0  0  0  0  0  0  0  0  0  0
  193.0450  175.1840  146.5130 C   0  0  0  0  0  3  0  0  0  0  0  0
  192.1910  175.7260  144.2450 C   0  0  1  0  0  3  0  0  0  0  0  0
  191.7240  174.8190  141.9490 C   0  0  2  0  0  3  0  0  0  0  0  0
  189.8960  174.5640  146.3850 C   0  0  0  0  0  2  0  0  0  0  0  0
  189.4510  172.2940  140.8980 C   0  0  0  0  0  1  0  0  0  0  0  0
  190.6700  175.8750  146.3090 C   0  0  1  0  0  3  0  0  0  0  0  0
  190.0070  174.5760  143.8000 N   0  0  1  0  0  0  0  0  0  0  0  0
  188.1950  174.5320  139.4770 C   0  0  0  0  0  1  0  0  0  0  0  0
  191.1060  172.1040  144.0110 C   0  0  0  0  0  2  0  0  0  0  0  0
  189.5890  173.8760  145.0370 C   0  0  1  0  0  3  0  0  0  0  0  0
  196.9180  174.7950  144.4490 O   0  0  0  0  0  1  0  0  0  0  0  0
  196.4150  176.7980  143.4620 O   0  0  0  0  0  0  0  0  0  0  0  0
  196.0450  175.6660  144.1760 C   0  0  0  0  0  0  0  0  0  0  0  0
  186.8290  175.9920  142.3480 C   0  0  0  0  0  2  0  0  0  0  0  0
  186.2250  177.3090  141.8990 C   0  0  0  0  0  1  0  0  0  0  0  0
  190.7020  176.5780  147.6590 C   0  0  0  0  0  2  0  0  0  0  0  0
  190.0660  177.8150  147.5630 O   0  0  0  0  0  0  0  0  0  0  0  0
  188.8660  177.5410  146.9080 C   0  0  0  0  0  1  0  0  0  0  0  0
  1  3  1  0  0  0  0
  1 28  1  1  0  0  0
  2 14  2  0  0  0  0
  3  6  1  0  0  0  0
  7 23  1  0  0  0  0
  8 21  1  0  0  0  0
  8  7  1  1  0  0  0
  8 16  1  0  0  0  0
  9 12  1  6  0  0  0
  9  4  1  0  0  0  0
  9 17  1  0  0  0  0
 10 15  1  0  0  0  0
 11 20  1  0  0  0  0
 11 15  2  0  0  0  0
 13 22  1  6  0  0  0
 13  4  1  0  0  0  0
 13  1  1  0  0  0  0
 14 10  1  0  0  0  0
 16  2  1  1  0  0  0
 16 11  1  0  0  0  0
 17 12  1  6  0  0  0
 17  8  1  0  0  0  0
 19  4  1  0  0  0  0
 20 18  1  0  0  0  0
 20 30  1  1  0  0  0
 21  6  1  1  0  0  0
 21 24  1  0  0  0  0
 23  5  1  0  0  0  0
 24  5  1  1  0  0  0
 24 18  1  0  0  0  0
 26 27  2  0  0  0  0
 27 25  1  0  0  0  0
 27 14  1  0  0  0  0
 29 28  1  0  0  0  0
 31 30  1  0  0  0  0
 32 31  1  0  0  0  0
M  END
>  <MODEL>
5

>  <REMARK>
 VINA RESULT:      -6.7      2.113      6.479
  Name = 
  4 active torsions:
  status: ('A' for Active; 'I' for Inactive)
    1  A    between atoms: C_1  and  O_4
    2  A    between atoms: C_1  and  C_27
    3  A    between atoms: C_2  and  C_14
    4  A    between atoms: C_19  and  C_26
                            x       y       z     vdW  Elec       q    Type
                         _______ _______ _______ _____ _____    ______ ____

>  <TORSDO>
F 4

$$$$
=
 OpenBabel11052419083D

 32 36  0  0  1  0  0  0  0  0999 V2000
  191.7040  174.7440  146.9320 C   0  0  1  0  0  3  0  0  0  0  0  0
  188.7830  174.2410  141.8420 C   0  0  0  0  0  3  0  0  0  0  0  0
  190.6640  174.3890  146.0390 O   0  0  0  0  0  0  0  0  0  0  0  0
  192.7850  175.8070  144.8960 N   0  0  0  0  0  0  0  0  0  0  0  0
  190.3450  178.6990  143.9340 C   0  0  0  0  0  2  0  0  0  0  0  0
  189.7880  175.4750  145.8630 C   0  0  0  0  0  2  0  0  0  0  0  0
  190.4380  176.8120  142.3070 C   0  0  0  0  0  2  0  0  0  0  0  0
  190.2190  175.7240  143.3950 C   0  0  1  0  0  0  0  0  0  0  0  0
  192.6610  174.6390  144.0130 C   0  0  2  0  0  3  0  0  0  0  0  0
  187.5640  176.0760  140.7240 C   0  0  0  0  0  2  0  0  0  0  0  0
  187.6830  176.0240  143.2120 C   0  0  0  0  0  0  0  0  0  0  0  0
  192.5690  175.0150  142.5460 C   0  0  0  0  0  2  0  0  0  0  0  0
  192.9580  175.3790  146.3000 C   0  0  2  0  0  3  0  0  0  0  0  0
  188.1880  174.7040  140.7350 C   0  0  0  0  0  0  0  0  0  0  0  0
  187.1040  176.5040  142.0950 C   0  0  0  0  0  3  0  0  0  0  0  0
  188.8390  175.0540  143.1210 C   0  0  1  0  0  3  0  0  0  0  0  0
  191.3020  174.5810  143.2720 C   0  0  2  0  0  3  0  0  0  0  0  0
  188.1400  177.8500  144.8220 C   0  0  0  0  0  2  0  0  0  0  0  0
  193.9540  176.5970  144.5190 C   0  0  0  0  0  1  0  0  0  0  0  0
  187.3510  176.5710  144.5640 C   0  0  1  0  0  3  0  0  0  0  0  0
  190.2370  176.3360  144.7620 N   0  0  1  0  0  0  0  0  0  0  0  0
  194.1580  174.4500  146.5080 C   0  0  0  0  0  1  0  0  0  0  0  0
  191.1830  178.0190  142.8560 C   0  0  0  0  0  2  0  0  0  0  0  0
  189.6760  177.7010  144.8860 C   0  0  1  0  0  3  0  0  0  0  0  0
  188.3950  172.6600  139.5320 O   0  0  0  0  0  1  0  0  0  0  0  0
  187.9990  174.5290  138.2710 O   0  0  0  0  0  0  0  0  0  0  0  0
  188.1970  173.9070  139.4970 C   0  0  0  0  0  0  0  0  0  0  0  0
  191.2740  175.3770  148.2590 C   0  0  0  0  0  2  0  0  0  0  0  0
  191.5720  176.8650  148.2400 C   0  0  0  0  0  1  0  0  0  0  0  0
  185.8580  176.7920  144.7620 C   0  0  0  0  0  2  0  0  0  0  0  0
  185.5630  176.8330  146.1240 O   0  0  0  0  0  0  0  0  0  0  0  0
  184.6590  177.8880  146.2530 C   0  0  0  0  0  1  0  0  0  0  0  0
  1 28  1  1  0  0  0
  3  1  1  0  0  0  0
  4 13  1  0  0  0  0
  6  3  1  0  0  0  0
  7 23  1  0  0  0  0
  8  7  1  6  0  0  0
  8 21  1  0  0  0  0
  9 12  1  6  0  0  0
  9  4  1  0  0  0  0
 10 14  1  0  0  0  0
 10 15  1  0  0  0  0
 11 20  1  0  0  0  0
 13 22  1  6  0  0  0
 13  1  1  0  0  0  0
 14  2  2  0  0  0  0
 15 11  2  0  0  0  0
 16  2  1  6  0  0  0
 16 11  1  0  0  0  0
 16  8  1  0  0  0  0
 17 12  1  6  0  0  0
 17  8  1  0  0  0  0
 17  9  1  0  0  0  0
 18 24  1  0  0  0  0
 19  4  1  0  0  0  0
 20 30  1  6  0  0  0
 20 18  1  0  0  0  0
 21 24  1  0  0  0  0
 21  6  1  1  0  0  0
 23  5  1  0  0  0  0
 24  5  1  6  0  0  0
 26 27  2  0  0  0  0
 27 25  1  0  0  0  0
 27 14  1  0  0  0  0
 29 28  1  0  0  0  0
 30 31  1  0  0  0  0
 31 32  1  0  0  0  0
M  END
>  <MODEL>
6

>  <REMARK>
 VINA RESULT:      -6.5      1.941      5.031
  Name = 
  4 active torsions:
  status: ('A' for Active; 'I' for Inactive)
    1  A    between atoms: C_1  and  O_4
    2  A    between atoms: C_1  and  C_27
    3  A    between atoms: C_2  and  C_14
    4  A    between atoms: C_19  and  C_26
                            x       y       z     vdW  Elec       q    Type
                         _______ _______ _______ _____ _____    ______ ____

>  <TORSDO>
F 4

$$$$
=
 OpenBabel11052419083D

 32 36  0  0  1  0  0  0  0  0999 V2000
  193.2340  171.3820  144.2560 C   0  0  1  0  0  3  0  0  0  0  0  0
  188.9580  175.4050  143.7940 C   0  0  0  0  0  3  0  0  0  0  0  0
  192.0660  172.1080  144.5930 O   0  0  0  0  0  0  0  0  0  0  0  0
  193.3970  172.9880  142.2970 N   0  0  0  0  0  0  0  0  0  0  0  0
  194.0120  176.4600  143.9730 C   0  0  0  0  0  2  0  0  0  0  0  0
  192.4110  173.2780  145.2920 C   0  0  0  0  0  2  0  0  0  0  0  0
  191.7960  176.2040  142.8590 C   0  0  0  0  0  2  0  0  0  0  0  0
  191.4740  174.8610  143.5740 C   0  0  1  0  0  0  0  0  0  0  0  0
  192.0160  172.8190  141.8270 C   0  0  2  0  0  3  0  0  0  0  0  0
  189.2160  177.8090  144.3020 C   0  0  0  0  0  2  0  0  0  0  0  0
  190.5400  176.1360  145.5890 C   0  0  0  0  0  0  0  0  0  0  0  0
  191.4820  174.0430  141.1090 C   0  0  0  0  0  2  0  0  0  0  0  0
  193.8940  171.7380  142.9090 C   0  0  2  0  0  3  0  0  0  0  0  0
  188.4670  176.6480  143.6990 C   0  0  0  0  0  0  0  0  0  0  0  0
  190.0650  177.3910  145.4760 C   0  0  0  0  0  3  0  0  0  0  0  0
  190.2570  175.1090  144.5170 C   0  0  1  0  0  3  0  0  0  0  0  0
  191.0150  173.7670  142.5320 C   0  0  2  0  0  3  0  0  0  0  0  0
  192.9320  176.1560  146.2340 C   0  0  0  0  0  2  0  0  0  0  0  0
  194.2710  173.3170  141.1740 C   0  0  0  0  0  1  0  0  0  0  0  0
  191.5200  175.7630  146.6560 C   0  0  1  0  0  3  0  0  0  0  0  0
  192.6550  174.3890  144.3650 N   0  0  1  0  0  0  0  0  0  0  0  0
  193.8180  170.5300  141.9710 C   0  0  0  0  0  1  0  0  0  0  0  0
  193.2890  176.3790  142.6330 C   0  0  0  0  0  2  0  0  0  0  0  0
  193.4970  175.4360  144.9910 C   0  0  1  0  0  3  0  0  0  0  0  0
  186.2060  176.1820  143.1190 O   0  0  0  0  0  1  0  0  0  0  0  0
  187.1800  177.9390  142.0210 O   0  0  0  0  0  0  0  0  0  0  0  0
  187.2290  176.9030  142.9460 C   0  0  0  0  0  0  0  0  0  0  0  0
  194.2240  171.1190  145.3960 C   0  0  0  0  0  2  0  0  0  0  0  0
  195.5810  171.6960  145.0430 C   0  0  0  0  0  1  0  0  0  0  0  0
  191.1660  176.3470  148.0150 C   0  0  0  0  0  2  0  0  0  0  0  0
  192.1030  177.3150  148.3740 O   0  0  0  0  0  0  0  0  0  0  0  0
  191.5660  177.9160  149.5130 C   0  0  0  0  0  1  0  0  0  0  0  0
  1  3  1  0  0  0  0
  1 28  1  1  0  0  0
  3  6  1  0  0  0  0
  4 13  1  0  0  0  0
  8  7  1  6  0  0  0
  8 21  1  0  0  0  0
  8 16  1  0  0  0  0
  9 12  1  6  0  0  0
  9  4  1  0  0  0  0
  9 17  1  0  0  0  0
 10 15  1  0  0  0  0
 11 20  1  0  0  0  0
 13 22  1  6  0  0  0
 13  1  1  0  0  0  0
 14  2  2  0  0  0  0
 14 10  1  0  0  0  0
 15 11  2  0  0  0  0
 16  2  1  6  0  0  0
 16 11  1  0  0  0  0
 17 12  1  6  0  0  0
 17  8  1  0  0  0  0
 18 20  1  0  0  0  0
 19  4  1  0  0  0  0
 20 30  1  1  0  0  0
 21 24  1  0  0  0  0
 21  6  1  1  0  0  0
 23  7  1  0  0  0  0
 23  5  1  0  0  0  0
 24  5  1  6  0  0  0
 24 18  1  0  0  0  0
 26 27  2  0  0  0  0
 27 25  1  0  0  0  0
 27 14  1  0  0  0  0
 29 28  1  0  0  0  0
 30 31  1  0  0  0  0
 31 32  1  0  0  0  0
M  END
>  <MODEL>
7

>  <REMARK>
 VINA RESULT:      -6.4      2.504      5.305
  Name = 
  4 active torsions:
  status: ('A' for Active; 'I' for Inactive)
    1  A    between atoms: C_1  and  O_4
    2  A    between atoms: C_1  and  C_27
    3  A    between atoms: C_2  and  C_14
    4  A    between atoms: C_19  and  C_26
                            x       y       z     vdW  Elec       q    Type
                         _______ _______ _______ _____ _____    ______ ____

>  <TORSDO>
F 4

$$$$
=
 OpenBabel11052419083D

 32 36  0  0  1  0  0  0  0  0999 V2000
  188.8000  176.6890  143.2220 C   0  0  1  0  0  3  0  0  0  0  0  0
  192.4060  172.1150  144.0930 C   0  0  0  0  0  3  0  0  0  0  0  0
  189.5930  175.5580  142.9100 O   0  0  0  0  0  0  0  0  0  0  0  0
  189.6420  176.3460  145.5920 N   0  0  0  0  0  0  0  0  0  0  0  0
  193.4800  177.0130  145.3350 C   0  0  0  0  0  2  0  0  0  0  0  0
  190.9320  175.9430  142.7290 C   0  0  0  0  0  2  0  0  0  0  0  0
  192.8500  174.6480  145.8110 C   0  0  0  0  0  2  0  0  0  0  0  0
  191.8310  174.5730  144.6400 C   0  0  1  0  0  0  0  0  0  0  0  0
  189.3170  174.9160  145.6800 C   0  0  2  0  0  3  0  0  0  0  0  0
  194.8400  172.2860  144.4800 C   0  0  0  0  0  2  0  0  0  0  0  0
  193.7130  173.9570  143.0170 C   0  0  0  0  0  0  0  0  0  0  0  0
  190.2210  174.1620  146.6360 C   0  0  0  0  0  2  0  0  0  0  0  0
  188.6780  177.0450  144.7170 C   0  0  2  0  0  3  0  0  0  0  0  0
  193.5400  171.5230  144.4920 C   0  0  0  0  0  0  0  0  0  0  0  0
  194.8520  173.3770  143.4390 C   0  0  0  0  0  3  0  0  0  0  0  0
  192.3800  173.5490  143.6020 C   0  0  1  0  0  3  0  0  0  0  0  0
  190.4440  174.0030  145.1370 C   0  0  2  0  0  3  0  0  0  0  0  0
  193.9620  176.4200  142.9290 C   0  0  0  0  0  2  0  0  0  0  0  0
  189.5710  176.9570  146.9160 C   0  0  0  0  0  1  0  0  0  0  0  0
  193.7300  175.1520  142.1160 C   0  0  1  0  0  3  0  0  0  0  0  0
  191.6610  175.9180  144.0020 N   0  0  1  0  0  0  0  0  0  0  0  0
  187.2210  176.8770  145.1620 C   0  0  0  0  0  1  0  0  0  0  0  0
  192.9430  176.0510  146.3900 C   0  0  0  0  0  2  0  0  0  0  0  0
  192.8620  176.7840  143.9510 C   0  0  1  0  0  3  0  0  0  0  0  0
  194.2540  169.8080  145.9800 O   0  0  0  0  0  1  0  0  0  0  0  0
  192.6910  169.1970  144.4240 O   0  0  0  0  0  0  0  0  0  0  0  0
  193.5180  170.1460  145.0110 C   0  0  0  0  0  0  0  0  0  0  0  0
  188.9450  177.8980  142.2930 C   0  0  0  0  0  2  0  0  0  0  0  0
  187.8070  177.9170  141.2900 C   0  0  0  0  0  1  0  0  0  0  0  0
  194.7420  175.0260  140.9860 C   0  0  0  0  0  2  0  0  0  0  0  0
  195.4870  176.2000  140.8860 O   0  0  0  0  0  0  0  0  0  0  0  0
  196.7890  175.7660  140.6370 C   0  0  0  0  0  1  0  0  0  0  0  0
  1 28  1  6  0  0  0
  1 13  1  0  0  0  0
  2 14  2  0  0  0  0
  3  1  1  0  0  0  0
  4  9  1  0  0  0  0
  4 19  1  0  0  0  0
  5 23  1  0  0  0  0
  6  3  1  0  0  0  0
  7 23  1  0  0  0  0
  8 17  1  0  0  0  0
  8  7  1  1  0  0  0
  9 12  1  1  0  0  0
 10 14  1  0  0  0  0
 11 15  2  0  0  0  0
 11 16  1  0  0  0  0
 13 22  1  1  0  0  0
 13  4  1  0  0  0  0
 14 27  1  0  0  0  0
 15 10  1  0  0  0  0
 16  2  1  1  0  0  0
 16  8  1  0  0  0  0
 17  9  1  0  0  0  0
 17 12  1  1  0  0  0
 20 30  1  6  0  0  0
 20 18  1  0  0  0  0
 20 11  1  0  0  0  0
 21  6  1  6  0  0  0
 21  8  1  0  0  0  0
 24 18  1  6  0  0  0
 24 21  1  0  0  0  0
 24  5  1  0  0  0  0
 26 27  2  0  0  0  0
 27 25  1  0  0  0  0
 29 28  1  0  0  0  0
 31 30  1  0  0  0  0
 32 31  1  0  0  0  0
M  END
>  <MODEL>
8

>  <REMARK>
 VINA RESULT:      -6.2      2.803      6.715
  Name = 
  4 active torsions:
  status: ('A' for Active; 'I' for Inactive)
    1  A    between atoms: C_1  and  O_4
    2  A    between atoms: C_1  and  C_27
    3  A    between atoms: C_2  and  C_14
    4  A    between atoms: C_19  and  C_26
                            x       y       z     vdW  Elec       q    Type
                         _______ _______ _______ _____ _____    ______ ____

>  <TORSDO>
F 4

$$$$
=
 OpenBabel11052419083D

 32 36  0  0  1  0  0  0  0  0999 V2000
  192.3300  170.1760  143.6080 C   0  0  1  0  0  3  0  0  0  0  0  0
  189.3140  174.8560  145.5290 C   0  0  0  0  0  3  0  0  0  0  0  0
  191.8460  171.1500  144.5150 O   0  0  0  0  0  0  0  0  0  0  0  0
  191.0040  171.4610  141.8670 N   0  0  0  0  0  0  0  0  0  0  0  0
  192.7810  174.9330  141.7000 C   0  0  0  0  0  2  0  0  0  0  0  0
  192.6360  172.3100  144.4440 C   0  0  0  0  0  2  0  0  0  0  0  0
  190.4840  174.9690  142.6680 C   0  0  0  0  0  2  0  0  0  0  0  0
  190.7730  173.8150  143.6680 C   0  0  1  0  0  0  0  0  0  0  0  0
  189.7410  171.5020  142.6160 C   0  0  2  0  0  3  0  0  0  0  0  0
  189.9420  177.2090  145.1170 C   0  0  0  0  0  2  0  0  0  0  0  0
  191.7280  175.4900  145.3540 C   0  0  0  0  0  0  0  0  0  0  0  0
  188.8870  172.7070  142.2680 C   0  0  0  0  0  2  0  0  0  0  0  0
  191.7530  170.2260  142.1800 C   0  0  2  0  0  3  0  0  0  0  0  0
  188.9600  176.1480  145.5440 C   0  0  0  0  0  0  0  0  0  0  0  0
  191.3720  176.7880  145.3440 C   0  0  0  0  0  3  0  0  0  0  0  0
  190.7000  174.4090  145.1080 C   0  0  1  0  0  3  0  0  0  0  0  0
  189.6510  172.7070  143.5860 C   0  0  2  0  0  3  0  0  0  0  0  0
  193.7790  175.1300  144.0110 C   0  0  0  0  0  2  0  0  0  0  0  0
  190.7340  171.4710  140.4320 C   0  0  0  0  0  1  0  0  0  0  0  0
  193.1640  175.0720  145.4050 C   0  0  1  0  0  3  0  0  0  0  0  0
  192.1280  173.2280  143.4180 N   0  0  1  0  0  0  0  0  0  0  0  0
  190.9550  168.9460  141.9100 C   0  0  0  0  0  1  0  0  0  0  0  0
  191.2920  174.8240  141.3890 C   0  0  0  0  0  2  0  0  0  0  0  0
  193.1830  174.1630  142.9630 C   0  0  1  0  0  3  0  0  0  0  0  0
  186.8430  177.1320  145.0830 O   0  0  0  0  0  0  0  0  0  0  0  0
  187.1090  176.2700  147.1860 O   0  0  0  0  0  1  0  0  0  0  0  0
  187.5900  176.5400  145.9110 C   0  0  0  0  0  0  0  0  0  0  0  0
  193.8310  169.8730  143.6740 C   0  0  0  0  0  2  0  0  0  0  0  0
  194.0950  168.8050  144.7190 C   0  0  0  0  0  1  0  0  0  0  0  0
  193.9800  175.8800  146.4030 C   0  0  0  0  0  2  0  0  0  0  0  0
  195.0790  176.4520  145.7640 O   0  0  0  0  0  0  0  0  0  0  0  0
  194.8980  177.8260  145.9200 C   0  0  0  0  0  1  0  0  0  0  0  0
  1 28  1  6  0  0  0
  1  3  1  0  0  0  0
  2 14  2  0  0  0  0
  4 13  1  0  0  0  0
  4  9  1  0  0  0  0
  6  3  1  0  0  0  0
  8  7  1  6  0  0  0
  8 16  1  0  0  0  0
  9 12  1  6  0  0  0
  9 17  1  0  0  0  0
 10 15  1  0  0  0  0
 10 14  1  0  0  0  0
 11 20  1  0  0  0  0
 13 22  1  1  0  0  0
 13  1  1  0  0  0  0
 14 27  1  0  0  0  0
 15 11  2  0  0  0  0
 16 11  1  0  0  0  0
 16  2  1  6  0  0  0
 17 12  1  6  0  0  0
 17  8  1  0  0  0  0
 18 20  1  0  0  0  0
 19  4  1  0  0  0  0
 20 30  1  1  0  0  0
 21  8  1  0  0  0  0
 21  6  1  1  0  0  0
 23  5  1  0  0  0  0
 23  7  1  0  0  0  0
 24  5  1  6  0  0  0
 24 21  1  0  0  0  0
 24 18  1  0  0  0  0
 25 27  2  0  0  0  0
 27 26  1  0  0  0  0
 28 29  1  0  0  0  0
 31 32  1  0  0  0  0
 31 30  1  0  0  0  0
M  END
>  <MODEL>
9

>  <REMARK>
 VINA RESULT:      -6.2      2.852      5.653
  Name = 
  4 active torsions:
  status: ('A' for Active; 'I' for Inactive)
    1  A    between atoms: C_1  and  O_4
    2  A    between atoms: C_1  and  C_27
    3  A    between atoms: C_2  and  C_14
    4  A    between atoms: C_19  and  C_26
                            x       y       z     vdW  Elec       q    Type
                         _______ _______ _______ _____ _____    ______ ____

>  <TORSDO>
F 4

$$$$
