=
 OpenBabel11052419393D

 55 59  0  0  1  0  0  0  0  0999 V2000
  188.8530  174.1090  141.4870 C   0  0  2  0  0  3  0  0  0  0  0  0
  188.2000  177.0710  140.9800 C   0  0  0  0  0  1  0  0  0  0  0  0
  187.1940  178.3710  143.2190 O   0  0  0  0  0  0  0  0  0  0  0  0
  187.4350  177.1380  143.3470 C   0  0  0  0  0  0  0  0  0  0  0  0
  187.8220  174.9240  142.2220 C   0  0  0  0  0  0  0  0  0  0  0  0
  187.8230  176.3650  142.2000 N   0  0  0  0  0  0  0  0  0  0  0  0
  186.9490  174.3100  142.8910 O   0  0  0  0  0  0  0  0  0  0  0  0
  187.3920  176.5090  144.7160 C   0  0  2  0  0  3  0  0  0  0  0  0
  185.1270  177.3770  145.4720 C   0  0  0  0  0  3  0  0  0  0  0  0
  184.3270  178.0280  146.4170 C   0  0  0  0  0  3  0  0  0  0  0  0
  187.0480  177.6320  146.9180 C   0  0  0  0  0  3  0  0  0  0  0  0
  186.2490  178.2820  147.8640 C   0  0  0  0  0  3  0  0  0  0  0  0
  184.8900  178.4820  147.6150 C   0  0  0  0  0  3  0  0  0  0  0  0
  186.4920  177.1710  145.7210 C   0  0  0  0  0  0  0  0  0  0  0  0
  188.9110  174.9720  145.7830 O   0  0  0  0  0  1  0  0  0  0  0  0
  189.8050  177.1520  145.2490 C   0  0  0  0  0  0  0  0  0  0  0  0
  189.5700  178.3760  145.0690 O   0  0  0  0  0  0  0  0  0  0  0  0
  188.7220  176.2000  145.2410 N   0  0  0  0  0  0  0  0  0  0  0  0
  191.7620  177.3280  142.7800 Cl  0  0  0  0  0  0  0  0  0  0  0  0
  191.5950  176.2240  146.6920 C   0  0  0  0  0  3  0  0  0  0  0  0
  192.8900  175.7470  146.8990 C   0  0  0  0  0  3  0  0  0  0  0  0
  192.1390  176.7010  144.3770 C   0  0  0  0  0  0  0  0  0  0  0  0
  193.4350  176.2280  144.5960 C   0  0  0  0  0  3  0  0  0  0  0  0
  193.8210  175.7560  145.8520 C   0  0  0  0  0  0  0  0  0  0  0  0
  191.2020  176.7050  145.4350 C   0  0  0  0  0  0  0  0  0  0  0  0
  195.2070  175.2070  146.0230 C   0  0  0  0  0  3  0  0  0  0  0  0
  195.8900  174.9110  144.6980 C   0  0  0  0  0  2  0  0  0  0  0  0
  195.2530  173.7850  145.4820 C   0  0  0  0  0  2  0  0  0  0  0  0
  192.8110  173.2180  143.0640 C   0  0  0  0  0  3  0  0  0  0  0  0
  190.2170  174.0520  142.1900 C   0  0  2  0  0  3  0  0  0  0  0  0
  191.3560  173.9610  141.1670 C   0  0  0  0  0  2  0  0  0  0  0  0
  191.6260  173.0330  143.9770 C   0  0  0  0  0  2  0  0  0  0  0  0
  192.6920  173.6830  141.8100 C   0  0  0  0  0  3  0  0  0  0  0  0
  190.3170  172.9080  143.2010 C   0  0  0  0  0  2  0  0  0  0  0  0
  188.9830  174.5330  140.1340 O   0  0  0  0  0  0  0  0  0  0  0  0
  188.9890  173.6340  139.0670 C   0  0  0  0  0  0  0  0  0  0  0  0
  190.0860  173.6020  138.1470 N   0  0  0  0  0  2  0  0  0  0  0  0
  188.0060  172.8520  138.9190 O   0  0  0  0  0  0  0  0  0  0  0  0
  192.1990  169.6490  136.7880 C   0  0  1  0  0  3  0  0  0  0  0  0
  190.2390  172.5390  137.1710 C   0  0  1  0  0  3  0  0  0  0  0  0
  189.9740  169.0350  137.5150 O   0  0  0  0  0  1  0  0  0  0  0  0
  192.6620  172.8910  136.4210 C   0  0  0  0  0  3  0  0  0  0  0  0
  191.1990  172.9940  136.0680 C   0  0  1  0  0  3  0  0  0  0  0  0
  190.7310  170.0690  136.9500 C   0  0  1  0  0  3  0  0  0  0  0  0
  192.3350  168.1690  136.4210 C   0  0  0  0  0  1  0  0  0  0  0  0
  190.6650  171.2610  137.8870 C   0  0  0  0  0  2  0  0  0  0  0  0
  193.4110  171.7870  136.3100 C   0  0  0  0  0  3  0  0  0  0  0  0
  192.9030  170.5290  135.8430 N   0  0  0  0  0  0  0  0  0  0  0  0
  190.9050  172.3720  134.8530 O   0  0  0  0  0  0  0  0  0  0  0  0
  189.5940  172.7590  134.5550 C   0  0  0  0  0  1  0  0  0  0  0  0
  193.5030  169.9930  134.6230 C   0  0  0  0  0  2  0  0  0  0  0  0
  195.0020  170.2200  134.6310 C   0  0  0  0  0  2  0  0  0  0  0  0
  195.7170  168.9180  134.9190 C   0  0  0  0  0  2  0  0  0  0  0  0
  196.7910  169.8930  136.5790 C   0  0  0  0  0  1  0  0  0  0  0  0
  195.9620  168.8120  136.2870 O   0  0  0  0  0  0  0  0  0  0  0  0
  1 35  1  6  0  0  0
  1  5  1  0  0  0  0
  2  6  1  0  0  0  0
  3  4  2  0  0  0  0
  5  7  2  0  0  0  0
  6  5  1  0  0  0  0
  6  4  1  0  0  0  0
  8  4  1  6  0  0  0
  8 18  1  0  0  0  0
  8 14  1  0  0  0  0
  9 14  2  0  0  0  0
  9 10  1  0  0  0  0
 10 13  2  0  0  0  0
 11 12  2  0  0  0  0
 13 12  1  0  0  0  0
 14 11  1  0  0  0  0
 16 25  1  0  0  0  0
 17 16  2  0  0  0  0
 18 16  1  0  0  0  0
 18 15  1  0  0  0  0
 19 22  1  0  0  0  0
 20 21  1  0  0  0  0
 22 23  2  0  0  0  0
 22 25  1  0  0  0  0
 23 24  1  0  0  0  0
 24 26  1  0  0  0  0
 24 21  2  0  0  0  0
 25 20  2  0  0  0  0
 27 28  1  0  0  0  0
 27 26  1  0  0  0  0
 28 26  1  0  0  0  0
 29 32  1  0  0  0  0
 30  1  1  6  0  0  0
 30 34  1  0  0  0  0
 31 33  1  0  0  0  0
 31 30  1  0  0  0  0
 33 29  2  0  0  0  0
 34 32  1  0  0  0  0
 36 35  1  0  0  0  0
 37 36  1  0  0  0  0
 38 36  2  0  0  0  0
 39 45  1  6  0  0  0
 39 44  1  0  0  0  0
 40 46  1  0  0  0  0
 40 37  1  1  0  0  0
 43 49  1  6  0  0  0
 43 42  1  0  0  0  0
 43 40  1  0  0  0  0
 44 41  1  1  0  0  0
 44 46  1  0  0  0  0
 47 42  2  0  0  0  0
 48 47  1  0  0  0  0
 48 39  1  0  0  0  0
 50 49  1  0  0  0  0
 51 52  1  0  0  0  0
 51 48  1  0  0  0  0
 52 53  1  0  0  0  0
 53 55  1  0  0  0  0
 55 54  1  0  0  0  0
M  END
>  <MODEL>
1

>  <REMARK>
 VINA RESULT:      -6.7      0.000      0.000
  Name = 
  15 active torsions:
  status: ('A' for Active; 'I' for Inactive)
    1  A    between atoms: C_3  and  O_25
    2  A    between atoms: C_3  and  C_38
    3  A    between atoms: C_6  and  N_22
    4  A    between atoms: C_8  and  O_54
    5  A    between atoms: C_10  and  C_48
    6  A    between atoms: C_14  and  O_20
    7  A    between atoms: C_19  and  C_45
    8  A    between atoms: C_26  and  C_45
    9  A    between atoms: C_27  and  C_51
   10  A    between atoms: C_29  and  C_38
   11  A    between atoms: C_29  and  N_53
   12  A    between atoms: C_33  and  C_52
   13  A    between atoms: C_35  and  C_51
   14  A    between atoms: C_45  and  N_49
   15  A    between atoms: C_51  and  O_54
                            x       y       z     vdW  Elec       q    Type
                         _______ _______ _______ _____ _____    ______ ____

>  <TORSDO>
F 15

$$$$
=
 OpenBabel11052419393D

 55 59  0  0  1  0  0  0  0  0999 V2000
  188.2780  173.5250  141.4210 C   0  0  2  0  0  3  0  0  0  0  0  0
  188.0740  176.5280  140.7870 C   0  0  0  0  0  1  0  0  0  0  0  0
  187.4570  178.0780  143.0080 O   0  0  0  0  0  0  0  0  0  0  0  0
  187.5060  176.8290  143.1910 C   0  0  0  0  0  0  0  0  0  0  0  0
  187.4490  174.5320  142.1730 C   0  0  0  0  0  0  0  0  0  0  0  0
  187.6790  175.9510  142.0680 N   0  0  0  0  0  0  0  0  0  0  0  0
  186.5400  174.1020  142.9320 O   0  0  0  0  0  0  0  0  0  0  0  0
  187.4630  176.2800  144.5940 C   0  0  2  0  0  3  0  0  0  0  0  0
  185.3150  177.5170  145.1560 C   0  0  0  0  0  3  0  0  0  0  0  0
  184.5110  178.2030  146.0710 C   0  0  0  0  0  3  0  0  0  0  0  0
  186.9790  177.1690  146.8750 C   0  0  0  0  0  3  0  0  0  0  0  0
  186.1750  177.8550  147.7920 C   0  0  0  0  0  3  0  0  0  0  0  0
  184.9410  178.3720  147.3910 C   0  0  0  0  0  3  0  0  0  0  0  0
  186.5530  176.9910  145.5560 C   0  0  0  0  0  0  0  0  0  0  0  0
  189.0220  174.7850  145.6620 O   0  0  0  0  0  1  0  0  0  0  0  0
  189.8370  177.0090  145.1890 C   0  0  0  0  0  0  0  0  0  0  0  0
  189.5560  178.2260  145.0290 O   0  0  0  0  0  0  0  0  0  0  0  0
  188.7940  176.0150  145.1410 N   0  0  0  0  0  0  0  0  0  0  0  0
  191.9230  177.7210  142.9320 Cl  0  0  0  0  0  0  0  0  0  0  0  0
  191.5940  175.9450  146.5780 C   0  0  0  0  0  3  0  0  0  0  0  0
  192.9040  175.5120  146.7930 C   0  0  0  0  0  3  0  0  0  0  0  0
  192.2440  176.8470  144.4220 C   0  0  0  0  0  0  0  0  0  0  0  0
  193.5530  176.4170  144.6490 C   0  0  0  0  0  3  0  0  0  0  0  0
  193.8940  175.7560  145.8310 C   0  0  0  0  0  0  0  0  0  0  0  0
  191.2470  176.6160  145.3970 C   0  0  0  0  0  0  0  0  0  0  0  0
  195.3000  175.2640  146.0050 C   0  0  0  0  0  3  0  0  0  0  0  0
  195.9800  174.9470  144.6830 C   0  0  0  0  0  2  0  0  0  0  0  0
  195.3920  173.8260  145.5120 C   0  0  0  0  0  2  0  0  0  0  0  0
  191.5940  172.7790  144.1420 C   0  0  0  0  0  3  0  0  0  0  0  0
  189.5640  173.1110  142.1510 C   0  0  2  0  0  3  0  0  0  0  0  0
  189.2400  172.3170  143.4220 C   0  0  0  0  0  2  0  0  0  0  0  0
  191.7940  173.7880  143.0400 C   0  0  0  0  0  2  0  0  0  0  0  0
  190.4560  172.0810  144.2840 C   0  0  0  0  0  3  0  0  0  0  0  0
  190.4680  174.3010  142.4830 C   0  0  0  0  0  2  0  0  0  0  0  0
  188.5530  173.9640  140.0950 O   0  0  0  0  0  0  0  0  0  0  0  0
  189.4340  173.2870  139.2520 C   0  0  0  0  0  0  0  0  0  0  0  0
  190.6510  173.9060  138.8200 N   0  0  0  0  0  2  0  0  0  0  0  0
  189.1390  172.1190  138.8670 O   0  0  0  0  0  0  0  0  0  0  0  0
  195.0900  172.4240  138.6450 C   0  0  1  0  0  3  0  0  0  0  0  0
  191.6930  173.1600  138.1390 C   0  0  1  0  0  3  0  0  0  0  0  0
  193.7410  170.5110  139.2590 O   0  0  0  0  0  1  0  0  0  0  0  0
  193.3620  175.0220  137.5850 C   0  0  0  0  0  3  0  0  0  0  0  0
  192.3350  174.0460  137.0670 C   0  0  1  0  0  3  0  0  0  0  0  0
  193.7300  171.7200  138.5510 C   0  0  1  0  0  3  0  0  0  0  0  0
  196.2530  171.4280  138.6480 C   0  0  0  0  0  1  0  0  0  0  0  0
  192.6730  172.6150  139.1730 C   0  0  0  0  0  2  0  0  0  0  0  0
  194.6520  174.7450  137.8120 C   0  0  0  0  0  3  0  0  0  0  0  0
  195.2320  173.4500  137.6000 N   0  0  0  0  0  0  0  0  0  0  0  0
  192.8240  173.2810  136.0060 O   0  0  0  0  0  0  0  0  0  0  0  0
  191.7100  172.5960  135.5090 C   0  0  0  0  0  1  0  0  0  0  0  0
  196.3020  173.3670  136.6070 C   0  0  0  0  0  2  0  0  0  0  0  0
  197.2730  174.5180  136.7830 C   0  0  0  0  0  2  0  0  0  0  0  0
  197.3880  175.2960  135.4900 C   0  0  0  0  0  2  0  0  0  0  0  0
  195.9770  176.8870  134.9120 C   0  0  0  0  0  1  0  0  0  0  0  0
  197.0820  176.6360  135.7220 O   0  0  0  0  0  0  0  0  0  0  0  0
  1 35  1  6  0  0  0
  1  5  1  0  0  0  0
  2  6  1  0  0  0  0
  3  4  2  0  0  0  0
  5  7  2  0  0  0  0
  6  5  1  0  0  0  0
  6  4  1  0  0  0  0
  8  4  1  6  0  0  0
  8 18  1  0  0  0  0
  8 14  1  0  0  0  0
  9 14  2  0  0  0  0
  9 10  1  0  0  0  0
 10 13  2  0  0  0  0
 11 12  2  0  0  0  0
 13 12  1  0  0  0  0
 14 11  1  0  0  0  0
 16 25  1  0  0  0  0
 17 16  2  0  0  0  0
 18 16  1  0  0  0  0
 18 15  1  0  0  0  0
 19 22  1  0  0  0  0
 20 21  1  0  0  0  0
 22 23  2  0  0  0  0
 22 25  1  0  0  0  0
 23 24  1  0  0  0  0
 24 26  1  0  0  0  0
 24 21  2  0  0  0  0
 25 20  2  0  0  0  0
 27 28  1  0  0  0  0
 27 26  1  0  0  0  0
 28 26  1  0  0  0  0
 29 33  2  0  0  0  0
 30  1  1  1  0  0  0
 30 34  1  0  0  0  0
 30 31  1  0  0  0  0
 31 33  1  0  0  0  0
 32 29  1  0  0  0  0
 34 32  1  0  0  0  0
 36 35  1  0  0  0  0
 37 36  1  0  0  0  0
 38 36  2  0  0  0  0
 39 45  1  6  0  0  0
 40 37  1  1  0  0  0
 40 46  1  0  0  0  0
 42 47  2  0  0  0  0
 43 49  1  6  0  0  0
 43 42  1  0  0  0  0
 43 40  1  0  0  0  0
 44 39  1  0  0  0  0
 44 46  1  0  0  0  0
 44 41  1  1  0  0  0
 48 47  1  0  0  0  0
 48 39  1  0  0  0  0
 50 49  1  0  0  0  0
 51 52  1  0  0  0  0
 51 48  1  0  0  0  0
 53 55  1  0  0  0  0
 53 52  1  0  0  0  0
 54 55  1  0  0  0  0
M  END
>  <MODEL>
2

>  <REMARK>
 VINA RESULT:      -6.5      2.136      2.688
  Name = 
  15 active torsions:
  status: ('A' for Active; 'I' for Inactive)
    1  A    between atoms: C_3  and  O_25
    2  A    between atoms: C_3  and  C_38
    3  A    between atoms: C_6  and  N_22
    4  A    between atoms: C_8  and  O_54
    5  A    between atoms: C_10  and  C_48
    6  A    between atoms: C_14  and  O_20
    7  A    between atoms: C_19  and  C_45
    8  A    between atoms: C_26  and  C_45
    9  A    between atoms: C_27  and  C_51
   10  A    between atoms: C_29  and  C_38
   11  A    between atoms: C_29  and  N_53
   12  A    between atoms: C_33  and  C_52
   13  A    between atoms: C_35  and  C_51
   14  A    between atoms: C_45  and  N_49
   15  A    between atoms: C_51  and  O_54
                            x       y       z     vdW  Elec       q    Type
                         _______ _______ _______ _____ _____    ______ ____

>  <TORSDO>
F 15

$$$$
=
 OpenBabel11052419393D

 55 59  0  0  1  0  0  0  0  0999 V2000
  193.9740  175.3750  144.0610 C   0  0  2  0  0  3  0  0  0  0  0  0
  192.7460  174.5850  146.7670 C   0  0  0  0  0  1  0  0  0  0  0  0
  190.1020  175.3870  147.0480 O   0  0  0  0  0  0  0  0  0  0  0  0
  190.6800  175.7250  145.9770 C   0  0  0  0  0  0  0  0  0  0  0  0
  192.8500  176.0900  144.7630 C   0  0  0  0  0  0  0  0  0  0  0  0
  192.0850  175.4720  145.8170 N   0  0  0  0  0  0  0  0  0  0  0  0
  192.5680  177.2600  144.3900 O   0  0  0  0  0  0  0  0  0  0  0  0
  189.8740  176.3170  144.8500 C   0  0  2  0  0  3  0  0  0  0  0  0
  188.1850  177.4440  146.3790 C   0  0  0  0  0  3  0  0  0  0  0  0
  186.8680  177.8040  146.6810 C   0  0  0  0  0  3  0  0  0  0  0  0
  187.4370  176.4200  144.3200 C   0  0  0  0  0  3  0  0  0  0  0  0
  186.1190  176.7800  144.6210 C   0  0  0  0  0  3  0  0  0  0  0  0
  185.8330  177.4710  145.8010 C   0  0  0  0  0  3  0  0  0  0  0  0
  188.4770  176.7540  145.1930 C   0  0  0  0  0  0  0  0  0  0  0  0
  190.0190  176.2010  142.4480 O   0  0  0  0  0  1  0  0  0  0  0  0
  189.9090  174.0860  143.6090 C   0  0  0  0  0  0  0  0  0  0  0  0
  189.5150  173.4580  144.6270 O   0  0  0  0  0  0  0  0  0  0  0  0
  189.9510  175.5270  143.6220 N   0  0  0  0  0  0  0  0  0  0  0  0
  187.7000  172.9250  141.6780 Cl  0  0  0  0  0  0  0  0  0  0  0  0
  191.7280  173.1540  142.2060 C   0  0  0  0  0  3  0  0  0  0  0  0
  192.1910  172.4030  141.1240 C   0  0  0  0  0  3  0  0  0  0  0  0
  189.4390  172.7280  141.5250 C   0  0  0  0  0  0  0  0  0  0  0  0
  189.9120  171.9840  140.4410 C   0  0  0  0  0  3  0  0  0  0  0  0
  191.2830  171.8210  140.2290 C   0  0  0  0  0  0  0  0  0  0  0  0
  190.3530  173.3270  142.4210 C   0  0  0  0  0  0  0  0  0  0  0  0
  191.7400  170.9680  139.0830 C   0  0  0  0  0  3  0  0  0  0  0  0
  190.8180  169.7880  138.8240 C   0  0  0  0  0  2  0  0  0  0  0  0
  192.0980  169.5830  139.6030 C   0  0  0  0  0  2  0  0  0  0  0  0
  196.6290  172.4920  145.9550 C   0  0  0  0  0  3  0  0  0  0  0  0
  194.6970  174.3430  144.9370 C   0  0  2  0  0  3  0  0  0  0  0  0
  196.0720  174.8630  145.3730 C   0  0  0  0  0  2  0  0  0  0  0  0
  195.4000  171.9710  145.2550 C   0  0  0  0  0  2  0  0  0  0  0  0
  196.9060  173.8020  146.0480 C   0  0  0  0  0  3  0  0  0  0  0  0
  194.8370  172.9790  144.2560 C   0  0  0  0  0  2  0  0  0  0  0  0
  194.8910  176.2950  143.4780 O   0  0  0  0  0  0  0  0  0  0  0  0
  195.3990  176.1280  142.1890 C   0  0  0  0  0  0  0  0  0  0  0  0
  194.8840  175.1060  141.3300 N   0  0  0  0  0  2  0  0  0  0  0  0
  196.3290  176.8890  141.7940 O   0  0  0  0  0  0  0  0  0  0  0  0
  193.9320  173.5360  137.0210 C   0  0  1  0  0  3  0  0  0  0  0  0
  195.2190  175.0480  139.9190 C   0  0  1  0  0  3  0  0  0  0  0  0
  193.3180  175.8770  137.0610 O   0  0  0  0  0  1  0  0  0  0  0  0
  195.7030  172.5510  139.6200 C   0  0  0  0  0  3  0  0  0  0  0  0
  196.2620  173.9500  139.6870 C   0  0  1  0  0  3  0  0  0  0  0  0
  194.1900  174.9290  137.6120 C   0  0  1  0  0  3  0  0  0  0  0  0
  193.5430  173.6040  135.5420 C   0  0  0  0  0  1  0  0  0  0  0  0
  193.9380  174.8780  139.1080 C   0  0  0  0  0  2  0  0  0  0  0  0
  195.1800  171.9750  138.5290 C   0  0  0  0  0  3  0  0  0  0  0  0
  195.0710  172.6360  137.2610 N   0  0  0  0  0  0  0  0  0  0  0  0
  197.0730  174.2470  138.5900 O   0  0  0  0  0  0  0  0  0  0  0  0
  197.7590  175.4120  138.9510 C   0  0  0  0  0  1  0  0  0  0  0  0
  195.8040  172.0380  136.1460 C   0  0  0  0  0  2  0  0  0  0  0  0
  195.7520  170.5260  136.2340 C   0  0  0  0  0  2  0  0  0  0  0  0
  194.5910  170.0030  135.4160 C   0  0  0  0  0  2  0  0  0  0  0  0
  192.5650  169.1590  135.6140 C   0  0  0  0  0  1  0  0  0  0  0  0
  193.8330  169.1240  136.1870 O   0  0  0  0  0  0  0  0  0  0  0  0
  1 35  1  1  0  0  0
  1  5  1  0  0  0  0
  4  3  2  0  0  0  0
  5  6  1  0  0  0  0
  6  4  1  0  0  0  0
  6  2  1  0  0  0  0
  7  5  2  0  0  0  0
  8 14  1  0  0  0  0
  8  4  1  1  0  0  0
  9 10  1  0  0  0  0
 11 12  2  0  0  0  0
 11 14  1  0  0  0  0
 12 13  1  0  0  0  0
 13 10  2  0  0  0  0
 14  9  2  0  0  0  0
 15 18  1  0  0  0  0
 16 18  1  0  0  0  0
 16 17  2  0  0  0  0
 18  8  1  0  0  0  0
 20 25  1  0  0  0  0
 21 20  2  0  0  0  0
 22 19  1  0  0  0  0
 22 25  2  0  0  0  0
 23 22  1  0  0  0  0
 24 23  2  0  0  0  0
 24 21  1  0  0  0  0
 25 16  1  0  0  0  0
 26 28  1  0  0  0  0
 26 24  1  0  0  0  0
 27 26  1  0  0  0  0
 27 28  1  0  0  0  0
 29 33  2  0  0  0  0
 30  1  1  6  0  0  0
 30 31  1  0  0  0  0
 31 33  1  0  0  0  0
 32 29  1  0  0  0  0
 34 30  1  0  0  0  0
 34 32  1  0  0  0  0
 36 35  1  0  0  0  0
 37 36  1  0  0  0  0
 38 36  2  0  0  0  0
 39 45  1  6  0  0  0
 39 48  1  0  0  0  0
 39 44  1  0  0  0  0
 40 37  1  1  0  0  0
 42 43  1  0  0  0  0
 43 49  1  6  0  0  0
 43 40  1  0  0  0  0
 44 41  1  6  0  0  0
 44 46  1  0  0  0  0
 46 40  1  0  0  0  0
 47 42  2  0  0  0  0
 48 47  1  0  0  0  0
 49 50  1  0  0  0  0
 51 52  1  0  0  0  0
 51 48  1  0  0  0  0
 53 55  1  0  0  0  0
 53 52  1  0  0  0  0
 54 55  1  0  0  0  0
M  END
>  <MODEL>
3

>  <REMARK>
 VINA RESULT:      -6.4      2.930      5.614
  Name = 
  15 active torsions:
  status: ('A' for Active; 'I' for Inactive)
    1  A    between atoms: C_3  and  O_25
    2  A    between atoms: C_3  and  C_38
    3  A    between atoms: C_6  and  N_22
    4  A    between atoms: C_8  and  O_54
    5  A    between atoms: C_10  and  C_48
    6  A    between atoms: C_14  and  O_20
    7  A    between atoms: C_19  and  C_45
    8  A    between atoms: C_26  and  C_45
    9  A    between atoms: C_27  and  C_51
   10  A    between atoms: C_29  and  C_38
   11  A    between atoms: C_29  and  N_53
   12  A    between atoms: C_33  and  C_52
   13  A    between atoms: C_35  and  C_51
   14  A    between atoms: C_45  and  N_49
   15  A    between atoms: C_51  and  O_54
                            x       y       z     vdW  Elec       q    Type
                         _______ _______ _______ _____ _____    ______ ____

>  <TORSDO>
F 15

$$$$
=
 OpenBabel11052419393D

 55 59  0  0  1  0  0  0  0  0999 V2000
  189.4190  174.1670  141.6870 C   0  0  2  0  0  3  0  0  0  0  0  0
  188.4500  177.0220  141.0810 C   0  0  0  0  0  1  0  0  0  0  0  0
  187.1680  178.2250  143.2310 O   0  0  0  0  0  0  0  0  0  0  0  0
  187.5460  177.0320  143.3990 C   0  0  0  0  0  0  0  0  0  0  0  0
  188.2580  174.8640  142.3450 C   0  0  0  0  0  0  0  0  0  0  0  0
  188.0890  176.2940  142.2920 N   0  0  0  0  0  0  0  0  0  0  0  0
  187.4260  174.1600  142.9770 O   0  0  0  0  0  0  0  0  0  0  0  0
  187.4980  176.4220  144.7770 C   0  0  2  0  0  3  0  0  0  0  0  0
  185.2270  177.1930  145.6160 C   0  0  0  0  0  3  0  0  0  0  0  0
  184.4450  177.8780  146.5510 C   0  0  0  0  0  3  0  0  0  0  0  0
  187.2160  177.7400  146.8770 C   0  0  0  0  0  3  0  0  0  0  0  0
  186.4350  178.4250  147.8130 C   0  0  0  0  0  3  0  0  0  0  0  0
  185.0490  178.4950  147.6510 C   0  0  0  0  0  3  0  0  0  0  0  0
  186.6190  177.1170  145.7780 C   0  0  0  0  0  0  0  0  0  0  0  0
  188.9500  174.9450  146.0080 O   0  0  0  0  0  1  0  0  0  0  0  0
  189.9710  176.9500  145.1300 C   0  0  0  0  0  0  0  0  0  0  0  0
  189.8160  178.1500  144.7790 O   0  0  0  0  0  0  0  0  0  0  0  0
  188.8250  176.0930  145.2980 N   0  0  0  0  0  0  0  0  0  0  0  0
  191.0540  176.7500  148.0860 Cl  0  0  0  0  0  0  0  0  0  0  0  0
  192.0950  176.0550  144.2150 C   0  0  0  0  0  3  0  0  0  0  0  0
  193.4090  175.6060  144.3590 C   0  0  0  0  0  3  0  0  0  0  0  0
  191.9300  176.3500  146.6170 C   0  0  0  0  0  0  0  0  0  0  0  0
  193.2430  175.8920  146.7510 C   0  0  0  0  0  3  0  0  0  0  0  0
  193.9870  175.5130  145.6320 C   0  0  0  0  0  0  0  0  0  0  0  0
  191.3400  176.4310  145.3350 C   0  0  0  0  0  0  0  0  0  0  0  0
  195.4110  175.0810  145.8220 C   0  0  0  0  0  3  0  0  0  0  0  0
  196.1230  174.8060  144.5080 C   0  0  0  0  0  2  0  0  0  0  0  0
  195.5720  173.6540  145.3190 C   0  0  0  0  0  2  0  0  0  0  0  0
  189.2220  173.0670  137.4800 C   0  0  0  0  0  3  0  0  0  0  0  0
  189.3010  174.0700  140.1590 C   0  0  2  0  0  3  0  0  0  0  0  0
  188.1830  173.0990  139.7580 C   0  0  0  0  0  2  0  0  0  0  0  0
  190.4580  173.7760  137.9700 C   0  0  0  0  0  2  0  0  0  0  0  0
  188.1750  172.8050  138.2780 C   0  0  0  0  0  3  0  0  0  0  0  0
  190.6160  173.6740  139.4850 C   0  0  0  0  0  2  0  0  0  0  0  0
  189.6580  172.8910  142.2710 O   0  0  0  0  0  0  0  0  0  0  0  0
  190.8840  172.5480  142.8420 C   0  0  0  0  0  0  0  0  0  0  0  0
  191.8380  171.7720  142.1090 N   0  0  0  0  0  2  0  0  0  0  0  0
  191.1370  172.9270  144.0220 O   0  0  0  0  0  0  0  0  0  0  0  0
  196.3180  170.7760  141.1740 C   0  0  1  0  0  3  0  0  0  0  0  0
  193.2010  171.5930  142.5740 C   0  0  1  0  0  3  0  0  0  0  0  0
  196.2030  173.1600  141.5750 O   0  0  0  0  0  1  0  0  0  0  0  0
  193.5970  169.1230  142.0260 C   0  0  0  0  0  3  0  0  0  0  0  0
  193.3780  170.1640  143.0960 C   0  0  1  0  0  3  0  0  0  0  0  0
  195.6150  171.9310  141.9000 C   0  0  1  0  0  3  0  0  0  0  0  0
  197.8250  171.0120  141.0460 C   0  0  0  0  0  1  0  0  0  0  0  0
  194.1640  171.9770  141.4540 C   0  0  0  0  0  2  0  0  0  0  0  0
  194.7750  168.8250  141.4620 C   0  0  0  0  0  3  0  0  0  0  0  0
  196.0040  169.4830  141.8020 N   0  0  0  0  0  0  0  0  0  0  0  0
  194.3530  170.1070  144.0940 O   0  0  0  0  0  0  0  0  0  0  0  0
  193.8290  169.2460  145.0640 C   0  0  0  0  0  1  0  0  0  0  0  0
  197.0610  168.6450  142.3650 C   0  0  0  0  0  2  0  0  0  0  0  0
  197.5310  169.2110  143.6900 C   0  0  0  0  0  2  0  0  0  0  0  0
  197.2800  168.2090  144.7950 C   0  0  0  0  0  2  0  0  0  0  0  0
  197.2570  169.9740  146.1150 C   0  0  0  0  0  1  0  0  0  0  0  0
  197.7970  168.6950  145.9950 O   0  0  0  0  0  0  0  0  0  0  0  0
  1 35  1  1  0  0  0
  1  5  1  0  0  0  0
  2  6  1  0  0  0  0
  3  4  2  0  0  0  0
  5  7  2  0  0  0  0
  6  5  1  0  0  0  0
  6  4  1  0  0  0  0
  8  4  1  6  0  0  0
  8 18  1  0  0  0  0
  8 14  1  0  0  0  0
  9 14  2  0  0  0  0
  9 10  1  0  0  0  0
 10 13  2  0  0  0  0
 11 12  2  0  0  0  0
 13 12  1  0  0  0  0
 14 11  1  0  0  0  0
 16 18  1  0  0  0  0
 16 25  1  0  0  0  0
 17 16  2  0  0  0  0
 18 15  1  0  0  0  0
 20 21  2  0  0  0  0
 20 25  1  0  0  0  0
 21 24  1  0  0  0  0
 22 23  1  0  0  0  0
 22 19  1  0  0  0  0
 24 26  1  0  0  0  0
 24 23  2  0  0  0  0
 25 22  2  0  0  0  0
 27 28  1  0  0  0  0
 27 26  1  0  0  0  0
 28 26  1  0  0  0  0
 29 32  1  0  0  0  0
 29 33  2  0  0  0  0
 30  1  1  1  0  0  0
 31 30  1  0  0  0  0
 32 34  1  0  0  0  0
 33 31  1  0  0  0  0
 34 30  1  0  0  0  0
 35 36  1  0  0  0  0
 36 38  2  0  0  0  0
 37 36  1  0  0  0  0
 39 45  1  1  0  0  0
 39 48  1  0  0  0  0
 39 44  1  0  0  0  0
 40 37  1  6  0  0  0
 40 43  1  0  0  0  0
 42 43  1  0  0  0  0
 43 49  1  1  0  0  0
 44 41  1  6  0  0  0
 46 44  1  0  0  0  0
 46 40  1  0  0  0  0
 47 48  1  0  0  0  0
 47 42  2  0  0  0  0
 48 51  1  0  0  0  0
 49 50  1  0  0  0  0
 51 52  1  0  0  0  0
 52 53  1  0  0  0  0
 53 55  1  0  0  0  0
 55 54  1  0  0  0  0
M  END
>  <MODEL>
4

>  <REMARK>
 VINA RESULT:      -6.3      3.275      5.154
  Name = 
  15 active torsions:
  status: ('A' for Active; 'I' for Inactive)
    1  A    between atoms: C_3  and  O_25
    2  A    between atoms: C_3  and  C_38
    3  A    between atoms: C_6  and  N_22
    4  A    between atoms: C_8  and  O_54
    5  A    between atoms: C_10  and  C_48
    6  A    between atoms: C_14  and  O_20
    7  A    between atoms: C_19  and  C_45
    8  A    between atoms: C_26  and  C_45
    9  A    between atoms: C_27  and  C_51
   10  A    between atoms: C_29  and  C_38
   11  A    between atoms: C_29  and  N_53
   12  A    between atoms: C_33  and  C_52
   13  A    between atoms: C_35  and  C_51
   14  A    between atoms: C_45  and  N_49
   15  A    between atoms: C_51  and  O_54
                            x       y       z     vdW  Elec       q    Type
                         _______ _______ _______ _____ _____    ______ ____

>  <TORSDO>
F 15

$$$$
=
 OpenBabel11052419393D

 55 59  0  0  1  0  0  0  0  0999 V2000
  188.8260  175.9780  142.9170 C   0  0  2  0  0  3  0  0  0  0  0  0
  187.4790  173.2640  142.3910 C   0  0  0  0  0  1  0  0  0  0  0  0
  187.8290  172.3510  139.7920 O   0  0  0  0  0  0  0  0  0  0  0  0
  188.3160  173.4850  140.0580 C   0  0  0  0  0  0  0  0  0  0  0  0
  188.3290  175.4820  141.5850 C   0  0  0  0  0  0  0  0  0  0  0  0
  188.0560  174.0890  141.3360 N   0  0  0  0  0  0  0  0  0  0  0  0
  188.1720  176.3240  140.6600 O   0  0  0  0  0  0  0  0  0  0  0  0
  189.2290  174.1560  139.0650 C   0  0  2  0  0  3  0  0  0  0  0  0
  189.2170  174.5510  136.5540 C   0  0  0  0  0  3  0  0  0  0  0  0
  188.5990  175.0540  135.4050 C   0  0  0  0  0  3  0  0  0  0  0  0
  187.3310  175.2690  137.8860 C   0  0  0  0  0  3  0  0  0  0  0  0
  186.7120  175.7720  136.7370 C   0  0  0  0  0  3  0  0  0  0  0  0
  187.3450  175.6660  135.4970 C   0  0  0  0  0  3  0  0  0  0  0  0
  188.5830  174.6510  137.8020 C   0  0  0  0  0  0  0  0  0  0  0  0
  190.4530  172.4810  137.8410 O   0  0  0  0  0  1  0  0  0  0  0  0
  191.6500  173.5760  139.6310 C   0  0  0  0  0  0  0  0  0  0  0  0
  191.5830  174.1650  140.7410 O   0  0  0  0  0  0  0  0  0  0  0  0
  190.4630  173.4060  138.8310 N   0  0  0  0  0  0  0  0  0  0  0  0
  192.5570  170.6720  140.4690 Cl  0  0  0  0  0  0  0  0  0  0  0  0
  193.7420  173.9360  138.3490 C   0  0  0  0  0  3  0  0  0  0  0  0
  195.0060  173.5380  137.9140 C   0  0  0  0  0  3  0  0  0  0  0  0
  193.4740  171.8240  139.5120 C   0  0  0  0  0  0  0  0  0  0  0  0
  194.7380  171.4320  139.0650 C   0  0  0  0  0  3  0  0  0  0  0  0
  195.5080  172.2770  138.2620 C   0  0  0  0  0  0  0  0  0  0  0  0
  192.9610  173.0910  139.1490 C   0  0  0  0  0  0  0  0  0  0  0  0
  196.8810  171.8330  137.8540 C   0  0  0  0  0  3  0  0  0  0  0  0
  197.3170  172.4190  136.5210 C   0  0  0  0  0  2  0  0  0  0  0  0
  196.7810  171.0060  136.5790 C   0  0  0  0  0  2  0  0  0  0  0  0
  186.2020  177.8690  145.8310 C   0  0  0  0  0  3  0  0  0  0  0  0
  187.7080  176.4310  143.8670 C   0  0  2  0  0  3  0  0  0  0  0  0
  187.3010  177.8820  143.5810 C   0  0  0  0  0  2  0  0  0  0  0  0
  186.8560  176.5640  146.2070 C   0  0  0  0  0  2  0  0  0  0  0  0
  186.3660  178.4380  144.6270 C   0  0  0  0  0  3  0  0  0  0  0  0
  188.0780  176.2640  145.3430 C   0  0  0  0  0  2  0  0  0  0  0  0
  189.8140  176.9910  142.7580 O   0  0  0  0  0  0  0  0  0  0  0  0
  190.9670  177.0390  143.5430 C   0  0  0  0  0  0  0  0  0  0  0  0
  191.8270  175.8990  143.6440 N   0  0  0  0  0  2  0  0  0  0  0  0
  191.2360  178.1020  144.1720 O   0  0  0  0  0  0  0  0  0  0  0  0
  196.3040  174.5270  143.7800 C   0  0  1  0  0  3  0  0  0  0  0  0
  193.1410  175.9810  144.2550 C   0  0  1  0  0  3  0  0  0  0  0  0
  196.2890  176.7670  142.8640 O   0  0  0  0  0  1  0  0  0  0  0  0
  193.4420  173.5880  145.1180 C   0  0  0  0  0  3  0  0  0  0  0  0
  193.2010  175.0370  145.4610 C   0  0  1  0  0  3  0  0  0  0  0  0
  195.6120  175.8970  143.7280 C   0  0  1  0  0  3  0  0  0  0  0  0
  197.8260  174.6500  143.6860 C   0  0  0  0  0  1  0  0  0  0  0  0
  194.2030  175.7120  143.1940 C   0  0  0  0  0  2  0  0  0  0  0  0
  194.6400  173.0300  144.9030 C   0  0  0  0  0  3  0  0  0  0  0  0
  195.8740  173.7590  144.9590 N   0  0  0  0  0  0  0  0  0  0  0  0
  194.0950  175.5060  146.4250 O   0  0  0  0  0  0  0  0  0  0  0  0
  193.5580  176.7240  146.8570 C   0  0  0  0  0  1  0  0  0  0  0  0
  196.8400  173.3340  145.9710 C   0  0  0  0  0  2  0  0  0  0  0  0
  196.7990  171.8270  146.1360 C   0  0  0  0  0  2  0  0  0  0  0  0
  197.6100  171.1680  145.0410 C   0  0  0  0  0  2  0  0  0  0  0  0
  196.2900  169.6410  145.9260 C   0  0  0  0  0  1  0  0  0  0  0  0
  197.2860  169.8150  144.9690 O   0  0  0  0  0  0  0  0  0  0  0  0
  1  5  1  6  0  0  0
  3  4  2  0  0  0  0
  4  6  1  0  0  0  0
  6  5  1  0  0  0  0
  6  2  1  0  0  0  0
  7  5  2  0  0  0  0
  8  4  1  6  0  0  0
  9 14  1  0  0  0  0
 10 13  1  0  0  0  0
 10  9  2  0  0  0  0
 12 11  1  0  0  0  0
 13 12  2  0  0  0  0
 14 11  2  0  0  0  0
 14  8  1  0  0  0  0
 15 18  1  0  0  0  0
 16 17  2  0  0  0  0
 18  8  1  0  0  0  0
 18 16  1  0  0  0  0
 20 25  1  0  0  0  0
 21 24  1  0  0  0  0
 21 20  2  0  0  0  0
 22 19  1  0  0  0  0
 23 22  1  0  0  0  0
 24 23  2  0  0  0  0
 25 22  2  0  0  0  0
 25 16  1  0  0  0  0
 26 24  1  0  0  0  0
 27 28  1  0  0  0  0
 27 26  1  0  0  0  0
 28 26  1  0  0  0  0
 29 32  1  0  0  0  0
 30  1  1  6  0  0  0
 30 34  1  0  0  0  0
 31 30  1  0  0  0  0
 31 33  1  0  0  0  0
 33 29  2  0  0  0  0
 34 32  1  0  0  0  0
 35  1  1  0  0  0  0
 35 36  1  0  0  0  0
 36 37  1  0  0  0  0
 36 38  2  0  0  0  0
 39 45  1  1  0  0  0
 39 48  1  0  0  0  0
 40 37  1  6  0  0  0
 40 43  1  0  0  0  0
 42 43  1  0  0  0  0
 43 49  1  1  0  0  0
 44 41  1  6  0  0  0
 44 39  1  0  0  0  0
 46 44  1  0  0  0  0
 46 40  1  0  0  0  0
 47 48  1  0  0  0  0
 47 42  2  0  0  0  0
 48 51  1  0  0  0  0
 49 50  1  0  0  0  0
 51 52  1  0  0  0  0
 53 52  1  0  0  0  0
 55 53  1  0  0  0  0
 55 54  1  0  0  0  0
M  END
>  <MODEL>
5

>  <REMARK>
 VINA RESULT:      -6.3      3.038      8.540
  Name = 
  15 active torsions:
  status: ('A' for Active; 'I' for Inactive)
    1  A    between atoms: C_3  and  O_25
    2  A    between atoms: C_3  and  C_38
    3  A    between atoms: C_6  and  N_22
    4  A    between atoms: C_8  and  O_54
    5  A    between atoms: C_10  and  C_48
    6  A    between atoms: C_14  and  O_20
    7  A    between atoms: C_19  and  C_45
    8  A    between atoms: C_26  and  C_45
    9  A    between atoms: C_27  and  C_51
   10  A    between atoms: C_29  and  C_38
   11  A    between atoms: C_29  and  N_53
   12  A    between atoms: C_33  and  C_52
   13  A    between atoms: C_35  and  C_51
   14  A    between atoms: C_45  and  N_49
   15  A    between atoms: C_51  and  O_54
                            x       y       z     vdW  Elec       q    Type
                         _______ _______ _______ _____ _____    ______ ____

>  <TORSDO>
F 15

$$$$
=
 OpenBabel11052419393D

 55 59  0  0  1  0  0  0  0  0999 V2000
  189.0800  174.9400  141.2620 C   0  0  2  0  0  3  0  0  0  0  0  0
  189.4130  172.2630  142.7390 C   0  0  0  0  0  1  0  0  0  0  0  0
  191.5130  172.2680  144.5570 O   0  0  0  0  0  0  0  0  0  0  0  0
  191.3540  173.3230  143.8810 C   0  0  0  0  0  0  0  0  0  0  0  0
  190.3630  174.4040  141.8400 C   0  0  0  0  0  0  0  0  0  0  0  0
  190.3820  173.3500  142.8230 N   0  0  0  0  0  0  0  0  0  0  0  0
  191.4460  174.9200  141.4560 O   0  0  0  0  0  0  0  0  0  0  0  0
  192.1280  174.5640  144.2430 C   0  0  2  0  0  3  0  0  0  0  0  0
  194.0620  175.3460  145.6950 C   0  0  0  0  0  3  0  0  0  0  0  0
  195.3070  175.1170  146.2880 C   0  0  0  0  0  3  0  0  0  0  0  0
  194.0990  173.1200  144.7520 C   0  0  0  0  0  3  0  0  0  0  0  0
  195.3440  172.8890  145.3450 C   0  0  0  0  0  3  0  0  0  0  0  0
  195.9500  173.8870  146.1130 C   0  0  0  0  0  3  0  0  0  0  0  0
  193.4480  174.3450  144.9270 C   0  0  0  0  0  0  0  0  0  0  0  0
  191.2570  176.8090  144.3200 O   0  0  0  0  0  1  0  0  0  0  0  0
  190.5790  175.3440  146.1170 C   0  0  0  0  0  0  0  0  0  0  0  0
  190.8620  174.3480  146.8330 O   0  0  0  0  0  0  0  0  0  0  0  0
  191.2990  175.5800  144.8910 N   0  0  0  0  0  0  0  0  0  0  0  0
  191.2540  177.6580  148.1520 Cl  0  0  0  0  0  0  0  0  0  0  0  0
  188.1980  176.0310  146.0150 C   0  0  0  0  0  3  0  0  0  0  0  0
  187.1250  176.8250  146.4200 C   0  0  0  0  0  3  0  0  0  0  0  0
  189.6770  177.2780  147.4790 C   0  0  0  0  0  0  0  0  0  0  0  0
  188.5980  178.0730  147.8720 C   0  0  0  0  0  3  0  0  0  0  0  0
  187.3220  177.8590  147.3450 C   0  0  0  0  0  0  0  0  0  0  0  0
  189.4830  176.2440  146.5350 C   0  0  0  0  0  0  0  0  0  0  0  0
  186.1850  178.7020  147.8400 C   0  0  0  0  0  3  0  0  0  0  0  0
  184.8400  178.2630  147.2840 C   0  0  0  0  0  2  0  0  0  0  0  0
  185.5590  179.4400  146.6640 C   0  0  0  0  0  2  0  0  0  0  0  0
  186.3660  177.6490  143.3230 C   0  0  0  0  0  3  0  0  0  0  0  0
  188.2870  175.8310  142.2300 C   0  0  2  0  0  3  0  0  0  0  0  0
  186.8080  175.4270  142.2570 C   0  0  0  0  0  2  0  0  0  0  0  0
  187.7600  178.1370  143.0200 C   0  0  0  0  0  2  0  0  0  0  0  0
  185.9530  176.4080  143.0200 C   0  0  0  0  0  3  0  0  0  0  0  0
  188.4250  177.3220  141.9130 C   0  0  0  0  0  2  0  0  0  0  0  0
  188.2690  173.8940  140.7370 O   0  0  0  0  0  0  0  0  0  0  0  0
  188.5380  173.2840  139.5110 C   0  0  0  0  0  0  0  0  0  0  0  0
  189.5660  173.7940  138.6540 N   0  0  0  0  0  2  0  0  0  0  0  0
  187.8550  172.2790  139.1640 O   0  0  0  0  0  0  0  0  0  0  0  0
  192.7030  170.9320  136.6780 C   0  0  1  0  0  3  0  0  0  0  0  0
  190.0290  173.0600  137.4910 C   0  0  1  0  0  3  0  0  0  0  0  0
  190.7010  169.6230  137.0480 O   0  0  0  0  0  1  0  0  0  0  0  0
  192.2920  174.1790  137.0610 C   0  0  0  0  0  3  0  0  0  0  0  0
  190.8670  173.9870  136.6050 C   0  0  1  0  0  3  0  0  0  0  0  0
  191.1720  170.9160  136.7900 C   0  0  1  0  0  3  0  0  0  0  0  0
  193.2420  169.6620  136.0150 C   0  0  0  0  0  1  0  0  0  0  0  0
  190.7590  171.8020  137.9520 C   0  0  0  0  0  2  0  0  0  0  0  0
  193.3130  173.3580  136.7840 C   0  0  0  0  0  3  0  0  0  0  0  0
  193.1760  172.1560  136.0130 N   0  0  0  0  0  0  0  0  0  0  0  0
  190.7900  173.6100  135.2630 O   0  0  0  0  0  0  0  0  0  0  0  0
  189.4220  173.5900  134.9690 C   0  0  0  0  0  1  0  0  0  0  0  0
  193.9360  172.0880  134.7670 C   0  0  0  0  0  2  0  0  0  0  0  0
  195.1170  173.0370  134.8190 C   0  0  0  0  0  2  0  0  0  0  0  0
  196.3960  172.2830  134.5250 C   0  0  0  0  0  2  0  0  0  0  0  0
  197.5180  172.0150  136.4040 C   0  0  0  0  0  1  0  0  0  0  0  0
  196.6390  171.3610  135.5420 O   0  0  0  0  0  0  0  0  0  0  0  0
  1 35  1  1  0  0  0
  1  5  1  0  0  0  0
  2  6  1  0  0  0  0
  4  3  2  0  0  0  0
  5  6  1  0  0  0  0
  6  4  1  0  0  0  0
  7  5  2  0  0  0  0
  8  4  1  1  0  0  0
  8 18  1  0  0  0  0
  8 14  1  0  0  0  0
  9 10  1  0  0  0  0
 11 14  1  0  0  0  0
 11 12  2  0  0  0  0
 12 13  1  0  0  0  0
 13 10  2  0  0  0  0
 14  9  2  0  0  0  0
 15 18  1  0  0  0  0
 16 25  1  0  0  0  0
 16 17  2  0  0  0  0
 18 16  1  0  0  0  0
 20 21  2  0  0  0  0
 20 25  1  0  0  0  0
 21 24  1  0  0  0  0
 22 23  1  0  0  0  0
 22 19  1  0  0  0  0
 24 26  1  0  0  0  0
 24 23  2  0  0  0  0
 25 22  2  0  0  0  0
 27 26  1  0  0  0  0
 28 27  1  0  0  0  0
 28 26  1  0  0  0  0
 30  1  1  6  0  0  0
 30 31  1  0  0  0  0
 31 33  1  0  0  0  0
 32 29  1  0  0  0  0
 33 29  2  0  0  0  0
 34 30  1  0  0  0  0
 34 32  1  0  0  0  0
 36 35  1  0  0  0  0
 37 36  1  0  0  0  0
 38 36  2  0  0  0  0
 39 45  1  6  0  0  0
 39 44  1  0  0  0  0
 40 46  1  0  0  0  0
 40 37  1  1  0  0  0
 43 49  1  6  0  0  0
 43 42  1  0  0  0  0
 43 40  1  0  0  0  0
 44 41  1  1  0  0  0
 44 46  1  0  0  0  0
 47 42  2  0  0  0  0
 48 39  1  0  0  0  0
 48 47  1  0  0  0  0
 50 49  1  0  0  0  0
 51 52  1  0  0  0  0
 51 48  1  0  0  0  0
 53 52  1  0  0  0  0
 53 55  1  0  0  0  0
 55 54  1  0  0  0  0
M  END
>  <MODEL>
6

>  <REMARK>
 VINA RESULT:      -6.2      1.829      5.494
  Name = 
  15 active torsions:
  status: ('A' for Active; 'I' for Inactive)
    1  A    between atoms: C_3  and  O_25
    2  A    between atoms: C_3  and  C_38
    3  A    between atoms: C_6  and  N_22
    4  A    between atoms: C_8  and  O_54
    5  A    between atoms: C_10  and  C_48
    6  A    between atoms: C_14  and  O_20
    7  A    between atoms: C_19  and  C_45
    8  A    between atoms: C_26  and  C_45
    9  A    between atoms: C_27  and  C_51
   10  A    between atoms: C_29  and  C_38
   11  A    between atoms: C_29  and  N_53
   12  A    between atoms: C_33  and  C_52
   13  A    between atoms: C_35  and  C_51
   14  A    between atoms: C_45  and  N_49
   15  A    between atoms: C_51  and  O_54
                            x       y       z     vdW  Elec       q    Type
                         _______ _______ _______ _____ _____    ______ ____

>  <TORSDO>
F 15

$$$$
=
 OpenBabel11052419393D

 55 59  0  0  1  0  0  0  0  0999 V2000
  191.9220  175.8890  143.6630 C   0  0  2  0  0  3  0  0  0  0  0  0
  189.9580  174.9160  145.8200 C   0  0  0  0  0  1  0  0  0  0  0  0
  187.4250  176.0310  145.5800 O   0  0  0  0  0  0  0  0  0  0  0  0
  188.2930  176.4280  144.7530 C   0  0  0  0  0  0  0  0  0  0  0  0
  190.7300  176.6500  144.1800 C   0  0  0  0  0  0  0  0  0  0  0  0
  189.6600  176.0070  144.8990 N   0  0  0  0  0  0  0  0  0  0  0  0
  190.6730  177.8880  143.9500 O   0  0  0  0  0  0  0  0  0  0  0  0
  187.8720  177.2730  143.5790 C   0  0  2  0  0  3  0  0  0  0  0  0
  185.5070  177.6030  142.7120 C   0  0  0  0  0  3  0  0  0  0  0  0
  184.2530  178.2170  142.8000 C   0  0  0  0  0  3  0  0  0  0  0  0
  186.2320  178.7900  144.6890 C   0  0  0  0  0  3  0  0  0  0  0  0
  184.9780  179.4050  144.7790 C   0  0  0  0  0  3  0  0  0  0  0  0
  183.9890  179.1200  143.8350 C   0  0  0  0  0  3  0  0  0  0  0  0
  186.5020  177.8830  143.6600 C   0  0  0  0  0  0  0  0  0  0  0  0
  188.6910  177.4030  141.3170 O   0  0  0  0  0  1  0  0  0  0  0  0
  187.8280  175.2570  142.0130 C   0  0  0  0  0  0  0  0  0  0  0  0
  187.0350  174.6290  142.7630 O   0  0  0  0  0  0  0  0  0  0  0  0
  188.1490  176.6340  142.2920 N   0  0  0  0  0  0  0  0  0  0  0  0
  190.2150  173.2760  142.5910 Cl  0  0  0  0  0  0  0  0  0  0  0  0
  187.9440  174.8000  139.5780 C   0  0  0  0  0  3  0  0  0  0  0  0
  188.5270  174.1970  138.4620 C   0  0  0  0  0  3  0  0  0  0  0  0
  189.5470  173.6870  141.0190 C   0  0  0  0  0  0  0  0  0  0  0  0
  190.1180  173.0820  139.8970 C   0  0  0  0  0  3  0  0  0  0  0  0
  189.6130  173.3250  138.6180 C   0  0  0  0  0  0  0  0  0  0  0  0
  188.4430  174.5550  140.8650 C   0  0  0  0  0  0  0  0  0  0  0  0
  190.2950  172.6960  137.4390 C   0  0  0  0  0  3  0  0  0  0  0  0
  189.3150  172.1140  136.4340 C   0  0  0  0  0  2  0  0  0  0  0  0
  189.9990  171.2030  137.4280 C   0  0  0  0  0  2  0  0  0  0  0  0
  195.3080  174.9050  146.2160 C   0  0  0  0  0  3  0  0  0  0  0  0
  192.9070  175.4570  144.7590 C   0  0  2  0  0  3  0  0  0  0  0  0
  193.8200  176.6220  145.1630 C   0  0  0  0  0  2  0  0  0  0  0  0
  194.5600  173.7710  145.5620 C   0  0  0  0  0  2  0  0  0  0  0  0
  194.9430  176.1890  146.0720 C   0  0  0  0  0  3  0  0  0  0  0  0
  193.7440  174.2400  144.3590 C   0  0  0  0  0  2  0  0  0  0  0  0
  192.5830  176.6020  142.6230 O   0  0  0  0  0  0  0  0  0  0  0  0
  193.5280  176.0020  141.7890 C   0  0  0  0  0  0  0  0  0  0  0  0
  193.1610  174.9110  140.9390 N   0  0  0  0  0  2  0  0  0  0  0  0
  194.7170  176.4320  141.8030 O   0  0  0  0  0  0  0  0  0  0  0  0
  193.7350  172.7220  136.8370 C   0  0  1  0  0  3  0  0  0  0  0  0
  194.0450  174.4150  139.9000 C   0  0  1  0  0  3  0  0  0  0  0  0
  194.1270  175.0760  136.4320 O   0  0  0  0  0  1  0  0  0  0  0  0
  193.6050  171.8960  140.0250 C   0  0  0  0  0  3  0  0  0  0  0  0
  194.5650  173.0290  140.2910 C   0  0  1  0  0  3  0  0  0  0  0  0
  194.2140  174.0680  137.4010 C   0  0  1  0  0  3  0  0  0  0  0  0
  194.1170  172.5490  135.3650 C   0  0  0  0  0  1  0  0  0  0  0  0
  193.3150  174.4580  138.5610 C   0  0  0  0  0  2  0  0  0  0  0  0
  193.4550  171.2640  138.8540 C   0  0  0  0  0  3  0  0  0  0  0  0
  194.1950  171.6020  137.6720 N   0  0  0  0  0  0  0  0  0  0  0  0
  195.8270  172.7890  139.7450 O   0  0  0  0  0  0  0  0  0  0  0  0
  196.5540  172.1700  140.7680 C   0  0  0  0  0  1  0  0  0  0  0  0
  195.0570  170.5580  137.1200 C   0  0  0  0  0  2  0  0  0  0  0  0
  194.4340  169.1930  137.3350 C   0  0  0  0  0  2  0  0  0  0  0  0
  193.8040  168.7080  136.0470 C   0  0  0  0  0  2  0  0  0  0  0  0
  192.0890  169.4810  134.8990 C   0  0  0  0  0  1  0  0  0  0  0  0
  192.4220  168.8770  136.1090 O   0  0  0  0  0  0  0  0  0  0  0  0
  1 35  1  6  0  0  0
  1  5  1  0  0  0  0
  4  6  1  0  0  0  0
  4  3  2  0  0  0  0
  5  6  1  0  0  0  0
  6  2  1  0  0  0  0
  7  5  2  0  0  0  0
  8 14  1  0  0  0  0
  8  4  1  1  0  0  0
  9 10  2  0  0  0  0
  9 14  1  0  0  0  0
 10 13  1  0  0  0  0
 11 12  1  0  0  0  0
 13 12  2  0  0  0  0
 14 11  2  0  0  0  0
 15 18  1  0  0  0  0
 16 18  1  0  0  0  0
 16 17  2  0  0  0  0
 18  8  1  0  0  0  0
 20 25  1  0  0  0  0
 21 24  1  0  0  0  0
 21 20  2  0  0  0  0
 22 19  1  0  0  0  0
 23 22  1  0  0  0  0
 24 23  2  0  0  0  0
 25 22  2  0  0  0  0
 25 16  1  0  0  0  0
 26 24  1  0  0  0  0
 27 28  1  0  0  0  0
 27 26  1  0  0  0  0
 28 26  1  0  0  0  0
 30  1  1  6  0  0  0
 30 31  1  0  0  0  0
 31 33  1  0  0  0  0
 32 29  1  0  0  0  0
 33 29  2  0  0  0  0
 34 30  1  0  0  0  0
 34 32  1  0  0  0  0
 36 38  2  0  0  0  0
 36 35  1  0  0  0  0
 37 36  1  0  0  0  0
 39 45  1  6  0  0  0
 39 44  1  0  0  0  0
 39 48  1  0  0  0  0
 40 43  1  0  0  0  0
 40 37  1  1  0  0  0
 42 43  1  0  0  0  0
 43 49  1  6  0  0  0
 44 41  1  6  0  0  0
 44 46  1  0  0  0  0
 46 40  1  0  0  0  0
 47 42  2  0  0  0  0
 48 47  1  0  0  0  0
 49 50  1  0  0  0  0
 51 52  1  0  0  0  0
 51 48  1  0  0  0  0
 53 55  1  0  0  0  0
 53 52  1  0  0  0  0
 54 55  1  0  0  0  0
M  END
>  <MODEL>
7

>  <REMARK>
 VINA RESULT:      -6.2      2.367      5.417
  Name = 
  15 active torsions:
  status: ('A' for Active; 'I' for Inactive)
    1  A    between atoms: C_3  and  O_25
    2  A    between atoms: C_3  and  C_38
    3  A    between atoms: C_6  and  N_22
    4  A    between atoms: C_8  and  O_54
    5  A    between atoms: C_10  and  C_48
    6  A    between atoms: C_14  and  O_20
    7  A    between atoms: C_19  and  C_45
    8  A    between atoms: C_26  and  C_45
    9  A    between atoms: C_27  and  C_51
   10  A    between atoms: C_29  and  C_38
   11  A    between atoms: C_29  and  N_53
   12  A    between atoms: C_33  and  C_52
   13  A    between atoms: C_35  and  C_51
   14  A    between atoms: C_45  and  N_49
   15  A    between atoms: C_51  and  O_54
                            x       y       z     vdW  Elec       q    Type
                         _______ _______ _______ _____ _____    ______ ____

>  <TORSDO>
F 15

$$$$
=
 OpenBabel11052419393D

 55 59  0  0  1  0  0  0  0  0999 V2000
  187.7340  175.8560  142.3200 C   0  0  2  0  0  3  0  0  0  0  0  0
  189.3160  178.4770  142.0280 C   0  0  0  0  0  1  0  0  0  0  0  0
  191.2360  178.8250  144.0050 O   0  0  0  0  0  0  0  0  0  0  0  0
  190.5170  177.7910  144.0970 C   0  0  0  0  0  0  0  0  0  0  0  0
  188.3940  176.6190  143.4380 C   0  0  0  0  0  0  0  0  0  0  0  0
  189.4110  177.6100  143.1980 N   0  0  0  0  0  0  0  0  0  0  0  0
  188.0460  176.3540  144.6200 O   0  0  0  0  0  0  0  0  0  0  0  0
  190.8750  176.7210  145.0960 C   0  0  2  0  0  3  0  0  0  0  0  0
  191.9550  176.7620  147.3960 C   0  0  0  0  0  3  0  0  0  0  0  0
  191.9410  177.1490  148.7400 C   0  0  0  0  0  3  0  0  0  0  0  0
  189.8610  177.9150  147.0390 C   0  0  0  0  0  3  0  0  0  0  0  0
  189.8460  178.3040  148.3830 C   0  0  0  0  0  3  0  0  0  0  0  0
  190.8850  177.9210  149.2340 C   0  0  0  0  0  3  0  0  0  0  0  0
  190.9160  177.1480  146.5370 C   0  0  0  0  0  0  0  0  0  0  0  0
  193.2230  176.5800  144.5770 O   0  0  0  0  0  1  0  0  0  0  0  0
  191.9630  174.5300  144.3640 C   0  0  0  0  0  0  0  0  0  0  0  0
  190.8460  173.9950  144.1370 O   0  0  0  0  0  0  0  0  0  0  0  0
  192.0380  175.9320  144.6900 N   0  0  0  0  0  0  0  0  0  0  0  0
  193.8630  174.8080  141.8610 Cl  0  0  0  0  0  0  0  0  0  0  0  0
  193.4420  172.8240  145.3880 C   0  0  0  0  0  3  0  0  0  0  0  0
  194.5570  171.9840  145.3660 C   0  0  0  0  0  3  0  0  0  0  0  0
  194.0700  173.7160  143.2210 C   0  0  0  0  0  0  0  0  0  0  0  0
  195.1870  172.8780  143.2120 C   0  0  0  0  0  3  0  0  0  0  0  0
  195.4420  172.0140  144.2800 C   0  0  0  0  0  0  0  0  0  0  0  0
  193.1840  173.6980  144.3220 C   0  0  0  0  0  0  0  0  0  0  0  0
  196.6230  171.0940  144.1980 C   0  0  0  0  0  3  0  0  0  0  0  0
  196.6800  170.1050  145.3520 C   0  0  0  0  0  2  0  0  0  0  0  0
  197.5400  171.3490  145.3880 C   0  0  0  0  0  2  0  0  0  0  0  0
  184.4380  178.3290  140.9160 C   0  0  0  0  0  3  0  0  0  0  0  0
  186.4140  176.4750  141.8390 C   0  0  2  0  0  3  0  0  0  0  0  0
  186.5840  177.1210  140.4590 C   0  0  0  0  0  2  0  0  0  0  0  0
  184.4470  177.9150  142.3660 C   0  0  0  0  0  2  0  0  0  0  0  0
  185.3790  177.9300  140.0450 C   0  0  0  0  0  3  0  0  0  0  0  0
  185.8360  177.4870  142.8320 C   0  0  0  0  0  2  0  0  0  0  0  0
  187.5710  174.4820  142.6540 O   0  0  0  0  0  0  0  0  0  0  0  0
  188.1460  173.4570  141.9000 C   0  0  0  0  0  0  0  0  0  0  0  0
  189.2770  173.7150  141.0620 N   0  0  0  0  0  2  0  0  0  0  0  0
  187.6460  172.2970  141.9620 O   0  0  0  0  0  0  0  0  0  0  0  0
  193.4050  171.6590  140.2420 C   0  0  1  0  0  3  0  0  0  0  0  0
  190.0390  172.6430  140.4480 C   0  0  1  0  0  3  0  0  0  0  0  0
  192.2510  170.2820  141.8620 O   0  0  0  0  0  1  0  0  0  0  0  0
  191.5140  173.9490  138.8120 C   0  0  0  0  0  3  0  0  0  0  0  0
  190.3500  173.0070  138.9930 C   0  0  1  0  0  3  0  0  0  0  0  0
  192.0600  171.1620  140.7900 C   0  0  1  0  0  3  0  0  0  0  0  0
  194.4820  170.5730  140.2950 C   0  0  0  0  0  1  0  0  0  0  0  0
  191.2710  172.3550  141.3010 C   0  0  0  0  0  2  0  0  0  0  0  0
  192.8030  173.5890  138.7640 C   0  0  0  0  0  3  0  0  0  0  0  0
  193.2520  172.2330  138.8950 N   0  0  0  0  0  0  0  0  0  0  0  0
  190.4680  171.8640  138.2010 O   0  0  0  0  0  0  0  0  0  0  0  0
  189.2570  171.1820  138.3640 C   0  0  0  0  0  1  0  0  0  0  0  0
  193.9640  171.6650  137.7520 C   0  0  0  0  0  2  0  0  0  0  0  0
  194.8230  172.7240  137.0890 C   0  0  0  0  0  2  0  0  0  0  0  0
  196.1970  172.7420  137.7230 C   0  0  0  0  0  2  0  0  0  0  0  0
  196.9440  173.3540  139.7040 C   0  0  0  0  0  1  0  0  0  0  0  0
  196.3080  173.8450  138.5670 O   0  0  0  0  0  0  0  0  0  0  0  0
  1 35  1  1  0  0  0
  1  5  1  0  0  0  0
  2  6  1  0  0  0  0
  3  4  2  0  0  0  0
  5  7  2  0  0  0  0
  6  5  1  0  0  0  0
  6  4  1  0  0  0  0
  8  4  1  6  0  0  0
  8 14  1  0  0  0  0
  9 10  1  0  0  0  0
 10 13  2  0  0  0  0
 11 12  2  0  0  0  0
 12 13  1  0  0  0  0
 14 11  1  0  0  0  0
 14  9  2  0  0  0  0
 15 18  1  0  0  0  0
 16 18  1  0  0  0  0
 17 16  2  0  0  0  0
 18  8  1  0  0  0  0
 19 22  1  0  0  0  0
 21 20  1  0  0  0  0
 22 25  1  0  0  0  0
 23 22  2  0  0  0  0
 23 24  1  0  0  0  0
 24 21  2  0  0  0  0
 25 16  1  0  0  0  0
 25 20  2  0  0  0  0
 26 24  1  0  0  0  0
 26 27  1  0  0  0  0
 26 28  1  0  0  0  0
 27 28  1  0  0  0  0
 29 32  1  0  0  0  0
 30  1  1  1  0  0  0
 30 34  1  0  0  0  0
 31 30  1  0  0  0  0
 32 34  1  0  0  0  0
 33 31  1  0  0  0  0
 33 29  2  0  0  0  0
 36 38  2  0  0  0  0
 36 35  1  0  0  0  0
 37 36  1  0  0  0  0
 39 45  1  6  0  0  0
 39 44  1  0  0  0  0
 40 37  1  1  0  0  0
 40 46  1  0  0  0  0
 42 43  1  0  0  0  0
 43 49  1  6  0  0  0
 43 40  1  0  0  0  0
 44 46  1  0  0  0  0
 44 41  1  1  0  0  0
 47 42  2  0  0  0  0
 47 48  1  0  0  0  0
 48 39  1  0  0  0  0
 49 50  1  0  0  0  0
 51 48  1  0  0  0  0
 52 53  1  0  0  0  0
 52 51  1  0  0  0  0
 53 55  1  0  0  0  0
 55 54  1  0  0  0  0
M  END
>  <MODEL>
8

>  <REMARK>
 VINA RESULT:      -6.2      2.688      4.597
  Name = 
  15 active torsions:
  status: ('A' for Active; 'I' for Inactive)
    1  A    between atoms: C_3  and  O_25
    2  A    between atoms: C_3  and  C_38
    3  A    between atoms: C_6  and  N_22
    4  A    between atoms: C_8  and  O_54
    5  A    between atoms: C_10  and  C_48
    6  A    between atoms: C_14  and  O_20
    7  A    between atoms: C_19  and  C_45
    8  A    between atoms: C_26  and  C_45
    9  A    between atoms: C_27  and  C_51
   10  A    between atoms: C_29  and  C_38
   11  A    between atoms: C_29  and  N_53
   12  A    between atoms: C_33  and  C_52
   13  A    between atoms: C_35  and  C_51
   14  A    between atoms: C_45  and  N_49
   15  A    between atoms: C_51  and  O_54
                            x       y       z     vdW  Elec       q    Type
                         _______ _______ _______ _____ _____    ______ ____

>  <TORSDO>
F 15

$$$$
=
 OpenBabel11052419393D

 55 59  0  0  1  0  0  0  0  0999 V2000
  188.3530  175.6010  142.4410 C   0  0  2  0  0  3  0  0  0  0  0  0
  187.6160  172.6370  142.0860 C   0  0  0  0  0  1  0  0  0  0  0  0
  188.7650  171.4820  139.8370 O   0  0  0  0  0  0  0  0  0  0  0  0
  188.9890  172.7130  140.0120 C   0  0  0  0  0  0  0  0  0  0  0  0
  188.3020  174.8540  141.1340 C   0  0  0  0  0  0  0  0  0  0  0  0
  188.3170  173.4150  141.0710 N   0  0  0  0  0  0  0  0  0  0  0  0
  188.2660  175.5260  140.0690 O   0  0  0  0  0  0  0  0  0  0  0  0
  190.0170  173.4120  139.1600 C   0  0  2  0  0  3  0  0  0  0  0  0
  189.5160  174.1500  136.7800 C   0  0  0  0  0  3  0  0  0  0  0  0
  189.4190  173.8670  135.4140 C   0  0  0  0  0  3  0  0  0  0  0  0
  190.2430  171.8830  137.2020 C   0  0  0  0  0  3  0  0  0  0  0  0
  190.1460  171.5990  135.8350 C   0  0  0  0  0  3  0  0  0  0  0  0
  189.7340  172.5890  134.9410 C   0  0  0  0  0  3  0  0  0  0  0  0
  189.9340  173.1590  137.6820 C   0  0  0  0  0  0  0  0  0  0  0  0
  191.5120  172.7450  140.9280 O   0  0  0  0  0  1  0  0  0  0  0  0
  192.5390  173.7730  138.9990 C   0  0  0  0  0  0  0  0  0  0  0  0
  192.4130  174.5710  138.0330 O   0  0  0  0  0  0  0  0  0  0  0  0
  191.3730  173.2940  139.6960 N   0  0  0  0  0  0  0  0  0  0  0  0
  194.6450  175.9480  139.8880 Cl  0  0  0  0  0  0  0  0  0  0  0  0
  194.1800  171.9440  139.3340 C   0  0  0  0  0  3  0  0  0  0  0  0
  195.4570  171.4730  139.6410 C   0  0  0  0  0  3  0  0  0  0  0  0
  194.9160  174.2180  139.7480 C   0  0  0  0  0  0  0  0  0  0  0  0
  196.1890  173.7370  140.0610 C   0  0  0  0  0  3  0  0  0  0  0  0
  196.4680  172.3690  140.0170 C   0  0  0  0  0  0  0  0  0  0  0  0
  193.8920  173.3160  139.3830 C   0  0  0  0  0  0  0  0  0  0  0  0
  197.8650  171.9060  140.3070 C   0  0  0  0  0  3  0  0  0  0  0  0
  197.9410  170.4180  140.6070 C   0  0  0  0  0  2  0  0  0  0  0  0
  197.9390  171.4120  141.7460 C   0  0  0  0  0  2  0  0  0  0  0  0
  185.3920  178.5610  143.6360 C   0  0  0  0  0  3  0  0  0  0  0  0
  187.1200  176.4780  142.7040 C   0  0  2  0  0  3  0  0  0  0  0  0
  187.3580  177.9150  142.2250 C   0  0  0  0  0  2  0  0  0  0  0  0
  185.3620  177.2140  144.3130 C   0  0  0  0  0  2  0  0  0  0  0  0
  186.2650  178.8590  142.6600 C   0  0  0  0  0  3  0  0  0  0  0  0
  186.6880  176.4710  144.1720 C   0  0  0  0  0  2  0  0  0  0  0  0
  189.5570  176.3500  142.5640 O   0  0  0  0  0  0  0  0  0  0  0  0
  190.5490  176.0220  143.4890 C   0  0  0  0  0  0  0  0  0  0  0  0
  191.7630  175.3940  143.0640 N   0  0  0  0  0  2  0  0  0  0  0  0
  190.3560  176.2810  144.7110 O   0  0  0  0  0  0  0  0  0  0  0  0
  196.3010  174.3990  143.6640 C   0  0  1  0  0  3  0  0  0  0  0  0
  192.9040  175.2480  143.9490 C   0  0  1  0  0  3  0  0  0  0  0  0
  196.0760  176.7970  143.8990 O   0  0  0  0  0  1  0  0  0  0  0  0
  193.4410  172.7600  143.6700 C   0  0  0  0  0  3  0  0  0  0  0  0
  192.8950  173.8450  144.5640 C   0  0  1  0  0  3  0  0  0  0  0  0
  195.4080  175.5790  144.0730 C   0  0  1  0  0  3  0  0  0  0  0  0
  197.7700  174.6430  144.0170 C   0  0  0  0  0  1  0  0  0  0  0  0
  194.1780  175.5910  143.1830 C   0  0  0  0  0  2  0  0  0  0  0  0
  194.7360  172.4480  143.5290 C   0  0  0  0  0  3  0  0  0  0  0  0
  195.7940  173.1320  144.2150 N   0  0  0  0  0  0  0  0  0  0  0  0
  193.4970  173.8420  145.8240 O   0  0  0  0  0  0  0  0  0  0  0  0
  192.8470  174.8540  146.5390 C   0  0  0  0  0  1  0  0  0  0  0  0
  196.6090  172.3290  145.1250 C   0  0  0  0  0  2  0  0  0  0  0  0
  196.2130  170.8690  145.0370 C   0  0  0  0  0  2  0  0  0  0  0  0
  195.8440  170.3530  146.4110 C   0  0  0  0  0  2  0  0  0  0  0  0
  195.2010  168.4640  147.3480 C   0  0  0  0  0  1  0  0  0  0  0  0
  196.1720  169.0010  146.5070 O   0  0  0  0  0  0  0  0  0  0  0  0
  1  5  1  6  0  0  0
  1 35  1  0  0  0  0
  3  4  2  0  0  0  0
  4  6  1  0  0  0  0
  6  5  1  0  0  0  0
  6  2  1  0  0  0  0
  7  5  2  0  0  0  0
  8 18  1  0  0  0  0
  8  4  1  1  0  0  0
  9 14  1  0  0  0  0
 10  9  2  0  0  0  0
 11 14  2  0  0  0  0
 12 11  1  0  0  0  0
 13 10  1  0  0  0  0
 13 12  2  0  0  0  0
 14  8  1  0  0  0  0
 16 25  1  0  0  0  0
 16 18  1  0  0  0  0
 17 16  2  0  0  0  0
 18 15  1  0  0  0  0
 20 25  2  0  0  0  0
 20 21  1  0  0  0  0
 21 24  2  0  0  0  0
 22 19  1  0  0  0  0
 22 23  2  0  0  0  0
 24 23  1  0  0  0  0
 24 26  1  0  0  0  0
 25 22  1  0  0  0  0
 26 27  1  0  0  0  0
 26 28  1  0  0  0  0
 27 28  1  0  0  0  0
 29 32  1  0  0  0  0
 30  1  1  1  0  0  0
 30 34  1  0  0  0  0
 31 33  1  0  0  0  0
 31 30  1  0  0  0  0
 33 29  2  0  0  0  0
 34 32  1  0  0  0  0
 35 36  1  0  0  0  0
 36 38  2  0  0  0  0
 37 36  1  0  0  0  0
 39 45  1  1  0  0  0
 39 44  1  0  0  0  0
 39 48  1  0  0  0  0
 40 37  1  6  0  0  0
 40 43  1  0  0  0  0
 42 43  1  0  0  0  0
 43 49  1  1  0  0  0
 44 41  1  6  0  0  0
 46 40  1  0  0  0  0
 46 44  1  0  0  0  0
 47 42  2  0  0  0  0
 47 48  1  0  0  0  0
 48 51  1  0  0  0  0
 49 50  1  0  0  0  0
 52 51  1  0  0  0  0
 52 53  1  0  0  0  0
 53 55  1  0  0  0  0
 55 54  1  0  0  0  0
M  END
>  <MODEL>
9

>  <REMARK>
 VINA RESULT:      -6.1      3.215      8.449
  Name = 
  15 active torsions:
  status: ('A' for Active; 'I' for Inactive)
    1  A    between atoms: C_3  and  O_25
    2  A    between atoms: C_3  and  C_38
    3  A    between atoms: C_6  and  N_22
    4  A    between atoms: C_8  and  O_54
    5  A    between atoms: C_10  and  C_48
    6  A    between atoms: C_14  and  O_20
    7  A    between atoms: C_19  and  C_45
    8  A    between atoms: C_26  and  C_45
    9  A    between atoms: C_27  and  C_51
   10  A    between atoms: C_29  and  C_38
   11  A    between atoms: C_29  and  N_53
   12  A    between atoms: C_33  and  C_52
   13  A    between atoms: C_35  and  C_51
   14  A    between atoms: C_45  and  N_49
   15  A    between atoms: C_51  and  O_54
                            x       y       z     vdW  Elec       q    Type
                         _______ _______ _______ _____ _____    ______ ____

>  <TORSDO>
F 15

$$$$
