=
 OpenBabel11052417263D

 25 27  0  0  1  0  0  0  0  0999 V2000
  188.2410  175.8820  146.0360 C   0  0  1  0  0  3  0  0  0  0  0  0
  189.1510  176.4680  144.9800 C   0  0  0  0  0  0  0  0  0  0  0  0
  190.2840  175.7290  147.5150 C   0  0  0  0  0  2  0  0  0  0  0  0
  191.1980  175.7500  146.2970 C   0  0  0  0  0  2  0  0  0  0  0  0
  191.3680  177.0220  144.1360 C   0  0  0  0  0  0  0  0  0  0  0  0
  192.7520  177.0060  144.2560 O   0  0  0  0  0  1  0  0  0  0  0  0
  188.5840  177.0570  143.8430 C   0  0  0  0  0  3  0  0  0  0  0  0
  188.9510  175.0950  147.1430 C   0  0  0  0  0  2  0  0  0  0  0  0
  190.7860  177.6140  143.0120 C   0  0  0  0  0  3  0  0  0  0  0  0
  189.3980  177.6260  142.8610 C   0  0  0  0  0  0  0  0  0  0  0  0
  190.5570  176.4500  145.1300 C   0  0  0  0  0  0  0  0  0  0  0  0
  187.1930  176.8260  146.5670 C   0  0  0  0  0  0  0  0  0  0  0  0
  185.1050  178.4620  147.4930 C   0  0  0  0  0  3  0  0  0  0  0  0
  187.4760  177.9610  147.3650 C   0  0  0  0  0  0  0  0  0  0  0  0
  186.4270  178.7670  147.8190 C   0  0  0  0  0  3  0  0  0  0  0  0
  184.8210  177.3420  146.7100 C   0  0  0  0  0  3  0  0  0  0  0  0
  189.1070  178.4340  147.8170 Cl  0  0  0  0  0  0  0  0  0  0  0  0
  185.8600  176.5310  146.2510 C   0  0  0  0  0  3  0  0  0  0  0  0
  188.7830  178.2760  141.6710 C   0  0  0  0  0  2  0  0  0  0  0  0
  187.5890  177.4660  141.1940 C   0  0  0  0  0  2  0  0  0  0  0  0
  186.3360  178.3270  141.1730 C   0  0  1  0  0  3  0  0  0  0  0  0
  185.4780  177.8770  140.1700 O   0  0  0  0  0  1  0  0  0  0  0  0
  185.6370  178.2860  142.4940 C   0  0  0  0  0  0  0  0  0  0  0  0
  185.0390  177.2420  142.8690 O   0  0  0  0  0  0  0  0  0  0  0  0
  185.6630  179.4010  143.3200 O   0  0  0  0  0  1  0  0  0  0  0  0
  1 12  1  1  0  0  0
  1  8  1  0  0  0  0
  2 11  1  0  0  0  0
  2  1  1  0  0  0  0
  4  3  1  0  0  0  0
  5  6  1  0  0  0  0
  5 11  2  0  0  0  0
  7  2  2  0  0  0  0
  8  3  1  0  0  0  0
  9  5  1  0  0  0  0
 10  9  2  0  0  0  0
 10  7  1  0  0  0  0
 11  4  1  0  0  0  0
 12 14  1  0  0  0  0
 13 15  1  0  0  0  0
 14 17  1  0  0  0  0
 14 15  2  0  0  0  0
 16 13  2  0  0  0  0
 18 12  2  0  0  0  0
 18 16  1  0  0  0  0
 19 10  1  0  0  0  0
 20 19  1  0  0  0  0
 21 22  1  6  0  0  0
 21 20  1  0  0  0  0
 21 23  1  0  0  0  0
 23 24  2  0  0  0  0
 23 25  1  0  0  0  0
M  END
>  <MODEL>
1

>  <REMARK>
 VINA RESULT:      -7.6      0.000      0.000
  Name = 
  5 active torsions:
  status: ('A' for Active; 'I' for Inactive)
    1  A    between atoms: C_1  and  C_5
    2  A    between atoms: C_2  and  C_21
    3  A    between atoms: C_6  and  C_15
    4  A    between atoms: C_6  and  C_23
    5  A    between atoms: C_15  and  C_21
                            x       y       z     vdW  Elec       q    Type
                         _______ _______ _______ _____ _____    ______ ____

>  <TORSDO>
F 5

$$$$
=
 OpenBabel11052417263D

 25 27  0  0  1  0  0  0  0  0999 V2000
  189.7710  177.7820  143.6300 C   0  0  1  0  0  3  0  0  0  0  0  0
  189.4780  177.1740  144.9840 C   0  0  0  0  0  0  0  0  0  0  0  0
  192.0220  176.6420  143.7600 C   0  0  0  0  0  2  0  0  0  0  0  0
  191.9240  176.5650  145.2780 C   0  0  0  0  0  2  0  0  0  0  0  0
  190.1770  175.9800  146.9880 C   0  0  0  0  0  0  0  0  0  0  0  0
  191.1610  175.3720  147.7590 O   0  0  0  0  0  1  0  0  0  0  0  0
  188.1690  177.2160  145.4800 C   0  0  0  0  0  3  0  0  0  0  0  0
  191.2560  177.8580  143.2590 C   0  0  0  0  0  2  0  0  0  0  0  0
  188.8640  176.0220  147.4650 C   0  0  0  0  0  3  0  0  0  0  0  0
  187.8630  176.6440  146.7170 C   0  0  0  0  0  0  0  0  0  0  0  0
  190.4940  176.5500  145.7440 C   0  0  0  0  0  0  0  0  0  0  0  0
  188.9100  177.2690  142.5040 C   0  0  0  0  0  0  0  0  0  0  0  0
  187.2690  176.4990  140.3580 C   0  0  0  0  0  3  0  0  0  0  0  0
  188.8400  175.9110  142.1110 C   0  0  0  0  0  0  0  0  0  0  0  0
  188.0180  175.5410  141.0420 C   0  0  0  0  0  3  0  0  0  0  0  0
  187.3380  177.8400  140.7390 C   0  0  0  0  0  3  0  0  0  0  0  0
  189.7350  174.6310  142.9170 Cl  0  0  0  0  0  0  0  0  0  0  0  0
  188.1540  178.2200  141.8060 C   0  0  0  0  0  3  0  0  0  0  0  0
  186.4620  176.6670  147.2200 C   0  0  0  0  0  2  0  0  0  0  0  0
  185.4910  176.7680  146.0550 C   0  0  0  0  0  2  0  0  0  0  0  0
  184.5450  177.9410  146.2510 C   0  0  1  0  0  3  0  0  0  0  0  0
  184.8460  178.5880  147.4500 O   0  0  0  0  0  1  0  0  0  0  0  0
  184.6480  178.9070  145.1160 C   0  0  0  0  0  0  0  0  0  0  0  0
  183.7310  178.9830  144.2540 O   0  0  0  0  0  0  0  0  0  0  0  0
  185.7550  179.7390  145.0190 O   0  0  0  0  0  1  0  0  0  0  0  0
  1 12  1  6  0  0  0
  1  2  1  0  0  0  0
  2  7  2  0  0  0  0
  2 11  1  0  0  0  0
  3  4  1  0  0  0  0
  4 11  1  0  0  0  0
  5  9  1  0  0  0  0
  5  6  1  0  0  0  0
  7 10  1  0  0  0  0
  8  1  1  0  0  0  0
  8  3  1  0  0  0  0
 10 19  1  0  0  0  0
 10  9  2  0  0  0  0
 11  5  2  0  0  0  0
 13 16  2  0  0  0  0
 13 15  1  0  0  0  0
 14 12  1  0  0  0  0
 14 17  1  0  0  0  0
 15 14  2  0  0  0  0
 16 18  1  0  0  0  0
 18 12  2  0  0  0  0
 20 21  1  0  0  0  0
 20 19  1  0  0  0  0
 21 22  1  1  0  0  0
 23 21  1  0  0  0  0
 24 23  2  0  0  0  0
 25 23  1  0  0  0  0
M  END
>  <MODEL>
2

>  <REMARK>
 VINA RESULT:      -7.5      2.139      4.838
  Name = 
  5 active torsions:
  status: ('A' for Active; 'I' for Inactive)
    1  A    between atoms: C_1  and  C_5
    2  A    between atoms: C_2  and  C_21
    3  A    between atoms: C_6  and  C_15
    4  A    between atoms: C_6  and  C_23
    5  A    between atoms: C_15  and  C_21
                            x       y       z     vdW  Elec       q    Type
                         _______ _______ _______ _____ _____    ______ ____

>  <TORSDO>
F 5

$$$$
=
 OpenBabel11052417263D

 25 27  0  0  1  0  0  0  0  0999 V2000
  189.0240  174.9350  144.1110 C   0  0  1  0  0  3  0  0  0  0  0  0
  188.1480  176.0160  143.5190 C   0  0  0  0  0  0  0  0  0  0  0  0
  189.7100  174.3860  141.7410 C   0  0  0  0  0  2  0  0  0  0  0  0
  188.4410  175.0310  141.1990 C   0  0  0  0  0  2  0  0  0  0  0  0
  187.1080  177.1210  141.6140 C   0  0  0  0  0  0  0  0  0  0  0  0
  186.8530  177.2090  140.2510 O   0  0  0  0  0  1  0  0  0  0  0  0
  187.5770  176.9710  144.3700 C   0  0  0  0  0  3  0  0  0  0  0  0
  189.4460  173.8310  143.1340 C   0  0  0  0  0  2  0  0  0  0  0  0
  186.5530  178.0720  142.4750 C   0  0  0  0  0  3  0  0  0  0  0  0
  186.7810  177.9940  143.8510 C   0  0  0  0  0  0  0  0  0  0  0  0
  187.9120  176.0900  142.1270 C   0  0  0  0  0  0  0  0  0  0  0  0
  190.1660  175.4360  144.9580 C   0  0  0  0  0  0  0  0  0  0  0  0
  192.3650  176.4580  146.3760 C   0  0  0  0  0  3  0  0  0  0  0  0
  190.2260  175.3130  146.3670 C   0  0  0  0  0  0  0  0  0  0  0  0
  191.3270  175.8240  147.0610 C   0  0  0  0  0  3  0  0  0  0  0  0
  192.3080  176.5850  144.9880 C   0  0  0  0  0  3  0  0  0  0  0  0
  188.9750  174.5220  147.3150 Cl  0  0  0  0  0  0  0  0  0  0  0  0
  191.2150  176.0770  144.2850 C   0  0  0  0  0  3  0  0  0  0  0  0
  186.2040  179.0210  144.7610 C   0  0  0  0  0  2  0  0  0  0  0  0
  184.7830  178.6400  145.1430 C   0  0  0  0  0  2  0  0  0  0  0  0
  184.7460  178.0650  146.5500 C   0  0  1  0  0  3  0  0  0  0  0  0
  184.8010  176.6730  146.4860 O   0  0  0  0  0  1  0  0  0  0  0  0
  185.8870  178.5790  147.3670 C   0  0  0  0  0  0  0  0  0  0  0  0
  185.8940  179.7700  147.7800 O   0  0  0  0  0  1  0  0  0  0  0  0
  186.9400  177.7330  147.6870 O   0  0  0  0  0  0  0  0  0  0  0  0
  1 12  1  6  0  0  0
  2  1  1  0  0  0  0
  2  7  1  0  0  0  0
  3  8  1  0  0  0  0
  4  3  1  0  0  0  0
  4 11  1  0  0  0  0
  5 11  1  0  0  0  0
  5  9  2  0  0  0  0
  6  5  1  0  0  0  0
  8  1  1  0  0  0  0
  9 10  1  0  0  0  0
 10  7  2  0  0  0  0
 10 19  1  0  0  0  0
 11  2  2  0  0  0  0
 12 14  1  0  0  0  0
 13 15  1  0  0  0  0
 14 15  2  0  0  0  0
 14 17  1  0  0  0  0
 16 13  2  0  0  0  0
 18 12  2  0  0  0  0
 18 16  1  0  0  0  0
 19 20  1  0  0  0  0
 20 21  1  0  0  0  0
 21 22  1  6  0  0  0
 21 23  1  0  0  0  0
 23 25  2  0  0  0  0
 23 24  1  0  0  0  0
M  END
>  <MODEL>
3

>  <REMARK>
 VINA RESULT:      -7.4      2.332      5.047
  Name = 
  5 active torsions:
  status: ('A' for Active; 'I' for Inactive)
    1  A    between atoms: C_1  and  C_5
    2  A    between atoms: C_2  and  C_21
    3  A    between atoms: C_6  and  C_15
    4  A    between atoms: C_6  and  C_23
    5  A    between atoms: C_15  and  C_21
                            x       y       z     vdW  Elec       q    Type
                         _______ _______ _______ _____ _____    ______ ____

>  <TORSDO>
F 5

$$$$
=
 OpenBabel11052417263D

 25 27  0  0  1  0  0  0  0  0999 V2000
  187.3130  177.8720  143.6250 C   0  0  1  0  0  3  0  0  0  0  0  0
  188.0270  176.5460  143.4940 C   0  0  0  0  0  0  0  0  0  0  0  0
  186.3080  177.3960  141.3560 C   0  0  0  0  0  2  0  0  0  0  0  0
  187.4420  176.4330  141.0280 C   0  0  0  0  0  2  0  0  0  0  0  0
  188.7030  174.5990  142.1960 C   0  0  0  0  0  0  0  0  0  0  0  0
  188.7440  173.8910  141.0010 O   0  0  0  0  0  1  0  0  0  0  0  0
  188.6670  176.0040  144.6170 C   0  0  0  0  0  3  0  0  0  0  0  0
  186.8100  178.4730  142.3070 C   0  0  0  0  0  2  0  0  0  0  0  0
  189.3280  174.0680  143.3270 C   0  0  0  0  0  3  0  0  0  0  0  0
  189.3170  174.7710  144.5340 C   0  0  0  0  0  0  0  0  0  0  0  0
  188.0450  175.8380  142.2710 C   0  0  0  0  0  0  0  0  0  0  0  0
  186.2860  177.9350  144.7270 C   0  0  0  0  0  0  0  0  0  0  0  0
  184.4410  177.8790  146.8450 C   0  0  0  0  0  3  0  0  0  0  0  0
  185.4860  179.0690  145.0050 C   0  0  0  0  0  0  0  0  0  0  0  0
  184.5700  179.0270  146.0620 C   0  0  0  0  0  3  0  0  0  0  0  0
  185.2320  176.7610  146.5770 C   0  0  0  0  0  3  0  0  0  0  0  0
  185.5660  180.5540  144.0700 Cl  0  0  0  0  0  0  0  0  0  0  0  0
  186.1480  176.7910  145.5240 C   0  0  0  0  0  3  0  0  0  0  0  0
  189.9670  174.1900  145.7410 C   0  0  0  0  0  2  0  0  0  0  0  0
  189.5890  174.9950  146.9730 C   0  0  0  0  0  2  0  0  0  0  0  0
  190.8370  175.4830  147.6920 C   0  0  1  0  0  3  0  0  0  0  0  0
  191.9640  175.1790  146.9270 O   0  0  0  0  0  1  0  0  0  0  0  0
  190.7720  176.9560  147.9360 C   0  0  0  0  0  0  0  0  0  0  0  0
  189.9930  177.6820  147.2640 O   0  0  0  0  0  0  0  0  0  0  0  0
  191.5660  177.5240  148.9220 O   0  0  0  0  0  1  0  0  0  0  0  0
  1 12  1  1  0  0  0
  2  1  1  0  0  0  0
  2  7  1  0  0  0  0
  3  8  1  0  0  0  0
  4  3  1  0  0  0  0
  4 11  1  0  0  0  0
  5 11  1  0  0  0  0
  5  9  2  0  0  0  0
  6  5  1  0  0  0  0
  8  1  1  0  0  0  0
  9 10  1  0  0  0  0
 10  7  2  0  0  0  0
 10 19  1  0  0  0  0
 11  2  2  0  0  0  0
 12 14  2  0  0  0  0
 12 18  1  0  0  0  0
 14 15  1  0  0  0  0
 15 13  2  0  0  0  0
 16 13  1  0  0  0  0
 17 14  1  0  0  0  0
 18 16  2  0  0  0  0
 19 20  1  0  0  0  0
 20 21  1  0  0  0  0
 21 22  1  6  0  0  0
 21 23  1  0  0  0  0
 23 25  1  0  0  0  0
 24 23  2  0  0  0  0
M  END
>  <MODEL>
4

>  <REMARK>
 VINA RESULT:      -7.2      2.764      5.365
  Name = 
  5 active torsions:
  status: ('A' for Active; 'I' for Inactive)
    1  A    between atoms: C_1  and  C_5
    2  A    between atoms: C_2  and  C_21
    3  A    between atoms: C_6  and  C_15
    4  A    between atoms: C_6  and  C_23
    5  A    between atoms: C_15  and  C_21
                            x       y       z     vdW  Elec       q    Type
                         _______ _______ _______ _____ _____    ______ ____

>  <TORSDO>
F 5

$$$$
=
 OpenBabel11052417263D

 25 27  0  0  1  0  0  0  0  0999 V2000
  189.6980  173.7880  144.5860 C   0  0  1  0  0  3  0  0  0  0  0  0
  189.0420  174.5620  143.4640 C   0  0  0  0  0  0  0  0  0  0  0  0
  190.8360  172.4210  142.7900 C   0  0  0  0  0  2  0  0  0  0  0  0
  189.7580  172.8020  141.7830 C   0  0  0  0  0  2  0  0  0  0  0  0
  188.5100  174.8760  141.1080 C   0  0  0  0  0  0  0  0  0  0  0  0
  188.5580  174.4540  139.7850 O   0  0  0  0  0  1  0  0  0  0  0  0
  188.3670  175.7530  143.7630 C   0  0  0  0  0  3  0  0  0  0  0  0
  190.2440  172.4110  144.1930 C   0  0  0  0  0  2  0  0  0  0  0  0
  187.8480  176.0670  141.4220 C   0  0  0  0  0  3  0  0  0  0  0  0
  187.7700  176.5020  142.7470 C   0  0  0  0  0  0  0  0  0  0  0  0
  189.1150  174.1180  142.1240 C   0  0  0  0  0  0  0  0  0  0  0  0
  190.6630  174.5830  145.4270 C   0  0  0  0  0  0  0  0  0  0  0  0
  192.5710  176.0890  146.8350 C   0  0  0  0  0  3  0  0  0  0  0  0
  190.4080  174.9920  146.7590 C   0  0  0  0  0  0  0  0  0  0  0  0
  191.3670  175.7400  147.4490 C   0  0  0  0  0  3  0  0  0  0  0  0
  192.8240  175.6920  145.5220 C   0  0  0  0  0  3  0  0  0  0  0  0
  188.9290  174.5920  147.6190 Cl  0  0  0  0  0  0  0  0  0  0  0  0
  191.8750  174.9440  144.8240 C   0  0  0  0  0  3  0  0  0  0  0  0
  187.0810  177.7810  143.0720 C   0  0  0  0  0  2  0  0  0  0  0  0
  187.2160  178.0820  144.5560 C   0  0  0  0  0  2  0  0  0  0  0  0
  186.0780  178.9760  145.0220 C   0  0  1  0  0  3  0  0  0  0  0  0
  185.6140  179.7360  143.9490 O   0  0  0  0  0  1  0  0  0  0  0  0
  184.9590  178.1640  145.5900 C   0  0  0  0  0  0  0  0  0  0  0  0
  185.1390  176.9580  145.9070 O   0  0  0  0  0  1  0  0  0  0  0  0
  183.7160  178.7500  145.7850 O   0  0  0  0  0  0  0  0  0  0  0  0
  1 12  1  6  0  0  0
  2  7  1  0  0  0  0
  2  1  1  0  0  0  0
  3  8  1  0  0  0  0
  4 11  1  0  0  0  0
  4  3  1  0  0  0  0
  5  9  2  0  0  0  0
  5 11  1  0  0  0  0
  6  5  1  0  0  0  0
  8  1  1  0  0  0  0
  9 10  1  0  0  0  0
 10 19  1  0  0  0  0
 10  7  2  0  0  0  0
 11  2  2  0  0  0  0
 12 14  1  0  0  0  0
 13 15  1  0  0  0  0
 14 15  2  0  0  0  0
 14 17  1  0  0  0  0
 16 13  2  0  0  0  0
 18 12  2  0  0  0  0
 18 16  1  0  0  0  0
 19 20  1  0  0  0  0
 20 21  1  0  0  0  0
 21 22  1  6  0  0  0
 21 23  1  0  0  0  0
 23 25  2  0  0  0  0
 23 24  1  0  0  0  0
M  END
>  <MODEL>
5

>  <REMARK>
 VINA RESULT:      -7.2      2.727      4.620
  Name = 
  5 active torsions:
  status: ('A' for Active; 'I' for Inactive)
    1  A    between atoms: C_1  and  C_5
    2  A    between atoms: C_2  and  C_21
    3  A    between atoms: C_6  and  C_15
    4  A    between atoms: C_6  and  C_23
    5  A    between atoms: C_15  and  C_21
                            x       y       z     vdW  Elec       q    Type
                         _______ _______ _______ _____ _____    ______ ____

>  <TORSDO>
F 5

$$$$
=
 OpenBabel11052417263D

 25 27  0  0  1  0  0  0  0  0999 V2000
  187.7160  177.6590  143.9470 C   0  0  1  0  0  3  0  0  0  0  0  0
  188.9100  176.7410  144.0890 C   0  0  0  0  0  0  0  0  0  0  0  0
  186.7520  175.9340  142.3710 C   0  0  0  0  0  2  0  0  0  0  0  0
  188.1420  175.3770  142.0910 C   0  0  0  0  0  2  0  0  0  0  0  0
  190.1960  174.7860  143.4130 C   0  0  0  0  0  0  0  0  0  0  0  0
  190.3950  173.6910  142.5820 O   0  0  0  0  0  1  0  0  0  0  0  0
  189.8480  176.9940  145.0980 C   0  0  0  0  0  3  0  0  0  0  0  0
  186.8530  177.4170  142.7030 C   0  0  0  0  0  2  0  0  0  0  0  0
  191.1180  175.0470  144.4310 C   0  0  0  0  0  3  0  0  0  0  0  0
  190.9490  176.1520  145.2680 C   0  0  0  0  0  0  0  0  0  0  0  0
  189.0840  175.6260  143.2370 C   0  0  0  0  0  0  0  0  0  0  0  0
  186.9010  177.8380  145.2010 C   0  0  0  0  0  0  0  0  0  0  0  0
  185.4860  178.0290  147.6210 C   0  0  0  0  0  3  0  0  0  0  0  0
  185.9820  178.8950  145.4090 C   0  0  0  0  0  0  0  0  0  0  0  0
  185.2830  178.9780  146.6180 C   0  0  0  0  0  3  0  0  0  0  0  0
  186.3940  176.9880  147.4220 C   0  0  0  0  0  3  0  0  0  0  0  0
  185.6500  180.1290  144.2030 Cl  0  0  0  0  0  0  0  0  0  0  0  0
  187.0960  176.8960  146.2200 C   0  0  0  0  0  3  0  0  0  0  0  0
  191.9230  176.4140  146.3630 C   0  0  0  0  0  2  0  0  0  0  0  0
  192.9900  175.3320  146.3800 C   0  0  0  0  0  2  0  0  0  0  0  0
  194.3750  175.9530  146.4730 C   0  0  1  0  0  3  0  0  0  0  0  0
  195.3400  174.9470  146.4240 O   0  0  0  0  0  1  0  0  0  0  0  0
  194.6000  176.9260  145.3620 C   0  0  0  0  0  0  0  0  0  0  0  0
  194.9730  178.1040  145.6080 O   0  0  0  0  0  1  0  0  0  0  0  0
  194.4140  176.5220  144.0470 O   0  0  0  0  0  0  0  0  0  0  0  0
  1  2  1  0  0  0  0
  1 12  1  1  0  0  0
  2  7  1  0  0  0  0
  3  8  1  0  0  0  0
  4  3  1  0  0  0  0
  4 11  1  0  0  0  0
  5  9  2  0  0  0  0
  6  5  1  0  0  0  0
  7 10  2  0  0  0  0
  8  1  1  0  0  0  0
  9 10  1  0  0  0  0
 10 19  1  0  0  0  0
 11  5  1  0  0  0  0
 11  2  2  0  0  0  0
 12 14  2  0  0  0  0
 12 18  1  0  0  0  0
 14 15  1  0  0  0  0
 15 13  2  0  0  0  0
 16 13  1  0  0  0  0
 17 14  1  0  0  0  0
 18 16  2  0  0  0  0
 19 20  1  0  0  0  0
 20 21  1  0  0  0  0
 21 22  1  6  0  0  0
 23 24  1  0  0  0  0
 23 21  1  0  0  0  0
 25 23  2  0  0  0  0
M  END
>  <MODEL>
6

>  <REMARK>
 VINA RESULT:      -7.2      2.992      5.752
  Name = 
  5 active torsions:
  status: ('A' for Active; 'I' for Inactive)
    1  A    between atoms: C_1  and  C_5
    2  A    between atoms: C_2  and  C_21
    3  A    between atoms: C_6  and  C_15
    4  A    between atoms: C_6  and  C_23
    5  A    between atoms: C_15  and  C_21
                            x       y       z     vdW  Elec       q    Type
                         _______ _______ _______ _____ _____    ______ ____

>  <TORSDO>
F 5

$$$$
=
 OpenBabel11052417263D

 25 27  0  0  1  0  0  0  0  0999 V2000
  189.8340  175.2900  146.7950 C   0  0  1  0  0  3  0  0  0  0  0  0
  190.4940  174.3960  145.7690 C   0  0  0  0  0  0  0  0  0  0  0  0
  192.0830  176.4120  147.0580 C   0  0  0  0  0  2  0  0  0  0  0  0
  192.7900  175.1790  146.5110 C   0  0  0  0  0  2  0  0  0  0  0  0
  192.4700  173.5520  144.6220 C   0  0  0  0  0  0  0  0  0  0  0  0
  193.8470  173.5120  144.4460 O   0  0  0  0  0  1  0  0  0  0  0  0
  189.6910  173.5820  144.9590 C   0  0  0  0  0  3  0  0  0  0  0  0
  190.7970  175.9960  147.7570 C   0  0  0  0  0  2  0  0  0  0  0  0
  191.6550  172.7530  143.8160 C   0  0  0  0  0  3  0  0  0  0  0  0
  190.2690  172.7620  143.9870 C   0  0  0  0  0  0  0  0  0  0  0  0
  191.8970  174.3820  145.6000 C   0  0  0  0  0  0  0  0  0  0  0  0
  188.7730  176.2090  146.2480 C   0  0  0  0  0  0  0  0  0  0  0  0
  186.6830  177.8750  145.3810 C   0  0  0  0  0  3  0  0  0  0  0  0
  188.9690  177.0930  145.1590 C   0  0  0  0  0  0  0  0  0  0  0  0
  187.9200  177.9150  144.7370 C   0  0  0  0  0  3  0  0  0  0  0  0
  186.4860  177.0090  146.4580 C   0  0  0  0  0  3  0  0  0  0  0  0
  190.4850  177.2070  144.2770 Cl  0  0  0  0  0  0  0  0  0  0  0  0
  187.5260  176.1830  146.8870 C   0  0  0  0  0  3  0  0  0  0  0  0
  189.4040  171.9240  143.1120 C   0  0  0  0  0  2  0  0  0  0  0  0
  189.4310  172.4570  141.6890 C   0  0  0  0  0  2  0  0  0  0  0  0
  188.1410  173.1970  141.3740 C   0  0  1  0  0  3  0  0  0  0  0  0
  187.0740  172.5660  142.0130 O   0  0  0  0  0  1  0  0  0  0  0  0
  188.2220  174.6240  141.8120 C   0  0  0  0  0  0  0  0  0  0  0  0
  189.2830  175.2840  141.6500 O   0  0  0  0  0  0  0  0  0  0  0  0
  187.1140  175.2290  142.3880 O   0  0  0  0  0  1  0  0  0  0  0  0
  1 12  1  6  0  0  0
  1  8  1  0  0  0  0
  2  1  1  0  0  0  0
  3  8  1  0  0  0  0
  4  3  1  0  0  0  0
  5 11  2  0  0  0  0
  6  5  1  0  0  0  0
  7  2  2  0  0  0  0
  9 10  2  0  0  0  0
  9  5  1  0  0  0  0
 10  7  1  0  0  0  0
 11  2  1  0  0  0  0
 11  4  1  0  0  0  0
 12 18  1  0  0  0  0
 13 16  1  0  0  0  0
 14 12  2  0  0  0  0
 15 14  1  0  0  0  0
 15 13  2  0  0  0  0
 16 18  2  0  0  0  0
 17 14  1  0  0  0  0
 19 10  1  0  0  0  0
 20 19  1  0  0  0  0
 21 20  1  0  0  0  0
 21 23  1  0  0  0  0
 21 22  1  1  0  0  0
 23 25  1  0  0  0  0
 24 23  2  0  0  0  0
M  END
>  <MODEL>
7

>  <REMARK>
 VINA RESULT:      -6.9      3.034      3.860
  Name = 
  5 active torsions:
  status: ('A' for Active; 'I' for Inactive)
    1  A    between atoms: C_1  and  C_5
    2  A    between atoms: C_2  and  C_21
    3  A    between atoms: C_6  and  C_15
    4  A    between atoms: C_6  and  C_23
    5  A    between atoms: C_15  and  C_21
                            x       y       z     vdW  Elec       q    Type
                         _______ _______ _______ _____ _____    ______ ____

>  <TORSDO>
F 5

$$$$
=
 OpenBabel11052417263D

 25 27  0  0  1  0  0  0  0  0999 V2000
  187.4040  178.2950  145.8620 C   0  0  1  0  0  3  0  0  0  0  0  0
  186.6740  178.2130  144.5390 C   0  0  0  0  0  0  0  0  0  0  0  0
  185.1410  178.0800  146.9660 C   0  0  0  0  0  2  0  0  0  0  0  0
  184.4500  178.5830  145.7050 C   0  0  0  0  0  2  0  0  0  0  0  0
  184.6230  178.2010  143.2260 C   0  0  0  0  0  0  0  0  0  0  0  0
  183.2390  178.2950  143.1330 O   0  0  0  0  0  1  0  0  0  0  0  0
  187.4130  178.0300  143.3640 C   0  0  0  0  0  3  0  0  0  0  0  0
  186.5340  178.6850  147.0620 C   0  0  0  0  0  2  0  0  0  0  0  0
  185.3740  178.0090  142.0630 C   0  0  0  0  0  3  0  0  0  0  0  0
  186.7670  177.9300  142.1300 C   0  0  0  0  0  0  0  0  0  0  0  0
  185.2650  178.3000  144.4720 C   0  0  0  0  0  0  0  0  0  0  0  0
  188.3190  177.1340  146.1540 C   0  0  0  0  0  0  0  0  0  0  0  0
  189.8720  174.8780  146.7790 C   0  0  0  0  0  3  0  0  0  0  0  0
  189.6420  177.0200  145.6630 C   0  0  0  0  0  0  0  0  0  0  0  0
  190.4050  175.8930  145.9840 C   0  0  0  0  0  3  0  0  0  0  0  0
  188.5670  174.9830  147.2610 C   0  0  0  0  0  3  0  0  0  0  0  0
  190.4050  178.2500  144.6660 Cl  0  0  0  0  0  0  0  0  0  0  0  0
  187.7970  176.1040  146.9480 C   0  0  0  0  0  3  0  0  0  0  0  0
  187.5610  177.7040  140.8910 C   0  0  0  0  0  2  0  0  0  0  0  0
  187.3050  176.3040  140.3570 C   0  0  0  0  0  2  0  0  0  0  0  0
  188.1920  175.2940  141.0670 C   0  0  1  0  0  3  0  0  0  0  0  0
  187.4430  174.6070  142.0220 O   0  0  0  0  0  1  0  0  0  0  0  0
  188.7840  174.3260  140.0950 C   0  0  0  0  0  0  0  0  0  0  0  0
  189.8070  173.6570  140.4000 O   0  0  0  0  0  1  0  0  0  0  0  0
  188.1910  174.1500  138.8520 O   0  0  0  0  0  0  0  0  0  0  0  0
  1 12  1  1  0  0  0
  1  8  1  0  0  0  0
  2  1  1  0  0  0  0
  3  8  1  0  0  0  0
  4  3  1  0  0  0  0
  5 11  2  0  0  0  0
  6  5  1  0  0  0  0
  7  2  2  0  0  0  0
  9 10  2  0  0  0  0
  9  5  1  0  0  0  0
 10  7  1  0  0  0  0
 11  2  1  0  0  0  0
 11  4  1  0  0  0  0
 12 18  1  0  0  0  0
 13 16  1  0  0  0  0
 14 15  1  0  0  0  0
 14 12  2  0  0  0  0
 15 13  2  0  0  0  0
 17 14  1  0  0  0  0
 18 16  2  0  0  0  0
 19 10  1  0  0  0  0
 20 19  1  0  0  0  0
 20 21  1  0  0  0  0
 21 22  1  1  0  0  0
 23 24  1  0  0  0  0
 23 21  1  0  0  0  0
 25 23  2  0  0  0  0
M  END
>  <MODEL>
8

>  <REMARK>
 VINA RESULT:      -6.9      2.313      4.923
  Name = 
  5 active torsions:
  status: ('A' for Active; 'I' for Inactive)
    1  A    between atoms: C_1  and  C_5
    2  A    between atoms: C_2  and  C_21
    3  A    between atoms: C_6  and  C_15
    4  A    between atoms: C_6  and  C_23
    5  A    between atoms: C_15  and  C_21
                            x       y       z     vdW  Elec       q    Type
                         _______ _______ _______ _____ _____    ______ ____

>  <TORSDO>
F 5

$$$$
=
 OpenBabel11052417263D

 25 27  0  0  1  0  0  0  0  0999 V2000
  190.4730  176.7200  143.4470 C   0  0  1  0  0  3  0  0  0  0  0  0
  190.0170  176.9380  144.8720 C   0  0  0  0  0  0  0  0  0  0  0  0
  192.5870  175.7350  144.4210 C   0  0  0  0  0  2  0  0  0  0  0  0
  192.3610  176.4820  145.7290 C   0  0  0  0  0  2  0  0  0  0  0  0
  190.4360  176.9680  147.2710 C   0  0  0  0  0  0  0  0  0  0  0  0
  191.2920  176.8250  148.3560 O   0  0  0  0  0  1  0  0  0  0  0  0
  188.6830  177.2910  145.1130 C   0  0  0  0  0  3  0  0  0  0  0  0
  191.9830  176.5280  143.2700 C   0  0  0  0  0  2  0  0  0  0  0  0
  189.1000  177.3100  147.4950 C   0  0  0  0  0  3  0  0  0  0  0  0
  188.2260  177.4780  146.4190 C   0  0  0  0  0  0  0  0  0  0  0  0
  190.9040  176.7750  145.9600 C   0  0  0  0  0  0  0  0  0  0  0  0
  189.6590  175.7220  142.6650 C   0  0  0  0  0  0  0  0  0  0  0  0
  188.2230  173.7190  141.3160 C   0  0  0  0  0  3  0  0  0  0  0  0
  188.6310  176.0710  141.7560 C   0  0  0  0  0  0  0  0  0  0  0  0
  187.9250  175.0640  141.0900 C   0  0  0  0  0  3  0  0  0  0  0  0
  189.2320  173.3710  142.2140 C   0  0  0  0  0  3  0  0  0  0  0  0
  188.1910  177.7330  141.3970 Cl  0  0  0  0  0  0  0  0  0  0  0  0
  189.9440  174.3680  142.8840 C   0  0  0  0  0  3  0  0  0  0  0  0
  186.7980  177.8220  146.6660 C   0  0  0  0  0  2  0  0  0  0  0  0
  185.8980  176.9660  145.7910 C   0  0  0  0  0  2  0  0  0  0  0  0
  184.8640  177.8290  145.0860 C   0  0  1  0  0  3  0  0  0  0  0  0
  184.7050  179.0270  145.7830 O   0  0  0  0  0  1  0  0  0  0  0  0
  185.2750  178.1130  143.6770 C   0  0  0  0  0  0  0  0  0  0  0  0
  185.1620  177.2280  142.7870 O   0  0  0  0  0  0  0  0  0  0  0  0
  185.7680  179.3660  143.3450 O   0  0  0  0  0  1  0  0  0  0  0  0
  1 12  1  1  0  0  0
  1  2  1  0  0  0  0
  2  7  2  0  0  0  0
  2 11  1  0  0  0  0
  3  4  1  0  0  0  0
  4 11  1  0  0  0  0
  5  9  1  0  0  0  0
  5  6  1  0  0  0  0
  7 10  1  0  0  0  0
  8  1  1  0  0  0  0
  8  3  1  0  0  0  0
 10 19  1  0  0  0  0
 10  9  2  0  0  0  0
 11  5  2  0  0  0  0
 12 18  1  0  0  0  0
 13 16  1  0  0  0  0
 14 12  2  0  0  0  0
 15 13  2  0  0  0  0
 15 14  1  0  0  0  0
 16 18  2  0  0  0  0
 17 14  1  0  0  0  0
 20 19  1  0  0  0  0
 21 22  1  1  0  0  0
 21 20  1  0  0  0  0
 23 21  1  0  0  0  0
 24 23  2  0  0  0  0
 25 23  1  0  0  0  0
M  END
>  <MODEL>
9

>  <REMARK>
 VINA RESULT:      -6.9      2.405      4.705
  Name = 
  5 active torsions:
  status: ('A' for Active; 'I' for Inactive)
    1  A    between atoms: C_1  and  C_5
    2  A    between atoms: C_2  and  C_21
    3  A    between atoms: C_6  and  C_15
    4  A    between atoms: C_6  and  C_23
    5  A    between atoms: C_15  and  C_21
                            x       y       z     vdW  Elec       q    Type
                         _______ _______ _______ _____ _____    ______ ____

>  <TORSDO>
F 5

$$$$
