=
 OpenBabel11052417443D

 31 34  0  0  1  0  0  0  0  0999 V2000
  188.3160  176.5260  143.8970 C   0  0  1  0  0  3  0  0  0  0  0  0
  186.9490  177.1170  143.4980 C   0  0  1  0  0  3  0  0  0  0  0  0
  186.0810  177.4190  144.7070 C   0  0  0  0  0  0  0  0  0  0  0  0
  186.4180  177.0610  147.1280 C   0  0  0  0  0  3  0  0  0  0  0  0
  186.0430  176.4290  145.8310 C   0  0  0  0  0  2  0  0  0  0  0  0
  185.0980  179.1780  143.4590 O   0  0  0  0  0  0  0  0  0  0  0  0
  185.7060  178.0370  147.6830 C   0  0  0  0  0  3  0  0  0  0  0  0
  187.1130  178.2920  142.6370 N   0  0  0  0  0  2  0  0  0  0  0  0
  184.5260  178.6710  147.0660 C   0  0  0  0  0  3  0  0  0  0  0  0
  185.7890  178.7830  142.2780 C   0  0  0  0  0  2  0  0  0  0  0  0
  185.1970  178.4360  144.6410 C   0  0  0  0  0  0  0  0  0  0  0  0
  184.3060  178.8330  145.7550 C   0  0  0  0  0  3  0  0  0  0  0  0
  187.9980  173.4460  142.0370 N   0  0  0  0  0  0  0  0  0  0  0  0
  189.1440  173.2280  142.9070 C   0  0  0  0  0  2  0  0  0  0  0  0
  188.4030  173.0510  140.6990 C   0  0  0  0  0  1  0  0  0  0  0  0
  187.8270  174.8790  142.0200 C   0  0  0  0  0  2  0  0  0  0  0  0
  188.8580  175.4260  142.9750 C   0  0  2  0  0  3  0  0  0  0  0  0
  189.3400  174.3510  143.7260 O   0  0  0  0  0  0  0  0  0  0  0  0
  189.3760  177.5310  144.3620 C   0  0  0  0  0  2  0  0  0  0  0  0
  189.7670  177.3550  145.8260 C   0  0  0  0  0  2  0  0  0  0  0  0
  191.1310  176.6830  145.9720 C   0  0  1  0  0  3  0  0  0  0  0  0
  189.9530  175.3050  147.2440 C   0  0  0  0  0  1  0  0  0  0  0  0
  190.9760  175.3320  146.2940 O   0  0  0  0  0  0  0  0  0  0  0  0
  191.9630  176.8230  144.7010 C   0  0  0  0  0  2  0  0  0  0  0  0
  194.7930  176.1800  143.8700 C   0  0  2  0  0  3  0  0  0  0  0  0
  194.4380  175.5780  142.5380 C   0  0  2  0  0  3  0  0  0  0  0  0
  196.1320  175.9520  144.1970 O   0  0  0  0  0  1  0  0  0  0  0  0
  193.9240  175.5850  144.8710 N   0  0  0  0  0  2  0  0  0  0  0  0
  192.6450  175.4340  142.5930 S   0  0  0  0  0  0  0  0  0  0  0  0
  192.6060  175.5560  144.3670 N   0  0  0  0  0  0  0  0  0  0  0  0
  195.0130  174.2490  142.4010 N   0  0  0  0  0  1  0  0  0  0  0  0
  1 19  1  6  0  0  0
  2  1  1  1  0  0  0
  2  3  1  0  0  0  0
  3  5  1  0  0  0  0
  4  7  2  0  0  0  0
  5  4  1  0  0  0  0
  6 11  1  0  0  0  0
  8  2  1  0  0  0  0
  9  7  1  0  0  0  0
 10  8  1  0  0  0  0
 10  6  1  0  0  0  0
 11  3  2  0  0  0  0
 11 12  1  0  0  0  0
 12  9  2  0  0  0  0
 13 14  1  0  0  0  0
 14 18  1  0  0  0  0
 15 13  1  0  0  0  0
 16 13  1  0  0  0  0
 16 17  1  0  0  0  0
 17 18  1  0  0  0  0
 17  1  1  1  0  0  0
 19 20  1  0  0  0  0
 20 21  1  0  0  0  0
 21 24  1  6  0  0  0
 21 23  1  0  0  0  0
 23 22  1  0  0  0  0
 25 27  1  1  0  0  0
 25 28  1  0  0  0  0
 26 31  1  1  0  0  0
 26 29  1  0  0  0  0
 26 25  1  0  0  0  0
 29 30  1  0  0  0  0
 30 24  1  0  0  0  0
 30 28  1  0  0  0  0
M  END
>  <MODEL>
1

>  <REMARK>
 VINA RESULT:      -7.2      0.000      0.000
  Name = 
  8 active torsions:
  status: ('A' for Active; 'I' for Inactive)
    1  A    between atoms: C_3  and  C_9
    2  A    between atoms: C_3  and  N_22
    3  A    between atoms: C_4  and  C_12
    4  A    between atoms: C_9  and  C_15
    5  A    between atoms: C_9  and  O_23
    6  A    between atoms: C_12  and  C_20
    7  A    between atoms: C_12  and  C_27
    8  A    between atoms: C_15  and  C_20
                            x       y       z     vdW  Elec       q    Type
                         _______ _______ _______ _____ _____    ______ ____

>  <TORSDO>
F 8

$$$$
=
 OpenBabel11052417443D

 31 34  0  0  1  0  0  0  0  0999 V2000
  188.4650  176.3390  144.0430 C   0  0  1  0  0  3  0  0  0  0  0  0
  187.2100  177.0120  143.4530 C   0  0  1  0  0  3  0  0  0  0  0  0
  186.1970  177.3760  144.5250 C   0  0  0  0  0  0  0  0  0  0  0  0
  186.1570  177.0120  146.9670 C   0  0  0  0  0  3  0  0  0  0  0  0
  185.9350  176.3970  145.6280 C   0  0  0  0  0  2  0  0  0  0  0  0
  185.5160  179.1840  143.1520 O   0  0  0  0  0  0  0  0  0  0  0  0
  185.4350  178.0340  147.4170 C   0  0  0  0  0  3  0  0  0  0  0  0
  187.5690  178.1690  142.6280 N   0  0  0  0  0  2  0  0  0  0  0  0
  184.3990  178.7370  146.6370 C   0  0  0  0  0  3  0  0  0  0  0  0
  186.3450  178.7400  142.0820 C   0  0  0  0  0  2  0  0  0  0  0  0
  185.3960  178.4450  144.3340 C   0  0  0  0  0  0  0  0  0  0  0  0
  184.3810  178.9030  145.3090 C   0  0  0  0  0  3  0  0  0  0  0  0
  190.8480  173.6940  143.4370 N   0  0  0  0  0  0  0  0  0  0  0  0
  191.1130  174.6690  142.3900 C   0  0  0  0  0  2  0  0  0  0  0  0
  190.7440  172.3970  142.7900 C   0  0  0  0  0  1  0  0  0  0  0  0
  189.5290  174.0320  143.9170 C   0  0  0  0  0  2  0  0  0  0  0  0
  189.1240  175.2720  143.1600 C   0  0  2  0  0  3  0  0  0  0  0  0
  190.2730  175.7820  142.5510 O   0  0  0  0  0  0  0  0  0  0  0  0
  189.4590  177.2690  144.7490 C   0  0  0  0  0  2  0  0  0  0  0  0
  189.4430  177.1210  146.2680 C   0  0  0  0  0  2  0  0  0  0  0  0
  190.8400  176.8540  146.8260 C   0  0  1  0  0  3  0  0  0  0  0  0
  189.7710  175.0180  147.4500 C   0  0  0  0  0  1  0  0  0  0  0  0
  190.7840  175.8950  147.8410 O   0  0  0  0  0  0  0  0  0  0  0  0
  191.8020  176.4010  145.7330 C   0  0  0  0  0  2  0  0  0  0  0  0
  194.5650  176.2380  144.5270 C   0  0  2  0  0  3  0  0  0  0  0  0
  194.7670  174.7700  144.7820 C   0  0  2  0  0  3  0  0  0  0  0  0
  195.7490  176.8570  144.1190 O   0  0  0  0  0  1  0  0  0  0  0  0
  194.0860  176.8390  145.7600 N   0  0  0  0  0  2  0  0  0  0  0  0
  193.3840  174.3190  145.8400 S   0  0  0  0  0  0  0  0  0  0  0  0
  193.0850  176.0090  146.3100 N   0  0  0  0  0  0  0  0  0  0  0  0
  196.0080  174.5340  145.5040 N   0  0  0  0  0  1  0  0  0  0  0  0
  1 19  1  6  0  0  0
  2  1  1  1  0  0  0
  2  3  1  0  0  0  0
  3  5  1  0  0  0  0
  4  7  2  0  0  0  0
  5  4  1  0  0  0  0
  6 11  1  0  0  0  0
  8  2  1  0  0  0  0
  9  7  1  0  0  0  0
 10  8  1  0  0  0  0
 10  6  1  0  0  0  0
 11  3  2  0  0  0  0
 11 12  1  0  0  0  0
 12  9  2  0  0  0  0
 13 16  1  0  0  0  0
 14 18  1  0  0  0  0
 14 13  1  0  0  0  0
 15 13  1  0  0  0  0
 17 16  1  0  0  0  0
 17  1  1  1  0  0  0
 18 17  1  0  0  0  0
 19 20  1  0  0  0  0
 20 21  1  0  0  0  0
 21 24  1  6  0  0  0
 21 23  1  0  0  0  0
 22 23  1  0  0  0  0
 24 30  1  0  0  0  0
 25 27  1  1  0  0  0
 25 26  1  0  0  0  0
 25 28  1  0  0  0  0
 26 31  1  1  0  0  0
 26 29  1  0  0  0  0
 28 30  1  0  0  0  0
 29 30  1  0  0  0  0
M  END
>  <MODEL>
2

>  <REMARK>
 VINA RESULT:      -7.0      1.530      1.633
  Name = 
  8 active torsions:
  status: ('A' for Active; 'I' for Inactive)
    1  A    between atoms: C_3  and  C_9
    2  A    between atoms: C_3  and  N_22
    3  A    between atoms: C_4  and  C_12
    4  A    between atoms: C_9  and  C_15
    5  A    between atoms: C_9  and  O_23
    6  A    between atoms: C_12  and  C_20
    7  A    between atoms: C_12  and  C_27
    8  A    between atoms: C_15  and  C_20
                            x       y       z     vdW  Elec       q    Type
                         _______ _______ _______ _____ _____    ______ ____

>  <TORSDO>
F 8

$$$$
=
 OpenBabel11052417443D

 31 34  0  0  1  0  0  0  0  0999 V2000
  187.3170  176.2640  143.0960 C   0  0  1  0  0  3  0  0  0  0  0  0
  185.8580  176.7480  143.2050 C   0  0  1  0  0  3  0  0  0  0  0  0
  185.5080  177.1980  144.6130 C   0  0  0  0  0  0  0  0  0  0  0  0
  186.7910  177.2070  146.7230 C   0  0  0  0  0  3  0  0  0  0  0  0
  185.9950  176.3820  145.7710 C   0  0  0  0  0  2  0  0  0  0  0  0
  183.9680  178.7240  143.6540 O   0  0  0  0  0  0  0  0  0  0  0  0
  186.2700  178.2320  147.3930 C   0  0  0  0  0  3  0  0  0  0  0  0
  185.5720  177.7890  142.2130 N   0  0  0  0  0  2  0  0  0  0  0  0
  184.8940  178.7330  147.2230 C   0  0  0  0  0  3  0  0  0  0  0  0
  184.1750  178.1820  142.3530 C   0  0  0  0  0  2  0  0  0  0  0  0
  184.5830  178.1670  144.7810 C   0  0  0  0  0  0  0  0  0  0  0  0
  184.1670  178.6940  146.0990 C   0  0  0  0  0  3  0  0  0  0  0  0
  189.4200  173.8070  141.4860 N   0  0  0  0  0  0  0  0  0  0  0  0
  188.6890  174.4320  140.3930 C   0  0  0  0  0  2  0  0  0  0  0  0
  189.3030  172.3700  141.3050 C   0  0  0  0  0  1  0  0  0  0  0  0
  188.6600  174.1460  142.6670 C   0  0  0  0  0  2  0  0  0  0  0  0
  187.5470  175.0460  142.1920 C   0  0  2  0  0  3  0  0  0  0  0  0
  187.8650  175.4520  140.8940 O   0  0  0  0  0  0  0  0  0  0  0  0
  188.3820  177.3580  142.9550 C   0  0  0  0  0  2  0  0  0  0  0  0
  189.1080  177.6600  144.2630 C   0  0  0  0  0  2  0  0  0  0  0  0
  190.3910  176.8440  144.4010 C   0  0  1  0  0  3  0  0  0  0  0  0
  191.4720  178.6480  143.7090 C   0  0  0  0  0  1  0  0  0  0  0  0
  191.3460  177.2770  143.4790 O   0  0  0  0  0  0  0  0  0  0  0  0
  190.9570  176.9270  145.8150 C   0  0  0  0  0  2  0  0  0  0  0  0
  193.6780  175.6170  145.8100 C   0  0  2  0  0  3  0  0  0  0  0  0
  193.2920  174.4460  144.9490 C   0  0  2  0  0  3  0  0  0  0  0  0
  194.9420  175.4440  146.3780 O   0  0  0  0  0  1  0  0  0  0  0  0
  192.6740  175.7500  146.8520 N   0  0  0  0  0  2  0  0  0  0  0  0
  191.5000  174.5620  144.8380 S   0  0  0  0  0  0  0  0  0  0  0  0
  191.3950  175.6110  146.2700 N   0  0  0  0  0  0  0  0  0  0  0  0
  193.6430  173.1900  145.5950 N   0  0  0  0  0  1  0  0  0  0  0  0
  1 19  1  6  0  0  0
  2  1  1  1  0  0  0
  2  3  1  0  0  0  0
  3 11  2  0  0  0  0
  3  5  1  0  0  0  0
  4  7  2  0  0  0  0
  5  4  1  0  0  0  0
  6 11  1  0  0  0  0
  8 10  1  0  0  0  0
  8  2  1  0  0  0  0
  9  7  1  0  0  0  0
 10  6  1  0  0  0  0
 11 12  1  0  0  0  0
 12  9  2  0  0  0  0
 13 16  1  0  0  0  0
 14 18  1  0  0  0  0
 14 13  1  0  0  0  0
 15 13  1  0  0  0  0
 17 16  1  0  0  0  0
 17  1  1  1  0  0  0
 18 17  1  0  0  0  0
 19 20  1  0  0  0  0
 21 20  1  1  0  0  0
 21 24  1  0  0  0  0
 23 22  1  0  0  0  0
 23 21  1  0  0  0  0
 24 30  1  0  0  0  0
 25 27  1  1  0  0  0
 25 28  1  0  0  0  0
 26 31  1  1  0  0  0
 26 25  1  0  0  0  0
 29 26  1  0  0  0  0
 29 30  1  0  0  0  0
 30 28  1  0  0  0  0
M  END
>  <MODEL>
3

>  <REMARK>
 VINA RESULT:      -6.7      1.824      2.126
  Name = 
  8 active torsions:
  status: ('A' for Active; 'I' for Inactive)
    1  A    between atoms: C_3  and  C_9
    2  A    between atoms: C_3  and  N_22
    3  A    between atoms: C_4  and  C_12
    4  A    between atoms: C_9  and  C_15
    5  A    between atoms: C_9  and  O_23
    6  A    between atoms: C_12  and  C_20
    7  A    between atoms: C_12  and  C_27
    8  A    between atoms: C_15  and  C_20
                            x       y       z     vdW  Elec       q    Type
                         _______ _______ _______ _____ _____    ______ ____

>  <TORSDO>
F 8

$$$$
=
 OpenBabel11052417443D

 31 34  0  0  1  0  0  0  0  0999 V2000
  187.9560  177.0410  143.3200 C   0  0  1  0  0  3  0  0  0  0  0  0
  189.3200  177.5580  143.8180 C   0  0  1  0  0  3  0  0  0  0  0  0
  189.6940  176.9780  145.1710 C   0  0  0  0  0  0  0  0  0  0  0  0
  188.5020  175.4660  146.7180 C   0  0  0  0  0  3  0  0  0  0  0  0
  188.6330  176.8660  146.2230 C   0  0  0  0  0  2  0  0  0  0  0  0
  191.9680  177.1650  144.5310 O   0  0  0  0  0  0  0  0  0  0  0  0
  189.4880  174.8320  147.3460 C   0  0  0  0  0  3  0  0  0  0  0  0
  190.3680  177.3300  142.8180 N   0  0  0  0  0  2  0  0  0  0  0  0
  190.8410  175.3800  147.5540 C   0  0  0  0  0  3  0  0  0  0  0  0
  191.6200  177.8630  143.3390 C   0  0  0  0  0  2  0  0  0  0  0  0
  190.9970  176.8010  145.4710 C   0  0  0  0  0  0  0  0  0  0  0  0
  191.4830  176.2360  146.7490 C   0  0  0  0  0  3  0  0  0  0  0  0
  184.4770  178.0080  143.3930 N   0  0  0  0  0  0  0  0  0  0  0  0
  184.9830  178.5690  142.1490 C   0  0  0  0  0  2  0  0  0  0  0  0
  183.7590  179.0720  144.0740 C   0  0  0  0  0  1  0  0  0  0  0  0
  185.6610  177.7330  144.1720 C   0  0  0  0  0  2  0  0  0  0  0  0
  186.8270  178.0780  143.2800 C   0  0  2  0  0  3  0  0  0  0  0  0
  186.3310  178.2120  141.9810 O   0  0  0  0  0  0  0  0  0  0  0  0
  187.9910  176.1070  142.1040 C   0  0  0  0  0  2  0  0  0  0  0  0
  187.7510  174.6440  142.4650 C   0  0  0  0  0  2  0  0  0  0  0  0
  188.3460  173.6980  141.4240 C   0  0  1  0  0  3  0  0  0  0  0  0
  188.5780  173.5950  139.2240 C   0  0  0  0  0  1  0  0  0  0  0  0
  188.8190  174.4190  140.3250 O   0  0  0  0  0  0  0  0  0  0  0  0
  189.4690  172.8510  142.0140 C   0  0  0  0  0  2  0  0  0  0  0  0
  192.3850  172.9850  142.7830 C   0  0  2  0  0  3  0  0  0  0  0  0
  192.2100  172.4510  144.1780 C   0  0  2  0  0  3  0  0  0  0  0  0
  193.6700  173.4970  142.5860 O   0  0  0  0  0  1  0  0  0  0  0  0
  191.3930  174.0260  142.5790 N   0  0  0  0  0  2  0  0  0  0  0  0
  190.4260  172.4280  144.4110 S   0  0  0  0  0  0  0  0  0  0  0  0
  190.1530  173.5750  143.0800 N   0  0  0  0  0  0  0  0  0  0  0  0
  192.8000  173.3510  145.1560 N   0  0  0  0  0  1  0  0  0  0  0  0
  1 19  1  6  0  0  0
  2  1  1  6  0  0  0
  2  3  1  0  0  0  0
  3 11  2  0  0  0  0
  3  5  1  0  0  0  0
  4  7  2  0  0  0  0
  5  4  1  0  0  0  0
  6 11  1  0  0  0  0
  7  9  1  0  0  0  0
  8 10  1  0  0  0  0
  8  2  1  0  0  0  0
 10  6  1  0  0  0  0
 11 12  1  0  0  0  0
 12  9  2  0  0  0  0
 13 15  1  0  0  0  0
 13 16  1  0  0  0  0
 14 13  1  0  0  0  0
 17  1  1  6  0  0  0
 17 16  1  0  0  0  0
 18 14  1  0  0  0  0
 18 17  1  0  0  0  0
 19 20  1  0  0  0  0
 21 24  1  1  0  0  0
 21 20  1  0  0  0  0
 22 23  1  0  0  0  0
 23 21  1  0  0  0  0
 24 30  1  0  0  0  0
 25 27  1  1  0  0  0
 25 26  1  0  0  0  0
 26 29  1  0  0  0  0
 26 31  1  1  0  0  0
 28 25  1  0  0  0  0
 28 30  1  0  0  0  0
 30 29  1  0  0  0  0
M  END
>  <MODEL>
4

>  <REMARK>
 VINA RESULT:      -6.6      2.307      5.164
  Name = 
  8 active torsions:
  status: ('A' for Active; 'I' for Inactive)
    1  A    between atoms: C_3  and  C_9
    2  A    between atoms: C_3  and  N_22
    3  A    between atoms: C_4  and  C_12
    4  A    between atoms: C_9  and  C_15
    5  A    between atoms: C_9  and  O_23
    6  A    between atoms: C_12  and  C_20
    7  A    between atoms: C_12  and  C_27
    8  A    between atoms: C_15  and  C_20
                            x       y       z     vdW  Elec       q    Type
                         _______ _______ _______ _____ _____    ______ ____

>  <TORSDO>
F 8

$$$$
=
 OpenBabel11052417443D

 31 34  0  0  1  0  0  0  0  0999 V2000
  187.0800  176.7020  142.8920 C   0  0  1  0  0  3  0  0  0  0  0  0
  185.6420  177.1070  143.2710 C   0  0  1  0  0  3  0  0  0  0  0  0
  185.5020  177.4040  144.7540 C   0  0  0  0  0  0  0  0  0  0  0  0
  187.0990  177.2740  146.6340 C   0  0  0  0  0  3  0  0  0  0  0  0
  186.1900  176.5060  145.7360 C   0  0  0  0  0  2  0  0  0  0  0  0
  183.7850  178.9410  144.2000 O   0  0  0  0  0  0  0  0  0  0  0  0
  186.6570  178.2060  147.4750 C   0  0  0  0  0  3  0  0  0  0  0  0
  185.1720  178.2220  142.4440 N   0  0  0  0  0  2  0  0  0  0  0  0
  185.2570  178.6560  147.5690 C   0  0  0  0  0  3  0  0  0  0  0  0
  183.8030  178.5350  142.8350 C   0  0  0  0  0  2  0  0  0  0  0  0
  184.5860  178.3090  145.1570 C   0  0  0  0  0  0  0  0  0  0  0  0
  184.3650  178.6900  146.5700 C   0  0  0  0  0  3  0  0  0  0  0  0
  188.8710  173.9920  141.3130 N   0  0  0  0  0  0  0  0  0  0  0  0
  188.4850  174.8630  140.2120 C   0  0  0  0  0  2  0  0  0  0  0  0
  188.4930  172.6420  140.9370 C   0  0  0  0  0  1  0  0  0  0  0  0
  188.0080  174.3850  142.4020 C   0  0  0  0  0  2  0  0  0  0  0  0
  187.2040  175.5510  141.8860 C   0  0  2  0  0  3  0  0  0  0  0  0
  187.8180  175.9920  140.7110 O   0  0  0  0  0  0  0  0  0  0  0  0
  188.0630  177.8540  142.6500 C   0  0  0  0  0  2  0  0  0  0  0  0
  189.2550  177.8360  143.6020 C   0  0  0  0  0  2  0  0  0  0  0  0
  190.3770  176.9370  143.0890 C   0  0  1  0  0  3  0  0  0  0  0  0
  192.5480  176.7860  142.6760 C   0  0  0  0  0  1  0  0  0  0  0  0
  191.4960  177.7010  142.7470 O   0  0  0  0  0  0  0  0  0  0  0  0
  190.7640  175.8800  144.1180 C   0  0  0  0  0  2  0  0  0  0  0  0
  192.5480  176.1080  146.5430 C   0  0  2  0  0  3  0  0  0  0  0  0
  191.7350  175.2030  147.4280 C   0  0  2  0  0  3  0  0  0  0  0  0
  193.5310  176.7860  147.2670 O   0  0  0  0  0  1  0  0  0  0  0  0
  191.6370  177.0560  145.9240 N   0  0  0  0  0  2  0  0  0  0  0  0
  190.2210  174.9310  146.4950 S   0  0  0  0  0  0  0  0  0  0  0  0
  190.4960  176.3590  145.4710 N   0  0  0  0  0  0  0  0  0  0  0  0
  191.4030  175.8640  148.6800 N   0  0  0  0  0  1  0  0  0  0  0  0
  1 19  1  6  0  0  0
  2  1  1  1  0  0  0
  2  3  1  0  0  0  0
  3 11  2  0  0  0  0
  3  5  1  0  0  0  0
  4  7  2  0  0  0  0
  5  4  1  0  0  0  0
  6 11  1  0  0  0  0
  7  9  1  0  0  0  0
  8 10  1  0  0  0  0
  8  2  1  0  0  0  0
 10  6  1  0  0  0  0
 11 12  1  0  0  0  0
 12  9  2  0  0  0  0
 13 16  1  0  0  0  0
 14 18  1  0  0  0  0
 14 13  1  0  0  0  0
 15 13  1  0  0  0  0
 17 16  1  0  0  0  0
 17  1  1  1  0  0  0
 18 17  1  0  0  0  0
 19 20  1  0  0  0  0
 21 20  1  1  0  0  0
 21 24  1  0  0  0  0
 22 23  1  0  0  0  0
 23 21  1  0  0  0  0
 24 30  1  0  0  0  0
 25 27  1  1  0  0  0
 25 26  1  0  0  0  0
 26 31  1  1  0  0  0
 28 25  1  0  0  0  0
 29 26  1  0  0  0  0
 30 28  1  0  0  0  0
 30 29  1  0  0  0  0
M  END
>  <MODEL>
5

>  <REMARK>
 VINA RESULT:      -6.6      2.257      2.959
  Name = 
  8 active torsions:
  status: ('A' for Active; 'I' for Inactive)
    1  A    between atoms: C_3  and  C_9
    2  A    between atoms: C_3  and  N_22
    3  A    between atoms: C_4  and  C_12
    4  A    between atoms: C_9  and  C_15
    5  A    between atoms: C_9  and  O_23
    6  A    between atoms: C_12  and  C_20
    7  A    between atoms: C_12  and  C_27
    8  A    between atoms: C_15  and  C_20
                            x       y       z     vdW  Elec       q    Type
                         _______ _______ _______ _____ _____    ______ ____

>  <TORSDO>
F 8

$$$$
=
 OpenBabel11052417443D

 31 34  0  0  1  0  0  0  0  0999 V2000
  187.7230  175.9150  143.2090 C   0  0  1  0  0  3  0  0  0  0  0  0
  188.6830  177.0220  143.6890 C   0  0  1  0  0  3  0  0  0  0  0  0
  189.1930  176.7670  145.0970 C   0  0  0  0  0  0  0  0  0  0  0  0
  188.7050  174.9960  146.7470 C   0  0  0  0  0  3  0  0  0  0  0  0
  188.2310  176.2670  146.1310 C   0  0  0  0  0  2  0  0  0  0  0  0
  191.1820  177.9070  144.4940 O   0  0  0  0  0  0  0  0  0  0  0  0
  189.8320  174.9160  147.4510 C   0  0  0  0  0  3  0  0  0  0  0  0
  189.7820  177.2170  142.7380 N   0  0  0  0  0  2  0  0  0  0  0  0
  190.7840  176.0250  147.6400 C   0  0  0  0  0  3  0  0  0  0  0  0
  190.6330  178.2890  143.2370 C   0  0  0  0  0  2  0  0  0  0  0  0
  190.4190  177.2150  145.4410 C   0  0  0  0  0  0  0  0  0  0  0  0
  191.0270  177.0190  146.7750 C   0  0  0  0  0  3  0  0  0  0  0  0
  185.4140  178.3660  141.9040 N   0  0  0  0  0  0  0  0  0  0  0  0
  184.8590  177.9980  143.1980 C   0  0  0  0  0  2  0  0  0  0  0  0
  184.3280  178.2900  140.9420 C   0  0  0  0  0  1  0  0  0  0  0  0
  186.3320  177.2980  141.5890 C   0  0  0  0  0  2  0  0  0  0  0  0
  186.3250  176.3850  142.7890 C   0  0  2  0  0  3  0  0  0  0  0  0
  185.7060  177.0770  143.8340 O   0  0  0  0  0  0  0  0  0  0  0  0
  188.3290  174.8500  142.2870 C   0  0  0  0  0  2  0  0  0  0  0  0
  189.2090  173.8470  143.0270 C   0  0  0  0  0  2  0  0  0  0  0  0
  190.2220  173.1860  142.0950 C   0  0  1  0  0  3  0  0  0  0  0  0
  191.0920  173.0540  140.0620 C   0  0  0  0  0  1  0  0  0  0  0  0
  190.1970  173.7950  140.8370 O   0  0  0  0  0  0  0  0  0  0  0  0
  191.6330  173.2400  142.6720 C   0  0  0  0  0  2  0  0  0  0  0  0
  194.0460  175.0130  143.0580 C   0  0  2  0  0  3  0  0  0  0  0  0
  194.1340  174.8430  144.5500 C   0  0  2  0  0  3  0  0  0  0  0  0
  194.8890  176.0300  142.6060 O   0  0  0  0  0  1  0  0  0  0  0  0
  192.6650  175.3230  142.7290 N   0  0  0  0  0  2  0  0  0  0  0  0
  192.6100  173.9890  144.9800 S   0  0  0  0  0  0  0  0  0  0  0  0
  191.8200  174.4560  143.4560 N   0  0  0  0  0  0  0  0  0  0  0  0
  194.1530  176.1350  145.2190 N   0  0  0  0  0  1  0  0  0  0  0  0
  1 19  1  6  0  0  0
  2  1  1  6  0  0  0
  2  3  1  0  0  0  0
  3 11  2  0  0  0  0
  3  5  1  0  0  0  0
  4  7  2  0  0  0  0
  5  4  1  0  0  0  0
  6 11  1  0  0  0  0
  7  9  1  0  0  0  0
  8 10  1  0  0  0  0
  8  2  1  0  0  0  0
 10  6  1  0  0  0  0
 11 12  1  0  0  0  0
 12  9  2  0  0  0  0
 13 14  1  0  0  0  0
 14 18  1  0  0  0  0
 15 13  1  0  0  0  0
 16 13  1  0  0  0  0
 16 17  1  0  0  0  0
 17  1  1  1  0  0  0
 17 18  1  0  0  0  0
 19 20  1  0  0  0  0
 21 24  1  1  0  0  0
 21 20  1  0  0  0  0
 22 23  1  0  0  0  0
 23 21  1  0  0  0  0
 24 30  1  0  0  0  0
 25 27  1  1  0  0  0
 25 26  1  0  0  0  0
 26 29  1  0  0  0  0
 26 31  1  1  0  0  0
 28 25  1  0  0  0  0
 28 30  1  0  0  0  0
 30 29  1  0  0  0  0
M  END
>  <MODEL>
6

>  <REMARK>
 VINA RESULT:      -6.5      2.116      4.456
  Name = 
  8 active torsions:
  status: ('A' for Active; 'I' for Inactive)
    1  A    between atoms: C_3  and  C_9
    2  A    between atoms: C_3  and  N_22
    3  A    between atoms: C_4  and  C_12
    4  A    between atoms: C_9  and  C_15
    5  A    between atoms: C_9  and  O_23
    6  A    between atoms: C_12  and  C_20
    7  A    between atoms: C_12  and  C_27
    8  A    between atoms: C_15  and  C_20
                            x       y       z     vdW  Elec       q    Type
                         _______ _______ _______ _____ _____    ______ ____

>  <TORSDO>
F 8

$$$$
=
 OpenBabel11052417443D

 31 34  0  0  1  0  0  0  0  0999 V2000
  189.9090  174.9040  143.5160 C   0  0  1  0  0  3  0  0  0  0  0  0
  190.1920  174.6470  145.0090 C   0  0  1  0  0  3  0  0  0  0  0  0
  191.5650  175.1430  145.4260 C   0  0  0  0  0  0  0  0  0  0  0  0
  193.4150  176.1790  144.1580 C   0  0  0  0  0  3  0  0  0  0  0  0
  192.7260  174.9050  144.5080 C   0  0  0  0  0  2  0  0  0  0  0  0
  190.6790  175.5290  147.5900 O   0  0  0  0  0  0  0  0  0  0  0  0
  194.0180  176.9420  145.0660 C   0  0  0  0  0  3  0  0  0  0  0  0
  189.1310  175.2060  145.8520 N   0  0  0  0  0  2  0  0  0  0  0  0
  194.0130  176.6820  146.5180 C   0  0  0  0  0  3  0  0  0  0  0  0
  189.4460  174.9060  147.2420 C   0  0  0  0  0  2  0  0  0  0  0  0
  191.7520  175.5670  146.6940 C   0  0  0  0  0  0  0  0  0  0  0  0
  193.0390  176.0810  147.2130 C   0  0  0  0  0  3  0  0  0  0  0  0
  189.9330  173.3190  140.2700 N   0  0  0  0  0  0  0  0  0  0  0  0
  188.9630  172.5550  141.0410 C   0  0  0  0  0  2  0  0  0  0  0  0
  190.8250  172.3600  139.6430 C   0  0  0  0  0  1  0  0  0  0  0  0
  190.7050  174.0270  141.2640 C   0  0  0  0  0  2  0  0  0  0  0  0
  190.0690  173.6910  142.5900 C   0  0  2  0  0  3  0  0  0  0  0  0
  188.8260  173.1130  142.3210 O   0  0  0  0  0  0  0  0  0  0  0  0
  188.6870  175.7750  143.2010 C   0  0  0  0  0  2  0  0  0  0  0  0
  189.0430  177.2330  142.9280 C   0  0  0  0  0  2  0  0  0  0  0  0
  187.8220  178.0450  142.5000 C   0  0  1  0  0  3  0  0  0  0  0  0
  186.2240  177.9000  140.9740 C   0  0  0  0  0  1  0  0  0  0  0  0
  187.6120  177.9180  141.1240 O   0  0  0  0  0  0  0  0  0  0  0  0
  186.5710  177.6170  143.2590 C   0  0  0  0  0  2  0  0  0  0  0  0
  185.9250  177.0200  146.1480 C   0  0  2  0  0  3  0  0  0  0  0  0
  184.6090  177.7470  146.1730 C   0  0  2  0  0  3  0  0  0  0  0  0
  186.3350  176.6530  147.4320 O   0  0  0  0  0  1  0  0  0  0  0  0
  186.9070  177.9040  145.5420 N   0  0  0  0  0  2  0  0  0  0  0  0
  184.5740  178.6350  144.6090 S   0  0  0  0  0  0  0  0  0  0  0  0
  186.3350  178.5000  144.3970 N   0  0  0  0  0  0  0  0  0  0  0  0
  184.5690  178.7100  147.2620 N   0  0  0  0  0  1  0  0  0  0  0  0
  1 19  1  1  0  0  0
  2  1  1  6  0  0  0
  2  3  1  0  0  0  0
  2  8  1  0  0  0  0
  3 11  2  0  0  0  0
  4  5  1  0  0  0  0
  4  7  2  0  0  0  0
  5  3  1  0  0  0  0
  7  9  1  0  0  0  0
  8 10  1  0  0  0  0
  9 12  2  0  0  0  0
 10  6  1  0  0  0  0
 11 12  1  0  0  0  0
 11  6  1  0  0  0  0
 13 14  1  0  0  0  0
 13 16  1  0  0  0  0
 14 18  1  0  0  0  0
 15 13  1  0  0  0  0
 16 17  1  0  0  0  0
 17  1  1  1  0  0  0
 18 17  1  0  0  0  0
 20 19  1  0  0  0  0
 21 20  1  1  0  0  0
 21 24  1  0  0  0  0
 22 23  1  0  0  0  0
 23 21  1  0  0  0  0
 24 30  1  0  0  0  0
 25 26  1  0  0  0  0
 25 27  1  1  0  0  0
 26 31  1  1  0  0  0
 28 25  1  0  0  0  0
 29 26  1  0  0  0  0
 30 29  1  0  0  0  0
 30 28  1  0  0  0  0
M  END
>  <MODEL>
7

>  <REMARK>
 VINA RESULT:      -6.4      2.922      6.889
  Name = 
  8 active torsions:
  status: ('A' for Active; 'I' for Inactive)
    1  A    between atoms: C_3  and  C_9
    2  A    between atoms: C_3  and  N_22
    3  A    between atoms: C_4  and  C_12
    4  A    between atoms: C_9  and  C_15
    5  A    between atoms: C_9  and  O_23
    6  A    between atoms: C_12  and  C_20
    7  A    between atoms: C_12  and  C_27
    8  A    between atoms: C_15  and  C_20
                            x       y       z     vdW  Elec       q    Type
                         _______ _______ _______ _____ _____    ______ ____

>  <TORSDO>
F 8

$$$$
=
 OpenBabel11052417443D

 31 34  0  0  1  0  0  0  0  0999 V2000
  189.5610  175.8920  144.8240 C   0  0  1  0  0  3  0  0  0  0  0  0
  188.5410  176.4590  143.8170 C   0  0  1  0  0  3  0  0  0  0  0  0
  187.3610  177.1190  144.5080 C   0  0  0  0  0  0  0  0  0  0  0  0
  186.7500  177.3620  146.8890 C   0  0  0  0  0  3  0  0  0  0  0  0
  186.7650  176.4510  145.7090 C   0  0  0  0  0  2  0  0  0  0  0  0
  187.1850  178.5700  142.6410 O   0  0  0  0  0  0  0  0  0  0  0  0
  186.0550  178.4950  146.9110 C   0  0  0  0  0  3  0  0  0  0  0  0
  189.1890  177.3630  142.8610 N   0  0  0  0  0  2  0  0  0  0  0  0
  185.2920  179.0350  145.7710 C   0  0  0  0  0  3  0  0  0  0  0  0
  188.1780  177.8410  141.9270 C   0  0  0  0  0  2  0  0  0  0  0  0
  186.7350  178.1460  143.8970 C   0  0  0  0  0  0  0  0  0  0  0  0
  185.5830  178.8740  144.4740 C   0  0  0  0  0  3  0  0  0  0  0  0
  189.3100  172.5820  143.3990 N   0  0  0  0  0  0  0  0  0  0  0  0
  189.6730  172.3520  144.7910 C   0  0  0  0  0  2  0  0  0  0  0  0
  190.2120  171.7810  142.5900 C   0  0  0  0  0  1  0  0  0  0  0  0
  189.6480  173.9660  143.1640 C   0  0  0  0  0  2  0  0  0  0  0  0
  190.1220  174.5030  144.4910 C   0  0  2  0  0  3  0  0  0  0  0  0
  189.7510  173.5780  145.4700 O   0  0  0  0  0  0  0  0  0  0  0  0
  190.6090  176.8790  145.3510 C   0  0  0  0  0  2  0  0  0  0  0  0
  191.9810  176.2440  145.5610 C   0  0  0  0  0  2  0  0  0  0  0  0
  193.0350  176.8520  144.6380 C   0  0  1  0  0  3  0  0  0  0  0  0
  194.1160  176.5150  146.5410 C   0  0  0  0  0  1  0  0  0  0  0  0
  194.1370  177.2880  145.3790 O   0  0  0  0  0  0  0  0  0  0  0  0
  193.4840  175.8610  143.5700 C   0  0  0  0  0  2  0  0  0  0  0  0
  195.1580  175.2700  141.1280 C   0  0  2  0  0  3  0  0  0  0  0  0
  196.0320  174.2330  141.7780 C   0  0  2  0  0  3  0  0  0  0  0  0
  195.6460  175.6400  139.8730 O   0  0  0  0  0  1  0  0  0  0  0  0
  195.1120  176.4250  142.0080 N   0  0  0  0  0  2  0  0  0  0  0  0
  195.6220  174.3540  143.5250 S   0  0  0  0  0  0  0  0  0  0  0  0
  194.9190  175.9770  143.3330 N   0  0  0  0  0  0  0  0  0  0  0  0
  197.4390  174.5560  141.6010 N   0  0  0  0  0  1  0  0  0  0  0  0
  1 19  1  6  0  0  0
  2  3  1  0  0  0  0
  2  1  1  1  0  0  0
  3  5  1  0  0  0  0
  4  7  2  0  0  0  0
  5  4  1  0  0  0  0
  6 11  1  0  0  0  0
  8  2  1  0  0  0  0
  9  7  1  0  0  0  0
 10  6  1  0  0  0  0
 10  8  1  0  0  0  0
 11 12  1  0  0  0  0
 11  3  2  0  0  0  0
 12  9  2  0  0  0  0
 13 14  1  0  0  0  0
 14 18  1  0  0  0  0
 15 13  1  0  0  0  0
 16 13  1  0  0  0  0
 16 17  1  0  0  0  0
 17  1  1  1  0  0  0
 17 18  1  0  0  0  0
 19 20  1  0  0  0  0
 21 24  1  6  0  0  0
 21 23  1  0  0  0  0
 21 20  1  0  0  0  0
 23 22  1  0  0  0  0
 25 27  1  6  0  0  0
 25 26  1  0  0  0  0
 25 28  1  0  0  0  0
 26 31  1  1  0  0  0
 26 29  1  0  0  0  0
 28 30  1  0  0  0  0
 30 29  1  0  0  0  0
 30 24  1  0  0  0  0
M  END
>  <MODEL>
8

>  <REMARK>
 VINA RESULT:      -6.2      1.946      2.454
  Name = 
  8 active torsions:
  status: ('A' for Active; 'I' for Inactive)
    1  A    between atoms: C_3  and  C_9
    2  A    between atoms: C_3  and  N_22
    3  A    between atoms: C_4  and  C_12
    4  A    between atoms: C_9  and  C_15
    5  A    between atoms: C_9  and  O_23
    6  A    between atoms: C_12  and  C_20
    7  A    between atoms: C_12  and  C_27
    8  A    between atoms: C_15  and  C_20
                            x       y       z     vdW  Elec       q    Type
                         _______ _______ _______ _____ _____    ______ ____

>  <TORSDO>
F 8

$$$$
=
 OpenBabel11052417443D

 31 34  0  0  1  0  0  0  0  0999 V2000
  188.7870  176.6470  144.1770 C   0  0  1  0  0  3  0  0  0  0  0  0
  187.5080  177.4310  144.5310 C   0  0  1  0  0  3  0  0  0  0  0  0
  186.7350  177.8550  143.2950 C   0  0  0  0  0  0  0  0  0  0  0  0
  187.1900  177.6010  140.8810 C   0  0  0  0  0  3  0  0  0  0  0  0
  187.4960  178.3780  142.1150 C   0  0  0  0  0  2  0  0  0  0  0  0
  184.7520  177.7120  144.5860 O   0  0  0  0  0  0  0  0  0  0  0  0
  185.9740  177.5560  140.3430 C   0  0  0  0  0  3  0  0  0  0  0  0
  186.6690  176.6770  145.4670 N   0  0  0  0  0  2  0  0  0  0  0  0
  184.7740  178.1810  140.9290 C   0  0  0  0  0  3  0  0  0  0  0  0
  185.4950  177.4820  145.7790 C   0  0  0  0  0  2  0  0  0  0  0  0
  185.3930  177.9740  143.3700 C   0  0  0  0  0  0  0  0  0  0  0  0
  184.5320  178.3680  142.2330 C   0  0  0  0  0  3  0  0  0  0  0  0
  190.1320  175.7840  147.4160 N   0  0  0  0  0  0  0  0  0  0  0  0
  190.2300  177.2360  147.3570 C   0  0  0  0  0  2  0  0  0  0  0  0
  191.4270  175.2910  147.8510 C   0  0  0  0  0  1  0  0  0  0  0  0
  189.9660  175.3780  146.0410 C   0  0  0  0  0  2  0  0  0  0  0  0
  189.8900  176.6570  145.2440 C   0  0  2  0  0  3  0  0  0  0  0  0
  189.6850  177.7000  146.1500 O   0  0  0  0  0  0  0  0  0  0  0  0
  188.5790  175.2850  143.5050 C   0  0  0  0  0  2  0  0  0  0  0  0
  189.5370  175.0360  142.3440 C   0  0  0  0  0  2  0  0  0  0  0  0
  190.4410  173.8320  142.6030 C   0  0  1  0  0  3  0  0  0  0  0  0
  189.3500  171.9120  142.7580 C   0  0  0  0  0  1  0  0  0  0  0  0
  190.0180  172.7340  141.8490 O   0  0  0  0  0  0  0  0  0  0  0  0
  191.9000  174.1490  142.2880 C   0  0  0  0  0  2  0  0  0  0  0  0
  194.5900  175.5110  142.4430 C   0  0  2  0  0  3  0  0  0  0  0  0
  194.8540  175.1830  143.8870 C   0  0  2  0  0  3  0  0  0  0  0  0
  195.5120  176.4360  141.9500 O   0  0  0  0  0  1  0  0  0  0  0  0
  193.2430  176.0460  142.3500 N   0  0  0  0  0  2  0  0  0  0  0  0
  193.2880  174.5170  144.4740 S   0  0  0  0  0  0  0  0  0  0  0  0
  192.3800  175.2420  143.1270 N   0  0  0  0  0  0  0  0  0  0  0  0
  195.1660  176.3860  144.6430 N   0  0  0  0  0  1  0  0  0  0  0  0
  1 19  1  1  0  0  0
  2  1  1  6  0  0  0
  2  8  1  0  0  0  0
  3 11  2  0  0  0  0
  3  2  1  0  0  0  0
  4  5  1  0  0  0  0
  5  3  1  0  0  0  0
  6 10  1  0  0  0  0
  7  4  2  0  0  0  0
  7  9  1  0  0  0  0
  8 10  1  0  0  0  0
  9 12  2  0  0  0  0
 11  6  1  0  0  0  0
 12 11  1  0  0  0  0
 13 15  1  0  0  0  0
 14 13  1  0  0  0  0
 16 13  1  0  0  0  0
 17  1  1  6  0  0  0
 17 16  1  0  0  0  0
 17 18  1  0  0  0  0
 18 14  1  0  0  0  0
 20 21  1  0  0  0  0
 20 19  1  0  0  0  0
 21 24  1  6  0  0  0
 23 21  1  0  0  0  0
 23 22  1  0  0  0  0
 24 30  1  0  0  0  0
 25 27  1  1  0  0  0
 25 26  1  0  0  0  0
 26 29  1  0  0  0  0
 26 31  1  1  0  0  0
 28 25  1  0  0  0  0
 28 30  1  0  0  0  0
 30 29  1  0  0  0  0
M  END
>  <MODEL>
9

>  <REMARK>
 VINA RESULT:      -6.2      1.942      4.159
  Name = 
  8 active torsions:
  status: ('A' for Active; 'I' for Inactive)
    1  A    between atoms: C_3  and  C_9
    2  A    between atoms: C_3  and  N_22
    3  A    between atoms: C_4  and  C_12
    4  A    between atoms: C_9  and  C_15
    5  A    between atoms: C_9  and  O_23
    6  A    between atoms: C_12  and  C_20
    7  A    between atoms: C_12  and  C_27
    8  A    between atoms: C_15  and  C_20
                            x       y       z     vdW  Elec       q    Type
                         _______ _______ _______ _____ _____    ______ ____

>  <TORSDO>
F 8

$$$$
