=
 OpenBabel11052418563D

 34 39  0  0  1  0  0  0  0  0999 V2000
  185.7790  178.4080  143.7400 C   0  0  2  0  0  3  0  0  0  0  0  0
  185.5790  177.0740  145.8590 C   0  0  1  0  0  3  0  0  0  0  0  0
  187.6690  176.8820  144.3970 C   0  0  0  0  0  0  0  0  0  0  0  0
  189.8710  175.8800  144.6000 C   0  0  0  0  0  0  0  0  0  0  0  0
  184.0620  179.0610  145.4350 C   0  0  0  0  0  3  0  0  0  0  0  0
  184.6120  178.0970  146.4560 C   0  0  0  0  0  2  0  0  0  0  0  0
  189.1470  177.4940  146.2610 C   0  0  0  0  0  3  0  0  0  0  0  0
  186.5660  177.7890  144.9120 C   0  0  1  0  0  3  0  0  0  0  0  0
  190.3630  177.3490  146.9320 C   0  0  0  0  0  3  0  0  0  0  0  0
  191.0860  175.7370  145.2760 C   0  0  0  0  0  3  0  0  0  0  0  0
  184.6190  179.2360  144.2260 C   0  0  0  0  0  3  0  0  0  0  0  0
  187.4860  176.1660  143.1950 C   0  0  0  0  0  0  0  0  0  0  0  0
  185.2450  177.3010  142.8320 C   0  0  0  0  0  2  0  0  0  0  0  0
  186.2730  176.3510  146.9990 C   0  0  0  0  0  1  0  0  0  0  0  0
  189.6500  175.1790  143.4610 N   0  0  0  0  0  0  0  0  0  0  0  0
  188.4980  175.2860  142.7420 C   0  0  0  0  0  0  0  0  0  0  0  0
  191.3310  176.4640  146.4450 C   0  0  0  0  0  0  0  0  0  0  0  0
  188.8840  176.7570  145.0960 C   0  0  0  0  0  0  0  0  0  0  0  0
  186.3330  176.4400  142.3850 N   0  0  0  0  0  2  0  0  0  0  0  0
  188.0130  174.3870  139.0950 C   0  0  0  0  0  0  0  0  0  0  0  0
  188.1880  173.0020  139.1140 C   0  0  0  0  0  3  0  0  0  0  0  0
  188.3720  174.4760  141.5010 C   0  0  0  0  0  0  0  0  0  0  0  0
  188.4610  172.3500  140.3170 C   0  0  0  0  0  3  0  0  0  0  0  0
  188.1100  175.1200  140.2810 C   0  0  0  0  0  3  0  0  0  0  0  0
  188.5570  173.0830  141.5030 C   0  0  0  0  0  3  0  0  0  0  0  0
  187.6770  175.2070  137.5860 Cl  0  0  0  0  0  0  0  0  0  0  0  0
  192.6330  176.3240  147.1500 C   0  0  0  0  0  2  0  0  0  0  0  0
  193.4420  175.1950  146.5350 C   0  0  0  0  0  2  0  0  0  0  0  0
  194.8250  176.8210  145.2180 C   0  0  0  0  0  2  0  0  0  0  0  0
  194.8210  176.3140  143.9050 O   0  0  0  0  0  0  0  0  0  0  0  0
  196.6550  175.0380  144.7760 O   0  0  0  0  0  0  0  0  0  0  0  0
  195.6290  174.5160  145.5830 C   0  0  0  0  0  2  0  0  0  0  0  0
  194.8510  175.6640  146.2180 C   0  0  0  0  0  3  0  0  0  0  0  0
  196.0730  175.6870  143.6520 C   0  0  0  0  0  2  0  0  0  0  0  0
  1 13  1  6  0  0  0
  1 11  1  0  0  0  0
  1  8  1  0  0  0  0
  2  6  1  0  0  0  0
  2 14  1  1  0  0  0
  3 18  1  0  0  0  0
  4 18  2  0  0  0  0
  4 10  1  0  0  0  0
  5  6  1  0  0  0  0
  7  9  2  0  0  0  0
  8  3  1  6  0  0  0
  8  2  1  0  0  0  0
 10 17  2  0  0  0  0
 11  5  2  0  0  0  0
 12  3  2  0  0  0  0
 15  4  1  0  0  0  0
 16 12  1  0  0  0  0
 16 15  2  0  0  0  0
 17  9  1  0  0  0  0
 17 27  1  0  0  0  0
 18  7  1  0  0  0  0
 19 13  1  0  0  0  0
 19 12  1  0  0  0  0
 20 21  2  0  0  0  0
 20 24  1  0  0  0  0
 21 23  1  0  0  0  0
 22 25  1  0  0  0  0
 22 16  1  0  0  0  0
 23 25  2  0  0  0  0
 24 22  2  0  0  0  0
 26 20  1  0  0  0  0
 28 27  1  0  0  0  0
 29 33  1  0  0  0  0
 30 29  1  0  0  0  0
 31 32  1  0  0  0  0
 32 33  1  0  0  0  0
 33 28  1  0  0  0  0
 34 30  1  0  0  0  0
 34 31  1  0  0  0  0
M  END
>  <MODEL>
1

>  <REMARK>
 VINA RESULT:      -9.4      0.000      0.000
  Name = 
  4 active torsions:
  status: ('A' for Active; 'I' for Inactive)
    1  A    between atoms: C_3  and  C_13
    2  A    between atoms: C_3  and  C_29
    3  A    between atoms: C_12  and  C_28
    4  A    between atoms: C_13  and  C_33
                            x       y       z     vdW  Elec       q    Type
                         _______ _______ _______ _____ _____    ______ ____

>  <TORSDO>
F 4

$$$$
=
 OpenBabel11052418563D

 34 39  0  0  1  0  0  0  0  0999 V2000
  194.6490  171.9220  145.1170 C   0  0  2  0  0  3  0  0  0  0  0  0
  195.4350  174.3080  145.1500 C   0  0  1  0  0  3  0  0  0  0  0  0
  192.9720  173.7590  144.7340 C   0  0  0  0  0  0  0  0  0  0  0  0
  190.8900  175.0010  144.6020 C   0  0  0  0  0  0  0  0  0  0  0  0
  196.8730  172.4610  146.1240 C   0  0  0  0  0  3  0  0  0  0  0  0
  196.6180  173.9450  146.0470 C   0  0  0  0  0  2  0  0  0  0  0  0
  192.2410  175.1620  146.6120 C   0  0  0  0  0  3  0  0  0  0  0  0
  194.2480  173.3710  145.4590 C   0  0  1  0  0  3  0  0  0  0  0  0
  191.3060  176.0370  147.1700 C   0  0  0  0  0  3  0  0  0  0  0  0
  189.9580  175.8780  145.1640 C   0  0  0  0  0  3  0  0  0  0  0  0
  195.9640  171.5480  145.7490 C   0  0  0  0  0  3  0  0  0  0  0  0
  192.6940  173.2150  143.4610 C   0  0  0  0  0  0  0  0  0  0  0  0
  194.7690  171.7620  143.6030 C   0  0  0  0  0  2  0  0  0  0  0  0
  195.1020  175.7730  145.3680 C   0  0  0  0  0  1  0  0  0  0  0  0
  190.6710  174.4890  143.3660 N   0  0  0  0  0  0  0  0  0  0  0  0
  191.5260  173.6140  142.7690 C   0  0  0  0  0  0  0  0  0  0  0  0
  190.1680  176.4020  146.4440 C   0  0  0  0  0  0  0  0  0  0  0  0
  192.0490  174.6420  145.3220 C   0  0  0  0  0  0  0  0  0  0  0  0
  193.5340  172.1700  142.9480 N   0  0  0  0  0  2  0  0  0  0  0  0
  191.4010  173.2900  138.9980 C   0  0  0  0  0  0  0  0  0  0  0  0
  190.5940  172.1620  138.8310 C   0  0  0  0  0  3  0  0  0  0  0  0
  191.1750  173.1100  141.4150 C   0  0  0  0  0  0  0  0  0  0  0  0
  190.0810  171.5020  139.9490 C   0  0  0  0  0  3  0  0  0  0  0  0
  191.6930  173.7570  140.2810 C   0  0  0  0  0  3  0  0  0  0  0  0
  190.3730  171.9700  141.2330 C   0  0  0  0  0  3  0  0  0  0  0  0
  192.0510  174.1150  137.5980 Cl  0  0  0  0  0  0  0  0  0  0  0  0
  189.1630  177.3200  147.0460 C   0  0  0  0  0  2  0  0  0  0  0  0
  187.9890  177.5030  146.1000 C   0  0  0  0  0  2  0  0  0  0  0  0
  185.6160  176.7260  145.8650 C   0  0  0  0  0  2  0  0  0  0  0  0
  184.9450  177.8020  145.2560 O   0  0  0  0  0  0  0  0  0  0  0  0
  184.7740  178.5200  147.5370 O   0  0  0  0  0  0  0  0  0  0  0  0
  186.1710  178.5780  147.3990 C   0  0  0  0  0  2  0  0  0  0  0  0
  186.6790  177.2590  146.8280 C   0  0  0  0  0  3  0  0  0  0  0  0
  184.1830  178.4860  146.2440 C   0  0  0  0  0  2  0  0  0  0  0  0
  1 13  1  6  0  0  0
  1  8  1  0  0  0  0
  1 11  1  0  0  0  0
  2 14  1  1  0  0  0
  2  8  1  0  0  0  0
  2  6  1  0  0  0  0
  3 18  1  0  0  0  0
  4 10  2  0  0  0  0
  4 18  1  0  0  0  0
  6  5  1  0  0  0  0
  7  9  1  0  0  0  0
  8  3  1  6  0  0  0
 10 17  1  0  0  0  0
 11  5  2  0  0  0  0
 12  3  2  0  0  0  0
 15  4  1  0  0  0  0
 16 15  2  0  0  0  0
 16 12  1  0  0  0  0
 17 27  1  0  0  0  0
 17  9  2  0  0  0  0
 18  7  2  0  0  0  0
 19 12  1  0  0  0  0
 19 13  1  0  0  0  0
 20 24  1  0  0  0  0
 21 20  2  0  0  0  0
 21 23  1  0  0  0  0
 22 16  1  0  0  0  0
 23 25  2  0  0  0  0
 24 22  2  0  0  0  0
 25 22  1  0  0  0  0
 26 20  1  0  0  0  0
 28 33  1  0  0  0  0
 28 27  1  0  0  0  0
 29 33  1  0  0  0  0
 30 29  1  0  0  0  0
 30 34  1  0  0  0  0
 32 31  1  0  0  0  0
 33 32  1  0  0  0  0
 34 31  1  0  0  0  0
M  END
>  <MODEL>
2

>  <REMARK>
 VINA RESULT:      -8.5      3.460      7.797
  Name = 
  4 active torsions:
  status: ('A' for Active; 'I' for Inactive)
    1  A    between atoms: C_3  and  C_13
    2  A    between atoms: C_3  and  C_29
    3  A    between atoms: C_12  and  C_28
    4  A    between atoms: C_13  and  C_33
                            x       y       z     vdW  Elec       q    Type
                         _______ _______ _______ _____ _____    ______ ____

>  <TORSDO>
F 4

$$$$
=
 OpenBabel11052418563D

 34 39  0  0  1  0  0  0  0  0999 V2000
  192.7370  176.4300  145.0300 C   0  0  2  0  0  3  0  0  0  0  0  0
  192.4980  173.9380  145.2240 C   0  0  1  0  0  3  0  0  0  0  0  0
  190.8400  175.2950  143.8270 C   0  0  0  0  0  0  0  0  0  0  0  0
  189.0590  174.8120  142.2490 C   0  0  0  0  0  0  0  0  0  0  0  0
  194.6720  175.0790  145.8530 C   0  0  0  0  0  3  0  0  0  0  0  0
  193.9910  173.7790  145.5080 C   0  0  0  0  0  2  0  0  0  0  0  0
  191.2900  173.9580  141.8170 C   0  0  0  0  0  3  0  0  0  0  0  0
  192.2760  175.1530  144.2990 C   0  0  1  0  0  3  0  0  0  0  0  0
  190.8320  173.3610  140.6400 C   0  0  0  0  0  3  0  0  0  0  0  0
  188.6060  174.2110  141.0720 C   0  0  0  0  0  3  0  0  0  0  0  0
  194.1250  176.2770  145.5920 C   0  0  0  0  0  3  0  0  0  0  0  0
  189.9270  176.0650  144.5780 C   0  0  0  0  0  0  0  0  0  0  0  0
  191.7770  176.7480  146.1750 C   0  0  0  0  0  2  0  0  0  0  0  0
  191.9850  172.6400  144.6250 C   0  0  0  0  0  1  0  0  0  0  0  0
  188.1980  175.5290  143.0120 N   0  0  0  0  0  0  0  0  0  0  0  0
  188.5780  176.1580  144.1590 C   0  0  0  0  0  0  0  0  0  0  0  0
  189.4880  173.4800  140.2700 C   0  0  0  0  0  0  0  0  0  0  0  0
  190.4090  174.6820  142.6370 C   0  0  0  0  0  0  0  0  0  0  0  0
  190.4100  176.8470  145.6810 N   0  0  0  0  0  2  0  0  0  0  0  0
  186.0000  178.8030  144.9950 C   0  0  0  0  0  0  0  0  0  0  0  0
  185.5490  178.3820  146.2480 C   0  0  0  0  0  3  0  0  0  0  0  0
  187.5470  176.9260  144.9070 C   0  0  0  0  0  0  0  0  0  0  0  0
  186.0870  177.2330  146.8310 C   0  0  0  0  0  3  0  0  0  0  0  0
  186.9890  178.0770  144.3280 C   0  0  0  0  0  3  0  0  0  0  0  0
  187.0760  176.5070  146.1630 C   0  0  0  0  0  3  0  0  0  0  0  0
  185.3230  180.2400  144.2590 Cl  0  0  0  0  0  0  0  0  0  0  0  0
  189.0060  172.8580  139.0070 C   0  0  0  0  0  2  0  0  0  0  0  0
  188.6030  173.9360  138.0150 C   0  0  0  0  0  2  0  0  0  0  0  0
  190.7620  173.3980  136.8590 C   0  0  0  0  0  2  0  0  0  0  0  0
  191.4910  174.6020  136.8820 O   0  0  0  0  0  0  0  0  0  0  0  0
  190.2080  174.9990  134.8960 O   0  0  0  0  0  0  0  0  0  0  0  0
  189.1550  174.9610  135.8270 C   0  0  0  0  0  2  0  0  0  0  0  0
  189.2730  173.7000  136.6740 C   0  0  0  0  0  3  0  0  0  0  0  0
  191.4320  175.1990  135.5920 C   0  0  0  0  0  2  0  0  0  0  0  0
  1 11  1  1  0  0  0
  1 13  1  0  0  0  0
  2 14  1  6  0  0  0
  2  6  1  0  0  0  0
  3 12  1  0  0  0  0
  4 18  1  0  0  0  0
  4 15  2  0  0  0  0
  6  5  1  0  0  0  0
  7 18  1  0  0  0  0
  8  3  1  1  0  0  0
  8  1  1  0  0  0  0
  8  2  1  0  0  0  0
  9  7  2  0  0  0  0
 10  4  1  0  0  0  0
 11  5  2  0  0  0  0
 12 19  1  0  0  0  0
 15 16  1  0  0  0  0
 16 12  2  0  0  0  0
 16 22  1  0  0  0  0
 17  9  1  0  0  0  0
 17 10  2  0  0  0  0
 18  3  2  0  0  0  0
 19 13  1  0  0  0  0
 20 21  1  0  0  0  0
 21 23  2  0  0  0  0
 22 25  2  0  0  0  0
 24 22  1  0  0  0  0
 24 20  2  0  0  0  0
 25 23  1  0  0  0  0
 26 20  1  0  0  0  0
 27 17  1  0  0  0  0
 28 27  1  0  0  0  0
 29 30  1  0  0  0  0
 31 34  1  0  0  0  0
 31 32  1  0  0  0  0
 32 33  1  0  0  0  0
 33 29  1  0  0  0  0
 33 28  1  0  0  0  0
 34 30  1  0  0  0  0
M  END
>  <MODEL>
3

>  <REMARK>
 VINA RESULT:      -8.4      3.294      7.766
  Name = 
  4 active torsions:
  status: ('A' for Active; 'I' for Inactive)
    1  A    between atoms: C_3  and  C_13
    2  A    between atoms: C_3  and  C_29
    3  A    between atoms: C_12  and  C_28
    4  A    between atoms: C_13  and  C_33
                            x       y       z     vdW  Elec       q    Type
                         _______ _______ _______ _____ _____    ______ ____

>  <TORSDO>
F 4

$$$$
=
 OpenBabel11052418563D

 34 39  0  0  1  0  0  0  0  0999 V2000
  192.0090  173.8100  140.6030 C   0  0  2  0  0  3  0  0  0  0  0  0
  190.0740  172.4190  141.3950 C   0  0  1  0  0  3  0  0  0  0  0  0
  191.2930  173.9850  143.0090 C   0  0  0  0  0  0  0  0  0  0  0  0
  190.9370  174.8110  145.2640 C   0  0  0  0  0  0  0  0  0  0  0  0
  190.4680  172.7910  138.9190 C   0  0  0  0  0  3  0  0  0  0  0  0
  189.4930  172.3550  139.9830 C   0  0  0  0  0  2  0  0  0  0  0  0
  189.2180  175.1630  143.5880 C   0  0  0  0  0  3  0  0  0  0  0  0
  190.8210  173.7560  141.5850 C   0  0  1  0  0  3  0  0  0  0  0  0
  188.4280  175.8170  144.5360 C   0  0  0  0  0  3  0  0  0  0  0  0
  190.1430  175.4650  146.2100 C   0  0  0  0  0  3  0  0  0  0  0  0
  191.5800  173.4910  139.1950 C   0  0  0  0  0  3  0  0  0  0  0  0
  192.5750  173.5450  143.4040 C   0  0  0  0  0  0  0  0  0  0  0  0
  193.0800  172.8070  141.0290 C   0  0  0  0  0  2  0  0  0  0  0  0
  188.9390  172.2330  142.3870 C   0  0  0  0  0  1  0  0  0  0  0  0
  192.1600  174.3450  145.6200 N   0  0  0  0  0  0  0  0  0  0  0  0
  192.9930  173.7180  144.7440 C   0  0  0  0  0  0  0  0  0  0  0  0
  188.8860  175.9620  145.8500 C   0  0  0  0  0  0  0  0  0  0  0  0
  190.4750  174.6470  143.9420 C   0  0  0  0  0  0  0  0  0  0  0  0
  193.4810  173.0460  142.4080 N   0  0  0  0  0  2  0  0  0  0  0  0
  195.7720  171.4280  145.9170 C   0  0  0  0  0  0  0  0  0  0  0  0
  196.8160  172.3300  146.1370 C   0  0  0  0  0  3  0  0  0  0  0  0
  194.3160  173.2600  145.2470 C   0  0  0  0  0  0  0  0  0  0  0  0
  196.6190  173.6930  145.9090 C   0  0  0  0  0  3  0  0  0  0  0  0
  194.5320  171.8900  145.4700 C   0  0  0  0  0  3  0  0  0  0  0  0
  195.3780  174.1540  145.4620 C   0  0  0  0  0  3  0  0  0  0  0  0
  196.0200  169.7180  146.1960 Cl  0  0  0  0  0  0  0  0  0  0  0  0
  188.0510  176.6740  146.8550 C   0  0  0  0  0  2  0  0  0  0  0  0
  186.6350  176.8430  146.3320 C   0  0  0  0  0  2  0  0  0  0  0  0
  184.8970  178.6150  146.6900 C   0  0  0  0  0  2  0  0  0  0  0  0
  183.9530  178.4040  145.6680 O   0  0  0  0  0  0  0  0  0  0  0  0
  185.4980  179.7760  144.4510 O   0  0  0  0  0  0  0  0  0  0  0  0
  186.3330  178.6690  144.6830 C   0  0  0  0  0  2  0  0  0  0  0  0
  186.3020  178.3140  146.1660 C   0  0  0  0  0  3  0  0  0  0  0  0
  184.1460  179.3860  144.6560 C   0  0  0  0  0  2  0  0  0  0  0  0
  1 11  1  6  0  0  0
  1 13  1  0  0  0  0
  1  8  1  0  0  0  0
  2  8  1  0  0  0  0
  2 14  1  1  0  0  0
  3 12  2  0  0  0  0
  3 18  1  0  0  0  0
  4 15  1  0  0  0  0
  4 10  1  0  0  0  0
  5 11  2  0  0  0  0
  5  6  1  0  0  0  0
  6  2  1  0  0  0  0
  7 18  1  0  0  0  0
  7  9  2  0  0  0  0
  8  3  1  1  0  0  0
  9 17  1  0  0  0  0
 12 16  1  0  0  0  0
 13 19  1  0  0  0  0
 16 22  1  0  0  0  0
 16 15  2  0  0  0  0
 17 10  2  0  0  0  0
 17 27  1  0  0  0  0
 18  4  2  0  0  0  0
 19 12  1  0  0  0  0
 20 21  1  0  0  0  0
 20 26  1  0  0  0  0
 22 25  2  0  0  0  0
 22 24  1  0  0  0  0
 23 21  2  0  0  0  0
 24 20  2  0  0  0  0
 25 23  1  0  0  0  0
 28 27  1  0  0  0  0
 30 29  1  0  0  0  0
 31 34  1  0  0  0  0
 31 32  1  0  0  0  0
 32 33  1  0  0  0  0
 33 28  1  0  0  0  0
 33 29  1  0  0  0  0
 34 30  1  0  0  0  0
M  END
>  <MODEL>
4

>  <REMARK>
 VINA RESULT:      -8.3      4.094      8.280
  Name = 
  4 active torsions:
  status: ('A' for Active; 'I' for Inactive)
    1  A    between atoms: C_3  and  C_13
    2  A    between atoms: C_3  and  C_29
    3  A    between atoms: C_12  and  C_28
    4  A    between atoms: C_13  and  C_33
                            x       y       z     vdW  Elec       q    Type
                         _______ _______ _______ _____ _____    ______ ____

>  <TORSDO>
F 4

$$$$
=
 OpenBabel11052418563D

 34 39  0  0  1  0  0  0  0  0999 V2000
  193.2420  176.2960  145.2900 C   0  0  2  0  0  3  0  0  0  0  0  0
  193.0530  173.7920  145.2550 C   0  0  1  0  0  3  0  0  0  0  0  0
  191.4010  175.2360  143.9410 C   0  0  0  0  0  0  0  0  0  0  0  0
  189.6700  174.8610  142.2800 C   0  0  0  0  0  0  0  0  0  0  0  0
  195.1860  174.9140  146.0400 C   0  0  0  0  0  3  0  0  0  0  0  0
  194.5420  173.6370  145.5640 C   0  0  0  0  0  2  0  0  0  0  0  0
  191.9280  174.0930  141.8330 C   0  0  0  0  0  3  0  0  0  0  0  0
  192.8270  175.0800  144.4370 C   0  0  1  0  0  3  0  0  0  0  0  0
  191.5120  173.5940  140.5960 C   0  0  0  0  0  3  0  0  0  0  0  0
  189.2580  174.3590  141.0430 C   0  0  0  0  0  3  0  0  0  0  0  0
  194.6200  176.1200  145.8720 C   0  0  0  0  0  3  0  0  0  0  0  0
  190.4530  175.9180  144.7330 C   0  0  0  0  0  0  0  0  0  0  0  0
  192.2480  176.4910  146.4330 C   0  0  0  0  0  2  0  0  0  0  0  0
  192.5830  172.5430  144.5300 C   0  0  0  0  0  1  0  0  0  0  0  0
  188.7750  175.4910  143.0810 N   0  0  0  0  0  0  0  0  0  0  0  0
  189.1130  176.0220  144.2890 C   0  0  0  0  0  0  0  0  0  0  0  0
  190.1750  173.7190  140.2030 C   0  0  0  0  0  0  0  0  0  0  0  0
  191.0120  174.7230  142.6900 C   0  0  0  0  0  0  0  0  0  0  0  0
  190.8920  176.6080  145.9130 N   0  0  0  0  0  2  0  0  0  0  0  0
  186.3520  178.4400  145.2220 C   0  0  0  0  0  0  0  0  0  0  0  0
  185.9820  177.9820  146.4890 C   0  0  0  0  0  3  0  0  0  0  0  0
  188.0480  176.7000  145.0750 C   0  0  0  0  0  0  0  0  0  0  0  0
  186.6350  176.8830  147.0500 C   0  0  0  0  0  3  0  0  0  0  0  0
  187.3740  177.8000  144.5180 C   0  0  0  0  0  3  0  0  0  0  0  0
  187.6580  176.2430  146.3450 C   0  0  0  0  0  3  0  0  0  0  0  0
  185.5300  179.8140  144.5150 Cl  0  0  0  0  0  0  0  0  0  0  0  0
  189.7380  173.2040  138.8780 C   0  0  0  0  0  2  0  0  0  0  0  0
  189.0660  171.8510  139.0400 C   0  0  0  0  0  2  0  0  0  0  0  0
  190.4530  169.7610  139.0450 C   0  0  0  0  0  2  0  0  0  0  0  0
  191.7540  170.1950  139.3610 O   0  0  0  0  0  0  0  0  0  0  0  0
  191.8200  170.5620  136.9920 O   0  0  0  0  0  0  0  0  0  0  0  0
  190.8200  171.4920  137.3250 C   0  0  0  0  0  2  0  0  0  0  0  0
  189.7560  170.8100  138.1760 C   0  0  0  0  0  3  0  0  0  0  0  0
  192.5340  170.2100  138.1700 C   0  0  0  0  0  2  0  0  0  0  0  0
  1 11  1  1  0  0  0
  1 13  1  0  0  0  0
  2 14  1  6  0  0  0
  2  6  1  0  0  0  0
  3 12  1  0  0  0  0
  4 18  1  0  0  0  0
  4 15  2  0  0  0  0
  6  5  1  0  0  0  0
  7 18  1  0  0  0  0
  8  3  1  1  0  0  0
  8  2  1  0  0  0  0
  8  1  1  0  0  0  0
  9  7  2  0  0  0  0
 10  4  1  0  0  0  0
 11  5  2  0  0  0  0
 12 19  1  0  0  0  0
 15 16  1  0  0  0  0
 16 12  2  0  0  0  0
 16 22  1  0  0  0  0
 17  9  1  0  0  0  0
 17 10  2  0  0  0  0
 18  3  2  0  0  0  0
 19 13  1  0  0  0  0
 20 21  1  0  0  0  0
 21 23  2  0  0  0  0
 22 25  2  0  0  0  0
 24 22  1  0  0  0  0
 24 20  2  0  0  0  0
 25 23  1  0  0  0  0
 26 20  1  0  0  0  0
 27 28  1  0  0  0  0
 27 17  1  0  0  0  0
 29 30  1  0  0  0  0
 31 32  1  0  0  0  0
 31 34  1  0  0  0  0
 32 33  1  0  0  0  0
 33 28  1  0  0  0  0
 33 29  1  0  0  0  0
 34 30  1  0  0  0  0
M  END
>  <MODEL>
5

>  <REMARK>
 VINA RESULT:      -8.2      3.328      7.717
  Name = 
  4 active torsions:
  status: ('A' for Active; 'I' for Inactive)
    1  A    between atoms: C_3  and  C_13
    2  A    between atoms: C_3  and  C_29
    3  A    between atoms: C_12  and  C_28
    4  A    between atoms: C_13  and  C_33
                            x       y       z     vdW  Elec       q    Type
                         _______ _______ _______ _____ _____    ______ ____

>  <TORSDO>
F 4

$$$$
=
 OpenBabel11052418563D

 34 39  0  0  1  0  0  0  0  0999 V2000
  187.8620  176.4640  146.3780 C   0  0  2  0  0  3  0  0  0  0  0  0
  187.6470  177.9150  144.3400 C   0  0  1  0  0  3  0  0  0  0  0  0
  188.9960  175.7440  144.2510 C   0  0  0  0  0  0  0  0  0  0  0  0
  190.0330  174.3860  142.5250 C   0  0  0  0  0  0  0  0  0  0  0  0
  186.0700  178.2060  146.3030 C   0  0  0  0  0  3  0  0  0  0  0  0
  186.3280  178.4970  144.8460 C   0  0  0  0  0  2  0  0  0  0  0  0
  187.6600  174.8760  142.3820 C   0  0  0  0  0  3  0  0  0  0  0  0
  187.7950  176.4620  144.8380 C   0  0  1  0  0  3  0  0  0  0  0  0
  187.5810  174.1430  141.1960 C   0  0  0  0  0  3  0  0  0  0  0  0
  189.9490  173.6550  141.3370 C   0  0  0  0  0  3  0  0  0  0  0  0
  186.7300  177.2540  146.9810 C   0  0  0  0  0  3  0  0  0  0  0  0
  190.2390  175.7930  144.9180 C   0  0  0  0  0  0  0  0  0  0  0  0
  189.1850  177.0720  146.8390 C   0  0  0  0  0  2  0  0  0  0  0  0
  187.6680  178.0240  142.8260 C   0  0  0  0  0  1  0  0  0  0  0  0
  191.2200  174.4820  143.1730 N   0  0  0  0  0  0  0  0  0  0  0  0
  191.3680  175.1610  144.3440 C   0  0  0  0  0  0  0  0  0  0  0  0
  188.7270  173.5380  140.6680 C   0  0  0  0  0  0  0  0  0  0  0  0
  188.8850  175.0130  143.0540 C   0  0  0  0  0  0  0  0  0  0  0  0
  190.3070  176.3710  146.2300 N   0  0  0  0  0  2  0  0  0  0  0  0
  194.7450  174.0010  145.6070 C   0  0  0  0  0  0  0  0  0  0  0  0
  195.3000  175.1900  146.0830 C   0  0  0  0  0  3  0  0  0  0  0  0
  192.7170  175.1870  144.9690 C   0  0  0  0  0  0  0  0  0  0  0  0
  194.5730  176.3800  146.0000 C   0  0  0  0  0  3  0  0  0  0  0  0
  193.4640  174.0000  145.0490 C   0  0  0  0  0  3  0  0  0  0  0  0
  193.2920  176.3790  145.4420 C   0  0  0  0  0  3  0  0  0  0  0  0
  195.6560  172.5090  145.7040 Cl  0  0  0  0  0  0  0  0  0  0  0  0
  188.6370  172.7430  139.4140 C   0  0  0  0  0  2  0  0  0  0  0  0
  188.3020  173.6500  138.2420 C   0  0  0  0  0  2  0  0  0  0  0  0
  190.5980  172.9610  137.5050 C   0  0  0  0  0  2  0  0  0  0  0  0
  191.3750  174.1290  137.6150 O   0  0  0  0  0  0  0  0  0  0  0  0
  190.4820  174.4990  135.4200 O   0  0  0  0  0  0  0  0  0  0  0  0
  189.2830  174.5510  136.1510 C   0  0  0  0  0  2  0  0  0  0  0  0
  189.1830  173.3240  137.0500 C   0  0  0  0  0  3  0  0  0  0  0  0
  191.5750  174.6710  136.3150 C   0  0  0  0  0  2  0  0  0  0  0  0
  1 13  1  6  0  0  0
  1 11  1  0  0  0  0
  2 14  1  6  0  0  0
  2  8  1  0  0  0  0
  2  6  1  0  0  0  0
  3 12  1  0  0  0  0
  4 18  1  0  0  0  0
  4 15  2  0  0  0  0
  5 11  2  0  0  0  0
  6  5  1  0  0  0  0
  7 18  1  0  0  0  0
  8  3  1  6  0  0  0
  8  1  1  0  0  0  0
  9  7  2  0  0  0  0
 10  4  1  0  0  0  0
 12 19  1  0  0  0  0
 15 16  1  0  0  0  0
 16 12  2  0  0  0  0
 16 22  1  0  0  0  0
 17  9  1  0  0  0  0
 17 10  2  0  0  0  0
 18  3  2  0  0  0  0
 19 13  1  0  0  0  0
 20 26  1  0  0  0  0
 20 21  1  0  0  0  0
 22 24  1  0  0  0  0
 22 25  2  0  0  0  0
 23 21  2  0  0  0  0
 24 20  2  0  0  0  0
 25 23  1  0  0  0  0
 27 17  1  0  0  0  0
 28 27  1  0  0  0  0
 29 30  1  0  0  0  0
 31 32  1  0  0  0  0
 31 34  1  0  0  0  0
 32 33  1  0  0  0  0
 33 29  1  0  0  0  0
 33 28  1  0  0  0  0
 34 30  1  0  0  0  0
M  END
>  <MODEL>
6

>  <REMARK>
 VINA RESULT:      -8.2      3.342      6.982
  Name = 
  4 active torsions:
  status: ('A' for Active; 'I' for Inactive)
    1  A    between atoms: C_3  and  C_13
    2  A    between atoms: C_3  and  C_29
    3  A    between atoms: C_12  and  C_28
    4  A    between atoms: C_13  and  C_33
                            x       y       z     vdW  Elec       q    Type
                         _______ _______ _______ _____ _____    ______ ____

>  <TORSDO>
F 4

$$$$
=
 OpenBabel11052418563D

 34 39  0  0  1  0  0  0  0  0999 V2000
  192.0660  176.7330  144.9030 C   0  0  2  0  0  3  0  0  0  0  0  0
  191.5530  174.3140  145.3390 C   0  0  1  0  0  3  0  0  0  0  0  0
  190.2000  175.6380  143.6190 C   0  0  0  0  0  0  0  0  0  0  0  0
  188.5540  175.1310  141.9070 C   0  0  0  0  0  0  0  0  0  0  0  0
  193.7540  175.3220  146.0880 C   0  0  0  0  0  3  0  0  0  0  0  0
  192.9830  174.0560  145.8110 C   0  0  0  0  0  2  0  0  0  0  0  0
  190.7180  174.0340  141.8330 C   0  0  0  0  0  3  0  0  0  0  0  0
  191.5550  175.4250  144.2680 C   0  0  1  0  0  3  0  0  0  0  0  0
  190.3270  173.3430  140.6830 C   0  0  0  0  0  3  0  0  0  0  0  0
  188.1680  174.4370  140.7570 C   0  0  0  0  0  3  0  0  0  0  0  0
  193.3650  176.5240  145.6360 C   0  0  0  0  0  3  0  0  0  0  0  0
  189.2960  176.5720  144.1690 C   0  0  0  0  0  0  0  0  0  0  0  0
  191.0290  177.2710  145.8870 C   0  0  0  0  0  2  0  0  0  0  0  0
  190.9740  173.0060  144.8300 C   0  0  0  0  0  1  0  0  0  0  0  0
  187.6960  176.0100  142.4810 N   0  0  0  0  0  0  0  0  0  0  0  0
  188.0160  176.7350  143.5890 C   0  0  0  0  0  0  0  0  0  0  0  0
  189.0490  173.5370  140.1490 C   0  0  0  0  0  0  0  0  0  0  0  0
  189.8350  174.9270  142.4610 C   0  0  0  0  0  0  0  0  0  0  0  0
  189.7390  177.4340  145.2290 N   0  0  0  0  0  2  0  0  0  0  0  0
  185.6640  178.4630  146.0020 C   0  0  0  0  0  0  0  0  0  0  0  0
  185.1220  179.4730  145.2040 C   0  0  0  0  0  3  0  0  0  0  0  0
  186.9970  177.6770  144.1230 C   0  0  0  0  0  0  0  0  0  0  0  0
  185.5160  179.5940  143.8710 C   0  0  0  0  0  3  0  0  0  0  0  0
  186.5990  177.5750  145.4660 C   0  0  0  0  0  3  0  0  0  0  0  0
  186.4510  178.7040  143.3350 C   0  0  0  0  0  3  0  0  0  0  0  0
  185.1750  178.3130  147.6760 Cl  0  0  0  0  0  0  0  0  0  0  0  0
  188.6410  172.8150  138.9140 C   0  0  0  0  0  2  0  0  0  0  0  0
  188.6030  173.7730  137.7360 C   0  0  0  0  0  2  0  0  0  0  0  0
  189.7970  174.3220  135.6000 C   0  0  0  0  0  2  0  0  0  0  0  0
  189.4920  173.2540  134.7350 O   0  0  0  0  0  0  0  0  0  0  0  0
  191.3730  172.2790  135.8580 O   0  0  0  0  0  0  0  0  0  0  0  0
  190.4990  172.3810  136.9540 C   0  0  0  0  0  2  0  0  0  0  0  0
  189.9470  173.8000  137.0300 C   0  0  0  0  0  3  0  0  0  0  0  0
  190.6220  172.3910  134.6560 C   0  0  0  0  0  2  0  0  0  0  0  0
  1 11  1  1  0  0  0
  1 13  1  0  0  0  0
  2 14  1  6  0  0  0
  2  6  1  0  0  0  0
  3 12  1  0  0  0  0
  4 18  1  0  0  0  0
  4 15  2  0  0  0  0
  6  5  1  0  0  0  0
  7 18  1  0  0  0  0
  8  3  1  1  0  0  0
  8  1  1  0  0  0  0
  8  2  1  0  0  0  0
  9  7  2  0  0  0  0
 10  4  1  0  0  0  0
 11  5  2  0  0  0  0
 12 19  1  0  0  0  0
 15 16  1  0  0  0  0
 16 22  1  0  0  0  0
 16 12  2  0  0  0  0
 17  9  1  0  0  0  0
 17 10  2  0  0  0  0
 18  3  2  0  0  0  0
 19 13  1  0  0  0  0
 20 26  1  0  0  0  0
 21 20  2  0  0  0  0
 22 24  2  0  0  0  0
 23 21  1  0  0  0  0
 24 20  1  0  0  0  0
 25 23  2  0  0  0  0
 25 22  1  0  0  0  0
 27 17  1  0  0  0  0
 28 27  1  0  0  0  0
 29 33  1  0  0  0  0
 30 29  1  0  0  0  0
 31 32  1  0  0  0  0
 32 33  1  0  0  0  0
 33 28  1  0  0  0  0
 34 30  1  0  0  0  0
 34 31  1  0  0  0  0
M  END
>  <MODEL>
7

>  <REMARK>
 VINA RESULT:      -8.1      3.629      7.780
  Name = 
  4 active torsions:
  status: ('A' for Active; 'I' for Inactive)
    1  A    between atoms: C_3  and  C_13
    2  A    between atoms: C_3  and  C_29
    3  A    between atoms: C_12  and  C_28
    4  A    between atoms: C_13  and  C_33
                            x       y       z     vdW  Elec       q    Type
                         _______ _______ _______ _____ _____    ______ ____

>  <TORSDO>
F 4

$$$$
=
 OpenBabel11052418563D

 34 39  0  0  1  0  0  0  0  0999 V2000
  191.0850  173.8420  139.9960 C   0  0  2  0  0  3  0  0  0  0  0  0
  189.1050  172.7190  141.0570 C   0  0  1  0  0  3  0  0  0  0  0  0
  189.8060  175.0700  141.7810 C   0  0  0  0  0  0  0  0  0  0  0  0
  188.8730  176.8380  143.1590 C   0  0  0  0  0  0  0  0  0  0  0  0
  190.0550  171.8620  138.8690 C   0  0  0  0  0  3  0  0  0  0  0  0
  188.8830  171.8540  139.8180 C   0  0  0  0  0  2  0  0  0  0  0  0
  187.5840  175.9910  141.2850 C   0  0  0  0  0  3  0  0  0  0  0  0
  189.7030  174.0790  140.6370 C   0  0  1  0  0  3  0  0  0  0  0  0
  186.5530  176.8810  141.5930 C   0  0  0  0  0  3  0  0  0  0  0  0
  187.8370  177.7260  143.4640 C   0  0  0  0  0  3  0  0  0  0  0  0
  191.0240  172.7900  138.9200 C   0  0  0  0  0  3  0  0  0  0  0  0
  190.9810  175.1220  142.5620 C   0  0  0  0  0  0  0  0  0  0  0  0
  192.0820  173.3960  141.0630 C   0  0  0  0  0  2  0  0  0  0  0  0
  187.7800  172.8580  141.7870 C   0  0  0  0  0  1  0  0  0  0  0  0
  190.0010  176.8390  143.9110 N   0  0  0  0  0  0  0  0  0  0  0  0
  191.0560  176.0160  143.6560 C   0  0  0  0  0  0  0  0  0  0  0  0
  186.6740  177.7440  142.6870 C   0  0  0  0  0  0  0  0  0  0  0  0
  188.7500  175.9540  142.0670 C   0  0  0  0  0  0  0  0  0  0  0  0
  192.1280  174.3620  142.1520 N   0  0  0  0  0  2  0  0  0  0  0  0
  194.6320  176.5260  144.7950 C   0  0  0  0  0  0  0  0  0  0  0  0
  194.5190  176.3740  146.1790 C   0  0  0  0  0  3  0  0  0  0  0  0
  192.2460  176.1140  144.5430 C   0  0  0  0  0  0  0  0  0  0  0  0
  193.2760  176.0990  146.7500 C   0  0  0  0  0  3  0  0  0  0  0  0
  193.5020  176.4020  143.9830 C   0  0  0  0  0  3  0  0  0  0  0  0
  192.1450  175.9740  145.9380 C   0  0  0  0  0  3  0  0  0  0  0  0
  196.1890  176.8780  144.0770 Cl  0  0  0  0  0  0  0  0  0  0  0  0
  185.5820  178.7030  143.0030 C   0  0  0  0  0  2  0  0  0  0  0  0
  186.0700  179.7390  144.0030 C   0  0  0  0  0  2  0  0  0  0  0  0
  186.1340  179.1270  146.4340 C   0  0  0  0  0  2  0  0  0  0  0  0
  186.0940  177.7200  146.4500 O   0  0  0  0  0  0  0  0  0  0  0  0
  183.7360  178.1430  146.3360 O   0  0  0  0  0  0  0  0  0  0  0  0
  184.1110  178.6800  145.0920 C   0  0  0  0  0  2  0  0  0  0  0  0
  185.2670  179.6540  145.2890 C   0  0  0  0  0  3  0  0  0  0  0  0
  184.7820  177.3020  146.8090 C   0  0  0  0  0  2  0  0  0  0  0  0
  1 11  1  6  0  0  0
  1  8  1  0  0  0  0
  1 13  1  0  0  0  0
  2 14  1  6  0  0  0
  3 18  2  0  0  0  0
  3 12  1  0  0  0  0
  4 10  1  0  0  0  0
  4 15  2  0  0  0  0
  5 11  2  0  0  0  0
  5  6  1  0  0  0  0
  6  2  1  0  0  0  0
  7  9  2  0  0  0  0
  7 18  1  0  0  0  0
  8  2  1  0  0  0  0
  8  3  1  1  0  0  0
  9 17  1  0  0  0  0
 12 16  2  0  0  0  0
 13 19  1  0  0  0  0
 16 15  1  0  0  0  0
 16 22  1  0  0  0  0
 17 27  1  0  0  0  0
 17 10  2  0  0  0  0
 18  4  1  0  0  0  0
 19 12  1  0  0  0  0
 20 21  1  0  0  0  0
 21 23  2  0  0  0  0
 22 25  2  0  0  0  0
 24 22  1  0  0  0  0
 24 20  2  0  0  0  0
 25 23  1  0  0  0  0
 26 20  1  0  0  0  0
 27 28  1  0  0  0  0
 28 33  1  0  0  0  0
 29 30  1  0  0  0  0
 30 34  1  0  0  0  0
 31 34  1  0  0  0  0
 32 33  1  0  0  0  0
 32 31  1  0  0  0  0
 33 29  1  0  0  0  0
M  END
>  <MODEL>
8

>  <REMARK>
 VINA RESULT:      -8.0      3.538      8.076
  Name = 
  4 active torsions:
  status: ('A' for Active; 'I' for Inactive)
    1  A    between atoms: C_3  and  C_13
    2  A    between atoms: C_3  and  C_29
    3  A    between atoms: C_12  and  C_28
    4  A    between atoms: C_13  and  C_33
                            x       y       z     vdW  Elec       q    Type
                         _______ _______ _______ _____ _____    ______ ____

>  <TORSDO>
F 4

$$$$
=
 OpenBabel11052418563D

 34 39  0  0  1  0  0  0  0  0999 V2000
  187.8250  176.3570  146.4830 C   0  0  2  0  0  3  0  0  0  0  0  0
  187.4030  177.9370  144.5770 C   0  0  1  0  0  3  0  0  0  0  0  0
  188.8980  175.8860  144.2570 C   0  0  0  0  0  0  0  0  0  0  0  0
  189.9390  174.7430  142.3840 C   0  0  0  0  0  0  0  0  0  0  0  0
  185.9120  177.9600  146.6270 C   0  0  0  0  0  3  0  0  0  0  0  0
  186.0730  178.3780  145.1870 C   0  0  0  0  0  2  0  0  0  0  0  0
  187.5330  175.0630  142.3880 C   0  0  0  0  0  3  0  0  0  0  0  0
  187.6800  176.4660  144.9520 C   0  0  1  0  0  3  0  0  0  0  0  0
  187.4460  174.4170  141.1530 C   0  0  0  0  0  3  0  0  0  0  0  0
  189.8470  174.0990  141.1480 C   0  0  0  0  0  3  0  0  0  0  0  0
  186.6720  177.0120  147.1970 C   0  0  0  0  0  3  0  0  0  0  0  0
  190.1660  175.9780  144.8680 C   0  0  0  0  0  0  0  0  0  0  0  0
  189.1230  177.0270  146.9300 C   0  0  0  0  0  2  0  0  0  0  0  0
  187.3380  178.1600  143.0770 C   0  0  0  0  0  1  0  0  0  0  0  0
  191.1480  174.8790  142.9830 N   0  0  0  0  0  0  0  0  0  0  0  0
  191.3070  175.4770  144.1960 C   0  0  0  0  0  0  0  0  0  0  0  0
  188.6040  173.9410  140.5270 C   0  0  0  0  0  0  0  0  0  0  0  0
  188.7780  175.2400  143.0120 C   0  0  0  0  0  0  0  0  0  0  0  0
  190.2600  176.4600  146.2180 N   0  0  0  0  0  2  0  0  0  0  0  0
  194.7080  174.4240  145.4850 C   0  0  0  0  0  0  0  0  0  0  0  0
  195.3060  175.6550  145.7620 C   0  0  0  0  0  3  0  0  0  0  0  0
  192.6810  175.5590  144.7590 C   0  0  0  0  0  0  0  0  0  0  0  0
  194.6020  176.8380  145.5360 C   0  0  0  0  0  3  0  0  0  0  0  0
  193.4060  174.3770  144.9820 C   0  0  0  0  0  3  0  0  0  0  0  0
  193.2980  176.7910  145.0330 C   0  0  0  0  0  3  0  0  0  0  0  0
  195.5920  172.9390  145.7630 Cl  0  0  0  0  0  0  0  0  0  0  0  0
  188.5080  173.2370  139.2200 C   0  0  0  0  0  2  0  0  0  0  0  0
  189.8000  173.4070  138.4390 C   0  0  0  0  0  2  0  0  0  0  0  0
  189.7210  170.9020  138.5030 C   0  0  0  0  0  2  0  0  0  0  0  0
  190.7590  170.5330  139.3790 O   0  0  0  0  0  0  0  0  0  0  0  0
  192.0410  170.7150  137.3600 O   0  0  0  0  0  0  0  0  0  0  0  0
  191.6490  172.0590  137.4870 C   0  0  0  0  0  2  0  0  0  0  0  0
  190.1410  172.1300  137.6930 C   0  0  0  0  0  3  0  0  0  0  0  0
  191.8610  170.0620  138.6110 C   0  0  0  0  0  2  0  0  0  0  0  0
  1 13  1  1  0  0  0
  1 11  1  0  0  0  0
  2 14  1  6  0  0  0
  2  8  1  0  0  0  0
  2  6  1  0  0  0  0
  3 12  1  0  0  0  0
  4 15  2  0  0  0  0
  4 18  1  0  0  0  0
  5 11  2  0  0  0  0
  6  5  1  0  0  0  0
  7 18  1  0  0  0  0
  8  3  1  6  0  0  0
  8  1  1  0  0  0  0
  9  7  2  0  0  0  0
 10  4  1  0  0  0  0
 12 19  1  0  0  0  0
 15 16  1  0  0  0  0
 16 22  1  0  0  0  0
 16 12  2  0  0  0  0
 17 10  2  0  0  0  0
 17  9  1  0  0  0  0
 18  3  2  0  0  0  0
 19 13  1  0  0  0  0
 20 21  1  0  0  0  0
 20 26  1  0  0  0  0
 22 24  1  0  0  0  0
 22 25  2  0  0  0  0
 23 21  2  0  0  0  0
 24 20  2  0  0  0  0
 25 23  1  0  0  0  0
 27 17  1  0  0  0  0
 28 27  1  0  0  0  0
 29 30  1  0  0  0  0
 31 32  1  0  0  0  0
 31 34  1  0  0  0  0
 32 33  1  0  0  0  0
 33 28  1  0  0  0  0
 33 29  1  0  0  0  0
 34 30  1  0  0  0  0
M  END
>  <MODEL>
9

>  <REMARK>
 VINA RESULT:      -7.9      3.354      6.787
  Name = 
  4 active torsions:
  status: ('A' for Active; 'I' for Inactive)
    1  A    between atoms: C_3  and  C_13
    2  A    between atoms: C_3  and  C_29
    3  A    between atoms: C_12  and  C_28
    4  A    between atoms: C_13  and  C_33
                            x       y       z     vdW  Elec       q    Type
                         _______ _______ _______ _____ _____    ______ ____

>  <TORSDO>
F 4

$$$$
