=
 OpenBabel11052420323D

 34 39  0  0  1  0  0  0  0  0999 V2000
  186.7050  178.4090  143.3370 C   0  0  2  0  0  3  0  0  0  0  0  0
  182.9960  178.4700  142.4950 C   0  0  0  0  0  3  0  0  0  0  0  0
  184.0770  178.6860  144.7340 C   0  0  0  0  0  2  0  0  0  0  0  0
  188.9210  177.1990  144.7300 C   0  0  0  0  0  2  0  0  0  0  0  0
  187.8430  177.6450  142.6510 C   0  0  0  0  0  2  0  0  0  0  0  0
  187.8450  177.9550  145.5010 C   0  0  2  0  0  3  0  0  0  0  0  0
  186.6270  178.2850  147.6310 C   0  0  0  0  0  2  0  0  0  0  0  0
  187.6440  177.4030  146.9030 C   0  0  0  0  0  2  0  0  0  0  0  0
  189.0990  177.8100  143.4030 N   0  0  2  0  0  0  0  0  0  0  0  0
  185.3660  178.4290  145.4670 C   0  0  0  0  0  0  0  0  0  0  0  0
  186.5360  177.8220  144.7330 C   0  0  1  0  0  3  0  0  0  0  0  0
  185.3860  178.5480  146.8060 C   0  0  0  0  0  3  0  0  0  0  0  0
  183.0350  178.3120  141.1090 C   0  0  0  0  0  0  0  0  0  0  0  0
  184.2800  178.1900  140.4820 C   0  0  0  0  0  3  0  0  0  0  0  0
  184.1750  178.4840  143.2430 C   0  0  0  0  0  0  0  0  0  0  0  0
  185.4250  178.2090  141.2160 N   0  0  0  0  0  0  0  0  0  0  0  0
  185.4100  178.3320  142.5720 C   0  0  0  0  0  0  0  0  0  0  0  0
  192.5340  176.5020  143.1470 C   0  0  0  0  0  3  0  0  0  0  0  0
  189.9000  175.5790  142.6420 C   0  0  0  0  0  2  0  0  0  0  0  0
  193.2290  173.1280  141.4120 C   0  0  0  0  0  0  0  0  0  0  0  0
  194.2350  172.3380  141.1470 C   0  0  0  0  0  0  0  0  0  0  0  0
  193.5530  174.4930  141.9380 C   0  0  0  0  0  2  0  0  0  0  0  0
  195.1870  171.5890  140.8970 O   0  0  0  0  0  0  0  0  0  0  0  0
  192.3370  175.2530  142.3890 C   0  0  0  0  0  0  0  0  0  0  0  0
  191.4280  171.1920  140.5730 S   0  0  0  0  0  1  0  0  0  0  0  0
  190.8730  173.6560  141.3740 O   0  0  0  0  0  0  0  0  0  0  0  0
  191.0900  174.8320  142.1000 C   0  0  0  0  0  0  0  0  0  0  0  0
  191.9120  172.9450  140.7030 C   0  0  1  0  0  3  0  0  0  0  0  0
  190.1710  177.0960  142.6940 C   0  0  2  0  0  3  0  0  0  0  0  0
  191.5190  177.3490  143.3360 C   0  0  0  0  0  3  0  0  0  0  0  0
  181.8000  178.3110  140.3780 N   0  0  0  0  0  2  0  0  0  0  0  0
  180.1950  180.0490  140.5900 C   0  0  0  0  0  2  0  0  0  0  0  0
  180.5180  178.7850  140.8120 C   0  0  0  0  0  0  0  0  0  0  0  0
  179.5620  177.9340  141.5770 C   0  0  0  0  0  1  0  0  0  0  0  0
  1  5  1  6  0  0  0
  1 11  1  0  0  0  0
  2 15  1  0  0  0  0
  3 10  1  0  0  0  0
  6  4  1  6  0  0  0
  6  8  1  0  0  0  0
  8  7  1  0  0  0  0
  9  5  1  6  0  0  0
  9  4  1  0  0  0  0
 10 12  2  0  0  0  0
 11 10  1  1  0  0  0
 11  6  1  0  0  0  0
 12  7  1  0  0  0  0
 13  2  2  0  0  0  0
 14 13  1  0  0  0  0
 14 16  2  0  0  0  0
 15  3  1  0  0  0  0
 16 17  1  0  0  0  0
 17 15  2  0  0  0  0
 17  1  1  0  0  0  0
 18 30  2  0  0  0  0
 20 22  1  0  0  0  0
 21 20  2  0  0  0  0
 22 24  1  0  0  0  0
 23 21  2  0  0  0  0
 24 18  1  0  0  0  0
 26 27  1  0  0  0  0
 27 24  2  0  0  0  0
 27 19  1  0  0  0  0
 28 25  1  1  0  0  0
 28 26  1  0  0  0  0
 28 20  1  0  0  0  0
 29 19  1  1  0  0  0
 29 30  1  0  0  0  0
 29  9  1  0  0  0  0
 31 33  1  0  0  0  0
 31 13  1  0  0  0  0
 32 33  2  0  0  0  0
 33 34  1  0  0  0  0
M  END
>  <MODEL>
1

>  <REMARK>
 VINA RESULT:      -9.2      0.000      0.000
  Name = 
  3 active torsions:
  status: ('A' for Active; 'I' for Inactive)
    1  A    between atoms: C_13  and  N_25
    2  A    between atoms: N_18  and  C_30
    3  A    between atoms: C_23  and  N_25
                            x       y       z     vdW  Elec       q    Type
                         _______ _______ _______ _____ _____    ______ ____

>  <TORSDO>
F 3

$$$$
=
 OpenBabel11052420323D

 34 39  0  0  1  0  0  0  0  0999 V2000
  186.3150  177.8630  143.3430 C   0  0  2  0  0  3  0  0  0  0  0  0
  182.6990  178.7320  142.5450 C   0  0  0  0  0  3  0  0  0  0  0  0
  183.8920  178.9320  144.7280 C   0  0  0  0  0  2  0  0  0  0  0  0
  188.2290  176.3140  144.8440 C   0  0  0  0  0  2  0  0  0  0  0  0
  187.2050  176.7700  142.7400 C   0  0  0  0  0  2  0  0  0  0  0  0
  187.4000  177.3930  145.5320 C   0  0  2  0  0  3  0  0  0  0  0  0
  186.3870  178.2520  147.6210 C   0  0  0  0  0  2  0  0  0  0  0  0
  187.1300  177.0710  146.9920 C   0  0  0  0  0  2  0  0  0  0  0  0
  188.4940  176.7080  143.4510 N   0  0  2  0  0  0  0  0  0  0  0  0
  185.1090  178.4520  145.4710 C   0  0  0  0  0  0  0  0  0  0  0  0
  186.0670  177.4970  144.8010 C   0  0  1  0  0  3  0  0  0  0  0  0
  185.2130  178.7140  146.7860 C   0  0  0  0  0  3  0  0  0  0  0  0
  182.6420  178.4120  141.1880 C   0  0  0  0  0  0  0  0  0  0  0  0
  183.7940  177.9190  140.5650 C   0  0  0  0  0  3  0  0  0  0  0  0
  183.8770  178.5420  143.2710 C   0  0  0  0  0  0  0  0  0  0  0  0
  184.9380  177.7410  141.2770 N   0  0  0  0  0  0  0  0  0  0  0  0
  185.0090  178.0180  142.6090 C   0  0  0  0  0  0  0  0  0  0  0  0
  189.9190  173.3140  143.2800 C   0  0  0  0  0  3  0  0  0  0  0  0
  188.7050  175.1660  141.5080 C   0  0  0  0  0  2  0  0  0  0  0  0
  190.4490  171.5740  139.8790 C   0  0  0  0  0  0  0  0  0  0  0  0
  190.8740  170.4330  139.4050 C   0  0  0  0  0  0  0  0  0  0  0  0
  190.6710  171.8310  141.3380 C   0  0  0  0  0  2  0  0  0  0  0  0
  191.2750  169.3530  138.9540 O   0  0  0  0  0  0  0  0  0  0  0  0
  189.9850  173.0760  141.8260 C   0  0  0  0  0  0  0  0  0  0  0  0
  189.5510  172.3370  137.3680 S   0  0  0  0  0  1  0  0  0  0  0  0
  189.5120  173.7800  139.5890 O   0  0  0  0  0  0  0  0  0  0  0  0
  189.4560  173.9750  140.9740 C   0  0  0  0  0  0  0  0  0  0  0  0
  190.3040  172.7670  138.9710 C   0  0  1  0  0  3  0  0  0  0  0  0
  189.3330  175.6780  142.8200 C   0  0  2  0  0  3  0  0  0  0  0  0
  189.5710  174.5120  143.7570 C   0  0  0  0  0  3  0  0  0  0  0  0
  181.4140  178.6300  140.4770 N   0  0  0  0  0  2  0  0  0  0  0  0
  180.0500  180.5750  140.4660 C   0  0  0  0  0  2  0  0  0  0  0  0
  180.2540  179.3480  140.9200 C   0  0  0  0  0  0  0  0  0  0  0  0
  179.3080  178.8030  141.9340 C   0  0  0  0  0  1  0  0  0  0  0  0
  1  5  1  6  0  0  0
  1 11  1  0  0  0  0
  2 15  1  0  0  0  0
  3 10  1  0  0  0  0
  6  4  1  6  0  0  0
  6  8  1  0  0  0  0
  8  7  1  0  0  0  0
  9  5  1  6  0  0  0
  9  4  1  0  0  0  0
 10 12  2  0  0  0  0
 11 10  1  1  0  0  0
 11  6  1  0  0  0  0
 12  7  1  0  0  0  0
 13  2  2  0  0  0  0
 14 13  1  0  0  0  0
 14 16  2  0  0  0  0
 15  3  1  0  0  0  0
 16 17  1  0  0  0  0
 17 15  2  0  0  0  0
 17  1  1  0  0  0  0
 18 30  2  0  0  0  0
 20 22  1  0  0  0  0
 21 20  2  0  0  0  0
 22 24  1  0  0  0  0
 23 21  2  0  0  0  0
 24 18  1  0  0  0  0
 26 27  1  0  0  0  0
 27 19  1  0  0  0  0
 27 24  2  0  0  0  0
 28 25  1  6  0  0  0
 28 26  1  0  0  0  0
 28 20  1  0  0  0  0
 29 19  1  6  0  0  0
 29  9  1  0  0  0  0
 29 30  1  0  0  0  0
 31 33  1  0  0  0  0
 31 13  1  0  0  0  0
 32 33  2  0  0  0  0
 33 34  1  0  0  0  0
M  END
>  <MODEL>
2

>  <REMARK>
 VINA RESULT:      -9.1      1.944      2.138
  Name = 
  3 active torsions:
  status: ('A' for Active; 'I' for Inactive)
    1  A    between atoms: C_13  and  N_25
    2  A    between atoms: N_18  and  C_30
    3  A    between atoms: C_23  and  N_25
                            x       y       z     vdW  Elec       q    Type
                         _______ _______ _______ _____ _____    ______ ____

>  <TORSDO>
F 3

$$$$
=
 OpenBabel11052420323D

 34 39  0  0  1  0  0  0  0  0999 V2000
  186.5780  178.2630  143.5890 C   0  0  2  0  0  3  0  0  0  0  0  0
  182.9350  178.5240  142.5310 C   0  0  0  0  0  3  0  0  0  0  0  0
  183.9040  178.7840  144.8170 C   0  0  0  0  0  2  0  0  0  0  0  0
  188.6270  176.9820  145.1640 C   0  0  0  0  0  2  0  0  0  0  0  0
  187.6970  177.3910  143.0070 C   0  0  0  0  0  2  0  0  0  0  0  0
  187.5650  177.8460  145.8350 C   0  0  2  0  0  3  0  0  0  0  0  0
  186.2580  178.3650  147.8720 C   0  0  0  0  0  2  0  0  0  0  0  0
  187.2500  177.3810  147.2470 C   0  0  0  0  0  2  0  0  0  0  0  0
  188.9190  177.5120  143.8230 N   0  0  2  0  0  0  0  0  0  0  0  0
  185.1290  178.4800  145.6340 C   0  0  0  0  0  0  0  0  0  0  0  0
  186.2940  177.7600  144.9990 C   0  0  1  0  0  3  0  0  0  0  0  0
  185.0850  178.6660  146.9650 C   0  0  0  0  0  3  0  0  0  0  0  0
  183.0390  178.2930  141.1590 C   0  0  0  0  0  0  0  0  0  0  0  0
  184.3050  178.0580  140.6120 C   0  0  0  0  0  3  0  0  0  0  0  0
  184.0690  178.4990  143.3440 C   0  0  0  0  0  0  0  0  0  0  0  0
  185.4060  178.0390  141.4090 N   0  0  0  0  0  0  0  0  0  0  0  0
  185.3250  178.2320  142.7550 C   0  0  0  0  0  0  0  0  0  0  0  0
  192.4460  176.8030  143.0250 C   0  0  0  0  0  3  0  0  0  0  0  0
  190.1900  175.3780  143.9860 C   0  0  0  0  0  2  0  0  0  0  0  0
  193.7620  173.1790  142.9840 C   0  0  0  0  0  0  0  0  0  0  0  0
  194.8810  172.5320  142.7910 C   0  0  0  0  0  0  0  0  0  0  0  0
  193.7500  174.6380  142.6460 C   0  0  0  0  0  2  0  0  0  0  0  0
  195.9400  171.9190  142.6090 O   0  0  0  0  0  0  0  0  0  0  0  0
  192.4880  175.3300  143.0770 C   0  0  0  0  0  0  0  0  0  0  0  0
  192.5210  170.8590  143.8640 S   0  0  0  0  0  1  0  0  0  0  0  0
  191.4120  173.2430  143.5340 O   0  0  0  0  0  0  0  0  0  0  0  0
  191.4040  174.6420  143.4840 C   0  0  0  0  0  0  0  0  0  0  0  0
  192.4470  172.4430  142.9650 C   0  0  1  0  0  3  0  0  0  0  0  0
  189.9770  176.6940  143.2110 C   0  0  2  0  0  3  0  0  0  0  0  0
  191.2840  177.4540  143.1330 C   0  0  0  0  0  3  0  0  0  0  0  0
  181.8490  178.3360  140.3580 N   0  0  0  0  0  2  0  0  0  0  0  0
  179.6850  177.9230  141.2480 C   0  0  0  0  0  2  0  0  0  0  0  0
  180.5430  178.7930  140.7410 C   0  0  0  0  0  0  0  0  0  0  0  0
  180.0830  180.1920  140.5150 C   0  0  0  0  0  1  0  0  0  0  0  0
  1  5  1  6  0  0  0
  1 11  1  0  0  0  0
  2 15  1  0  0  0  0
  3 10  1  0  0  0  0
  6  4  1  6  0  0  0
  6  8  1  0  0  0  0
  8  7  1  0  0  0  0
  9  5  1  6  0  0  0
  9  4  1  0  0  0  0
 10 12  2  0  0  0  0
 11 10  1  1  0  0  0
 11  6  1  0  0  0  0
 12  7  1  0  0  0  0
 13  2  2  0  0  0  0
 14 13  1  0  0  0  0
 14 16  2  0  0  0  0
 15  3  1  0  0  0  0
 16 17  1  0  0  0  0
 17 15  2  0  0  0  0
 17  1  1  0  0  0  0
 18 24  1  0  0  0  0
 18 30  2  0  0  0  0
 21 20  2  0  0  0  0
 22 20  1  0  0  0  0
 22 24  1  0  0  0  0
 23 21  2  0  0  0  0
 24 27  2  0  0  0  0
 27 26  1  0  0  0  0
 27 19  1  0  0  0  0
 28 20  1  0  0  0  0
 28 26  1  0  0  0  0
 28 25  1  1  0  0  0
 29 30  1  1  0  0  0
 29  9  1  0  0  0  0
 29 19  1  0  0  0  0
 31 33  1  0  0  0  0
 31 13  1  0  0  0  0
 33 32  2  0  0  0  0
 34 33  1  0  0  0  0
M  END
>  <MODEL>
3

>  <REMARK>
 VINA RESULT:      -9.0      1.087      1.238
  Name = 
  3 active torsions:
  status: ('A' for Active; 'I' for Inactive)
    1  A    between atoms: C_13  and  N_25
    2  A    between atoms: N_18  and  C_30
    3  A    between atoms: C_23  and  N_25
                            x       y       z     vdW  Elec       q    Type
                         _______ _______ _______ _____ _____    ______ ____

>  <TORSDO>
F 3

$$$$
=
 OpenBabel11052420323D

 34 39  0  0  1  0  0  0  0  0999 V2000
  186.6980  178.0320  143.9830 C   0  0  2  0  0  3  0  0  0  0  0  0
  183.1580  178.5740  142.7020 C   0  0  0  0  0  3  0  0  0  0  0  0
  184.0130  178.8190  145.0340 C   0  0  0  0  0  2  0  0  0  0  0  0
  188.5330  176.6290  145.7100 C   0  0  0  0  0  2  0  0  0  0  0  0
  187.7680  177.0500  143.4910 C   0  0  0  0  0  2  0  0  0  0  0  0
  187.5140  177.6010  146.2940 C   0  0  2  0  0  3  0  0  0  0  0  0
  186.1430  178.2930  148.2350 C   0  0  0  0  0  2  0  0  0  0  0  0
  187.0790  177.2090  147.6960 C   0  0  0  0  0  2  0  0  0  0  0  0
  188.9470  177.0900  144.3750 N   0  0  2  0  0  0  0  0  0  0  0  0
  185.1590  178.4360  145.9310 C   0  0  0  0  0  0  0  0  0  0  0  0
  186.2900  177.5990  145.3850 C   0  0  1  0  0  3  0  0  0  0  0  0
  185.0540  178.6660  147.2520 C   0  0  0  0  0  3  0  0  0  0  0  0
  183.3200  178.2920  141.3450 C   0  0  0  0  0  0  0  0  0  0  0  0
  184.5900  177.9320  140.8810 C   0  0  0  0  0  3  0  0  0  0  0  0
  184.2380  178.4760  143.5820 C   0  0  0  0  0  0  0  0  0  0  0  0
  185.6380  177.8430  141.7430 N   0  0  0  0  0  0  0  0  0  0  0  0
  185.4970  178.0830  143.0760 C   0  0  0  0  0  0  0  0  0  0  0  0
  190.1350  174.5810  141.9520 C   0  0  0  0  0  3  0  0  0  0  0  0
  191.1330  176.9280  143.1940 C   0  0  0  0  0  2  0  0  0  0  0  0
  193.8200  174.5350  140.8180 C   0  0  0  0  0  0  0  0  0  0  0  0
  194.5990  173.8720  140.0040 C   0  0  0  0  0  0  0  0  0  0  0  0
  192.4520  173.9750  141.0600 C   0  0  0  0  0  2  0  0  0  0  0  0
  195.3370  173.2460  139.2340 O   0  0  0  0  0  0  0  0  0  0  0  0
  191.5710  174.8990  141.8520 C   0  0  0  0  0  0  0  0  0  0  0  0
  195.8090  176.4180  141.2600 S   0  0  0  0  0  1  0  0  0  0  0  0
  193.4250  176.3050  142.4110 O   0  0  0  0  0  0  0  0  0  0  0  0
  192.0640  175.9840  142.4810 C   0  0  0  0  0  0  0  0  0  0  0  0
  194.4120  175.4230  141.8800 C   0  0  1  0  0  3  0  0  0  0  0  0
  189.9630  176.1660  143.8500 C   0  0  2  0  0  3  0  0  0  0  0  0
  189.3630  175.2000  142.8500 C   0  0  0  0  0  3  0  0  0  0  0  0
  182.1860  178.4120  140.4730 N   0  0  0  0  0  2  0  0  0  0  0  0
  180.0340  177.9160  141.3490 C   0  0  0  0  0  2  0  0  0  0  0  0
  180.8500  178.8100  140.8130 C   0  0  0  0  0  0  0  0  0  0  0  0
  180.3140  180.1670  140.5130 C   0  0  0  0  0  1  0  0  0  0  0  0
  1  5  1  6  0  0  0
  1 11  1  0  0  0  0
  2 15  1  0  0  0  0
  3 10  1  0  0  0  0
  6  4  1  6  0  0  0
  6  8  1  0  0  0  0
  8  7  1  0  0  0  0
  9  5  1  6  0  0  0
  9  4  1  0  0  0  0
 10 12  2  0  0  0  0
 11 10  1  1  0  0  0
 11  6  1  0  0  0  0
 12  7  1  0  0  0  0
 13  2  2  0  0  0  0
 14 13  1  0  0  0  0
 14 16  2  0  0  0  0
 15  3  1  0  0  0  0
 16 17  1  0  0  0  0
 17 15  2  0  0  0  0
 17  1  1  0  0  0  0
 18 30  2  0  0  0  0
 19 29  1  0  0  0  0
 20 22  1  0  0  0  0
 20 28  1  0  0  0  0
 21 20  2  0  0  0  0
 22 24  1  0  0  0  0
 23 21  2  0  0  0  0
 24 18  1  0  0  0  0
 24 27  2  0  0  0  0
 26 27  1  0  0  0  0
 27 19  1  0  0  0  0
 28 25  1  6  0  0  0
 28 26  1  0  0  0  0
 29 30  1  6  0  0  0
 29  9  1  0  0  0  0
 31 33  1  0  0  0  0
 31 13  1  0  0  0  0
 33 32  2  0  0  0  0
 34 33  1  0  0  0  0
M  END
>  <MODEL>
4

>  <REMARK>
 VINA RESULT:      -8.7      1.624      2.037
  Name = 
  3 active torsions:
  status: ('A' for Active; 'I' for Inactive)
    1  A    between atoms: C_13  and  N_25
    2  A    between atoms: N_18  and  C_30
    3  A    between atoms: C_23  and  N_25
                            x       y       z     vdW  Elec       q    Type
                         _______ _______ _______ _____ _____    ______ ____

>  <TORSDO>
F 3

$$$$
=
 OpenBabel11052420323D

 34 39  0  0  1  0  0  0  0  0999 V2000
  194.3700  174.3960  144.3310 C   0  0  2  0  0  3  0  0  0  0  0  0
  196.5270  171.2840  144.6820 C   0  0  0  0  0  3  0  0  0  0  0  0
  196.9660  173.3230  143.3110 C   0  0  0  0  0  2  0  0  0  0  0  0
  192.8350  176.1870  142.6710 C   0  0  0  0  0  2  0  0  0  0  0  0
  192.8440  174.5300  144.3860 C   0  0  0  0  0  2  0  0  0  0  0  0
  194.3550  176.1380  142.5550 C   0  0  2  0  0  3  0  0  0  0  0  0
  196.3670  176.4950  141.1580 C   0  0  0  0  0  2  0  0  0  0  0  0
  194.8370  176.4650  141.1510 C   0  0  0  0  0  2  0  0  0  0  0  0
  192.4370  175.9090  144.0610 N   0  0  2  0  0  0  0  0  0  0  0  0
  196.2900  174.5240  142.7100 C   0  0  0  0  0  0  0  0  0  0  0  0
  194.8080  174.7270  142.9100 C   0  0  1  0  0  3  0  0  0  0  0  0
  196.9710  175.2820  141.8330 C   0  0  0  0  0  3  0  0  0  0  0  0
  195.7610  170.5280  145.5700 C   0  0  0  0  0  0  0  0  0  0  0  0
  194.5530  171.0590  146.0350 C   0  0  0  0  0  3  0  0  0  0  0  0
  196.0850  172.5350  144.2490 C   0  0  0  0  0  0  0  0  0  0  0  0
  194.1310  172.2800  145.6130 N   0  0  0  0  0  0  0  0  0  0  0  0
  194.8470  173.0230  144.7230 C   0  0  0  0  0  0  0  0  0  0  0  0
  189.3510  177.3200  145.4960 C   0  0  0  0  0  3  0  0  0  0  0  0
  190.3680  176.6970  142.9230 C   0  0  0  0  0  2  0  0  0  0  0  0
  186.2430  177.9030  143.2880 C   0  0  0  0  0  0  0  0  0  0  0  0
  185.0310  178.3800  143.3880 C   0  0  0  0  0  0  0  0  0  0  0  0
  187.0000  177.6880  144.5630 C   0  0  0  0  0  2  0  0  0  0  0  0
  183.8830  178.8310  143.4820 O   0  0  0  0  0  0  0  0  0  0  0  0
  188.4390  177.3210  144.3370 C   0  0  0  0  0  0  0  0  0  0  0  0
  186.0130  177.7730  140.5270 S   0  0  0  0  0  1  0  0  0  0  0  0
  188.0570  176.9590  142.0030 O   0  0  0  0  0  0  0  0  0  0  0  0
  188.9020  176.9770  143.1190 C   0  0  0  0  0  0  0  0  0  0  0  0
  186.6380  177.0770  142.0910 C   0  0  1  0  0  3  0  0  0  0  0  0
  190.9740  176.0060  144.1610 C   0  0  2  0  0  3  0  0  0  0  0  0
  190.5560  176.7490  145.4120 C   0  0  0  0  0  3  0  0  0  0  0  0
  196.2560  169.2490  145.9950 N   0  0  0  0  0  2  0  0  0  0  0  0
  197.1580  168.3590  148.0050 C   0  0  0  0  0  2  0  0  0  0  0  0
  196.0860  168.6180  147.2730 C   0  0  0  0  0  0  0  0  0  0  0  0
  194.7590  168.1660  147.7770 C   0  0  0  0  0  1  0  0  0  0  0  0
  1  5  1  6  0  0  0
  1 17  1  0  0  0  0
  2 13  1  0  0  0  0
  3 15  1  0  0  0  0
  6  8  1  6  0  0  0
  6  4  1  0  0  0  0
  6 11  1  0  0  0  0
  7 12  1  0  0  0  0
  8  7  1  0  0  0  0
  9  4  1  6  0  0  0
  9 29  1  0  0  0  0
  9  5  1  0  0  0  0
 10  3  1  0  0  0  0
 11 10  1  1  0  0  0
 11  1  1  0  0  0  0
 12 10  2  0  0  0  0
 13 31  1  0  0  0  0
 13 14  2  0  0  0  0
 15  2  2  0  0  0  0
 15 17  1  0  0  0  0
 16 14  1  0  0  0  0
 17 16  2  0  0  0  0
 19 27  1  0  0  0  0
 20 21  2  0  0  0  0
 20 22  1  0  0  0  0
 21 23  2  0  0  0  0
 24 22  1  0  0  0  0
 24 18  1  0  0  0  0
 26 28  1  0  0  0  0
 26 27  1  0  0  0  0
 27 24  2  0  0  0  0
 28 25  1  6  0  0  0
 28 20  1  0  0  0  0
 29 19  1  6  0  0  0
 29 30  1  0  0  0  0
 30 18  2  0  0  0  0
 31 33  1  0  0  0  0
 33 34  1  0  0  0  0
 33 32  2  0  0  0  0
M  END
>  <MODEL>
5

>  <REMARK>
 VINA RESULT:      -8.1      4.679     11.274
  Name = 
  3 active torsions:
  status: ('A' for Active; 'I' for Inactive)
    1  A    between atoms: C_13  and  N_25
    2  A    between atoms: N_18  and  C_30
    3  A    between atoms: C_23  and  N_25
                            x       y       z     vdW  Elec       q    Type
                         _______ _______ _______ _____ _____    ______ ____

>  <TORSDO>
F 3

$$$$
=
 OpenBabel11052420323D

 34 39  0  0  1  0  0  0  0  0999 V2000
  186.0430  177.7300  143.3320 C   0  0  2  0  0  3  0  0  0  0  0  0
  182.4910  179.0200  142.9050 C   0  0  0  0  0  3  0  0  0  0  0  0
  183.9500  179.1490  144.9260 C   0  0  0  0  0  2  0  0  0  0  0  0
  187.9200  176.0090  144.6850 C   0  0  0  0  0  2  0  0  0  0  0  0
  186.7160  176.5110  142.6890 C   0  0  0  0  0  2  0  0  0  0  0  0
  187.3160  177.2090  145.4050 C   0  0  2  0  0  3  0  0  0  0  0  0
  186.6710  178.2680  147.5470 C   0  0  0  0  0  2  0  0  0  0  0  0
  187.1850  176.9790  146.9010 C   0  0  0  0  0  2  0  0  0  0  0  0
  188.0630  176.3130  143.2520 N   0  0  2  0  0  0  0  0  0  0  0  0
  185.1800  178.5470  145.5490 C   0  0  0  0  0  0  0  0  0  0  0  0
  185.9280  177.4540  144.8260 C   0  0  1  0  0  3  0  0  0  0  0  0
  185.4710  178.8430  146.8280 C   0  0  0  0  0  3  0  0  0  0  0  0
  182.2330  178.6590  141.5820 C   0  0  0  0  0  0  0  0  0  0  0  0
  183.2340  178.0010  140.8590 C   0  0  0  0  0  3  0  0  0  0  0  0
  183.7140  178.7100  143.5020 C   0  0  0  0  0  0  0  0  0  0  0  0
  184.4250  177.7070  141.4450 N   0  0  0  0  0  0  0  0  0  0  0  0
  184.6880  178.0210  142.7430 C   0  0  0  0  0  0  0  0  0  0  0  0
  188.8240  174.2870  140.2700 C   0  0  0  0  0  3  0  0  0  0  0  0
  190.2210  175.3160  142.5120 C   0  0  0  0  0  2  0  0  0  0  0  0
  192.2540  172.5680  139.8830 C   0  0  0  0  0  0  0  0  0  0  0  0
  192.9010  171.8290  139.0220 C   0  0  0  0  0  0  0  0  0  0  0  0
  190.7940  172.7890  139.6310 C   0  0  0  0  0  2  0  0  0  0  0  0
  193.5150  171.1300  138.2070 O   0  0  0  0  0  0  0  0  0  0  0  0
  190.1840  173.7990  140.5620 C   0  0  0  0  0  0  0  0  0  0  0  0
  194.5560  172.9020  141.3960 S   0  0  0  0  0  1  0  0  0  0  0  0
  192.1250  173.7900  141.9610 O   0  0  0  0  0  0  0  0  0  0  0  0
  190.8370  174.2440  141.6540 C   0  0  0  0  0  0  0  0  0  0  0  0
  192.7480  172.6900  141.3010 C   0  0  1  0  0  3  0  0  0  0  0  0
  188.6890  175.1620  142.5840 C   0  0  2  0  0  3  0  0  0  0  0  0
  188.1320  174.9650  141.1900 C   0  0  0  0  0  3  0  0  0  0  0  0
  180.9650  179.0040  141.0050 N   0  0  0  0  0  2  0  0  0  0  0  0
  179.2520  177.7000  142.0100 C   0  0  0  0  0  2  0  0  0  0  0  0
  179.7910  178.1860  140.9030 C   0  0  0  0  0  0  0  0  0  0  0  0
  179.1960  177.7930  139.5950 C   0  0  0  0  0  1  0  0  0  0  0  0
  1  5  1  6  0  0  0
  1 11  1  0  0  0  0
  2 15  1  0  0  0  0
  3 10  1  0  0  0  0
  6  4  1  6  0  0  0
  6  8  1  0  0  0  0
  8  7  1  0  0  0  0
  9  5  1  6  0  0  0
  9  4  1  0  0  0  0
 10 12  2  0  0  0  0
 11  6  1  0  0  0  0
 11 10  1  1  0  0  0
 12  7  1  0  0  0  0
 13  2  2  0  0  0  0
 14 16  2  0  0  0  0
 14 13  1  0  0  0  0
 15  3  1  0  0  0  0
 16 17  1  0  0  0  0
 17  1  1  0  0  0  0
 17 15  2  0  0  0  0
 18 24  1  0  0  0  0
 18 30  2  0  0  0  0
 19 29  1  0  0  0  0
 20 28  1  0  0  0  0
 21 20  2  0  0  0  0
 22 20  1  0  0  0  0
 22 24  1  0  0  0  0
 23 21  2  0  0  0  0
 24 27  2  0  0  0  0
 27 26  1  0  0  0  0
 27 19  1  0  0  0  0
 28 25  1  6  0  0  0
 28 26  1  0  0  0  0
 29 30  1  6  0  0  0
 29  9  1  0  0  0  0
 31 13  1  0  0  0  0
 33 31  1  0  0  0  0
 33 32  2  0  0  0  0
 34 33  1  0  0  0  0
M  END
>  <MODEL>
6

>  <REMARK>
 VINA RESULT:      -8.0      1.509      2.099
  Name = 
  3 active torsions:
  status: ('A' for Active; 'I' for Inactive)
    1  A    between atoms: C_13  and  N_25
    2  A    between atoms: N_18  and  C_30
    3  A    between atoms: C_23  and  N_25
                            x       y       z     vdW  Elec       q    Type
                         _______ _______ _______ _____ _____    ______ ____

>  <TORSDO>
F 3

$$$$
=
 OpenBabel11052420323D

 34 39  0  0  1  0  0  0  0  0999 V2000
  192.9280  173.7850  142.9950 C   0  0  2  0  0  3  0  0  0  0  0  0
  194.8390  174.2070  139.7340 C   0  0  0  0  0  3  0  0  0  0  0  0
  195.7410  174.1680  142.0610 C   0  0  0  0  0  2  0  0  0  0  0  0
  192.1450  174.8140  145.5730 C   0  0  0  0  0  2  0  0  0  0  0  0
  191.5050  174.2330  143.3510 C   0  0  0  0  0  2  0  0  0  0  0  0
  193.5840  174.3770  145.3210 C   0  0  2  0  0  3  0  0  0  0  0  0
  195.9780  174.5900  145.9110 C   0  0  0  0  0  2  0  0  0  0  0  0
  194.5810  175.1670  146.1520 C   0  0  0  0  0  2  0  0  0  0  0  0
  191.2300  173.9820  144.7760 N   0  0  2  0  0  0  0  0  0  0  0  0
  195.3330  174.3200  143.5010 C   0  0  0  0  0  0  0  0  0  0  0  0
  193.8920  174.6030  143.8450 C   0  0  1  0  0  3  0  0  0  0  0  0
  196.2910  174.4110  144.4410 C   0  0  0  0  0  3  0  0  0  0  0  0
  193.8000  174.1380  138.8060 C   0  0  0  0  0  0  0  0  0  0  0  0
  192.4940  173.9520  139.2720 C   0  0  0  0  0  3  0  0  0  0  0  0
  194.5770  174.1160  141.1030 C   0  0  0  0  0  0  0  0  0  0  0  0
  192.2470  173.8590  140.6060 N   0  0  0  0  0  0  0  0  0  0  0  0
  193.2410  173.9540  141.5320 C   0  0  0  0  0  0  0  0  0  0  0  0
  188.6860  175.6330  146.8690 C   0  0  0  0  0  3  0  0  0  0  0  0
  189.3780  175.5110  144.1220 C   0  0  0  0  0  2  0  0  0  0  0  0
  185.7260  177.5050  145.2550 C   0  0  0  0  0  0  0  0  0  0  0  0
  184.6840  178.2080  145.6130 C   0  0  0  0  0  0  0  0  0  0  0  0
  186.4650  176.7810  146.3390 C   0  0  0  0  0  2  0  0  0  0  0  0
  183.6970  178.8730  145.9490 O   0  0  0  0  0  0  0  0  0  0  0  0
  187.7480  176.1620  145.8620 C   0  0  0  0  0  0  0  0  0  0  0  0
  185.3320  178.1880  142.5960 S   0  0  0  0  0  1  0  0  0  0  0  0
  187.1690  176.5480  143.5730 O   0  0  0  0  0  0  0  0  0  0  0  0
  188.0450  176.0630  144.5510 C   0  0  0  0  0  0  0  0  0  0  0  0
  185.8340  176.9670  143.8520 C   0  0  1  0  0  3  0  0  0  0  0  0
  189.8470  174.3880  145.0680 C   0  0  2  0  0  3  0  0  0  0  0  0
  189.6980  174.8400  146.5050 C   0  0  0  0  0  3  0  0  0  0  0  0
  194.1140  174.2290  137.4080 N   0  0  0  0  0  2  0  0  0  0  0  0
  193.3000  176.2010  136.3620 C   0  0  0  0  0  2  0  0  0  0  0  0
  194.3300  175.4130  136.6270 C   0  0  0  0  0  0  0  0  0  0  0  0
  195.6530  175.7540  136.0320 C   0  0  0  0  0  1  0  0  0  0  0  0
  1  5  1  6  0  0  0
  1 11  1  0  0  0  0
  2 15  1  0  0  0  0
  3 10  1  0  0  0  0
  6  4  1  6  0  0  0
  6  8  1  0  0  0  0
  7  8  1  0  0  0  0
  9  5  1  6  0  0  0
  9 29  1  0  0  0  0
  9  4  1  0  0  0  0
 10 12  2  0  0  0  0
 11 10  1  1  0  0  0
 11  6  1  0  0  0  0
 12  7  1  0  0  0  0
 13 14  1  0  0  0  0
 13  2  2  0  0  0  0
 14 16  2  0  0  0  0
 15 17  2  0  0  0  0
 15  3  1  0  0  0  0
 16 17  1  0  0  0  0
 17  1  1  0  0  0  0
 19 27  1  0  0  0  0
 20 21  2  0  0  0  0
 20 22  1  0  0  0  0
 21 23  2  0  0  0  0
 24 22  1  0  0  0  0
 24 18  1  0  0  0  0
 26 28  1  0  0  0  0
 26 27  1  0  0  0  0
 27 24  2  0  0  0  0
 28 25  1  6  0  0  0
 28 20  1  0  0  0  0
 29 19  1  6  0  0  0
 29 30  1  0  0  0  0
 30 18  2  0  0  0  0
 31 13  1  0  0  0  0
 32 33  2  0  0  0  0
 33 31  1  0  0  0  0
 34 33  1  0  0  0  0
M  END
>  <MODEL>
7

>  <REMARK>
 VINA RESULT:      -7.9      4.445      9.703
  Name = 
  3 active torsions:
  status: ('A' for Active; 'I' for Inactive)
    1  A    between atoms: C_13  and  N_25
    2  A    between atoms: N_18  and  C_30
    3  A    between atoms: C_23  and  N_25
                            x       y       z     vdW  Elec       q    Type
                         _______ _______ _______ _____ _____    ______ ____

>  <TORSDO>
F 3

$$$$
=
 OpenBabel11052420323D

 34 39  0  0  1  0  0  0  0  0999 V2000
  187.4810  177.6930  143.7010 C   0  0  2  0  0  3  0  0  0  0  0  0
  185.3350  177.5440  140.5650 C   0  0  0  0  0  3  0  0  0  0  0  0
  184.6970  178.3540  142.8380 C   0  0  0  0  0  2  0  0  0  0  0  0
  187.9580  176.8940  146.4310 C   0  0  0  0  0  2  0  0  0  0  0  0
  188.6180  176.7640  144.1440 C   0  0  0  0  0  2  0  0  0  0  0  0
  186.8090  177.8370  146.0920 C   0  0  2  0  0  3  0  0  0  0  0  0
  184.5850  178.7410  146.6970 C   0  0  0  0  0  2  0  0  0  0  0  0
  185.6380  177.6880  147.0500 C   0  0  0  0  0  2  0  0  0  0  0  0
  189.0740  177.1210  145.4990 N   0  0  2  0  0  0  0  0  0  0  0  0
  185.1100  178.2980  144.2830 C   0  0  0  0  0  0  0  0  0  0  0  0
  186.3310  177.5070  144.6830 C   0  0  1  0  0  3  0  0  0  0  0  0
  184.2690  178.7760  145.2170 C   0  0  0  0  0  3  0  0  0  0  0  0
  186.2430  177.0150  139.6460 C   0  0  0  0  0  0  0  0  0  0  0  0
  187.5410  176.7200  140.0780 C   0  0  0  0  0  3  0  0  0  0  0  0
  185.7090  177.7530  141.8940 C   0  0  0  0  0  0  0  0  0  0  0  0
  187.8990  176.9320  141.3730 N   0  0  0  0  0  0  0  0  0  0  0  0
  187.0220  177.4180  142.2940 C   0  0  0  0  0  0  0  0  0  0  0  0
  190.6390  173.8000  145.8080 C   0  0  0  0  0  3  0  0  0  0  0  0
  191.3740  176.3830  144.8960 C   0  0  0  0  0  2  0  0  0  0  0  0
  194.4180  173.3420  145.1870 C   0  0  0  0  0  0  0  0  0  0  0  0
  195.3110  172.3880  145.1660 C   0  0  0  0  0  0  0  0  0  0  0  0
  193.0650  172.9980  145.7320 C   0  0  0  0  0  2  0  0  0  0  0  0
  196.1570  171.4860  145.1450 O   0  0  0  0  0  0  0  0  0  0  0  0
  192.0590  174.0970  145.5410 C   0  0  0  0  0  0  0  0  0  0  0  0
  196.2430  175.1370  144.1190 S   0  0  0  0  0  1  0  0  0  0  0  0
  193.7650  175.6490  144.9040 O   0  0  0  0  0  0  0  0  0  0  0  0
  192.4240  175.3360  145.1560 C   0  0  0  0  0  0  0  0  0  0  0  0
  194.8490  174.7850  145.2390 C   0  0  1  0  0  3  0  0  0  0  0  0
  190.1880  176.2360  145.8710 C   0  0  2  0  0  3  0  0  0  0  0  0
  189.7470  174.7880  145.9190 C   0  0  0  0  0  3  0  0  0  0  0  0
  185.8200  176.8220  138.2880 N   0  0  0  0  0  2  0  0  0  0  0  0
  186.5060  176.7560  136.0150 C   0  0  0  0  0  2  0  0  0  0  0  0
  186.5470  176.2040  137.2170 C   0  0  0  0  0  0  0  0  0  0  0  0
  187.2820  174.9180  137.3800 C   0  0  0  0  0  1  0  0  0  0  0  0
  1  5  1  1  0  0  0
  1 11  1  0  0  0  0
  2 15  1  0  0  0  0
  3 10  1  0  0  0  0
  6  4  1  1  0  0  0
  6  8  1  0  0  0  0
  7  8  1  0  0  0  0
  9  5  1  6  0  0  0
  9 29  1  0  0  0  0
  9  4  1  0  0  0  0
 10 12  2  0  0  0  0
 11 10  1  6  0  0  0
 11  6  1  0  0  0  0
 12  7  1  0  0  0  0
 13 14  1  0  0  0  0
 13  2  2  0  0  0  0
 14 16  2  0  0  0  0
 15 17  2  0  0  0  0
 15  3  1  0  0  0  0
 16 17  1  0  0  0  0
 17  1  1  0  0  0  0
 18 30  2  0  0  0  0
 19 27  1  0  0  0  0
 20 28  1  0  0  0  0
 20 22  1  0  0  0  0
 21 20  2  0  0  0  0
 23 21  2  0  0  0  0
 24 22  1  0  0  0  0
 24 18  1  0  0  0  0
 26 27  1  0  0  0  0
 26 28  1  0  0  0  0
 27 24  2  0  0  0  0
 28 25  1  6  0  0  0
 29 19  1  6  0  0  0
 29 30  1  0  0  0  0
 31 13  1  0  0  0  0
 32 33  2  0  0  0  0
 33 34  1  0  0  0  0
 33 31  1  0  0  0  0
M  END
>  <MODEL>
8

>  <REMARK>
 VINA RESULT:      -7.5      3.137      4.120
  Name = 
  3 active torsions:
  status: ('A' for Active; 'I' for Inactive)
    1  A    between atoms: C_13  and  N_25
    2  A    between atoms: N_18  and  C_30
    3  A    between atoms: C_23  and  N_25
                            x       y       z     vdW  Elec       q    Type
                         _______ _______ _______ _____ _____    ______ ____

>  <TORSDO>
F 3

$$$$
=
 OpenBabel11052420323D

 34 39  0  0  1  0  0  0  0  0999 V2000
  190.8310  177.3510  143.9700 C   0  0  2  0  0  3  0  0  0  0  0  0
  187.0930  178.0340  144.1130 C   0  0  0  0  0  3  0  0  0  0  0  0
  188.6030  177.3060  145.9620 C   0  0  0  0  0  2  0  0  0  0  0  0
  193.0420  175.5260  144.2860 C   0  0  0  0  0  2  0  0  0  0  0  0
  191.6740  176.8060  142.8110 C   0  0  0  0  0  2  0  0  0  0  0  0
  192.2740  176.0270  145.5040 C   0  0  2  0  0  3  0  0  0  0  0  0
  191.5590  175.6390  147.8420 C   0  0  0  0  0  2  0  0  0  0  0  0
  192.2570  175.0100  146.6340 C   0  0  0  0  0  2  0  0  0  0  0  0
  193.0610  176.5720  143.2510 N   0  0  2  0  0  0  0  0  0  0  0  0
  189.9480  176.6860  146.2300 C   0  0  0  0  0  0  0  0  0  0  0  0
  190.8380  176.3010  145.0740 C   0  0  1  0  0  3  0  0  0  0  0  0
  190.2440  176.2940  147.4810 C   0  0  0  0  0  3  0  0  0  0  0  0
  186.8380  178.4030  142.7920 C   0  0  0  0  0  0  0  0  0  0  0  0
  187.9020  178.4200  141.8830 C   0  0  0  0  0  3  0  0  0  0  0  0
  188.3790  177.6680  144.5150 C   0  0  0  0  0  0  0  0  0  0  0  0
  189.1530  178.0670  142.2820 N   0  0  0  0  0  0  0  0  0  0  0  0
  189.4190  177.6750  143.5590 C   0  0  0  0  0  0  0  0  0  0  0  0
  196.1230  175.1830  141.7430 C   0  0  0  0  0  3  0  0  0  0  0  0
  193.3280  174.7230  141.6050 C   0  0  0  0  0  2  0  0  0  0  0  0
  195.9120  172.6440  138.8490 C   0  0  0  0  0  0  0  0  0  0  0  0
  196.7060  171.9300  138.0960 C   0  0  0  0  0  0  0  0  0  0  0  0
  196.5480  173.6880  139.7140 C   0  0  0  0  0  2  0  0  0  0  0  0
  197.4570  171.2530  137.3830 O   0  0  0  0  0  0  0  0  0  0  0  0
  195.5830  174.3220  140.6760 C   0  0  0  0  0  0  0  0  0  0  0  0
  193.6940  171.3010  137.8610 S   0  0  0  0  0  1  0  0  0  0  0  0
  193.7100  173.3320  139.5620 O   0  0  0  0  0  0  0  0  0  0  0  0
  194.2520  174.1370  140.5710 C   0  0  0  0  0  0  0  0  0  0  0  0
  194.4690  172.8380  138.4600 C   0  0  1  0  0  3  0  0  0  0  0  0
  193.8440  176.0880  142.1040 C   0  0  2  0  0  3  0  0  0  0  0  0
  195.3140  175.9790  142.4490 C   0  0  0  0  0  3  0  0  0  0  0  0
  185.5030  178.7790  142.4230 N   0  0  0  0  0  2  0  0  0  0  0  0
  185.2640  177.8610  140.2450 C   0  0  0  0  0  2  0  0  0  0  0  0
  184.6880  178.2290  141.3780 C   0  0  0  0  0  0  0  0  0  0  0  0
  183.2050  178.1290  141.4830 C   0  0  0  0  0  1  0  0  0  0  0  0
  1  5  1  6  0  0  0
  1 11  1  0  0  0  0
  2 15  1  0  0  0  0
  3 10  1  0  0  0  0
  6  4  1  6  0  0  0
  6  8  1  0  0  0  0
  8  7  1  0  0  0  0
  9  5  1  6  0  0  0
  9  4  1  0  0  0  0
 10 12  2  0  0  0  0
 11  6  1  0  0  0  0
 11 10  1  1  0  0  0
 12  7  1  0  0  0  0
 13  2  2  0  0  0  0
 14 16  2  0  0  0  0
 14 13  1  0  0  0  0
 15  3  1  0  0  0  0
 16 17  1  0  0  0  0
 17  1  1  0  0  0  0
 17 15  2  0  0  0  0
 18 30  2  0  0  0  0
 20 22  1  0  0  0  0
 21 20  2  0  0  0  0
 22 24  1  0  0  0  0
 23 21  2  0  0  0  0
 24 18  1  0  0  0  0
 26 27  1  0  0  0  0
 27 24  2  0  0  0  0
 27 19  1  0  0  0  0
 28 25  1  1  0  0  0
 28 20  1  0  0  0  0
 28 26  1  0  0  0  0
 29 19  1  1  0  0  0
 29 30  1  0  0  0  0
 29  9  1  0  0  0  0
 31 13  1  0  0  0  0
 32 33  2  0  0  0  0
 33 34  1  0  0  0  0
 33 31  1  0  0  0  0
M  END
>  <MODEL>
9

>  <REMARK>
 VINA RESULT:      -7.3      2.361      4.279
  Name = 
  3 active torsions:
  status: ('A' for Active; 'I' for Inactive)
    1  A    between atoms: C_13  and  N_25
    2  A    between atoms: N_18  and  C_30
    3  A    between atoms: C_23  and  N_25
                            x       y       z     vdW  Elec       q    Type
                         _______ _______ _______ _____ _____    ______ ____

>  <TORSDO>
F 3

$$$$
