=
 OpenBabel11052417263D

 25 28  0  0  1  0  0  0  0  0999 V2000
  187.0970  176.7270  144.5950 N   0  0  0  0  0  0  0  0  0  0  0  0
  188.2930  176.0880  144.4690 C   0  0  0  0  0  0  0  0  0  0  0  0
  186.4120  176.0750  142.4150 C   0  0  0  0  0  3  0  0  0  0  0  0
  186.5510  177.4370  145.5950 C   0  0  0  0  0  0  0  0  0  0  0  0
  191.7820  176.3420  145.8330 N   0  0  0  0  0  2  0  0  0  0  0  0
  184.8160  178.6370  147.4960 C   0  0  0  0  0  2  0  0  0  0  0  0
  187.6030  175.4250  142.2680 N   0  0  0  0  0  0  0  0  0  0  0  0
  185.2950  177.8310  145.1930 C   0  0  0  0  0  0  0  0  0  0  0  0
  184.3950  178.6940  146.0200 C   0  0  0  0  0  2  0  0  0  0  0  0
  189.8370  174.6530  143.1040 C   0  0  1  0  0  3  0  0  0  0  0  0
  190.3010  174.6060  141.6580 C   0  0  0  0  0  1  0  0  0  0  0  0
  189.2910  176.0210  145.5910 C   0  0  0  0  0  2  0  0  0  0  0  0
  186.3340  178.8180  147.6510 C   0  0  0  0  0  2  0  0  0  0  0  0
  186.1720  176.7380  143.6140 C   0  0  0  0  0  0  0  0  0  0  0  0
  185.0440  177.4130  143.9310 N   0  0  0  0  0  0  0  0  0  0  0  0
  190.9010  175.2310  143.9300 N   0  0  0  0  0  0  0  0  0  0  0  0
  187.1030  177.6770  146.9680 C   0  0  0  0  0  2  0  0  0  0  0  0
  190.6860  175.8410  145.0620 C   0  0  0  0  0  0  0  0  0  0  0  0
  188.5530  175.4260  143.2540 C   0  0  0  0  0  0  0  0  0  0  0  0
  193.1690  176.2410  145.3970 C   0  0  1  0  0  3  0  0  0  0  0  0
  193.3680  177.0380  144.2680 O   0  0  0  0  0  1  0  0  0  0  0  0
  193.3640  177.0610  147.6200 F   0  0  0  0  0  0  0  0  0  0  0  0
  194.1060  176.6780  146.5170 C   0  0  0  0  0  0  0  0  0  0  0  0
  194.8870  177.7400  146.1010 F   0  0  0  0  0  0  0  0  0  0  0  0
  194.9250  175.6220  146.8730 F   0  0  0  0  0  0  0  0  0  0  0  0
  1  4  1  0  0  0  0
  2  1  1  0  0  0  0
  2 12  1  0  0  0  0
  3 14  1  0  0  0  0
  4 17  1  0  0  0  0
  6 13  1  0  0  0  0
  7  3  2  0  0  0  0
  7 19  1  0  0  0  0
  8  4  2  0  0  0  0
  8  9  1  0  0  0  0
  9  6  1  0  0  0  0
 10 11  1  6  0  0  0
 10 19  1  0  0  0  0
 10 16  1  0  0  0  0
 14 15  2  0  0  0  0
 14  1  1  0  0  0  0
 15  8  1  0  0  0  0
 16 18  2  0  0  0  0
 17 13  1  0  0  0  0
 18 12  1  0  0  0  0
 18  5  1  0  0  0  0
 19  2  2  0  0  0  0
 20 21  1  6  0  0  0
 20  5  1  0  0  0  0
 20 23  1  0  0  0  0
 23 25  1  0  0  0  0
 23 22  1  0  0  0  0
 24 23  1  0  0  0  0
M  END
>  <MODEL>
1

>  <REMARK>
 VINA RESULT:      -7.9      0.000      0.000
  Name = 
  2 active torsions:
  status: ('A' for Active; 'I' for Inactive)
    1  A    between atoms: N_6  and  C_15
    2  A    between atoms: C_7  and  C_15
                            x       y       z     vdW  Elec       q    Type
                         _______ _______ _______ _____ _____    ______ ____

>  <TORSDO>
F 2

$$$$
=
 OpenBabel11052417263D

 25 28  0  0  1  0  0  0  0  0999 V2000
  187.2810  176.6530  144.6290 N   0  0  0  0  0  0  0  0  0  0  0  0
  188.4950  176.0440  144.5190 C   0  0  0  0  0  0  0  0  0  0  0  0
  186.6360  175.9760  142.4450 C   0  0  0  0  0  3  0  0  0  0  0  0
  186.7070  177.3530  145.6210 C   0  0  0  0  0  0  0  0  0  0  0  0
  191.9610  176.3910  145.9170 N   0  0  0  0  0  2  0  0  0  0  0  0
  184.9230  178.5150  147.4990 C   0  0  0  0  0  2  0  0  0  0  0  0
  187.8440  175.3560  142.3130 N   0  0  0  0  0  0  0  0  0  0  0  0
  185.4460  177.7130  145.2040 C   0  0  0  0  0  0  0  0  0  0  0  0
  184.5160  178.5560  146.0180 C   0  0  0  0  0  2  0  0  0  0  0  0
  190.0890  174.6440  143.1750 C   0  0  1  0  0  3  0  0  0  0  0  0
  190.5690  174.6030  141.7340 C   0  0  0  0  0  1  0  0  0  0  0  0
  189.4820  176.0060  145.6510 C   0  0  0  0  0  2  0  0  0  0  0  0
  186.4340  178.7350  147.6690 C   0  0  0  0  0  2  0  0  0  0  0  0
  186.3670  176.6370  143.6390 C   0  0  0  0  0  0  0  0  0  0  0  0
  185.2190  177.2850  143.9410 N   0  0  0  0  0  0  0  0  0  0  0  0
  191.1290  175.2510  144.0100 N   0  0  0  0  0  0  0  0  0  0  0  0
  187.2380  177.6120  146.9980 C   0  0  0  0  0  2  0  0  0  0  0  0
  190.8860  175.8600  145.1380 C   0  0  0  0  0  0  0  0  0  0  0  0
  188.7840  175.3840  143.3090 C   0  0  0  0  0  0  0  0  0  0  0  0
  193.3550  176.3240  145.4970 C   0  0  1  0  0  3  0  0  0  0  0  0
  194.0650  177.3940  146.0450 O   0  0  0  0  0  1  0  0  0  0  0  0
  193.1270  174.3660  146.8260 F   0  0  0  0  0  0  0  0  0  0  0  0
  193.9750  175.0040  145.9390 C   0  0  0  0  0  0  0  0  0  0  0  0
  195.1930  175.2290  146.5540 F   0  0  0  0  0  0  0  0  0  0  0  0
  194.1650  174.1900  144.8370 F   0  0  0  0  0  0  0  0  0  0  0  0
  1  4  1  0  0  0  0
  2  1  1  0  0  0  0
  2 12  1  0  0  0  0
  3 14  1  0  0  0  0
  4 17  1  0  0  0  0
  6 13  1  0  0  0  0
  7  3  2  0  0  0  0
  7 19  1  0  0  0  0
  8  4  2  0  0  0  0
  8  9  1  0  0  0  0
  9  6  1  0  0  0  0
 10 11  1  6  0  0  0
 10 19  1  0  0  0  0
 10 16  1  0  0  0  0
 14 15  2  0  0  0  0
 14  1  1  0  0  0  0
 15  8  1  0  0  0  0
 16 18  2  0  0  0  0
 17 13  1  0  0  0  0
 18 12  1  0  0  0  0
 18  5  1  0  0  0  0
 19  2  2  0  0  0  0
 20  5  1  0  0  0  0
 20 23  1  0  0  0  0
 20 21  1  1  0  0  0
 23 24  1  0  0  0  0
 23 22  1  0  0  0  0
 25 23  1  0  0  0  0
M  END
>  <MODEL>
2

>  <REMARK>
 VINA RESULT:      -7.7      0.921      1.080
  Name = 
  2 active torsions:
  status: ('A' for Active; 'I' for Inactive)
    1  A    between atoms: N_6  and  C_15
    2  A    between atoms: C_7  and  C_15
                            x       y       z     vdW  Elec       q    Type
                         _______ _______ _______ _____ _____    ______ ____

>  <TORSDO>
F 2

$$$$
=
 OpenBabel11052417263D

 25 28  0  0  1  0  0  0  0  0999 V2000
  185.7080  178.1490  143.5450 N   0  0  0  0  0  0  0  0  0  0  0  0
  186.4250  178.0840  144.7010 C   0  0  0  0  0  0  0  0  0  0  0  0
  183.8100  179.0410  144.6610 C   0  0  0  0  0  3  0  0  0  0  0  0
  186.0060  177.8270  142.2760 C   0  0  0  0  0  0  0  0  0  0  0  0
  189.2550  176.0920  146.1560 N   0  0  0  0  0  2  0  0  0  0  0  0
  186.2550  177.7000  139.4500 C   0  0  0  0  0  2  0  0  0  0  0  0
  184.5100  178.9890  145.8310 N   0  0  0  0  0  0  0  0  0  0  0  0
  184.9110  178.1280  141.4990 C   0  0  0  0  0  0  0  0  0  0  0  0
  184.8410  177.8540  140.0290 C   0  0  0  0  0  2  0  0  0  0  0  0
  186.5760  178.5150  147.1710 C   0  0  1  0  0  3  0  0  0  0  0  0
  185.6780  178.3060  148.3790 C   0  0  0  0  0  1  0  0  0  0  0  0
  187.8610  177.6410  144.7340 C   0  0  0  0  0  2  0  0  0  0  0  0
  187.1150  176.7690  140.3190 C   0  0  0  0  0  2  0  0  0  0  0  0
  184.4400  178.6050  143.5000 C   0  0  0  0  0  0  0  0  0  0  0  0
  183.9000  178.6050  142.2610 N   0  0  0  0  0  0  0  0  0  0  0  0
  187.6140  177.4810  147.1610 N   0  0  0  0  0  0  0  0  0  0  0  0
  187.3160  177.3490  141.7260 C   0  0  0  0  0  2  0  0  0  0  0  0
  188.2210  177.0770  146.0790 C   0  0  0  0  0  0  0  0  0  0  0  0
  185.7920  178.5100  145.8840 C   0  0  0  0  0  0  0  0  0  0  0  0
  189.6620  175.4650  147.4070 C   0  0  1  0  0  3  0  0  0  0  0  0
  189.1490  174.1680  147.4730 O   0  0  0  0  0  1  0  0  0  0  0  0
  191.6990  174.6440  146.4980 F   0  0  0  0  0  0  0  0  0  0  0  0
  191.1810  175.4320  147.5100 C   0  0  0  0  0  0  0  0  0  0  0  0
  191.5680  174.9160  148.7340 F   0  0  0  0  0  0  0  0  0  0  0  0
  191.6820  176.7150  147.3790 F   0  0  0  0  0  0  0  0  0  0  0  0
  1  2  1  0  0  0  0
  2 12  1  0  0  0  0
  2 19  2  0  0  0  0
  3  7  2  0  0  0  0
  4  1  1  0  0  0  0
  5 20  1  0  0  0  0
  6  9  1  0  0  0  0
  6 13  1  0  0  0  0
  7 19  1  0  0  0  0
  8 15  1  0  0  0  0
  8  4  2  0  0  0  0
  9  8  1  0  0  0  0
 10 11  1  1  0  0  0
 12 18  1  0  0  0  0
 13 17  1  0  0  0  0
 14  1  1  0  0  0  0
 14  3  1  0  0  0  0
 15 14  2  0  0  0  0
 16 10  1  0  0  0  0
 17  4  1  0  0  0  0
 18  5  1  0  0  0  0
 18 16  2  0  0  0  0
 19 10  1  0  0  0  0
 20 21  1  6  0  0  0
 20 23  1  0  0  0  0
 22 23  1  0  0  0  0
 23 24  1  0  0  0  0
 25 23  1  0  0  0  0
M  END
>  <MODEL>
3

>  <REMARK>
 VINA RESULT:      -7.5      2.699      4.906
  Name = 
  2 active torsions:
  status: ('A' for Active; 'I' for Inactive)
    1  A    between atoms: N_6  and  C_15
    2  A    between atoms: C_7  and  C_15
                            x       y       z     vdW  Elec       q    Type
                         _______ _______ _______ _____ _____    ______ ____

>  <TORSDO>
F 2

$$$$
=
 OpenBabel11052417263D

 25 28  0  0  1  0  0  0  0  0999 V2000
  191.2360  175.6650  144.0380 N   0  0  0  0  0  0  0  0  0  0  0  0
  190.0020  176.2400  144.0960 C   0  0  0  0  0  0  0  0  0  0  0  0
  190.7400  174.5830  141.9820 C   0  0  0  0  0  3  0  0  0  0  0  0
  192.3000  175.7230  144.8550 C   0  0  0  0  0  0  0  0  0  0  0  0
  187.6070  177.5210  146.6870 N   0  0  0  0  0  2  0  0  0  0  0  0
  194.9010  175.8320  145.9890 C   0  0  0  0  0  2  0  0  0  0  0  0
  189.5000  175.1510  142.0170 N   0  0  0  0  0  0  0  0  0  0  0  0
  193.3020  174.9670  144.2910 C   0  0  0  0  0  0  0  0  0  0  0  0
  194.6320  174.7420  144.9410 C   0  0  0  0  0  2  0  0  0  0  0  0
  187.7540  176.6290  143.0450 C   0  0  1  0  0  3  0  0  0  0  0  0
  186.7040  175.7780  142.3530 C   0  0  0  0  0  1  0  0  0  0  0  0
  189.6090  177.1950  145.1880 C   0  0  0  0  0  2  0  0  0  0  0  0
  193.6810  176.0460  146.8970 C   0  0  0  0  0  2  0  0  0  0  0  0
  191.6150  174.8570  143.0290 C   0  0  0  0  0  0  0  0  0  0  0  0
  192.8800  174.3930  143.1420 N   0  0  0  0  0  0  0  0  0  0  0  0
  187.3080  176.9270  144.4090 N   0  0  0  0  0  0  0  0  0  0  0  0
  192.4710  176.5490  146.0950 C   0  0  0  0  0  2  0  0  0  0  0  0
  188.1210  177.1990  145.3920 C   0  0  0  0  0  0  0  0  0  0  0  0
  189.1030  175.9590  143.0500 C   0  0  0  0  0  0  0  0  0  0  0  0
  186.1820  177.5290  146.9950 C   0  0  1  0  0  3  0  0  0  0  0  0
  185.9660  176.9390  148.2420 O   0  0  0  0  0  1  0  0  0  0  0  0
  184.2870  178.9460  147.2250 F   0  0  0  0  0  0  0  0  0  0  0  0
  185.6510  178.9570  146.9930 C   0  0  0  0  0  0  0  0  0  0  0  0
  185.9010  179.5600  145.7740 F   0  0  0  0  0  0  0  0  0  0  0  0
  186.2690  179.6820  147.9950 F   0  0  0  0  0  0  0  0  0  0  0  0
  1  2  1  0  0  0  0
  1  4  1  0  0  0  0
  2 12  1  0  0  0  0
  3  7  2  0  0  0  0
  3 14  1  0  0  0  0
  4 17  1  0  0  0  0
  5 20  1  0  0  0  0
  6 13  1  0  0  0  0
  7 19  1  0  0  0  0
  8  4  2  0  0  0  0
  8  9  1  0  0  0  0
  9  6  1  0  0  0  0
 10 11  1  1  0  0  0
 10 19  1  0  0  0  0
 10 16  1  0  0  0  0
 12 18  1  0  0  0  0
 14 15  2  0  0  0  0
 14  1  1  0  0  0  0
 15  8  1  0  0  0  0
 16 18  2  0  0  0  0
 17 13  1  0  0  0  0
 18  5  1  0  0  0  0
 19  2  2  0  0  0  0
 20 21  1  1  0  0  0
 23 20  1  0  0  0  0
 23 22  1  0  0  0  0
 23 25  1  0  0  0  0
 24 23  1  0  0  0  0
M  END
>  <MODEL>
4

>  <REMARK>
 VINA RESULT:      -7.5      3.692      6.694
  Name = 
  2 active torsions:
  status: ('A' for Active; 'I' for Inactive)
    1  A    between atoms: N_6  and  C_15
    2  A    between atoms: C_7  and  C_15
                            x       y       z     vdW  Elec       q    Type
                         _______ _______ _______ _____ _____    ______ ____

>  <TORSDO>
F 2

$$$$
=
 OpenBabel11052417263D

 25 28  0  0  1  0  0  0  0  0999 V2000
  187.8870  176.5370  144.8280 N   0  0  0  0  0  0  0  0  0  0  0  0
  188.6800  175.7250  144.0770 C   0  0  0  0  0  0  0  0  0  0  0  0
  188.5950  175.5160  146.8530 C   0  0  0  0  0  3  0  0  0  0  0  0
  187.0450  177.5320  144.5040 C   0  0  0  0  0  0  0  0  0  0  0  0
  188.7800  174.3120  140.6000 N   0  0  0  0  0  2  0  0  0  0  0  0
  185.5050  179.9150  144.3980 C   0  0  0  0  0  2  0  0  0  0  0  0
  189.4000  174.6930  146.1210 N   0  0  0  0  0  0  0  0  0  0  0  0
  186.5230  178.0370  145.6720 C   0  0  0  0  0  0  0  0  0  0  0  0
  185.4970  179.1260  145.7160 C   0  0  0  0  0  2  0  0  0  0  0  0
  190.3920  173.8900  143.9620 C   0  0  1  0  0  3  0  0  0  0  0  0
  190.5980  172.5380  144.6230 C   0  0  0  0  0  1  0  0  0  0  0  0
  188.7970  175.8680  142.5850 C   0  0  0  0  0  2  0  0  0  0  0  0
  185.5090  178.9740  143.1840 C   0  0  0  0  0  2  0  0  0  0  0  0
  187.8250  176.4540  146.1720 C   0  0  0  0  0  0  0  0  0  0  0  0
  186.9910  177.3530  146.7410 N   0  0  0  0  0  0  0  0  0  0  0  0
  189.8990  173.6860  142.5970 N   0  0  0  0  0  0  0  0  0  0  0  0
  186.7830  178.1170  143.1480 C   0  0  0  0  0  2  0  0  0  0  0  0
  189.1890  174.5670  141.9470 C   0  0  0  0  0  0  0  0  0  0  0  0
  189.4530  174.7620  144.7540 C   0  0  0  0  0  0  0  0  0  0  0  0
  189.0880  173.0710  139.8990 C   0  0  1  0  0  3  0  0  0  0  0  0
  187.9350  172.5800  139.2830 O   0  0  0  0  0  1  0  0  0  0  0  0
  190.5060  172.1130  138.2490 F   0  0  0  0  0  0  0  0  0  0  0  0
  190.1750  173.3100  138.8580 C   0  0  0  0  0  0  0  0  0  0  0  0
  191.3020  173.8450  139.4560 F   0  0  0  0  0  0  0  0  0  0  0  0
  189.7090  174.1890  137.8970 F   0  0  0  0  0  0  0  0  0  0  0  0
  1 14  1  0  0  0  0
  2 19  2  0  0  0  0
  2  1  1  0  0  0  0
  4  1  1  0  0  0  0
  4  8  2  0  0  0  0
  5 18  1  0  0  0  0
  6  9  1  0  0  0  0
  7  3  2  0  0  0  0
  8  9  1  0  0  0  0
  8 15  1  0  0  0  0
 10 11  1  1  0  0  0
 10 19  1  0  0  0  0
 12  2  1  0  0  0  0
 13  6  1  0  0  0  0
 14 15  2  0  0  0  0
 14  3  1  0  0  0  0
 16 10  1  0  0  0  0
 17 13  1  0  0  0  0
 17  4  1  0  0  0  0
 18 12  1  0  0  0  0
 18 16  2  0  0  0  0
 19  7  1  0  0  0  0
 20 21  1  6  0  0  0
 20  5  1  0  0  0  0
 22 23  1  0  0  0  0
 23 24  1  0  0  0  0
 23 20  1  0  0  0  0
 25 23  1  0  0  0  0
M  END
>  <MODEL>
5

>  <REMARK>
 VINA RESULT:      -7.4      4.164      5.380
  Name = 
  2 active torsions:
  status: ('A' for Active; 'I' for Inactive)
    1  A    between atoms: N_6  and  C_15
    2  A    between atoms: C_7  and  C_15
                            x       y       z     vdW  Elec       q    Type
                         _______ _______ _______ _____ _____    ______ ____

>  <TORSDO>
F 2

$$$$
=
 OpenBabel11052417263D

 25 28  0  0  1  0  0  0  0  0999 V2000
  188.1750  176.9810  144.6010 N   0  0  0  0  0  0  0  0  0  0  0  0
  189.4610  176.8620  145.0330 C   0  0  0  0  0  0  0  0  0  0  0  0
  187.3030  176.4370  146.7420 C   0  0  0  0  0  3  0  0  0  0  0  0
  187.6480  177.2970  143.4060 C   0  0  0  0  0  0  0  0  0  0  0  0
  192.8460  176.0530  143.6270 N   0  0  0  0  0  2  0  0  0  0  0  0
  186.0650  178.2900  141.2680 C   0  0  0  0  0  2  0  0  0  0  0  0
  188.5820  176.3150  147.1990 N   0  0  0  0  0  0  0  0  0  0  0  0
  186.2780  177.3020  143.5410 C   0  0  0  0  0  0  0  0  0  0  0  0
  185.3380  177.5550  142.4050 C   0  0  0  0  0  2  0  0  0  0  0  0
  191.0710  176.4270  146.9110 C   0  0  1  0  0  3  0  0  0  0  0  0
  191.1920  175.4200  148.0430 C   0  0  0  0  0  1  0  0  0  0  0  0
  190.6390  177.1580  144.1490 C   0  0  0  0  0  2  0  0  0  0  0  0
  187.4170  177.6310  140.9540 C   0  0  0  0  0  2  0  0  0  0  0  0
  187.1140  176.7770  145.4060 C   0  0  0  0  0  0  0  0  0  0  0  0
  185.9200  176.9550  144.7980 N   0  0  0  0  0  0  0  0  0  0  0  0
  192.0180  176.0720  145.8500 N   0  0  0  0  0  0  0  0  0  0  0  0
  188.3670  177.7100  142.1570 C   0  0  0  0  0  2  0  0  0  0  0  0
  191.8560  176.4000  144.5980 C   0  0  0  0  0  0  0  0  0  0  0  0
  189.6630  176.5040  146.3800 C   0  0  0  0  0  0  0  0  0  0  0  0
  194.0490  175.2990  143.9550 C   0  0  1  0  0  3  0  0  0  0  0  0
  194.2970  174.3500  142.9600 O   0  0  0  0  0  1  0  0  0  0  0  0
  194.9350  177.2530  144.9790 F   0  0  0  0  0  0  0  0  0  0  0  0
  195.2410  176.2390  144.0890 C   0  0  0  0  0  0  0  0  0  0  0  0
  195.5560  176.7900  142.8600 F   0  0  0  0  0  0  0  0  0  0  0  0
  196.3320  175.5370  144.5680 F   0  0  0  0  0  0  0  0  0  0  0  0
  1  2  1  0  0  0  0
  1 14  1  0  0  0  0
  2 19  2  0  0  0  0
  3  7  2  0  0  0  0
  4  8  2  0  0  0  0
  4  1  1  0  0  0  0
  5 20  1  0  0  0  0
  5 18  1  0  0  0  0
  6  9  1  0  0  0  0
  8 15  1  0  0  0  0
  9  8  1  0  0  0  0
 10 11  1  1  0  0  0
 12 18  1  0  0  0  0
 12  2  1  0  0  0  0
 13  6  1  0  0  0  0
 13 17  1  0  0  0  0
 14  3  1  0  0  0  0
 15 14  2  0  0  0  0
 16 10  1  0  0  0  0
 17  4  1  0  0  0  0
 18 16  2  0  0  0  0
 19 10  1  0  0  0  0
 19  7  1  0  0  0  0
 20 21  1  6  0  0  0
 20 23  1  0  0  0  0
 23 25  1  0  0  0  0
 23 22  1  0  0  0  0
 24 23  1  0  0  0  0
M  END
>  <MODEL>
6

>  <REMARK>
 VINA RESULT:      -7.2      2.218      3.660
  Name = 
  2 active torsions:
  status: ('A' for Active; 'I' for Inactive)
    1  A    between atoms: N_6  and  C_15
    2  A    between atoms: C_7  and  C_15
                            x       y       z     vdW  Elec       q    Type
                         _______ _______ _______ _____ _____    ______ ____

>  <TORSDO>
F 2

$$$$
=
 OpenBabel11052417263D

 25 28  0  0  1  0  0  0  0  0999 V2000
  188.6980  174.5980  142.2490 N   0  0  0  0  0  0  0  0  0  0  0  0
  188.1580  175.8180  142.5230 C   0  0  0  0  0  0  0  0  0  0  0  0
  188.0950  174.7390  139.9560 C   0  0  0  0  0  3  0  0  0  0  0  0
  189.3310  173.6950  143.0170 C   0  0  0  0  0  0  0  0  0  0  0  0
  186.6620  177.6490  145.4380 N   0  0  0  0  0  2  0  0  0  0  0  0
  191.0460  171.6940  144.0730 C   0  0  0  0  0  2  0  0  0  0  0  0
  187.5500  175.9640  140.2050 N   0  0  0  0  0  0  0  0  0  0  0  0
  189.6980  172.6430  142.2100 C   0  0  0  0  0  0  0  0  0  0  0  0
  190.3770  171.4100  142.7190 C   0  0  0  0  0  2  0  0  0  0  0  0
  187.0040  177.8950  141.7100 C   0  0  1  0  0  3  0  0  0  0  0  0
  185.8410  178.2150  140.7860 C   0  0  0  0  0  1  0  0  0  0  0  0
  188.2450  176.4500  143.8840 C   0  0  0  0  0  2  0  0  0  0  0  0
  190.0920  172.4360  145.0210 C   0  0  0  0  0  2  0  0  0  0  0  0
  188.6770  174.0530  141.0170 C   0  0  0  0  0  0  0  0  0  0  0  0
  189.2750  172.8420  140.9410 N   0  0  0  0  0  0  0  0  0  0  0  0
  186.5670  178.0450  143.1010 N   0  0  0  0  0  0  0  0  0  0  0  0
  189.7130  173.8160  144.4620 C   0  0  0  0  0  2  0  0  0  0  0  0
  187.1170  177.4170  144.1030 C   0  0  0  0  0  0  0  0  0  0  0  0
  187.5530  176.5150  141.4600 C   0  0  0  0  0  0  0  0  0  0  0  0
  185.5590  178.5480  145.7560 C   0  0  1  0  0  3  0  0  0  0  0  0
  184.3650  178.0230  145.2560 O   0  0  0  0  0  1  0  0  0  0  0  0
  184.1320  178.6340  147.6550 F   0  0  0  0  0  0  0  0  0  0  0  0
  185.4540  178.7420  147.2630 C   0  0  0  0  0  0  0  0  0  0  0  0
  185.9360  179.9880  147.6210 F   0  0  0  0  0  0  0  0  0  0  0  0
  186.1930  177.7660  147.9070 F   0  0  0  0  0  0  0  0  0  0  0  0
  1  2  1  0  0  0  0
  1  4  1  0  0  0  0
  2 12  1  0  0  0  0
  3  7  2  0  0  0  0
  3 14  1  0  0  0  0
  4 17  1  0  0  0  0
  5 20  1  0  0  0  0
  6 13  1  0  0  0  0
  7 19  1  0  0  0  0
  8  9  1  0  0  0  0
  8  4  2  0  0  0  0
  9  6  1  0  0  0  0
 10 11  1  6  0  0  0
 10 16  1  0  0  0  0
 12 18  1  0  0  0  0
 14  1  1  0  0  0  0
 15 14  2  0  0  0  0
 15  8  1  0  0  0  0
 16 18  2  0  0  0  0
 17 13  1  0  0  0  0
 18  5  1  0  0  0  0
 19 10  1  0  0  0  0
 19  2  2  0  0  0  0
 20 21  1  1  0  0  0
 20 23  1  0  0  0  0
 23 24  1  0  0  0  0
 23 22  1  0  0  0  0
 23 25  1  0  0  0  0
M  END
>  <MODEL>
7

>  <REMARK>
 VINA RESULT:      -7.2      4.080      6.603
  Name = 
  2 active torsions:
  status: ('A' for Active; 'I' for Inactive)
    1  A    between atoms: N_6  and  C_15
    2  A    between atoms: C_7  and  C_15
                            x       y       z     vdW  Elec       q    Type
                         _______ _______ _______ _____ _____    ______ ____

>  <TORSDO>
F 2

$$$$
=
 OpenBabel11052417263D

 25 28  0  0  1  0  0  0  0  0999 V2000
  190.1170  175.0570  143.2860 N   0  0  0  0  0  0  0  0  0  0  0  0
  189.3840  175.6400  144.2750 C   0  0  0  0  0  0  0  0  0  0  0  0
  192.1100  175.1500  144.5750 C   0  0  0  0  0  3  0  0  0  0  0  0
  189.7900  174.6090  142.0630 C   0  0  0  0  0  0  0  0  0  0  0  0
  186.2830  177.7240  144.6340 N   0  0  0  0  0  2  0  0  0  0  0  0
  189.5580  173.1690  139.6260 C   0  0  0  0  0  2  0  0  0  0  0  0
  191.3970  175.7320  145.5820 N   0  0  0  0  0  0  0  0  0  0  0  0
  190.9260  174.0790  141.4930 C   0  0  0  0  0  0  0  0  0  0  0  0
  190.9730  173.5300  140.1020 C   0  0  0  0  0  2  0  0  0  0  0  0
  189.2690  176.5840  146.6000 C   0  0  1  0  0  3  0  0  0  0  0  0
  190.1130  177.5190  147.4490 C   0  0  0  0  0  1  0  0  0  0  0  0
  187.9000  175.8460  144.1640 C   0  0  0  0  0  2  0  0  0  0  0  0
  188.5640  174.3030  139.9220 C   0  0  0  0  0  2  0  0  0  0  0  0
  191.4370  174.8130  143.4050 C   0  0  0  0  0  0  0  0  0  0  0  0
  191.9860  174.2180  142.3220 N   0  0  0  0  0  0  0  0  0  0  0  0
  188.0930  177.3100  146.1110 N   0  0  0  0  0  0  0  0  0  0  0  0
  188.4320  174.5470  141.4320 C   0  0  0  0  0  2  0  0  0  0  0  0
  187.4480  176.9920  145.0230 C   0  0  0  0  0  0  0  0  0  0  0  0
  190.0580  175.9980  145.4580 C   0  0  0  0  0  0  0  0  0  0  0  0
  185.7770  178.8660  145.3850 C   0  0  1  0  0  3  0  0  0  0  0  0
  185.3360  179.8540  144.5000 O   0  0  0  0  0  1  0  0  0  0  0  0
  184.8740  178.8770  147.5840 F   0  0  0  0  0  0  0  0  0  0  0  0
  184.6350  178.4340  146.2960 C   0  0  0  0  0  0  0  0  0  0  0  0
  184.5220  177.0550  146.3010 F   0  0  0  0  0  0  0  0  0  0  0  0
  183.4490  178.9850  145.8450 F   0  0  0  0  0  0  0  0  0  0  0  0
  1 14  1  0  0  0  0
  1  2  1  0  0  0  0
  2 19  2  0  0  0  0
  3  7  2  0  0  0  0
  4  1  1  0  0  0  0
  5 18  1  0  0  0  0
  5 20  1  0  0  0  0
  6 13  1  0  0  0  0
  6  9  1  0  0  0  0
  8  4  2  0  0  0  0
  8 15  1  0  0  0  0
  9  8  1  0  0  0  0
 10 11  1  6  0  0  0
 12  2  1  0  0  0  0
 12 18  1  0  0  0  0
 13 17  1  0  0  0  0
 14  3  1  0  0  0  0
 15 14  2  0  0  0  0
 16 10  1  0  0  0  0
 17  4  1  0  0  0  0
 18 16  2  0  0  0  0
 19  7  1  0  0  0  0
 19 10  1  0  0  0  0
 20 21  1  6  0  0  0
 20 23  1  0  0  0  0
 23 24  1  0  0  0  0
 23 22  1  0  0  0  0
 25 23  1  0  0  0  0
M  END
>  <MODEL>
8

>  <REMARK>
 VINA RESULT:      -7.2      4.076      7.195
  Name = 
  2 active torsions:
  status: ('A' for Active; 'I' for Inactive)
    1  A    between atoms: N_6  and  C_15
    2  A    between atoms: C_7  and  C_15
                            x       y       z     vdW  Elec       q    Type
                         _______ _______ _______ _____ _____    ______ ____

>  <TORSDO>
F 2

$$$$
=
 OpenBabel11052417263D

 25 28  0  0  1  0  0  0  0  0999 V2000
  188.1470  177.2590  145.2850 N   0  0  0  0  0  0  0  0  0  0  0  0
  188.9440  176.7780  144.2910 C   0  0  0  0  0  0  0  0  0  0  0  0
  189.8720  177.0440  146.9040 C   0  0  0  0  0  3  0  0  0  0  0  0
  186.8740  177.6870  145.2960 C   0  0  0  0  0  0  0  0  0  0  0  0
  188.5940  174.9800  141.0140 N   0  0  0  0  0  2  0  0  0  0  0  0
  184.4280  179.0490  145.7720 C   0  0  0  0  0  2  0  0  0  0  0  0
  190.6910  176.5630  145.9240 N   0  0  0  0  0  0  0  0  0  0  0  0
  186.5810  178.0970  146.5770 C   0  0  0  0  0  0  0  0  0  0  0  0
  185.2320  178.5870  146.9980 C   0  0  0  0  0  2  0  0  0  0  0  0
  191.1910  175.9340  143.5480 C   0  0  1  0  0  3  0  0  0  0  0  0
  192.2300  174.9630  144.0820 C   0  0  0  0  0  1  0  0  0  0  0  0
  188.4880  176.6950  142.8610 C   0  0  0  0  0  2  0  0  0  0  0  0
  184.4990  178.0160  144.6370 C   0  0  0  0  0  2  0  0  0  0  0  0
  188.5710  177.3940  146.5570 C   0  0  0  0  0  0  0  0  0  0  0  0
  187.6390  177.9000  147.3960 N   0  0  0  0  0  0  0  0  0  0  0  0
  190.4500  175.2930  142.4590 N   0  0  0  0  0  0  0  0  0  0  0  0
  185.9390  177.8410  144.1340 C   0  0  0  0  0  2  0  0  0  0  0  0
  189.2350  175.6250  142.1180 C   0  0  0  0  0  0  0  0  0  0  0  0
  190.2590  176.4080  144.6330 C   0  0  0  0  0  0  0  0  0  0  0  0
  189.2220  173.9140  140.2440 C   0  0  1  0  0  3  0  0  0  0  0  0
  189.0440  172.6920  140.8980 O   0  0  0  0  0  1  0  0  0  0  0  0
  187.8260  174.9620  138.6300 F   0  0  0  0  0  0  0  0  0  0  0  0
  188.6210  173.8500  138.8450 C   0  0  0  0  0  0  0  0  0  0  0  0
  187.8540  172.7070  138.7040 F   0  0  0  0  0  0  0  0  0  0  0  0
  189.6360  173.8360  137.9060 F   0  0  0  0  0  0  0  0  0  0  0  0
  1  4  1  0  0  0  0
  1 14  1  0  0  0  0
  2 19  2  0  0  0  0
  2  1  1  0  0  0  0
  4  8  2  0  0  0  0
  5 18  1  0  0  0  0
  6  9  1  0  0  0  0
  7  3  2  0  0  0  0
  8  9  1  0  0  0  0
  8 15  1  0  0  0  0
 10 11  1  1  0  0  0
 10 19  1  0  0  0  0
 12  2  1  0  0  0  0
 13  6  1  0  0  0  0
 14  3  1  0  0  0  0
 14 15  2  0  0  0  0
 16 10  1  0  0  0  0
 17 13  1  0  0  0  0
 17  4  1  0  0  0  0
 18 16  2  0  0  0  0
 18 12  1  0  0  0  0
 19  7  1  0  0  0  0
 20 21  1  1  0  0  0
 20  5  1  0  0  0  0
 22 23  1  0  0  0  0
 23 20  1  0  0  0  0
 24 23  1  0  0  0  0
 25 23  1  0  0  0  0
M  END
>  <MODEL>
9

>  <REMARK>
 VINA RESULT:      -7.2      4.250      5.484
  Name = 
  2 active torsions:
  status: ('A' for Active; 'I' for Inactive)
    1  A    between atoms: N_6  and  C_15
    2  A    between atoms: C_7  and  C_15
                            x       y       z     vdW  Elec       q    Type
                         _______ _______ _______ _____ _____    ______ ____

>  <TORSDO>
F 2

$$$$
