=
 OpenBabel11052420243D

 34 39  0  0  1  0  0  0  0  0999 V2000
  193.8620  173.6930  144.0790 C   0  0  0  0  0  0  0  0  0  0  0  0
  196.6810  172.2130  146.1500 N   0  0  0  0  0  0  0  0  0  0  0  0
  196.0620  174.4300  145.7900 N   0  0  0  0  0  2  0  0  0  0  0  0
  191.8360  174.6810  143.0430 C   0  0  0  0  0  0  0  0  0  0  0  0
  192.6040  173.5340  143.6100 C   0  0  0  0  0  3  0  0  0  0  0  0
  193.5810  176.1300  143.8280 C   0  0  2  0  0  3  0  0  0  0  0  0
  193.8110  177.0250  144.7330 N   0  0  0  0  0  0  0  0  0  0  0  0
  192.2770  175.9420  143.1870 C   0  0  0  0  0  3  0  0  0  0  0  0
  195.3180  175.3880  145.0460 C   0  0  1  0  0  3  0  0  0  0  0  0
  194.5490  175.0070  143.8580 C   0  0  1  0  0  3  0  0  0  0  0  0
  194.9140  176.5610  145.5120 C   0  0  0  0  0  3  0  0  0  0  0  0
  196.7340  170.7620  146.0980 C   0  0  0  0  0  2  0  0  0  0  0  0
  195.3910  170.1700  146.4430 C   0  0  1  0  0  3  0  0  0  0  0  0
  194.6750  170.0480  145.1210 C   0  0  0  0  0  2  0  0  0  0  0  0
  195.8470  173.0250  145.5660 C   0  0  0  0  0  0  0  0  0  0  0  0
  194.1410  171.3520  144.6240 C   0  0  0  0  0  3  0  0  0  0  0  0
  194.6350  172.6000  144.7440 C   0  0  0  0  0  0  0  0  0  0  0  0
  195.5550  168.8520  147.0560 N   0  0  0  0  0  0  0  0  0  0  0  0
  196.7550  168.5190  147.6420 O   0  0  0  0  0  0  0  0  0  0  0  0
  194.5450  168.1760  147.3410 O   0  0  0  0  0  0  0  0  0  0  0  0
  190.5230  174.4340  142.3810 C   0  0  0  0  0  2  0  0  0  0  0  0
  187.8270  176.9820  142.6510 C   0  0  0  0  0  3  0  0  0  0  0  0
  189.2970  175.2610  144.3930 C   0  0  0  0  0  3  0  0  0  0  0  0
  186.4400  177.8010  146.1010 C   0  0  0  0  0  0  0  0  0  0  0  0
  186.6910  177.7840  144.6450 C   0  0  0  0  0  3  0  0  0  0  0  0
  187.6000  176.9750  144.1030 C   0  0  2  0  0  3  0  0  0  0  0  0
  188.1930  176.0340  146.4460 C   0  0  0  0  0  3  0  0  0  0  0  0
  188.3910  176.0620  144.9570 C   0  0  0  0  0  0  0  0  0  0  0  0
  187.1330  176.9940  146.9200 C   0  0  0  0  0  3  0  0  0  0  0  0
  189.4980  175.2800  142.9700 N   0  0  0  0  0  0  0  0  0  0  0  0
  188.7410  176.1630  142.1260 C   0  0  0  0  0  3  0  0  0  0  0  0
  185.4210  178.7120  146.6520 C   0  0  0  0  0  0  0  0  0  0  0  0
  185.6970  179.4740  147.6170 O   0  0  0  0  0  0  0  0  0  0  0  0
  184.1090  178.7410  146.0970 N   0  0  0  0  0  1  0  0  0  0  0  0
  1 17  1  0  0  0  0
  4  8  2  0  0  0  0
  4  5  1  0  0  0  0
  5  1  2  0  0  0  0
  6  8  1  1  0  0  0
  6 10  1  0  0  0  0
  6  7  1  0  0  0  0
  7 11  2  0  0  0  0
  9 11  1  1  0  0  0
  9  3  1  0  0  0  0
 10  1  1  1  0  0  0
 10  9  1  0  0  0  0
 12  2  1  0  0  0  0
 12 13  1  0  0  0  0
 13 18  1  6  0  0  0
 14 13  1  0  0  0  0
 15  3  1  0  0  0  0
 15  2  2  0  0  0  0
 16 17  2  0  0  0  0
 16 14  1  0  0  0  0
 17 15  1  0  0  0  0
 18 20  2  0  0  0  0
 18 19  2  0  0  0  0
 21 30  1  0  0  0  0
 21  4  1  0  0  0  0
 23 28  2  0  0  0  0
 24 32  1  0  0  0  0
 24 29  1  0  0  0  0
 25 24  2  0  0  0  0
 26 22  1  1  0  0  0
 26 25  1  0  0  0  0
 26 28  1  0  0  0  0
 27 29  2  0  0  0  0
 28 27  1  0  0  0  0
 30 23  1  0  0  0  0
 31 22  2  0  0  0  0
 31 30  1  0  0  0  0
 32 33  2  0  0  0  0
 34 32  1  0  0  0  0
M  END
>  <MODEL>
1

>  <REMARK>
 VINA RESULT:      -8.3      0.000      0.000
  Name = 
  4 active torsions:
  status: ('A' for Active; 'I' for Inactive)
    1  A    between atoms: N_3  and  C_25
    2  A    between atoms: C_7  and  C_11
    3  A    between atoms: C_8  and  C_18
    4  A    between atoms: C_18  and  N_30
                            x       y       z     vdW  Elec       q    Type
                         _______ _______ _______ _____ _____    ______ ____

>  <TORSDO>
F 4

$$$$
=
 OpenBabel11052420243D

 34 39  0  0  1  0  0  0  0  0999 V2000
  190.1780  176.1130  144.7650 C   0  0  0  0  0  0  0  0  0  0  0  0
  186.4680  176.8610  144.4380 N   0  0  0  0  0  0  0  0  0  0  0  0
  187.8960  177.0240  146.2730 N   0  0  0  0  0  2  0  0  0  0  0  0
  192.6500  175.9850  144.9340 C   0  0  0  0  0  0  0  0  0  0  0  0
  191.3830  176.0980  144.1530 C   0  0  0  0  0  3  0  0  0  0  0  0
  191.3480  176.2860  146.9290 C   0  0  2  0  0  3  0  0  0  0  0  0
  191.1210  177.1590  147.8560 N   0  0  0  0  0  0  0  0  0  0  0  0
  192.6480  176.1240  146.2710 C   0  0  0  0  0  3  0  0  0  0  0  0
  189.1430  176.7150  146.8850 C   0  0  1  0  0  3  0  0  0  0  0  0
  190.1180  175.8330  146.2370 C   0  0  1  0  0  3  0  0  0  0  0  0
  189.7190  177.4370  147.8350 C   0  0  0  0  0  3  0  0  0  0  0  0
  185.9450  176.6110  143.1070 C   0  0  0  0  0  2  0  0  0  0  0  0
  186.7730  177.3270  142.0690 C   0  0  1  0  0  3  0  0  0  0  0  0
  187.8410  176.3350  141.6800 C   0  0  0  0  0  2  0  0  0  0  0  0
  187.6840  176.7140  144.8840 C   0  0  0  0  0  0  0  0  0  0  0  0
  188.9330  176.2250  142.6940 C   0  0  0  0  0  3  0  0  0  0  0  0
  188.8890  176.3220  144.0370 C   0  0  0  0  0  0  0  0  0  0  0  0
  185.9520  177.6720  140.9080 N   0  0  0  0  0  0  0  0  0  0  0  0
  184.8330  178.4550  141.0750 O   0  0  0  0  0  0  0  0  0  0  0  0
  186.4270  177.5490  139.7610 O   0  0  0  0  0  0  0  0  0  0  0  0
  193.9440  175.8000  144.2180 C   0  0  0  0  0  2  0  0  0  0  0  0
  196.6480  173.8250  145.8370 C   0  0  0  0  0  3  0  0  0  0  0  0
  194.0970  173.3450  144.6470 C   0  0  0  0  0  3  0  0  0  0  0  0
  196.2310  170.0500  146.1030 C   0  0  0  0  0  0  0  0  0  0  0  0
  196.7680  171.4240  146.1950 C   0  0  0  0  0  3  0  0  0  0  0  0
  196.0870  172.4700  145.7320 C   0  0  0  0  0  0  0  0  0  0  0  0
  194.1590  170.9110  144.9710 C   0  0  0  0  0  2  0  0  0  0  0  0
  194.7610  172.2820  145.1040 C   0  0  0  0  0  0  0  0  0  0  0  0
  195.0330  169.8240  145.5410 C   0  0  0  0  0  3  0  0  0  0  0  0
  194.6620  174.6610  144.7660 N   0  0  0  0  0  0  0  0  0  0  0  0
  195.9510  174.8620  145.3680 C   0  0  0  0  0  3  0  0  0  0  0  0
  197.0210  168.9250  146.6340 C   0  0  0  0  0  0  0  0  0  0  0  0
  197.6580  168.1660  145.8550 O   0  0  0  0  0  0  0  0  0  0  0  0
  197.0720  168.6820  148.0360 N   0  0  0  0  0  1  0  0  0  0  0  0
  2 15  2  0  0  0  0
  3  9  1  0  0  0  0
  4  8  2  0  0  0  0
  5  1  2  0  0  0  0
  5  4  1  0  0  0  0
  6  8  1  6  0  0  0
  6  7  1  0  0  0  0
  9 11  1  6  0  0  0
 10  1  1  6  0  0  0
 10  9  1  0  0  0  0
 10  6  1  0  0  0  0
 11  7  2  0  0  0  0
 12  2  1  0  0  0  0
 13 18  1  6  0  0  0
 13 12  1  0  0  0  0
 14 13  1  0  0  0  0
 14 16  1  0  0  0  0
 15  3  1  0  0  0  0
 16 17  2  0  0  0  0
 17  1  1  0  0  0  0
 17 15  1  0  0  0  0
 18 19  2  0  0  0  0
 20 18  2  0  0  0  0
 21 30  1  0  0  0  0
 21  4  1  0  0  0  0
 23 30  1  0  0  0  0
 23 28  2  0  0  0  0
 24 25  1  0  0  0  0
 24 32  1  0  0  0  0
 26 22  1  0  0  0  0
 26 25  2  0  0  0  0
 27 28  1  0  0  0  0
 27 29  1  0  0  0  0
 28 26  1  0  0  0  0
 29 24  2  0  0  0  0
 30 31  1  0  0  0  0
 31 22  2  0  0  0  0
 32 34  1  0  0  0  0
 33 32  2  0  0  0  0
M  END
>  <MODEL>
2

>  <REMARK>
 VINA RESULT:      -8.1      2.658      9.869
  Name = 
  4 active torsions:
  status: ('A' for Active; 'I' for Inactive)
    1  A    between atoms: N_3  and  C_25
    2  A    between atoms: C_7  and  C_11
    3  A    between atoms: C_8  and  C_18
    4  A    between atoms: C_18  and  N_30
                            x       y       z     vdW  Elec       q    Type
                         _______ _______ _______ _____ _____    ______ ____

>  <TORSDO>
F 4

$$$$
=
 OpenBabel11052420243D

 34 39  0  0  1  0  0  0  0  0999 V2000
  190.9400  174.5440  144.1270 C   0  0  0  0  0  0  0  0  0  0  0  0
  193.5360  171.9080  144.9920 N   0  0  0  0  0  0  0  0  0  0  0  0
  191.5310  171.7380  143.8180 N   0  0  0  0  0  2  0  0  0  0  0  0
  189.4110  176.2820  143.2370 C   0  0  0  0  0  0  0  0  0  0  0  0
  190.7070  175.8410  143.8310 C   0  0  0  0  0  3  0  0  0  0  0  0
  188.8470  173.9650  142.9580 C   0  0  2  0  0  3  0  0  0  0  0  0
  188.7080  173.0700  142.0350 N   0  0  0  0  0  0  0  0  0  0  0  0
  188.5290  175.3830  142.7680 C   0  0  0  0  0  3  0  0  0  0  0  0
  190.2770  172.3010  143.4470 C   0  0  1  0  0  3  0  0  0  0  0  0
  189.8070  173.5680  144.0170 C   0  0  1  0  0  3  0  0  0  0  0  0
  189.6130  172.0080  142.3390 C   0  0  0  0  0  3  0  0  0  0  0  0
  194.6520  172.4290  145.7620 C   0  0  0  0  0  2  0  0  0  0  0  0
  195.2530  173.6310  145.0760 C   0  0  1  0  0  3  0  0  0  0  0  0
  194.5010  174.8100  145.6390 C   0  0  0  0  0  2  0  0  0  0  0  0
  192.4900  172.5360  144.5350 C   0  0  0  0  0  0  0  0  0  0  0  0
  193.1370  174.9680  145.0500 C   0  0  0  0  0  3  0  0  0  0  0  0
  192.2540  174.0390  144.6330 C   0  0  0  0  0  0  0  0  0  0  0  0
  196.6780  173.7390  145.3910 N   0  0  0  0  0  0  0  0  0  0  0  0
  197.4860  174.5450  144.6220 O   0  0  0  0  0  0  0  0  0  0  0  0
  197.0880  173.3870  146.5170 O   0  0  0  0  0  0  0  0  0  0  0  0
  189.1270  177.7380  143.0830 C   0  0  0  0  0  2  0  0  0  0  0  0
  185.6380  178.3180  144.2320 C   0  0  0  0  0  3  0  0  0  0  0  0
  187.0200  177.9440  141.7610 C   0  0  0  0  0  3  0  0  0  0  0  0
  182.8670  178.4620  141.6240 C   0  0  0  0  0  0  0  0  0  0  0  0
  183.6080  178.4700  142.9030 C   0  0  0  0  0  3  0  0  0  0  0  0
  184.9290  178.3060  142.9440 C   0  0  0  0  0  0  0  0  0  0  0  0
  185.0060  178.0800  140.3620 C   0  0  0  0  0  2  0  0  0  0  0  0
  185.6970  178.1070  141.6950 C   0  0  0  0  0  0  0  0  0  0  0  0
  183.5160  178.2830  140.4630 C   0  0  0  0  0  3  0  0  0  0  0  0
  187.6930  177.9650  143.0300 N   0  0  0  0  0  0  0  0  0  0  0  0
  186.9620  178.1530  144.2540 C   0  0  0  0  0  3  0  0  0  0  0  0
  181.4050  178.6520  141.6310 C   0  0  0  0  0  0  0  0  0  0  0  0
  180.6890  178.1390  140.7290 O   0  0  0  0  0  0  0  0  0  0  0  0
  180.7860  179.4190  142.6590 N   0  0  0  0  0  1  0  0  0  0  0  0
  1 17  1  0  0  0  0
  2 12  1  0  0  0  0
  3 15  1  0  0  0  0
  4  5  1  0  0  0  0
  5  1  2  0  0  0  0
  6  8  1  6  0  0  0
  6 10  1  0  0  0  0
  7 11  2  0  0  0  0
  7  6  1  0  0  0  0
  8  4  2  0  0  0  0
  9 11  1  6  0  0  0
  9  3  1  0  0  0  0
  9 10  1  0  0  0  0
 10  1  1  6  0  0  0
 13 18  1  1  0  0  0
 13 14  1  0  0  0  0
 13 12  1  0  0  0  0
 15 17  1  0  0  0  0
 15  2  2  0  0  0  0
 16 14  1  0  0  0  0
 17 16  2  0  0  0  0
 18 20  2  0  0  0  0
 19 18  2  0  0  0  0
 21  4  1  0  0  0  0
 22 31  2  0  0  0  0
 23 30  1  0  0  0  0
 24 32  1  0  0  0  0
 24 25  1  0  0  0  0
 25 26  2  0  0  0  0
 26 22  1  0  0  0  0
 27 29  1  0  0  0  0
 27 28  1  0  0  0  0
 28 23  2  0  0  0  0
 28 26  1  0  0  0  0
 29 24  2  0  0  0  0
 30 21  1  0  0  0  0
 30 31  1  0  0  0  0
 32 34  1  0  0  0  0
 33 32  2  0  0  0  0
M  END
>  <MODEL>
3

>  <REMARK>
 VINA RESULT:      -7.9      3.368      5.024
  Name = 
  4 active torsions:
  status: ('A' for Active; 'I' for Inactive)
    1  A    between atoms: N_3  and  C_25
    2  A    between atoms: C_7  and  C_11
    3  A    between atoms: C_8  and  C_18
    4  A    between atoms: C_18  and  N_30
                            x       y       z     vdW  Elec       q    Type
                         _______ _______ _______ _____ _____    ______ ____

>  <TORSDO>
F 4

$$$$
=
 OpenBabel11052420243D

 34 39  0  0  1  0  0  0  0  0999 V2000
  191.5900  175.4400  143.9570 C   0  0  0  0  0  0  0  0  0  0  0  0
  192.5300  173.5330  140.8090 N   0  0  0  0  0  0  0  0  0  0  0  0
  193.7950  174.0850  142.6870 N   0  0  0  0  0  2  0  0  0  0  0  0
  190.9290  176.3560  146.1660 C   0  0  0  0  0  0  0  0  0  0  0  0
  190.6140  175.7430  144.8420 C   0  0  0  0  0  3  0  0  0  0  0  0
  193.2510  175.9490  145.7070 C   0  0  2  0  0  3  0  0  0  0  0  0
  194.2290  175.1890  146.0800 N   0  0  0  0  0  0  0  0  0  0  0  0
  192.1960  176.4140  146.6120 C   0  0  0  0  0  3  0  0  0  0  0  0
  193.9510  174.8510  143.8760 C   0  0  1  0  0  3  0  0  0  0  0  0
  192.9890  175.8930  144.2490 C   0  0  1  0  0  3  0  0  0  0  0  0
  194.6800  174.4880  144.9210 C   0  0  0  0  0  3  0  0  0  0  0  0
  191.4380  173.4150  139.8590 C   0  0  0  0  0  2  0  0  0  0  0  0
  190.2090  172.8540  140.5300 C   0  0  1  0  0  3  0  0  0  0  0  0
  189.4570  174.0640  141.0260 C   0  0  0  0  0  2  0  0  0  0  0  0
  192.5440  174.1140  141.9760 C   0  0  0  0  0  0  0  0  0  0  0  0
  190.0500  174.6530  142.2650 C   0  0  0  0  0  3  0  0  0  0  0  0
  191.3350  174.7390  142.6620 C   0  0  0  0  0  0  0  0  0  0  0  0
  189.3960  172.1100  139.5680 N   0  0  0  0  0  0  0  0  0  0  0  0
  188.1900  172.6250  139.1540 O   0  0  0  0  0  0  0  0  0  0  0  0
  189.9240  171.2070  138.8850 O   0  0  0  0  0  0  0  0  0  0  0  0
  189.8200  176.8320  147.0410 C   0  0  0  0  0  2  0  0  0  0  0  0
  186.2250  176.8960  146.0910 C   0  0  0  0  0  3  0  0  0  0  0  0
  188.7410  177.5400  144.9030 C   0  0  0  0  0  3  0  0  0  0  0  0
  185.2920  178.0550  142.5860 C   0  0  0  0  0  0  0  0  0  0  0  0
  185.2260  177.5570  143.9750 C   0  0  0  0  0  3  0  0  0  0  0  0
  186.3240  177.3940  144.7110 C   0  0  0  0  0  0  0  0  0  0  0  0
  187.7950  178.2140  142.7400 C   0  0  0  0  0  2  0  0  0  0  0  0
  187.6550  177.7110  144.1480 C   0  0  0  0  0  0  0  0  0  0  0  0
  186.4750  178.3560  142.0270 C   0  0  0  0  0  3  0  0  0  0  0  0
  188.6210  177.0570  146.2520 N   0  0  0  0  0  0  0  0  0  0  0  0
  187.3360  176.7400  146.8130 C   0  0  0  0  0  3  0  0  0  0  0  0
  184.0480  178.2220  141.8140 C   0  0  0  0  0  0  0  0  0  0  0  0
  182.9350  178.2920  142.4010 O   0  0  0  0  0  0  0  0  0  0  0  0
  184.0910  178.3040  140.3920 N   0  0  0  0  0  1  0  0  0  0  0  0
  1  5  2  0  0  0  0
  2 15  2  0  0  0  0
  3  9  1  0  0  0  0
  4  8  2  0  0  0  0
  4 21  1  0  0  0  0
  5  4  1  0  0  0  0
  6  7  1  0  0  0  0
  6  8  1  1  0  0  0
  9 10  1  0  0  0  0
  9 11  1  1  0  0  0
 10  1  1  1  0  0  0
 10  6  1  0  0  0  0
 11  7  2  0  0  0  0
 12 13  1  0  0  0  0
 12  2  1  0  0  0  0
 13 18  1  6  0  0  0
 13 14  1  0  0  0  0
 14 16  1  0  0  0  0
 15 17  1  0  0  0  0
 15  3  1  0  0  0  0
 16 17  2  0  0  0  0
 17  1  1  0  0  0  0
 19 18  2  0  0  0  0
 20 18  2  0  0  0  0
 22 31  2  0  0  0  0
 23 30  1  0  0  0  0
 24 25  1  0  0  0  0
 25 26  2  0  0  0  0
 26 22  1  0  0  0  0
 27 28  1  0  0  0  0
 28 26  1  0  0  0  0
 28 23  2  0  0  0  0
 29 24  2  0  0  0  0
 29 27  1  0  0  0  0
 30 31  1  0  0  0  0
 30 21  1  0  0  0  0
 32 33  2  0  0  0  0
 32 24  1  0  0  0  0
 34 32  1  0  0  0  0
M  END
>  <MODEL>
4

>  <REMARK>
 VINA RESULT:      -7.9      3.764      5.493
  Name = 
  4 active torsions:
  status: ('A' for Active; 'I' for Inactive)
    1  A    between atoms: N_3  and  C_25
    2  A    between atoms: C_7  and  C_11
    3  A    between atoms: C_8  and  C_18
    4  A    between atoms: C_18  and  N_30
                            x       y       z     vdW  Elec       q    Type
                         _______ _______ _______ _____ _____    ______ ____

>  <TORSDO>
F 4

$$$$
=
 OpenBabel11052420243D

 34 39  0  0  1  0  0  0  0  0999 V2000
  191.9480  172.1950  143.4060 C   0  0  0  0  0  0  0  0  0  0  0  0
  193.4650  168.8190  144.2600 N   0  0  0  0  0  0  0  0  0  0  0  0
  192.0030  169.4410  142.5560 N   0  0  0  0  0  2  0  0  0  0  0  0
  191.2250  174.4280  142.6010 C   0  0  0  0  0  0  0  0  0  0  0  0
  192.1110  173.5370  143.4060 C   0  0  0  0  0  3  0  0  0  0  0  0
  190.3160  172.4560  141.5750 C   0  0  2  0  0  3  0  0  0  0  0  0
  190.3190  171.8190  140.4500 N   0  0  0  0  0  0  0  0  0  0  0  0
  190.3910  173.9160  141.6800 C   0  0  0  0  0  3  0  0  0  0  0  0
  191.1030  170.3950  142.0010 C   0  0  1  0  0  3  0  0  0  0  0  0
  190.7440  171.6200  142.7230 C   0  0  1  0  0  3  0  0  0  0  0  0
  190.8180  170.5060  140.7120 C   0  0  0  0  0  3  0  0  0  0  0  0
  194.3300  168.8540  145.4260 C   0  0  0  0  0  2  0  0  0  0  0  0
  195.3700  169.9370  145.2820 C   0  0  1  0  0  3  0  0  0  0  0  0
  194.7360  171.1610  145.8940 C   0  0  0  0  0  2  0  0  0  0  0  0
  192.8000  169.7910  143.7010 C   0  0  0  0  0  0  0  0  0  0  0  0
  193.7270  171.8040  144.9990 C   0  0  0  0  0  3  0  0  0  0  0  0
  192.8670  171.2550  144.1180 C   0  0  0  0  0  0  0  0  0  0  0  0
  196.5870  169.5760  146.0120 N   0  0  0  0  0  0  0  0  0  0  0  0
  197.8110  169.6950  145.3940 O   0  0  0  0  0  0  0  0  0  0  0  0
  196.5540  169.4880  147.2570 O   0  0  0  0  0  0  0  0  0  0  0  0
  191.3250  175.9070  142.7600 C   0  0  0  0  0  2  0  0  0  0  0  0
  188.1780  177.8880  142.8260 C   0  0  0  0  0  3  0  0  0  0  0  0
  189.6050  176.1200  144.5560 C   0  0  0  0  0  3  0  0  0  0  0  0
  186.0340  177.7880  145.9710 C   0  0  0  0  0  0  0  0  0  0  0  0
  186.5530  178.0950  144.6220 C   0  0  0  0  0  3  0  0  0  0  0  0
  187.6880  177.5630  144.1730 C   0  0  2  0  0  3  0  0  0  0  0  0
  188.0040  176.2920  146.4110 C   0  0  0  0  0  3  0  0  0  0  0  0
  188.4690  176.6400  145.0260 C   0  0  0  0  0  0  0  0  0  0  0  0
  186.7060  176.9580  146.7850 C   0  0  0  0  0  3  0  0  0  0  0  0
  190.0620  176.4470  143.2340 N   0  0  0  0  0  0  0  0  0  0  0  0
  189.3180  177.3450  142.3930 C   0  0  0  0  0  3  0  0  0  0  0  0
  184.7700  178.3990  146.4190 C   0  0  0  0  0  0  0  0  0  0  0  0
  184.4420  178.3710  147.6360 O   0  0  0  0  0  0  0  0  0  0  0  0
  183.9040  179.0290  145.4800 N   0  0  0  0  0  1  0  0  0  0  0  0
  1 17  1  0  0  0  0
  2 12  1  0  0  0  0
  3 15  1  0  0  0  0
  4 21  1  0  0  0  0
  4  5  1  0  0  0  0
  5  1  2  0  0  0  0
  6  8  1  6  0  0  0
  6 10  1  0  0  0  0
  7 11  2  0  0  0  0
  7  6  1  0  0  0  0
  8  4  2  0  0  0  0
  9 11  1  6  0  0  0
  9  3  1  0  0  0  0
  9 10  1  0  0  0  0
 10  1  1  6  0  0  0
 13 12  1  0  0  0  0
 13 14  1  0  0  0  0
 13 18  1  1  0  0  0
 15 17  1  0  0  0  0
 15  2  2  0  0  0  0
 16 14  1  0  0  0  0
 17 16  2  0  0  0  0
 18 20  2  0  0  0  0
 19 18  2  0  0  0  0
 21 30  1  0  0  0  0
 23 28  2  0  0  0  0
 24 32  1  0  0  0  0
 24 29  1  0  0  0  0
 25 24  2  0  0  0  0
 26 22  1  1  0  0  0
 26 25  1  0  0  0  0
 26 28  1  0  0  0  0
 27 29  2  0  0  0  0
 28 27  1  0  0  0  0
 30 23  1  0  0  0  0
 31 22  2  0  0  0  0
 31 30  1  0  0  0  0
 32 33  2  0  0  0  0
 34 32  1  0  0  0  0
M  END
>  <MODEL>
5

>  <REMARK>
 VINA RESULT:      -7.9      2.088      3.467
  Name = 
  4 active torsions:
  status: ('A' for Active; 'I' for Inactive)
    1  A    between atoms: N_3  and  C_25
    2  A    between atoms: C_7  and  C_11
    3  A    between atoms: C_8  and  C_18
    4  A    between atoms: C_18  and  N_30
                            x       y       z     vdW  Elec       q    Type
                         _______ _______ _______ _____ _____    ______ ____

>  <TORSDO>
F 4

$$$$
=
 OpenBabel11052420243D

 34 39  0  0  1  0  0  0  0  0999 V2000
  187.9220  175.5470  143.2180 C   0  0  0  0  0  0  0  0  0  0  0  0
  187.9490  175.0330  139.4540 N   0  0  0  0  0  0  0  0  0  0  0  0
  187.0710  176.7630  140.7450 N   0  0  0  0  0  2  0  0  0  0  0  0
  188.1950  176.0980  145.6210 C   0  0  0  0  0  0  0  0  0  0  0  0
  188.5680  175.3460  144.3880 C   0  0  0  0  0  3  0  0  0  0  0  0
  186.7730  177.4680  144.2540 C   0  0  2  0  0  3  0  0  0  0  0  0
  186.6970  178.6660  143.7730 N   0  0  0  0  0  0  0  0  0  0  0  0
  187.3670  177.1550  145.5570 C   0  0  0  0  0  3  0  0  0  0  0  0
  186.6750  177.2610  142.0190 C   0  0  1  0  0  3  0  0  0  0  0  0
  186.6980  176.4130  143.2150 C   0  0  1  0  0  3  0  0  0  0  0  0
  186.6330  178.5430  142.3510 C   0  0  0  0  0  3  0  0  0  0  0  0
  188.5940  173.7980  139.0460 C   0  0  0  0  0  2  0  0  0  0  0  0
  189.9700  173.6920  139.6540 C   0  0  1  0  0  3  0  0  0  0  0  0
  189.7560  172.9780  140.9660 C   0  0  0  0  0  2  0  0  0  0  0  0
  187.7740  175.5100  140.6540 C   0  0  0  0  0  0  0  0  0  0  0  0
  189.1900  173.8650  142.0270 C   0  0  0  0  0  3  0  0  0  0  0  0
  188.3200  174.8910  141.9350 C   0  0  0  0  0  0  0  0  0  0  0  0
  190.8530  172.9100  138.7880 N   0  0  0  0  0  0  0  0  0  0  0  0
  190.9600  173.2340  137.4550 O   0  0  0  0  0  0  0  0  0  0  0  0
  191.7370  172.1910  139.2990 O   0  0  0  0  0  0  0  0  0  0  0  0
  188.8120  175.7270  146.9270 C   0  0  0  0  0  2  0  0  0  0  0  0
  192.4180  176.5830  147.2440 C   0  0  0  0  0  3  0  0  0  0  0  0
  190.8210  174.5680  146.0010 C   0  0  0  0  0  3  0  0  0  0  0  0
  194.9710  174.3690  145.4900 C   0  0  0  0  0  0  0  0  0  0  0  0
  194.3390  175.4410  146.2850 C   0  0  0  0  0  3  0  0  0  0  0  0
  193.0180  175.5030  146.4470 C   0  0  0  0  0  0  0  0  0  0  0  0
  192.7170  173.3740  144.9980 C   0  0  0  0  0  2  0  0  0  0  0  0
  192.1410  174.4860  145.8260 C   0  0  0  0  0  0  0  0  0  0  0  0
  194.2210  173.4230  144.9040 C   0  0  0  0  0  3  0  0  0  0  0  0
  190.2550  175.6290  146.7880 N   0  0  0  0  0  0  0  0  0  0  0  0
  191.0930  176.6280  147.3950 C   0  0  0  0  0  3  0  0  0  0  0  0
  196.4380  174.3420  145.3440 C   0  0  0  0  0  0  0  0  0  0  0  0
  197.1580  173.7860  146.2160 O   0  0  0  0  0  0  0  0  0  0  0  0
  197.0580  174.9470  144.2120 N   0  0  0  0  0  1  0  0  0  0  0  0
  1  5  2  0  0  0  0
  2 15  2  0  0  0  0
  3  9  1  0  0  0  0
  4 21  1  0  0  0  0
  5  4  1  0  0  0  0
  6  8  1  6  0  0  0
  7  6  1  0  0  0  0
  8  4  2  0  0  0  0
  9 11  1  1  0  0  0
  9 10  1  0  0  0  0
 10  1  1  6  0  0  0
 10  6  1  0  0  0  0
 11  7  2  0  0  0  0
 12  2  1  0  0  0  0
 12 13  1  0  0  0  0
 13 18  1  6  0  0  0
 13 14  1  0  0  0  0
 14 16  1  0  0  0  0
 15  3  1  0  0  0  0
 15 17  1  0  0  0  0
 17 16  2  0  0  0  0
 17  1  1  0  0  0  0
 18 20  2  0  0  0  0
 19 18  2  0  0  0  0
 22 31  2  0  0  0  0
 23 30  1  0  0  0  0
 24 25  1  0  0  0  0
 25 26  2  0  0  0  0
 26 22  1  0  0  0  0
 27 28  1  0  0  0  0
 28 23  2  0  0  0  0
 28 26  1  0  0  0  0
 29 27  1  0  0  0  0
 29 24  2  0  0  0  0
 30 21  1  0  0  0  0
 30 31  1  0  0  0  0
 32 24  1  0  0  0  0
 32 33  2  0  0  0  0
 34 32  1  0  0  0  0
M  END
>  <MODEL>
6

>  <REMARK>
 VINA RESULT:      -7.8      3.566      8.423
  Name = 
  4 active torsions:
  status: ('A' for Active; 'I' for Inactive)
    1  A    between atoms: N_3  and  C_25
    2  A    between atoms: C_7  and  C_11
    3  A    between atoms: C_8  and  C_18
    4  A    between atoms: C_18  and  N_30
                            x       y       z     vdW  Elec       q    Type
                         _______ _______ _______ _____ _____    ______ ____

>  <TORSDO>
F 4

$$$$
=
 OpenBabel11052420243D

 34 39  0  0  1  0  0  0  0  0999 V2000
  193.0010  175.1270  142.9540 C   0  0  0  0  0  0  0  0  0  0  0  0
  193.2440  174.2780  139.2600 N   0  0  0  0  0  0  0  0  0  0  0  0
  194.8050  175.2240  140.7070 N   0  0  0  0  0  2  0  0  0  0  0  0
  193.0130  175.3630  145.4240 C   0  0  0  0  0  0  0  0  0  0  0  0
  192.4680  174.8020  144.1530 C   0  0  0  0  0  3  0  0  0  0  0  0
  194.8430  176.2530  144.1480 C   0  0  2  0  0  3  0  0  0  0  0  0
  196.1080  176.0730  143.9490 N   0  0  0  0  0  0  0  0  0  0  0  0
  194.1850  176.0220  145.4370 C   0  0  0  0  0  3  0  0  0  0  0  0
  195.1010  175.8470  141.9520 C   0  0  1  0  0  3  0  0  0  0  0  0
  194.0410  176.2060  142.9010 C   0  0  1  0  0  3  0  0  0  0  0  0
  196.2800  175.8150  142.5540 C   0  0  0  0  0  3  0  0  0  0  0  0
  192.0240  173.7050  138.7190 C   0  0  0  0  0  2  0  0  0  0  0  0
  191.5730  172.5320  139.5540 C   0  0  1  0  0  3  0  0  0  0  0  0
  190.6600  173.1310  140.5950 C   0  0  0  0  0  2  0  0  0  0  0  0
  193.4970  174.6720  140.4760 C   0  0  0  0  0  0  0  0  0  0  0  0
  191.4010  173.8220  141.6930 C   0  0  0  0  0  3  0  0  0  0  0  0
  192.5540  174.5190  141.6640 C   0  0  0  0  0  0  0  0  0  0  0  0
  190.8420  171.5690  138.7300 N   0  0  0  0  0  0  0  0  0  0  0  0
  191.5190  170.5260  138.1400 O   0  0  0  0  0  0  0  0  0  0  0  0
  189.6000  171.4920  138.8300 O   0  0  0  0  0  0  0  0  0  0  0  0
  192.2950  175.1180  146.7070 C   0  0  0  0  0  2  0  0  0  0  0  0
  188.6230  175.1980  147.2910 C   0  0  0  0  0  3  0  0  0  0  0  0
  190.5250  176.4820  145.5930 C   0  0  0  0  0  3  0  0  0  0  0  0
  186.4920  177.5140  145.1480 C   0  0  0  0  0  0  0  0  0  0  0  0
  186.9320  176.5190  146.1480 C   0  0  0  0  0  3  0  0  0  0  0  0
  188.2160  176.1920  146.2880 C   0  0  0  0  0  0  0  0  0  0  0  0
  188.8670  177.8390  144.3930 C   0  0  0  0  0  2  0  0  0  0  0  0
  189.2460  176.8250  145.4350 C   0  0  0  0  0  0  0  0  0  0  0  0
  187.3860  178.1160  144.3480 C   0  0  0  0  0  3  0  0  0  0  0  0
  190.9020  175.5120  146.5840 N   0  0  0  0  0  0  0  0  0  0  0  0
  189.9130  174.8840  147.4180 C   0  0  0  0  0  3  0  0  0  0  0  0
  185.0600  177.8440  145.0340 C   0  0  0  0  0  0  0  0  0  0  0  0
  184.5100  177.9250  143.9030 O   0  0  0  0  0  0  0  0  0  0  0  0
  184.2810  178.0750  146.2040 N   0  0  0  0  0  1  0  0  0  0  0  0
  1  5  2  0  0  0  0
  2 15  2  0  0  0  0
  3  9  1  0  0  0  0
  4  8  2  0  0  0  0
  4 21  1  0  0  0  0
  5  4  1  0  0  0  0
  6  8  1  1  0  0  0
  7  6  1  0  0  0  0
  9 11  1  1  0  0  0
  9 10  1  0  0  0  0
 10  1  1  1  0  0  0
 10  6  1  0  0  0  0
 11  7  2  0  0  0  0
 12  2  1  0  0  0  0
 12 13  1  0  0  0  0
 13 18  1  6  0  0  0
 13 14  1  0  0  0  0
 14 16  1  0  0  0  0
 15  3  1  0  0  0  0
 15 17  1  0  0  0  0
 17 16  2  0  0  0  0
 17  1  1  0  0  0  0
 18 20  2  0  0  0  0
 19 18  2  0  0  0  0
 22 31  2  0  0  0  0
 23 30  1  0  0  0  0
 24 25  1  0  0  0  0
 25 26  2  0  0  0  0
 26 22  1  0  0  0  0
 27 28  1  0  0  0  0
 28 23  2  0  0  0  0
 28 26  1  0  0  0  0
 29 27  1  0  0  0  0
 29 24  2  0  0  0  0
 30 21  1  0  0  0  0
 30 31  1  0  0  0  0
 32 24  1  0  0  0  0
 32 34  1  0  0  0  0
 33 32  2  0  0  0  0
M  END
>  <MODEL>
7

>  <REMARK>
 VINA RESULT:      -7.7      3.919      5.131
  Name = 
  4 active torsions:
  status: ('A' for Active; 'I' for Inactive)
    1  A    between atoms: N_3  and  C_25
    2  A    between atoms: C_7  and  C_11
    3  A    between atoms: C_8  and  C_18
    4  A    between atoms: C_18  and  N_30
                            x       y       z     vdW  Elec       q    Type
                         _______ _______ _______ _____ _____    ______ ____

>  <TORSDO>
F 4

$$$$
=
 OpenBabel11052420243D

 34 39  0  0  1  0  0  0  0  0999 V2000
  193.2670  174.4260  143.8290 C   0  0  0  0  0  0  0  0  0  0  0  0
  193.8560  172.2060  140.8040 N   0  0  0  0  0  0  0  0  0  0  0  0
  195.3520  173.0800  142.3620 N   0  0  0  0  0  2  0  0  0  0  0  0
  192.8920  175.5670  146.0000 C   0  0  0  0  0  0  0  0  0  0  0  0
  192.4240  174.7700  144.8280 C   0  0  0  0  0  3  0  0  0  0  0  0
  195.1360  175.2700  145.2000 C   0  0  2  0  0  3  0  0  0  0  0  0
  196.2260  174.6350  145.4830 N   0  0  0  0  0  0  0  0  0  0  0  0
  194.2030  175.7710  146.2130 C   0  0  0  0  0  3  0  0  0  0  0  0
  195.6280  174.0010  143.4120 C   0  0  1  0  0  3  0  0  0  0  0  0
  194.6480  175.0100  143.8240 C   0  0  1  0  0  3  0  0  0  0  0  0
  196.5470  173.8260  144.3500 C   0  0  0  0  0  3  0  0  0  0  0  0
  192.6410  171.8920  140.0740 C   0  0  0  0  0  2  0  0  0  0  0  0
  191.5930  171.3350  141.0060 C   0  0  1  0  0  3  0  0  0  0  0  0
  190.8230  172.5420  141.4820 C   0  0  0  0  0  2  0  0  0  0  0  0
  194.0060  172.9300  141.8770 C   0  0  0  0  0  0  0  0  0  0  0  0
  191.5520  173.3230  142.5270 C   0  0  0  0  0  3  0  0  0  0  0  0
  192.8710  173.5500  142.6850 C   0  0  0  0  0  0  0  0  0  0  0  0
  190.7060  170.4180  140.2880 N   0  0  0  0  0  0  0  0  0  0  0  0
  190.0190  170.8630  139.1820 O   0  0  0  0  0  0  0  0  0  0  0  0
  190.8230  169.1880  140.4610 O   0  0  0  0  0  0  0  0  0  0  0  0
  191.9000  176.0710  146.9930 C   0  0  0  0  0  2  0  0  0  0  0  0
  189.7490  177.7950  144.4960 C   0  0  0  0  0  3  0  0  0  0  0  0
  189.4130  176.2600  146.8800 C   0  0  0  0  0  3  0  0  0  0  0  0
  185.9750  177.7240  144.9920 C   0  0  0  0  0  0  0  0  0  0  0  0
  187.3260  177.9850  144.4540 C   0  0  0  0  0  3  0  0  0  0  0  0
  188.4180  177.5180  145.0550 C   0  0  2  0  0  3  0  0  0  0  0  0
  186.9620  176.4210  146.9000 C   0  0  0  0  0  3  0  0  0  0  0  0
  188.3050  176.7170  146.2940 C   0  0  0  0  0  0  0  0  0  0  0  0
  185.8170  177.0040  146.1140 C   0  0  0  0  0  3  0  0  0  0  0  0
  190.7030  176.5370  146.3120 N   0  0  0  0  0  0  0  0  0  0  0  0
  190.8320  177.3180  145.1120 C   0  0  0  0  0  3  0  0  0  0  0  0
  184.7960  178.2600  144.2870 C   0  0  0  0  0  0  0  0  0  0  0  0
  183.9920  179.0300  144.8780 O   0  0  0  0  0  0  0  0  0  0  0  0
  184.5530  177.9110  142.9270 N   0  0  0  0  0  1  0  0  0  0  0  0
  1  5  2  0  0  0  0
  2 15  2  0  0  0  0
  3  9  1  0  0  0  0
  4  8  2  0  0  0  0
  4 21  1  0  0  0  0
  5  4  1  0  0  0  0
  6  7  1  0  0  0  0
  6  8  1  1  0  0  0
  9 10  1  0  0  0  0
  9 11  1  1  0  0  0
 10  1  1  1  0  0  0
 10  6  1  0  0  0  0
 11  7  2  0  0  0  0
 12  2  1  0  0  0  0
 12 13  1  0  0  0  0
 13 18  1  6  0  0  0
 13 14  1  0  0  0  0
 14 16  1  0  0  0  0
 15  3  1  0  0  0  0
 15 17  1  0  0  0  0
 16 17  2  0  0  0  0
 17  1  1  0  0  0  0
 18 20  2  0  0  0  0
 19 18  2  0  0  0  0
 22 26  1  0  0  0  0
 22 31  2  0  0  0  0
 24 29  1  0  0  0  0
 25 24  2  0  0  0  0
 26 25  1  1  0  0  0
 26 28  1  0  0  0  0
 28 23  2  0  0  0  0
 28 27  1  0  0  0  0
 29 27  2  0  0  0  0
 30 23  1  0  0  0  0
 30 21  1  0  0  0  0
 31 30  1  0  0  0  0
 32 33  2  0  0  0  0
 32 24  1  0  0  0  0
 34 32  1  0  0  0  0
M  END
>  <MODEL>
8

>  <REMARK>
 VINA RESULT:      -7.7      3.259      4.372
  Name = 
  4 active torsions:
  status: ('A' for Active; 'I' for Inactive)
    1  A    between atoms: N_3  and  C_25
    2  A    between atoms: C_7  and  C_11
    3  A    between atoms: C_8  and  C_18
    4  A    between atoms: C_18  and  N_30
                            x       y       z     vdW  Elec       q    Type
                         _______ _______ _______ _____ _____    ______ ____

>  <TORSDO>
F 4

$$$$
=
 OpenBabel11052420243D

 34 39  0  0  1  0  0  0  0  0999 V2000
  193.1430  173.5250  142.9600 C   0  0  0  0  0  0  0  0  0  0  0  0
  192.2630  170.6380  140.6540 N   0  0  0  0  0  0  0  0  0  0  0  0
  193.4290  170.6700  142.6720 N   0  0  0  0  0  2  0  0  0  0  0  0
  193.4240  175.3090  144.6600 C   0  0  0  0  0  0  0  0  0  0  0  0
  192.7750  174.7300  143.4480 C   0  0  0  0  0  3  0  0  0  0  0  0
  194.5170  173.1960  144.9820 C   0  0  2  0  0  3  0  0  0  0  0  0
  194.4970  172.1650  145.7620 N   0  0  0  0  0  0  0  0  0  0  0  0
  194.2280  174.5590  145.4340 C   0  0  0  0  0  3  0  0  0  0  0  0
  194.1070  171.4090  143.6820 C   0  0  1  0  0  3  0  0  0  0  0  0
  194.3440  172.8500  143.5500 C   0  0  1  0  0  3  0  0  0  0  0  0
  194.2380  171.0240  144.9430 C   0  0  0  0  0  3  0  0  0  0  0  0
  191.5290  171.0480  139.4710 C   0  0  0  0  0  2  0  0  0  0  0  0
  190.3240  171.8710  139.8540 C   0  0  1  0  0  3  0  0  0  0  0  0
  190.8200  173.2950  139.8650 C   0  0  0  0  0  2  0  0  0  0  0  0
  192.7090  171.3670  141.6380 C   0  0  0  0  0  0  0  0  0  0  0  0
  191.6200  173.6250  141.0830 C   0  0  0  0  0  3  0  0  0  0  0  0
  192.4590  172.8600  141.8090 C   0  0  0  0  0  0  0  0  0  0  0  0
  189.2600  171.7110  138.8620 N   0  0  0  0  0  0  0  0  0  0  0  0
  189.2980  170.6490  137.9880 O   0  0  0  0  0  0  0  0  0  0  0  0
  188.1780  172.3150  139.0170 O   0  0  0  0  0  0  0  0  0  0  0  0
  193.1130  176.7100  145.0670 C   0  0  0  0  0  2  0  0  0  0  0  0
  189.9080  178.0690  143.7570 C   0  0  0  0  0  3  0  0  0  0  0  0
  190.7850  176.4300  145.9250 C   0  0  0  0  0  3  0  0  0  0  0  0
  186.6940  177.2750  145.6380 C   0  0  0  0  0  0  0  0  0  0  0  0
  187.6650  177.8010  144.6570 C   0  0  0  0  0  3  0  0  0  0  0  0
  188.9660  177.5310  144.7490 C   0  0  2  0  0  3  0  0  0  0  0  0
  188.5460  176.1270  146.8890 C   0  0  0  0  0  3  0  0  0  0  0  0
  189.4780  176.6880  145.8520 C   0  0  0  0  0  0  0  0  0  0  0  0
  187.1060  176.5070  146.6590 C   0  0  0  0  0  3  0  0  0  0  0  0
  191.6870  176.9620  144.9410 N   0  0  0  0  0  0  0  0  0  0  0  0
  191.2080  177.7870  143.8660 C   0  0  0  0  0  3  0  0  0  0  0  0
  185.2640  177.6000  145.4900 C   0  0  0  0  0  0  0  0  0  0  0  0
  184.4860  177.5300  146.4790 O   0  0  0  0  0  0  0  0  0  0  0  0
  184.7450  177.9960  144.2240 N   0  0  0  0  0  1  0  0  0  0  0  0
  1  5  2  0  0  0  0
  2 15  2  0  0  0  0
  3  9  1  0  0  0  0
  4 21  1  0  0  0  0
  4  8  2  0  0  0  0
  5  4  1  0  0  0  0
  6  8  1  1  0  0  0
  6  7  1  0  0  0  0
  9 11  1  1  0  0  0
 10  1  1  1  0  0  0
 10  9  1  0  0  0  0
 10  6  1  0  0  0  0
 11  7  2  0  0  0  0
 12 13  1  0  0  0  0
 12  2  1  0  0  0  0
 13 18  1  6  0  0  0
 13 14  1  0  0  0  0
 14 16  1  0  0  0  0
 15 17  1  0  0  0  0
 15  3  1  0  0  0  0
 16 17  2  0  0  0  0
 17  1  1  0  0  0  0
 18 20  2  0  0  0  0
 19 18  2  0  0  0  0
 22 31  2  0  0  0  0
 24 29  1  0  0  0  0
 25 26  1  0  0  0  0
 25 24  2  0  0  0  0
 26 22  1  1  0  0  0
 26 28  1  0  0  0  0
 28 23  2  0  0  0  0
 28 27  1  0  0  0  0
 29 27  2  0  0  0  0
 30 21  1  0  0  0  0
 30 23  1  0  0  0  0
 31 30  1  0  0  0  0
 32 24  1  0  0  0  0
 32 33  2  0  0  0  0
 34 32  1  0  0  0  0
M  END
>  <MODEL>
9

>  <REMARK>
 VINA RESULT:      -7.6      3.645      5.220
  Name = 
  4 active torsions:
  status: ('A' for Active; 'I' for Inactive)
    1  A    between atoms: N_3  and  C_25
    2  A    between atoms: C_7  and  C_11
    3  A    between atoms: C_8  and  C_18
    4  A    between atoms: C_18  and  N_30
                            x       y       z     vdW  Elec       q    Type
                         _______ _______ _______ _____ _____    ______ ____

>  <TORSDO>
F 4

$$$$
