=
 OpenBabel11052419223D

 32 34  0  0  1  0  0  0  0  0999 V2000
  190.2470  173.9270  145.4360 C   0  0  0  0  0  2  0  0  0  0  0  0
  191.5930  174.6400  145.3050 C   0  0  2  0  0  3  0  0  0  0  0  0
  192.5900  173.9050  144.4020 C   0  0  2  0  0  3  0  0  0  0  0  0
  193.4670  172.9170  145.2030 C   0  0  0  0  0  2  0  0  0  0  0  0
  196.2610  176.1300  142.7590 C   0  0  0  0  0  2  0  0  0  0  0  0
  193.3530  174.8480  143.4480 C   0  0  0  0  0  2  0  0  0  0  0  0
  196.8870  174.5660  144.6000 C   0  0  0  0  0  2  0  0  0  0  0  0
  195.5140  174.0050  144.3560 C   0  0  0  0  0  0  0  0  0  0  0  0
  194.8850  173.3950  145.3670 C   0  0  0  0  0  3  0  0  0  0  0  0
  194.7240  174.2840  143.0860 C   0  0  2  0  0  3  0  0  0  0  0  0
  197.4070  175.4040  143.4380 C   0  0  0  0  0  2  0  0  0  0  0  0
  195.4060  175.1420  142.1080 N   0  0  0  0  0  2  0  0  0  0  0  0
  192.1510  174.8790  146.5650 O   0  0  0  0  0  0  0  0  0  0  0  0
  192.1960  176.2690  146.6880 C   0  0  1  0  0  3  0  0  0  0  0  0
  191.2340  176.7070  147.7790 C   0  0  0  0  0  1  0  0  0  0  0  0
  194.4440  177.0510  146.0780 C   0  0  0  0  0  2  0  0  0  0  0  0
  193.5870  176.6950  147.0300 C   0  0  0  0  0  3  0  0  0  0  0  0
  189.1940  174.8560  145.5040 O   0  0  0  0  0  0  0  0  0  0  0  0
  189.1760  175.6110  144.3120 C   0  0  1  0  0  3  0  0  0  0  0  0
  188.6140  174.8910  143.2480 O   0  0  0  0  0  1  0  0  0  0  0  0
  188.5490  176.9740  144.4840 C   0  0  0  0  0  0  0  0  0  0  0  0
  189.1870  177.8820  144.9940 O   0  0  0  0  0  0  0  0  0  0  0  0
  186.5870  178.5120  144.5700 C   0  0  2  0  0  3  0  0  0  0  0  0
  187.1570  177.2390  143.9680 C   0  0  2  0  0  3  0  0  0  0  0  0
  186.0250  177.1760  145.0070 C   0  0  1  0  0  3  0  0  0  0  0  0
  184.3240  179.0200  144.0290 O   0  0  0  0  0  1  0  0  0  0  0  0
  185.7750  178.4930  142.2270 C   0  0  0  0  0  1  0  0  0  0  0  0
  185.6360  179.1600  143.5800 C   0  0  2  0  0  3  0  0  0  0  0  0
  186.4580  176.9050  146.4420 C   0  0  0  0  0  2  0  0  0  0  0  0
  185.9870  178.0090  147.3230 C   0  0  0  0  0  0  0  0  0  0  0  0
  184.6370  178.3370  147.3650 O   0  0  0  0  0  0  0  0  0  0  0  0
  186.8060  178.6260  148.0530 O   0  0  0  0  0  1  0  0  0  0  0  0
  1 18  1  0  0  0  0
  2  1  1  1  0  0  0
  2 13  1  0  0  0  0
  3  4  1  0  0  0  0
  3  2  1  1  0  0  0
  4  9  1  0  0  0  0
  5 11  1  0  0  0  0
  6  3  1  0  0  0  0
  8  7  1  0  0  0  0
  8  9  2  0  0  0  0
 10  6  1  1  0  0  0
 10  8  1  0  0  0  0
 11  7  1  0  0  0  0
 12  5  1  0  0  0  0
 12 10  1  0  0  0  0
 13 14  1  0  0  0  0
 14 17  1  0  0  0  0
 14 15  1  1  0  0  0
 16 17  2  0  0  0  0
 19 20  1  6  0  0  0
 19 21  1  0  0  0  0
 19 18  1  0  0  0  0
 21 22  2  0  0  0  0
 23 28  1  6  0  0  0
 23 25  1  0  0  0  0
 24 21  1  1  0  0  0
 24 23  1  0  0  0  0
 24 25  1  0  0  0  0
 25 29  1  1  0  0  0
 28 27  1  6  0  0  0
 28 26  1  0  0  0  0
 29 30  1  0  0  0  0
 30 31  2  0  0  0  0
 30 32  1  0  0  0  0
M  END
>  <MODEL>
1

>  <REMARK>
 VINA RESULT:      -6.3      0.000      0.000
  Name = 
  12 active torsions:
  status: ('A' for Active; 'I' for Inactive)
    1  A    between atoms: C_1  and  C_5
    2  A    between atoms: C_1  and  O_30
    3  A    between atoms: C_2  and  C_5
    4  A    between atoms: C_3  and  C_8
    5  A    between atoms: C_3  and  C_20
    6  A    between atoms: C_4  and  C_24
    7  A    between atoms: C_4  and  O_30
    8  A    between atoms: C_5  and  O_14
    9  A    between atoms: C_13  and  O_14
   10  A    between atoms: C_13  and  C_29
   11  A    between atoms: C_15  and  C_26
   12  A    between atoms: C_16  and  C_24
                            x       y       z     vdW  Elec       q    Type
                         _______ _______ _______ _____ _____    ______ ____

>  <TORSDO>
F 12

$$$$
=
 OpenBabel11052419223D

 32 34  0  0  1  0  0  0  0  0999 V2000
  191.3830  174.4960  145.6180 C   0  0  0  0  0  2  0  0  0  0  0  0
  192.2780  175.5000  144.8920 C   0  0  2  0  0  3  0  0  0  0  0  0
  192.0700  175.5190  143.3740 C   0  0  2  0  0  3  0  0  0  0  0  0
  191.0680  176.6130  142.9460 C   0  0  0  0  0  2  0  0  0  0  0  0
  189.6030  172.2030  141.3620 C   0  0  0  0  0  2  0  0  0  0  0  0
  191.8180  174.1170  142.7800 C   0  0  0  0  0  2  0  0  0  0  0  0
  188.3270  174.3440  141.4880 C   0  0  0  0  0  2  0  0  0  0  0  0
  189.6780  174.9290  141.7950 C   0  0  0  0  0  0  0  0  0  0  0  0
  189.7370  176.0520  142.5190 C   0  0  0  0  0  3  0  0  0  0  0  0
  190.9790  174.1930  141.5070 C   0  0  2  0  0  3  0  0  0  0  0  0
  188.4040  172.9690  140.8340 C   0  0  0  0  0  2  0  0  0  0  0  0
  190.8180  172.8660  140.9000 N   0  0  0  0  0  2  0  0  0  0  0  0
  193.6240  175.2780  145.2030 O   0  0  0  0  0  0  0  0  0  0  0  0
  194.2620  176.4940  144.9570 C   0  0  1  0  0  3  0  0  0  0  0  0
  194.4800  177.2210  146.2730 C   0  0  0  0  0  1  0  0  0  0  0  0
  195.9830  175.0050  144.0310 C   0  0  0  0  0  2  0  0  0  0  0  0
  195.5740  176.2440  144.2870 C   0  0  0  0  0  3  0  0  0  0  0  0
  190.8010  175.0790  146.7580 O   0  0  0  0  0  0  0  0  0  0  0  0
  189.3990  175.0760  146.6050 C   0  0  1  0  0  3  0  0  0  0  0  0
  188.7490  174.6210  147.7600 O   0  0  0  0  0  1  0  0  0  0  0  0
  188.8540  176.3980  146.1180 C   0  0  0  0  0  0  0  0  0  0  0  0
  189.3810  177.4440  146.4660 O   0  0  0  0  0  0  0  0  0  0  0  0
  187.1630  177.8450  144.9900 C   0  0  2  0  0  3  0  0  0  0  0  0
  187.6990  176.4320  145.1490 C   0  0  2  0  0  3  0  0  0  0  0  0
  186.3320  176.8220  145.7370 C   0  0  1  0  0  3  0  0  0  0  0  0
  185.6470  179.0330  143.5910 O   0  0  0  0  0  1  0  0  0  0  0  0
  185.9710  176.7290  143.1250 C   0  0  0  0  0  1  0  0  0  0  0  0
  186.6080  178.0230  143.5900 C   0  0  2  0  0  3  0  0  0  0  0  0
  186.3250  177.1790  147.2170 C   0  0  0  0  0  2  0  0  0  0  0  0
  185.5300  178.4190  147.4290 C   0  0  0  0  0  0  0  0  0  0  0  0
  186.1500  179.5680  147.9030 O   0  0  0  0  0  1  0  0  0  0  0  0
  184.3030  178.4360  147.1520 O   0  0  0  0  0  0  0  0  0  0  0  0
  1 18  1  0  0  0  0
  2 13  1  0  0  0  0
  2  1  1  1  0  0  0
  3  2  1  1  0  0  0
  4  3  1  0  0  0  0
  6  3  1  0  0  0  0
  7  8  1  0  0  0  0
  8  9  2  0  0  0  0
  9  4  1  0  0  0  0
 10  8  1  0  0  0  0
 10  6  1  1  0  0  0
 11  5  1  0  0  0  0
 11  7  1  0  0  0  0
 12  5  1  0  0  0  0
 12 10  1  0  0  0  0
 14 13  1  0  0  0  0
 14 15  1  1  0  0  0
 16 17  2  0  0  0  0
 17 14  1  0  0  0  0
 19 18  1  0  0  0  0
 19 20  1  1  0  0  0
 21 22  2  0  0  0  0
 21 19  1  0  0  0  0
 23 28  1  6  0  0  0
 23 24  1  0  0  0  0
 23 25  1  0  0  0  0
 24 25  1  0  0  0  0
 24 21  1  1  0  0  0
 25 29  1  1  0  0  0
 28 27  1  1  0  0  0
 28 26  1  0  0  0  0
 29 30  1  0  0  0  0
 30 31  1  0  0  0  0
 32 30  2  0  0  0  0
M  END
>  <MODEL>
2

>  <REMARK>
 VINA RESULT:      -6.3      2.155      3.984
  Name = 
  12 active torsions:
  status: ('A' for Active; 'I' for Inactive)
    1  A    between atoms: C_1  and  C_5
    2  A    between atoms: C_1  and  O_30
    3  A    between atoms: C_2  and  C_5
    4  A    between atoms: C_3  and  C_8
    5  A    between atoms: C_3  and  C_20
    6  A    between atoms: C_4  and  C_24
    7  A    between atoms: C_4  and  O_30
    8  A    between atoms: C_5  and  O_14
    9  A    between atoms: C_13  and  O_14
   10  A    between atoms: C_13  and  C_29
   11  A    between atoms: C_15  and  C_26
   12  A    between atoms: C_16  and  C_24
                            x       y       z     vdW  Elec       q    Type
                         _______ _______ _______ _____ _____    ______ ____

>  <TORSDO>
F 12

$$$$
=
 OpenBabel11052419223D

 32 34  0  0  1  0  0  0  0  0999 V2000
  191.3260  177.6530  143.8480 C   0  0  0  0  0  2  0  0  0  0  0  0
  191.7360  176.7590  145.0190 C   0  0  2  0  0  3  0  0  0  0  0  0
  192.7900  175.7100  144.6490 C   0  0  2  0  0  3  0  0  0  0  0  0
  194.1070  175.9190  145.4270 C   0  0  0  0  0  2  0  0  0  0  0  0
  194.9290  175.9520  140.5870 C   0  0  0  0  0  2  0  0  0  0  0  0
  192.9420  175.5160  143.1250 C   0  0  0  0  0  2  0  0  0  0  0  0
  196.4190  176.6810  142.4510 C   0  0  0  0  0  2  0  0  0  0  0  0
  195.3730  176.0280  143.3110 C   0  0  0  0  0  0  0  0  0  0  0  0
  195.2150  176.4650  144.5650 C   0  0  0  0  0  3  0  0  0  0  0  0
  194.3480  175.0480  142.7600 C   0  0  2  0  0  3  0  0  0  0  0  0
  196.3630  176.2330  140.9950 C   0  0  0  0  0  2  0  0  0  0  0  0
  194.4590  174.7810  141.3200 N   0  0  0  0  0  2  0  0  0  0  0  0
  190.6140  176.1510  145.5940 O   0  0  0  0  0  0  0  0  0  0  0  0
  190.8050  176.2610  146.9720 C   0  0  1  0  0  3  0  0  0  0  0  0
  190.1720  177.5520  147.4640 C   0  0  0  0  0  1  0  0  0  0  0  0
  189.0210  174.5920  147.2350 C   0  0  0  0  0  2  0  0  0  0  0  0
  190.1790  175.0900  147.6580 C   0  0  0  0  0  3  0  0  0  0  0  0
  190.0400  178.1830  144.0510 O   0  0  0  0  0  0  0  0  0  0  0  0
  189.1760  177.6670  143.0620 C   0  0  1  0  0  3  0  0  0  0  0  0
  189.8650  176.8870  142.1230 O   0  0  0  0  0  1  0  0  0  0  0  0
  187.9760  176.9530  143.6380 C   0  0  0  0  0  0  0  0  0  0  0  0
  187.5720  175.9210  143.1230 O   0  0  0  0  0  0  0  0  0  0  0  0
  185.8470  177.0660  144.9330 C   0  0  2  0  0  3  0  0  0  0  0  0
  187.3100  177.4740  144.8860 C   0  0  2  0  0  3  0  0  0  0  0  0
  186.1990  178.5170  144.6780 C   0  0  1  0  0  3  0  0  0  0  0  0
  184.2900  177.6860  146.6250 O   0  0  0  0  0  1  0  0  0  0  0  0
  186.5360  177.3240  147.3010 C   0  0  0  0  0  1  0  0  0  0  0  0
  185.4130  176.8980  146.3780 C   0  0  2  0  0  3  0  0  0  0  0  0
  185.8710  178.8560  143.2300 C   0  0  0  0  0  2  0  0  0  0  0  0
  184.4360  178.5660  142.9610 C   0  0  0  0  0  0  0  0  0  0  0  0
  183.4510  179.1420  143.7520 O   0  0  0  0  0  1  0  0  0  0  0  0
  184.1130  177.8230  141.9970 O   0  0  0  0  0  0  0  0  0  0  0  0
  1 18  1  0  0  0  0
  2  1  1  6  0  0  0
  2 13  1  0  0  0  0
  3  2  1  6  0  0  0
  3  4  1  0  0  0  0
  5 11  1  0  0  0  0
  5 12  1  0  0  0  0
  6  3  1  0  0  0  0
  7  8  1  0  0  0  0
  8  9  2  0  0  0  0
  9  4  1  0  0  0  0
 10  6  1  6  0  0  0
 10  8  1  0  0  0  0
 11  7  1  0  0  0  0
 12 10  1  0  0  0  0
 13 14  1  0  0  0  0
 14 15  1  1  0  0  0
 14 17  1  0  0  0  0
 16 17  2  0  0  0  0
 19 20  1  1  0  0  0
 19 21  1  0  0  0  0
 19 18  1  0  0  0  0
 22 21  2  0  0  0  0
 23 28  1  1  0  0  0
 24 21  1  6  0  0  0
 24 23  1  0  0  0  0
 25 29  1  6  0  0  0
 25 24  1  0  0  0  0
 25 23  1  0  0  0  0
 28 26  1  0  0  0  0
 28 27  1  1  0  0  0
 30 29  1  0  0  0  0
 30 31  1  0  0  0  0
 32 30  2  0  0  0  0
M  END
>  <MODEL>
3

>  <REMARK>
 VINA RESULT:      -6.3      1.642      3.190
  Name = 
  12 active torsions:
  status: ('A' for Active; 'I' for Inactive)
    1  A    between atoms: C_1  and  C_5
    2  A    between atoms: C_1  and  O_30
    3  A    between atoms: C_2  and  C_5
    4  A    between atoms: C_3  and  C_8
    5  A    between atoms: C_3  and  C_20
    6  A    between atoms: C_4  and  C_24
    7  A    between atoms: C_4  and  O_30
    8  A    between atoms: C_5  and  O_14
    9  A    between atoms: C_13  and  O_14
   10  A    between atoms: C_13  and  C_29
   11  A    between atoms: C_15  and  C_26
   12  A    between atoms: C_16  and  C_24
                            x       y       z     vdW  Elec       q    Type
                         _______ _______ _______ _____ _____    ______ ____

>  <TORSDO>
F 12

$$$$
=
 OpenBabel11052419223D

 32 34  0  0  1  0  0  0  0  0999 V2000
  188.6540  177.5190  142.1360 C   0  0  0  0  0  2  0  0  0  0  0  0
  187.7760  176.2700  142.0530 C   0  0  2  0  0  3  0  0  0  0  0  0
  186.4300  176.4190  142.7690 C   0  0  2  0  0  3  0  0  0  0  0  0
  185.6630  177.6720  142.2940 C   0  0  0  0  0  2  0  0  0  0  0  0
  186.3130  177.7750  147.1600 C   0  0  0  0  0  2  0  0  0  0  0  0
  186.5360  176.2440  144.2990 C   0  0  0  0  0  2  0  0  0  0  0  0
  185.6100  179.6070  145.6170 C   0  0  0  0  0  2  0  0  0  0  0  0
  185.5020  178.4880  144.6180 C   0  0  0  0  0  0  0  0  0  0  0  0
  185.6520  178.7750  143.3210 C   0  0  0  0  0  3  0  0  0  0  0  0
  185.4430  177.0230  145.0260 C   0  0  2  0  0  3  0  0  0  0  0  0
  185.6190  179.1210  147.0620 C   0  0  0  0  0  2  0  0  0  0  0  0
  185.4950  176.7810  146.4740 N   0  0  0  0  0  2  0  0  0  0  0  0
  188.4660  175.1480  142.5260 O   0  0  0  0  0  0  0  0  0  0  0  0
  188.0700  174.0980  141.6950 C   0  0  1  0  0  3  0  0  0  0  0  0
  188.5410  174.3770  140.2770 C   0  0  0  0  0  1  0  0  0  0  0  0
  189.4720  172.8060  143.2450 C   0  0  0  0  0  2  0  0  0  0  0  0
  188.6620  172.8190  142.1890 C   0  0  0  0  0  3  0  0  0  0  0  0
  189.4100  177.5200  143.3220 O   0  0  0  0  0  0  0  0  0  0  0  0
  190.7610  177.7620  142.9980 C   0  0  1  0  0  3  0  0  0  0  0  0
  191.2690  178.8760  143.6810 O   0  0  0  0  0  1  0  0  0  0  0  0
  191.6360  176.5410  143.1530 C   0  0  0  0  0  0  0  0  0  0  0  0
  191.6300  175.6690  142.2970 O   0  0  0  0  0  0  0  0  0  0  0  0
  192.8530  174.9630  144.6550 C   0  0  2  0  0  3  0  0  0  0  0  0
  192.5700  176.4210  144.3310 C   0  0  2  0  0  3  0  0  0  0  0  0
  191.9840  175.7710  145.5970 C   0  0  1  0  0  3  0  0  0  0  0  0
  194.4450  173.5350  145.7030 O   0  0  0  0  0  1  0  0  0  0  0  0
  194.4110  175.8070  146.3900 C   0  0  0  0  0  1  0  0  0  0  0  0
  194.2480  174.8350  145.2390 C   0  0  2  0  0  3  0  0  0  0  0  0
  190.5470  175.2790  145.4850 C   0  0  0  0  0  2  0  0  0  0  0  0
  189.7130  175.9310  146.5310 C   0  0  0  0  0  0  0  0  0  0  0  0
  189.8320  177.2950  146.7640 O   0  0  0  0  0  0  0  0  0  0  0  0
  188.8770  175.2530  147.1840 O   0  0  0  0  0  1  0  0  0  0  0  0
  1 18  1  0  0  0  0
  2  1  1  1  0  0  0
  2 13  1  0  0  0  0
  3  2  1  1  0  0  0
  3  6  1  0  0  0  0
  4  3  1  0  0  0  0
  4  9  1  0  0  0  0
  7 11  1  0  0  0  0
  8 10  1  0  0  0  0
  8  7  1  0  0  0  0
  9  8  2  0  0  0  0
 10  6  1  6  0  0  0
 10 12  1  0  0  0  0
 11  5  1  0  0  0  0
 12  5  1  0  0  0  0
 14 15  1  6  0  0  0
 14 17  1  0  0  0  0
 14 13  1  0  0  0  0
 17 16  2  0  0  0  0
 19 21  1  0  0  0  0
 19 18  1  0  0  0  0
 19 20  1  1  0  0  0
 22 21  2  0  0  0  0
 23 28  1  1  0  0  0
 23 25  1  0  0  0  0
 24 21  1  6  0  0  0
 24 23  1  0  0  0  0
 24 25  1  0  0  0  0
 25 29  1  6  0  0  0
 28 26  1  0  0  0  0
 28 27  1  1  0  0  0
 29 30  1  0  0  0  0
 30 31  2  0  0  0  0
 30 32  1  0  0  0  0
M  END
>  <MODEL>
4

>  <REMARK>
 VINA RESULT:      -6.2      2.960      7.916
  Name = 
  12 active torsions:
  status: ('A' for Active; 'I' for Inactive)
    1  A    between atoms: C_1  and  C_5
    2  A    between atoms: C_1  and  O_30
    3  A    between atoms: C_2  and  C_5
    4  A    between atoms: C_3  and  C_8
    5  A    between atoms: C_3  and  C_20
    6  A    between atoms: C_4  and  C_24
    7  A    between atoms: C_4  and  O_30
    8  A    between atoms: C_5  and  O_14
    9  A    between atoms: C_13  and  O_14
   10  A    between atoms: C_13  and  C_29
   11  A    between atoms: C_15  and  C_26
   12  A    between atoms: C_16  and  C_24
                            x       y       z     vdW  Elec       q    Type
                         _______ _______ _______ _____ _____    ______ ____

>  <TORSDO>
F 12

$$$$
=
 OpenBabel11052419223D

 32 34  0  0  1  0  0  0  0  0999 V2000
  190.4970  174.2170  144.9340 C   0  0  0  0  0  2  0  0  0  0  0  0
  191.8960  174.8340  144.9490 C   0  0  2  0  0  3  0  0  0  0  0  0
  192.8880  174.1250  144.0220 C   0  0  2  0  0  3  0  0  0  0  0  0
  193.7990  173.1480  144.7970 C   0  0  0  0  0  2  0  0  0  0  0  0
  196.4840  176.4310  142.3240 C   0  0  0  0  0  2  0  0  0  0  0  0
  193.6140  175.0890  143.0590 C   0  0  0  0  0  2  0  0  0  0  0  0
  197.1760  174.8660  144.1400 C   0  0  0  0  0  2  0  0  0  0  0  0
  195.8080  174.2810  143.9190 C   0  0  0  0  0  0  0  0  0  0  0  0
  195.2120  173.6520  144.9370 C   0  0  0  0  0  3  0  0  0  0  0  0
  194.9890  174.5540  142.6660 C   0  0  2  0  0  3  0  0  0  0  0  0
  197.6570  175.7220  142.9740 C   0  0  0  0  0  2  0  0  0  0  0  0
  195.6350  175.4320  141.6820 N   0  0  0  0  0  2  0  0  0  0  0  0
  192.3960  174.8940  146.2540 O   0  0  0  0  0  0  0  0  0  0  0  0
  192.4850  176.2560  146.5490 C   0  0  1  0  0  3  0  0  0  0  0  0
  191.6750  176.5510  147.8000 C   0  0  0  0  0  1  0  0  0  0  0  0
  194.5970  177.2900  145.8360 C   0  0  0  0  0  2  0  0  0  0  0  0
  193.9160  176.6270  146.7660 C   0  0  0  0  0  3  0  0  0  0  0  0
  189.5750  175.0840  144.3220 O   0  0  0  0  0  0  0  0  0  0  0  0
  188.6880  175.5700  145.3050 C   0  0  1  0  0  3  0  0  0  0  0  0
  188.8670  174.9220  146.5350 O   0  0  0  0  0  1  0  0  0  0  0  0
  188.7150  177.0750  145.4350 C   0  0  0  0  0  0  0  0  0  0  0  0
  189.6960  177.7040  145.0700 O   0  0  0  0  0  0  0  0  0  0  0  0
  186.2270  177.0640  145.6220 C   0  0  2  0  0  3  0  0  0  0  0  0
  187.5070  177.8130  145.9530 C   0  0  2  0  0  3  0  0  0  0  0  0
  186.5350  178.3540  144.8910 C   0  0  1  0  0  3  0  0  0  0  0  0
  184.0610  177.9140  146.1290 O   0  0  0  0  0  1  0  0  0  0  0  0
  185.7660  178.2630  147.7430 C   0  0  0  0  0  1  0  0  0  0  0  0
  185.1910  177.3270  146.6980 C   0  0  2  0  0  3  0  0  0  0  0  0
  186.8860  178.0290  143.4450 C   0  0  0  0  0  2  0  0  0  0  0  0
  185.7920  178.4910  142.5480 C   0  0  0  0  0  0  0  0  0  0  0  0
  185.9430  178.4110  141.1690 O   0  0  0  0  0  0  0  0  0  0  0  0
  184.7170  178.9260  143.0370 O   0  0  0  0  0  1  0  0  0  0  0  0
  2  1  1  1  0  0  0
  2 13  1  0  0  0  0
  3  4  1  0  0  0  0
  3  2  1  1  0  0  0
  4  9  1  0  0  0  0
  5 11  1  0  0  0  0
  6  3  1  0  0  0  0
  8  7  1  0  0  0  0
  8  9  2  0  0  0  0
 10  6  1  1  0  0  0
 10  8  1  0  0  0  0
 11  7  1  0  0  0  0
 12  5  1  0  0  0  0
 12 10  1  0  0  0  0
 13 14  1  0  0  0  0
 14 17  1  0  0  0  0
 14 15  1  1  0  0  0
 16 17  2  0  0  0  0
 18  1  1  0  0  0  0
 18 19  1  0  0  0  0
 19 21  1  0  0  0  0
 19 20  1  1  0  0  0
 22 21  2  0  0  0  0
 23 24  1  0  0  0  0
 23 28  1  1  0  0  0
 24 21  1  6  0  0  0
 25 29  1  6  0  0  0
 25 23  1  0  0  0  0
 25 24  1  0  0  0  0
 26 28  1  0  0  0  0
 28 27  1  1  0  0  0
 30 32  1  0  0  0  0
 30 29  1  0  0  0  0
 31 30  2  0  0  0  0
M  END
>  <MODEL>
5

>  <REMARK>
 VINA RESULT:      -6.2      0.968      2.383
  Name = 
  12 active torsions:
  status: ('A' for Active; 'I' for Inactive)
    1  A    between atoms: C_1  and  C_5
    2  A    between atoms: C_1  and  O_30
    3  A    between atoms: C_2  and  C_5
    4  A    between atoms: C_3  and  C_8
    5  A    between atoms: C_3  and  C_20
    6  A    between atoms: C_4  and  C_24
    7  A    between atoms: C_4  and  O_30
    8  A    between atoms: C_5  and  O_14
    9  A    between atoms: C_13  and  O_14
   10  A    between atoms: C_13  and  C_29
   11  A    between atoms: C_15  and  C_26
   12  A    between atoms: C_16  and  C_24
                            x       y       z     vdW  Elec       q    Type
                         _______ _______ _______ _____ _____    ______ ____

>  <TORSDO>
F 12

$$$$
=
 OpenBabel11052419223D

 32 34  0  0  1  0  0  0  0  0999 V2000
  189.9490  175.2370  146.9290 C   0  0  0  0  0  2  0  0  0  0  0  0
  191.0860  174.7120  146.0520 C   0  0  2  0  0  3  0  0  0  0  0  0
  192.3180  175.6230  146.0380 C   0  0  2  0  0  3  0  0  0  0  0  0
  192.2140  176.7120  144.9490 C   0  0  0  0  0  2  0  0  0  0  0  0
  196.3000  174.0560  144.3590 C   0  0  0  0  0  2  0  0  0  0  0  0
  193.6490  174.8410  146.0710 C   0  0  0  0  0  2  0  0  0  0  0  0
  195.2020  175.6430  142.7780 C   0  0  0  0  0  2  0  0  0  0  0  0
  194.3640  175.9870  143.9780 C   0  0  0  0  0  0  0  0  0  0  0  0
  193.1280  176.4590  143.7790 C   0  0  0  0  0  3  0  0  0  0  0  0
  194.7730  175.6250  145.3980 C   0  0  2  0  0  3  0  0  0  0  0  0
  196.5020  174.9330  143.1370 C   0  0  0  0  0  2  0  0  0  0  0  0
  196.0530  174.9150  145.5120 N   0  0  0  0  0  2  0  0  0  0  0  0
  190.6350  174.4710  144.7500 O   0  0  0  0  0  0  0  0  0  0  0  0
  190.9630  173.1400  144.4900 C   0  0  1  0  0  3  0  0  0  0  0  0
  189.6930  172.3060  144.4690 C   0  0  0  0  0  1  0  0  0  0  0  0
  192.9240  172.6390  143.0960 C   0  0  0  0  0  2  0  0  0  0  0  0
  191.6600  173.0450  143.1710 C   0  0  0  0  0  3  0  0  0  0  0  0
  188.8290  175.5730  146.1480 O   0  0  0  0  0  0  0  0  0  0  0  0
  188.4520  176.9000  146.4420 C   0  0  1  0  0  3  0  0  0  0  0  0
  189.3960  177.5420  147.2550 O   0  0  0  0  0  1  0  0  0  0  0  0
  188.1070  177.7040  145.2110 C   0  0  0  0  0  0  0  0  0  0  0  0
  188.9290  177.8400  144.3170 O   0  0  0  0  0  0  0  0  0  0  0  0
  185.6600  177.2860  145.4580 C   0  0  2  0  0  3  0  0  0  0  0  0
  186.7270  178.2880  145.0480 C   0  0  2  0  0  3  0  0  0  0  0  0
  185.8290  177.6220  143.9910 C   0  0  1  0  0  3  0  0  0  0  0  0
  184.0600  179.0150  145.1130 O   0  0  0  0  0  1  0  0  0  0  0  0
  184.8120  178.6660  147.3360 C   0  0  0  0  0  1  0  0  0  0  0  0
  184.4550  178.0250  146.0110 C   0  0  2  0  0  3  0  0  0  0  0  0
  186.4290  176.4190  143.2760 C   0  0  0  0  0  2  0  0  0  0  0  0
  186.6910  176.7630  141.8520 C   0  0  0  0  0  0  0  0  0  0  0  0
  187.6470  176.0570  141.1320 O   0  0  0  0  0  0  0  0  0  0  0  0
  186.0270  177.6730  141.2900 O   0  0  0  0  0  1  0  0  0  0  0  0
  2  1  1  1  0  0  0
  3  2  1  6  0  0  0
  3  6  1  0  0  0  0
  4  3  1  0  0  0  0
  5 12  1  0  0  0  0
  7 11  1  0  0  0  0
  7  8  1  0  0  0  0
  8 10  1  0  0  0  0
  9  8  2  0  0  0  0
  9  4  1  0  0  0  0
 10 12  1  0  0  0  0
 10  6  1  6  0  0  0
 11  5  1  0  0  0  0
 13  2  1  0  0  0  0
 14 15  1  6  0  0  0
 14 13  1  0  0  0  0
 16 17  2  0  0  0  0
 17 14  1  0  0  0  0
 18 19  1  0  0  0  0
 18  1  1  0  0  0  0
 19 20  1  6  0  0  0
 21 19  1  0  0  0  0
 22 21  2  0  0  0  0
 23 28  1  1  0  0  0
 24 21  1  6  0  0  0
 24 23  1  0  0  0  0
 25 29  1  6  0  0  0
 25 24  1  0  0  0  0
 25 23  1  0  0  0  0
 26 28  1  0  0  0  0
 28 27  1  1  0  0  0
 30 29  1  0  0  0  0
 31 30  2  0  0  0  0
 32 30  1  0  0  0  0
M  END
>  <MODEL>
6

>  <REMARK>
 VINA RESULT:      -6.1      1.742      3.646
  Name = 
  12 active torsions:
  status: ('A' for Active; 'I' for Inactive)
    1  A    between atoms: C_1  and  C_5
    2  A    between atoms: C_1  and  O_30
    3  A    between atoms: C_2  and  C_5
    4  A    between atoms: C_3  and  C_8
    5  A    between atoms: C_3  and  C_20
    6  A    between atoms: C_4  and  C_24
    7  A    between atoms: C_4  and  O_30
    8  A    between atoms: C_5  and  O_14
    9  A    between atoms: C_13  and  O_14
   10  A    between atoms: C_13  and  C_29
   11  A    between atoms: C_15  and  C_26
   12  A    between atoms: C_16  and  C_24
                            x       y       z     vdW  Elec       q    Type
                         _______ _______ _______ _____ _____    ______ ____

>  <TORSDO>
F 12

$$$$
=
 OpenBabel11052419223D

 32 34  0  0  1  0  0  0  0  0999 V2000
  189.3030  174.2880  146.4630 C   0  0  0  0  0  2  0  0  0  0  0  0
  190.5190  174.2440  145.5380 C   0  0  2  0  0  3  0  0  0  0  0  0
  191.5490  175.3420  145.8270 C   0  0  2  0  0  3  0  0  0  0  0  0
  191.4990  176.4680  144.7720 C   0  0  0  0  0  2  0  0  0  0  0  0
  196.0110  174.5540  145.0540 C   0  0  0  0  0  2  0  0  0  0  0  0
  192.9550  174.7860  146.1400 C   0  0  0  0  0  2  0  0  0  0  0  0
  195.0290  176.0400  143.3070 C   0  0  0  0  0  2  0  0  0  0  0  0
  193.9020  176.1660  144.2950 C   0  0  0  0  0  0  0  0  0  0  0  0
  192.6770  176.4430  143.8340 C   0  0  0  0  0  3  0  0  0  0  0  0
  194.0460  175.7840  145.7610 C   0  0  2  0  0  3  0  0  0  0  0  0
  196.3210  175.5290  143.9340 C   0  0  0  0  0  2  0  0  0  0  0  0
  195.3730  175.2850  146.1430 N   0  0  0  0  0  2  0  0  0  0  0  0
  190.1220  174.2820  144.1970 O   0  0  0  0  0  0  0  0  0  0  0  0
  190.4780  173.0370  143.6750 C   0  0  1  0  0  3  0  0  0  0  0  0
  189.2410  172.3570  143.1120 C   0  0  0  0  0  1  0  0  0  0  0  0
  192.7670  172.8810  142.7950 C   0  0  0  0  0  2  0  0  0  0  0  0
  191.4970  173.2200  142.5970 C   0  0  0  0  0  3  0  0  0  0  0  0
  189.0930  175.5890  146.9520 O   0  0  0  0  0  0  0  0  0  0  0  0
  187.8340  176.0430  146.5080 C   0  0  1  0  0  3  0  0  0  0  0  0
  187.0940  176.6260  147.5460 O   0  0  0  0  0  1  0  0  0  0  0  0
  187.9210  176.9330  145.2900 C   0  0  0  0  0  0  0  0  0  0  0  0
  188.4120  178.0480  145.3800 O   0  0  0  0  0  0  0  0  0  0  0  0
  187.1470  177.5800  143.0090 C   0  0  2  0  0  3  0  0  0  0  0  0
  187.4620  176.4270  143.9460 C   0  0  2  0  0  3  0  0  0  0  0  0
  186.0080  176.7480  143.5600 C   0  0  1  0  0  3  0  0  0  0  0  0
  186.2880  177.3470  140.8000 O   0  0  0  0  0  1  0  0  0  0  0  0
  187.8300  175.7020  141.5410 C   0  0  0  0  0  1  0  0  0  0  0  0
  187.4300  177.1630  141.5770 C   0  0  2  0  0  3  0  0  0  0  0  0
  185.2260  177.5850  144.5630 C   0  0  0  0  0  2  0  0  0  0  0  0
  184.4530  178.6340  143.8440 C   0  0  0  0  0  0  0  0  0  0  0  0
  183.7010  178.2980  142.7250 O   0  0  0  0  0  0  0  0  0  0  0  0
  184.4560  179.8200  144.2660 O   0  0  0  0  0  1  0  0  0  0  0  0
  1 18  1  0  0  0  0
  2  1  1  1  0  0  0
  3  2  1  6  0  0  0
  3  6  1  0  0  0  0
  4  3  1  0  0  0  0
  5 12  1  0  0  0  0
  7 11  1  0  0  0  0
  7  8  1  0  0  0  0
  8 10  1  0  0  0  0
  9  8  2  0  0  0  0
  9  4  1  0  0  0  0
 10  6  1  6  0  0  0
 10 12  1  0  0  0  0
 11  5  1  0  0  0  0
 13  2  1  0  0  0  0
 14 15  1  6  0  0  0
 14 13  1  0  0  0  0
 17 16  2  0  0  0  0
 17 14  1  0  0  0  0
 19 18  1  0  0  0  0
 19 20  1  1  0  0  0
 21 22  2  0  0  0  0
 21 19  1  0  0  0  0
 23 28  1  6  0  0  0
 23 25  1  0  0  0  0
 23 24  1  0  0  0  0
 24 21  1  1  0  0  0
 25 24  1  0  0  0  0
 25 29  1  1  0  0  0
 26 28  1  0  0  0  0
 28 27  1  1  0  0  0
 30 32  1  0  0  0  0
 30 29  1  0  0  0  0
 31 30  2  0  0  0  0
M  END
>  <MODEL>
7

>  <REMARK>
 VINA RESULT:      -6.0      1.884      3.491
  Name = 
  12 active torsions:
  status: ('A' for Active; 'I' for Inactive)
    1  A    between atoms: C_1  and  C_5
    2  A    between atoms: C_1  and  O_30
    3  A    between atoms: C_2  and  C_5
    4  A    between atoms: C_3  and  C_8
    5  A    between atoms: C_3  and  C_20
    6  A    between atoms: C_4  and  C_24
    7  A    between atoms: C_4  and  O_30
    8  A    between atoms: C_5  and  O_14
    9  A    between atoms: C_13  and  O_14
   10  A    between atoms: C_13  and  C_29
   11  A    between atoms: C_15  and  C_26
   12  A    between atoms: C_16  and  C_24
                            x       y       z     vdW  Elec       q    Type
                         _______ _______ _______ _____ _____    ______ ____

>  <TORSDO>
F 12

$$$$
=
 OpenBabel11052419223D

 32 34  0  0  1  0  0  0  0  0999 V2000
  190.0870  174.6470  143.0890 C   0  0  0  0  0  2  0  0  0  0  0  0
  191.1640  174.4160  144.1500 C   0  0  2  0  0  3  0  0  0  0  0  0
  192.3480  173.5830  143.6490 C   0  0  2  0  0  3  0  0  0  0  0  0
  192.6270  172.3730  144.5670 C   0  0  0  0  0  2  0  0  0  0  0  0
  196.6330  175.1770  144.1300 C   0  0  0  0  0  2  0  0  0  0  0  0
  193.5800  174.4390  143.2850 C   0  0  0  0  0  2  0  0  0  0  0  0
  196.1440  173.3600  145.7680 C   0  0  0  0  0  2  0  0  0  0  0  0
  194.9640  173.1060  144.8710 C   0  0  0  0  0  0  0  0  0  0  0  0
  193.8710  172.5440  145.3990 C   0  0  0  0  0  3  0  0  0  0  0  0
  194.8760  173.6500  143.4530 C   0  0  2  0  0  3  0  0  0  0  0  0
  197.2400  174.1800  145.0990 C   0  0  0  0  0  2  0  0  0  0  0  0
  196.0350  174.4410  143.0200 N   0  0  0  0  0  2  0  0  0  0  0  0
  190.6100  173.8450  145.3010 O   0  0  0  0  0  0  0  0  0  0  0  0
  190.4130  174.9120  146.1800 C   0  0  1  0  0  3  0  0  0  0  0  0
  189.3140  174.5530  147.1650 C   0  0  0  0  0  1  0  0  0  0  0  0
  192.1340  176.4410  147.0380 C   0  0  0  0  0  2  0  0  0  0  0  0
  191.6850  175.1960  146.9120 C   0  0  0  0  0  3  0  0  0  0  0  0
  189.9520  176.0170  142.8030 O   0  0  0  0  0  0  0  0  0  0  0  0
  188.7210  176.2250  142.1480 C   0  0  1  0  0  3  0  0  0  0  0  0
  188.5880  175.4070  141.0160 O   0  0  0  0  0  1  0  0  0  0  0  0
  187.5320  176.1260  143.0740 C   0  0  0  0  0  0  0  0  0  0  0  0
  186.5810  175.4180  142.7780 O   0  0  0  0  0  0  0  0  0  0  0  0
  186.1350  176.9540  144.9680 C   0  0  2  0  0  3  0  0  0  0  0  0
  187.5400  176.8480  144.3970 C   0  0  2  0  0  3  0  0  0  0  0  0
  186.8090  178.2010  144.4360 C   0  0  1  0  0  3  0  0  0  0  0  0
  185.1520  177.7090  147.0010 O   0  0  0  0  0  1  0  0  0  0  0  0
  187.5190  177.5470  146.9390 C   0  0  0  0  0  1  0  0  0  0  0  0
  186.2020  176.9510  146.4840 C   0  0  2  0  0  3  0  0  0  0  0  0
  186.1210  178.6200  143.1430 C   0  0  0  0  0  2  0  0  0  0  0  0
  184.6970  178.9520  143.4190 C   0  0  0  0  0  0  0  0  0  0  0  0
  183.6850  178.2960  142.7300 O   0  0  0  0  0  0  0  0  0  0  0  0
  184.4070  179.8050  144.2980 O   0  0  0  0  0  1  0  0  0  0  0  0
  2  1  1  6  0  0  0
  2 13  1  0  0  0  0
  3  2  1  1  0  0  0
  3  4  1  0  0  0  0
  4  9  1  0  0  0  0
  5 11  1  0  0  0  0
  6  3  1  0  0  0  0
  8  9  2  0  0  0  0
  8  7  1  0  0  0  0
 10  6  1  1  0  0  0
 10  8  1  0  0  0  0
 11  7  1  0  0  0  0
 12 10  1  0  0  0  0
 12  5  1  0  0  0  0
 13 14  1  0  0  0  0
 14 17  1  0  0  0  0
 14 15  1  1  0  0  0
 17 16  2  0  0  0  0
 18  1  1  0  0  0  0
 19 20  1  6  0  0  0
 19 18  1  0  0  0  0
 19 21  1  0  0  0  0
 22 21  2  0  0  0  0
 23 28  1  1  0  0  0
 24 21  1  6  0  0  0
 24 25  1  0  0  0  0
 24 23  1  0  0  0  0
 25 29  1  6  0  0  0
 25 23  1  0  0  0  0
 28 27  1  6  0  0  0
 28 26  1  0  0  0  0
 29 30  1  0  0  0  0
 30 32  1  0  0  0  0
 31 30  2  0  0  0  0
M  END
>  <MODEL>
8

>  <REMARK>
 VINA RESULT:      -6.0      1.351      2.683
  Name = 
  12 active torsions:
  status: ('A' for Active; 'I' for Inactive)
    1  A    between atoms: C_1  and  C_5
    2  A    between atoms: C_1  and  O_30
    3  A    between atoms: C_2  and  C_5
    4  A    between atoms: C_3  and  C_8
    5  A    between atoms: C_3  and  C_20
    6  A    between atoms: C_4  and  C_24
    7  A    between atoms: C_4  and  O_30
    8  A    between atoms: C_5  and  O_14
    9  A    between atoms: C_13  and  O_14
   10  A    between atoms: C_13  and  C_29
   11  A    between atoms: C_15  and  C_26
   12  A    between atoms: C_16  and  C_24
                            x       y       z     vdW  Elec       q    Type
                         _______ _______ _______ _____ _____    ______ ____

>  <TORSDO>
F 12

$$$$
=
 OpenBabel11052419223D

 32 34  0  0  1  0  0  0  0  0999 V2000
  191.3790  176.5070  144.5970 C   0  0  0  0  0  2  0  0  0  0  0  0
  191.7770  175.0310  144.5540 C   0  0  2  0  0  3  0  0  0  0  0  0
  190.5950  174.0850  144.3210 C   0  0  2  0  0  3  0  0  0  0  0  0
  191.0470  172.6090  144.2540 C   0  0  0  0  0  2  0  0  0  0  0  0
  188.6220  173.8680  140.1750 C   0  0  0  0  0  2  0  0  0  0  0  0
  189.6650  174.5480  143.1800 C   0  0  0  0  0  2  0  0  0  0  0  0
  190.0420  171.8650  140.6180 C   0  0  0  0  0  2  0  0  0  0  0  0
  189.9900  172.3580  142.0380 C   0  0  0  0  0  0  0  0  0  0  0  0
  191.0000  172.0460  142.8580 C   0  0  0  0  0  3  0  0  0  0  0  0
  188.9580  173.3650  142.5220 C   0  0  2  0  0  3  0  0  0  0  0  0
  188.9420  172.4510  139.7400 C   0  0  0  0  0  2  0  0  0  0  0  0
  188.0090  173.8200  141.4990 N   0  0  0  0  0  2  0  0  0  0  0  0
  192.4750  174.6740  145.7140 O   0  0  0  0  0  0  0  0  0  0  0  0
  193.8230  174.8490  145.3970 C   0  0  1  0  0  3  0  0  0  0  0  0
  194.4650  175.7610  146.4300 C   0  0  0  0  0  1  0  0  0  0  0  0
  194.8530  172.9410  144.2410 C   0  0  0  0  0  2  0  0  0  0  0  0
  194.5110  173.5220  145.3870 C   0  0  0  0  0  3  0  0  0  0  0  0
  190.6100  176.7850  145.7400 O   0  0  0  0  0  0  0  0  0  0  0  0
  189.5280  177.6110  145.3710 C   0  0  1  0  0  3  0  0  0  0  0  0
  189.5970  177.9870  144.0220 O   0  0  0  0  0  1  0  0  0  0  0  0
  188.1850  177.0290  145.7410 C   0  0  0  0  0  0  0  0  0  0  0  0
  188.0980  175.8610  146.0900 O   0  0  0  0  0  0  0  0  0  0  0  0
  185.6900  177.0580  145.7690 C   0  0  2  0  0  3  0  0  0  0  0  0
  186.9550  177.9010  145.7440 C   0  0  2  0  0  3  0  0  0  0  0  0
  186.0530  177.8060  144.5020 C   0  0  1  0  0  3  0  0  0  0  0  0
  183.9400  178.6660  145.6190 O   0  0  0  0  0  1  0  0  0  0  0  0
  185.1990  178.6210  147.6300 C   0  0  0  0  0  1  0  0  0  0  0  0
  184.5950  177.8090  146.5030 C   0  0  2  0  0  3  0  0  0  0  0  0
  186.4860  176.8000  143.4440 C   0  0  0  0  0  2  0  0  0  0  0  0
  186.7210  177.5030  142.1530 C   0  0  0  0  0  0  0  0  0  0  0  0
  186.7050  176.7890  140.9610 O   0  0  0  0  0  0  0  0  0  0  0  0
  186.9040  178.7480  142.1370 O   0  0  0  0  0  1  0  0  0  0  0  0
  1 18  1  0  0  0  0
  2  1  1  1  0  0  0
  2 13  1  0  0  0  0
  3  2  1  6  0  0  0
  4  3  1  0  0  0  0
  5 12  1  0  0  0  0
  6  3  1  0  0  0  0
  7  8  1  0  0  0  0
  8 10  1  0  0  0  0
  8  9  2  0  0  0  0
  9  4  1  0  0  0  0
 10  6  1  6  0  0  0
 11  5  1  0  0  0  0
 11  7  1  0  0  0  0
 12 10  1  0  0  0  0
 14 13  1  0  0  0  0
 14 15  1  1  0  0  0
 16 17  2  0  0  0  0
 17 14  1  0  0  0  0
 19 20  1  6  0  0  0
 19 18  1  0  0  0  0
 19 21  1  0  0  0  0
 21 22  2  0  0  0  0
 23 28  1  1  0  0  0
 24 21  1  6  0  0  0
 24 23  1  0  0  0  0
 25 29  1  6  0  0  0
 25 24  1  0  0  0  0
 25 23  1  0  0  0  0
 26 28  1  0  0  0  0
 28 27  1  1  0  0  0
 30 29  1  0  0  0  0
 31 30  2  0  0  0  0
 32 30  1  0  0  0  0
M  END
>  <MODEL>
9

>  <REMARK>
 VINA RESULT:      -5.9      2.685      4.602
  Name = 
  12 active torsions:
  status: ('A' for Active; 'I' for Inactive)
    1  A    between atoms: C_1  and  C_5
    2  A    between atoms: C_1  and  O_30
    3  A    between atoms: C_2  and  C_5
    4  A    between atoms: C_3  and  C_8
    5  A    between atoms: C_3  and  C_20
    6  A    between atoms: C_4  and  C_24
    7  A    between atoms: C_4  and  O_30
    8  A    between atoms: C_5  and  O_14
    9  A    between atoms: C_13  and  O_14
   10  A    between atoms: C_13  and  C_29
   11  A    between atoms: C_15  and  C_26
   12  A    between atoms: C_16  and  C_24
                            x       y       z     vdW  Elec       q    Type
                         _______ _______ _______ _____ _____    ______ ____

>  <TORSDO>
F 12

$$$$
