=
 OpenBabel11052418263D

 27 30  0  0  1  0  0  0  0  0999 V2000
  190.0070  176.0280  144.7970 C   0  0  2  0  0  3  0  0  0  0  0  0
  188.6410  176.6370  144.9600 C   0  0  0  0  0  0  0  0  0  0  0  0
  188.7340  178.0380  142.8360 C   0  0  0  0  0  1  0  0  0  0  0  0
  184.4430  177.9530  146.6220 C   0  0  0  0  0  3  0  0  0  0  0  0
  184.0570  178.8440  145.6270 C   0  0  0  0  0  3  0  0  0  0  0  0
  187.7890  176.4190  146.0280 C   0  0  0  0  0  3  0  0  0  0  0  0
  185.9670  178.8500  143.9720 C   0  0  0  0  0  0  0  0  0  0  0  0
  186.3330  179.4270  142.8000 F   0  0  0  0  0  0  0  0  0  0  0  0
  186.8380  177.9380  144.5770 C   0  0  0  0  0  0  0  0  0  0  0  0
  184.7260  179.2330  144.4700 C   0  0  0  0  0  3  0  0  0  0  0  0
  186.6660  177.1980  145.8250 C   0  0  0  0  0  0  0  0  0  0  0  0
  188.0790  177.5540  144.0890 C   0  0  0  0  0  0  0  0  0  0  0  0
  185.6110  177.2130  146.7180 C   0  0  0  0  0  3  0  0  0  0  0  0
  189.2890  171.9730  143.3780 C   0  0  0  0  0  3  0  0  0  0  0  0
  190.0170  174.6070  144.2120 C   0  0  2  0  0  3  0  0  0  0  0  0
  189.0800  174.4380  143.0120 C   0  0  0  0  0  2  0  0  0  0  0  0
  188.9410  172.9990  142.5870 C   0  0  0  0  0  3  0  0  0  0  0  0
  189.9470  172.1720  144.7190 C   0  0  0  0  0  2  0  0  0  0  0  0
  189.6940  173.5690  145.2820 C   0  0  0  0  0  2  0  0  0  0  0  0
  190.9800  176.3220  145.9530 C   0  0  0  0  0  2  0  0  0  0  0  0
  195.2320  175.4800  144.4970 C   0  0  0  0  0  3  0  0  0  0  0  0
  194.5340  174.1620  144.5150 C   0  0  0  0  0  2  0  0  0  0  0  0
  192.4030  175.9410  145.6920 C   0  0  0  0  0  0  0  0  0  0  0  0
  194.6030  176.6410  144.6740 C   0  0  0  0  0  3  0  0  0  0  0  0
  193.8620  173.9110  145.8230 C   0  0  0  0  0  3  0  0  0  0  0  0
  192.8940  174.6890  146.3070 C   0  0  0  0  0  3  0  0  0  0  0  0
  193.1720  176.7960  145.0000 C   0  0  0  0  0  3  0  0  0  0  0  0
  1  2  1  0  0  0  0
  1 20  1  1  0  0  0
  2  6  1  0  0  0  0
  3 12  1  0  0  0  0
  4 13  2  0  0  0  0
  5  4  1  0  0  0  0
  7 10  1  0  0  0  0
  7  9  2  0  0  0  0
  8  7  1  0  0  0  0
  9 11  1  0  0  0  0
 10  5  2  0  0  0  0
 11  6  2  0  0  0  0
 11 13  1  0  0  0  0
 12  9  1  0  0  0  0
 12  2  2  0  0  0  0
 14 18  1  0  0  0  0
 15  1  1  1  0  0  0
 15 19  1  0  0  0  0
 16 15  1  0  0  0  0
 17 16  1  0  0  0  0
 17 14  2  0  0  0  0
 18 19  1  0  0  0  0
 21 22  1  0  0  0  0
 21 24  2  0  0  0  0
 22 25  1  0  0  0  0
 23 20  1  0  0  0  0
 23 26  1  0  0  0  0
 24 27  1  0  0  0  0
 25 26  2  0  0  0  0
 27 23  2  0  0  0  0
M  END
>  <MODEL>
1

>  <REMARK>
 VINA RESULT:      -8.9      0.000      0.000
  Name = 
  4 active torsions:
  status: ('A' for Active; 'I' for Inactive)
    1  A    between atoms: C_1  and  C_15
    2  A    between atoms: C_1  and  C_18
    3  A    between atoms: C_2  and  C_15
    4  A    between atoms: C_9  and  C_15
                            x       y       z     vdW  Elec       q    Type
                         _______ _______ _______ _____ _____    ______ ____

>  <TORSDO>
F 4

$$$$
=
 OpenBabel11052418263D

 27 30  0  0  1  0  0  0  0  0999 V2000
  188.3790  176.4940  144.6870 C   0  0  2  0  0  3  0  0  0  0  0  0
  188.5820  175.5380  143.5440 C   0  0  0  0  0  0  0  0  0  0  0  0
  189.7660  173.7510  144.9170 C   0  0  0  0  0  1  0  0  0  0  0  0
  188.7750  173.5530  139.2840 C   0  0  0  0  0  3  0  0  0  0  0  0
  189.4310  172.3690  139.5990 C   0  0  0  0  0  3  0  0  0  0  0  0
  188.2200  175.7720  142.2280 C   0  0  0  0  0  3  0  0  0  0  0  0
  189.8450  172.4870  142.0890 C   0  0  0  0  0  0  0  0  0  0  0  0
  190.4010  171.7620  143.0920 F   0  0  0  0  0  0  0  0  0  0  0  0
  189.2750  173.7280  142.3890 C   0  0  0  0  0  0  0  0  0  0  0  0
  189.8960  171.9060  140.8260 C   0  0  0  0  0  3  0  0  0  0  0  0
  188.6240  174.6780  141.4890 C   0  0  0  0  0  0  0  0  0  0  0  0
  189.2220  174.3160  143.6450 C   0  0  0  0  0  0  0  0  0  0  0  0
  188.4120  174.5930  140.1260 C   0  0  0  0  0  3  0  0  0  0  0  0
  184.5610  178.2380  145.8530 C   0  0  0  0  0  3  0  0  0  0  0  0
  186.9240  176.9340  144.9130 C   0  0  2  0  0  3  0  0  0  0  0  0
  186.6560  178.3830  144.4950 C   0  0  0  0  0  2  0  0  0  0  0  0
  185.2900  178.8630  144.9170 C   0  0  0  0  0  3  0  0  0  0  0  0
  184.9970  176.9420  146.4880 C   0  0  0  0  0  2  0  0  0  0  0  0
  186.5020  176.7190  146.3640 C   0  0  0  0  0  2  0  0  0  0  0  0
  189.4690  177.5720  144.8200 C   0  0  0  0  0  2  0  0  0  0  0  0
  193.4490  175.8560  146.2780 C   0  0  0  0  0  3  0  0  0  0  0  0
  192.3850  175.1000  147.0000 C   0  0  0  0  0  2  0  0  0  0  0  0
  190.7210  177.1220  145.5060 C   0  0  0  0  0  0  0  0  0  0  0  0
  193.1960  176.6910  145.2710 C   0  0  0  0  0  3  0  0  0  0  0  0
  191.3990  176.0150  147.6460 C   0  0  0  0  0  3  0  0  0  0  0  0
  190.6440  176.8750  146.9620 C   0  0  0  0  0  3  0  0  0  0  0  0
  191.8510  177.0600  144.7860 C   0  0  0  0  0  3  0  0  0  0  0  0
  1 20  1  6  0  0  0
  2 12  1  0  0  0  0
  2  1  1  0  0  0  0
  4  5  2  0  0  0  0
  4 13  1  0  0  0  0
  5 10  1  0  0  0  0
  6  2  2  0  0  0  0
  7  9  1  0  0  0  0
  7  8  1  0  0  0  0
  9 12  2  0  0  0  0
 10  7  2  0  0  0  0
 11  6  1  0  0  0  0
 11  9  1  0  0  0  0
 12  3  1  0  0  0  0
 13 11  2  0  0  0  0
 14 18  1  0  0  0  0
 15  1  1  1  0  0  0
 15 19  1  0  0  0  0
 16 15  1  0  0  0  0
 16 17  1  0  0  0  0
 17 14  2  0  0  0  0
 19 18  1  0  0  0  0
 20 23  1  0  0  0  0
 21 22  1  0  0  0  0
 22 25  1  0  0  0  0
 23 26  1  0  0  0  0
 24 21  2  0  0  0  0
 26 25  2  0  0  0  0
 27 24  1  0  0  0  0
 27 23  2  0  0  0  0
M  END
>  <MODEL>
2

>  <REMARK>
 VINA RESULT:      -8.6      2.239      5.732
  Name = 
  4 active torsions:
  status: ('A' for Active; 'I' for Inactive)
    1  A    between atoms: C_1  and  C_15
    2  A    between atoms: C_1  and  C_18
    3  A    between atoms: C_2  and  C_15
    4  A    between atoms: C_9  and  C_15
                            x       y       z     vdW  Elec       q    Type
                         _______ _______ _______ _____ _____    ______ ____

>  <TORSDO>
F 4

$$$$
=
 OpenBabel11052418263D

 27 30  0  0  1  0  0  0  0  0999 V2000
  190.1510  176.0150  144.4910 C   0  0  2  0  0  3  0  0  0  0  0  0
  188.8590  176.7040  144.8380 C   0  0  0  0  0  0  0  0  0  0  0  0
  188.4800  175.4440  147.0170 C   0  0  0  0  0  1  0  0  0  0  0  0
  184.9650  179.3390  144.7320 C   0  0  0  0  0  3  0  0  0  0  0  0
  184.3640  178.9300  145.9170 C   0  0  0  0  0  3  0  0  0  0  0  0
  188.2200  177.6510  144.0560 C   0  0  0  0  0  3  0  0  0  0  0  0
  185.9430  177.2200  146.9000 C   0  0  0  0  0  0  0  0  0  0  0  0
  186.0630  176.4060  147.9790 F   0  0  0  0  0  0  0  0  0  0  0  0
  186.9540  177.2130  145.9340 C   0  0  0  0  0  0  0  0  0  0  0  0
  184.7950  178.0040  146.8620 C   0  0  0  0  0  3  0  0  0  0  0  0
  187.0470  177.9920  144.7010 C   0  0  0  0  0  0  0  0  0  0  0  0
  188.1010  176.4320  145.9630 C   0  0  0  0  0  0  0  0  0  0  0  0
  186.1670  178.9220  144.1800 C   0  0  0  0  0  3  0  0  0  0  0  0
  193.9740  176.7630  146.4390 C   0  0  0  0  0  3  0  0  0  0  0  0
  191.3800  176.5120  145.2680 C   0  0  2  0  0  3  0  0  0  0  0  0
  192.5760  176.8380  144.3670 C   0  0  0  0  0  2  0  0  0  0  0  0
  193.8310  177.1180  145.1530 C   0  0  0  0  0  3  0  0  0  0  0  0
  192.8540  176.1490  147.2390 C   0  0  0  0  0  2  0  0  0  0  0  0
  191.7910  175.5150  146.3460 C   0  0  0  0  0  2  0  0  0  0  0  0
  190.3360  175.7240  142.9900 C   0  0  0  0  0  2  0  0  0  0  0  0
  190.0170  171.2100  142.3340 C   0  0  0  0  0  3  0  0  0  0  0  0
  190.8480  171.7320  141.2100 C   0  0  0  0  0  2  0  0  0  0  0  0
  190.0880  174.3040  142.5880 C   0  0  0  0  0  0  0  0  0  0  0  0
  189.6660  171.9480  143.3860 C   0  0  0  0  0  3  0  0  0  0  0  0
  190.1920  172.8860  140.5280 C   0  0  0  0  0  3  0  0  0  0  0  0
  189.9000  174.0300  141.1470 C   0  0  0  0  0  3  0  0  0  0  0  0
  189.9580  173.3850  143.5570 C   0  0  0  0  0  3  0  0  0  0  0  0
  1 20  1  6  0  0  0
  1  2  1  0  0  0  0
  2 12  1  0  0  0  0
  4  5  2  0  0  0  0
  5 10  1  0  0  0  0
  6 11  1  0  0  0  0
  6  2  2  0  0  0  0
  7  8  1  0  0  0  0
  9 12  2  0  0  0  0
  9  7  1  0  0  0  0
 10  7  2  0  0  0  0
 11  9  1  0  0  0  0
 12  3  1  0  0  0  0
 13 11  2  0  0  0  0
 13  4  1  0  0  0  0
 14 18  1  0  0  0  0
 15  1  1  6  0  0  0
 15 19  1  0  0  0  0
 16 17  1  0  0  0  0
 16 15  1  0  0  0  0
 17 14  2  0  0  0  0
 19 18  1  0  0  0  0
 21 24  2  0  0  0  0
 22 21  1  0  0  0  0
 23 20  1  0  0  0  0
 23 27  2  0  0  0  0
 24 27  1  0  0  0  0
 25 26  2  0  0  0  0
 25 22  1  0  0  0  0
 26 23  1  0  0  0  0
M  END
>  <MODEL>
3

>  <REMARK>
 VINA RESULT:      -8.4      1.684      4.455
  Name = 
  4 active torsions:
  status: ('A' for Active; 'I' for Inactive)
    1  A    between atoms: C_1  and  C_15
    2  A    between atoms: C_1  and  C_18
    3  A    between atoms: C_2  and  C_15
    4  A    between atoms: C_9  and  C_15
                            x       y       z     vdW  Elec       q    Type
                         _______ _______ _______ _____ _____    ______ ____

>  <TORSDO>
F 4

$$$$
=
 OpenBabel11052418263D

 27 30  0  0  1  0  0  0  0  0999 V2000
  190.2780  175.9480  144.8500 C   0  0  2  0  0  3  0  0  0  0  0  0
  188.9620  176.6380  145.0810 C   0  0  0  0  0  0  0  0  0  0  0  0
  188.4260  175.4370  147.2610 C   0  0  0  0  0  1  0  0  0  0  0  0
  185.0770  179.2470  144.6120 C   0  0  0  0  0  3  0  0  0  0  0  0
  184.3910  178.8680  145.7600 C   0  0  0  0  0  3  0  0  0  0  0  0
  188.3790  177.5590  144.2280 C   0  0  0  0  0  3  0  0  0  0  0  0
  185.8990  177.1950  146.9060 C   0  0  0  0  0  0  0  0  0  0  0  0
  185.9410  176.4120  148.0130 F   0  0  0  0  0  0  0  0  0  0  0  0
  186.9780  177.1670  146.0180 C   0  0  0  0  0  0  0  0  0  0  0  0
  184.7530  177.9710  146.7600 C   0  0  0  0  0  3  0  0  0  0  0  0
  187.1600  177.9120  144.7740 C   0  0  0  0  0  0  0  0  0  0  0  0
  188.1230  176.3940  146.1540 C   0  0  0  0  0  0  0  0  0  0  0  0
  186.3180  178.8230  144.1640 C   0  0  0  0  0  3  0  0  0  0  0  0
  189.3170  172.1060  143.0370 C   0  0  0  0  0  3  0  0  0  0  0  0
  190.1870  174.6160  144.0900 C   0  0  2  0  0  3  0  0  0  0  0  0
  189.0780  174.5950  143.0330 C   0  0  0  0  0  2  0  0  0  0  0  0
  188.8630  173.2230  142.4480 C   0  0  0  0  0  3  0  0  0  0  0  0
  190.1710  172.1350  144.2780 C   0  0  0  0  0  2  0  0  0  0  0  0
  190.0190  173.4430  145.0510 C   0  0  0  0  0  2  0  0  0  0  0  0
  191.2520  176.0150  146.0410 C   0  0  0  0  0  2  0  0  0  0  0  0
  195.5060  175.7260  144.3890 C   0  0  0  0  0  3  0  0  0  0  0  0
  194.8950  174.3790  144.1930 C   0  0  0  0  0  2  0  0  0  0  0  0
  192.6890  175.7820  145.6940 C   0  0  0  0  0  0  0  0  0  0  0  0
  194.8090  176.7940  144.7740 C   0  0  0  0  0  3  0  0  0  0  0  0
  194.2780  173.8640  145.4500 C   0  0  0  0  0  3  0  0  0  0  0  0
  193.2760  174.4800  146.0770 C   0  0  0  0  0  3  0  0  0  0  0  0
  193.3810  176.7930  145.1460 C   0  0  0  0  0  3  0  0  0  0  0  0
  1  2  1  0  0  0  0
  1 20  1  1  0  0  0
  2 12  1  0  0  0  0
  4  5  2  0  0  0  0
  5 10  1  0  0  0  0
  6 11  1  0  0  0  0
  6  2  2  0  0  0  0
  7  8  1  0  0  0  0
  9 12  2  0  0  0  0
  9  7  1  0  0  0  0
 10  7  2  0  0  0  0
 11  9  1  0  0  0  0
 12  3  1  0  0  0  0
 13  4  1  0  0  0  0
 13 11  2  0  0  0  0
 14 18  1  0  0  0  0
 15  1  1  1  0  0  0
 15 19  1  0  0  0  0
 16 15  1  0  0  0  0
 17 16  1  0  0  0  0
 17 14  2  0  0  0  0
 18 19  1  0  0  0  0
 21 24  2  0  0  0  0
 22 21  1  0  0  0  0
 22 25  1  0  0  0  0
 23 20  1  0  0  0  0
 23 26  1  0  0  0  0
 24 27  1  0  0  0  0
 25 26  2  0  0  0  0
 27 23  2  0  0  0  0
M  END
>  <MODEL>
4

>  <REMARK>
 VINA RESULT:      -8.3      1.259      2.057
  Name = 
  4 active torsions:
  status: ('A' for Active; 'I' for Inactive)
    1  A    between atoms: C_1  and  C_15
    2  A    between atoms: C_1  and  C_18
    3  A    between atoms: C_2  and  C_15
    4  A    between atoms: C_9  and  C_15
                            x       y       z     vdW  Elec       q    Type
                         _______ _______ _______ _____ _____    ______ ____

>  <TORSDO>
F 4

$$$$
=
 OpenBabel11052418263D

 27 30  0  0  1  0  0  0  0  0999 V2000
  191.0770  174.0010  145.4030 C   0  0  2  0  0  3  0  0  0  0  0  0
  189.9930  175.0330  145.2510 C   0  0  0  0  0  0  0  0  0  0  0  0
  188.9030  174.5900  147.5080 C   0  0  0  0  0  1  0  0  0  0  0  0
  187.0840  178.3260  143.5740 C   0  0  0  0  0  3  0  0  0  0  0  0
  186.1970  178.4300  144.6390 C   0  0  0  0  0  3  0  0  0  0  0  0
  189.7920  175.8260  144.1340 C   0  0  0  0  0  3  0  0  0  0  0  0
  187.0330  176.7770  146.3560 C   0  0  0  0  0  0  0  0  0  0  0  0
  186.7300  176.3120  147.5940 F   0  0  0  0  0  0  0  0  0  0  0  0
  188.1510  176.2580  145.6960 C   0  0  0  0  0  0  0  0  0  0  0  0
  186.1780  177.7520  145.8530 C   0  0  0  0  0  3  0  0  0  0  0  0
  188.6720  176.5980  144.3730 C   0  0  0  0  0  0  0  0  0  0  0  0
  189.0070  175.2830  146.1890 C   0  0  0  0  0  0  0  0  0  0  0  0
  188.1940  177.5060  143.4470 C   0  0  0  0  0  3  0  0  0  0  0  0
  195.2200  175.2040  146.0040 C   0  0  0  0  0  3  0  0  0  0  0  0
  192.5090  174.5550  145.3720 C   0  0  2  0  0  3  0  0  0  0  0  0
  193.5800  173.4640  145.2710 C   0  0  0  0  0  2  0  0  0  0  0  0
  194.9750  174.0050  145.4560 C   0  0  0  0  0  3  0  0  0  0  0  0
  194.1180  176.1590  146.3860 C   0  0  0  0  0  2  0  0  0  0  0  0
  192.7810  175.4480  146.5790 C   0  0  0  0  0  2  0  0  0  0  0  0
  190.8140  172.6840  144.6520 C   0  0  0  0  0  2  0  0  0  0  0  0
  189.8280  173.7480  140.3160 C   0  0  0  0  0  3  0  0  0  0  0  0
  188.6310  174.1350  141.1170 C   0  0  0  0  0  2  0  0  0  0  0  0
  190.3360  172.8460  143.2420 C   0  0  0  0  0  0  0  0  0  0  0  0
  190.9850  173.3790  140.8630 C   0  0  0  0  0  3  0  0  0  0  0  0
  188.1720  173.0210  141.9980 C   0  0  0  0  0  3  0  0  0  0  0  0
  188.9290  172.4920  142.9590 C   0  0  0  0  0  3  0  0  0  0  0  0
  191.2290  173.2090  142.3090 C   0  0  0  0  0  3  0  0  0  0  0  0
  1 20  1  6  0  0  0
  2  1  1  0  0  0  0
  2 12  1  0  0  0  0
  4  5  2  0  0  0  0
  5 10  1  0  0  0  0
  6 11  1  0  0  0  0
  6  2  2  0  0  0  0
  7  8  1  0  0  0  0
  9 12  2  0  0  0  0
  9  7  1  0  0  0  0
 10  7  2  0  0  0  0
 11  9  1  0  0  0  0
 12  3  1  0  0  0  0
 13  4  1  0  0  0  0
 13 11  2  0  0  0  0
 14 18  1  0  0  0  0
 15  1  1  1  0  0  0
 15 19  1  0  0  0  0
 16 15  1  0  0  0  0
 16 17  1  0  0  0  0
 17 14  2  0  0  0  0
 18 19  1  0  0  0  0
 21 24  2  0  0  0  0
 21 22  1  0  0  0  0
 22 25  1  0  0  0  0
 23 20  1  0  0  0  0
 24 27  1  0  0  0  0
 25 26  2  0  0  0  0
 26 23  1  0  0  0  0
 27 23  2  0  0  0  0
M  END
>  <MODEL>
5

>  <REMARK>
 VINA RESULT:      -8.3      1.785      4.791
  Name = 
  4 active torsions:
  status: ('A' for Active; 'I' for Inactive)
    1  A    between atoms: C_1  and  C_15
    2  A    between atoms: C_1  and  C_18
    3  A    between atoms: C_2  and  C_15
    4  A    between atoms: C_9  and  C_15
                            x       y       z     vdW  Elec       q    Type
                         _______ _______ _______ _____ _____    ______ ____

>  <TORSDO>
F 4

$$$$
=
 OpenBabel11052418263D

 27 30  0  0  1  0  0  0  0  0999 V2000
  188.4330  176.0640  145.1920 C   0  0  2  0  0  3  0  0  0  0  0  0
  189.9050  175.7960  145.3470 C   0  0  0  0  0  0  0  0  0  0  0  0
  189.8520  173.4770  144.2990 C   0  0  0  0  0  1  0  0  0  0  0  0
  194.4550  176.0590  146.5100 C   0  0  0  0  0  3  0  0  0  0  0  0
  194.8950  174.8250  146.0470 C   0  0  0  0  0  3  0  0  0  0  0  0
  190.8160  176.6470  145.9490 C   0  0  0  0  0  3  0  0  0  0  0  0
  192.8430  173.7180  145.0720 C   0  0  0  0  0  0  0  0  0  0  0  0
  192.4670  172.5660  144.4620 F   0  0  0  0  0  0  0  0  0  0  0  0
  191.8810  174.7060  145.3020 C   0  0  0  0  0  0  0  0  0  0  0  0
  194.1870  173.8050  145.4180 C   0  0  0  0  0  3  0  0  0  0  0  0
  192.0430  176.0140  145.9340 C   0  0  0  0  0  0  0  0  0  0  0  0
  190.5370  174.6270  144.9630 C   0  0  0  0  0  0  0  0  0  0  0  0
  193.1780  176.5980  146.4640 C   0  0  0  0  0  3  0  0  0  0  0  0
  187.7890  177.5100  141.1340 C   0  0  0  0  0  3  0  0  0  0  0  0
  188.0340  176.7560  143.8800 C   0  0  2  0  0  3  0  0  0  0  0  0
  187.2640  175.8410  142.9210 C   0  0  0  0  0  2  0  0  0  0  0  0
  187.0680  176.4640  141.5630 C   0  0  0  0  0  3  0  0  0  0  0  0
  188.7850  178.2210  142.0140 C   0  0  0  0  0  2  0  0  0  0  0  0
  189.2520  177.3480  143.1770 C   0  0  0  0  0  2  0  0  0  0  0  0
  187.7310  176.5340  146.4790 C   0  0  0  0  0  2  0  0  0  0  0  0
  183.7410  178.6670  145.8170 C   0  0  0  0  0  3  0  0  0  0  0  0
  184.4900  178.7860  144.5320 C   0  0  0  0  0  2  0  0  0  0  0  0
  186.5560  177.4360  146.2640 C   0  0  0  0  0  0  0  0  0  0  0  0
  184.1390  177.8910  146.8250 C   0  0  0  0  0  3  0  0  0  0  0  0
  185.8730  179.3050  144.7460 C   0  0  0  0  0  3  0  0  0  0  0  0
  186.7840  178.6710  145.4840 C   0  0  0  0  0  3  0  0  0  0  0  0
  185.3980  177.1220  146.8640 C   0  0  0  0  0  3  0  0  0  0  0  0
  1  2  1  0  0  0  0
  1 20  1  1  0  0  0
  2  6  1  0  0  0  0
  3 12  1  0  0  0  0
  5  4  1  0  0  0  0
  7  9  2  0  0  0  0
  7 10  1  0  0  0  0
  8  7  1  0  0  0  0
  9 11  1  0  0  0  0
 10  5  2  0  0  0  0
 11  6  2  0  0  0  0
 11 13  1  0  0  0  0
 12  9  1  0  0  0  0
 12  2  2  0  0  0  0
 13  4  2  0  0  0  0
 14 17  2  0  0  0  0
 14 18  1  0  0  0  0
 15  1  1  1  0  0  0
 16 15  1  0  0  0  0
 17 16  1  0  0  0  0
 18 19  1  0  0  0  0
 19 15  1  0  0  0  0
 21 24  2  0  0  0  0
 22 25  1  0  0  0  0
 22 21  1  0  0  0  0
 23 20  1  0  0  0  0
 23 27  2  0  0  0  0
 24 27  1  0  0  0  0
 25 26  2  0  0  0  0
 26 23  1  0  0  0  0
M  END
>  <MODEL>
6

>  <REMARK>
 VINA RESULT:      -8.1      2.135      7.384
  Name = 
  4 active torsions:
  status: ('A' for Active; 'I' for Inactive)
    1  A    between atoms: C_1  and  C_15
    2  A    between atoms: C_1  and  C_18
    3  A    between atoms: C_2  and  C_15
    4  A    between atoms: C_9  and  C_15
                            x       y       z     vdW  Elec       q    Type
                         _______ _______ _______ _____ _____    ______ ____

>  <TORSDO>
F 4

$$$$
=
 OpenBabel11052418263D

 27 30  0  0  1  0  0  0  0  0999 V2000
  188.9420  176.3760  145.0530 C   0  0  2  0  0  3  0  0  0  0  0  0
  189.0290  175.4640  143.8600 C   0  0  0  0  0  0  0  0  0  0  0  0
  187.9210  177.0750  142.2300 C   0  0  0  0  0  1  0  0  0  0  0  0
  189.6960  171.7690  141.0290 C   0  0  0  0  0  3  0  0  0  0  0  0
  189.1700  172.2730  139.8450 C   0  0  0  0  0  3  0  0  0  0  0  0
  189.5340  174.1750  143.8710 C   0  0  0  0  0  3  0  0  0  0  0  0
  188.4050  174.6140  140.4090 C   0  0  0  0  0  0  0  0  0  0  0  0
  187.8190  175.6910  139.8280 F   0  0  0  0  0  0  0  0  0  0  0  0
  188.7540  174.6830  141.7610 C   0  0  0  0  0  0  0  0  0  0  0  0
  188.6080  173.5170  139.5780 C   0  0  0  0  0  3  0  0  0  0  0  0
  189.3880  173.6650  142.5970 C   0  0  0  0  0  0  0  0  0  0  0  0
  188.5530  175.7720  142.5980 C   0  0  0  0  0  0  0  0  0  0  0  0
  189.7960  172.3860  142.2660 C   0  0  0  0  0  3  0  0  0  0  0  0
  192.9340  176.5750  146.7850 C   0  0  0  0  0  3  0  0  0  0  0  0
  190.2880  176.7120  145.7130 C   0  0  2  0  0  3  0  0  0  0  0  0
  191.4770  176.6070  144.7520 C   0  0  0  0  0  2  0  0  0  0  0  0
  192.8030  176.7300  145.4590 C   0  0  0  0  0  3  0  0  0  0  0  0
  191.7510  176.3690  147.6960 C   0  0  0  0  0  2  0  0  0  0  0  0
  190.5300  175.8440  146.9450 C   0  0  0  0  0  2  0  0  0  0  0  0
  187.7500  176.0950  145.9860 C   0  0  0  0  0  2  0  0  0  0  0  0
  183.9700  178.6670  145.9500 C   0  0  0  0  0  3  0  0  0  0  0  0
  184.5090  178.7070  144.5600 C   0  0  0  0  0  2  0  0  0  0  0  0
  186.6640  177.1240  145.9520 C   0  0  0  0  0  0  0  0  0  0  0  0
  184.4370  177.8470  146.8910 C   0  0  0  0  0  3  0  0  0  0  0  0
  185.9570  179.0650  144.5390 C   0  0  0  0  0  3  0  0  0  0  0  0
  186.8990  178.3300  145.1280 C   0  0  0  0  0  3  0  0  0  0  0  0
  185.5910  176.9400  146.7360 C   0  0  0  0  0  3  0  0  0  0  0  0
  1 20  1  1  0  0  0
  2  6  1  0  0  0  0
  2  1  1  0  0  0  0
  3 12  1  0  0  0  0
  4 13  2  0  0  0  0
  5  4  1  0  0  0  0
  7  9  2  0  0  0  0
  8  7  1  0  0  0  0
  9 11  1  0  0  0  0
  9 12  1  0  0  0  0
 10  5  2  0  0  0  0
 10  7  1  0  0  0  0
 11  6  2  0  0  0  0
 12  2  2  0  0  0  0
 13 11  1  0  0  0  0
 14 18  1  0  0  0  0
 15  1  1  6  0  0  0
 15 19  1  0  0  0  0
 16 17  1  0  0  0  0
 16 15  1  0  0  0  0
 17 14  2  0  0  0  0
 19 18  1  0  0  0  0
 21 24  2  0  0  0  0
 22 21  1  0  0  0  0
 23 20  1  0  0  0  0
 23 27  2  0  0  0  0
 25 22  1  0  0  0  0
 25 26  2  0  0  0  0
 26 23  1  0  0  0  0
 27 24  1  0  0  0  0
M  END
>  <MODEL>
7

>  <REMARK>
 VINA RESULT:      -8.0      1.736      6.747
  Name = 
  4 active torsions:
  status: ('A' for Active; 'I' for Inactive)
    1  A    between atoms: C_1  and  C_15
    2  A    between atoms: C_1  and  C_18
    3  A    between atoms: C_2  and  C_15
    4  A    between atoms: C_9  and  C_15
                            x       y       z     vdW  Elec       q    Type
                         _______ _______ _______ _____ _____    ______ ____

>  <TORSDO>
F 4

$$$$
=
 OpenBabel11052418263D

 27 30  0  0  1  0  0  0  0  0999 V2000
  189.7670  175.7470  144.3680 C   0  0  2  0  0  3  0  0  0  0  0  0
  188.4590  176.4400  144.6390 C   0  0  0  0  0  0  0  0  0  0  0  0
  188.5800  178.0010  142.6320 C   0  0  0  0  0  1  0  0  0  0  0  0
  184.4390  177.9180  146.5810 C   0  0  0  0  0  3  0  0  0  0  0  0
  184.0860  178.9150  145.6780 C   0  0  0  0  0  3  0  0  0  0  0  0
  187.6320  176.1970  145.7220 C   0  0  0  0  0  3  0  0  0  0  0  0
  185.9280  178.9180  143.9480 C   0  0  0  0  0  0  0  0  0  0  0  0
  186.2930  179.5620  142.8110 F   0  0  0  0  0  0  0  0  0  0  0  0
  186.7480  177.8970  144.4400 C   0  0  0  0  0  0  0  0  0  0  0  0
  184.7390  179.3480  144.5290 C   0  0  0  0  0  3  0  0  0  0  0  0
  186.5660  177.0700  145.6310 C   0  0  0  0  0  0  0  0  0  0  0  0
  187.9370  177.4640  143.8690 C   0  0  0  0  0  0  0  0  0  0  0  0
  185.5490  177.0890  146.5660 C   0  0  0  0  0  3  0  0  0  0  0  0
  193.4810  176.5040  146.5130 C   0  0  0  0  0  3  0  0  0  0  0  0
  190.9510  176.2450  145.2110 C   0  0  2  0  0  3  0  0  0  0  0  0
  192.1870  176.5940  144.3750 C   0  0  0  0  0  2  0  0  0  0  0  0
  193.3980  176.8750  145.2260 C   0  0  0  0  0  3  0  0  0  0  0  0
  192.3290  175.8690  147.2480 C   0  0  0  0  0  2  0  0  0  0  0  0
  191.3180  175.2360  146.2960 C   0  0  0  0  0  2  0  0  0  0  0  0
  190.0360  175.4490  142.8820 C   0  0  0  0  0  2  0  0  0  0  0  0
  190.3600  171.0070  141.8470 C   0  0  0  0  0  3  0  0  0  0  0  0
  190.1650  171.7190  140.5510 C   0  0  0  0  0  2  0  0  0  0  0  0
  189.9050  174.0100  142.4930 C   0  0  0  0  0  0  0  0  0  0  0  0
  190.5990  171.6370  142.9970 C   0  0  0  0  0  3  0  0  0  0  0  0
  188.9970  172.6470  140.6010 C   0  0  0  0  0  3  0  0  0  0  0  0
  188.9200  173.6780  141.4410 C   0  0  0  0  0  3  0  0  0  0  0  0
  190.6140  173.1010  143.1810 C   0  0  0  0  0  3  0  0  0  0  0  0
  1 20  1  6  0  0  0
  1  2  1  0  0  0  0
  2  6  1  0  0  0  0
  3 12  1  0  0  0  0
  5  4  1  0  0  0  0
  7  9  2  0  0  0  0
  7 10  1  0  0  0  0
  8  7  1  0  0  0  0
  9 11  1  0  0  0  0
 10  5  2  0  0  0  0
 11  6  2  0  0  0  0
 11 13  1  0  0  0  0
 12  9  1  0  0  0  0
 12  2  2  0  0  0  0
 13  4  2  0  0  0  0
 14 18  1  0  0  0  0
 15  1  1  6  0  0  0
 15 19  1  0  0  0  0
 16 15  1  0  0  0  0
 16 17  1  0  0  0  0
 17 14  2  0  0  0  0
 19 18  1  0  0  0  0
 21 24  2  0  0  0  0
 22 25  1  0  0  0  0
 22 21  1  0  0  0  0
 23 20  1  0  0  0  0
 23 27  2  0  0  0  0
 24 27  1  0  0  0  0
 25 26  2  0  0  0  0
 26 23  1  0  0  0  0
M  END
>  <MODEL>
8

>  <REMARK>
 VINA RESULT:      -7.8      1.303      3.976
  Name = 
  4 active torsions:
  status: ('A' for Active; 'I' for Inactive)
    1  A    between atoms: C_1  and  C_15
    2  A    between atoms: C_1  and  C_18
    3  A    between atoms: C_2  and  C_15
    4  A    between atoms: C_9  and  C_15
                            x       y       z     vdW  Elec       q    Type
                         _______ _______ _______ _____ _____    ______ ____

>  <TORSDO>
F 4

$$$$
=
 OpenBabel11052418263D

 27 30  0  0  1  0  0  0  0  0999 V2000
  188.3980  176.1080  143.6410 C   0  0  2  0  0  3  0  0  0  0  0  0
  189.7620  176.1840  144.2690 C   0  0  0  0  0  0  0  0  0  0  0  0
  189.0510  175.2550  146.5300 C   0  0  0  0  0  1  0  0  0  0  0  0
  194.3030  177.0500  145.1360 C   0  0  0  0  0  3  0  0  0  0  0  0
  194.3830  176.6220  146.4560 C   0  0  0  0  0  3  0  0  0  0  0  0
  190.8990  176.6860  143.6600 C   0  0  0  0  0  3  0  0  0  0  0  0
  192.0540  175.8300  147.0340 C   0  0  0  0  0  0  0  0  0  0  0  0
  191.3570  175.3010  148.0710 F   0  0  0  0  0  0  0  0  0  0  0  0
  191.3910  176.0700  145.8270 C   0  0  0  0  0  0  0  0  0  0  0  0
  193.3980  176.0880  147.2820 C   0  0  0  0  0  3  0  0  0  0  0  0
  191.9230  176.6270  144.5850 C   0  0  0  0  0  0  0  0  0  0  0  0
  190.0490  175.8190  145.5720 C   0  0  0  0  0  0  0  0  0  0  0  0
  193.2040  177.0570  144.2920 C   0  0  0  0  0  3  0  0  0  0  0  0
  188.5800  172.8590  140.7450 C   0  0  0  0  0  3  0  0  0  0  0  0
  188.1930  174.9290  142.6770 C   0  0  2  0  0  3  0  0  0  0  0  0
  188.9820  173.6760  143.0740 C   0  0  0  0  0  2  0  0  0  0  0  0
  188.9400  172.6070  142.0120 C   0  0  0  0  0  3  0  0  0  0  0  0
  188.0850  174.2100  140.2970 C   0  0  0  0  0  2  0  0  0  0  0  0
  188.5250  175.3260  141.2420 C   0  0  0  0  0  2  0  0  0  0  0  0
  187.8080  177.4680  143.2260 C   0  0  0  0  0  2  0  0  0  0  0  0
  184.8410  178.6080  146.5120 C   0  0  0  0  0  3  0  0  0  0  0  0
  184.0690  178.6260  145.2360 C   0  0  0  0  0  2  0  0  0  0  0  0
  186.8450  178.0630  144.2050 C   0  0  0  0  0  0  0  0  0  0  0  0
  186.0810  178.1320  146.6080 C   0  0  0  0  0  3  0  0  0  0  0  0
  184.7540  179.4380  144.1880 C   0  0  0  0  0  3  0  0  0  0  0  0
  185.9670  179.1490  143.7180 C   0  0  0  0  0  3  0  0  0  0  0  0
  186.8990  177.6470  145.4790 C   0  0  0  0  0  3  0  0  0  0  0  0
  1 20  1  6  0  0  0
  1  2  1  0  0  0  0
  2 12  1  0  0  0  0
  4  5  2  0  0  0  0
  5 10  1  0  0  0  0
  6  2  2  0  0  0  0
  6 11  1  0  0  0  0
  7 10  2  0  0  0  0
  7  8  1  0  0  0  0
  9  7  1  0  0  0  0
 11  9  1  0  0  0  0
 12  9  2  0  0  0  0
 12  3  1  0  0  0  0
 13 11  2  0  0  0  0
 13  4  1  0  0  0  0
 14 17  2  0  0  0  0
 15 16  1  0  0  0  0
 15  1  1  1  0  0  0
 17 16  1  0  0  0  0
 18 14  1  0  0  0  0
 18 19  1  0  0  0  0
 19 15  1  0  0  0  0
 20 23  1  0  0  0  0
 21 24  2  0  0  0  0
 22 21  1  0  0  0  0
 23 27  2  0  0  0  0
 25 22  1  0  0  0  0
 26 25  2  0  0  0  0
 26 23  1  0  0  0  0
 27 24  1  0  0  0  0
M  END
>  <MODEL>
9

>  <REMARK>
 VINA RESULT:      -7.8      2.117      6.892
  Name = 
  4 active torsions:
  status: ('A' for Active; 'I' for Inactive)
    1  A    between atoms: C_1  and  C_15
    2  A    between atoms: C_1  and  C_18
    3  A    between atoms: C_2  and  C_15
    4  A    between atoms: C_9  and  C_15
                            x       y       z     vdW  Elec       q    Type
                         _______ _______ _______ _____ _____    ______ ____

>  <TORSDO>
F 4

$$$$
