=
 OpenBabel11052421313D

 32 38  0  0  1  0  0  0  0  0999 V2000
  192.8190  174.6910  146.5150 C   0  0  1  0  0  3  0  0  0  0  0  0
  188.5930  176.7890  144.3480 C   0  0  0  0  0  0  0  0  0  0  0  0
  185.8820  178.2140  148.0800 C   0  0  0  0  0  3  0  0  0  0  0  0
  184.8270  178.6660  147.1850 C   0  0  0  0  0  3  0  0  0  0  0  0
  187.6810  176.9350  142.0290 C   0  0  0  0  0  0  0  0  0  0  0  0
  186.6290  177.2860  141.1610 C   0  0  0  0  0  0  0  0  0  0  0  0
  190.9400  175.9380  144.6180 C   0  0  1  0  0  3  0  0  0  0  0  0
  189.6820  177.0070  146.5400 C   0  0  0  0  0  2  0  0  0  0  0  0
  184.7250  178.0440  140.5320 C   0  0  0  0  0  0  0  0  0  0  0  0
  192.1680  175.9650  146.9030 C   0  0  2  0  0  3  0  0  0  0  0  0
  187.1110  177.7220  147.5440 C   0  0  0  0  0  3  0  0  0  0  0  0
  188.4540  177.1430  145.6580 N   0  0  0  0  0  0  0  0  0  0  0  0
  187.3090  177.5920  146.1720 C   0  0  0  0  0  0  0  0  0  0  0  0
  186.3860  177.7800  143.8840 C   0  0  0  0  0  0  0  0  0  0  0  0
  185.3850  177.6220  139.4760 N   0  0  0  0  0  0  0  0  0  0  0  0
  192.3400  173.8560  145.3330 C   0  0  0  0  0  2  0  0  0  0  0  0
  190.7120  175.9290  146.1410 C   0  0  2  0  0  3  0  0  0  0  0  0
  186.5890  177.1500  139.8490 N   0  0  0  0  0  0  0  0  0  0  0  0
  191.7260  174.7020  144.1080 C   0  0  0  0  0  2  0  0  0  0  0  0
  193.3020  176.0460  145.9690 C   0  0  1  0  0  3  0  0  0  0  0  0
  185.0510  178.4850  145.8120 C   0  0  0  0  0  3  0  0  0  0  0  0
  186.2420  177.9770  145.2690 C   0  0  0  0  0  0  0  0  0  0  0  0
  185.3080  178.0910  143.0000 C   0  0  0  0  0  3  0  0  0  0  0  0
  189.7110  175.9920  143.8530 C   0  0  0  0  0  2  0  0  0  0  0  0
  188.7800  176.2450  141.3850 O   0  0  0  0  0  1  0  0  0  0  0  0
  183.3490  178.6110  140.5130 C   0  0  0  0  0  1  0  0  0  0  0  0
  187.5490  177.1720  143.4300 C   0  0  0  0  0  0  0  0  0  0  0  0
  185.4970  177.8610  141.6610 C   0  0  0  0  0  0  0  0  0  0  0  0
  194.6400  175.8180  146.2370 O   0  0  0  0  0  0  0  0  0  0  0  0
  195.6610  175.3220  145.3800 C   0  0  0  0  0  0  0  0  0  0  0  0
  196.4410  174.1660  145.7630 C   0  0  0  0  0  1  0  0  0  0  0  0
  195.8730  175.9540  144.3340 O   0  0  0  0  0  0  0  0  0  0  0  0
  1 16  1  6  0  0  0
  1 10  1  0  0  0  0
  2 12  1  0  0  0  0
  4  3  2  0  0  0  0
  5 27  1  0  0  0  0
  6 28  1  0  0  0  0
  6  5  2  0  0  0  0
  7 24  1  6  0  0  0
  7 17  1  0  0  0  0
  9 28  2  0  0  0  0
 11  3  1  0  0  0  0
 12 13  1  0  0  0  0
 12  8  1  0  0  0  0
 13 11  2  0  0  0  0
 14 22  1  0  0  0  0
 15 18  2  0  0  0  0
 15  9  1  0  0  0  0
 17  8  1  0  0  0  0
 17 10  1  0  0  0  0
 18  6  1  0  0  0  0
 19  7  1  0  0  0  0
 19 16  1  0  0  0  0
 20 29  1  0  0  0  0
 20  1  1  0  0  0  0
 20 10  1  0  0  0  0
 21  4  1  0  0  0  0
 22 21  2  0  0  0  0
 22 13  1  0  0  0  0
 23 14  2  0  0  0  0
 24  2  1  0  0  0  0
 25  5  1  0  0  0  0
 26  9  1  0  0  0  0
 27 14  1  0  0  0  0
 27  2  2  0  0  0  0
 28 23  1  0  0  0  0
 30 31  1  0  0  0  0
 30 29  1  0  0  0  0
 32 30  2  0  0  0  0
M  END
>  <MODEL>
1

>  <REMARK>
 VINA RESULT:      -9.7      0.000      0.000
  Name = 
  2 active torsions:
  status: ('A' for Active; 'I' for Inactive)
    1  A    between atoms: C_1  and  O_10
    2  A    between atoms: O_10  and  C_24
                            x       y       z     vdW  Elec       q    Type
                         _______ _______ _______ _____ _____    ______ ____

>  <TORSDO>
F 2

$$$$
=
 OpenBabel11052421313D

 32 38  0  0  1  0  0  0  0  0999 V2000
  195.5130  175.4840  144.8050 C   0  0  1  0  0  3  0  0  0  0  0  0
  190.3820  176.2370  145.0700 C   0  0  0  0  0  0  0  0  0  0  0  0
  188.6940  174.6710  140.8250 C   0  0  0  0  0  3  0  0  0  0  0  0
  187.3370  175.0570  141.1840 C   0  0  0  0  0  3  0  0  0  0  0  0
  188.8410  177.3720  146.6720 C   0  0  0  0  0  0  0  0  0  0  0  0
  187.5480  177.8300  146.9900 C   0  0  0  0  0  0  0  0  0  0  0  0
  192.7680  175.9180  145.7860 C   0  0  1  0  0  3  0  0  0  0  0  0
  191.8330  174.7770  143.7250 C   0  0  0  0  0  2  0  0  0  0  0  0
  185.4460  178.1910  146.7760 C   0  0  0  0  0  0  0  0  0  0  0  0
  194.4570  174.5280  144.3930 C   0  0  2  0  0  3  0  0  0  0  0  0
  189.7510  174.8050  141.7780 C   0  0  0  0  0  3  0  0  0  0  0  0
  190.5080  175.4890  143.9360 N   0  0  0  0  0  0  0  0  0  0  0  0
  189.5340  175.3670  143.0340 C   0  0  0  0  0  0  0  0  0  0  0  0
  187.9720  176.4600  144.6120 C   0  0  0  0  0  0  0  0  0  0  0  0
  185.8480  178.6920  147.9230 N   0  0  0  0  0  0  0  0  0  0  0  0
  195.1910  176.8260  145.4520 C   0  0  0  0  0  2  0  0  0  0  0  0
  193.0810  175.4260  144.3610 C   0  0  2  0  0  3  0  0  0  0  0  0
  187.1660  178.4670  148.0820 N   0  0  0  0  0  0  0  0  0  0  0  0
  193.8710  176.8360  146.3740 C   0  0  0  0  0  2  0  0  0  0  0  0
  195.0110  174.3750  145.7470 C   0  0  1  0  0  3  0  0  0  0  0  0
  187.1680  175.6510  142.4440 C   0  0  0  0  0  3  0  0  0  0  0  0
  188.2000  175.8160  143.3820 C   0  0  0  0  0  0  0  0  0  0  0  0
  186.6740  176.9670  144.9250 C   0  0  0  0  0  3  0  0  0  0  0  0
  191.5230  176.6530  145.8790 C   0  0  0  0  0  2  0  0  0  0  0  0
  189.8630  177.7640  147.6200 O   0  0  0  0  0  1  0  0  0  0  0  0
  184.0570  178.2680  146.2480 C   0  0  0  0  0  1  0  0  0  0  0  0
  189.0630  176.6840  145.4420 C   0  0  0  0  0  0  0  0  0  0  0  0
  186.5140  177.6020  146.1300 C   0  0  0  0  0  0  0  0  0  0  0  0
  196.2740  173.9340  146.1040 O   0  0  0  0  0  0  0  0  0  0  0  0
  197.0010  172.8050  145.6380 C   0  0  0  0  0  0  0  0  0  0  0  0
  196.6780  171.4770  146.1120 C   0  0  0  0  0  1  0  0  0  0  0  0
  197.9410  173.0250  144.8590 O   0  0  0  0  0  0  0  0  0  0  0  0
  1 16  1  1  0  0  0
  1 20  1  0  0  0  0
  2 27  2  0  0  0  0
  2 24  1  0  0  0  0
  3  4  2  0  0  0  0
  3 11  1  0  0  0  0
  4 21  1  0  0  0  0
  5  6  2  0  0  0  0
  5 25  1  0  0  0  0
  6 18  1  0  0  0  0
  7 24  1  6  0  0  0
  7 19  1  0  0  0  0
  8 12  1  0  0  0  0
  8 17  1  0  0  0  0
  9 15  1  0  0  0  0
 10  1  1  0  0  0  0
 10 20  1  0  0  0  0
 11 13  2  0  0  0  0
 12  2  1  0  0  0  0
 13 22  1  0  0  0  0
 13 12  1  0  0  0  0
 14 23  2  0  0  0  0
 14 27  1  0  0  0  0
 15 18  2  0  0  0  0
 16 19  1  0  0  0  0
 17 10  1  0  0  0  0
 17  7  1  0  0  0  0
 20 29  1  0  0  0  0
 21 22  2  0  0  0  0
 22 14  1  0  0  0  0
 23 28  1  0  0  0  0
 26  9  1  0  0  0  0
 27  5  1  0  0  0  0
 28  9  2  0  0  0  0
 28  6  1  0  0  0  0
 30 29  1  0  0  0  0
 30 31  1  0  0  0  0
 32 30  2  0  0  0  0
M  END
>  <MODEL>
2

>  <REMARK>
 VINA RESULT:      -8.7      2.736      4.801
  Name = 
  2 active torsions:
  status: ('A' for Active; 'I' for Inactive)
    1  A    between atoms: C_1  and  O_10
    2  A    between atoms: O_10  and  C_24
                            x       y       z     vdW  Elec       q    Type
                         _______ _______ _______ _____ _____    ______ ____

>  <TORSDO>
F 2

$$$$
=
 OpenBabel11052421313D

 32 38  0  0  1  0  0  0  0  0999 V2000
  190.8080  172.1810  139.4810 C   0  0  1  0  0  3  0  0  0  0  0  0
  189.0510  175.3150  143.2290 C   0  0  0  0  0  0  0  0  0  0  0  0
  192.3510  174.9960  146.7390 C   0  0  0  0  0  3  0  0  0  0  0  0
  191.5750  175.8810  147.5960 C   0  0  0  0  0  3  0  0  0  0  0  0
  186.9420  176.5890  143.6260 C   0  0  0  0  0  0  0  0  0  0  0  0
  186.1420  177.3710  144.4810 C   0  0  0  0  0  0  0  0  0  0  0  0
  189.3740  174.2890  140.9600 C   0  0  1  0  0  3  0  0  0  0  0  0
  191.2610  174.4110  142.6480 C   0  0  0  0  0  2  0  0  0  0  0  0
  185.5600  178.4560  146.2360 C   0  0  0  0  0  0  0  0  0  0  0  0
  191.6030  173.1630  140.2560 C   0  0  2  0  0  3  0  0  0  0  0  0
  191.9180  174.7350  145.4030 C   0  0  0  0  0  3  0  0  0  0  0  0
  190.3110  175.0230  143.6620 N   0  0  0  0  0  0  0  0  0  0  0  0
  190.7230  175.2500  144.9090 C   0  0  0  0  0  0  0  0  0  0  0  0
  188.6560  176.5470  145.3260 C   0  0  0  0  0  0  0  0  0  0  0  0
  184.5950  178.5370  145.3470 N   0  0  0  0  0  0  0  0  0  0  0  0
  189.3020  172.0290  139.6580 C   0  0  0  0  0  2  0  0  0  0  0  0
  190.6280  173.5820  141.5110 C   0  0  2  0  0  3  0  0  0  0  0  0
  184.9440  177.8690  144.2320 N   0  0  0  0  0  0  0  0  0  0  0  0
  188.5220  173.3880  140.0300 C   0  0  0  0  0  2  0  0  0  0  0  0
  191.0800  173.6000  138.9520 C   0  0  1  0  0  3  0  0  0  0  0  0
  190.3600  176.3510  147.0740 C   0  0  0  0  0  3  0  0  0  0  0  0
  189.9050  176.0810  145.7730 C   0  0  0  0  0  0  0  0  0  0  0  0
  187.8190  177.3040  146.2010 C   0  0  0  0  0  3  0  0  0  0  0  0
  188.4870  174.7730  141.9980 C   0  0  0  0  0  2  0  0  0  0  0  0
  186.2960  176.2120  142.3860 O   0  0  0  0  0  1  0  0  0  0  0  0
  185.5210  179.0520  147.5990 C   0  0  0  0  0  1  0  0  0  0  0  0
  188.2250  176.1500  144.0670 C   0  0  0  0  0  0  0  0  0  0  0  0
  186.6030  177.7160  145.7180 C   0  0  0  0  0  0  0  0  0  0  0  0
  191.4830  173.1880  137.6940 O   0  0  0  0  0  0  0  0  0  0  0  0
  191.0360  173.6220  136.4150 C   0  0  0  0  0  0  0  0  0  0  0  0
  189.6990  174.1460  136.2440 C   0  0  0  0  0  1  0  0  0  0  0  0
  191.8240  173.4800  135.4670 O   0  0  0  0  0  0  0  0  0  0  0  0
  1 16  1  1  0  0  0
  1 10  1  0  0  0  0
  2 12  1  0  0  0  0
  2 27  2  0  0  0  0
  3  4  1  0  0  0  0
  5 27  1  0  0  0  0
  5  6  2  0  0  0  0
  6 28  1  0  0  0  0
  7 19  1  6  0  0  0
  7 17  1  0  0  0  0
  7 24  1  0  0  0  0
  8 12  1  0  0  0  0
  9 26  1  0  0  0  0
 10 17  1  0  0  0  0
 11  3  2  0  0  0  0
 12 13  1  0  0  0  0
 13 11  1  0  0  0  0
 13 22  2  0  0  0  0
 14 22  1  0  0  0  0
 14 23  2  0  0  0  0
 15  9  1  0  0  0  0
 16 19  1  0  0  0  0
 17  8  1  0  0  0  0
 18  6  1  0  0  0  0
 18 15  2  0  0  0  0
 20  1  1  0  0  0  0
 20 10  1  0  0  0  0
 21  4  2  0  0  0  0
 22 21  1  0  0  0  0
 24  2  1  0  0  0  0
 25  5  1  0  0  0  0
 27 14  1  0  0  0  0
 28 23  1  0  0  0  0
 28  9  2  0  0  0  0
 29 20  1  0  0  0  0
 30 29  1  0  0  0  0
 31 30  1  0  0  0  0
 32 30  2  0  0  0  0
M  END
>  <MODEL>
3

>  <REMARK>
 VINA RESULT:      -8.6      3.504      6.118
  Name = 
  2 active torsions:
  status: ('A' for Active; 'I' for Inactive)
    1  A    between atoms: C_1  and  O_10
    2  A    between atoms: O_10  and  C_24
                            x       y       z     vdW  Elec       q    Type
                         _______ _______ _______ _____ _____    ______ ____

>  <TORSDO>
F 2

$$$$
=
 OpenBabel11052421313D

 32 38  0  0  1  0  0  0  0  0999 V2000
  187.1160  176.6570  145.9260 C   0  0  1  0  0  3  0  0  0  0  0  0
  191.5130  175.6470  143.3570 C   0  0  0  0  0  0  0  0  0  0  0  0
  190.2410  172.4680  139.9520 C   0  0  0  0  0  3  0  0  0  0  0  0
  191.6170  172.3590  139.4910 C   0  0  0  0  0  3  0  0  0  0  0  0
  193.9220  176.2140  143.6810 C   0  0  0  0  0  0  0  0  0  0  0  0
  195.2680  176.0470  143.3010 C   0  0  0  0  0  0  0  0  0  0  0  0
  189.8400  176.8230  144.8140 C   0  0  1  0  0  3  0  0  0  0  0  0
  189.1250  175.4430  142.8120 C   0  0  0  0  0  2  0  0  0  0  0  0
  196.9580  175.3310  142.1950 C   0  0  0  0  0  0  0  0  0  0  0  0
  187.2820  176.5840  144.4540 C   0  0  2  0  0  3  0  0  0  0  0  0
  189.9030  173.4020  140.9800 C   0  0  0  0  0  3  0  0  0  0  0  0
  190.5720  175.0550  142.5660 N   0  0  0  0  0  0  0  0  0  0  0  0
  190.8740  174.1730  141.6130 C   0  0  0  0  0  0  0  0  0  0  0  0
  193.2690  174.7360  141.8870 C   0  0  0  0  0  0  0  0  0  0  0  0
  197.3810  176.1430  143.1380 N   0  0  0  0  0  0  0  0  0  0  0  0
  188.2880  176.5100  146.8880 C   0  0  0  0  0  2  0  0  0  0  0  0
  188.7570  175.8890  144.2420 C   0  0  2  0  0  3  0  0  0  0  0  0
  196.3320  176.6120  143.8400 N   0  0  0  0  0  0  0  0  0  0  0  0
  189.6930  177.0730  146.3370 C   0  0  0  0  0  2  0  0  0  0  0  0
  187.3590  177.9160  145.0740 C   0  0  1  0  0  3  0  0  0  0  0  0
  192.5700  173.1270  140.1780 C   0  0  0  0  0  3  0  0  0  0  0  0
  192.2600  174.0280  141.2090 C   0  0  0  0  0  0  0  0  0  0  0  0
  194.6390  174.5400  141.5390 C   0  0  0  0  0  3  0  0  0  0  0  0
  191.1880  176.3370  144.6000 C   0  0  0  0  0  2  0  0  0  0  0  0
  193.7340  177.0140  144.8740 O   0  0  0  0  0  1  0  0  0  0  0  0
  197.8320  174.6030  141.2350 C   0  0  0  0  0  1  0  0  0  0  0  0
  192.8960  175.5270  142.9670 C   0  0  0  0  0  0  0  0  0  0  0  0
  195.5820  175.2410  142.2460 C   0  0  0  0  0  0  0  0  0  0  0  0
  186.3320  178.6500  145.6410 O   0  0  0  0  0  0  0  0  0  0  0  0
  185.2620  179.3430  145.0110 C   0  0  0  0  0  0  0  0  0  0  0  0
  183.8890  179.0410  145.3530 C   0  0  0  0  0  1  0  0  0  0  0  0
  185.5660  180.1660  144.1330 O   0  0  0  0  0  0  0  0  0  0  0  0
  1 16  1  1  0  0  0
  2 24  1  0  0  0  0
  3 11  1  0  0  0  0
  4  3  2  0  0  0  0
  4 21  1  0  0  0  0
  5 25  1  0  0  0  0
  6  5  2  0  0  0  0
  6 18  1  0  0  0  0
  7 24  1  1  0  0  0
  7 19  1  0  0  0  0
  8 17  1  0  0  0  0
  9 28  2  0  0  0  0
  9 15  1  0  0  0  0
 10 20  1  0  0  0  0
 10  1  1  0  0  0  0
 11 13  2  0  0  0  0
 12  8  1  0  0  0  0
 12  2  1  0  0  0  0
 13 12  1  0  0  0  0
 14 27  1  0  0  0  0
 15 18  2  0  0  0  0
 17 10  1  0  0  0  0
 17  7  1  0  0  0  0
 19 16  1  0  0  0  0
 20 29  1  0  0  0  0
 20  1  1  0  0  0  0
 21 22  2  0  0  0  0
 22 13  1  0  0  0  0
 22 14  1  0  0  0  0
 23 14  2  0  0  0  0
 23 28  1  0  0  0  0
 26  9  1  0  0  0  0
 27  2  2  0  0  0  0
 27  5  1  0  0  0  0
 28  6  1  0  0  0  0
 30 31  1  0  0  0  0
 30 29  1  0  0  0  0
 32 30  2  0  0  0  0
M  END
>  <MODEL>
4

>  <REMARK>
 VINA RESULT:      -8.4      3.688      8.653
  Name = 
  2 active torsions:
  status: ('A' for Active; 'I' for Inactive)
    1  A    between atoms: C_1  and  O_10
    2  A    between atoms: O_10  and  C_24
                            x       y       z     vdW  Elec       q    Type
                         _______ _______ _______ _____ _____    ______ ____

>  <TORSDO>
F 2

$$$$
=
 OpenBabel11052421313D

 32 38  0  0  1  0  0  0  0  0999 V2000
  186.8870  178.2960  143.5600 C   0  0  1  0  0  3  0  0  0  0  0  0
  190.3380  174.4320  143.9070 C   0  0  0  0  0  0  0  0  0  0  0  0
  194.0930  176.3520  146.2580 C   0  0  0  0  0  3  0  0  0  0  0  0
  194.8460  175.1120  146.1380 C   0  0  0  0  0  3  0  0  0  0  0  0
  190.5160  172.1290  142.9630 C   0  0  0  0  0  0  0  0  0  0  0  0
  191.2710  170.9570  142.7630 C   0  0  0  0  0  0  0  0  0  0  0  0
  188.1520  175.6350  143.6230 C   0  0  1  0  0  3  0  0  0  0  0  0
  189.9660  176.5150  145.1590 C   0  0  0  0  0  2  0  0  0  0  0  0
  192.9230  169.5970  142.8900 C   0  0  0  0  0  0  0  0  0  0  0  0
  187.6690  177.9160  144.7610 C   0  0  2  0  0  3  0  0  0  0  0  0
  192.7430  176.4160  145.7950 C   0  0  0  0  0  3  0  0  0  0  0  0
  190.8760  175.3770  144.7310 N   0  0  0  0  0  0  0  0  0  0  0  0
  192.1380  175.3350  145.1590 C   0  0  0  0  0  0  0  0  0  0  0  0
  192.3370  173.0370  144.2630 C   0  0  0  0  0  0  0  0  0  0  0  0
  191.9620  169.0340  142.1910 N   0  0  0  0  0  0  0  0  0  0  0  0
  186.9590  177.5100  142.2560 C   0  0  0  0  0  2  0  0  0  0  0  0
  188.8270  176.8980  144.1900 C   0  0  2  0  0  3  0  0  0  0  0  0
  190.9090  169.8690  142.1070 N   0  0  0  0  0  0  0  0  0  0  0  0
  187.2060  175.9280  142.4300 C   0  0  0  0  0  2  0  0  0  0  0  0
  186.3100  177.3640  144.6410 C   0  0  1  0  0  3  0  0  0  0  0  0
  194.2130  174.0590  145.4590 C   0  0  0  0  0  3  0  0  0  0  0  0
  192.8970  174.1140  144.9730 C   0  0  0  0  0  0  0  0  0  0  0  0
  193.1100  171.8620  144.0160 C   0  0  0  0  0  3  0  0  0  0  0  0
  189.0960  174.6340  143.1690 C   0  0  0  0  0  2  0  0  0  0  0  0
  189.2510  172.1510  142.2580 O   0  0  0  0  0  1  0  0  0  0  0  0
  194.2480  168.9830  143.1730 C   0  0  0  0  0  1  0  0  0  0  0  0
  191.0700  173.2050  143.7180 C   0  0  0  0  0  0  0  0  0  0  0  0
  192.5190  170.8510  143.3020 C   0  0  0  0  0  0  0  0  0  0  0  0
  185.1070  178.0370  144.7560 O   0  0  0  0  0  0  0  0  0  0  0  0
  184.4400  178.5020  145.9230 C   0  0  0  0  0  0  0  0  0  0  0  0
  185.0190  178.2910  147.2320 C   0  0  0  0  0  1  0  0  0  0  0  0
  183.3340  179.0410  145.7610 O   0  0  0  0  0  0  0  0  0  0  0  0
  1 16  1  6  0  0  0
  1 20  1  0  0  0  0
  1 10  1  0  0  0  0
  2 12  1  0  0  0  0
  4  3  1  0  0  0  0
  5 27  1  0  0  0  0
  6  5  2  0  0  0  0
  6 28  1  0  0  0  0
  7 19  1  6  0  0  0
  7 17  1  0  0  0  0
  9 26  1  0  0  0  0
  9 28  2  0  0  0  0
 11  3  2  0  0  0  0
 12 13  1  0  0  0  0
 12  8  1  0  0  0  0
 13 11  1  0  0  0  0
 14 22  1  0  0  0  0
 15  9  1  0  0  0  0
 16 19  1  0  0  0  0
 17 10  1  0  0  0  0
 17  8  1  0  0  0  0
 18 15  2  0  0  0  0
 18  6  1  0  0  0  0
 20 29  1  0  0  0  0
 20 10  1  0  0  0  0
 21  4  2  0  0  0  0
 22 13  2  0  0  0  0
 22 21  1  0  0  0  0
 23 14  2  0  0  0  0
 24  7  1  0  0  0  0
 24  2  1  0  0  0  0
 25  5  1  0  0  0  0
 27  2  2  0  0  0  0
 27 14  1  0  0  0  0
 28 23  1  0  0  0  0
 29 30  1  0  0  0  0
 30 31  1  0  0  0  0
 32 30  2  0  0  0  0
M  END
>  <MODEL>
5

>  <REMARK>
 VINA RESULT:      -8.3      3.549      8.275
  Name = 
  2 active torsions:
  status: ('A' for Active; 'I' for Inactive)
    1  A    between atoms: C_1  and  O_10
    2  A    between atoms: O_10  and  C_24
                            x       y       z     vdW  Elec       q    Type
                         _______ _______ _______ _____ _____    ______ ____

>  <TORSDO>
F 2

$$$$
=
 OpenBabel11052421313D

 32 38  0  0  1  0  0  0  0  0999 V2000
  192.7300  173.8190  142.9530 C   0  0  1  0  0  3  0  0  0  0  0  0
  188.1580  176.2710  143.1640 C   0  0  0  0  0  0  0  0  0  0  0  0
  187.0780  176.4460  147.8670 C   0  0  0  0  0  3  0  0  0  0  0  0
  185.8040  177.0910  147.5840 C   0  0  0  0  0  3  0  0  0  0  0  0
  186.4840  177.0390  141.4800 C   0  0  0  0  0  0  0  0  0  0  0  0
  185.2150  177.5790  141.1930 C   0  0  0  0  0  0  0  0  0  0  0  0
  190.3820  175.4780  142.3070 C   0  0  1  0  0  3  0  0  0  0  0  0
  189.9770  175.8950  144.7740 C   0  0  0  0  0  2  0  0  0  0  0  0
  183.2680  178.4050  141.5420 C   0  0  0  0  0  0  0  0  0  0  0  0
  192.3500  174.8980  143.8950 C   0  0  2  0  0  3  0  0  0  0  0  0
  187.9950  176.1810  146.8040 C   0  0  0  0  0  3  0  0  0  0  0  0
  188.5250  176.2270  144.4770 N   0  0  0  0  0  0  0  0  0  0  0  0
  187.6760  176.4600  145.4770 C   0  0  0  0  0  0  0  0  0  0  0  0
  186.0040  177.2590  143.8370 C   0  0  0  0  0  0  0  0  0  0  0  0
  183.4730  178.3330  140.2460 N   0  0  0  0  0  0  0  0  0  0  0  0
  191.8020  173.3390  141.8430 C   0  0  0  0  0  2  0  0  0  0  0  0
  190.7180  175.0220  143.7400 C   0  0  2  0  0  3  0  0  0  0  0  0
  184.6960  177.8250  140.0040 N   0  0  0  0  0  0  0  0  0  0  0  0
  190.8470  174.4760  141.2200 C   0  0  0  0  0  2  0  0  0  0  0  0
  193.0740  175.2930  142.6770 C   0  0  1  0  0  3  0  0  0  0  0  0
  185.5050  177.3230  146.2330 C   0  0  0  0  0  3  0  0  0  0  0  0
  186.3830  177.0430  145.1740 C   0  0  0  0  0  0  0  0  0  0  0  0
  184.7040  177.7650  143.5330 C   0  0  0  0  0  3  0  0  0  0  0  0
  188.9660  175.6980  142.0920 C   0  0  0  0  0  2  0  0  0  0  0  0
  187.2270  176.6100  140.3130 O   0  0  0  0  0  1  0  0  0  0  0  0
  182.0200  178.8950  142.1870 C   0  0  0  0  0  1  0  0  0  0  0  0
  186.8820  176.8570  142.8380 C   0  0  0  0  0  0  0  0  0  0  0  0
  184.3820  177.9380  142.2110 C   0  0  0  0  0  0  0  0  0  0  0  0
  194.4000  175.0550  142.3620 O   0  0  0  0  0  0  0  0  0  0  0  0
  195.4590  175.9800  142.1530 C   0  0  0  0  0  0  0  0  0  0  0  0
  196.2390  176.4660  143.2700 C   0  0  0  0  0  1  0  0  0  0  0  0
  195.6390  176.3750  140.9910 O   0  0  0  0  0  0  0  0  0  0  0  0
  1 16  1  6  0  0  0
  1 10  1  0  0  0  0
  2 12  1  0  0  0  0
  4  3  1  0  0  0  0
  5 27  1  0  0  0  0
  6  5  2  0  0  0  0
  6 28  1  0  0  0  0
  7 19  1  6  0  0  0
  7 17  1  0  0  0  0
  9 26  1  0  0  0  0
  9 28  2  0  0  0  0
 11  3  2  0  0  0  0
 12  8  1  0  0  0  0
 12 13  1  0  0  0  0
 13 11  1  0  0  0  0
 14 22  1  0  0  0  0
 15  9  1  0  0  0  0
 17 10  1  0  0  0  0
 17  8  1  0  0  0  0
 18 15  2  0  0  0  0
 18  6  1  0  0  0  0
 19 16  1  0  0  0  0
 20  1  1  0  0  0  0
 20 10  1  0  0  0  0
 21  4  2  0  0  0  0
 22 13  2  0  0  0  0
 22 21  1  0  0  0  0
 23 14  2  0  0  0  0
 24  7  1  0  0  0  0
 24  2  1  0  0  0  0
 25  5  1  0  0  0  0
 27  2  2  0  0  0  0
 27 14  1  0  0  0  0
 28 23  1  0  0  0  0
 29 20  1  0  0  0  0
 30 29  1  0  0  0  0
 30 31  1  0  0  0  0
 32 30  2  0  0  0  0
M  END
>  <MODEL>
6

>  <REMARK>
 VINA RESULT:      -8.2      1.804      2.342
  Name = 
  2 active torsions:
  status: ('A' for Active; 'I' for Inactive)
    1  A    between atoms: C_1  and  O_10
    2  A    between atoms: O_10  and  C_24
                            x       y       z     vdW  Elec       q    Type
                         _______ _______ _______ _____ _____    ______ ____

>  <TORSDO>
F 2

$$$$
=
 OpenBabel11052421313D

 32 38  0  0  1  0  0  0  0  0999 V2000
  195.4670  172.7670  144.7730 C   0  0  1  0  0  3  0  0  0  0  0  0
  190.6870  174.7290  144.2630 C   0  0  0  0  0  0  0  0  0  0  0  0
  189.4640  173.7990  139.6860 C   0  0  0  0  0  3  0  0  0  0  0  0
  188.1910  174.4860  139.8510 C   0  0  0  0  0  3  0  0  0  0  0  0
  189.1910  176.1340  145.6830 C   0  0  0  0  0  0  0  0  0  0  0  0
  188.0030  176.8780  145.8240 C   0  0  0  0  0  0  0  0  0  0  0  0
  192.7680  173.8110  145.3280 C   0  0  1  0  0  3  0  0  0  0  0  0
  191.9750  173.0190  143.0550 C   0  0  0  0  0  2  0  0  0  0  0  0
  186.1140  177.7460  145.3020 C   0  0  0  0  0  0  0  0  0  0  0  0
  194.3100  172.1130  144.1160 C   0  0  2  0  0  3  0  0  0  0  0  0
  190.3360  173.6330  140.8050 C   0  0  0  0  0  3  0  0  0  0  0  0
  190.8360  174.0210  143.1060 N   0  0  0  0  0  0  0  0  0  0  0  0
  190.0360  174.1770  142.0510 C   0  0  0  0  0  0  0  0  0  0  0  0
  188.5140  175.5470  143.4400 C   0  0  0  0  0  0  0  0  0  0  0  0
  186.4120  178.0850  146.5370 N   0  0  0  0  0  0  0  0  0  0  0  0
  195.3550  174.1180  145.4680 C   0  0  0  0  0  2  0  0  0  0  0  0
  193.2060  173.3180  143.9370 C   0  0  2  0  0  3  0  0  0  0  0  0
  187.5920  177.5420  146.8890 N   0  0  0  0  0  0  0  0  0  0  0  0
  193.9310  174.4090  146.1620 C   0  0  0  0  0  2  0  0  0  0  0  0
  194.5640  171.7730  145.5250 C   0  0  1  0  0  3  0  0  0  0  0  0
  187.9430  175.0500  141.1110 C   0  0  0  0  0  3  0  0  0  0  0  0
  188.8020  174.9200  142.2150 C   0  0  0  0  0  0  0  0  0  0  0  0
  187.3350  176.3400  143.5800 C   0  0  0  0  0  3  0  0  0  0  0  0
  191.7310  174.8210  145.2790 C   0  0  0  0  0  2  0  0  0  0  0  0
  190.0910  176.2260  146.8140 O   0  0  0  0  0  1  0  0  0  0  0  0
  184.8970  178.1790  144.5650 C   0  0  0  0  0  1  0  0  0  0  0  0
  189.4620  175.4660  144.4520 C   0  0  0  0  0  0  0  0  0  0  0  0
  187.1150  176.9440  144.7920 C   0  0  0  0  0  0  0  0  0  0  0  0
  195.6060  171.0250  146.0440 O   0  0  0  0  0  0  0  0  0  0  0  0
  195.6090  169.6840  146.5140 C   0  0  0  0  0  0  0  0  0  0  0  0
  196.7950  169.1230  147.1240 C   0  0  0  0  0  1  0  0  0  0  0  0
  194.5760  169.0220  146.3290 O   0  0  0  0  0  0  0  0  0  0  0  0
  1 16  1  1  0  0  0
  1 20  1  0  0  0  0
  2 27  2  0  0  0  0
  2 24  1  0  0  0  0
  3  4  2  0  0  0  0
  3 11  1  0  0  0  0
  4 21  1  0  0  0  0
  5  6  2  0  0  0  0
  5 25  1  0  0  0  0
  6 18  1  0  0  0  0
  7 24  1  6  0  0  0
  7 19  1  0  0  0  0
  8 12  1  0  0  0  0
  8 17  1  0  0  0  0
  9 15  1  0  0  0  0
 10  1  1  0  0  0  0
 10 20  1  0  0  0  0
 11 13  2  0  0  0  0
 12  2  1  0  0  0  0
 13 22  1  0  0  0  0
 13 12  1  0  0  0  0
 14 23  2  0  0  0  0
 14 27  1  0  0  0  0
 15 18  2  0  0  0  0
 16 19  1  0  0  0  0
 17 10  1  0  0  0  0
 17  7  1  0  0  0  0
 20 29  1  0  0  0  0
 21 22  2  0  0  0  0
 22 14  1  0  0  0  0
 23 28  1  0  0  0  0
 26  9  1  0  0  0  0
 27  5  1  0  0  0  0
 28  9  2  0  0  0  0
 28  6  1  0  0  0  0
 29 30  1  0  0  0  0
 30 31  1  0  0  0  0
 32 30  2  0  0  0  0
M  END
>  <MODEL>
7

>  <REMARK>
 VINA RESULT:      -8.0      2.927      5.396
  Name = 
  2 active torsions:
  status: ('A' for Active; 'I' for Inactive)
    1  A    between atoms: C_1  and  O_10
    2  A    between atoms: O_10  and  C_24
                            x       y       z     vdW  Elec       q    Type
                         _______ _______ _______ _____ _____    ______ ____

>  <TORSDO>
F 2

$$$$
=
 OpenBabel11052421313D

 32 38  0  0  1  0  0  0  0  0999 V2000
  193.2340  172.5120  140.8940 C   0  0  1  0  0  3  0  0  0  0  0  0
  189.8490  175.6110  143.3240 C   0  0  0  0  0  0  0  0  0  0  0  0
  191.8660  176.4980  147.6200 C   0  0  0  0  0  3  0  0  0  0  0  0
  190.7140  177.2840  148.0370 C   0  0  0  0  0  3  0  0  0  0  0  0
  187.5310  176.4100  142.8560 C   0  0  0  0  0  0  0  0  0  0  0  0
  186.3750  177.0910  143.2850 C   0  0  0  0  0  0  0  0  0  0  0  0
  191.0530  174.4080  141.4780 C   0  0  1  0  0  3  0  0  0  0  0  0
  192.2540  175.1690  143.5760 C   0  0  0  0  0  2  0  0  0  0  0  0
  185.0830  178.2270  144.5630 C   0  0  0  0  0  0  0  0  0  0  0  0
  193.5540  173.7400  141.6620 C   0  0  2  0  0  3  0  0  0  0  0  0
  191.9340  175.9790  146.2910 C   0  0  0  0  0  3  0  0  0  0  0  0
  190.9380  175.6710  144.1430 N   0  0  0  0  0  0  0  0  0  0  0  0
  190.8850  176.1410  145.3890 C   0  0  0  0  0  0  0  0  0  0  0  0
  188.5960  176.9750  144.9490 C   0  0  0  0  0  0  0  0  0  0  0  0
  184.4520  177.9730  143.4380 N   0  0  0  0  0  0  0  0  0  0  0  0
  191.8020  172.0450  140.6620 C   0  0  0  0  0  2  0  0  0  0  0  0
  192.1720  174.0810  142.4850 C   0  0  2  0  0  3  0  0  0  0  0  0
  185.2510  177.2670  142.6160 N   0  0  0  0  0  0  0  0  0  0  0  0
  190.7150  173.2260  140.5320 C   0  0  0  0  0  2  0  0  0  0  0  0
  193.4020  173.8780  140.2050 C   0  0  1  0  0  3  0  0  0  0  0  0
  189.6640  177.3940  147.1120 C   0  0  0  0  0  3  0  0  0  0  0  0
  189.7010  176.8660  145.8120 C   0  0  0  0  0  0  0  0  0  0  0  0
  187.4040  177.6250  145.3890 C   0  0  0  0  0  3  0  0  0  0  0  0
  189.8110  174.8040  142.1090 C   0  0  0  0  0  2  0  0  0  0  0  0
  187.3910  175.7420  141.5790 O   0  0  0  0  0  1  0  0  0  0  0  0
  184.5080  178.9660  145.7200 C   0  0  0  0  0  1  0  0  0  0  0  0
  188.6660  176.3340  143.7180 C   0  0  0  0  0  0  0  0  0  0  0  0
  186.3520  177.6850  144.5130 C   0  0  0  0  0  0  0  0  0  0  0  0
  194.2500  173.4130  139.2150 O   0  0  0  0  0  0  0  0  0  0  0  0
  194.5170  173.9540  137.9270 C   0  0  0  0  0  0  0  0  0  0  0  0
  193.5710  174.8480  137.2960 C   0  0  0  0  0  1  0  0  0  0  0  0
  195.5610  173.5840  137.3680 O   0  0  0  0  0  0  0  0  0  0  0  0
  1 16  1  1  0  0  0
  1 10  1  0  0  0  0
  2 27  2  0  0  0  0
  2 12  1  0  0  0  0
  3  4  1  0  0  0  0
  5  6  2  0  0  0  0
  5 27  1  0  0  0  0
  6 28  1  0  0  0  0
  7 19  1  1  0  0  0
  7 24  1  0  0  0  0
  7 17  1  0  0  0  0
  8 12  1  0  0  0  0
  9 26  1  0  0  0  0
 10 17  1  0  0  0  0
 11  3  2  0  0  0  0
 12 13  1  0  0  0  0
 13 22  2  0  0  0  0
 13 11  1  0  0  0  0
 14 23  2  0  0  0  0
 14 22  1  0  0  0  0
 15  9  1  0  0  0  0
 17  8  1  0  0  0  0
 18  6  1  0  0  0  0
 18 15  2  0  0  0  0
 19 16  1  0  0  0  0
 20  1  1  0  0  0  0
 20 10  1  0  0  0  0
 21  4  2  0  0  0  0
 22 21  1  0  0  0  0
 24  2  1  0  0  0  0
 25  5  1  0  0  0  0
 27 14  1  0  0  0  0
 28  9  2  0  0  0  0
 28 23  1  0  0  0  0
 29 20  1  0  0  0  0
 30 29  1  0  0  0  0
 31 30  1  0  0  0  0
 32 30  2  0  0  0  0
M  END
>  <MODEL>
8

>  <REMARK>
 VINA RESULT:      -7.9      3.235      4.783
  Name = 
  2 active torsions:
  status: ('A' for Active; 'I' for Inactive)
    1  A    between atoms: C_1  and  O_10
    2  A    between atoms: O_10  and  C_24
                            x       y       z     vdW  Elec       q    Type
                         _______ _______ _______ _____ _____    ______ ____

>  <TORSDO>
F 2

$$$$
=
 OpenBabel11052421313D

 32 38  0  0  1  0  0  0  0  0999 V2000
  186.4420  176.7800  145.6900 C   0  0  1  0  0  3  0  0  0  0  0  0
  191.0360  174.9960  144.0540 C   0  0  0  0  0  0  0  0  0  0  0  0
  189.9590  171.9500  140.4660 C   0  0  0  0  0  3  0  0  0  0  0  0
  191.3630  171.6080  140.2900 C   0  0  0  0  0  3  0  0  0  0  0  0
  193.3920  175.1820  144.8550 C   0  0  0  0  0  0  0  0  0  0  0  0
  194.7410  174.7890  144.7520 C   0  0  0  0  0  0  0  0  0  0  0  0
  189.3220  176.4720  145.1460 C   0  0  1  0  0  3  0  0  0  0  0  0
  188.8020  175.1580  143.0420 C   0  0  0  0  0  2  0  0  0  0  0  0
  196.4770  173.7750  144.0070 C   0  0  0  0  0  0  0  0  0  0  0  0
  186.8820  176.6330  144.2820 C   0  0  2  0  0  3  0  0  0  0  0  0
  189.5820  172.9600  141.4040 C   0  0  0  0  0  3  0  0  0  0  0  0
  190.1860  174.5360  143.0910 N   0  0  0  0  0  0  0  0  0  0  0  0
  190.5220  173.5860  142.2190 C   0  0  0  0  0  0  0  0  0  0  0  0
  192.8740  173.7680  142.9670 C   0  0  0  0  0  0  0  0  0  0  0  0
  196.8320  174.5410  145.0150 N   0  0  0  0  0  0  0  0  0  0  0  0
  187.3620  176.4800  146.8680 C   0  0  0  0  0  2  0  0  0  0  0  0
  188.2360  175.7050  144.3700 C   0  0  2  0  0  3  0  0  0  0  0  0
  195.7560  175.1950  145.4930 N   0  0  0  0  0  0  0  0  0  0  0  0
  188.9200  176.7930  146.6090 C   0  0  0  0  0  2  0  0  0  0  0  0
  187.0510  177.9550  144.9040 C   0  0  1  0  0  3  0  0  0  0  0  0
  192.2740  172.2360  141.1530 C   0  0  0  0  0  3  0  0  0  0  0  0
  191.9170  173.2090  142.1010 C   0  0  0  0  0  0  0  0  0  0  0  0
  194.2360  173.3440  142.9000 C   0  0  0  0  0  3  0  0  0  0  0  0
  190.5880  175.7700  145.2080 C   0  0  0  0  0  2  0  0  0  0  0  0
  193.1060  176.0400  145.9860 O   0  0  0  0  0  1  0  0  0  0  0  0
  197.3930  172.8860  143.2420 C   0  0  0  0  0  1  0  0  0  0  0  0
  192.4300  174.6440  143.9500 C   0  0  0  0  0  0  0  0  0  0  0  0
  195.1220  173.9090  143.7820 C   0  0  0  0  0  0  0  0  0  0  0  0
  186.0660  178.8620  145.2530 O   0  0  0  0  0  0  0  0  0  0  0  0
  185.1510  179.5660  144.4230 C   0  0  0  0  0  0  0  0  0  0  0  0
  183.8250  179.0410  144.1830 C   0  0  0  0  0  1  0  0  0  0  0  0
  185.5650  180.6070  143.8880 O   0  0  0  0  0  0  0  0  0  0  0  0
  1 16  1  1  0  0  0
  2 24  1  0  0  0  0
  3 11  1  0  0  0  0
  4  3  2  0  0  0  0
  4 21  1  0  0  0  0
  5 25  1  0  0  0  0
  6  5  2  0  0  0  0
  6 18  1  0  0  0  0
  7 24  1  1  0  0  0
  7 19  1  0  0  0  0
  8 12  1  0  0  0  0
  8 17  1  0  0  0  0
  9 15  1  0  0  0  0
 10 17  1  0  0  0  0
 10 20  1  0  0  0  0
 10  1  1  0  0  0  0
 11 13  2  0  0  0  0
 12  2  1  0  0  0  0
 13 12  1  0  0  0  0
 14 27  1  0  0  0  0
 15 18  2  0  0  0  0
 17  7  1  0  0  0  0
 19 16  1  0  0  0  0
 20 29  1  0  0  0  0
 20  1  1  0  0  0  0
 21 22  2  0  0  0  0
 22 13  1  0  0  0  0
 22 14  1  0  0  0  0
 23 14  2  0  0  0  0
 23 28  1  0  0  0  0
 26  9  1  0  0  0  0
 27  2  2  0  0  0  0
 27  5  1  0  0  0  0
 28  9  2  0  0  0  0
 28  6  1  0  0  0  0
 30 29  1  0  0  0  0
 31 30  1  0  0  0  0
 32 30  2  0  0  0  0
M  END
>  <MODEL>
9

>  <REMARK>
 VINA RESULT:      -7.9      3.367      8.788
  Name = 
  2 active torsions:
  status: ('A' for Active; 'I' for Inactive)
    1  A    between atoms: C_1  and  O_10
    2  A    between atoms: O_10  and  C_24
                            x       y       z     vdW  Elec       q    Type
                         _______ _______ _______ _____ _____    ______ ____

>  <TORSDO>
F 2

$$$$
