=
 OpenBabel11052417223D

 30 34  0  0  1  0  0  0  0  0999 V2000
  189.7290  175.2150  144.9870 C   0  0  2  0  0  3  0  0  0  0  0  0
  192.7920  176.4650  143.6210 C   0  0  0  0  0  3  0  0  0  0  0  0
  189.6790  173.3350  142.8230 C   0  0  0  0  0  2  0  0  0  0  0  0
  188.9760  176.4340  144.4560 C   0  0  2  0  0  3  0  0  0  0  0  0
  189.9120  175.3790  146.5010 C   0  0  0  0  0  2  0  0  0  0  0  0
  185.9310  179.2910  143.1850 C   0  0  0  0  0  2  0  0  0  0  0  0
  187.6490  176.5950  146.5620 C   0  0  1  0  0  3  0  0  0  0  0  0
  187.6800  176.0080  142.2410 C   0  0  1  0  0  3  0  0  0  0  0  0
  187.7280  174.4770  142.1790 C   0  0  0  0  0  2  0  0  0  0  0  0
  188.5480  175.5200  147.2030 C   0  0  0  0  0  2  0  0  0  0  0  0
  187.5770  176.3270  145.0580 C   0  0  1  0  0  3  0  0  0  0  0  0
  193.1730  176.0310  142.4220 C   0  0  0  0  0  3  0  0  0  0  0  0
  186.4160  176.4270  142.8950 N   0  0  2  0  0  0  0  0  0  0  0  0
  186.0040  178.6270  141.8230 C   0  0  0  0  0  2  0  0  0  0  0  0
  192.2750  175.5420  144.6720 C   0  0  0  0  0  2  0  0  0  0  0  0
  190.9620  174.0380  143.1850 C   0  0  0  0  0  0  0  0  0  0  0  0
  193.0670  174.6320  141.9660 C   0  0  0  0  0  3  0  0  0  0  0  0
  190.9980  174.8900  144.2380 C   0  0  0  0  0  0  0  0  0  0  0  0
  189.8140  177.0230  142.3220 O   0  0  0  0  0  0  0  0  0  0  0  0
  189.0230  174.0020  141.7030 N   0  0  0  0  0  2  0  0  0  0  0  0
  188.8980  176.5240  142.9570 C   0  0  0  0  0  0  0  0  0  0  0  0
  185.5690  177.1710  141.9550 C   0  0  0  0  0  2  0  0  0  0  0  0
  186.8750  178.5780  144.1360 C   0  0  0  0  0  2  0  0  0  0  0  0
  192.1450  173.7330  142.3390 C   0  0  0  0  0  0  0  0  0  0  0  0
  192.2120  172.5080  141.7620 F   0  0  0  0  0  0  0  0  0  0  0  0
  186.5300  177.0830  144.2290 C   0  0  2  0  0  3  0  0  0  0  0  0
  186.2620  176.5310  147.1900 C   0  0  0  0  0  2  0  0  0  0  0  0
  186.0220  177.7160  148.1120 C   0  0  0  0  0  2  0  0  0  0  0  0
  185.3140  178.8290  147.3640 C   0  0  0  0  0  2  0  0  0  0  0  0
  184.1340  178.2570  146.6070 C   0  0  0  0  0  1  0  0  0  0  0  0
  1  5  1  1  0  0  0
  2 15  1  0  0  0  0
  3 16  1  0  0  0  0
  4 21  1  6  0  0  0
  4  1  1  0  0  0  0
  4 11  1  0  0  0  0
  5 10  1  0  0  0  0
  6 23  1  0  0  0  0
  7 27  1  1  0  0  0
  7 10  1  0  0  0  0
  8  9  1  1  0  0  0
  8 13  1  0  0  0  0
  8 21  1  0  0  0  0
 11  7  1  0  0  0  0
 12  2  2  0  0  0  0
 13 26  1  0  0  0  0
 14 22  1  0  0  0  0
 14  6  1  0  0  0  0
 16 18  2  0  0  0  0
 17 24  2  0  0  0  0
 17 12  1  0  0  0  0
 18 15  1  0  0  0  0
 18  1  1  0  0  0  0
 19 21  2  0  0  0  0
 20  9  1  0  0  0  0
 20  3  1  0  0  0  0
 22 13  1  0  0  0  0
 23 26  1  0  0  0  0
 24 16  1  0  0  0  0
 25 24  1  0  0  0  0
 26 11  1  0  0  0  0
 27 28  1  0  0  0  0
 29 28  1  0  0  0  0
 30 29  1  0  0  0  0
M  END
>  <MODEL>
1

>  <REMARK>
 VINA RESULT:      -8.2      0.000      0.000
  Name = 
  3 active torsions:
  status: ('A' for Active; 'I' for Inactive)
    1  A    between atoms: C_6  and  C_8
    2  A    between atoms: C_6  and  C_21
    3  A    between atoms: C_9  and  C_21
                            x       y       z     vdW  Elec       q    Type
                         _______ _______ _______ _____ _____    ______ ____

>  <TORSDO>
F 3

$$$$
=
 OpenBabel11052417223D

 30 34  0  0  1  0  0  0  0  0999 V2000
  188.7530  177.5320  144.3910 C   0  0  2  0  0  3  0  0  0  0  0  0
  186.0140  176.8040  146.5780 C   0  0  0  0  0  3  0  0  0  0  0  0
  186.9000  178.9990  142.7670 C   0  0  0  0  0  2  0  0  0  0  0  0
  188.7100  176.1080  143.8370 C   0  0  2  0  0  3  0  0  0  0  0  0
  189.9540  177.6470  145.3380 C   0  0  0  0  0  2  0  0  0  0  0  0
  189.2500  172.4830  141.4670 C   0  0  0  0  0  2  0  0  0  0  0  0
  191.2010  175.9800  143.8310 C   0  0  1  0  0  3  0  0  0  0  0  0
  187.4840  175.8890  141.5530 C   0  0  1  0  0  3  0  0  0  0  0  0
  187.3820  177.3640  141.1470 C   0  0  0  0  0  2  0  0  0  0  0  0
  191.2640  177.3150  144.6000 C   0  0  0  0  0  2  0  0  0  0  0  0
  189.9490  175.9910  142.9530 C   0  0  1  0  0  3  0  0  0  0  0  0
  184.7850  177.1220  146.1790 C   0  0  0  0  0  3  0  0  0  0  0  0
  188.7060  175.3040  140.9480 N   0  0  2  0  0  0  0  0  0  0  0  0
  188.0380  172.9300  140.6720 C   0  0  0  0  0  2  0  0  0  0  0  0
  187.1670  177.7380  146.4230 C   0  0  0  0  0  2  0  0  0  0  0  0
  186.5550  178.6630  144.1950 C   0  0  0  0  0  0  0  0  0  0  0  0
  184.4290  178.3750  145.4870 C   0  0  0  0  0  3  0  0  0  0  0  0
  187.4490  178.0130  144.9780 C   0  0  0  0  0  0  0  0  0  0  0  0
  186.4600  175.4020  143.6280 O   0  0  0  0  0  0  0  0  0  0  0  0
  186.2950  178.0370  141.8510 N   0  0  0  0  0  2  0  0  0  0  0  0
  187.4710  175.7750  143.0530 C   0  0  0  0  0  0  0  0  0  0  0  0
  188.3540  174.2540  139.9850 C   0  0  0  0  0  2  0  0  0  0  0  0
  189.5610  173.5260  142.5250 C   0  0  0  0  0  2  0  0  0  0  0  0
  185.2120  179.0920  144.6680 C   0  0  0  0  0  0  0  0  0  0  0  0
  184.6660  180.1980  144.1050 F   0  0  0  0  0  0  0  0  0  0  0  0
  189.7960  174.9030  141.8820 C   0  0  2  0  0  3  0  0  0  0  0  0
  192.4570  175.8280  142.9820 C   0  0  0  0  0  2  0  0  0  0  0  0
  193.2250  174.5720  143.3600 C   0  0  0  0  0  2  0  0  0  0  0  0
  192.5830  173.9040  144.5600 C   0  0  0  0  0  2  0  0  0  0  0  0
  193.5580  173.9060  145.7200 C   0  0  0  0  0  1  0  0  0  0  0  0
  1 18  1  0  0  0  0
  1  5  1  1  0  0  0
  3 16  1  0  0  0  0
  4 21  1  6  0  0  0
  4  1  1  0  0  0  0
  6 23  1  0  0  0  0
  7 27  1  6  0  0  0
  7 10  1  0  0  0  0
  8  9  1  1  0  0  0
  8 21  1  0  0  0  0
  9 20  1  0  0  0  0
 10  5  1  0  0  0  0
 11  7  1  0  0  0  0
 11  4  1  0  0  0  0
 12  2  2  0  0  0  0
 13  8  1  0  0  0  0
 13 26  1  0  0  0  0
 14  6  1  0  0  0  0
 15  2  1  0  0  0  0
 16 24  1  0  0  0  0
 16 18  2  0  0  0  0
 17 12  1  0  0  0  0
 18 15  1  0  0  0  0
 20  3  1  0  0  0  0
 21 19  2  0  0  0  0
 22 14  1  0  0  0  0
 22 13  1  0  0  0  0
 24 17  2  0  0  0  0
 25 24  1  0  0  0  0
 26 23  1  0  0  0  0
 26 11  1  0  0  0  0
 27 28  1  0  0  0  0
 28 29  1  0  0  0  0
 29 30  1  0  0  0  0
M  END
>  <MODEL>
2

>  <REMARK>
 VINA RESULT:      -8.1      2.589      6.369
  Name = 
  3 active torsions:
  status: ('A' for Active; 'I' for Inactive)
    1  A    between atoms: C_6  and  C_8
    2  A    between atoms: C_6  and  C_21
    3  A    between atoms: C_9  and  C_21
                            x       y       z     vdW  Elec       q    Type
                         _______ _______ _______ _____ _____    ______ ____

>  <TORSDO>
F 3

$$$$
=
 OpenBabel11052417223D

 30 34  0  0  1  0  0  0  0  0999 V2000
  192.5290  175.1140  146.1780 C   0  0  2  0  0  3  0  0  0  0  0  0
  195.3070  176.7090  144.5820 C   0  0  0  0  0  3  0  0  0  0  0  0
  193.7970  172.6080  145.5930 C   0  0  0  0  0  2  0  0  0  0  0  0
  191.6490  175.3940  144.9610 C   0  0  2  0  0  3  0  0  0  0  0  0
  192.1400  176.0910  147.2940 C   0  0  0  0  0  2  0  0  0  0  0  0
  188.4550  175.4580  141.9860 C   0  0  0  0  0  2  0  0  0  0  0  0
  189.7220  175.9900  146.4290 C   0  0  1  0  0  3  0  0  0  0  0  0
  191.3640  173.3630  143.3590 C   0  0  1  0  0  3  0  0  0  0  0  0
  191.9120  172.2340  144.2390 C   0  0  0  0  0  2  0  0  0  0  0  0
  190.6520  175.9380  147.6580 C   0  0  0  0  0  2  0  0  0  0  0  0
  190.2410  174.9920  145.3920 C   0  0  1  0  0  3  0  0  0  0  0  0
  196.1800  175.9510  143.9220 C   0  0  0  0  0  3  0  0  0  0  0  0
  189.8910  173.4340  143.5250 N   0  0  2  0  0  0  0  0  0  0  0  0
  189.1810  174.3080  141.3130 C   0  0  0  0  0  2  0  0  0  0  0  0
  194.7930  176.3390  145.9320 C   0  0  0  0  0  2  0  0  0  0  0  0
  194.5940  173.8870  145.5570 C   0  0  0  0  0  0  0  0  0  0  0  0
  196.6800  174.6470  144.3980 C   0  0  0  0  0  3  0  0  0  0  0  0
  194.0080  175.0650  145.8800 C   0  0  0  0  0  0  0  0  0  0  0  0
  192.9120  175.1090  142.9790 O   0  0  0  0  0  0  0  0  0  0  0  0
  193.3720  172.2280  144.2500 N   0  0  0  0  0  2  0  0  0  0  0  0
  192.0460  174.6570  143.7120 C   0  0  0  0  0  0  0  0  0  0  0  0
  189.2120  173.1150  142.2630 C   0  0  0  0  0  2  0  0  0  0  0  0
  189.2070  175.8490  143.2460 C   0  0  0  0  0  2  0  0  0  0  0  0
  196.0220  173.7640  145.1640 C   0  0  0  0  0  0  0  0  0  0  0  0
  196.6610  172.6030  145.4520 F   0  0  0  0  0  0  0  0  0  0  0  0
  189.3440  174.6480  144.1960 C   0  0  2  0  0  3  0  0  0  0  0  0
  188.3020  175.6400  146.8560 C   0  0  0  0  0  2  0  0  0  0  0  0
  187.4110  176.8710  146.8590 C   0  0  0  0  0  2  0  0  0  0  0  0
  186.5190  176.8770  145.6320 C   0  0  0  0  0  2  0  0  0  0  0  0
  186.7380  178.1600  144.8570 C   0  0  0  0  0  1  0  0  0  0  0  0
  1  5  1  1  0  0  0
  2 15  1  0  0  0  0
  4 21  1  6  0  0  0
  4 11  1  0  0  0  0
  4  1  1  0  0  0  0
  5 10  1  0  0  0  0
  6 23  1  0  0  0  0
  7 27  1  1  0  0  0
  7 10  1  0  0  0  0
  8 13  1  0  0  0  0
  8 21  1  0  0  0  0
  8  9  1  1  0  0  0
  9 20  1  0  0  0  0
 11  7  1  0  0  0  0
 12 17  1  0  0  0  0
 12  2  2  0  0  0  0
 13 26  1  0  0  0  0
 14  6  1  0  0  0  0
 14 22  1  0  0  0  0
 16  3  1  0  0  0  0
 16 18  2  0  0  0  0
 17 24  2  0  0  0  0
 18 15  1  0  0  0  0
 18  1  1  0  0  0  0
 19 21  2  0  0  0  0
 20  3  1  0  0  0  0
 22 13  1  0  0  0  0
 23 26  1  0  0  0  0
 24 25  1  0  0  0  0
 24 16  1  0  0  0  0
 26 11  1  0  0  0  0
 27 28  1  0  0  0  0
 29 28  1  0  0  0  0
 30 29  1  0  0  0  0
M  END
>  <MODEL>
3

>  <REMARK>
 VINA RESULT:      -7.9      2.561      3.929
  Name = 
  3 active torsions:
  status: ('A' for Active; 'I' for Inactive)
    1  A    between atoms: C_6  and  C_8
    2  A    between atoms: C_6  and  C_21
    3  A    between atoms: C_9  and  C_21
                            x       y       z     vdW  Elec       q    Type
                         _______ _______ _______ _____ _____    ______ ____

>  <TORSDO>
F 3

$$$$
=
 OpenBabel11052417223D

 30 34  0  0  1  0  0  0  0  0999 V2000
  192.1340  176.2270  145.4530 C   0  0  2  0  0  3  0  0  0  0  0  0
  189.0600  175.8980  147.2570 C   0  0  0  0  0  3  0  0  0  0  0  0
  190.5690  177.0010  143.1780 C   0  0  0  0  0  2  0  0  0  0  0  0
  192.2510  174.7070  145.3430 C   0  0  2  0  0  3  0  0  0  0  0  0
  193.1290  176.7140  146.5150 C   0  0  0  0  0  2  0  0  0  0  0  0
  193.3670  170.6260  144.2720 C   0  0  0  0  0  2  0  0  0  0  0  0
  194.7000  174.8110  145.8000 C   0  0  1  0  0  3  0  0  0  0  0  0
  191.4890  173.7420  143.0500 C   0  0  1  0  0  3  0  0  0  0  0  0
  191.4110  175.0270  142.2180 C   0  0  0  0  0  2  0  0  0  0  0  0
  194.5660  176.3080  146.1410 C   0  0  0  0  0  2  0  0  0  0  0  0
  193.6380  174.4590  144.7570 C   0  0  1  0  0  3  0  0  0  0  0  0
  187.9170  175.9770  146.5790 C   0  0  0  0  0  3  0  0  0  0  0  0
  192.8250  173.1240  142.8620 N   0  0  2  0  0  0  0  0  0  0  0  0
  192.3120  170.7180  143.1860 C   0  0  0  0  0  2  0  0  0  0  0  0
  190.1850  176.8520  147.0330 C   0  0  0  0  0  2  0  0  0  0  0  0
  189.9720  177.0520  144.5610 C   0  0  0  0  0  0  0  0  0  0  0  0
  187.6520  176.9470  145.4990 C   0  0  0  0  0  3  0  0  0  0  0  0
  190.7250  176.7330  145.6410 C   0  0  0  0  0  0  0  0  0  0  0  0
  190.1100  173.7680  144.9700 O   0  0  0  0  0  0  0  0  0  0  0  0
  190.1850  175.7690  142.4960 N   0  0  0  0  0  2  0  0  0  0  0  0
  191.1960  174.0550  144.4920 C   0  0  0  0  0  0  0  0  0  0  0  0
  192.7020  171.8180  142.2040 C   0  0  0  0  0  2  0  0  0  0  0  0
  193.4320  171.9490  145.0130 C   0  0  0  0  0  2  0  0  0  0  0  0
  188.5490  177.4720  144.6520 C   0  0  0  0  0  0  0  0  0  0  0  0
  188.0770  178.3190  143.7040 F   0  0  0  0  0  0  0  0  0  0  0  0
  193.7330  173.1040  144.0440 C   0  0  2  0  0  3  0  0  0  0  0  0
  196.1000  174.5410  145.2600 C   0  0  0  0  0  2  0  0  0  0  0  0
  196.8430  173.5450  146.1360 C   0  0  0  0  0  2  0  0  0  0  0  0
  197.1910  172.3020  145.3390 C   0  0  0  0  0  2  0  0  0  0  0  0
  196.8160  171.0710  146.1380 C   0  0  0  0  0  1  0  0  0  0  0  0
  1 18  1  0  0  0  0
  1  5  1  1  0  0  0
  3 16  1  0  0  0  0
  4 21  1  6  0  0  0
  4  1  1  0  0  0  0
  6 23  1  0  0  0  0
  7 27  1  6  0  0  0
  7 10  1  0  0  0  0
  8  9  1  6  0  0  0
  8 21  1  0  0  0  0
  9 20  1  0  0  0  0
 10  5  1  0  0  0  0
 11  4  1  0  0  0  0
 11  7  1  0  0  0  0
 12  2  2  0  0  0  0
 13  8  1  0  0  0  0
 13 26  1  0  0  0  0
 14  6  1  0  0  0  0
 15  2  1  0  0  0  0
 16 24  1  0  0  0  0
 16 18  2  0  0  0  0
 17 12  1  0  0  0  0
 18 15  1  0  0  0  0
 20  3  1  0  0  0  0
 21 19  2  0  0  0  0
 22 13  1  0  0  0  0
 22 14  1  0  0  0  0
 24 17  2  0  0  0  0
 25 24  1  0  0  0  0
 26 11  1  0  0  0  0
 26 23  1  0  0  0  0
 27 28  1  0  0  0  0
 29 28  1  0  0  0  0
 29 30  1  0  0  0  0
M  END
>  <MODEL>
4

>  <REMARK>
 VINA RESULT:      -7.7      3.177      7.421
  Name = 
  3 active torsions:
  status: ('A' for Active; 'I' for Inactive)
    1  A    between atoms: C_6  and  C_8
    2  A    between atoms: C_6  and  C_21
    3  A    between atoms: C_9  and  C_21
                            x       y       z     vdW  Elec       q    Type
                         _______ _______ _______ _____ _____    ______ ____

>  <TORSDO>
F 3

$$$$
=
 OpenBabel11052417223D

 30 34  0  0  1  0  0  0  0  0999 V2000
  189.5810  174.5720  144.2250 C   0  0  2  0  0  3  0  0  0  0  0  0
  188.2790  177.0500  141.9940 C   0  0  0  0  0  3  0  0  0  0  0  0
  188.3360  176.0250  146.3610 C   0  0  0  0  0  2  0  0  0  0  0  0
  190.9790  175.1780  144.1090 C   0  0  2  0  0  3  0  0  0  0  0  0
  189.5420  173.2810  143.3980 C   0  0  0  0  0  2  0  0  0  0  0  0
  195.1720  176.2560  144.6630 C   0  0  0  0  0  2  0  0  0  0  0  0
  192.0100  172.9100  144.0090 C   0  0  1  0  0  3  0  0  0  0  0  0
  191.6420  176.7210  146.0960 C   0  0  1  0  0  3  0  0  0  0  0  0
  190.5400  176.3690  147.1020 C   0  0  0  0  0  2  0  0  0  0  0  0
  190.6060  172.2840  143.8930 C   0  0  0  0  0  2  0  0  0  0  0  0
  191.8960  174.1950  144.8300 C   0  0  1  0  0  3  0  0  0  0  0  0
  187.7220  178.1400  142.5150 C   0  0  0  0  0  3  0  0  0  0  0  0
  192.8300  175.8720  146.3630 N   0  0  2  0  0  0  0  0  0  0  0  0
  194.6760  177.3440  145.5970 C   0  0  0  0  0  2  0  0  0  0  0  0
  187.9900  175.6830  142.5150 C   0  0  0  0  0  2  0  0  0  0  0  0
  187.9030  176.2560  144.9360 C   0  0  0  0  0  0  0  0  0  0  0  0
  186.8280  178.1420  143.6890 C   0  0  0  0  0  3  0  0  0  0  0  0
  188.4560  175.5340  143.9300 C   0  0  0  0  0  0  0  0  0  0  0  0
  190.8210  177.5390  144.0360 O   0  0  0  0  0  0  0  0  0  0  0  0
  189.2880  177.0480  146.7820 N   0  0  0  0  0  2  0  0  0  0  0  0
  191.1190  176.5560  144.6950 C   0  0  0  0  0  0  0  0  0  0  0  0
  193.9690  176.6960  146.7840 C   0  0  0  0  0  2  0  0  0  0  0  0
  193.9840  175.4590  144.1550 C   0  0  0  0  0  2  0  0  0  0  0  0
  186.8550  177.2880  144.7210 C   0  0  0  0  0  0  0  0  0  0  0  0
  185.9610  177.4980  145.7180 F   0  0  0  0  0  0  0  0  0  0  0  0
  193.1860  174.8630  145.3270 C   0  0  2  0  0  3  0  0  0  0  0  0
  192.9490  171.9170  144.6830 C   0  0  0  0  0  2  0  0  0  0  0  0
  194.0020  171.4110  143.7110 C   0  0  0  0  0  2  0  0  0  0  0  0
  195.3490  172.0340  144.0240 C   0  0  0  0  0  2  0  0  0  0  0  0
  195.5650  172.0430  145.5230 C   0  0  0  0  0  1  0  0  0  0  0  0
  1  5  1  6  0  0  0
  2 15  1  0  0  0  0
  2 12  2  0  0  0  0
  3 20  1  0  0  0  0
  4  1  1  0  0  0  0
  4 21  1  1  0  0  0
  4 11  1  0  0  0  0
  5 10  1  0  0  0  0
  6 14  1  0  0  0  0
  7 27  1  1  0  0  0
  7 11  1  0  0  0  0
  8 13  1  0  0  0  0
  8  9  1  1  0  0  0
 10  7  1  0  0  0  0
 11 26  1  0  0  0  0
 12 17  1  0  0  0  0
 13 22  1  0  0  0  0
 14 22  1  0  0  0  0
 15 18  1  0  0  0  0
 16  3  1  0  0  0  0
 17 24  2  0  0  0  0
 18  1  1  0  0  0  0
 18 16  2  0  0  0  0
 19 21  2  0  0  0  0
 20  9  1  0  0  0  0
 21  8  1  0  0  0  0
 23  6  1  0  0  0  0
 23 26  1  0  0  0  0
 24 16  1  0  0  0  0
 24 25  1  0  0  0  0
 26 13  1  0  0  0  0
 28 29  1  0  0  0  0
 28 27  1  0  0  0  0
 29 30  1  0  0  0  0
M  END
>  <MODEL>
5

>  <REMARK>
 VINA RESULT:      -7.4      2.949      7.070
  Name = 
  3 active torsions:
  status: ('A' for Active; 'I' for Inactive)
    1  A    between atoms: C_6  and  C_8
    2  A    between atoms: C_6  and  C_21
    3  A    between atoms: C_9  and  C_21
                            x       y       z     vdW  Elec       q    Type
                         _______ _______ _______ _____ _____    ______ ____

>  <TORSDO>
F 3

$$$$
=
 OpenBabel11052417223D

 30 34  0  0  1  0  0  0  0  0999 V2000
  188.8740  175.7670  142.7270 C   0  0  2  0  0  3  0  0  0  0  0  0
  189.6940  172.4340  143.7440 C   0  0  0  0  0  3  0  0  0  0  0  0
  191.3550  176.5990  143.9020 C   0  0  0  0  0  2  0  0  0  0  0  0
  187.8540  175.8790  143.8590 C   0  0  2  0  0  3  0  0  0  0  0  0
  188.1160  175.5690  141.4090 C   0  0  0  0  0  2  0  0  0  0  0  0
  184.9810  177.2850  146.8290 C   0  0  0  0  0  2  0  0  0  0  0  0
  186.2400  177.0470  142.3590 C   0  0  1  0  0  3  0  0  0  0  0  0
  188.7150  177.1700  145.9480 C   0  0  1  0  0  3  0  0  0  0  0  0
  189.9840  177.8130  145.3760 C   0  0  0  0  0  2  0  0  0  0  0  0
  187.1510  176.7420  141.1530 C   0  0  0  0  0  2  0  0  0  0  0  0
  187.1210  177.1920  143.6020 C   0  0  1  0  0  3  0  0  0  0  0  0
  190.7400  172.2570  144.5460 C   0  0  0  0  0  3  0  0  0  0  0  0
  187.5890  178.1290  145.8240 N   0  0  2  0  0  0  0  0  0  0  0  0
  186.1680  177.4820  147.7530 C   0  0  0  0  0  2  0  0  0  0  0  0
  189.7450  173.3380  142.5580 C   0  0  0  0  0  2  0  0  0  0  0  0
  191.1220  175.1460  143.5710 C   0  0  0  0  0  0  0  0  0  0  0  0
  192.0260  172.9670  144.4110 C   0  0  0  0  0  3  0  0  0  0  0  0
  189.9710  174.7600  142.9720 C   0  0  0  0  0  0  0  0  0  0  0  0
  188.6940  174.8110  145.7980 O   0  0  0  0  0  0  0  0  0  0  0  0
  191.0840  176.8560  145.3120 N   0  0  0  0  0  2  0  0  0  0  0  0
  188.4440  175.8690  145.2420 C   0  0  0  0  0  0  0  0  0  0  0  0
  187.1010  178.5270  147.1490 C   0  0  0  0  0  2  0  0  0  0  0  0
  185.4780  176.7860  145.4840 C   0  0  0  0  0  2  0  0  0  0  0  0
  192.2150  174.2040  143.9290 C   0  0  0  0  0  0  0  0  0  0  0  0
  193.4850  174.6790  143.9330 F   0  0  0  0  0  0  0  0  0  0  0  0
  186.4950  177.7680  144.8790 C   0  0  2  0  0  3  0  0  0  0  0  0
  185.4640  178.3310  142.0920 C   0  0  0  0  0  2  0  0  0  0  0  0
  185.0680  178.4380  140.6280 C   0  0  0  0  0  2  0  0  0  0  0  0
  183.6240  178.0120  140.4430 C   0  0  0  0  0  2  0  0  0  0  0  0
  182.8430  178.3130  141.7050 C   0  0  0  0  0  1  0  0  0  0  0  0
  1  5  1  6  0  0  0
  1 18  1  0  0  0  0
  1  4  1  0  0  0  0
  2 12  2  0  0  0  0
  3 20  1  0  0  0  0
  4 21  1  1  0  0  0
  6 14  1  0  0  0  0
  7 27  1  6  0  0  0
  7 11  1  0  0  0  0
  8  9  1  6  0  0  0
 10  5  1  0  0  0  0
 10  7  1  0  0  0  0
 11  4  1  0  0  0  0
 11 26  1  0  0  0  0
 13  8  1  0  0  0  0
 13 22  1  0  0  0  0
 15 18  1  0  0  0  0
 15  2  1  0  0  0  0
 16  3  1  0  0  0  0
 16 24  1  0  0  0  0
 17 12  1  0  0  0  0
 18 16  2  0  0  0  0
 20  9  1  0  0  0  0
 21 19  2  0  0  0  0
 21  8  1  0  0  0  0
 22 14  1  0  0  0  0
 23  6  1  0  0  0  0
 24 25  1  0  0  0  0
 24 17  2  0  0  0  0
 26 23  1  0  0  0  0
 26 13  1  0  0  0  0
 28 27  1  0  0  0  0
 29 28  1  0  0  0  0
 29 30  1  0  0  0  0
M  END
>  <MODEL>
6

>  <REMARK>
 VINA RESULT:      -7.3      2.037      4.366
  Name = 
  3 active torsions:
  status: ('A' for Active; 'I' for Inactive)
    1  A    between atoms: C_6  and  C_8
    2  A    between atoms: C_6  and  C_21
    3  A    between atoms: C_9  and  C_21
                            x       y       z     vdW  Elec       q    Type
                         _______ _______ _______ _____ _____    ______ ____

>  <TORSDO>
F 3

$$$$
=
 OpenBabel11052417223D

 30 34  0  0  1  0  0  0  0  0999 V2000
  189.7500  174.5730  144.4100 C   0  0  2  0  0  3  0  0  0  0  0  0
  187.9080  177.4460  143.3300 C   0  0  0  0  0  3  0  0  0  0  0  0
  188.9800  175.2450  147.0900 C   0  0  0  0  0  2  0  0  0  0  0  0
  191.0680  175.3150  144.1900 C   0  0  2  0  0  3  0  0  0  0  0  0
  189.5620  173.5690  143.2670 C   0  0  0  0  0  2  0  0  0  0  0  0
  195.2460  176.5790  144.1520 C   0  0  0  0  0  2  0  0  0  0  0  0
  192.1140  173.2720  143.2140 C   0  0  1  0  0  3  0  0  0  0  0  0
  192.1200  176.2920  146.3600 C   0  0  1  0  0  3  0  0  0  0  0  0
  191.2840  175.5710  147.4240 C   0  0  0  0  0  2  0  0  0  0  0  0
  190.7380  172.5760  143.2130 C   0  0  0  0  0  2  0  0  0  0  0  0
  192.1530  174.2590  144.3820 C   0  0  1  0  0  3  0  0  0  0  0  0
  187.4530  178.2890  144.2540 C   0  0  0  0  0  3  0  0  0  0  0  0
  193.3600  175.5170  146.1120 N   0  0  2  0  0  0  0  0  0  0  0  0
  194.9430  177.3090  145.4470 C   0  0  0  0  0  2  0  0  0  0  0  0
  187.7840  175.9670  143.4740 C   0  0  0  0  0  2  0  0  0  0  0  0
  188.2300  175.8260  145.9180 C   0  0  0  0  0  0  0  0  0  0  0  0
  186.8480  177.8780  145.5350 C   0  0  0  0  0  3  0  0  0  0  0  0
  188.5620  175.4700  144.6530 C   0  0  0  0  0  0  0  0  0  0  0  0
  190.8310  177.5760  144.8500 O   0  0  0  0  0  0  0  0  0  0  0  0
  189.9730  176.1930  147.5860 N   0  0  0  0  0  2  0  0  0  0  0  0
  191.2980  176.4790  145.1140 C   0  0  0  0  0  0  0  0  0  0  0  0
  194.5420  176.2920  146.5100 C   0  0  0  0  0  2  0  0  0  0  0  0
  193.9970  175.8500  143.6910 C   0  0  0  0  0  2  0  0  0  0  0  0
  187.1320  176.7740  146.2410 C   0  0  0  0  0  0  0  0  0  0  0  0
  186.4810  176.6120  147.4190 F   0  0  0  0  0  0  0  0  0  0  0  0
  193.5010  174.8770  144.7740 C   0  0  2  0  0  3  0  0  0  0  0  0
  193.2090  172.2220  143.3550 C   0  0  0  0  0  2  0  0  0  0  0  0
  192.7430  171.0550  144.2100 C   0  0  0  0  0  2  0  0  0  0  0  0
  193.9030  170.4900  145.0070 C   0  0  0  0  0  2  0  0  0  0  0  0
  194.8350  171.6160  145.4070 C   0  0  0  0  0  1  0  0  0  0  0  0
  1  5  1  6  0  0  0
  1 18  1  0  0  0  0
  2 15  1  0  0  0  0
  2 12  2  0  0  0  0
  3 20  1  0  0  0  0
  4 11  1  0  0  0  0
  4  1  1  0  0  0  0
  4 21  1  1  0  0  0
  6 14  1  0  0  0  0
  7 27  1  1  0  0  0
  7 11  1  0  0  0  0
  8  9  1  1  0  0  0
  9 20  1  0  0  0  0
 10  7  1  0  0  0  0
 10  5  1  0  0  0  0
 11 26  1  0  0  0  0
 12 17  1  0  0  0  0
 13  8  1  0  0  0  0
 13 22  1  0  0  0  0
 14 22  1  0  0  0  0
 15 18  1  0  0  0  0
 16 24  1  0  0  0  0
 16  3  1  0  0  0  0
 17 24  2  0  0  0  0
 18 16  2  0  0  0  0
 19 21  2  0  0  0  0
 21  8  1  0  0  0  0
 23  6  1  0  0  0  0
 23 26  1  0  0  0  0
 24 25  1  0  0  0  0
 26 13  1  0  0  0  0
 27 28  1  0  0  0  0
 28 29  1  0  0  0  0
 29 30  1  0  0  0  0
M  END
>  <MODEL>
7

>  <REMARK>
 VINA RESULT:      -7.2      3.019      7.167
  Name = 
  3 active torsions:
  status: ('A' for Active; 'I' for Inactive)
    1  A    between atoms: C_6  and  C_8
    2  A    between atoms: C_6  and  C_21
    3  A    between atoms: C_9  and  C_21
                            x       y       z     vdW  Elec       q    Type
                         _______ _______ _______ _____ _____    ______ ____

>  <TORSDO>
F 3

$$$$
=
 OpenBabel11052417223D

 30 34  0  0  1  0  0  0  0  0999 V2000
  187.4280  175.6570  143.5940 C   0  0  2  0  0  3  0  0  0  0  0  0
  186.2990  178.9340  142.7010 C   0  0  0  0  0  3  0  0  0  0  0  0
  186.7270  176.2920  146.3010 C   0  0  0  0  0  2  0  0  0  0  0  0
  188.8830  176.1040  143.4570 C   0  0  2  0  0  3  0  0  0  0  0  0
  187.0660  174.8020  142.3730 C   0  0  0  0  0  2  0  0  0  0  0  0
  193.2340  176.4150  143.5990 C   0  0  0  0  0  2  0  0  0  0  0  0
  189.4920  173.9540  142.3490 C   0  0  1  0  0  3  0  0  0  0  0  0
  190.0430  176.6690  145.7170 C   0  0  1  0  0  3  0  0  0  0  0  0
  189.0330  176.0770  146.7050 C   0  0  0  0  0  2  0  0  0  0  0  0
  187.9990  173.5810  142.2670 C   0  0  0  0  0  2  0  0  0  0  0  0
  189.7030  174.8230  143.5900 C   0  0  1  0  0  3  0  0  0  0  0  0
  186.0050  179.7900  143.6770 C   0  0  0  0  0  3  0  0  0  0  0  0
  191.0930  175.6590  145.4350 N   0  0  2  0  0  0  0  0  0  0  0  0
  193.0520  177.1010  144.9400 C   0  0  0  0  0  2  0  0  0  0  0  0
  185.8490  177.5120  142.7280 C   0  0  0  0  0  2  0  0  0  0  0  0
  186.1640  177.1040  145.1630 C   0  0  0  0  0  0  0  0  0  0  0  0
  185.2780  179.4330  144.9100 C   0  0  0  0  0  3  0  0  0  0  0  0
  186.4560  176.7750  143.8810 C   0  0  0  0  0  0  0  0  0  0  0  0
  189.1220  178.3090  144.2840 O   0  0  0  0  0  0  0  0  0  0  0  0
  187.8840  176.9600  146.8880 N   0  0  0  0  0  2  0  0  0  0  0  0
  189.3280  177.1200  144.4720 C   0  0  0  0  0  0  0  0  0  0  0  0
  192.4000  176.1240  145.9140 C   0  0  0  0  0  2  0  0  0  0  0  0
  191.8740  176.0130  143.0590 C   0  0  0  0  0  2  0  0  0  0  0  0
  185.2890  178.2470  145.5350 C   0  0  0  0  0  0  0  0  0  0  0  0
  184.5760  178.1500  146.6840 F   0  0  0  0  0  0  0  0  0  0  0  0
  191.1390  175.0990  144.0540 C   0  0  2  0  0  3  0  0  0  0  0  0
  190.3260  172.6810  142.4300 C   0  0  0  0  0  2  0  0  0  0  0  0
  190.7670  172.2250  141.0490 C   0  0  0  0  0  2  0  0  0  0  0  0
  191.0390  173.4240  140.1620 C   0  0  0  0  0  2  0  0  0  0  0  0
  192.5190  173.7460  140.1880 C   0  0  0  0  0  1  0  0  0  0  0  0
  1  5  1  6  0  0  0
  1 18  1  0  0  0  0
  2 15  1  0  0  0  0
  2 12  2  0  0  0  0
  3 20  1  0  0  0  0
  4 11  1  0  0  0  0
  4  1  1  0  0  0  0
  4 21  1  1  0  0  0
  6 14  1  0  0  0  0
  7 27  1  1  0  0  0
  7 11  1  0  0  0  0
  8  9  1  1  0  0  0
  9 20  1  0  0  0  0
 10  7  1  0  0  0  0
 10  5  1  0  0  0  0
 11 26  1  0  0  0  0
 12 17  1  0  0  0  0
 13  8  1  0  0  0  0
 13 22  1  0  0  0  0
 14 22  1  0  0  0  0
 15 18  1  0  0  0  0
 16 24  1  0  0  0  0
 16  3  1  0  0  0  0
 17 24  2  0  0  0  0
 18 16  2  0  0  0  0
 19 21  2  0  0  0  0
 21  8  1  0  0  0  0
 23  6  1  0  0  0  0
 23 26  1  0  0  0  0
 24 25  1  0  0  0  0
 26 13  1  0  0  0  0
 28 27  1  0  0  0  0
 29 30  1  0  0  0  0
 29 28  1  0  0  0  0
M  END
>  <MODEL>
8

>  <REMARK>
 VINA RESULT:      -7.2      2.604      6.841
  Name = 
  3 active torsions:
  status: ('A' for Active; 'I' for Inactive)
    1  A    between atoms: C_6  and  C_8
    2  A    between atoms: C_6  and  C_21
    3  A    between atoms: C_9  and  C_21
                            x       y       z     vdW  Elec       q    Type
                         _______ _______ _______ _____ _____    ______ ____

>  <TORSDO>
F 3

$$$$
=
 OpenBabel11052417223D

 30 34  0  0  1  0  0  0  0  0999 V2000
  192.1260  176.2230  145.4140 C   0  0  2  0  0  3  0  0  0  0  0  0
  189.0750  175.9170  147.2620 C   0  0  0  0  0  3  0  0  0  0  0  0
  190.5300  176.9670  143.1500 C   0  0  0  0  0  2  0  0  0  0  0  0
  192.2410  174.7010  145.3220 C   0  0  2  0  0  3  0  0  0  0  0  0
  193.1340  176.7230  146.4560 C   0  0  0  0  0  2  0  0  0  0  0  0
  193.3440  170.6060  144.2890 C   0  0  0  0  0  2  0  0  0  0  0  0
  194.6960  174.8110  145.7450 C   0  0  1  0  0  3  0  0  0  0  0  0
  191.4490  173.7060  143.0520 C   0  0  1  0  0  3  0  0  0  0  0  0
  191.3590  174.9810  142.2040 C   0  0  0  0  0  2  0  0  0  0  0  0
  194.5660  176.3120  146.0690 C   0  0  0  0  0  2  0  0  0  0  0  0
  193.6200  174.4460  144.7210 C   0  0  1  0  0  3  0  0  0  0  0  0
  187.9240  175.9870  146.5990 C   0  0  0  0  0  3  0  0  0  0  0  0
  192.7820  173.0860  142.8540 N   0  0  2  0  0  0  0  0  0  0  0  0
  192.2740  170.6840  143.2160 C   0  0  0  0  0  2  0  0  0  0  0  0
  190.1970  176.8670  147.0120 C   0  0  0  0  0  2  0  0  0  0  0  0
  189.9510  177.0350  144.5400 C   0  0  0  0  0  0  0  0  0  0  0  0
  187.6440  176.9430  145.5100 C   0  0  0  0  0  3  0  0  0  0  0  0
  190.7190  176.7310  145.6140 C   0  0  0  0  0  0  0  0  0  0  0  0
  190.0950  173.7570  144.9900 O   0  0  0  0  0  0  0  0  0  0  0  0
  190.1370  175.7260  142.4890 N   0  0  0  0  0  2  0  0  0  0  0  0
  191.1750  174.0380  144.4940 C   0  0  0  0  0  0  0  0  0  0  0  0
  192.6510  171.7710  142.2150 C   0  0  0  0  0  2  0  0  0  0  0  0
  193.4180  171.9390  145.0120 C   0  0  0  0  0  2  0  0  0  0  0  0
  188.5290  177.4570  144.6440 C   0  0  0  0  0  0  0  0  0  0  0  0
  188.0450  178.2920  143.6920 F   0  0  0  0  0  0  0  0  0  0  0  0
  193.7060  173.0820  144.0240 C   0  0  2  0  0  3  0  0  0  0  0  0
  196.0880  174.5340  145.1900 C   0  0  0  0  0  2  0  0  0  0  0  0
  196.5390  175.6470  144.2580 C   0  0  0  0  0  2  0  0  0  0  0  0
  196.5520  175.1580  142.8230 C   0  0  0  0  0  2  0  0  0  0  0  0
  195.6040  176.0020  141.9940 C   0  0  0  0  0  1  0  0  0  0  0  0
  1 18  1  0  0  0  0
  1  5  1  1  0  0  0
  3 16  1  0  0  0  0
  4 21  1  6  0  0  0
  4  1  1  0  0  0  0
  6 23  1  0  0  0  0
  7 27  1  6  0  0  0
  7 10  1  0  0  0  0
  8  9  1  6  0  0  0
  8 21  1  0  0  0  0
  9 20  1  0  0  0  0
 10  5  1  0  0  0  0
 11  4  1  0  0  0  0
 11  7  1  0  0  0  0
 12  2  2  0  0  0  0
 13  8  1  0  0  0  0
 13 26  1  0  0  0  0
 14  6  1  0  0  0  0
 15  2  1  0  0  0  0
 16 24  1  0  0  0  0
 16 18  2  0  0  0  0
 17 12  1  0  0  0  0
 18 15  1  0  0  0  0
 20  3  1  0  0  0  0
 21 19  2  0  0  0  0
 22 13  1  0  0  0  0
 22 14  1  0  0  0  0
 24 17  2  0  0  0  0
 25 24  1  0  0  0  0
 26 11  1  0  0  0  0
 26 23  1  0  0  0  0
 28 27  1  0  0  0  0
 29 28  1  0  0  0  0
 30 29  1  0  0  0  0
M  END
>  <MODEL>
9

>  <REMARK>
 VINA RESULT:      -7.1      2.790      7.210
  Name = 
  3 active torsions:
  status: ('A' for Active; 'I' for Inactive)
    1  A    between atoms: C_6  and  C_8
    2  A    between atoms: C_6  and  C_21
    3  A    between atoms: C_9  and  C_21
                            x       y       z     vdW  Elec       q    Type
                         _______ _______ _______ _____ _____    ______ ____

>  <TORSDO>
F 3

$$$$
