=
 OpenBabel11052417343D

 25 27  0  0  0  0  0  0  0  0999 V2000
  185.8580  178.3890  146.2900 C   0  0  0  0  0  0  0  0  0  0  0  0
  185.9770  178.3070  144.9180 C   0  0  0  0  0  0  0  0  0  0  0  0
  184.5510  178.5810  146.5920 N   0  0  0  0  0  2  0  0  0  0  0  0
  183.8460  178.6420  145.4670 N   0  0  0  0  0  0  0  0  0  0  0  0
  184.4180  178.4290  143.0850 C   0  0  0  0  0  0  0  0  0  0  0  0
  183.1230  178.6050  142.6140 O   0  0  0  0  0  1  0  0  0  0  0  0
  187.0520  178.0460  144.0690 C   0  0  0  0  0  3  0  0  0  0  0  0
  185.4810  178.1900  142.1970 C   0  0  0  0  0  3  0  0  0  0  0  0
  186.8000  177.9950  142.6850 C   0  0  0  0  0  0  0  0  0  0  0  0
  184.7050  178.4760  144.4470 C   0  0  0  0  0  0  0  0  0  0  0  0
  186.9120  178.2200  147.3120 C   0  0  0  0  0  0  0  0  0  0  0  0
  186.8510  178.9260  148.3550 O   0  0  0  0  0  0  0  0  0  0  0  0
  188.0410  177.2790  147.1470 C   0  0  0  0  0  0  0  0  0  0  0  0
  190.1940  175.5200  146.7560 C   0  0  0  0  0  3  0  0  0  0  0  0
  189.3450  177.7740  147.0000 C   0  0  0  0  0  3  0  0  0  0  0  0
  190.4180  176.8980  146.8110 C   0  0  0  0  0  3  0  0  0  0  0  0
  188.8970  175.0190  146.8860 C   0  0  0  0  0  3  0  0  0  0  0  0
  187.8240  175.8950  147.0740 C   0  0  0  0  0  3  0  0  0  0  0  0
  187.8690  177.7510  141.8190 O   0  0  0  0  0  0  0  0  0  0  0  0
  189.2000  177.9640  142.1850 C   0  0  0  0  0  3  0  0  0  0  0  0
  189.9530  176.9820  142.6780 C   0  0  0  0  0  0  0  0  0  0  0  0
  189.3820  175.6120  142.8500 C   0  0  0  0  0  1  0  0  0  0  0  0
  191.3540  177.2420  143.0540 C   0  0  0  0  0  0  0  0  0  0  0  0
  192.3950  176.3610  142.6390 N   0  0  0  0  0  1  0  0  0  0  0  0
  191.6440  178.2510  143.7500 O   0  0  0  0  0  0  0  0  0  0  0  0
  1  3  1  0  0  0  0
  1 11  1  0  0  0  0
  2  1  2  0  0  0  0
  4  3  1  0  0  0  0
  5 10  1  0  0  0  0
  6  5  1  0  0  0  0
  7  2  1  0  0  0  0
  8  9  1  0  0  0  0
  8  5  2  0  0  0  0
  9  7  2  0  0  0  0
 10  2  1  0  0  0  0
 10  4  2  0  0  0  0
 11 12  2  0  0  0  0
 13 11  1  0  0  0  0
 14 16  2  0  0  0  0
 14 17  1  0  0  0  0
 15 13  2  0  0  0  0
 16 15  1  0  0  0  0
 17 18  2  0  0  0  0
 18 13  1  0  0  0  0
 19 20  1  0  0  0  0
 19  9  1  0  0  0  0
 20 21  2  0  0  0  0
 21 22  1  0  0  0  0
 21 23  1  0  0  0  0
 23 25  2  0  0  0  0
 24 23  1  0  0  0  0
M  END
>  <MODEL>
1

>  <REMARK>
 VINA RESULT:      -7.3      0.000      0.000
  Name = 
  5 active torsions:
  status: ('A' for Active; 'I' for Inactive)
    1  A    between atoms: C_1  and  C_18
    2  A    between atoms: C_2  and  C_21
    3  A    between atoms: C_5  and  C_18
    4  A    between atoms: O_6  and  C_15
    5  A    between atoms: O_6  and  C_23
                            x       y       z     vdW  Elec       q    Type
                         _______ _______ _______ _____ _____    ______ ____

>  <TORSDO>
F 5

$$$$
=
 OpenBabel11052417343D

 25 27  0  0  0  0  0  0  0  0999 V2000
  186.0570  178.2050  146.0910 C   0  0  0  0  0  0  0  0  0  0  0  0
  186.1280  177.9560  144.7350 C   0  0  0  0  0  0  0  0  0  0  0  0
  184.7930  178.5970  146.3840 N   0  0  0  0  0  2  0  0  0  0  0  0
  184.0730  178.6240  145.2660 N   0  0  0  0  0  0  0  0  0  0  0  0
  184.5510  178.0750  142.9180 C   0  0  0  0  0  0  0  0  0  0  0  0
  183.2780  178.3650  142.4450 O   0  0  0  0  0  1  0  0  0  0  0  0
  187.1390  177.4650  143.9100 C   0  0  0  0  0  3  0  0  0  0  0  0
  185.5520  177.6040  142.0510 C   0  0  0  0  0  3  0  0  0  0  0  0
  186.8470  177.2950  142.5430 C   0  0  0  0  0  0  0  0  0  0  0  0
  184.8770  178.2360  144.2630 C   0  0  0  0  0  0  0  0  0  0  0  0
  187.1060  178.0150  147.1130 C   0  0  0  0  0  0  0  0  0  0  0  0
  187.0390  178.6960  148.1720 O   0  0  0  0  0  0  0  0  0  0  0  0
  188.2390  177.0810  146.9310 C   0  0  0  0  0  0  0  0  0  0  0  0
  190.3860  175.2920  146.6670 C   0  0  0  0  0  3  0  0  0  0  0  0
  188.0410  175.7030  147.1040 C   0  0  0  0  0  3  0  0  0  0  0  0
  189.1090  174.8120  146.9670 C   0  0  0  0  0  3  0  0  0  0  0  0
  190.5960  176.6640  146.5080 C   0  0  0  0  0  3  0  0  0  0  0  0
  189.5280  177.5550  146.6460 C   0  0  0  0  0  3  0  0  0  0  0  0
  187.8540  176.8190  141.6980 O   0  0  0  0  0  0  0  0  0  0  0  0
  187.8860  175.5030  141.2310 C   0  0  0  0  0  3  0  0  0  0  0  0
  188.6730  174.5840  141.7900 C   0  0  0  0  0  0  0  0  0  0  0  0
  189.5480  174.9470  142.9450 C   0  0  0  0  0  1  0  0  0  0  0  0
  188.6820  173.2050  141.2710 C   0  0  0  0  0  0  0  0  0  0  0  0
  188.3380  172.9360  139.9140 N   0  0  0  0  0  1  0  0  0  0  0  0
  188.9960  172.2470  142.0270 O   0  0  0  0  0  0  0  0  0  0  0  0
  1  3  1  0  0  0  0
  1 11  1  0  0  0  0
  2  1  2  0  0  0  0
  4  3  1  0  0  0  0
  5 10  1  0  0  0  0
  6  5  1  0  0  0  0
  7  2  1  0  0  0  0
  8  9  1  0  0  0  0
  8  5  2  0  0  0  0
  9  7  2  0  0  0  0
 10  2  1  0  0  0  0
 10  4  2  0  0  0  0
 11 12  2  0  0  0  0
 13 15  1  0  0  0  0
 13 11  1  0  0  0  0
 14 16  1  0  0  0  0
 16 15  2  0  0  0  0
 17 18  1  0  0  0  0
 17 14  2  0  0  0  0
 18 13  2  0  0  0  0
 19  9  1  0  0  0  0
 20 19  1  0  0  0  0
 20 21  2  0  0  0  0
 21 22  1  0  0  0  0
 23 21  1  0  0  0  0
 23 25  2  0  0  0  0
 24 23  1  0  0  0  0
M  END
>  <MODEL>
2

>  <REMARK>
 VINA RESULT:      -7.1      1.877      2.472
  Name = 
  5 active torsions:
  status: ('A' for Active; 'I' for Inactive)
    1  A    between atoms: C_1  and  C_18
    2  A    between atoms: C_2  and  C_21
    3  A    between atoms: C_5  and  C_18
    4  A    between atoms: O_6  and  C_15
    5  A    between atoms: O_6  and  C_23
                            x       y       z     vdW  Elec       q    Type
                         _______ _______ _______ _____ _____    ______ ____

>  <TORSDO>
F 5

$$$$
=
 OpenBabel11052417343D

 25 27  0  0  0  0  0  0  0  0999 V2000
  189.2490  176.2960  146.3910 C   0  0  0  0  0  0  0  0  0  0  0  0
  189.4370  176.7900  145.1160 C   0  0  0  0  0  0  0  0  0  0  0  0
  190.4660  176.0850  146.9470 N   0  0  0  0  0  2  0  0  0  0  0  0
  191.4110  176.4080  146.0700 N   0  0  0  0  0  0  0  0  0  0  0  0
  191.3750  177.3150  143.7850 C   0  0  0  0  0  0  0  0  0  0  0  0
  192.7540  177.3570  143.6290 O   0  0  0  0  0  1  0  0  0  0  0  0
  188.5600  177.2460  144.1330 C   0  0  0  0  0  3  0  0  0  0  0  0
  190.5210  177.7630  142.7620 C   0  0  0  0  0  3  0  0  0  0  0  0
  189.1110  177.7320  142.9330 C   0  0  0  0  0  0  0  0  0  0  0  0
  190.7930  176.8370  144.9560 C   0  0  0  0  0  0  0  0  0  0  0  0
  187.9780  176.0900  147.1150 C   0  0  0  0  0  0  0  0  0  0  0  0
  187.8460  175.0410  147.8020 O   0  0  0  0  0  0  0  0  0  0  0  0
  186.8540  177.0470  147.0430 C   0  0  0  0  0  0  0  0  0  0  0  0
  184.7330  178.8750  146.8250 C   0  0  0  0  0  3  0  0  0  0  0  0
  185.6990  176.7140  146.3180 C   0  0  0  0  0  3  0  0  0  0  0  0
  184.6410  177.6220  146.2150 C   0  0  0  0  0  3  0  0  0  0  0  0
  185.8850  179.2220  147.5360 C   0  0  0  0  0  3  0  0  0  0  0  0
  186.9430  178.3140  147.6380 C   0  0  0  0  0  3  0  0  0  0  0  0
  188.2450  178.1780  141.9300 O   0  0  0  0  0  0  0  0  0  0  0  0
  186.8770  178.3580  142.1420 C   0  0  0  0  0  3  0  0  0  0  0  0
  185.9820  178.0700  141.1970 C   0  0  0  0  0  0  0  0  0  0  0  0
  186.4310  177.5410  139.8740 C   0  0  0  0  0  1  0  0  0  0  0  0
  184.5450  178.2730  141.4540 C   0  0  0  0  0  0  0  0  0  0  0  0
  184.0400  178.2910  142.7870 N   0  0  0  0  0  1  0  0  0  0  0  0
  183.7470  178.4320  140.4930 O   0  0  0  0  0  0  0  0  0  0  0  0
  1  3  1  0  0  0  0
  1 11  1  0  0  0  0
  2  1  2  0  0  0  0
  4  3  1  0  0  0  0
  5 10  1  0  0  0  0
  6  5  1  0  0  0  0
  7  2  1  0  0  0  0
  8  9  1  0  0  0  0
  8  5  2  0  0  0  0
  9  7  2  0  0  0  0
 10  2  1  0  0  0  0
 10  4  2  0  0  0  0
 11 12  2  0  0  0  0
 13 11  1  0  0  0  0
 13 18  1  0  0  0  0
 14 17  1  0  0  0  0
 15 13  2  0  0  0  0
 16 15  1  0  0  0  0
 16 14  2  0  0  0  0
 17 18  2  0  0  0  0
 19 20  1  0  0  0  0
 19  9  1  0  0  0  0
 21 23  1  0  0  0  0
 21 20  2  0  0  0  0
 22 21  1  0  0  0  0
 23 24  1  0  0  0  0
 25 23  2  0  0  0  0
M  END
>  <MODEL>
3

>  <REMARK>
 VINA RESULT:      -7.0      2.005      5.458
  Name = 
  5 active torsions:
  status: ('A' for Active; 'I' for Inactive)
    1  A    between atoms: C_1  and  C_18
    2  A    between atoms: C_2  and  C_21
    3  A    between atoms: C_5  and  C_18
    4  A    between atoms: O_6  and  C_15
    5  A    between atoms: O_6  and  C_23
                            x       y       z     vdW  Elec       q    Type
                         _______ _______ _______ _____ _____    ______ ____

>  <TORSDO>
F 5

$$$$
=
 OpenBabel11052417343D

 25 27  0  0  0  0  0  0  0  0999 V2000
  186.7400  178.1220  144.9700 C   0  0  0  0  0  0  0  0  0  0  0  0
  187.0490  177.4900  143.7830 C   0  0  0  0  0  0  0  0  0  0  0  0
  185.8320  179.0930  144.7100 N   0  0  0  0  0  2  0  0  0  0  0  0
  185.5720  179.1120  143.4060 N   0  0  0  0  0  0  0  0  0  0  0  0
  186.3360  177.7630  141.4980 C   0  0  0  0  0  0  0  0  0  0  0  0
  185.5820  178.4320  140.5430 O   0  0  0  0  0  1  0  0  0  0  0  0
  187.8500  176.3930  143.4690 C   0  0  0  0  0  3  0  0  0  0  0  0
  187.1500  176.6750  141.1400 C   0  0  0  0  0  3  0  0  0  0  0  0
  187.9080  175.9840  142.1230 C   0  0  0  0  0  0  0  0  0  0  0  0
  186.3080  178.1420  142.8380 C   0  0  0  0  0  0  0  0  0  0  0  0
  187.2090  177.7930  146.3310 C   0  0  0  0  0  0  0  0  0  0  0  0
  186.5940  178.2900  147.3120 O   0  0  0  0  0  0  0  0  0  0  0  0
  188.3830  176.9280  146.5840 C   0  0  0  0  0  0  0  0  0  0  0  0
  190.5910  175.2870  147.1450 C   0  0  0  0  0  3  0  0  0  0  0  0
  188.1940  175.6010  147.0000 C   0  0  0  0  0  3  0  0  0  0  0  0
  189.2940  174.7820  147.2740 C   0  0  0  0  0  3  0  0  0  0  0  0
  190.7880  176.6110  146.7470 C   0  0  0  0  0  3  0  0  0  0  0  0
  189.6880  177.4300  146.4740 C   0  0  0  0  0  3  0  0  0  0  0  0
  188.7180  174.8960  141.7880 O   0  0  0  0  0  0  0  0  0  0  0  0
  189.0200  173.8750  142.6910 C   0  0  0  0  0  3  0  0  0  0  0  0
  190.1860  173.8360  143.3350 C   0  0  0  0  0  0  0  0  0  0  0  0
  191.2090  174.8990  143.1010 C   0  0  0  0  0  1  0  0  0  0  0  0
  190.4720  172.7430  144.2810 C   0  0  0  0  0  0  0  0  0  0  0  0
  191.8140  172.3480  144.5530 N   0  0  0  0  0  1  0  0  0  0  0  0
  189.5260  172.1450  144.8600 O   0  0  0  0  0  0  0  0  0  0  0  0
  1 11  1  0  0  0  0
  2  1  2  0  0  0  0
  3  1  1  0  0  0  0
  4  3  1  0  0  0  0
  5 10  1  0  0  0  0
  6  5  1  0  0  0  0
  7  2  1  0  0  0  0
  8  5  2  0  0  0  0
  8  9  1  0  0  0  0
  9  7  2  0  0  0  0
 10  4  2  0  0  0  0
 10  2  1  0  0  0  0
 11 13  1  0  0  0  0
 11 12  2  0  0  0  0
 13 15  1  0  0  0  0
 14 16  1  0  0  0  0
 15 16  2  0  0  0  0
 17 14  2  0  0  0  0
 18 13  2  0  0  0  0
 18 17  1  0  0  0  0
 19  9  1  0  0  0  0
 19 20  1  0  0  0  0
 20 21  2  0  0  0  0
 21 23  1  0  0  0  0
 22 21  1  0  0  0  0
 23 24  1  0  0  0  0
 23 25  2  0  0  0  0
M  END
>  <MODEL>
4

>  <REMARK>
 VINA RESULT:      -7.0      2.300      2.900
  Name = 
  5 active torsions:
  status: ('A' for Active; 'I' for Inactive)
    1  A    between atoms: C_1  and  C_18
    2  A    between atoms: C_2  and  C_21
    3  A    between atoms: C_5  and  C_18
    4  A    between atoms: O_6  and  C_15
    5  A    between atoms: O_6  and  C_23
                            x       y       z     vdW  Elec       q    Type
                         _______ _______ _______ _____ _____    ______ ____

>  <TORSDO>
F 5

$$$$
=
 OpenBabel11052417343D

 25 27  0  0  1  0  0  0  0  0999 V2000
  186.6050  177.8880  143.1040 C   0  0  0  0  0  0  0  0  0  0  0  0
  186.6410  177.4290  144.4050 C   0  0  1  0  0  3  0  0  0  0  0  0
  185.5240  178.6930  142.9670 N   0  0  0  0  0  0  0  0  0  0  0  0
  184.8670  178.7440  144.1220 N   0  0  0  0  0  0  0  0  0  0  0  0
  185.2490  177.7620  146.3430 C   0  0  0  0  0  0  0  0  0  0  0  0
  184.1270  178.3230  146.9390 O   0  0  0  0  0  1  0  0  0  0  0  0
  187.5510  176.6470  145.1140 C   0  0  0  0  0  3  0  0  0  0  0  0
  186.1330  176.9590  147.0850 C   0  0  0  0  0  3  0  0  0  0  0  0
  187.2870  176.4010  146.4750 C   0  0  0  0  0  0  0  0  0  0  0  0
  185.5400  177.9800  144.9990 C   0  0  0  0  0  0  0  0  0  0  0  0
  187.5860  177.6540  142.0240 C   0  0  0  0  0  0  0  0  0  0  0  0
  187.2460  177.9240  140.8400 O   0  0  0  0  0  0  0  0  0  0  0  0
  188.9320  177.0950  142.2740 C   0  0  0  0  0  0  0  0  0  0  0  0
  191.4560  175.9900  142.8130 C   0  0  0  0  0  3  0  0  0  0  0  0
  189.1730  175.7310  142.0510 C   0  0  0  0  0  3  0  0  0  0  0  0
  190.4320  175.1820  142.3140 C   0  0  0  0  0  3  0  0  0  0  0  0
  191.2210  177.3460  143.0530 C   0  0  0  0  0  3  0  0  0  0  0  0
  189.9620  177.8940  142.7910 C   0  0  0  0  0  3  0  0  0  0  0  0
  188.1810  175.6050  147.1960 O   0  0  0  0  0  0  0  0  0  0  0  0
  189.5620  175.8090  147.1700 C   0  0  0  0  0  3  0  0  0  0  0  0
  190.3720  175.0060  146.4800 C   0  0  0  0  0  0  0  0  0  0  0  0
  189.8110  173.8550  145.7100 C   0  0  0  0  0  1  0  0  0  0  0  0
  191.8260  175.2500  146.4740 C   0  0  0  0  0  0  0  0  0  0  0  0
  192.7160  174.3210  145.8600 N   0  0  0  0  0  1  0  0  0  0  0  0
  192.2950  176.2860  147.0140 O   0  0  0  0  0  0  0  0  0  0  0  0
  1  2  1  0  0  0  0
  2 10  1  0  0  0  0
  2  7  1  1  0  0  0
  3  1  2  0  0  0  0
  3  4  1  0  0  0  0
  4 10  2  0  0  0  0
  5  6  1  0  0  0  0
  5  8  2  0  0  0  0
  7  9  2  0  0  0  0
  9  8  1  0  0  0  0
  9 19  1  0  0  0  0
 10  5  1  0  0  0  0
 11 13  1  0  0  0  0
 11  1  1  0  0  0  0
 12 11  2  0  0  0  0
 13 18  1  0  0  0  0
 14 17  1  0  0  0  0
 15 13  2  0  0  0  0
 15 16  1  0  0  0  0
 16 14  2  0  0  0  0
 18 17  2  0  0  0  0
 20 19  1  0  0  0  0
 21 20  2  0  0  0  0
 22 21  1  0  0  0  0
 23 21  1  0  0  0  0
 23 25  2  0  0  0  0
 24 23  1  0  0  0  0
M  END
>  <MODEL>
5

>  <REMARK>
 VINA RESULT:      -6.9      1.949      4.381
  Name = 
  5 active torsions:
  status: ('A' for Active; 'I' for Inactive)
    1  A    between atoms: C_1  and  C_18
    2  A    between atoms: C_2  and  C_21
    3  A    between atoms: C_5  and  C_18
    4  A    between atoms: O_6  and  C_15
    5  A    between atoms: O_6  and  C_23
                            x       y       z     vdW  Elec       q    Type
                         _______ _______ _______ _____ _____    ______ ____

>  <TORSDO>
F 5

$$$$
=
 OpenBabel11052417343D

 25 27  0  0  1  0  0  0  0  0999 V2000
  186.2520  177.0350  142.5070 C   0  0  0  0  0  0  0  0  0  0  0  0
  186.3220  177.2540  143.8680 C   0  0  1  0  0  3  0  0  0  0  0  0
  185.0640  177.5100  142.0620 N   0  0  0  0  0  0  0  0  0  0  0  0
  184.3760  178.0020  143.0880 N   0  0  0  0  0  0  0  0  0  0  0  0
  184.8430  178.2510  145.4880 C   0  0  0  0  0  0  0  0  0  0  0  0
  183.6330  178.8530  145.8050 O   0  0  0  0  0  1  0  0  0  0  0  0
  187.3210  177.0420  144.8160 C   0  0  0  0  0  3  0  0  0  0  0  0
  185.8190  178.0320  146.4760 C   0  0  0  0  0  3  0  0  0  0  0  0
  187.0620  177.4300  146.1440 C   0  0  0  0  0  0  0  0  0  0  0  0
  185.1340  177.8500  144.1870 C   0  0  0  0  0  0  0  0  0  0  0  0
  187.2850  176.4670  141.6170 C   0  0  0  0  0  0  0  0  0  0  0  0
  187.3820  176.9250  140.4470 O   0  0  0  0  0  0  0  0  0  0  0  0
  188.1870  175.3730  142.0370 C   0  0  0  0  0  0  0  0  0  0  0  0
  189.8510  173.2820  142.8990 C   0  0  0  0  0  3  0  0  0  0  0  0
  187.7270  174.0470  142.0260 C   0  0  0  0  0  3  0  0  0  0  0  0
  188.5580  173.0060  142.4500 C   0  0  0  0  0  3  0  0  0  0  0  0
  190.3130  174.6000  142.9280 C   0  0  0  0  0  3  0  0  0  0  0  0
  189.4820  175.6420  142.5050 C   0  0  0  0  0  3  0  0  0  0  0  0
  188.0470  177.2100  147.1110 O   0  0  0  0  0  0  0  0  0  0  0  0
  189.4050  177.1260  146.7970 C   0  0  0  0  0  3  0  0  0  0  0  0
  190.0420  175.9560  146.7670 C   0  0  0  0  0  0  0  0  0  0  0  0
  189.3050  174.6920  147.0720 C   0  0  0  0  0  1  0  0  0  0  0  0
  191.4760  175.9030  146.4320 C   0  0  0  0  0  0  0  0  0  0  0  0
  191.9990  176.6680  145.3480 N   0  0  0  0  0  1  0  0  0  0  0  0
  192.2560  175.1780  147.1050 O   0  0  0  0  0  0  0  0  0  0  0  0
  1  2  1  0  0  0  0
  2 10  1  0  0  0  0
  2  7  1  6  0  0  0
  3  1  2  0  0  0  0
  3  4  1  0  0  0  0
  4 10  2  0  0  0  0
  5  6  1  0  0  0  0
  5  8  2  0  0  0  0
  7  9  2  0  0  0  0
  9  8  1  0  0  0  0
  9 19  1  0  0  0  0
 10  5  1  0  0  0  0
 11 13  1  0  0  0  0
 11  1  1  0  0  0  0
 12 11  2  0  0  0  0
 13 18  1  0  0  0  0
 14 17  1  0  0  0  0
 15 13  2  0  0  0  0
 15 16  1  0  0  0  0
 16 14  2  0  0  0  0
 18 17  2  0  0  0  0
 20 19  1  0  0  0  0
 21 20  2  0  0  0  0
 21 22  1  0  0  0  0
 23 21  1  0  0  0  0
 23 25  2  0  0  0  0
 24 23  1  0  0  0  0
M  END
>  <MODEL>
6

>  <REMARK>
 VINA RESULT:      -6.9      2.064      4.462
  Name = 
  5 active torsions:
  status: ('A' for Active; 'I' for Inactive)
    1  A    between atoms: C_1  and  C_18
    2  A    between atoms: C_2  and  C_21
    3  A    between atoms: C_5  and  C_18
    4  A    between atoms: O_6  and  C_15
    5  A    between atoms: O_6  and  C_23
                            x       y       z     vdW  Elec       q    Type
                         _______ _______ _______ _____ _____    ______ ____

>  <TORSDO>
F 5

$$$$
=
 OpenBabel11052417343D

 25 27  0  0  1  0  0  0  0  0999 V2000
  188.0350  176.2440  143.5390 C   0  0  0  0  0  0  0  0  0  0  0  0
  188.9430  175.2070  143.6050 C   0  0  0  0  0  0  0  0  0  0  0  0
  187.2020  176.0130  142.4950 N   0  0  0  0  0  0  0  0  0  0  0  0
  187.5600  174.8840  141.8920 N   0  0  0  0  0  0  0  0  0  0  0  0
  189.3050  173.2050  142.3150 C   0  0  2  0  0  3  0  0  0  0  0  0
  188.9680  172.3810  141.2490 O   0  0  0  0  0  1  0  0  0  0  0  0
  189.9610  174.8890  144.5030 C   0  0  0  0  0  3  0  0  0  0  0  0
  190.3530  172.8620  143.1870 C   0  0  0  0  0  3  0  0  0  0  0  0
  190.6830  173.7000  144.2850 C   0  0  0  0  0  0  0  0  0  0  0  0
  188.6150  174.3900  142.5600 C   0  0  0  0  0  0  0  0  0  0  0  0
  187.8850  177.3900  144.4600 C   0  0  0  0  0  0  0  0  0  0  0  0
  188.9260  177.9920  144.8380 O   0  0  0  0  0  0  0  0  0  0  0  0
  186.5710  177.8370  144.9710 C   0  0  0  0  0  0  0  0  0  0  0  0
  184.0430  178.6170  145.9110 C   0  0  0  0  0  3  0  0  0  0  0  0
  185.9450  177.1210  146.0030 C   0  0  0  0  0  3  0  0  0  0  0  0
  184.6880  177.5140  146.4740 C   0  0  0  0  0  3  0  0  0  0  0  0
  184.6530  179.3270  144.8730 C   0  0  0  0  0  3  0  0  0  0  0  0
  185.9080  178.9340  144.4010 C   0  0  0  0  0  3  0  0  0  0  0  0
  191.7180  173.3750  145.1660 O   0  0  0  0  0  0  0  0  0  0  0  0
  192.9260  174.0730  145.2000 C   0  0  0  0  0  3  0  0  0  0  0  0
  193.1970  174.9490  146.1670 C   0  0  0  0  0  0  0  0  0  0  0  0
  192.2000  175.2070  147.2490 C   0  0  0  0  0  1  0  0  0  0  0  0
  194.4840  175.6690  146.1720 C   0  0  0  0  0  0  0  0  0  0  0  0
  194.5190  177.0940  146.1840 N   0  0  0  0  0  1  0  0  0  0  0  0
  195.5670  175.0270  146.1660 O   0  0  0  0  0  0  0  0  0  0  0  0
  1  2  1  0  0  0  0
  1 11  1  0  0  0  0
  2  7  2  0  0  0  0
  3  1  2  0  0  0  0
  4  3  1  0  0  0  0
  4 10  2  0  0  0  0
  5  6  1  1  0  0  0
  5 10  1  0  0  0  0
  5  8  1  0  0  0  0
  8  9  2  0  0  0  0
  9  7  1  0  0  0  0
  9 19  1  0  0  0  0
 10  2  1  0  0  0  0
 11 12  2  0  0  0  0
 11 13  1  0  0  0  0
 13 15  1  0  0  0  0
 14 16  1  0  0  0  0
 15 16  2  0  0  0  0
 17 14  2  0  0  0  0
 18 17  1  0  0  0  0
 18 13  2  0  0  0  0
 19 20  1  0  0  0  0
 20 21  2  0  0  0  0
 21 23  1  0  0  0  0
 21 22  1  0  0  0  0
 23 24  1  0  0  0  0
 25 23  2  0  0  0  0
M  END
>  <MODEL>
7

>  <REMARK>
 VINA RESULT:      -6.6      3.181      5.573
  Name = 
  5 active torsions:
  status: ('A' for Active; 'I' for Inactive)
    1  A    between atoms: C_1  and  C_18
    2  A    between atoms: C_2  and  C_21
    3  A    between atoms: C_5  and  C_18
    4  A    between atoms: O_6  and  C_15
    5  A    between atoms: O_6  and  C_23
                            x       y       z     vdW  Elec       q    Type
                         _______ _______ _______ _____ _____    ______ ____

>  <TORSDO>
F 5

$$$$
=
 OpenBabel11052417343D

 25 27  0  0  1  0  0  0  0  0999 V2000
  187.3520  177.2270  142.7470 C   0  0  0  0  0  0  0  0  0  0  0  0
  188.6700  176.8780  142.9640 C   0  0  0  0  0  0  0  0  0  0  0  0
  186.8490  176.4090  141.7910 N   0  0  0  0  0  0  0  0  0  0  0  0
  187.8010  175.5740  141.3840 N   0  0  0  0  0  0  0  0  0  0  0  0
  190.1430  175.2130  142.0360 C   0  0  2  0  0  3  0  0  0  0  0  0
  190.3780  174.1740  141.1450 O   0  0  0  0  0  1  0  0  0  0  0  0
  189.6350  177.3200  143.8680 C   0  0  0  0  0  3  0  0  0  0  0  0
  191.1480  175.6480  142.9170 C   0  0  0  0  0  3  0  0  0  0  0  0
  190.8980  176.7000  143.8370 C   0  0  0  0  0  0  0  0  0  0  0  0
  188.9080  175.8540  142.0920 C   0  0  0  0  0  0  0  0  0  0  0  0
  186.5450  178.2410  143.4560 C   0  0  0  0  0  0  0  0  0  0  0  0
  186.1280  179.2350  142.8030 O   0  0  0  0  0  0  0  0  0  0  0  0
  186.2320  178.1470  144.8980 C   0  0  0  0  0  0  0  0  0  0  0  0
  185.5690  177.9280  147.6180 C   0  0  0  0  0  3  0  0  0  0  0  0
  186.2660  176.9000  145.5400 C   0  0  0  0  0  3  0  0  0  0  0  0
  185.9410  176.7920  146.8960 C   0  0  0  0  0  3  0  0  0  0  0  0
  185.5180  179.1720  146.9840 C   0  0  0  0  0  3  0  0  0  0  0  0
  185.8420  179.2800  145.6290 C   0  0  0  0  0  3  0  0  0  0  0  0
  191.8820  177.1420  144.7260 O   0  0  0  0  0  0  0  0  0  0  0  0
  193.2270  176.7880  144.5970 C   0  0  0  0  0  3  0  0  0  0  0  0
  193.7990  175.9110  145.4210 C   0  0  0  0  0  0  0  0  0  0  0  0
  193.0010  175.2780  146.5150 C   0  0  0  0  0  1  0  0  0  0  0  0
  195.2210  175.5610  145.2570 C   0  0  0  0  0  0  0  0  0  0  0  0
  196.0040  176.1610  144.2280 N   0  0  0  0  0  1  0  0  0  0  0  0
  195.7590  174.7240  146.0300 O   0  0  0  0  0  0  0  0  0  0  0  0
  1  2  1  0  0  0  0
  1 11  1  0  0  0  0
  2  7  2  0  0  0  0
  3  1  2  0  0  0  0
  4  3  1  0  0  0  0
  4 10  2  0  0  0  0
  5  6  1  1  0  0  0
  5 10  1  0  0  0  0
  5  8  1  0  0  0  0
  8  9  2  0  0  0  0
  9  7  1  0  0  0  0
  9 19  1  0  0  0  0
 10  2  1  0  0  0  0
 11 13  1  0  0  0  0
 12 11  2  0  0  0  0
 13 15  2  0  0  0  0
 13 18  1  0  0  0  0
 15 16  1  0  0  0  0
 16 14  2  0  0  0  0
 17 14  1  0  0  0  0
 18 17  2  0  0  0  0
 20 19  1  0  0  0  0
 20 21  2  0  0  0  0
 21 22  1  0  0  0  0
 23 21  1  0  0  0  0
 23 25  2  0  0  0  0
 24 23  1  0  0  0  0
M  END
>  <MODEL>
8

>  <REMARK>
 VINA RESULT:      -6.6      2.827      5.108
  Name = 
  5 active torsions:
  status: ('A' for Active; 'I' for Inactive)
    1  A    between atoms: C_1  and  C_18
    2  A    between atoms: C_2  and  C_21
    3  A    between atoms: C_5  and  C_18
    4  A    between atoms: O_6  and  C_15
    5  A    between atoms: O_6  and  C_23
                            x       y       z     vdW  Elec       q    Type
                         _______ _______ _______ _____ _____    ______ ____

>  <TORSDO>
F 5

$$$$
=
 OpenBabel11052417343D

 25 27  0  0  0  0  0  0  0  0999 V2000
  189.7150  175.2990  145.8230 C   0  0  0  0  0  0  0  0  0  0  0  0
  188.7080  176.2290  145.6590 C   0  0  0  0  0  0  0  0  0  0  0  0
  189.4650  174.6010  146.9570 N   0  0  0  0  0  2  0  0  0  0  0  0
  188.3550  175.0650  147.5220 N   0  0  0  0  0  0  0  0  0  0  0  0
  186.7320  176.8070  146.9090 C   0  0  0  0  0  0  0  0  0  0  0  0
  185.9070  176.6240  148.0110 O   0  0  0  0  0  1  0  0  0  0  0  0
  188.4170  177.1480  144.6510 C   0  0  0  0  0  3  0  0  0  0  0  0
  186.4170  177.7590  145.9240 C   0  0  0  0  0  3  0  0  0  0  0  0
  187.2560  177.9320  144.7910 C   0  0  0  0  0  0  0  0  0  0  0  0
  187.8900  176.0530  146.7390 C   0  0  0  0  0  0  0  0  0  0  0  0
  190.8450  175.0050  144.9200 C   0  0  0  0  0  0  0  0  0  0  0  0
  190.5890  174.5650  143.7660 O   0  0  0  0  0  0  0  0  0  0  0  0
  192.2570  175.1790  145.3240 C   0  0  0  0  0  0  0  0  0  0  0  0
  194.9410  175.5810  146.0440 C   0  0  0  0  0  3  0  0  0  0  0  0
  192.6190  176.2590  146.1440 C   0  0  0  0  0  3  0  0  0  0  0  0
  193.9550  176.4560  146.5070 C   0  0  0  0  0  3  0  0  0  0  0  0
  194.5920  174.5110  145.2160 C   0  0  0  0  0  3  0  0  0  0  0  0
  193.2570  174.3160  144.8520 C   0  0  0  0  0  3  0  0  0  0  0  0
  186.9570  178.8690  143.7990 O   0  0  0  0  0  0  0  0  0  0  0  0
  186.7060  178.5080  142.4730 C   0  0  0  0  0  3  0  0  0  0  0  0
  185.4680  178.2860  142.0340 C   0  0  0  0  0  0  0  0  0  0  0  0
  184.3060  178.4190  142.9640 C   0  0  0  0  0  1  0  0  0  0  0  0
  185.2390  177.9070  140.6280 C   0  0  0  0  0  0  0  0  0  0  0  0
  186.3170  177.4580  139.8110 N   0  0  0  0  0  1  0  0  0  0  0  0
  184.0820  177.9770  140.1350 O   0  0  0  0  0  0  0  0  0  0  0  0
  1  3  1  0  0  0  0
  2  1  2  0  0  0  0
  2 10  1  0  0  0  0
  3  4  1  0  0  0  0
  5  6  1  0  0  0  0
  7  9  2  0  0  0  0
  7  2  1  0  0  0  0
  8  5  2  0  0  0  0
  9  8  1  0  0  0  0
 10  5  1  0  0  0  0
 10  4  2  0  0  0  0
 11 13  1  0  0  0  0
 11  1  1  0  0  0  0
 12 11  2  0  0  0  0
 13 15  1  0  0  0  0
 14 16  1  0  0  0  0
 15 16  2  0  0  0  0
 17 14  2  0  0  0  0
 18 17  1  0  0  0  0
 18 13  2  0  0  0  0
 19  9  1  0  0  0  0
 20 19  1  0  0  0  0
 21 20  2  0  0  0  0
 21 22  1  0  0  0  0
 23 21  1  0  0  0  0
 24 23  1  0  0  0  0
 25 23  2  0  0  0  0
M  END
>  <MODEL>
9

>  <REMARK>
 VINA RESULT:      -6.6      3.062      5.229
  Name = 
  5 active torsions:
  status: ('A' for Active; 'I' for Inactive)
    1  A    between atoms: C_1  and  C_18
    2  A    between atoms: C_2  and  C_21
    3  A    between atoms: C_5  and  C_18
    4  A    between atoms: O_6  and  C_15
    5  A    between atoms: O_6  and  C_23
                            x       y       z     vdW  Elec       q    Type
                         _______ _______ _______ _____ _____    ______ ____

>  <TORSDO>
F 5

$$$$
