=
 OpenBabel11052419063D

 32 34  0  0  1  0  0  0  0  0999 V2000
  189.2310  176.1190  143.1240 C   0  0  2  0  0  3  0  0  0  0  0  0
  191.5060  174.8700  143.2120 C   0  0  2  0  0  3  0  0  0  0  0  0
  190.7500  176.1610  142.8470 C   0  0  2  0  0  3  0  0  0  0  0  0
  192.0220  174.8830  144.6670 C   0  0  1  0  0  3  0  0  0  0  0  0
  193.9740  174.9730  142.5140 C   0  0  1  0  0  3  0  0  0  0  0  0
  194.5480  174.2200  143.7370 C   0  0  2  0  0  3  0  0  0  0  0  0
  191.3830  177.3240  143.3450 O   0  0  0  0  0  0  0  0  0  0  0  0
  193.2890  173.5860  144.9310 S   0  0  0  0  0  0  0  0  0  0  0  0
  191.4950  177.2100  144.7420 C   0  0  0  0  0  2  0  0  0  0  0  0
  192.5590  174.5280  142.1500 C   0  0  0  0  0  2  0  0  0  0  0  0
  192.5060  176.2090  145.0810 N   0  0  0  0  0  0  0  0  0  0  0  0
  194.0320  176.3610  142.6650 O   0  0  0  0  0  1  0  0  0  0  0  0
  195.7070  174.9530  144.4340 C   0  0  0  0  0  3  0  0  0  0  0  0
  195.8990  174.4470  145.8540 C   0  0  0  0  0  1  0  0  0  0  0  0
  197.0110  174.7410  143.6860 C   0  0  0  0  0  1  0  0  0  0  0  0
  192.7440  176.2530  146.5300 C   0  0  0  0  0  2  0  0  0  0  0  0
  191.5060  175.9210  147.3620 C   0  0  0  0  0  1  0  0  0  0  0  0
  188.9490  176.8390  144.4520 C   0  0  1  0  0  3  0  0  0  0  0  0
  187.7690  177.8250  144.4430 C   0  0  2  0  0  3  0  0  0  0  0  0
  187.6130  176.4530  145.0620 C   0  0  2  0  0  3  0  0  0  0  0  0
  185.9290  179.1750  143.0040 O   0  0  0  0  0  0  0  0  0  0  0  0
  185.8660  176.7430  142.8910 O   0  0  0  0  0  0  0  0  0  0  0  0
  186.7760  177.9380  142.9460 S   0  0  0  0  0  0  0  0  0  0  0  0
  186.9380  177.5390  140.3910 C   0  0  0  0  0  1  0  0  0  0  0  0
  187.7490  177.9930  141.5090 N   0  0  0  0  0  2  0  0  0  0  0  0
  187.6970  176.5750  146.5710 C   0  0  0  0  0  2  0  0  0  0  0  0
  186.4650  177.2800  147.1100 C   0  0  0  0  0  2  0  0  0  0  0  0
  184.4540  177.8440  146.4000 C   0  0  0  0  0  1  0  0  0  0  0  0
  185.3150  176.7540  146.5190 O   0  0  0  0  0  0  0  0  0  0  0  0
  188.7730  174.6620  143.2440 C   0  0  0  0  0  2  0  0  0  0  0  0
  188.6840  174.4620  140.8620 O   0  0  0  0  0  1  0  0  0  0  0  0
  187.9720  174.2070  142.0340 C   0  0  0  0  0  2  0  0  0  0  0  0
  1 30  1  1  0  0  0
  2 10  1  6  0  0  0
  2  4  1  0  0  0  0
  3  1  1  1  0  0  0
  3  2  1  0  0  0  0
  3  7  1  0  0  0  0
  4  8  1  6  0  0  0
  4 11  1  0  0  0  0
  5 12  1  1  0  0  0
  5  6  1  0  0  0  0
  6 13  1  1  0  0  0
  6  8  1  0  0  0  0
  7  9  1  0  0  0  0
  9 11  1  0  0  0  0
 10  5  1  0  0  0  0
 11 16  1  0  0  0  0
 13 14  1  0  0  0  0
 15 13  1  0  0  0  0
 16 17  1  0  0  0  0
 18  1  1  6  0  0  0
 18 20  1  0  0  0  0
 19 23  1  6  0  0  0
 19 18  1  0  0  0  0
 19 20  1  0  0  0  0
 20 26  1  1  0  0  0
 22 23  2  0  0  0  0
 23 21  2  0  0  0  0
 24 25  1  0  0  0  0
 25 23  1  0  0  0  0
 26 27  1  0  0  0  0
 28 29  1  0  0  0  0
 29 27  1  0  0  0  0
 31 32  1  0  0  0  0
 32 30  1  0  0  0  0
M  END
>  <MODEL>
1

>  <REMARK>
 VINA RESULT:      -6.2      0.000      0.000
  Name = 
  11 active torsions:
  status: ('A' for Active; 'I' for Inactive)
    1  A    between atoms: C_1  and  C_4
    2  A    between atoms: C_1  and  C_5
    3  A    between atoms: C_1  and  C_16
    4  A    between atoms: C_4  and  C_30
    5  A    between atoms: C_9  and  C_12
    6  A    between atoms: C_13  and  N_29
    7  A    between atoms: S_15  and  C_20
    8  A    between atoms: S_15  and  N_26
    9  A    between atoms: O_22  and  C_23
   10  A    between atoms: C_23  and  C_24
   11  A    between atoms: C_24  and  C_27
                            x       y       z     vdW  Elec       q    Type
                         _______ _______ _______ _____ _____    ______ ____

>  <TORSDO>
F 11

$$$$
=
 OpenBabel11052419063D

 32 34  0  0  1  0  0  0  0  0999 V2000
  190.3690  174.8940  142.3270 C   0  0  2  0  0  3  0  0  0  0  0  0
  188.5380  175.5650  144.0410 C   0  0  2  0  0  3  0  0  0  0  0  0
  189.9540  175.8170  143.4930 C   0  0  2  0  0  3  0  0  0  0  0  0
  187.4680  176.4110  143.3180 C   0  0  1  0  0  3  0  0  0  0  0  0
  188.0370  177.0020  146.1080 C   0  0  1  0  0  3  0  0  0  0  0  0
  186.5530  177.2900  145.7830 C   0  0  2  0  0  3  0  0  0  0  0  0
  190.2090  177.1870  143.2480 O   0  0  0  0  0  0  0  0  0  0  0  0
  185.9030  176.4530  144.2690 S   0  0  0  0  0  0  0  0  0  0  0  0
  189.2490  177.6650  142.3380 C   0  0  0  0  0  2  0  0  0  0  0  0
  188.5140  175.6540  145.5730 C   0  0  0  0  0  2  0  0  0  0  0  0
  187.9460  177.7650  142.9960 N   0  0  0  0  0  0  0  0  0  0  0  0
  188.8850  178.0300  145.6860 O   0  0  0  0  0  1  0  0  0  0  0  0
  186.1770  178.7810  145.8390 C   0  0  0  0  0  3  0  0  0  0  0  0
  184.9650  179.0740  144.9730 C   0  0  0  0  0  1  0  0  0  0  0  0
  185.8460  179.2030  147.2600 C   0  0  0  0  0  1  0  0  0  0  0  0
  187.0140  178.4500  142.0910 C   0  0  0  0  0  2  0  0  0  0  0  0
  186.7880  177.7090  140.7730 C   0  0  0  0  0  1  0  0  0  0  0  0
  190.0180  173.4430  142.6950 C   0  0  1  0  0  3  0  0  0  0  0  0
  189.2430  172.6490  141.6300 C   0  0  2  0  0  3  0  0  0  0  0  0
  190.7270  172.4230  141.8220 C   0  0  2  0  0  3  0  0  0  0  0  0
  188.3280  174.7900  140.2650 O   0  0  0  0  0  0  0  0  0  0  0  0
  187.9690  172.5960  139.2690 O   0  0  0  0  0  0  0  0  0  0  0  0
  188.9440  173.4400  140.0400 S   0  0  0  0  0  0  0  0  0  0  0  0
  190.3560  172.7140  137.9930 C   0  0  0  0  0  1  0  0  0  0  0  0
  190.4000  173.6370  139.1150 N   0  0  0  0  0  2  0  0  0  0  0  0
  190.9380  171.1460  142.6120 C   0  0  0  0  0  2  0  0  0  0  0  0
  190.8070  169.9380  141.7020 C   0  0  0  0  0  2  0  0  0  0  0  0
  190.7380  169.3390  139.5800 C   0  0  0  0  0  1  0  0  0  0  0  0
  191.3800  170.2100  140.4590 O   0  0  0  0  0  0  0  0  0  0  0  0
  191.8810  174.9960  142.1050 C   0  0  0  0  0  2  0  0  0  0  0  0
  193.5160  176.0600  143.4900 O   0  0  0  0  0  1  0  0  0  0  0  0
  192.6600  174.9620  143.4120 C   0  0  0  0  0  2  0  0  0  0  0  0
  1 30  1  1  0  0  0
  2 10  1  1  0  0  0
  3  1  1  6  0  0  0
  3  2  1  0  0  0  0
  4  2  1  0  0  0  0
  4  8  1  1  0  0  0
  5 12  1  6  0  0  0
  6 13  1  6  0  0  0
  6  5  1  0  0  0  0
  7  3  1  0  0  0  0
  8  6  1  0  0  0  0
  9 11  1  0  0  0  0
  9  7  1  0  0  0  0
 10  5  1  0  0  0  0
 11  4  1  0  0  0  0
 13 15  1  0  0  0  0
 14 13  1  0  0  0  0
 16 11  1  0  0  0  0
 17 16  1  0  0  0  0
 18  1  1  6  0  0  0
 19 23  1  6  0  0  0
 19 20  1  0  0  0  0
 19 18  1  0  0  0  0
 20 26  1  1  0  0  0
 20 18  1  0  0  0  0
 22 23  2  0  0  0  0
 23 21  2  0  0  0  0
 24 25  1  0  0  0  0
 25 23  1  0  0  0  0
 27 26  1  0  0  0  0
 28 29  1  0  0  0  0
 29 27  1  0  0  0  0
 30 32  1  0  0  0  0
 32 31  1  0  0  0  0
M  END
>  <MODEL>
2

>  <REMARK>
 VINA RESULT:      -5.9      2.887      7.150
  Name = 
  11 active torsions:
  status: ('A' for Active; 'I' for Inactive)
    1  A    between atoms: C_1  and  C_4
    2  A    between atoms: C_1  and  C_5
    3  A    between atoms: C_1  and  C_16
    4  A    between atoms: C_4  and  C_30
    5  A    between atoms: C_9  and  C_12
    6  A    between atoms: C_13  and  N_29
    7  A    between atoms: S_15  and  C_20
    8  A    between atoms: S_15  and  N_26
    9  A    between atoms: O_22  and  C_23
   10  A    between atoms: C_23  and  C_24
   11  A    between atoms: C_24  and  C_27
                            x       y       z     vdW  Elec       q    Type
                         _______ _______ _______ _____ _____    ______ ____

>  <TORSDO>
F 11

$$$$
=
 OpenBabel11052419063D

 32 34  0  0  1  0  0  0  0  0999 V2000
  189.4350  176.3870  144.4770 C   0  0  2  0  0  3  0  0  0  0  0  0
  189.3940  174.0570  143.3320 C   0  0  2  0  0  3  0  0  0  0  0  0
  189.4090  175.5860  143.1560 C   0  0  2  0  0  3  0  0  0  0  0  0
  190.8150  173.4560  143.3790 C   0  0  1  0  0  3  0  0  0  0  0  0
  189.1340  172.8350  141.0890 C   0  0  1  0  0  3  0  0  0  0  0  0
  190.0770  171.6520  141.4080 C   0  0  2  0  0  3  0  0  0  0  0  0
  190.3720  176.0180  142.2140 O   0  0  0  0  0  0  0  0  0  0  0  0
  190.7760  171.6440  143.1180 S   0  0  0  0  0  0  0  0  0  0  0  0
  191.6380  175.5690  142.6300 C   0  0  0  0  0  2  0  0  0  0  0  0
  188.4390  173.3960  142.3290 C   0  0  0  0  0  2  0  0  0  0  0  0
  191.7370  174.1210  142.4450 N   0  0  0  0  0  0  0  0  0  0  0  0
  189.7760  173.8550  140.3800 O   0  0  0  0  0  1  0  0  0  0  0  0
  191.1450  171.3970  140.3310 C   0  0  0  0  0  3  0  0  0  0  0  0
  192.3050  170.5910  140.8910 C   0  0  0  0  0  1  0  0  0  0  0  0
  190.5630  170.6220  139.1620 C   0  0  0  0  0  1  0  0  0  0  0  0
  193.1250  173.7100  142.6960 C   0  0  0  0  0  2  0  0  0  0  0  0
  194.0940  174.8840  142.8350 C   0  0  0  0  0  1  0  0  0  0  0  0
  188.4460  175.7470  145.4640 C   0  0  1  0  0  3  0  0  0  0  0  0
  189.0010  175.4340  146.8630 C   0  0  2  0  0  3  0  0  0  0  0  0
  188.1200  176.6460  146.6430 C   0  0  2  0  0  3  0  0  0  0  0  0
  191.1730  175.2200  148.4500 O   0  0  0  0  0  0  0  0  0  0  0  0
  190.6570  177.4280  147.5580 O   0  0  0  0  0  0  0  0  0  0  0  0
  190.6810  175.9590  147.2400 S   0  0  0  0  0  0  0  0  0  0  0  0
  192.8170  174.7650  146.3880 C   0  0  0  0  0  1  0  0  0  0  0  0
  191.7760  175.6680  145.9240 N   0  0  0  0  0  2  0  0  0  0  0  0
  186.7200  176.3390  147.1370 C   0  0  0  0  0  2  0  0  0  0  0  0
  185.8450  177.5750  147.0350 C   0  0  0  0  0  2  0  0  0  0  0  0
  184.1160  178.5620  146.0830 C   0  0  0  0  0  1  0  0  0  0  0  0
  184.7760  177.3370  146.1700 O   0  0  0  0  0  0  0  0  0  0  0  0
  189.0010  177.8310  144.2090 C   0  0  0  0  0  2  0  0  0  0  0  0
  186.7410  178.4750  143.7570 O   0  0  0  0  0  1  0  0  0  0  0  0
  187.8840  177.9170  143.1810 C   0  0  0  0  0  2  0  0  0  0  0  0
  1 30  1  6  0  0  0
  2 10  1  6  0  0  0
  2  4  1  0  0  0  0
  3  2  1  0  0  0  0
  3  1  1  1  0  0  0
  4  8  1  6  0  0  0
  5 12  1  1  0  0  0
  5  6  1  0  0  0  0
  5 10  1  0  0  0  0
  6 13  1  6  0  0  0
  6  8  1  0  0  0  0
  7  9  1  0  0  0  0
  7  3  1  0  0  0  0
 11  9  1  0  0  0  0
 11 16  1  0  0  0  0
 11  4  1  0  0  0  0
 13 14  1  0  0  0  0
 15 13  1  0  0  0  0
 16 17  1  0  0  0  0
 18  1  1  6  0  0  0
 18 20  1  0  0  0  0
 18 19  1  0  0  0  0
 19 23  1  6  0  0  0
 20 19  1  0  0  0  0
 20 26  1  1  0  0  0
 23 22  2  0  0  0  0
 23 21  2  0  0  0  0
 25 24  1  0  0  0  0
 25 23  1  0  0  0  0
 27 26  1  0  0  0  0
 28 29  1  0  0  0  0
 29 27  1  0  0  0  0
 32 31  1  0  0  0  0
 32 30  1  0  0  0  0
M  END
>  <MODEL>
3

>  <REMARK>
 VINA RESULT:      -5.9      2.476      4.819
  Name = 
  11 active torsions:
  status: ('A' for Active; 'I' for Inactive)
    1  A    between atoms: C_1  and  C_4
    2  A    between atoms: C_1  and  C_5
    3  A    between atoms: C_1  and  C_16
    4  A    between atoms: C_4  and  C_30
    5  A    between atoms: C_9  and  C_12
    6  A    between atoms: C_13  and  N_29
    7  A    between atoms: S_15  and  C_20
    8  A    between atoms: S_15  and  N_26
    9  A    between atoms: O_22  and  C_23
   10  A    between atoms: C_23  and  C_24
   11  A    between atoms: C_24  and  C_27
                            x       y       z     vdW  Elec       q    Type
                         _______ _______ _______ _____ _____    ______ ____

>  <TORSDO>
F 11

$$$$
=
 OpenBabel11052419063D

 32 34  0  0  1  0  0  0  0  0999 V2000
  191.2980  175.6250  145.1770 C   0  0  2  0  0  3  0  0  0  0  0  0
  188.7320  175.7940  145.5380 C   0  0  2  0  0  3  0  0  0  0  0  0
  190.1220  176.3920  145.8230 C   0  0  2  0  0  3  0  0  0  0  0  0
  188.0890  176.3800  144.2630 C   0  0  1  0  0  3  0  0  0  0  0  0
  186.8800  177.0140  146.8310 C   0  0  1  0  0  3  0  0  0  0  0  0
  185.8020  176.9480  145.7240 C   0  0  2  0  0  3  0  0  0  0  0  0
  190.1710  177.7890  145.6060 O   0  0  0  0  0  0  0  0  0  0  0  0
  186.2940  176.0220  144.2030 S   0  0  0  0  0  0  0  0  0  0  0  0
  189.7980  178.0490  144.2750 C   0  0  0  0  0  2  0  0  0  0  0  0
  187.8480  175.8330  146.7920 C   0  0  0  0  0  2  0  0  0  0  0  0
  188.3640  177.8170  144.1060 N   0  0  0  0  0  0  0  0  0  0  0  0
  187.5780  178.2250  146.8270 O   0  0  0  0  0  1  0  0  0  0  0  0
  185.1510  178.3040  145.4040 C   0  0  0  0  0  3  0  0  0  0  0  0
  184.5270  178.3000  144.0190 C   0  0  0  0  0  1  0  0  0  0  0  0
  184.0560  178.6300  146.4050 C   0  0  0  0  0  1  0  0  0  0  0  0
  187.9660  178.2840  142.7710 C   0  0  0  0  0  2  0  0  0  0  0  0
  188.5450  177.4430  141.6330 C   0  0  0  0  0  1  0  0  0  0  0  0
  190.7340  174.4670  144.3390 C   0  0  1  0  0  3  0  0  0  0  0  0
  191.3900  174.2500  142.9660 C   0  0  2  0  0  3  0  0  0  0  0  0
  191.7360  173.3450  144.1300 C   0  0  2  0  0  3  0  0  0  0  0  0
  192.4520  176.7170  142.7080 O   0  0  0  0  0  0  0  0  0  0  0  0
  193.1490  175.0300  141.0950 O   0  0  0  0  0  0  0  0  0  0  0  0
  192.8110  175.2700  142.5400 S   0  0  0  0  0  0  0  0  0  0  0  0
  195.0620  176.0880  143.5280 C   0  0  0  0  0  1  0  0  0  0  0  0
  194.1970  174.9200  143.5260 N   0  0  0  0  0  2  0  0  0  0  0  0
  190.9940  172.0320  143.9760 C   0  0  0  0  0  2  0  0  0  0  0  0
  190.1640  172.0430  142.7050 C   0  0  0  0  0  2  0  0  0  0  0  0
  188.1560  172.7300  142.1050 C   0  0  0  0  0  1  0  0  0  0  0  0
  188.8110  171.9000  143.0140 O   0  0  0  0  0  0  0  0  0  0  0  0
  192.1980  175.0490  146.2750 C   0  0  0  0  0  2  0  0  0  0  0  0
  193.7870  176.7760  146.7390 O   0  0  0  0  0  1  0  0  0  0  0  0
  192.6710  176.1150  147.2510 C   0  0  0  0  0  2  0  0  0  0  0  0
  1 30  1  1  0  0  0
  2  3  1  0  0  0  0
  2 10  1  1  0  0  0
  3  1  1  6  0  0  0
  4  8  1  1  0  0  0
  4  2  1  0  0  0  0
  5 12  1  6  0  0  0
  6 13  1  6  0  0  0
  6  5  1  0  0  0  0
  7  3  1  0  0  0  0
  8  6  1  0  0  0  0
  9  7  1  0  0  0  0
 10  5  1  0  0  0  0
 11  4  1  0  0  0  0
 11  9  1  0  0  0  0
 13 15  1  0  0  0  0
 14 13  1  0  0  0  0
 16 11  1  0  0  0  0
 17 16  1  0  0  0  0
 18  1  1  1  0  0  0
 19 23  1  1  0  0  0
 19 20  1  0  0  0  0
 19 18  1  0  0  0  0
 20 26  1  6  0  0  0
 20 18  1  0  0  0  0
 22 23  2  0  0  0  0
 23 21  2  0  0  0  0
 23 25  1  0  0  0  0
 25 24  1  0  0  0  0
 27 29  1  0  0  0  0
 27 26  1  0  0  0  0
 28 29  1  0  0  0  0
 30 32  1  0  0  0  0
 31 32  1  0  0  0  0
M  END
>  <MODEL>
4

>  <REMARK>
 VINA RESULT:      -5.9      2.140      7.172
  Name = 
  11 active torsions:
  status: ('A' for Active; 'I' for Inactive)
    1  A    between atoms: C_1  and  C_4
    2  A    between atoms: C_1  and  C_5
    3  A    between atoms: C_1  and  C_16
    4  A    between atoms: C_4  and  C_30
    5  A    between atoms: C_9  and  C_12
    6  A    between atoms: C_13  and  N_29
    7  A    between atoms: S_15  and  C_20
    8  A    between atoms: S_15  and  N_26
    9  A    between atoms: O_22  and  C_23
   10  A    between atoms: C_23  and  C_24
   11  A    between atoms: C_24  and  C_27
                            x       y       z     vdW  Elec       q    Type
                         _______ _______ _______ _____ _____    ______ ____

>  <TORSDO>
F 11

$$$$
=
 OpenBabel11052419063D

 32 34  0  0  1  0  0  0  0  0999 V2000
  192.1310  174.4660  142.9670 C   0  0  2  0  0  3  0  0  0  0  0  0
  190.3240  176.2430  143.5300 C   0  0  2  0  0  3  0  0  0  0  0  0
  190.6390  174.8620  142.9260 C   0  0  2  0  0  3  0  0  0  0  0  0
  190.0050  176.1660  145.0390 C   0  0  1  0  0  3  0  0  0  0  0  0
  187.8590  176.8900  143.2140 C   0  0  1  0  0  3  0  0  0  0  0  0
  187.6710  177.5900  144.5790 C   0  0  2  0  0  3  0  0  0  0  0  0
  189.7710  173.8490  143.3970 O   0  0  0  0  0  0  0  0  0  0  0  0
  189.1920  177.7000  145.6220 S   0  0  0  0  0  0  0  0  0  0  0  0
  189.8650  173.7940  144.7990 C   0  0  0  0  0  2  0  0  0  0  0  0
  189.2880  176.9930  142.6820 C   0  0  0  0  0  2  0  0  0  0  0  0
  189.2230  174.9690  145.3870 N   0  0  0  0  0  0  0  0  0  0  0  0
  187.4350  175.5580  143.2330 O   0  0  0  0  0  1  0  0  0  0  0  0
  186.4470  177.0990  145.3710 C   0  0  0  0  0  3  0  0  0  0  0  0
  186.6080  177.3760  146.8560 C   0  0  0  0  0  1  0  0  0  0  0  0
  185.1820  177.7970  144.9020 C   0  0  0  0  0  1  0  0  0  0  0  0
  189.1590  174.7890  146.8440 C   0  0  0  0  0  2  0  0  0  0  0  0
  190.4680  175.1290  147.5580 C   0  0  0  0  0  1  0  0  0  0  0  0
  192.9820  175.7060  142.6510 C   0  0  1  0  0  3  0  0  0  0  0  0
  194.1310  175.9990  143.6300 C   0  0  2  0  0  3  0  0  0  0  0  0
  194.4160  175.3620  142.2860 C   0  0  2  0  0  3  0  0  0  0  0  0
  193.1840  174.6190  145.7460 O   0  0  0  0  0  0  0  0  0  0  0  0
  195.4960  175.3780  145.8550 O   0  0  0  0  0  0  0  0  0  0  0  0
  194.4390  174.8120  144.9480 S   0  0  0  0  0  0  0  0  0  0  0  0
  194.4300  172.2350  145.2140 C   0  0  0  0  0  1  0  0  0  0  0  0
  194.9600  173.2710  144.3420 N   0  0  0  0  0  2  0  0  0  0  0  0
  194.9590  176.4160  141.3410 C   0  0  0  0  0  2  0  0  0  0  0  0
  196.4410  176.6300  141.5910 C   0  0  0  0  0  2  0  0  0  0  0  0
  197.9290  175.7780  142.9780 C   0  0  0  0  0  1  0  0  0  0  0  0
  197.0450  175.4270  141.9600 O   0  0  0  0  0  0  0  0  0  0  0  0
  192.4060  173.3940  141.9080 C   0  0  0  0  0  2  0  0  0  0  0  0
  190.9610  172.5440  140.2010 O   0  0  0  0  0  1  0  0  0  0  0  0
  191.6770  173.6720  140.6030 C   0  0  0  0  0  2  0  0  0  0  0  0
  1 30  1  6  0  0  0
  2 10  1  6  0  0  0
  2  4  1  0  0  0  0
  3  1  1  1  0  0  0
  3  7  1  0  0  0  0
  3  2  1  0  0  0  0
  4 11  1  0  0  0  0
  4  8  1  6  0  0  0
  5 12  1  1  0  0  0
  5  6  1  0  0  0  0
  6 13  1  1  0  0  0
  6  8  1  0  0  0  0
  7  9  1  0  0  0  0
  9 11  1  0  0  0  0
 10  5  1  0  0  0  0
 11 16  1  0  0  0  0
 13 14  1  0  0  0  0
 15 13  1  0  0  0  0
 16 17  1  0  0  0  0
 18  1  1  1  0  0  0
 18 19  1  0  0  0  0
 19 23  1  1  0  0  0
 20 26  1  6  0  0  0
 20 18  1  0  0  0  0
 20 19  1  0  0  0  0
 23 21  2  0  0  0  0
 23 22  2  0  0  0  0
 25 23  1  0  0  0  0
 25 24  1  0  0  0  0
 26 27  1  0  0  0  0
 27 29  1  0  0  0  0
 29 28  1  0  0  0  0
 31 32  1  0  0  0  0
 32 30  1  0  0  0  0
M  END
>  <MODEL>
5

>  <REMARK>
 VINA RESULT:      -5.8      2.437      7.484
  Name = 
  11 active torsions:
  status: ('A' for Active; 'I' for Inactive)
    1  A    between atoms: C_1  and  C_4
    2  A    between atoms: C_1  and  C_5
    3  A    between atoms: C_1  and  C_16
    4  A    between atoms: C_4  and  C_30
    5  A    between atoms: C_9  and  C_12
    6  A    between atoms: C_13  and  N_29
    7  A    between atoms: S_15  and  C_20
    8  A    between atoms: S_15  and  N_26
    9  A    between atoms: O_22  and  C_23
   10  A    between atoms: C_23  and  C_24
   11  A    between atoms: C_24  and  C_27
                            x       y       z     vdW  Elec       q    Type
                         _______ _______ _______ _____ _____    ______ ____

>  <TORSDO>
F 11

$$$$
=
 OpenBabel11052419063D

 32 34  0  0  1  0  0  0  0  0999 V2000
  191.4010  175.5620  144.1270 C   0  0  2  0  0  3  0  0  0  0  0  0
  188.9980  175.6980  145.1000 C   0  0  2  0  0  3  0  0  0  0  0  0
  190.4270  176.2720  145.0920 C   0  0  2  0  0  3  0  0  0  0  0  0
  188.0820  176.3870  144.0650 C   0  0  1  0  0  3  0  0  0  0  0  0
  187.5280  176.8070  146.8890 C   0  0  1  0  0  3  0  0  0  0  0  0
  186.2180  176.8320  146.0680 C   0  0  2  0  0  3  0  0  0  0  0  0
  190.4480  177.6820  144.9820 O   0  0  0  0  0  0  0  0  0  0  0  0
  186.3170  176.0340  144.4050 S   0  0  0  0  0  0  0  0  0  0  0  0
  189.7760  178.0500  143.8030 C   0  0  0  0  0  2  0  0  0  0  0  0
  188.4360  175.6340  146.5260 C   0  0  0  0  0  2  0  0  0  0  0  0
  188.3380  177.8320  143.9620 N   0  0  0  0  0  0  0  0  0  0  0  0
  188.2280  178.0150  146.8150 O   0  0  0  0  0  1  0  0  0  0  0  0
  185.5350  178.2090  146.0210 C   0  0  0  0  0  3  0  0  0  0  0  0
  184.5680  178.3030  144.8520 C   0  0  0  0  0  1  0  0  0  0  0  0
  184.7490  178.4690  147.2950 C   0  0  0  0  0  1  0  0  0  0  0  0
  187.6450  178.4070  142.8010 C   0  0  0  0  0  2  0  0  0  0  0  0
  188.1760  177.8990  141.4610 C   0  0  0  0  0  1  0  0  0  0  0  0
  191.4480  174.0660  144.4800 C   0  0  1  0  0  3  0  0  0  0  0  0
  191.1340  173.0940  143.3310 C   0  0  2  0  0  3  0  0  0  0  0  0
  192.5650  173.3240  143.7690 C   0  0  2  0  0  3  0  0  0  0  0  0
  192.1240  174.4940  141.2470 O   0  0  0  0  0  0  0  0  0  0  0  0
  189.7640  174.7930  141.7690 O   0  0  0  0  0  0  0  0  0  0  0  0
  190.8770  173.7860  141.6890 S   0  0  0  0  0  0  0  0  0  0  0  0
  190.7780  171.2690  141.0850 C   0  0  0  0  0  1  0  0  0  0  0  0
  190.4780  172.5720  140.5140 N   0  0  0  0  0  2  0  0  0  0  0  0
  193.0170  172.1570  144.6240 C   0  0  0  0  0  2  0  0  0  0  0  0
  194.1860  172.5710  145.5000 C   0  0  0  0  0  2  0  0  0  0  0  0
  195.9690  173.8520  145.7120 C   0  0  0  0  0  1  0  0  0  0  0  0
  195.0960  173.3260  144.7600 O   0  0  0  0  0  0  0  0  0  0  0  0
  192.8050  176.1520  144.2890 C   0  0  0  0  0  2  0  0  0  0  0  0
  194.3850  177.0240  145.8600 O   0  0  0  0  0  1  0  0  0  0  0  0
  193.2150  176.2720  145.7490 C   0  0  0  0  0  2  0  0  0  0  0  0
  1 30  1  1  0  0  0
  2 10  1  1  0  0  0
  3  1  1  6  0  0  0
  3  2  1  0  0  0  0
  4  8  1  1  0  0  0
  4  2  1  0  0  0  0
  5 12  1  6  0  0  0
  6 13  1  6  0  0  0
  6  5  1  0  0  0  0
  7  3  1  0  0  0  0
  8  6  1  0  0  0  0
  9 11  1  0  0  0  0
  9  7  1  0  0  0  0
 10  5  1  0  0  0  0
 11  4  1  0  0  0  0
 13 15  1  0  0  0  0
 14 13  1  0  0  0  0
 16 11  1  0  0  0  0
 17 16  1  0  0  0  0
 18  1  1  6  0  0  0
 19 23  1  6  0  0  0
 19 20  1  0  0  0  0
 19 18  1  0  0  0  0
 20 18  1  0  0  0  0
 20 26  1  1  0  0  0
 21 23  2  0  0  0  0
 23 22  2  0  0  0  0
 25 24  1  0  0  0  0
 25 23  1  0  0  0  0
 26 27  1  0  0  0  0
 29 27  1  0  0  0  0
 29 28  1  0  0  0  0
 30 32  1  0  0  0  0
 32 31  1  0  0  0  0
M  END
>  <MODEL>
6

>  <REMARK>
 VINA RESULT:      -5.8      2.370      7.320
  Name = 
  11 active torsions:
  status: ('A' for Active; 'I' for Inactive)
    1  A    between atoms: C_1  and  C_4
    2  A    between atoms: C_1  and  C_5
    3  A    between atoms: C_1  and  C_16
    4  A    between atoms: C_4  and  C_30
    5  A    between atoms: C_9  and  C_12
    6  A    between atoms: C_13  and  N_29
    7  A    between atoms: S_15  and  C_20
    8  A    between atoms: S_15  and  N_26
    9  A    between atoms: O_22  and  C_23
   10  A    between atoms: C_23  and  C_24
   11  A    between atoms: C_24  and  C_27
                            x       y       z     vdW  Elec       q    Type
                         _______ _______ _______ _____ _____    ______ ____

>  <TORSDO>
F 11

$$$$
=
 OpenBabel11052419063D

 32 34  0  0  1  0  0  0  0  0999 V2000
  191.5430  174.2050  144.3010 C   0  0  2  0  0  3  0  0  0  0  0  0
  190.0530  175.6460  142.7380 C   0  0  2  0  0  3  0  0  0  0  0  0
  190.1800  174.3720  143.5930 C   0  0  2  0  0  3  0  0  0  0  0  0
  189.5020  176.8430  143.5420 C   0  0  1  0  0  3  0  0  0  0  0  0
  187.8390  175.7150  141.4400 C   0  0  1  0  0  3  0  0  0  0  0  0
  187.5870  177.2340  141.5760 C   0  0  2  0  0  3  0  0  0  0  0  0
  189.0710  174.1760  144.4480 O   0  0  0  0  0  0  0  0  0  0  0  0
  188.9260  178.1790  142.4300 S   0  0  0  0  0  0  0  0  0  0  0  0
  188.9400  175.3030  145.2790 C   0  0  0  0  0  2  0  0  0  0  0  0
  189.3230  175.3560  141.4190 C   0  0  0  0  0  2  0  0  0  0  0  0
  188.4580  176.4430  144.5000 N   0  0  0  0  0  0  0  0  0  0  0  0
  187.1650  174.9720  142.4140 O   0  0  0  0  0  1  0  0  0  0  0  0
  186.1860  177.5920  142.1000 C   0  0  0  0  0  3  0  0  0  0  0  0
  186.2270  178.8360  142.9720 C   0  0  0  0  0  1  0  0  0  0  0  0
  185.2300  177.8620  140.9510 C   0  0  0  0  0  1  0  0  0  0  0  0
  188.1420  177.5420  145.4210 C   0  0  0  0  0  2  0  0  0  0  0  0
  187.4270  177.0850  146.6930 C   0  0  0  0  0  1  0  0  0  0  0  0
  192.5930  175.0470  143.5600 C   0  0  1  0  0  3  0  0  0  0  0  0
  193.3430  176.0850  144.4110 C   0  0  2  0  0  3  0  0  0  0  0  0
  194.0100  174.7790  144.0360 C   0  0  2  0  0  3  0  0  0  0  0  0
  194.0720  176.9350  146.8660 O   0  0  0  0  0  0  0  0  0  0  0  0
  193.0920  174.7110  146.7020 O   0  0  0  0  0  0  0  0  0  0  0  0
  193.0160  176.1190  146.1810 S   0  0  0  0  0  0  0  0  0  0  0  0
  191.2590  176.7120  147.9910 C   0  0  0  0  0  1  0  0  0  0  0  0
  191.4600  176.7920  146.5540 N   0  0  0  0  0  2  0  0  0  0  0  0
  194.9780  175.0250  142.8940 C   0  0  0  0  0  2  0  0  0  0  0  0
  196.0410  176.0240  143.3130 C   0  0  0  0  0  2  0  0  0  0  0  0
  195.7280  176.7770  141.2640 C   0  0  0  0  0  1  0  0  0  0  0  0
  196.7280  176.4910  142.1920 O   0  0  0  0  0  0  0  0  0  0  0  0
  191.9670  172.7330  144.2540 C   0  0  0  0  0  2  0  0  0  0  0  0
  192.6460  171.7950  142.1600 O   0  0  0  0  0  1  0  0  0  0  0  0
  191.5360  172.0490  142.9660 C   0  0  0  0  0  2  0  0  0  0  0  0
  1 30  1  6  0  0  0
  2 10  1  6  0  0  0
  2  4  1  0  0  0  0
  2  3  1  0  0  0  0
  3  1  1  1  0  0  0
  3  7  1  0  0  0  0
  4  8  1  6  0  0  0
  4 11  1  0  0  0  0
  5  6  1  0  0  0  0
  5 12  1  1  0  0  0
  6 13  1  1  0  0  0
  6  8  1  0  0  0  0
  7  9  1  0  0  0  0
 10  5  1  0  0  0  0
 11  9  1  0  0  0  0
 11 16  1  0  0  0  0
 13 14  1  0  0  0  0
 15 13  1  0  0  0  0
 16 17  1  0  0  0  0
 18 20  1  0  0  0  0
 18  1  1  1  0  0  0
 18 19  1  0  0  0  0
 19 23  1  1  0  0  0
 20 26  1  6  0  0  0
 20 19  1  0  0  0  0
 23 25  1  0  0  0  0
 23 22  2  0  0  0  0
 23 21  2  0  0  0  0
 25 24  1  0  0  0  0
 26 27  1  0  0  0  0
 28 29  1  0  0  0  0
 29 27  1  0  0  0  0
 31 32  1  0  0  0  0
 32 30  1  0  0  0  0
M  END
>  <MODEL>
7

>  <REMARK>
 VINA RESULT:      -5.7      2.339      7.215
  Name = 
  11 active torsions:
  status: ('A' for Active; 'I' for Inactive)
    1  A    between atoms: C_1  and  C_4
    2  A    between atoms: C_1  and  C_5
    3  A    between atoms: C_1  and  C_16
    4  A    between atoms: C_4  and  C_30
    5  A    between atoms: C_9  and  C_12
    6  A    between atoms: C_13  and  N_29
    7  A    between atoms: S_15  and  C_20
    8  A    between atoms: S_15  and  N_26
    9  A    between atoms: O_22  and  C_23
   10  A    between atoms: C_23  and  C_24
   11  A    between atoms: C_24  and  C_27
                            x       y       z     vdW  Elec       q    Type
                         _______ _______ _______ _____ _____    ______ ____

>  <TORSDO>
F 11

$$$$
=
 OpenBabel11052419063D

 32 34  0  0  1  0  0  0  0  0999 V2000
  191.8520  174.1120  142.9590 C   0  0  2  0  0  3  0  0  0  0  0  0
  189.9870  175.9100  142.7780 C   0  0  2  0  0  3  0  0  0  0  0  0
  190.3520  174.4150  142.7440 C   0  0  2  0  0  3  0  0  0  0  0  0
  189.6260  176.3950  144.1990 C   0  0  1  0  0  3  0  0  0  0  0  0
  187.5180  176.3080  142.1970 C   0  0  1  0  0  3  0  0  0  0  0  0
  187.2730  177.4640  143.1950 C   0  0  2  0  0  3  0  0  0  0  0  0
  189.4950  173.6250  143.5460 O   0  0  0  0  0  0  0  0  0  0  0  0
  188.7600  178.0080  144.1470 S   0  0  0  0  0  0  0  0  0  0  0  0
  189.5500  174.1040  144.8670 C   0  0  0  0  0  2  0  0  0  0  0  0
  188.9580  176.2520  141.6920 C   0  0  0  0  0  2  0  0  0  0  0  0
  188.8630  175.3920  144.9580 N   0  0  0  0  0  0  0  0  0  0  0  0
  187.1250  175.0690  142.7080 O   0  0  0  0  0  1  0  0  0  0  0  0
  186.0390  177.2660  144.0910 C   0  0  0  0  0  3  0  0  0  0  0  0
  186.1560  178.0750  145.3710 C   0  0  0  0  0  1  0  0  0  0  0  0
  184.7740  177.7080  143.3760 C   0  0  0  0  0  1  0  0  0  0  0  0
  188.7610  175.7710  146.3740 C   0  0  0  0  0  2  0  0  0  0  0  0
  189.1250  174.6400  147.3360 C   0  0  0  0  0  1  0  0  0  0  0  0
  192.6810  175.2320  142.3110 C   0  0  1  0  0  3  0  0  0  0  0  0
  193.7090  175.9200  143.2240 C   0  0  2  0  0  3  0  0  0  0  0  0
  194.1570  174.8920  142.2080 C   0  0  2  0  0  3  0  0  0  0  0  0
  194.9960  176.0530  145.5920 O   0  0  0  0  0  0  0  0  0  0  0  0
  194.3760  173.8410  144.7830 O   0  0  0  0  0  0  0  0  0  0  0  0
  193.9260  175.2710  144.8890 S   0  0  0  0  0  0  0  0  0  0  0  0
  192.6620  176.3220  146.8910 C   0  0  0  0  0  1  0  0  0  0  0  0
  192.4670  175.3520  145.8260 N   0  0  0  0  0  2  0  0  0  0  0  0
  194.7530  175.6030  141.0090 C   0  0  0  0  0  2  0  0  0  0  0  0
  195.8240  176.5810  141.4580 C   0  0  0  0  0  2  0  0  0  0  0  0
  197.4010  176.4530  142.9950 C   0  0  0  0  0  1  0  0  0  0  0  0
  196.9950  175.8940  141.7840 O   0  0  0  0  0  0  0  0  0  0  0  0
  192.2070  172.7820  142.2880 C   0  0  0  0  0  2  0  0  0  0  0  0
  190.7840  171.4560  140.8960 O   0  0  0  0  0  1  0  0  0  0  0  0
  191.5430  172.6250  140.9290 C   0  0  0  0  0  2  0  0  0  0  0  0
  1 30  1  6  0  0  0
  2 10  1  6  0  0  0
  2  4  1  0  0  0  0
  3  2  1  0  0  0  0
  3  1  1  1  0  0  0
  3  7  1  0  0  0  0
  4  8  1  6  0  0  0
  4 11  1  0  0  0  0
  5 12  1  1  0  0  0
  5  6  1  0  0  0  0
  6 13  1  1  0  0  0
  6  8  1  0  0  0  0
  7  9  1  0  0  0  0
  9 11  1  0  0  0  0
 10  5  1  0  0  0  0
 11 16  1  0  0  0  0
 13 14  1  0  0  0  0
 15 13  1  0  0  0  0
 16 17  1  0  0  0  0
 18  1  1  1  0  0  0
 18 19  1  0  0  0  0
 19 23  1  1  0  0  0
 20 26  1  6  0  0  0
 20 18  1  0  0  0  0
 20 19  1  0  0  0  0
 22 23  2  0  0  0  0
 23 21  2  0  0  0  0
 23 25  1  0  0  0  0
 25 24  1  0  0  0  0
 26 27  1  0  0  0  0
 27 29  1  0  0  0  0
 29 28  1  0  0  0  0
 31 32  1  0  0  0  0
 32 30  1  0  0  0  0
M  END
>  <MODEL>
8

>  <REMARK>
 VINA RESULT:      -5.7      2.333      7.388
  Name = 
  11 active torsions:
  status: ('A' for Active; 'I' for Inactive)
    1  A    between atoms: C_1  and  C_4
    2  A    between atoms: C_1  and  C_5
    3  A    between atoms: C_1  and  C_16
    4  A    between atoms: C_4  and  C_30
    5  A    between atoms: C_9  and  C_12
    6  A    between atoms: C_13  and  N_29
    7  A    between atoms: S_15  and  C_20
    8  A    between atoms: S_15  and  N_26
    9  A    between atoms: O_22  and  C_23
   10  A    between atoms: C_23  and  C_24
   11  A    between atoms: C_24  and  C_27
                            x       y       z     vdW  Elec       q    Type
                         _______ _______ _______ _____ _____    ______ ____

>  <TORSDO>
F 11

$$$$
=
 OpenBabel11052419063D

 32 34  0  0  1  0  0  0  0  0999 V2000
  189.3170  176.6570  143.5610 C   0  0  2  0  0  3  0  0  0  0  0  0
  189.1080  174.3260  142.4370 C   0  0  2  0  0  3  0  0  0  0  0  0
  189.7920  175.7050  142.4420 C   0  0  2  0  0  3  0  0  0  0  0  0
  189.8640  173.2900  143.2970 C   0  0  1  0  0  3  0  0  0  0  0  0
  189.8130  172.9100  140.4140 C   0  0  1  0  0  3  0  0  0  0  0  0
  189.8510  171.5470  141.1420 C   0  0  2  0  0  3  0  0  0  0  0  0
  191.2000  175.6160  142.3350 O   0  0  0  0  0  0  0  0  0  0  0  0
  189.3190  171.5850  142.9110 S   0  0  0  0  0  0  0  0  0  0  0  0
  191.6820  174.8350  143.4010 C   0  0  0  0  0  2  0  0  0  0  0  0
  188.7860  173.8740  141.0060 C   0  0  0  0  0  2  0  0  0  0  0  0
  191.3240  173.4330  143.1920 N   0  0  0  0  0  0  0  0  0  0  0  0
  191.0720  173.5130  140.3430 O   0  0  0  0  0  1  0  0  0  0  0  0
  191.1580  170.7630  140.9360 C   0  0  0  0  0  3  0  0  0  0  0  0
  191.3410  169.7080  142.0130 C   0  0  0  0  0  1  0  0  0  0  0  0
  191.1620  170.0590  139.5900 C   0  0  0  0  0  1  0  0  0  0  0  0
  192.0060  172.6180  144.2070 C   0  0  0  0  0  2  0  0  0  0  0  0
  192.7810  173.4440  145.2330 C   0  0  0  0  0  1  0  0  0  0  0  0
  187.8030  176.8790  143.4130 C   0  0  1  0  0  3  0  0  0  0  0  0
  186.9740  176.7370  144.7000 C   0  0  2  0  0  3  0  0  0  0  0  0
  187.3100  178.1090  144.1540 C   0  0  2  0  0  3  0  0  0  0  0  0
  186.8750  176.1010  147.3200 O   0  0  0  0  0  0  0  0  0  0  0  0
  188.5400  177.7410  146.6350 O   0  0  0  0  0  0  0  0  0  0  0  0
  187.8570  176.4600  146.2450 S   0  0  0  0  0  0  0  0  0  0  0  0
  189.9520  175.3030  147.2370 C   0  0  0  0  0  1  0  0  0  0  0  0
  189.0340  175.1900  146.1150 N   0  0  0  0  0  2  0  0  0  0  0  0
  186.0960  178.6710  143.4420 C   0  0  0  0  0  2  0  0  0  0  0  0
  185.2600  179.4980  144.4020 C   0  0  0  0  0  2  0  0  0  0  0  0
  184.1050  178.6660  146.0870 C   0  0  0  0  0  1  0  0  0  0  0  0
  184.0720  178.8290  144.7020 O   0  0  0  0  0  0  0  0  0  0  0  0
  190.0300  178.0050  143.4240 C   0  0  0  0  0  2  0  0  0  0  0  0
  192.2730  177.9130  144.2520 O   0  0  0  0  0  1  0  0  0  0  0  0
  190.9700  178.2810  144.5880 C   0  0  0  0  0  2  0  0  0  0  0  0
  1 30  1  6  0  0  0
  2 10  1  6  0  0  0
  2  3  1  0  0  0  0
  2  4  1  0  0  0  0
  3  1  1  1  0  0  0
  4  8  1  6  0  0  0
  5 12  1  1  0  0  0
  5 10  1  0  0  0  0
  5  6  1  0  0  0  0
  6 13  1  1  0  0  0
  6  8  1  0  0  0  0
  7  3  1  0  0  0  0
  7  9  1  0  0  0  0
 11  4  1  0  0  0  0
 11  9  1  0  0  0  0
 11 16  1  0  0  0  0
 13 14  1  0  0  0  0
 15 13  1  0  0  0  0
 16 17  1  0  0  0  0
 18  1  1  1  0  0  0
 18 20  1  0  0  0  0
 18 19  1  0  0  0  0
 19 23  1  1  0  0  0
 20 26  1  6  0  0  0
 20 19  1  0  0  0  0
 23 22  2  0  0  0  0
 23 21  2  0  0  0  0
 25 23  1  0  0  0  0
 25 24  1  0  0  0  0
 26 27  1  0  0  0  0
 27 29  1  0  0  0  0
 29 28  1  0  0  0  0
 30 32  1  0  0  0  0
 31 32  1  0  0  0  0
M  END
>  <MODEL>
9

>  <REMARK>
 VINA RESULT:      -5.6      2.670      4.559
  Name = 
  11 active torsions:
  status: ('A' for Active; 'I' for Inactive)
    1  A    between atoms: C_1  and  C_4
    2  A    between atoms: C_1  and  C_5
    3  A    between atoms: C_1  and  C_16
    4  A    between atoms: C_4  and  C_30
    5  A    between atoms: C_9  and  C_12
    6  A    between atoms: C_13  and  N_29
    7  A    between atoms: S_15  and  C_20
    8  A    between atoms: S_15  and  N_26
    9  A    between atoms: O_22  and  C_23
   10  A    between atoms: C_23  and  C_24
   11  A    between atoms: C_24  and  C_27
                            x       y       z     vdW  Elec       q    Type
                         _______ _______ _______ _____ _____    ______ ____

>  <TORSDO>
F 11

$$$$
