=
 OpenBabel11052420433D

 43 47  0  0  1  0  0  0  0  0999 V2000
  184.4210  178.4800  145.8520 C   0  0  0  0  0  0  0  0  0  0  0  0
  188.2610  176.1270  145.8700 C   0  0  0  0  0  0  0  0  0  0  0  0
  188.5570  175.2130  143.2390 C   0  0  0  0  0  0  0  0  0  0  0  0
  186.7740  177.3190  146.7840 C   0  0  0  0  0  0  0  0  0  0  0  0
  184.8400  177.5440  143.6750 F   0  0  0  0  0  0  0  0  0  0  0  0
  183.2720  179.0520  145.4180 F   0  0  0  0  0  0  0  0  0  0  0  0
  186.3760  177.1540  145.4700 C   0  0  0  0  0  0  0  0  0  0  0  0
  184.8210  178.6520  147.1960 C   0  0  0  0  0  3  0  0  0  0  0  0
  185.2080  177.7200  144.9680 C   0  0  0  0  0  0  0  0  0  0  0  0
  187.4990  175.9180  143.5530 N   0  0  0  0  0  0  0  0  0  0  0  0
  187.3450  176.3810  144.8960 C   0  0  0  0  0  0  0  0  0  0  0  0
  187.9450  176.6940  147.0580 N   0  0  0  0  0  2  0  0  0  0  0  0
  189.4240  175.3620  145.5640 N   0  0  0  0  0  0  0  0  0  0  0  0
  189.5660  174.9150  144.2330 N   0  0  0  0  0  2  0  0  0  0  0  0
  186.0100  178.0700  147.6760 C   0  0  0  0  0  3  0  0  0  0  0  0
  188.7530  174.7400  141.8380 C   0  0  1  0  0  3  0  0  0  0  0  0
  188.2010  175.6620  140.9440 O   0  0  0  0  0  1  0  0  0  0  0  0
  190.2380  174.5500  141.5590 C   0  0  0  0  0  2  0  0  0  0  0  0
  191.5240  172.3760  141.8810 N   0  0  0  0  0  2  0  0  0  0  0  0
  190.5450  173.1380  141.1710 C   0  0  0  0  0  0  0  0  0  0  0  0
  189.9170  172.6040  140.2180 O   0  0  0  0  0  0  0  0  0  0  0  0
  192.2890  172.9170  142.9990 C   0  0  1  0  0  3  0  0  0  0  0  0
  190.7450  171.8180  144.4870 O   0  0  0  0  0  1  0  0  0  0  0  0
  192.1020  172.0320  144.2340 C   0  0  1  0  0  3  0  0  0  0  0  0
  194.0180  170.4260  144.7450 N   0  0  0  0  0  0  0  0  0  0  0  0
  192.7910  170.7100  144.0550 C   0  0  0  0  0  0  0  0  0  0  0  0
  196.1740  169.2970  144.5800 C   0  0  0  0  0  2  0  0  0  0  0  0
  196.0520  171.3860  145.6900 C   0  0  0  0  0  2  0  0  0  0  0  0
  196.6000  170.0340  145.7680 N   0  0  0  0  0  2  0  0  0  0  0  0
  194.5280  171.3360  145.7680 C   0  0  0  0  0  2  0  0  0  0  0  0
  194.6580  169.1210  144.5940 C   0  0  0  0  0  2  0  0  0  0  0  0
  192.3020  169.8610  143.2610 O   0  0  0  0  0  0  0  0  0  0  0  0
  193.7570  172.9960  142.6060 C   0  0  0  0  0  2  0  0  0  0  0  0
  193.9820  174.1560  141.6570 C   0  0  0  0  0  1  0  0  0  0  0  0
  190.4800  175.1370  146.5400 C   0  0  0  0  0  2  0  0  0  0  0  0
  194.1960  175.0450  145.8100 C   0  0  0  0  0  3  0  0  0  0  0  0
  194.3200  176.0500  144.8440 C   0  0  0  0  0  0  0  0  0  0  0  0
  191.9260  176.4490  144.9740 C   0  0  0  0  0  3  0  0  0  0  0  0
  192.9440  174.7410  146.3560 C   0  0  0  0  0  3  0  0  0  0  0  0
  191.8080  175.4380  145.9330 C   0  0  0  0  0  0  0  0  0  0  0  0
  193.1770  176.7530  144.4290 C   0  0  0  0  0  3  0  0  0  0  0  0
  196.5630  175.3230  144.0960 C   0  0  0  0  0  1  0  0  0  0  0  0
  195.5840  176.3300  144.3180 O   0  0  0  0  0  0  0  0  0  0  0  0
  1  8  1  0  0  0  0
  2 12  1  0  0  0  0
  3 10  2  0  0  0  0
  3 14  1  0  0  0  0
  4 12  1  0  0  0  0
  4 15  1  0  0  0  0
  5  9  1  0  0  0  0
  6  1  1  0  0  0  0
  7  4  2  0  0  0  0
  8 15  2  0  0  0  0
  9  7  1  0  0  0  0
  9  1  2  0  0  0  0
 10 11  1  0  0  0  0
 11  7  1  0  0  0  0
 11  2  2  0  0  0  0
 13  2  1  0  0  0  0
 13 35  1  0  0  0  0
 14 13  1  0  0  0  0
 16 17  1  6  0  0  0
 16  3  1  0  0  0  0
 18 16  1  0  0  0  0
 19 22  1  0  0  0  0
 20 18  1  0  0  0  0
 20 19  1  0  0  0  0
 21 20  2  0  0  0  0
 22 33  1  6  0  0  0
 22 24  1  0  0  0  0
 24 23  1  6  0  0  0
 25 30  1  0  0  0  0
 26 24  1  0  0  0  0
 26 25  1  0  0  0  0
 27 31  1  0  0  0  0
 27 29  1  0  0  0  0
 28 30  1  0  0  0  0
 28 29  1  0  0  0  0
 31 25  1  0  0  0  0
 32 26  2  0  0  0  0
 34 33  1  0  0  0  0
 36 39  1  0  0  0  0
 37 36  2  0  0  0  0
 38 40  1  0  0  0  0
 40 39  2  0  0  0  0
 40 35  1  0  0  0  0
 41 37  1  0  0  0  0
 41 38  2  0  0  0  0
 42 43  1  0  0  0  0
 43 37  1  0  0  0  0
M  END
>  <MODEL>
1

>  <REMARK>
 VINA RESULT:      -7.6      0.000      0.000
  Name = 
  10 active torsions:
  status: ('A' for Active; 'I' for Inactive)
    1  A    between atoms: C_1  and  N_34
    2  A    between atoms: C_1  and  C_35
    3  A    between atoms: C_2  and  C_6
    4  A    between atoms: C_2  and  C_13
    5  A    between atoms: N_3  and  C_4
    6  A    between atoms: C_4  and  C_15
    7  A    between atoms: C_4  and  C_22
    8  A    between atoms: C_6  and  C_12
    9  A    between atoms: C_14  and  C_22
   10  A    between atoms: C_19  and  O_37
                            x       y       z     vdW  Elec       q    Type
                         _______ _______ _______ _____ _____    ______ ____

>  <TORSDO>
F 10

$$$$
=
 OpenBabel11052420433D

 43 47  0  0  1  0  0  0  0  0999 V2000
  185.0140  178.5310  146.8670 C   0  0  0  0  0  0  0  0  0  0  0  0
  188.0780  176.9330  143.9770 C   0  0  0  0  0  0  0  0  0  0  0  0
  190.4380  176.7280  145.4720 C   0  0  0  0  0  0  0  0  0  0  0  0
  186.1310  177.5670  144.5060 C   0  0  0  0  0  0  0  0  0  0  0  0
  187.1580  178.3320  147.9440 F   0  0  0  0  0  0  0  0  0  0  0  0
  184.4530  179.0040  148.0060 F   0  0  0  0  0  0  0  0  0  0  0  0
  186.9030  177.7170  145.6430 C   0  0  0  0  0  0  0  0  0  0  0  0
  184.2200  178.3810  145.7080 C   0  0  0  0  0  3  0  0  0  0  0  0
  186.3800  178.1940  146.8420 C   0  0  2  0  0  3  0  0  0  0  0  0
  189.3580  177.1970  146.0470 N   0  0  0  0  0  0  0  0  0  0  0  0
  188.1550  177.3060  145.2840 C   0  0  0  0  0  0  0  0  0  0  0  0
  186.8360  177.0780  143.4570 N   0  0  0  0  0  0  0  0  0  0  0  0
  189.2320  176.4190  143.3190 N   0  0  0  0  0  0  0  0  0  0  0  0
  190.4130  176.3120  144.0850 N   0  0  0  0  0  2  0  0  0  0  0  0
  184.7760  177.8930  144.5110 C   0  0  0  0  0  3  0  0  0  0  0  0
  191.6990  176.5800  146.2540 C   0  0  1  0  0  3  0  0  0  0  0  0
  191.6360  175.4290  147.0440 O   0  0  0  0  0  1  0  0  0  0  0  0
  192.8890  176.5130  145.3070 C   0  0  0  0  0  2  0  0  0  0  0  0
  195.0340  175.2520  145.8510 N   0  0  0  0  0  2  0  0  0  0  0  0
  194.1770  176.3780  146.0560 C   0  0  0  0  0  0  0  0  0  0  0  0
  194.5240  177.2800  146.8650 O   0  0  0  0  0  0  0  0  0  0  0  0
  194.7100  174.1700  144.9290 C   0  0  1  0  0  3  0  0  0  0  0  0
  196.9840  174.4340  144.1790 O   0  0  0  0  0  1  0  0  0  0  0  0
  195.9950  173.4870  144.4560 C   0  0  1  0  0  3  0  0  0  0  0  0
  196.2820  171.1130  145.3450 N   0  0  0  0  0  0  0  0  0  0  0  0
  196.5020  172.5240  145.4910 C   0  0  0  0  0  0  0  0  0  0  0  0
  195.8260  169.0390  146.5470 C   0  0  0  0  0  2  0  0  0  0  0  0
  194.7980  169.4000  144.4420 C   0  0  0  0  0  2  0  0  0  0  0  0
  195.5050  168.4180  145.2630 N   0  0  0  0  0  2  0  0  0  0  0  0
  195.7250  170.5660  144.1100 C   0  0  0  0  0  2  0  0  0  0  0  0
  196.8160  170.1820  146.3380 C   0  0  0  0  0  2  0  0  0  0  0  0
  197.0910  172.9690  146.5130 O   0  0  0  0  0  0  0  0  0  0  0  0
  193.7940  173.1760  145.6280 C   0  0  0  0  0  2  0  0  0  0  0  0
  192.6190  172.8300  144.7350 C   0  0  0  0  0  1  0  0  0  0  0  0
  189.1860  175.9210  141.9530 C   0  0  0  0  0  2  0  0  0  0  0  0
  189.0350  172.1780  142.5180 C   0  0  0  0  0  3  0  0  0  0  0  0
  190.2350  171.7550  141.9370 C   0  0  0  0  0  0  0  0  0  0  0  0
  190.7440  174.0580  141.3500 C   0  0  0  0  0  3  0  0  0  0  0  0
  188.6880  173.5330  142.5150 C   0  0  0  0  0  3  0  0  0  0  0  0
  189.5390  174.4730  141.9260 C   0  0  0  0  0  0  0  0  0  0  0  0
  191.0910  172.7030  141.3530 C   0  0  0  0  0  3  0  0  0  0  0  0
  191.7940  169.9020  142.4400 C   0  0  0  0  0  1  0  0  0  0  0  0
  190.5520  170.3940  141.9550 O   0  0  0  0  0  0  0  0  0  0  0  0
  1  6  1  0  0  0  0
  2 11  1  0  0  0  0
  3 10  2  0  0  0  0
  3 16  1  0  0  0  0
  4 15  2  0  0  0  0
  4  7  1  0  0  0  0
  7  9  1  0  0  0  0
  8  1  2  0  0  0  0
  9  1  1  0  0  0  0
  9  5  1  6  0  0  0
 11  7  2  0  0  0  0
 11 10  1  0  0  0  0
 12  2  2  0  0  0  0
 12  4  1  0  0  0  0
 13  2  1  0  0  0  0
 13 14  1  0  0  0  0
 14  3  1  0  0  0  0
 15  8  1  0  0  0  0
 16 17  1  6  0  0  0
 18 20  1  0  0  0  0
 18 16  1  0  0  0  0
 19 20  1  0  0  0  0
 20 21  2  0  0  0  0
 22 33  1  1  0  0  0
 22 19  1  0  0  0  0
 24 23  1  1  0  0  0
 24 22  1  0  0  0  0
 24 26  1  0  0  0  0
 25 26  1  0  0  0  0
 25 31  1  0  0  0  0
 26 32  2  0  0  0  0
 28 29  1  0  0  0  0
 29 27  1  0  0  0  0
 30 28  1  0  0  0  0
 30 25  1  0  0  0  0
 31 27  1  0  0  0  0
 34 33  1  0  0  0  0
 35 13  1  0  0  0  0
 37 43  1  0  0  0  0
 37 36  2  0  0  0  0
 38 41  2  0  0  0  0
 38 40  1  0  0  0  0
 39 36  1  0  0  0  0
 40 35  1  0  0  0  0
 40 39  2  0  0  0  0
 41 37  1  0  0  0  0
 43 42  1  0  0  0  0
M  END
>  <MODEL>
2

>  <REMARK>
 VINA RESULT:      -7.5      2.115      4.629
  Name = 
  10 active torsions:
  status: ('A' for Active; 'I' for Inactive)
    1  A    between atoms: C_1  and  N_34
    2  A    between atoms: C_1  and  C_35
    3  A    between atoms: C_2  and  C_6
    4  A    between atoms: C_2  and  C_13
    5  A    between atoms: N_3  and  C_4
    6  A    between atoms: C_4  and  C_15
    7  A    between atoms: C_4  and  C_22
    8  A    between atoms: C_6  and  C_12
    9  A    between atoms: C_14  and  C_22
   10  A    between atoms: C_19  and  O_37
                            x       y       z     vdW  Elec       q    Type
                         _______ _______ _______ _____ _____    ______ ____

>  <TORSDO>
F 10

$$$$
=
 OpenBabel11052420433D

 43 47  0  0  1  0  0  0  0  0999 V2000
  185.1170  178.5210  146.8140 C   0  0  0  0  0  0  0  0  0  0  0  0
  188.1720  176.7880  143.9940 C   0  0  0  0  0  0  0  0  0  0  0  0
  190.5340  176.6440  145.4920 C   0  0  0  0  0  0  0  0  0  0  0  0
  186.2270  177.4500  144.4960 C   0  0  0  0  0  0  0  0  0  0  0  0
  187.2620  178.3650  147.8950 F   0  0  0  0  0  0  0  0  0  0  0  0
  184.5580  179.0460  147.9310 F   0  0  0  0  0  0  0  0  0  0  0  0
  187.0020  177.6490  145.6240 C   0  0  0  0  0  0  0  0  0  0  0  0
  184.3210  178.3210  145.6640 C   0  0  0  0  0  3  0  0  0  0  0  0
  186.4820  178.1800  146.8010 C   0  0  2  0  0  3  0  0  0  0  0  0
  189.4570  177.1410  146.0480 N   0  0  0  0  0  0  0  0  0  0  0  0
  188.2520  177.2190  145.2820 C   0  0  0  0  0  0  0  0  0  0  0  0
  186.9300  176.9120  143.4690 N   0  0  0  0  0  0  0  0  0  0  0  0
  189.3240  176.2430  143.3580 N   0  0  0  0  0  0  0  0  0  0  0  0
  190.5050  176.1670  144.1250 N   0  0  0  0  0  2  0  0  0  0  0  0
  184.8730  177.7790  144.4890 C   0  0  0  0  0  3  0  0  0  0  0  0
  191.7960  176.5290  146.2780 C   0  0  1  0  0  3  0  0  0  0  0  0
  191.7410  175.4010  147.1010 O   0  0  0  0  0  1  0  0  0  0  0  0
  192.9870  176.4420  145.3330 C   0  0  0  0  0  2  0  0  0  0  0  0
  195.1140  175.1500  145.8710 N   0  0  0  0  0  2  0  0  0  0  0  0
  194.2710  176.2840  146.0850 C   0  0  0  0  0  0  0  0  0  0  0  0
  194.6260  177.1720  146.9040 O   0  0  0  0  0  0  0  0  0  0  0  0
  194.7800  174.0810  144.9360 C   0  0  1  0  0  3  0  0  0  0  0  0
  196.3590  172.2830  145.2130 O   0  0  0  0  0  1  0  0  0  0  0  0
  196.0600  173.4060  144.4380 C   0  0  1  0  0  3  0  0  0  0  0  0
  196.3170  173.8920  141.9460 N   0  0  0  0  0  0  0  0  0  0  0  0
  195.9260  172.9980  142.9990 C   0  0  0  0  0  0  0  0  0  0  0  0
  195.7930  174.6530  139.6880 C   0  0  0  0  0  2  0  0  0  0  0  0
  196.5490  176.2300  141.2880 C   0  0  0  0  0  2  0  0  0  0  0  0
  196.7000  175.7790  139.9050 N   0  0  0  0  0  2  0  0  0  0  0  0
  197.0180  175.1390  142.2460 C   0  0  0  0  0  2  0  0  0  0  0  0
  196.2200  173.4680  140.5510 C   0  0  0  0  0  2  0  0  0  0  0  0
  195.4280  171.8730  142.7200 O   0  0  0  0  0  0  0  0  0  0  0  0
  193.8730  173.0760  145.6310 C   0  0  0  0  0  2  0  0  0  0  0  0
  192.6420  172.8110  144.7870 C   0  0  0  0  0  1  0  0  0  0  0  0
  189.2740  175.6830  142.0150 C   0  0  0  0  0  2  0  0  0  0  0  0
  191.1050  172.4350  141.3470 C   0  0  0  0  0  3  0  0  0  0  0  0
  190.3200  171.5170  142.0530 C   0  0  0  0  0  0  0  0  0  0  0  0
  188.8560  173.3280  142.7490 C   0  0  0  0  0  3  0  0  0  0  0  0
  190.7710  173.7930  141.3420 C   0  0  0  0  0  3  0  0  0  0  0  0
  189.6500  174.2410  142.0480 C   0  0  0  0  0  0  0  0  0  0  0  0
  189.1900  171.9700  142.7540 C   0  0  0  0  0  3  0  0  0  0  0  0
  191.9670  169.7120  142.4410 C   0  0  0  0  0  1  0  0  0  0  0  0
  190.6810  170.1670  142.0390 O   0  0  0  0  0  0  0  0  0  0  0  0
  1  6  1  0  0  0  0
  2 11  1  0  0  0  0
  3 10  2  0  0  0  0
  3 16  1  0  0  0  0
  4  7  1  0  0  0  0
  7  9  1  0  0  0  0
  8  1  2  0  0  0  0
  9  1  1  0  0  0  0
  9  5  1  6  0  0  0
 11  7  2  0  0  0  0
 11 10  1  0  0  0  0
 12  2  2  0  0  0  0
 12  4  1  0  0  0  0
 13  2  1  0  0  0  0
 13 14  1  0  0  0  0
 14  3  1  0  0  0  0
 15  4  2  0  0  0  0
 15  8  1  0  0  0  0
 16 17  1  6  0  0  0
 18 20  1  0  0  0  0
 18 16  1  0  0  0  0
 19 20  1  0  0  0  0
 20 21  2  0  0  0  0
 22 33  1  1  0  0  0
 22 19  1  0  0  0  0
 24 22  1  0  0  0  0
 24 23  1  1  0  0  0
 25 30  1  0  0  0  0
 25 26  1  0  0  0  0
 26 24  1  0  0  0  0
 27 29  1  0  0  0  0
 27 31  1  0  0  0  0
 28 30  1  0  0  0  0
 29 28  1  0  0  0  0
 31 25  1  0  0  0  0
 32 26  2  0  0  0  0
 34 33  1  0  0  0  0
 35 40  1  0  0  0  0
 35 13  1  0  0  0  0
 36 37  1  0  0  0  0
 37 41  2  0  0  0  0
 38 41  1  0  0  0  0
 39 36  2  0  0  0  0
 39 40  1  0  0  0  0
 40 38  2  0  0  0  0
 43 37  1  0  0  0  0
 43 42  1  0  0  0  0
M  END
>  <MODEL>
3

>  <REMARK>
 VINA RESULT:      -7.5      2.513      5.072
  Name = 
  10 active torsions:
  status: ('A' for Active; 'I' for Inactive)
    1  A    between atoms: C_1  and  N_34
    2  A    between atoms: C_1  and  C_35
    3  A    between atoms: C_2  and  C_6
    4  A    between atoms: C_2  and  C_13
    5  A    between atoms: N_3  and  C_4
    6  A    between atoms: C_4  and  C_15
    7  A    between atoms: C_4  and  C_22
    8  A    between atoms: C_6  and  C_12
    9  A    between atoms: C_14  and  C_22
   10  A    between atoms: C_19  and  O_37
                            x       y       z     vdW  Elec       q    Type
                         _______ _______ _______ _____ _____    ______ ____

>  <TORSDO>
F 10

$$$$
=
 OpenBabel11052420433D

 43 47  0  0  1  0  0  0  0  0999 V2000
  184.4220  178.4370  145.5020 C   0  0  0  0  0  0  0  0  0  0  0  0
  188.2670  176.1540  146.0390 C   0  0  0  0  0  0  0  0  0  0  0  0
  189.0780  175.4890  143.4410 C   0  0  0  0  0  0  0  0  0  0  0  0
  186.5970  177.2330  146.7560 C   0  0  0  0  0  0  0  0  0  0  0  0
  185.2700  177.7110  143.3690 F   0  0  0  0  0  0  0  0  0  0  0  0
  183.3560  179.0280  144.9100 F   0  0  0  0  0  0  0  0  0  0  0  0
  186.4570  177.1820  145.3820 C   0  0  0  0  0  0  0  0  0  0  0  0
  184.5590  178.4910  146.9070 C   0  0  0  0  0  3  0  0  0  0  0  0
  185.3850  177.7730  144.7190 C   0  0  0  0  0  0  0  0  0  0  0  0
  187.9570  176.1460  143.6100 N   0  0  0  0  0  0  0  0  0  0  0  0
  187.5410  176.4810  144.9360 C   0  0  0  0  0  0  0  0  0  0  0  0
  187.7160  176.6040  147.1910 N   0  0  0  0  0  2  0  0  0  0  0  0
  189.4910  175.4390  145.8930 N   0  0  0  0  0  0  0  0  0  0  0  0
  189.8930  175.1180  144.5790 N   0  0  0  0  0  2  0  0  0  0  0  0
  185.6560  177.8870  147.5490 C   0  0  0  0  0  3  0  0  0  0  0  0
  189.5470  175.1500  142.0670 C   0  0  1  0  0  3  0  0  0  0  0  0
  190.8660  174.6920  142.1150 O   0  0  0  0  0  1  0  0  0  0  0  0
  188.6370  174.0930  141.4560 C   0  0  0  0  0  2  0  0  0  0  0  0
  189.9460  172.0360  140.7220 N   0  0  0  0  0  2  0  0  0  0  0  0
  189.1580  172.7130  141.7040 C   0  0  0  0  0  0  0  0  0  0  0  0
  188.9180  172.1440  142.8020 O   0  0  0  0  0  0  0  0  0  0  0  0
  190.2760  172.6250  139.4290 C   0  0  1  0  0  3  0  0  0  0  0  0
  191.7600  171.5060  137.8960 O   0  0  0  0  0  1  0  0  0  0  0  0
  191.7210  172.2860  139.0550 C   0  0  1  0  0  3  0  0  0  0  0  0
  193.5520  173.9090  139.7780 N   0  0  0  0  0  0  0  0  0  0  0  0
  192.5270  173.5350  138.8450 C   0  0  0  0  0  0  0  0  0  0  0  0
  194.6510  175.7920  140.8720 C   0  0  0  0  0  2  0  0  0  0  0  0
  194.2750  173.8050  142.1060 C   0  0  0  0  0  2  0  0  0  0  0  0
  195.2590  174.8400  141.7990 N   0  0  0  0  0  2  0  0  0  0  0  0
  193.9560  173.0000  140.8490 C   0  0  0  0  0  2  0  0  0  0  0  0
  194.3570  175.1040  139.5410 C   0  0  0  0  0  2  0  0  0  0  0  0
  192.2710  174.2760  137.8570 O   0  0  0  0  0  0  0  0  0  0  0  0
  189.3060  172.1000  138.3800 C   0  0  0  0  0  2  0  0  0  0  0  0
  188.5750  173.2510  137.7200 C   0  0  0  0  0  1  0  0  0  0  0  0
  190.3530  175.1420  147.0270 C   0  0  0  0  0  2  0  0  0  0  0  0
  193.7650  174.1790  145.6930 C   0  0  0  0  0  3  0  0  0  0  0  0
  194.4950  175.3540  145.9050 C   0  0  0  0  0  0  0  0  0  0  0  0
  192.5090  176.3990  146.8380 C   0  0  0  0  0  3  0  0  0  0  0  0
  192.4150  174.1120  146.0490 C   0  0  0  0  0  3  0  0  0  0  0  0
  191.7840  175.2240  146.6150 C   0  0  0  0  0  0  0  0  0  0  0  0
  193.8590  176.4660  146.4820 C   0  0  0  0  0  3  0  0  0  0  0  0
  196.5850  174.2160  145.2310 C   0  0  0  0  0  1  0  0  0  0  0  0
  195.8430  175.3890  145.5370 O   0  0  0  0  0  0  0  0  0  0  0  0
  1  8  1  0  0  0  0
  2 12  1  0  0  0  0
  3 10  2  0  0  0  0
  3 14  1  0  0  0  0
  4 12  1  0  0  0  0
  4 15  1  0  0  0  0
  5  9  1  0  0  0  0
  6  1  1  0  0  0  0
  7  4  2  0  0  0  0
  8 15  2  0  0  0  0
  9  7  1  0  0  0  0
  9  1  2  0  0  0  0
 10 11  1  0  0  0  0
 11  7  1  0  0  0  0
 11  2  2  0  0  0  0
 13  2  1  0  0  0  0
 13 35  1  0  0  0  0
 14 13  1  0  0  0  0
 16 17  1  1  0  0  0
 16  3  1  0  0  0  0
 18 20  1  0  0  0  0
 18 16  1  0  0  0  0
 19 20  1  0  0  0  0
 20 21  2  0  0  0  0
 22 33  1  6  0  0  0
 22 19  1  0  0  0  0
 24 23  1  6  0  0  0
 24 22  1  0  0  0  0
 25 30  1  0  0  0  0
 26 24  1  0  0  0  0
 26 25  1  0  0  0  0
 27 29  1  0  0  0  0
 29 28  1  0  0  0  0
 30 28  1  0  0  0  0
 31 25  1  0  0  0  0
 31 27  1  0  0  0  0
 32 26  2  0  0  0  0
 34 33  1  0  0  0  0
 36 37  2  0  0  0  0
 36 39  1  0  0  0  0
 37 41  1  0  0  0  0
 39 40  2  0  0  0  0
 40 38  1  0  0  0  0
 40 35  1  0  0  0  0
 41 38  2  0  0  0  0
 42 43  1  0  0  0  0
 43 37  1  0  0  0  0
M  END
>  <MODEL>
4

>  <REMARK>
 VINA RESULT:      -7.4      2.353      3.577
  Name = 
  10 active torsions:
  status: ('A' for Active; 'I' for Inactive)
    1  A    between atoms: C_1  and  N_34
    2  A    between atoms: C_1  and  C_35
    3  A    between atoms: C_2  and  C_6
    4  A    between atoms: C_2  and  C_13
    5  A    between atoms: N_3  and  C_4
    6  A    between atoms: C_4  and  C_15
    7  A    between atoms: C_4  and  C_22
    8  A    between atoms: C_6  and  C_12
    9  A    between atoms: C_14  and  C_22
   10  A    between atoms: C_19  and  O_37
                            x       y       z     vdW  Elec       q    Type
                         _______ _______ _______ _____ _____    ______ ____

>  <TORSDO>
F 10

$$$$
=
 OpenBabel11052420433D

 43 47  0  0  1  0  0  0  0  0999 V2000
  185.0030  178.3130  146.8130 C   0  0  0  0  0  0  0  0  0  0  0  0
  188.5630  177.0170  144.3780 C   0  0  0  0  0  0  0  0  0  0  0  0
  190.6050  176.6060  146.2510 C   0  0  0  0  0  0  0  0  0  0  0  0
  186.5470  177.6130  144.6050 C   0  0  0  0  0  0  0  0  0  0  0  0
  186.9090  177.9600  148.2390 F   0  0  0  0  0  0  0  0  0  0  0  0
  184.2350  178.6590  147.8750 F   0  0  0  0  0  0  0  0  0  0  0  0
  187.0930  177.6190  145.8750 C   0  0  0  0  0  0  0  0  0  0  0  0
  184.4400  178.3100  145.5170 C   0  0  0  0  0  3  0  0  0  0  0  0
  186.3520  177.9620  147.0030 C   0  0  2  0  0  3  0  0  0  0  0  0
  189.4330  177.0210  146.6660 N   0  0  0  0  0  0  0  0  0  0  0  0
  188.3930  177.2350  145.7100 C   0  0  0  0  0  0  0  0  0  0  0  0
  187.4390  177.2390  143.6560 N   0  0  0  0  0  0  0  0  0  0  0  0
  189.8240  176.5660  143.8910 N   0  0  0  0  0  0  0  0  0  0  0  0
  190.8420  176.3540  144.8450 N   0  0  0  0  0  2  0  0  0  0  0  0
  185.2130  177.9560  144.3950 C   0  0  0  0  0  3  0  0  0  0  0  0
  191.6990  176.3510  147.2310 C   0  0  1  0  0  3  0  0  0  0  0  0
  191.1930  175.6700  148.3420 O   0  0  0  0  0  1  0  0  0  0  0  0
  192.8070  175.5430  146.5700 C   0  0  0  0  0  2  0  0  0  0  0  0
  195.2040  175.8180  145.7550 N   0  0  0  0  0  2  0  0  0  0  0  0
  194.0660  176.3420  146.4440 C   0  0  0  0  0  0  0  0  0  0  0  0
  194.1190  177.5010  146.9340 O   0  0  0  0  0  0  0  0  0  0  0  0
  195.2230  174.4900  145.1550 C   0  0  1  0  0  3  0  0  0  0  0  0
  194.7740  175.7150  143.1290 O   0  0  0  0  0  1  0  0  0  0  0  0
  194.5070  174.5200  143.8020 C   0  0  1  0  0  3  0  0  0  0  0  0
  194.5970  172.0150  143.3240 N   0  0  0  0  0  0  0  0  0  0  0  0
  194.9290  173.3600  142.9470 C   0  0  0  0  0  0  0  0  0  0  0  0
  195.3750  169.7030  143.3250 C   0  0  0  0  0  2  0  0  0  0  0  0
  194.1610  170.5100  145.1930 C   0  0  0  0  0  2  0  0  0  0  0  0
  194.3010  169.3890  144.2650 N   0  0  0  0  0  2  0  0  0  0  0  0
  193.6940  171.7530  144.4420 C   0  0  0  0  0  2  0  0  0  0  0  0
  194.9770  170.8980  142.4620 C   0  0  0  0  0  2  0  0  0  0  0  0
  195.6130  173.5750  141.9090 O   0  0  0  0  0  0  0  0  0  0  0  0
  196.6670  174.0350  144.9940 C   0  0  0  0  0  2  0  0  0  0  0  0
  197.0590  173.1240  146.1400 C   0  0  0  0  0  1  0  0  0  0  0  0
  190.0370  176.2290  142.4910 C   0  0  0  0  0  2  0  0  0  0  0  0
  188.9970  172.5870  142.4470 C   0  0  0  0  0  3  0  0  0  0  0  0
  190.1900  171.9560  142.0760 C   0  0  0  0  0  0  0  0  0  0  0  0
  191.2820  174.1250  141.9600 C   0  0  0  0  0  3  0  0  0  0  0  0
  188.9440  173.9790  142.5730 C   0  0  0  0  0  3  0  0  0  0  0  0
  190.0840  174.7490  142.3230 C   0  0  0  0  0  0  0  0  0  0  0  0
  191.3350  172.7330  141.8340 C   0  0  0  0  0  3  0  0  0  0  0  0
  191.4170  169.8190  141.8590 C   0  0  0  0  0  1  0  0  0  0  0  0
  190.2100  170.5640  141.9580 O   0  0  0  0  0  0  0  0  0  0  0  0
  1  9  1  0  0  0  0
  1  6  1  0  0  0  0
  2 11  1  0  0  0  0
  3 10  2  0  0  0  0
  3 16  1  0  0  0  0
  4  7  1  0  0  0  0
  7  9  1  0  0  0  0
  8  1  2  0  0  0  0
  9  5  1  6  0  0  0
 11  7  2  0  0  0  0
 11 10  1  0  0  0  0
 12  2  2  0  0  0  0
 12  4  1  0  0  0  0
 13  2  1  0  0  0  0
 13 14  1  0  0  0  0
 14  3  1  0  0  0  0
 15  4  2  0  0  0  0
 15  8  1  0  0  0  0
 16 17  1  1  0  0  0
 18 16  1  0  0  0  0
 19 20  1  0  0  0  0
 20 18  1  0  0  0  0
 20 21  2  0  0  0  0
 22 33  1  6  0  0  0
 22 19  1  0  0  0  0
 24 23  1  6  0  0  0
 24 22  1  0  0  0  0
 25 30  1  0  0  0  0
 26 25  1  0  0  0  0
 26 24  1  0  0  0  0
 27 29  1  0  0  0  0
 29 28  1  0  0  0  0
 30 28  1  0  0  0  0
 31 25  1  0  0  0  0
 31 27  1  0  0  0  0
 32 26  2  0  0  0  0
 33 34  1  0  0  0  0
 35 13  1  0  0  0  0
 36 39  1  0  0  0  0
 37 36  2  0  0  0  0
 38 40  1  0  0  0  0
 40 35  1  0  0  0  0
 40 39  2  0  0  0  0
 41 38  2  0  0  0  0
 41 37  1  0  0  0  0
 42 43  1  0  0  0  0
 43 37  1  0  0  0  0
M  END
>  <MODEL>
5

>  <REMARK>
 VINA RESULT:      -7.4      2.169      4.646
  Name = 
  10 active torsions:
  status: ('A' for Active; 'I' for Inactive)
    1  A    between atoms: C_1  and  N_34
    2  A    between atoms: C_1  and  C_35
    3  A    between atoms: C_2  and  C_6
    4  A    between atoms: C_2  and  C_13
    5  A    between atoms: N_3  and  C_4
    6  A    between atoms: C_4  and  C_15
    7  A    between atoms: C_4  and  C_22
    8  A    between atoms: C_6  and  C_12
    9  A    between atoms: C_14  and  C_22
   10  A    between atoms: C_19  and  O_37
                            x       y       z     vdW  Elec       q    Type
                         _______ _______ _______ _____ _____    ______ ____

>  <TORSDO>
F 10

$$$$
=
 OpenBabel11052420433D

 43 47  0  0  1  0  0  0  0  0999 V2000
  196.6860  176.1280  143.5290 C   0  0  0  0  0  0  0  0  0  0  0  0
  192.8710  173.8390  144.2360 C   0  0  0  0  0  0  0  0  0  0  0  0
  191.1170  175.7010  145.3790 C   0  0  0  0  0  0  0  0  0  0  0  0
  194.8660  174.0210  143.5600 C   0  0  0  0  0  0  0  0  0  0  0  0
  195.0420  177.5420  144.5740 F   0  0  0  0  0  0  0  0  0  0  0  0
  197.5860  177.1400  143.5070 F   0  0  0  0  0  0  0  0  0  0  0  0
  194.5220  175.2590  144.0690 C   0  0  0  0  0  0  0  0  0  0  0  0
  197.0440  174.8640  143.0090 C   0  0  0  0  0  3  0  0  0  0  0  0
  195.4030  176.3360  144.0700 C   0  0  2  0  0  3  0  0  0  0  0  0
  192.3370  176.0740  145.0810 N   0  0  0  0  0  0  0  0  0  0  0  0
  193.2340  175.1240  144.5020 C   0  0  0  0  0  0  0  0  0  0  0  0
  193.8570  173.1200  143.6490 N   0  0  0  0  0  0  0  0  0  0  0  0
  191.5520  173.3980  144.5470 N   0  0  0  0  0  0  0  0  0  0  0  0
  190.6750  174.3470  145.1140 N   0  0  0  0  0  2  0  0  0  0  0  0
  196.1300  173.7940  143.0190 C   0  0  0  0  0  3  0  0  0  0  0  0
  190.1550  176.6800  145.9600 C   0  0  1  0  0  3  0  0  0  0  0  0
  190.4110  177.9570  145.4510 O   0  0  0  0  0  1  0  0  0  0  0  0
  188.7280  176.2550  145.6400 C   0  0  0  0  0  2  0  0  0  0  0  0
  186.8310  176.8590  147.2290 N   0  0  0  0  0  2  0  0  0  0  0  0
  187.9360  176.0180  146.8870 C   0  0  0  0  0  0  0  0  0  0  0  0
  188.2320  175.0510  147.6380 O   0  0  0  0  0  0  0  0  0  0  0  0
  186.4200  177.9940  146.4110 C   0  0  1  0  0  3  0  0  0  0  0  0
  184.0220  177.9320  146.1870 O   0  0  0  0  0  1  0  0  0  0  0  0
  185.2190  177.6040  145.5460 C   0  0  1  0  0  3  0  0  0  0  0  0
  185.8230  177.6180  143.0670 N   0  0  0  0  0  0  0  0  0  0  0  0
  185.2750  178.2900  144.2110 C   0  0  0  0  0  0  0  0  0  0  0  0
  187.1170  177.9160  141.0190 C   0  0  0  0  0  2  0  0  0  0  0  0
  187.4330  175.9500  142.3050 C   0  0  0  0  0  2  0  0  0  0  0  0
  187.2530  176.4620  140.9480 N   0  0  0  0  0  2  0  0  0  0  0  0
  186.1720  176.2000  143.1280 C   0  0  0  0  0  2  0  0  0  0  0  0
  185.8350  178.2810  141.7650 C   0  0  0  0  0  2  0  0  0  0  0  0
  184.8700  179.4800  144.1110 O   0  0  0  0  0  0  0  0  0  0  0  0
  186.0750  179.1650  147.3210 C   0  0  0  0  0  2  0  0  0  0  0  0
  187.0680  179.2500  148.4630 C   0  0  0  0  0  1  0  0  0  0  0  0
  191.0820  172.0650  144.2020 C   0  0  0  0  0  2  0  0  0  0  0  0
  190.7580  171.4490  140.4790 C   0  0  0  0  0  3  0  0  0  0  0  0
  189.5570  172.1050  140.1860 C   0  0  0  0  0  0  0  0  0  0  0  0
  189.3430  172.7240  142.5270 C   0  0  0  0  0  3  0  0  0  0  0  0
  191.2500  171.4280  141.7880 C   0  0  0  0  0  3  0  0  0  0  0  0
  190.5400  172.0590  142.8130 C   0  0  0  0  0  0  0  0  0  0  0  0
  188.8510  172.7450  141.2180 C   0  0  0  0  0  3  0  0  0  0  0  0
  189.3310  173.1850  137.9720 C   0  0  0  0  0  1  0  0  0  0  0  0
  189.0920  172.1080  138.8680 O   0  0  0  0  0  0  0  0  0  0  0  0
  1  9  1  0  0  0  0
  2 11  1  0  0  0  0
  2 13  1  0  0  0  0
  3 16  1  0  0  0  0
  4 12  1  0  0  0  0
  4  7  1  0  0  0  0
  6  1  1  0  0  0  0
  7  9  1  0  0  0  0
  7 11  2  0  0  0  0
  8 15  1  0  0  0  0
  8  1  2  0  0  0  0
  9  5  1  1  0  0  0
 10  3  2  0  0  0  0
 11 10  1  0  0  0  0
 12  2  2  0  0  0  0
 13 14  1  0  0  0  0
 14  3  1  0  0  0  0
 15  4  2  0  0  0  0
 16 17  1  6  0  0  0
 18 16  1  0  0  0  0
 18 20  1  0  0  0  0
 20 19  1  0  0  0  0
 20 21  2  0  0  0  0
 22 19  1  0  0  0  0
 22 33  1  1  0  0  0
 24 23  1  1  0  0  0
 24 22  1  0  0  0  0
 25 30  1  0  0  0  0
 25 26  1  0  0  0  0
 26 24  1  0  0  0  0
 27 31  1  0  0  0  0
 28 30  1  0  0  0  0
 29 27  1  0  0  0  0
 29 28  1  0  0  0  0
 31 25  1  0  0  0  0
 32 26  2  0  0  0  0
 33 34  1  0  0  0  0
 35 13  1  0  0  0  0
 36 39  1  0  0  0  0
 37 36  2  0  0  0  0
 37 41  1  0  0  0  0
 38 40  1  0  0  0  0
 39 40  2  0  0  0  0
 40 35  1  0  0  0  0
 41 38  2  0  0  0  0
 42 43  1  0  0  0  0
 43 37  1  0  0  0  0
M  END
>  <MODEL>
6

>  <REMARK>
 VINA RESULT:      -7.3      3.570      9.020
  Name = 
  10 active torsions:
  status: ('A' for Active; 'I' for Inactive)
    1  A    between atoms: C_1  and  N_34
    2  A    between atoms: C_1  and  C_35
    3  A    between atoms: C_2  and  C_6
    4  A    between atoms: C_2  and  C_13
    5  A    between atoms: N_3  and  C_4
    6  A    between atoms: C_4  and  C_15
    7  A    between atoms: C_4  and  C_22
    8  A    between atoms: C_6  and  C_12
    9  A    between atoms: C_14  and  C_22
   10  A    between atoms: C_19  and  O_37
                            x       y       z     vdW  Elec       q    Type
                         _______ _______ _______ _____ _____    ______ ____

>  <TORSDO>
F 10

$$$$
=
 OpenBabel11052420433D

 43 47  0  0  1  0  0  0  0  0999 V2000
  184.4980  178.4760  145.5340 C   0  0  0  0  0  0  0  0  0  0  0  0
  188.3680  176.2480  146.1210 C   0  0  0  0  0  0  0  0  0  0  0  0
  189.1780  175.5210  143.5400 C   0  0  0  0  0  0  0  0  0  0  0  0
  186.6880  177.3290  146.8140 C   0  0  0  0  0  0  0  0  0  0  0  0
  185.3470  177.7000  143.4190 F   0  0  0  0  0  0  0  0  0  0  0  0
  183.4230  179.0390  144.9290 F   0  0  0  0  0  0  0  0  0  0  0  0
  186.5450  177.2390  145.4420 C   0  0  0  0  0  0  0  0  0  0  0  0
  184.6380  178.5700  146.9360 C   0  0  0  0  0  3  0  0  0  0  0  0
  185.4650  177.8010  144.7660 C   0  0  0  0  0  0  0  0  0  0  0  0
  188.0510  176.1700  143.6950 N   0  0  0  0  0  0  0  0  0  0  0  0
  187.6350  176.5380  145.0120 C   0  0  0  0  0  0  0  0  0  0  0  0
  187.8160  176.7240  147.2620 N   0  0  0  0  0  2  0  0  0  0  0  0
  189.5990  175.5420  145.9910 N   0  0  0  0  0  0  0  0  0  0  0  0
  190.0010  175.1890  144.6850 N   0  0  0  0  0  2  0  0  0  0  0  0
  185.7430  177.9950  147.5920 C   0  0  0  0  0  3  0  0  0  0  0  0
  189.6470  175.1490  142.1740 C   0  0  1  0  0  3  0  0  0  0  0  0
  190.4840  174.0320  142.2470 O   0  0  0  0  0  1  0  0  0  0  0  0
  188.4510  174.8620  141.2770 C   0  0  0  0  0  2  0  0  0  0  0  0
  188.5700  172.6550  140.0120 N   0  0  0  0  0  2  0  0  0  0  0  0
  188.1840  173.3930  141.1740 C   0  0  0  0  0  0  0  0  0  0  0  0
  187.6310  172.7920  142.1330 O   0  0  0  0  0  0  0  0  0  0  0  0
  189.2200  173.2730  138.8620 C   0  0  1  0  0  3  0  0  0  0  0  0
  190.7420  172.7130  137.0810 O   0  0  0  0  0  1  0  0  0  0  0  0
  190.3910  172.4050  138.3980 C   0  0  1  0  0  3  0  0  0  0  0  0
  191.9140  171.6140  140.2860 N   0  0  0  0  0  0  0  0  0  0  0  0
  191.5850  172.5930  139.2890 C   0  0  0  0  0  0  0  0  0  0  0  0
  192.8080  171.2890  142.5330 C   0  0  0  0  0  2  0  0  0  0  0  0
  191.0250  169.9140  141.7940 C   0  0  0  0  0  2  0  0  0  0  0  0
  192.3140  169.9140  142.4820 N   0  0  0  0  0  2  0  0  0  0  0  0
  191.2100  170.3340  140.3380 C   0  0  0  0  0  2  0  0  0  0  0  0
  193.1010  171.7880  141.1200 C   0  0  0  0  0  2  0  0  0  0  0  0
  192.2770  173.6410  139.1810 O   0  0  0  0  0  0  0  0  0  0  0  0
  188.1990  173.4480  137.7470 C   0  0  0  0  0  2  0  0  0  0  0  0
  187.8480  174.9140  137.5850 C   0  0  0  0  0  1  0  0  0  0  0  0
  190.4680  175.2860  147.1300 C   0  0  0  0  0  2  0  0  0  0  0  0
  194.0110  176.4290  146.4350 C   0  0  0  0  0  3  0  0  0  0  0  0
  194.5570  175.3010  145.8120 C   0  0  0  0  0  0  0  0  0  0  0  0
  192.4290  174.1540  146.0650 C   0  0  0  0  0  3  0  0  0  0  0  0
  192.6830  176.4220  146.8730 C   0  0  0  0  0  3  0  0  0  0  0  0
  191.8930  175.2820  146.6940 C   0  0  0  0  0  0  0  0  0  0  0  0
  193.7570  174.1610  145.6270 C   0  0  0  0  0  3  0  0  0  0  0  0
  196.6820  174.1710  145.2450 C   0  0  0  0  0  1  0  0  0  0  0  0
  195.8870  175.3410  145.3870 O   0  0  0  0  0  0  0  0  0  0  0  0
  1  8  1  0  0  0  0
  2 12  1  0  0  0  0
  3 10  2  0  0  0  0
  3 14  1  0  0  0  0
  4 12  1  0  0  0  0
  4 15  1  0  0  0  0
  5  9  1  0  0  0  0
  6  1  1  0  0  0  0
  7  4  2  0  0  0  0
  8 15  2  0  0  0  0
  9  7  1  0  0  0  0
  9  1  2  0  0  0  0
 10 11  1  0  0  0  0
 11  7  1  0  0  0  0
 11  2  2  0  0  0  0
 13  2  1  0  0  0  0
 13 35  1  0  0  0  0
 14 13  1  0  0  0  0
 16 17  1  1  0  0  0
 16  3  1  0  0  0  0
 18 16  1  0  0  0  0
 19 20  1  0  0  0  0
 20 18  1  0  0  0  0
 20 21  2  0  0  0  0
 22 33  1  6  0  0  0
 22 19  1  0  0  0  0
 24 23  1  6  0  0  0
 24 22  1  0  0  0  0
 24 26  1  0  0  0  0
 25 30  1  0  0  0  0
 25 31  1  0  0  0  0
 26 25  1  0  0  0  0
 28 29  1  0  0  0  0
 29 27  1  0  0  0  0
 30 28  1  0  0  0  0
 31 27  1  0  0  0  0
 32 26  2  0  0  0  0
 34 33  1  0  0  0  0
 36 39  1  0  0  0  0
 37 36  2  0  0  0  0
 38 40  1  0  0  0  0
 40 39  2  0  0  0  0
 40 35  1  0  0  0  0
 41 37  1  0  0  0  0
 41 38  2  0  0  0  0
 42 43  1  0  0  0  0
 43 37  1  0  0  0  0
M  END
>  <MODEL>
7

>  <REMARK>
 VINA RESULT:      -7.3      2.070      3.543
  Name = 
  10 active torsions:
  status: ('A' for Active; 'I' for Inactive)
    1  A    between atoms: C_1  and  N_34
    2  A    between atoms: C_1  and  C_35
    3  A    between atoms: C_2  and  C_6
    4  A    between atoms: C_2  and  C_13
    5  A    between atoms: N_3  and  C_4
    6  A    between atoms: C_4  and  C_15
    7  A    between atoms: C_4  and  C_22
    8  A    between atoms: C_6  and  C_12
    9  A    between atoms: C_14  and  C_22
   10  A    between atoms: C_19  and  O_37
                            x       y       z     vdW  Elec       q    Type
                         _______ _______ _______ _____ _____    ______ ____

>  <TORSDO>
F 10

$$$$
=
 OpenBabel11052420433D

 43 47  0  0  1  0  0  0  0  0999 V2000
  184.8400  178.5210  145.7270 C   0  0  0  0  0  0  0  0  0  0  0  0
  188.6440  176.1380  146.0970 C   0  0  0  0  0  0  0  0  0  0  0  0
  188.9720  174.9140  143.5990 C   0  0  0  0  0  0  0  0  0  0  0  0
  187.1580  177.4490  146.8350 C   0  0  0  0  0  0  0  0  0  0  0  0
  185.2830  177.3270  143.6840 F   0  0  0  0  0  0  0  0  0  0  0  0
  183.7070  179.0510  145.2060 F   0  0  0  0  0  0  0  0  0  0  0  0
  186.7820  177.1330  145.5420 C   0  0  0  0  0  0  0  0  0  0  0  0
  185.2190  178.8460  147.0480 C   0  0  0  0  0  3  0  0  0  0  0  0
  185.6310  177.6500  144.9540 C   0  0  0  0  0  0  0  0  0  0  0  0
  187.9200  175.6650  143.8070 N   0  0  0  0  0  0  0  0  0  0  0  0
  187.7490  176.2860  145.0830 C   0  0  0  0  0  0  0  0  0  0  0  0
  188.3150  176.8460  147.2030 N   0  0  0  0  0  2  0  0  0  0  0  0
  189.8010  175.3270  145.9070 N   0  0  0  0  0  0  0  0  0  0  0  0
  189.9600  174.7240  144.6410 N   0  0  0  0  0  2  0  0  0  0  0  0
  186.3900  178.3100  147.6160 C   0  0  0  0  0  3  0  0  0  0  0  0
  189.1860  174.2760  142.2690 C   0  0  1  0  0  3  0  0  0  0  0  0
  189.6600  175.2240  141.3570 O   0  0  0  0  0  1  0  0  0  0  0  0
  190.1720  173.1230  142.4000 C   0  0  0  0  0  2  0  0  0  0  0  0
  191.8820  172.5350  140.6070 N   0  0  0  0  0  2  0  0  0  0  0  0
  190.5270  172.5520  141.0640 C   0  0  0  0  0  0  0  0  0  0  0  0
  189.6240  172.0590  140.3370 O   0  0  0  0  0  0  0  0  0  0  0  0
  192.9870  173.0790  141.3880 C   0  0  1  0  0  3  0  0  0  0  0  0
  195.0590  172.6910  140.2230 O   0  0  0  0  0  1  0  0  0  0  0  0
  194.2240  172.1930  141.2260 C   0  0  1  0  0  3  0  0  0  0  0  0
  194.7530  171.0240  143.4310 N   0  0  0  0  0  0  0  0  0  0  0  0
  194.9910  172.1020  142.5140 C   0  0  0  0  0  0  0  0  0  0  0  0
  194.6430  170.4090  145.7900 C   0  0  0  0  0  2  0  0  0  0  0  0
  193.1010  169.4390  144.2740 C   0  0  0  0  0  2  0  0  0  0  0  0
  194.0050  169.1570  145.3870 N   0  0  0  0  0  2  0  0  0  0  0  0
  193.8990  169.8980  143.0570 C   0  0  0  0  0  2  0  0  0  0  0  0
  195.5340  170.9230  144.6620 C   0  0  0  0  0  2  0  0  0  0  0  0
  195.8210  173.0060  142.8030 O   0  0  0  0  0  0  0  0  0  0  0  0
  193.2730  174.5000  140.9250 C   0  0  0  0  0  2  0  0  0  0  0  0
  192.9710  175.4840  142.0380 C   0  0  0  0  0  1  0  0  0  0  0  0
  190.8360  175.2060  146.9220 C   0  0  0  0  0  2  0  0  0  0  0  0
  194.2920  174.4270  145.5820 C   0  0  0  0  0  3  0  0  0  0  0  0
  194.7410  175.6960  145.2000 C   0  0  0  0  0  0  0  0  0  0  0  0
  192.6270  176.6460  145.9320 C   0  0  0  0  0  3  0  0  0  0  0  0
  193.0170  174.2650  146.1330 C   0  0  0  0  0  3  0  0  0  0  0  0
  192.1810  175.3740  146.3030 C   0  0  0  0  0  0  0  0  0  0  0  0
  193.9010  176.8080  145.3800 C   0  0  0  0  0  3  0  0  0  0  0  0
  196.2560  176.4410  143.3920 C   0  0  0  0  0  1  0  0  0  0  0  0
  196.0200  175.8240  144.6510 O   0  0  0  0  0  0  0  0  0  0  0  0
  1  8  1  0  0  0  0
  2 12  1  0  0  0  0
  3 10  2  0  0  0  0
  3 14  1  0  0  0  0
  4 12  1  0  0  0  0
  4 15  1  0  0  0  0
  5  9  1  0  0  0  0
  6  1  1  0  0  0  0
  7  4  2  0  0  0  0
  8 15  2  0  0  0  0
  9  7  1  0  0  0  0
  9  1  2  0  0  0  0
 10 11  1  0  0  0  0
 11  7  1  0  0  0  0
 11  2  2  0  0  0  0
 13  2  1  0  0  0  0
 13 35  1  0  0  0  0
 14 13  1  0  0  0  0
 16 17  1  6  0  0  0
 16 18  1  0  0  0  0
 16  3  1  0  0  0  0
 19 20  1  0  0  0  0
 19 22  1  0  0  0  0
 20 18  1  0  0  0  0
 21 20  2  0  0  0  0
 22 33  1  6  0  0  0
 24 23  1  6  0  0  0
 24 22  1  0  0  0  0
 24 26  1  0  0  0  0
 25 31  1  0  0  0  0
 26 32  2  0  0  0  0
 26 25  1  0  0  0  0
 28 29  1  0  0  0  0
 29 27  1  0  0  0  0
 30 25  1  0  0  0  0
 30 28  1  0  0  0  0
 31 27  1  0  0  0  0
 33 34  1  0  0  0  0
 36 39  1  0  0  0  0
 37 41  1  0  0  0  0
 37 36  2  0  0  0  0
 38 40  1  0  0  0  0
 39 40  2  0  0  0  0
 40 35  1  0  0  0  0
 41 38  2  0  0  0  0
 42 43  1  0  0  0  0
 43 37  1  0  0  0  0
M  END
>  <MODEL>
8

>  <REMARK>
 VINA RESULT:      -7.2      1.451      1.909
  Name = 
  10 active torsions:
  status: ('A' for Active; 'I' for Inactive)
    1  A    between atoms: C_1  and  N_34
    2  A    between atoms: C_1  and  C_35
    3  A    between atoms: C_2  and  C_6
    4  A    between atoms: C_2  and  C_13
    5  A    between atoms: N_3  and  C_4
    6  A    between atoms: C_4  and  C_15
    7  A    between atoms: C_4  and  C_22
    8  A    between atoms: C_6  and  C_12
    9  A    between atoms: C_14  and  C_22
   10  A    between atoms: C_19  and  O_37
                            x       y       z     vdW  Elec       q    Type
                         _______ _______ _______ _____ _____    ______ ____

>  <TORSDO>
F 10

$$$$
=
 OpenBabel11052420433D

 43 47  0  0  1  0  0  0  0  0999 V2000
  184.4400  178.5410  145.8890 C   0  0  0  0  0  0  0  0  0  0  0  0
  188.1950  176.0540  145.8410 C   0  0  0  0  0  0  0  0  0  0  0  0
  188.4610  175.2050  143.1850 C   0  0  0  0  0  0  0  0  0  0  0  0
  186.7490  177.2720  146.7880 C   0  0  0  0  0  0  0  0  0  0  0  0
  184.8280  177.6520  143.6860 F   0  0  0  0  0  0  0  0  0  0  0  0
  183.3120  179.1660  145.4710 F   0  0  0  0  0  0  0  0  0  0  0  0
  186.3480  177.1570  145.4700 C   0  0  0  0  0  0  0  0  0  0  0  0
  184.8440  178.6610  147.2370 C   0  0  0  0  0  3  0  0  0  0  0  0
  185.2010  177.7790  144.9830 C   0  0  0  0  0  0  0  0  0  0  0  0
  187.4280  175.9380  143.5180 N   0  0  0  0  0  0  0  0  0  0  0  0
  187.2890  176.3680  144.8740 C   0  0  0  0  0  0  0  0  0  0  0  0
  187.8970  176.5980  147.0440 N   0  0  0  0  0  2  0  0  0  0  0  0
  189.3300  175.2570  145.5130 N   0  0  0  0  0  0  0  0  0  0  0  0
  189.4580  174.8430  144.1710 N   0  0  0  0  0  2  0  0  0  0  0  0
  186.0110  178.0240  147.7000 C   0  0  0  0  0  3  0  0  0  0  0  0
  188.6410  174.7650  141.7710 C   0  0  1  0  0  3  0  0  0  0  0  0
  188.1910  175.7630  140.9020 O   0  0  0  0  0  1  0  0  0  0  0  0
  190.1090  174.4520  141.5100 C   0  0  0  0  0  2  0  0  0  0  0  0
  191.2730  172.7700  139.9940 N   0  0  0  0  0  2  0  0  0  0  0  0
  190.2870  173.0620  140.9880 C   0  0  0  0  0  0  0  0  0  0  0  0
  189.5730  172.1290  141.4420 O   0  0  0  0  0  0  0  0  0  0  0  0
  192.1440  173.7900  139.4210 C   0  0  1  0  0  3  0  0  0  0  0  0
  194.4690  174.3420  139.1180 O   0  0  0  0  0  1  0  0  0  0  0  0
  193.5900  173.5440  139.8550 C   0  0  1  0  0  3  0  0  0  0  0  0
  193.9180  172.7540  142.2580 N   0  0  0  0  0  0  0  0  0  0  0  0
  193.7660  173.8280  141.3190 C   0  0  0  0  0  0  0  0  0  0  0  0
  193.3970  172.0050  144.5220 C   0  0  0  0  0  2  0  0  0  0  0  0
  193.3590  170.4300  142.7510 C   0  0  0  0  0  2  0  0  0  0  0  0
  193.8080  170.6600  144.1230 N   0  0  0  0  0  2  0  0  0  0  0  0
  194.0860  171.3760  141.7990 C   0  0  0  0  0  2  0  0  0  0  0  0
  194.1290  173.0430  143.6750 C   0  0  0  0  0  2  0  0  0  0  0  0
  193.7410  175.0220  141.7240 O   0  0  0  0  0  0  0  0  0  0  0  0
  192.0200  173.7560  137.9040 C   0  0  0  0  0  2  0  0  0  0  0  0
  191.1170  172.6160  137.4780 C   0  0  0  0  0  1  0  0  0  0  0  0
  190.3760  174.9670  146.4830 C   0  0  0  0  0  2  0  0  0  0  0  0
  192.8980  177.0500  144.5720 C   0  0  0  0  0  3  0  0  0  0  0  0
  194.1060  176.6130  145.1280 C   0  0  0  0  0  0  0  0  0  0  0  0
  192.8720  175.1080  146.5840 C   0  0  0  0  0  3  0  0  0  0  0  0
  191.6830  176.5210  145.0190 C   0  0  0  0  0  3  0  0  0  0  0  0
  191.6690  175.5550  146.0300 C   0  0  0  0  0  0  0  0  0  0  0  0
  194.0880  175.6370  146.1370 C   0  0  0  0  0  3  0  0  0  0  0  0
  196.1850  176.4550  143.7970 C   0  0  0  0  0  1  0  0  0  0  0  0
  195.3030  177.1620  144.6600 O   0  0  0  0  0  0  0  0  0  0  0  0
  1  8  1  0  0  0  0
  2 12  1  0  0  0  0
  3 10  2  0  0  0  0
  3 14  1  0  0  0  0
  4 12  1  0  0  0  0
  4 15  1  0  0  0  0
  5  9  1  0  0  0  0
  6  1  1  0  0  0  0
  7  4  2  0  0  0  0
  8 15  2  0  0  0  0
  9  7  1  0  0  0  0
  9  1  2  0  0  0  0
 10 11  1  0  0  0  0
 11  7  1  0  0  0  0
 11  2  2  0  0  0  0
 13  2  1  0  0  0  0
 13 35  1  0  0  0  0
 14 13  1  0  0  0  0
 16 17  1  6  0  0  0
 16  3  1  0  0  0  0
 18 16  1  0  0  0  0
 19 20  1  0  0  0  0
 20 21  2  0  0  0  0
 20 18  1  0  0  0  0
 22 33  1  6  0  0  0
 22 24  1  0  0  0  0
 22 19  1  0  0  0  0
 24 23  1  6  0  0  0
 24 26  1  0  0  0  0
 25 31  1  0  0  0  0
 26 32  2  0  0  0  0
 26 25  1  0  0  0  0
 28 29  1  0  0  0  0
 29 27  1  0  0  0  0
 30 25  1  0  0  0  0
 30 28  1  0  0  0  0
 31 27  1  0  0  0  0
 34 33  1  0  0  0  0
 36 39  2  0  0  0  0
 36 37  1  0  0  0  0
 37 41  2  0  0  0  0
 39 40  1  0  0  0  0
 40 35  1  0  0  0  0
 40 38  2  0  0  0  0
 41 38  1  0  0  0  0
 42 43  1  0  0  0  0
 43 37  1  0  0  0  0
M  END
>  <MODEL>
9

>  <REMARK>
 VINA RESULT:      -7.1      1.518      2.681
  Name = 
  10 active torsions:
  status: ('A' for Active; 'I' for Inactive)
    1  A    between atoms: C_1  and  N_34
    2  A    between atoms: C_1  and  C_35
    3  A    between atoms: C_2  and  C_6
    4  A    between atoms: C_2  and  C_13
    5  A    between atoms: N_3  and  C_4
    6  A    between atoms: C_4  and  C_15
    7  A    between atoms: C_4  and  C_22
    8  A    between atoms: C_6  and  C_12
    9  A    between atoms: C_14  and  C_22
   10  A    between atoms: C_19  and  O_37
                            x       y       z     vdW  Elec       q    Type
                         _______ _______ _______ _____ _____    ______ ____

>  <TORSDO>
F 10

$$$$
