=
 OpenBabel11052421393D

 32 36  0  0  1  0  0  0  0  0999 V2000
  187.3250  177.5060  142.6470 C   0  0  0  0  0  0  0  0  0  0  0  0
  191.5510  175.2730  144.0450 C   0  0  2  0  0  3  0  0  0  0  0  0
  193.5550  174.0890  143.1180 C   0  0  0  0  0  0  0  0  0  0  0  0
  194.8020  173.3830  143.3780 C   0  0  0  0  0  0  0  0  0  0  0  0
  189.0830  175.4030  143.4640 C   0  0  1  0  0  3  0  0  0  0  0  0
  189.9740  176.9000  145.1560 C   0  0  0  0  0  2  0  0  0  0  0  0
  196.2980  172.2890  144.5670 N   0  0  0  0  0  0  0  0  0  0  0  0
  188.0760  177.5460  143.9430 C   0  0  0  0  0  2  0  0  0  0  0  0
  191.0410  175.8180  145.3860 C   0  0  2  0  0  3  0  0  0  0  0  0
  192.1930  176.3100  146.2800 C   0  0  2  0  0  3  0  0  0  0  0  0
  193.0650  174.0060  145.6100 C   0  0  2  0  0  3  0  0  0  0  0  0
  196.7710  172.4090  143.3090 C   0  0  0  0  0  3  0  0  0  0  0  0
  187.8180  176.5860  141.5680 C   0  0  0  0  0  2  0  0  0  0  0  0
  189.3410  176.8160  143.8310 N   0  0  2  0  0  0  0  0  0  0  0  0
  195.8510  173.1000  142.5210 C   0  0  0  0  0  3  0  0  0  0  0  0
  188.2380  175.2520  142.1840 C   0  0  0  0  0  2  0  0  0  0  0  0
  186.2620  178.2970  142.4790 C   0  0  0  0  0  3  0  0  0  0  0  0
  193.3500  175.2920  146.4030 C   0  0  1  0  0  3  0  0  0  0  0  0
  194.1500  172.9130  145.7620 C   0  0  0  0  0  2  0  0  0  0  0  0
  190.3960  174.6260  143.2820 C   0  0  0  0  0  2  0  0  0  0  0  0
  193.2750  174.4890  141.9560 O   0  0  0  0  0  0  0  0  0  0  0  0
  196.9670  171.6020  145.6590 C   0  0  0  0  0  1  0  0  0  0  0  0
  192.6640  174.3330  144.2250 N   0  0  0  0  0  0  0  0  0  0  0  0
  195.1040  172.8950  144.6090 C   0  0  0  0  0  0  0  0  0  0  0  0
  191.1910  175.4110  148.0410 C   0  0  0  0  0  1  0  0  0  0  0  0
  191.7090  176.6140  147.5560 O   0  0  0  0  0  0  0  0  0  0  0  0
  194.4060  177.3480  145.4540 C   0  0  0  0  0  1  0  0  0  0  0  0
  194.6560  175.9390  145.9540 C   0  0  0  0  0  2  0  0  0  0  0  0
  185.4640  178.3280  141.2140 C   0  0  0  0  0  2  0  0  0  0  0  0
  184.0110  178.2900  141.5320 C   0  0  0  0  0  0  0  0  0  0  0  0
  183.0750  178.2900  140.5060 O   0  0  0  0  0  0  0  0  0  0  0  0
  183.6300  178.2910  142.7310 O   0  0  0  0  0  1  0  0  0  0  0  0
  1  8  1  0  0  0  0
  2 20  1  1  0  0  0
  2 23  1  0  0  0  0
  2  9  1  0  0  0  0
  3  4  1  0  0  0  0
  3 23  1  0  0  0  0
  4 24  2  0  0  0  0
  5 16  1  6  0  0  0
  5 14  1  0  0  0  0
  7 24  1  0  0  0  0
  7 22  1  0  0  0  0
  9  6  1  6  0  0  0
  9 10  1  0  0  0  0
 10 18  1  0  0  0  0
 10 26  1  1  0  0  0
 11 19  1  6  0  0  0
 11 18  1  0  0  0  0
 12  7  1  0  0  0  0
 13 16  1  0  0  0  0
 13  1  1  0  0  0  0
 14  8  1  1  0  0  0
 14  6  1  0  0  0  0
 15 12  2  0  0  0  0
 15  4  1  0  0  0  0
 17  1  2  0  0  0  0
 18 28  1  6  0  0  0
 20  5  1  0  0  0  0
 21  3  2  0  0  0  0
 23 11  1  0  0  0  0
 24 19  1  0  0  0  0
 26 25  1  0  0  0  0
 27 28  1  0  0  0  0
 29 30  1  0  0  0  0
 29 17  1  0  0  0  0
 30 32  1  0  0  0  0
 31 30  2  0  0  0  0
M  END
>  <MODEL>
1

>  <REMARK>
 VINA RESULT:      -7.5      0.000      0.000
  Name = 
  4 active torsions:
  status: ('A' for Active; 'I' for Inactive)
    1  A    between atoms: C_1  and  C_10
    2  A    between atoms: C_10  and  C_24
    3  A    between atoms: O_13  and  C_15
    4  A    between atoms: C_25  and  C_26
                            x       y       z     vdW  Elec       q    Type
                         _______ _______ _______ _____ _____    ______ ____

>  <TORSDO>
F 4

$$$$
=
 OpenBabel11052421393D

 32 36  0  0  1  0  0  0  0  0999 V2000
  194.7510  174.5000  144.2840 C   0  0  0  0  0  0  0  0  0  0  0  0
  190.1320  176.1990  145.0380 C   0  0  2  0  0  3  0  0  0  0  0  0
  188.7450  177.4710  146.6920 C   0  0  0  0  0  0  0  0  0  0  0  0
  187.4390  178.0000  147.0610 C   0  0  0  0  0  0  0  0  0  0  0  0
  192.0310  174.5190  145.1650 C   0  0  1  0  0  3  0  0  0  0  0  0
  191.4100  175.4320  143.0020 C   0  0  0  0  0  2  0  0  0  0  0  0
  185.2480  178.2120  146.9900 N   0  0  0  0  0  0  0  0  0  0  0  0
  193.6030  174.6780  143.3380 C   0  0  0  0  0  2  0  0  0  0  0  0
  190.0160  175.6330  143.6170 C   0  0  2  0  0  3  0  0  0  0  0  0
  189.1020  176.4960  142.7290 C   0  0  2  0  0  3  0  0  0  0  0  0
  187.6240  176.2100  144.7910 C   0  0  2  0  0  3  0  0  0  0  0  0
  185.7210  179.0670  147.9220 C   0  0  0  0  0  3  0  0  0  0  0  0
  194.5210  174.7700  145.7420 C   0  0  0  0  0  2  0  0  0  0  0  0
  192.4780  175.3330  144.0090 N   0  0  2  0  0  0  0  0  0  0  0  0
  187.1090  178.9640  147.9970 C   0  0  0  0  0  3  0  0  0  0  0  0
  193.1640  174.2030  146.1600 C   0  0  0  0  0  2  0  0  0  0  0  0
  195.9430  174.1300  143.8070 C   0  0  0  0  0  3  0  0  0  0  0  0
  187.7470  176.8370  143.3930 C   0  0  1  0  0  3  0  0  0  0  0  0
  186.2560  176.4460  145.4740 C   0  0  0  0  0  2  0  0  0  0  0  0
  190.8870  175.2090  145.9240 C   0  0  0  0  0  2  0  0  0  0  0  0
  189.7840  177.8470  147.3000 O   0  0  0  0  0  0  0  0  0  0  0  0
  183.8480  178.0170  146.6560 C   0  0  0  0  0  1  0  0  0  0  0  0
  188.8190  176.5270  145.6050 N   0  0  0  0  0  0  0  0  0  0  0  0
  186.2990  177.5730  146.4580 C   0  0  0  0  0  0  0  0  0  0  0  0
  188.0890  174.7360  141.8410 C   0  0  0  0  0  1  0  0  0  0  0  0
  188.8680  175.8470  141.5130 O   0  0  0  0  0  0  0  0  0  0  0  0
  186.3440  178.7700  142.6590 C   0  0  0  0  0  1  0  0  0  0  0  0
  187.5680  178.3510  143.4490 C   0  0  0  0  0  2  0  0  0  0  0  0
  197.1440  173.9400  144.6800 C   0  0  0  0  0  2  0  0  0  0  0  0
  197.3200  172.4960  144.9900 C   0  0  0  0  0  0  0  0  0  0  0  0
  196.8260  171.9760  146.1800 O   0  0  0  0  0  1  0  0  0  0  0  0
  197.9410  171.7520  144.1890 O   0  0  0  0  0  0  0  0  0  0  0  0
  1 13  1  0  0  0  0
  2 23  1  0  0  0  0
  2 20  1  1  0  0  0
  3  4  1  0  0  0  0
  3 21  2  0  0  0  0
  4 15  1  0  0  0  0
  5 20  1  1  0  0  0
  5 16  1  0  0  0  0
  7 12  1  0  0  0  0
  8 14  1  0  0  0  0
  8  1  1  0  0  0  0
  9  6  1  6  0  0  0
  9  2  1  0  0  0  0
 10 26  1  6  0  0  0
 10 18  1  0  0  0  0
 10  9  1  0  0  0  0
 11 19  1  1  0  0  0
 11 23  1  0  0  0  0
 12 15  2  0  0  0  0
 13 16  1  0  0  0  0
 14  6  1  6  0  0  0
 14  5  1  0  0  0  0
 17  1  2  0  0  0  0
 17 29  1  0  0  0  0
 18 28  1  1  0  0  0
 18 11  1  0  0  0  0
 19 24  1  0  0  0  0
 22  7  1  0  0  0  0
 23  3  1  0  0  0  0
 24  7  1  0  0  0  0
 24  4  2  0  0  0  0
 26 25  1  0  0  0  0
 27 28  1  0  0  0  0
 29 30  1  0  0  0  0
 30 31  1  0  0  0  0
 32 30  2  0  0  0  0
M  END
>  <MODEL>
2

>  <REMARK>
 VINA RESULT:      -7.0      2.808      9.186
  Name = 
  4 active torsions:
  status: ('A' for Active; 'I' for Inactive)
    1  A    between atoms: C_1  and  C_10
    2  A    between atoms: C_10  and  C_24
    3  A    between atoms: O_13  and  C_15
    4  A    between atoms: C_25  and  C_26
                            x       y       z     vdW  Elec       q    Type
                         _______ _______ _______ _____ _____    ______ ____

>  <TORSDO>
F 4

$$$$
=
 OpenBabel11052421393D

 32 36  0  0  1  0  0  0  0  0999 V2000
  186.9430  176.5520  145.3290 C   0  0  0  0  0  0  0  0  0  0  0  0
  191.5350  175.4870  143.7230 C   0  0  2  0  0  3  0  0  0  0  0  0
  193.8870  175.1930  144.5320 C   0  0  0  0  0  0  0  0  0  0  0  0
  195.2810  174.9250  144.2060 C   0  0  0  0  0  0  0  0  0  0  0  0
  189.5800  176.9950  144.3160 C   0  0  1  0  0  3  0  0  0  0  0  0
  189.2210  175.1550  142.7720 C   0  0  0  0  0  2  0  0  0  0  0  0
  197.0570  174.7320  142.9170 N   0  0  0  0  0  0  0  0  0  0  0  0
  187.4190  175.9510  144.0410 C   0  0  0  0  0  2  0  0  0  0  0  0
  190.7150  175.2950  142.4400 C   0  0  2  0  0  3  0  0  0  0  0  0
  191.2400  174.1200  141.5950 C   0  0  2  0  0  3  0  0  0  0  0  0
  193.4100  175.3880  142.0440 C   0  0  2  0  0  3  0  0  0  0  0  0
  197.4230  174.4300  144.1810 C   0  0  0  0  0  3  0  0  0  0  0  0
  187.9700  177.0250  146.3160 C   0  0  0  0  0  2  0  0  0  0  0  0
  188.8640  175.7180  144.0840 N   0  0  2  0  0  0  0  0  0  0  0  0
  196.3230  174.5400  145.0310 C   0  0  0  0  0  3  0  0  0  0  0  0
  189.1000  177.7400  145.5760 C   0  0  0  0  0  2  0  0  0  0  0  0
  185.6310  176.6300  145.5710 C   0  0  0  0  0  3  0  0  0  0  0  0
  192.7710  174.1600  141.3750 C   0  0  1  0  0  3  0  0  0  0  0  0
  194.9300  175.5290  141.7890 C   0  0  0  0  0  2  0  0  0  0  0  0
  191.0970  176.7730  144.4230 C   0  0  0  0  0  2  0  0  0  0  0  0
  193.4890  175.1460  145.7270 O   0  0  0  0  0  0  0  0  0  0  0  0
  197.9410  174.7580  141.7650 C   0  0  0  0  0  1  0  0  0  0  0  0
  192.9770  175.4910  143.4550 N   0  0  0  0  0  0  0  0  0  0  0  0
  195.7490  175.0200  142.9340 C   0  0  0  0  0  0  0  0  0  0  0  0
  190.1210  172.7970  140.2140 C   0  0  0  0  0  1  0  0  0  0  0  0
  190.5970  174.1010  140.3540 O   0  0  0  0  0  0  0  0  0  0  0  0
  192.4100  172.0960  142.7360 C   0  0  0  0  0  1  0  0  0  0  0  0
  193.3980  172.8660  141.8820 C   0  0  0  0  0  2  0  0  0  0  0  0
  185.0720  177.2040  146.8350 C   0  0  0  0  0  2  0  0  0  0  0  0
  184.8630  178.6680  146.6740 C   0  0  0  0  0  0  0  0  0  0  0  0
  185.5900  179.5630  147.4480 O   0  0  0  0  0  1  0  0  0  0  0  0
  184.0050  179.0950  145.8590 O   0  0  0  0  0  0  0  0  0  0  0  0
  1 17  2  0  0  0  0
  1 13  1  0  0  0  0
  2 20  1  6  0  0  0
  3 21  2  0  0  0  0
  4  3  1  0  0  0  0
  4 15  1  0  0  0  0
  5 20  1  1  0  0  0
  5 16  1  0  0  0  0
  7 24  1  0  0  0  0
  7 12  1  0  0  0  0
  8 14  1  0  0  0  0
  8  1  1  0  0  0  0
  9  6  1  1  0  0  0
  9  2  1  0  0  0  0
 10 26  1  6  0  0  0
 10  9  1  0  0  0  0
 11 19  1  1  0  0  0
 11 23  1  0  0  0  0
 12 15  2  0  0  0  0
 14  6  1  6  0  0  0
 14  5  1  0  0  0  0
 16 13  1  0  0  0  0
 17 29  1  0  0  0  0
 18 10  1  0  0  0  0
 18 28  1  1  0  0  0
 18 11  1  0  0  0  0
 19 24  1  0  0  0  0
 22  7  1  0  0  0  0
 23  2  1  0  0  0  0
 23  3  1  0  0  0  0
 24  4  2  0  0  0  0
 25 26  1  0  0  0  0
 28 27  1  0  0  0  0
 30 29  1  0  0  0  0
 30 31  1  0  0  0  0
 32 30  2  0  0  0  0
M  END
>  <MODEL>
3

>  <REMARK>
 VINA RESULT:      -6.9      2.566      4.295
  Name = 
  4 active torsions:
  status: ('A' for Active; 'I' for Inactive)
    1  A    between atoms: C_1  and  C_10
    2  A    between atoms: C_10  and  C_24
    3  A    between atoms: O_13  and  C_15
    4  A    between atoms: C_25  and  C_26
                            x       y       z     vdW  Elec       q    Type
                         _______ _______ _______ _____ _____    ______ ____

>  <TORSDO>
F 4

$$$$
=
 OpenBabel11052421393D

 32 36  0  0  1  0  0  0  0  0999 V2000
  195.9840  173.4170  144.6760 C   0  0  0  0  0  0  0  0  0  0  0  0
  191.4970  175.5750  144.7220 C   0  0  2  0  0  3  0  0  0  0  0  0
  189.3560  175.6990  143.4280 C   0  0  0  0  0  0  0  0  0  0  0  0
  188.0250  176.2760  143.2930 C   0  0  0  0  0  0  0  0  0  0  0  0
  193.9610  175.3680  144.1490 C   0  0  1  0  0  3  0  0  0  0  0  0
  193.2730  175.1800  146.4700 C   0  0  0  0  0  2  0  0  0  0  0  0
  186.3950  177.7110  143.6610 N   0  0  0  0  0  0  0  0  0  0  0  0
  195.2430  174.1200  145.7720 C   0  0  0  0  0  2  0  0  0  0  0  0
  192.0720  176.0480  146.0640 C   0  0  2  0  0  3  0  0  0  0  0  0
  190.9940  176.1080  147.1600 C   0  0  2  0  0  3  0  0  0  0  0  0
  189.8250  177.3770  145.2780 C   0  0  2  0  0  3  0  0  0  0  0  0
  185.9440  176.7790  142.7940 C   0  0  0  0  0  3  0  0  0  0  0  0
  195.3760  173.3990  143.3030 C   0  0  0  0  0  2  0  0  0  0  0  0
  193.8930  174.4800  145.3340 N   0  0  2  0  0  0  0  0  0  0  0  0
  186.9490  175.8480  142.5350 C   0  0  0  0  0  3  0  0  0  0  0  0
  194.7820  174.7710  142.9890 C   0  0  0  0  0  2  0  0  0  0  0  0
  197.1430  172.8120  144.9510 C   0  0  0  0  0  3  0  0  0  0  0  0
  189.7110  176.8510  146.7180 C   0  0  1  0  0  3  0  0  0  0  0  0
  188.6050  178.2020  144.8050 C   0  0  0  0  0  2  0  0  0  0  0  0
  192.5580  175.7170  143.6310 C   0  0  0  0  0  2  0  0  0  0  0  0
  189.6880  174.6900  142.7480 O   0  0  0  0  0  0  0  0  0  0  0  0
  185.6390  178.8550  144.1400 C   0  0  0  0  0  1  0  0  0  0  0  0
  190.2690  176.2970  144.3680 N   0  0  0  0  0  0  0  0  0  0  0  0
  187.6580  177.3930  143.9740 C   0  0  0  0  0  0  0  0  0  0  0  0
  190.7670  177.8960  148.4510 C   0  0  0  0  0  1  0  0  0  0  0  0
  191.5110  176.7240  148.3030 O   0  0  0  0  0  0  0  0  0  0  0  0
  188.9460  174.5360  147.2650 C   0  0  0  0  0  1  0  0  0  0  0  0
  188.5040  175.9330  146.8770 C   0  0  0  0  0  2  0  0  0  0  0  0
  197.9410  172.0780  143.9180 C   0  0  0  0  0  2  0  0  0  0  0  0
  197.7930  170.6110  144.1160 C   0  0  0  0  0  0  0  0  0  0  0  0
  197.8990  170.0670  145.3900 O   0  0  0  0  0  1  0  0  0  0  0  0
  197.6040  169.8590  143.1250 O   0  0  0  0  0  0  0  0  0  0  0  0
  1 17  2  0  0  0  0
  1  8  1  0  0  0  0
  2 20  1  6  0  0  0
  2  9  1  0  0  0  0
  3 23  1  0  0  0  0
  4  3  1  0  0  0  0
  4 24  2  0  0  0  0
  5 16  1  6  0  0  0
  5 14  1  0  0  0  0
  7 24  1  0  0  0  0
  7 22  1  0  0  0  0
  9  6  1  1  0  0  0
  9 10  1  0  0  0  0
 10 26  1  1  0  0  0
 11 19  1  6  0  0  0
 11 18  1  0  0  0  0
 12  7  1  0  0  0  0
 13  1  1  0  0  0  0
 14  8  1  1  0  0  0
 14  6  1  0  0  0  0
 15 12  2  0  0  0  0
 15  4  1  0  0  0  0
 16 13  1  0  0  0  0
 18 28  1  6  0  0  0
 18 10  1  0  0  0  0
 20  5  1  0  0  0  0
 21  3  2  0  0  0  0
 23  2  1  0  0  0  0
 23 11  1  0  0  0  0
 24 19  1  0  0  0  0
 26 25  1  0  0  0  0
 28 27  1  0  0  0  0
 29 30  1  0  0  0  0
 29 17  1  0  0  0  0
 30 31  1  0  0  0  0
 32 30  2  0  0  0  0
M  END
>  <MODEL>
4

>  <REMARK>
 VINA RESULT:      -6.8      2.434      8.728
  Name = 
  4 active torsions:
  status: ('A' for Active; 'I' for Inactive)
    1  A    between atoms: C_1  and  C_10
    2  A    between atoms: C_10  and  C_24
    3  A    between atoms: O_13  and  C_15
    4  A    between atoms: C_25  and  C_26
                            x       y       z     vdW  Elec       q    Type
                         _______ _______ _______ _____ _____    ______ ____

>  <TORSDO>
F 4

$$$$
=
 OpenBabel11052421393D

 32 36  0  0  1  0  0  0  0  0999 V2000
  188.7030  177.3110  143.2710 C   0  0  0  0  0  0  0  0  0  0  0  0
  192.4430  174.1530  144.1860 C   0  0  2  0  0  3  0  0  0  0  0  0
  192.9140  171.7350  144.6370 C   0  0  0  0  0  0  0  0  0  0  0  0
  193.8970  170.7030  144.9420 C   0  0  0  0  0  0  0  0  0  0  0  0
  190.5950  175.7900  144.7810 C   0  0  1  0  0  3  0  0  0  0  0  0
  192.3040  176.4700  143.1950 C   0  0  0  0  0  2  0  0  0  0  0  0
  195.8330  169.8840  145.5990 N   0  0  0  0  0  0  0  0  0  0  0  0
  190.1830  177.4600  143.0860 C   0  0  0  0  0  2  0  0  0  0  0  0
  193.2080  175.4540  143.9110 C   0  0  2  0  0  3  0  0  0  0  0  0
  194.5200  175.1970  143.1480 C   0  0  2  0  0  3  0  0  0  0  0  0
  194.7200  173.4790  145.0260 C   0  0  2  0  0  3  0  0  0  0  0  0
  195.0350  168.8500  145.2590 C   0  0  0  0  0  3  0  0  0  0  0  0
  188.1890  176.0620  143.9240 C   0  0  0  0  0  2  0  0  0  0  0  0
  190.8700  176.2020  143.3840 N   0  0  2  0  0  0  0  0  0  0  0  0
  193.7960  169.3280  144.8340 C   0  0  0  0  0  3  0  0  0  0  0  0
  189.0910  175.6920  145.1020 C   0  0  0  0  0  2  0  0  0  0  0  0
  187.8870  178.2750  142.8340 C   0  0  0  0  0  3  0  0  0  0  0  0
  195.3780  174.0700  143.7690 C   0  0  1  0  0  3  0  0  0  0  0  0
  195.5720  172.4030  145.7410 C   0  0  0  0  0  2  0  0  0  0  0  0
  191.2560  174.4410  145.1060 C   0  0  0  0  0  2  0  0  0  0  0  0
  191.7500  171.4210  144.2680 O   0  0  0  0  0  0  0  0  0  0  0  0
  197.1860  169.7730  146.1170 C   0  0  0  0  0  1  0  0  0  0  0  0
  193.3140  173.1150  144.7500 N   0  0  0  0  0  0  0  0  0  0  0  0
  195.1410  171.0130  145.3920 C   0  0  0  0  0  0  0  0  0  0  0  0
  195.7530  176.4290  141.7790 C   0  0  0  0  0  1  0  0  0  0  0  0
  195.2750  176.3720  143.0900 O   0  0  0  0  0  0  0  0  0  0  0  0
  197.1140  172.9490  142.3620 C   0  0  0  0  0  1  0  0  0  0  0  0
  195.6420  172.9900  142.7250 C   0  0  0  0  0  2  0  0  0  0  0  0
  186.3980  178.2010  142.9690 C   0  0  0  0  0  2  0  0  0  0  0  0
  185.9580  178.9970  144.1460 C   0  0  0  0  0  0  0  0  0  0  0  0
  186.0030  178.4400  145.4170 O   0  0  0  0  0  1  0  0  0  0  0  0
  185.5150  180.1630  143.9860 O   0  0  0  0  0  0  0  0  0  0  0  0
  1 13  1  0  0  0  0
  2 23  1  0  0  0  0
  2 20  1  1  0  0  0
  3 23  1  0  0  0  0
  3  4  1  0  0  0  0
  4 24  2  0  0  0  0
  5 16  1  6  0  0  0
  5 20  1  0  0  0  0
  6 14  1  0  0  0  0
  7 22  1  0  0  0  0
  8  1  1  0  0  0  0
  9  6  1  6  0  0  0
  9  2  1  0  0  0  0
 10 26  1  1  0  0  0
 10 18  1  0  0  0  0
 10  9  1  0  0  0  0
 11 19  1  6  0  0  0
 12  7  1  0  0  0  0
 13 16  1  0  0  0  0
 14  8  1  1  0  0  0
 14  5  1  0  0  0  0
 15  4  1  0  0  0  0
 15 12  2  0  0  0  0
 17 29  1  0  0  0  0
 17  1  2  0  0  0  0
 18 28  1  6  0  0  0
 18 11  1  0  0  0  0
 21  3  2  0  0  0  0
 23 11  1  0  0  0  0
 24  7  1  0  0  0  0
 24 19  1  0  0  0  0
 25 26  1  0  0  0  0
 27 28  1  0  0  0  0
 29 30  1  0  0  0  0
 30 31  1  0  0  0  0
 32 30  2  0  0  0  0
M  END
>  <MODEL>
5

>  <REMARK>
 VINA RESULT:      -6.7      2.243      3.503
  Name = 
  4 active torsions:
  status: ('A' for Active; 'I' for Inactive)
    1  A    between atoms: C_1  and  C_10
    2  A    between atoms: C_10  and  C_24
    3  A    between atoms: O_13  and  C_15
    4  A    between atoms: C_25  and  C_26
                            x       y       z     vdW  Elec       q    Type
                         _______ _______ _______ _____ _____    ______ ____

>  <TORSDO>
F 4

$$$$
=
 OpenBabel11052421393D

 32 36  0  0  1  0  0  0  0  0999 V2000
  187.7010  177.3200  144.2330 C   0  0  0  0  0  0  0  0  0  0  0  0
  191.8910  174.7160  143.5570 C   0  0  2  0  0  3  0  0  0  0  0  0
  193.9200  173.8960  144.7770 C   0  0  0  0  0  0  0  0  0  0  0  0
  195.1900  173.1850  144.7230 C   0  0  0  0  0  0  0  0  0  0  0  0
  190.4470  176.8030  143.6250 C   0  0  1  0  0  3  0  0  0  0  0  0
  189.7220  174.9130  142.2840 C   0  0  0  0  0  2  0  0  0  0  0  0
  196.9600  172.2710  143.7820 N   0  0  0  0  0  0  0  0  0  0  0  0
  188.1180  176.3990  143.1270 C   0  0  0  0  0  2  0  0  0  0  0  0
  191.2130  174.5550  142.1900 C   0  0  2  0  0  3  0  0  0  0  0  0
  191.4450  173.1540  141.5980 C   0  0  2  0  0  3  0  0  0  0  0  0
  193.8310  173.7960  142.2390 C   0  0  2  0  0  3  0  0  0  0  0  0
  197.0580  172.0950  145.1160 C   0  0  0  0  0  3  0  0  0  0  0  0
  188.6970  177.6360  145.3100 C   0  0  0  0  0  2  0  0  0  0  0  0
  189.4030  175.7680  143.4380 N   0  0  2  0  0  0  0  0  0  0  0  0
  195.9530  172.6600  145.7510 C   0  0  0  0  0  3  0  0  0  0  0  0
  190.0740  177.8570  144.6850 C   0  0  0  0  0  2  0  0  0  0  0  0
  186.4590  177.8150  144.2420 C   0  0  0  0  0  3  0  0  0  0  0  0
  192.9270  172.7120  141.6320 C   0  0  1  0  0  3  0  0  0  0  0  0
  195.3380  173.4460  142.2250 C   0  0  0  0  0  2  0  0  0  0  0  0
  191.7940  176.1740  144.0090 C   0  0  0  0  0  2  0  0  0  0  0  0
  193.3860  174.1690  145.8860 O   0  0  0  0  0  0  0  0  0  0  0  0
  197.9400  171.8440  142.7990 C   0  0  0  0  0  1  0  0  0  0  0  0
  193.2850  174.2570  143.5340 N   0  0  0  0  0  0  0  0  0  0  0  0
  195.8140  172.9240  143.5440 C   0  0  0  0  0  0  0  0  0  0  0  0
  190.2080  171.9530  140.2040 C   0  0  0  0  0  1  0  0  0  0  0  0
  190.9820  173.1120  140.2790 O   0  0  0  0  0  0  0  0  0  0  0  0
  193.3790  170.2610  141.4430 C   0  0  0  0  0  1  0  0  0  0  0  0
  193.0540  171.3970  142.3940 C   0  0  0  0  0  2  0  0  0  0  0  0
  185.9580  178.7310  145.3130 C   0  0  0  0  0  2  0  0  0  0  0  0
  184.8090  178.1030  146.0180 C   0  0  0  0  0  0  0  0  0  0  0  0
  184.9360  176.8260  146.5510 O   0  0  0  0  0  1  0  0  0  0  0  0
  183.7140  178.7140  146.1050 O   0  0  0  0  0  0  0  0  0  0  0  0
  1 17  2  0  0  0  0
  1 13  1  0  0  0  0
  2 20  1  6  0  0  0
  3 21  2  0  0  0  0
  4  3  1  0  0  0  0
  4 15  1  0  0  0  0
  5 20  1  1  0  0  0
  5 16  1  0  0  0  0
  7 12  1  0  0  0  0
  8 14  1  0  0  0  0
  8  1  1  0  0  0  0
  9  6  1  1  0  0  0
  9  2  1  0  0  0  0
 10 26  1  6  0  0  0
 10 18  1  0  0  0  0
 10  9  1  0  0  0  0
 11 19  1  1  0  0  0
 11 23  1  0  0  0  0
 12 15  2  0  0  0  0
 14  6  1  6  0  0  0
 14  5  1  0  0  0  0
 16 13  1  0  0  0  0
 17 29  1  0  0  0  0
 18 11  1  0  0  0  0
 18 28  1  1  0  0  0
 19 24  1  0  0  0  0
 22  7  1  0  0  0  0
 23  2  1  0  0  0  0
 23  3  1  0  0  0  0
 24  7  1  0  0  0  0
 24  4  2  0  0  0  0
 25 26  1  0  0  0  0
 27 28  1  0  0  0  0
 29 30  1  0  0  0  0
 30 32  2  0  0  0  0
 30 31  1  0  0  0  0
M  END
>  <MODEL>
6

>  <REMARK>
 VINA RESULT:      -6.7      2.254      4.130
  Name = 
  4 active torsions:
  status: ('A' for Active; 'I' for Inactive)
    1  A    between atoms: C_1  and  C_10
    2  A    between atoms: C_10  and  C_24
    3  A    between atoms: O_13  and  C_15
    4  A    between atoms: C_25  and  C_26
                            x       y       z     vdW  Elec       q    Type
                         _______ _______ _______ _____ _____    ______ ____

>  <TORSDO>
F 4

$$$$
=
 OpenBabel11052421393D

 32 36  0  0  1  0  0  0  0  0999 V2000
  186.8720  177.6880  143.5810 C   0  0  0  0  0  0  0  0  0  0  0  0
  190.4160  174.2250  143.0870 C   0  0  2  0  0  3  0  0  0  0  0  0
  192.3460  173.1920  144.3050 C   0  0  0  0  0  0  0  0  0  0  0  0
  193.4470  172.2390  144.2920 C   0  0  0  0  0  0  0  0  0  0  0  0
  189.4070  176.5480  142.9100 C   0  0  1  0  0  3  0  0  0  0  0  0
  188.2230  174.6730  141.9190 C   0  0  0  0  0  2  0  0  0  0  0  0
  194.9230  170.8640  143.4070 N   0  0  0  0  0  0  0  0  0  0  0  0
  187.0110  176.5550  142.6100 C   0  0  0  0  0  2  0  0  0  0  0  0
  189.6060  174.0130  141.8010 C   0  0  2  0  0  3  0  0  0  0  0  0
  189.5140  172.5240  141.4200 C   0  0  2  0  0  3  0  0  0  0  0  0
  192.0250  172.7560  141.8220 C   0  0  2  0  0  3  0  0  0  0  0  0
  195.0990  170.8610  144.7450 C   0  0  0  0  0  3  0  0  0  0  0  0
  187.9980  177.9450  144.5400 C   0  0  0  0  0  2  0  0  0  0  0  0
  188.1720  175.7290  142.9430 N   0  0  2  0  0  0  0  0  0  0  0  0
  194.1790  171.7210  145.3450 C   0  0  0  0  0  3  0  0  0  0  0  0
  189.3340  177.7940  143.8140 C   0  0  0  0  0  2  0  0  0  0  0  0
  185.7530  178.4190  143.5820 C   0  0  0  0  0  3  0  0  0  0  0  0
  190.8820  171.8020  141.4400 C   0  0  1  0  0  3  0  0  0  0  0  0
  193.4310  172.1110  141.7790 C   0  0  0  0  0  2  0  0  0  0  0  0
  190.6370  175.7200  143.3120 C   0  0  0  0  0  2  0  0  0  0  0  0
  191.9690  173.7210  145.3860 O   0  0  0  0  0  0  0  0  0  0  0  0
  195.7170  170.1140  142.4490 C   0  0  0  0  0  1  0  0  0  0  0  0
  191.6890  173.4950  143.0580 N   0  0  0  0  0  0  0  0  0  0  0  0
  193.9070  171.6940  143.1350 C   0  0  0  0  0  0  0  0  0  0  0  0
  189.9770  172.6770  139.2580 C   0  0  0  0  0  1  0  0  0  0  0  0
  188.9430  172.3920  140.1510 O   0  0  0  0  0  0  0  0  0  0  0  0
  190.8470  169.3090  141.6090 C   0  0  0  0  0  1  0  0  0  0  0  0
  190.8190  170.6090  142.3880 C   0  0  0  0  0  2  0  0  0  0  0  0
  185.5290  179.5600  144.5250 C   0  0  0  0  0  2  0  0  0  0  0  0
  184.8830  179.0650  145.7700 C   0  0  0  0  0  0  0  0  0  0  0  0
  185.6050  179.0140  146.9550 O   0  0  0  0  0  1  0  0  0  0  0  0
  183.6910  178.6650  145.7430 O   0  0  0  0  0  0  0  0  0  0  0  0
  1 17  2  0  0  0  0
  1 13  1  0  0  0  0
  2 20  1  6  0  0  0
  3 21  2  0  0  0  0
  4  3  1  0  0  0  0
  4 15  1  0  0  0  0
  5 14  1  0  0  0  0
  5 20  1  1  0  0  0
  5 16  1  0  0  0  0
  7 12  1  0  0  0  0
  8 14  1  0  0  0  0
  8  1  1  0  0  0  0
  9  6  1  1  0  0  0
  9  2  1  0  0  0  0
 10 26  1  6  0  0  0
 10 18  1  0  0  0  0
 10  9  1  0  0  0  0
 11 19  1  1  0  0  0
 11 23  1  0  0  0  0
 12 15  2  0  0  0  0
 14  6  1  6  0  0  0
 16 13  1  0  0  0  0
 17 29  1  0  0  0  0
 18 11  1  0  0  0  0
 18 28  1  1  0  0  0
 19 24  1  0  0  0  0
 22  7  1  0  0  0  0
 23  2  1  0  0  0  0
 23  3  1  0  0  0  0
 24  7  1  0  0  0  0
 24  4  2  0  0  0  0
 25 26  1  0  0  0  0
 27 28  1  0  0  0  0
 29 30  1  0  0  0  0
 30 31  1  0  0  0  0
 32 30  2  0  0  0  0
M  END
>  <MODEL>
7

>  <REMARK>
 VINA RESULT:      -6.7      2.715      4.572
  Name = 
  4 active torsions:
  status: ('A' for Active; 'I' for Inactive)
    1  A    between atoms: C_1  and  C_10
    2  A    between atoms: C_10  and  C_24
    3  A    between atoms: O_13  and  C_15
    4  A    between atoms: C_25  and  C_26
                            x       y       z     vdW  Elec       q    Type
                         _______ _______ _______ _____ _____    ______ ____

>  <TORSDO>
F 4

$$$$
=
 OpenBabel11052421393D

 32 36  0  0  1  0  0  0  0  0999 V2000
  188.3100  177.0430  142.0300 C   0  0  0  0  0  0  0  0  0  0  0  0
  191.9840  174.0720  143.6020 C   0  0  2  0  0  3  0  0  0  0  0  0
  193.2200  171.9780  142.9990 C   0  0  0  0  0  0  0  0  0  0  0  0
  194.2460  171.0050  143.3480 C   0  0  0  0  0  0  0  0  0  0  0  0
  189.5880  174.8910  143.4120 C   0  0  1  0  0  3  0  0  0  0  0  0
  191.3140  176.4530  144.1040 C   0  0  0  0  0  2  0  0  0  0  0  0
  195.6710  169.9470  144.6530 N   0  0  0  0  0  0  0  0  0  0  0  0
  189.3920  177.2690  143.0410 C   0  0  0  0  0  2  0  0  0  0  0  0
  192.0640  175.2150  144.6220 C   0  0  2  0  0  3  0  0  0  0  0  0
  193.5180  175.5320  145.0150 C   0  0  2  0  0  3  0  0  0  0  0  0
  193.4890  172.9960  145.3120 C   0  0  2  0  0  3  0  0  0  0  0  0
  195.7620  169.4150  143.4160 C   0  0  0  0  0  3  0  0  0  0  0  0
  188.1890  175.6810  141.4090 C   0  0  0  0  0  2  0  0  0  0  0  0
  190.3180  176.1350  143.0690 N   0  0  2  0  0  0  0  0  0  0  0  0
  194.8750  170.0610  142.5560 C   0  0  0  0  0  3  0  0  0  0  0  0
  188.3930  174.6100  142.4800 C   0  0  0  0  0  2  0  0  0  0  0  0
  187.5020  178.0530  141.6950 C   0  0  0  0  0  3  0  0  0  0  0  0
  194.3360  174.2760  145.3970 C   0  0  1  0  0  3  0  0  0  0  0  0
  194.2290  171.7150  145.7630 C   0  0  0  0  0  2  0  0  0  0  0  0
  190.5230  173.6720  143.3930 C   0  0  0  0  0  2  0  0  0  0  0  0
  192.7280  172.0010  141.8380 O   0  0  0  0  0  0  0  0  0  0  0  0
  196.4190  169.5090  145.8180 C   0  0  0  0  0  1  0  0  0  0  0  0
  192.7990  172.9200  144.0050 N   0  0  0  0  0  0  0  0  0  0  0  0
  194.7560  170.9240  144.6060 C   0  0  0  0  0  0  0  0  0  0  0  0
  194.5680  177.3270  145.7810 C   0  0  0  0  0  1  0  0  0  0  0  0
  193.5360  176.4360  146.0810 O   0  0  0  0  0  0  0  0  0  0  0  0
  196.8320  174.1670  145.3560 C   0  0  0  0  0  1  0  0  0  0  0  0
  195.5740  174.1790  144.5110 C   0  0  0  0  0  2  0  0  0  0  0  0
  186.4040  177.9160  140.6880 C   0  0  0  0  0  2  0  0  0  0  0  0
  185.1000  178.2690  141.3110 C   0  0  0  0  0  0  0  0  0  0  0  0
  184.0270  178.6420  140.5120 O   0  0  0  0  0  0  0  0  0  0  0  0
  184.9790  178.2610  142.5620 O   0  0  0  0  0  1  0  0  0  0  0  0
  1  8  1  0  0  0  0
  2 20  1  1  0  0  0
  2 23  1  0  0  0  0
  2  9  1  0  0  0  0
  3  4  1  0  0  0  0
  3 23  1  0  0  0  0
  4 24  2  0  0  0  0
  5 16  1  6  0  0  0
  7 22  1  0  0  0  0
  9  6  1  6  0  0  0
  9 10  1  0  0  0  0
 10 18  1  0  0  0  0
 10 26  1  1  0  0  0
 11 18  1  0  0  0  0
 11 19  1  6  0  0  0
 12  7  1  0  0  0  0
 13  1  1  0  0  0  0
 13 16  1  0  0  0  0
 14  8  1  1  0  0  0
 14  5  1  0  0  0  0
 14  6  1  0  0  0  0
 15  4  1  0  0  0  0
 15 12  2  0  0  0  0
 17  1  2  0  0  0  0
 18 28  1  6  0  0  0
 20  5  1  0  0  0  0
 21  3  2  0  0  0  0
 23 11  1  0  0  0  0
 24  7  1  0  0  0  0
 24 19  1  0  0  0  0
 25 26  1  0  0  0  0
 28 27  1  0  0  0  0
 29 30  1  0  0  0  0
 29 17  1  0  0  0  0
 30 32  1  0  0  0  0
 31 30  2  0  0  0  0
M  END
>  <MODEL>
8

>  <REMARK>
 VINA RESULT:      -6.5      1.671      2.055
  Name = 
  4 active torsions:
  status: ('A' for Active; 'I' for Inactive)
    1  A    between atoms: C_1  and  C_10
    2  A    between atoms: C_10  and  C_24
    3  A    between atoms: O_13  and  C_15
    4  A    between atoms: C_25  and  C_26
                            x       y       z     vdW  Elec       q    Type
                         _______ _______ _______ _____ _____    ______ ____

>  <TORSDO>
F 4

$$$$
=
 OpenBabel11052421393D

 32 36  0  0  1  0  0  0  0  0999 V2000
  188.3010  177.3910  144.4460 C   0  0  0  0  0  0  0  0  0  0  0  0
  192.5630  175.2980  142.9470 C   0  0  2  0  0  3  0  0  0  0  0  0
  193.6160  174.1630  140.9770 C   0  0  0  0  0  0  0  0  0  0  0  0
  194.7820  173.4970  140.4130 C   0  0  0  0  0  0  0  0  0  0  0  0
  190.2530  175.3500  143.9980 C   0  0  1  0  0  3  0  0  0  0  0  0
  191.9480  176.8900  144.8050 C   0  0  0  0  0  2  0  0  0  0  0  0
  196.7250  172.4590  140.4290 N   0  0  0  0  0  0  0  0  0  0  0  0
  189.6860  177.4670  145.0130 C   0  0  0  0  0  2  0  0  0  0  0  0
  192.9630  175.8420  144.3250 C   0  0  2  0  0  3  0  0  0  0  0  0
  194.4070  176.3780  144.3320 C   0  0  2  0  0  3  0  0  0  0  0  0
  194.7550  174.0920  143.2480 C   0  0  2  0  0  3  0  0  0  0  0  0
  196.3260  172.5800  139.1450 C   0  0  0  0  0  3  0  0  0  0  0  0
  188.0570  176.4740  143.2830 C   0  0  0  0  0  2  0  0  0  0  0  0
  190.6390  176.7740  144.1440 N   0  0  2  0  0  0  0  0  0  0  0  0
  195.0960  173.2350  139.0910 C   0  0  0  0  0  3  0  0  0  0  0  0
  188.8060  175.1600  143.5010 C   0  0  0  0  0  2  0  0  0  0  0  0
  187.3340  178.1490  144.9720 C   0  0  0  0  0  3  0  0  0  0  0  0
  195.4270  175.3950  143.7120 C   0  0  1  0  0  3  0  0  0  0  0  0
  195.7380  173.0340  142.6940 C   0  0  0  0  0  2  0  0  0  0  0  0
  191.2020  174.6090  143.0440 C   0  0  0  0  0  2  0  0  0  0  0  0
  192.6720  174.5420  140.2320 O   0  0  0  0  0  0  0  0  0  0  0  0
  197.9410  171.8040  140.8780 C   0  0  0  0  0  1  0  0  0  0  0  0
  193.5810  174.3930  142.4000 N   0  0  0  0  0  0  0  0  0  0  0  0
  195.7890  173.0310  141.1980 C   0  0  0  0  0  0  0  0  0  0  0  0
  195.1120  175.4500  146.2170 C   0  0  0  0  0  1  0  0  0  0  0  0
  194.7950  176.6810  145.6400 O   0  0  0  0  0  0  0  0  0  0  0  0
  197.6170  176.3130  142.9320 C   0  0  0  0  0  1  0  0  0  0  0  0
  196.1650  176.0750  142.5640 C   0  0  0  0  0  2  0  0  0  0  0  0
  185.9280  178.1430  144.4590 C   0  0  0  0  0  2  0  0  0  0  0  0
  185.0080  178.6670  145.5030 C   0  0  0  0  0  0  0  0  0  0  0  0
  183.7070  179.0210  145.1680 O   0  0  0  0  0  0  0  0  0  0  0  0
  185.4160  178.8180  146.6830 O   0  0  0  0  0  1  0  0  0  0  0  0
  1 17  2  0  0  0  0
  1  8  1  0  0  0  0
  2 20  1  1  0  0  0
  2  9  1  0  0  0  0
  3 23  1  0  0  0  0
  4  3  1  0  0  0  0
  4 24  2  0  0  0  0
  5 20  1  6  0  0  0
  5 14  1  0  0  0  0
  7 22  1  0  0  0  0
  7 24  1  0  0  0  0
  9 10  1  0  0  0  0
  9  6  1  6  0  0  0
 10 26  1  1  0  0  0
 11 19  1  6  0  0  0
 11 18  1  0  0  0  0
 12  7  1  0  0  0  0
 13 16  1  0  0  0  0
 13  1  1  0  0  0  0
 14  6  1  1  0  0  0
 14  8  1  0  0  0  0
 15 12  2  0  0  0  0
 15  4  1  0  0  0  0
 16  5  1  0  0  0  0
 18 28  1  6  0  0  0
 18 10  1  0  0  0  0
 21  3  2  0  0  0  0
 23  2  1  0  0  0  0
 23 11  1  0  0  0  0
 24 19  1  0  0  0  0
 26 25  1  0  0  0  0
 28 27  1  0  0  0  0
 29 17  1  0  0  0  0
 29 30  1  0  0  0  0
 30 32  1  0  0  0  0
 31 30  2  0  0  0  0
M  END
>  <MODEL>
9

>  <REMARK>
 VINA RESULT:      -6.3      2.290      3.129
  Name = 
  4 active torsions:
  status: ('A' for Active; 'I' for Inactive)
    1  A    between atoms: C_1  and  C_10
    2  A    between atoms: C_10  and  C_24
    3  A    between atoms: O_13  and  C_15
    4  A    between atoms: C_25  and  C_26
                            x       y       z     vdW  Elec       q    Type
                         _______ _______ _______ _____ _____    ______ ____

>  <TORSDO>
F 4

$$$$
