=
 OpenBabel11052419103D

 32 36  0  0  1  0  0  0  0  0999 V2000
  189.1160  176.3720  142.3200 C   0  0  1  0  0  3  0  0  0  0  0  0
  189.0140  175.4250  144.5110 C   0  0  1  0  0  3  0  0  0  0  0  0
  190.4870  172.0560  140.9950 C   0  0  2  0  0  3  0  0  0  0  0  0
  188.1770  175.5900  141.3800 C   0  0  0  0  0  2  0  0  0  0  0  0
  188.5350  176.6120  143.7150 C   0  0  2  0  0  3  0  0  0  0  0  0
  188.2900  176.7860  146.5920 C   0  0  0  0  0  2  0  0  0  0  0  0
  191.4460  171.0740  140.7410 O   0  0  0  0  0  1  0  0  0  0  0  0
  190.3260  175.0090  143.8360 C   0  0  1  0  0  3  0  0  0  0  0  0
  186.8090  176.6590  146.2730 C   0  0  1  0  0  3  0  0  0  0  0  0
  189.7110  172.4130  139.7070 C   0  0  2  0  0  3  0  0  0  0  0  0
  188.8250  174.2380  141.2560 C   0  0  1  0  0  3  0  0  0  0  0  0
  189.1030  175.6190  146.0370 C   0  0  0  0  0  2  0  0  0  0  0  0
  187.0100  176.7100  143.7420 C   0  0  0  0  0  2  0  0  0  0  0  0
  188.6590  174.3910  138.8490 O   0  0  0  0  0  1  0  0  0  0  0  0
  188.6310  173.5000  139.9240 C   0  0  1  0  0  3  0  0  0  0  0  0
  191.1260  173.2910  141.6790 C   0  0  1  0  0  3  0  0  0  0  0  0
  192.4110  173.5220  141.1830 O   0  0  0  0  0  1  0  0  0  0  0  0
  190.3600  175.5950  142.4840 N   0  0  1  0  0  0  0  0  0  0  0  0
  186.0380  177.2260  147.4540 C   0  0  0  0  0  1  0  0  0  0  0  0
  190.2740  174.5520  141.4600 C   0  0  2  0  0  3  0  0  0  0  0  0
  186.4900  177.4320  144.9820 C   0  0  1  0  0  3  0  0  0  0  0  0
  193.0770  174.8190  146.4250 C   0  0  0  0  0  3  0  0  0  0  0  0
  193.4620  176.2710  146.5220 C   0  0  0  0  0  2  0  0  0  0  0  0
  192.1380  176.5970  144.4310 C   0  0  0  0  0  3  0  0  0  0  0  0
  191.5740  175.3900  144.5860 C   0  0  0  0  0  0  0  0  0  0  0  0
  193.4200  176.9350  145.1430 C   0  0  0  0  0  2  0  0  0  0  0  0
  192.1580  174.4230  145.5380 C   0  0  0  0  0  3  0  0  0  0  0  0
  189.6610  171.1490  137.8890 C   0  0  0  0  0  1  0  0  0  0  0  0
  189.1160  171.2690  139.1690 O   0  0  0  0  0  0  0  0  0  0  0  0
  185.0540  177.6100  144.8300 N   0  0  0  0  0  2  0  0  0  0  0  0
  184.5160  177.9600  143.5860 C   0  0  0  0  0  0  0  0  0  0  0  0
  184.0520  178.2610  142.5140 C   0  0  0  0  0  3  0  0  0  0  0  0
  1  4  1  6  0  0  0
  1 18  1  0  0  0  0
  1  5  1  0  0  0  0
  2 12  1  1  0  0  0
  3  7  1  6  0  0  0
  3 16  1  0  0  0  0
  5 13  1  6  0  0  0
  5  2  1  0  0  0  0
  8  2  1  0  0  0  0
  8 25  1  1  0  0  0
  9  6  1  0  0  0  0
  9 19  1  1  0  0  0
 10 29  1  1  0  0  0
 10 15  1  0  0  0  0
 10  3  1  0  0  0  0
 11  4  1  6  0  0  0
 11 20  1  0  0  0  0
 12  6  1  0  0  0  0
 13 21  1  0  0  0  0
 15 14  1  6  0  0  0
 15 11  1  0  0  0  0
 16 17  1  6  0  0  0
 18  8  1  0  0  0  0
 20 16  1  0  0  0  0
 20 18  1  0  0  0  0
 21  9  1  0  0  0  0
 22 23  1  0  0  0  0
 24 25  2  0  0  0  0
 24 26  1  0  0  0  0
 25 27  1  0  0  0  0
 26 23  1  0  0  0  0
 27 22  2  0  0  0  0
 28 29  1  0  0  0  0
 30 21  1  0  0  0  0
 31 30  1  0  0  0  0
 32 31  3  0  0  0  0
M  END
>  <MODEL>
1

>  <REMARK>
 VINA RESULT:      -7.9      0.000      0.000
  Name = 
  4 active torsions:
  status: ('A' for Active; 'I' for Inactive)
    1  A    between atoms: C_10  and  C_28
    2  A    between atoms: N_14  and  C_21
    3  A    between atoms: N_14  and  C_29
    4  A    between atoms: C_15  and  O_26
                            x       y       z     vdW  Elec       q    Type
                         _______ _______ _______ _____ _____    ______ ____

>  <TORSDO>
F 4

$$$$
=
 OpenBabel11052419103D

 32 36  0  0  1  0  0  0  0  0999 V2000
  188.5920  176.8490  142.7000 C   0  0  1  0  0  3  0  0  0  0  0  0
  187.7860  176.0310  144.7950 C   0  0  1  0  0  3  0  0  0  0  0  0
  189.5960  172.3230  141.8200 C   0  0  2  0  0  3  0  0  0  0  0  0
  187.8220  176.1650  141.5530 C   0  0  0  0  0  2  0  0  0  0  0  0
  187.7130  177.2350  143.8910 C   0  0  2  0  0  3  0  0  0  0  0  0
  186.7600  177.5790  146.6010 C   0  0  0  0  0  2  0  0  0  0  0  0
  190.4300  171.2030  141.8350 O   0  0  0  0  0  1  0  0  0  0  0  0
  189.1500  175.4020  144.4920 C   0  0  1  0  0  3  0  0  0  0  0  0
  185.4110  177.6500  145.9040 C   0  0  1  0  0  3  0  0  0  0  0  0
  189.2430  172.7250  140.3700 C   0  0  2  0  0  3  0  0  0  0  0  0
  188.2690  174.7300  141.6160 C   0  0  1  0  0  3  0  0  0  0  0  0
  187.5050  176.2840  146.2890 C   0  0  0  0  0  2  0  0  0  0  0  0
  186.2650  177.5500  143.5150 C   0  0  0  0  0  2  0  0  0  0  0  0
  188.7570  174.7900  139.2480 O   0  0  0  0  0  1  0  0  0  0  0  0
  188.3180  173.9640  140.2860 C   0  0  1  0  0  3  0  0  0  0  0  0
  190.2140  173.4860  142.6370 C   0  0  1  0  0  3  0  0  0  0  0  0
  191.6030  173.5070  142.4950 O   0  0  0  0  0  1  0  0  0  0  0  0
  189.6200  175.9110  143.1920 N   0  0  1  0  0  0  0  0  0  0  0  0
  184.4540  178.3760  146.8360 C   0  0  0  0  0  1  0  0  0  0  0  0
  189.6470  174.8430  142.1910 C   0  0  2  0  0  3  0  0  0  0  0  0
  185.5570  178.3980  144.5680 C   0  0  1  0  0  3  0  0  0  0  0  0
  190.8550  175.2670  147.8660 C   0  0  0  0  0  3  0  0  0  0  0  0
  191.6950  176.5140  147.7990 C   0  0  0  0  0  2  0  0  0  0  0  0
  191.1820  176.5340  145.3560 C   0  0  0  0  0  3  0  0  0  0  0  0
  190.2030  175.6360  145.5410 C   0  0  0  0  0  0  0  0  0  0  0  0
  192.2620  176.7080  146.3890 C   0  0  0  0  0  2  0  0  0  0  0  0
  190.1270  174.8860  146.8110 C   0  0  0  0  0  3  0  0  0  0  0  0
  189.4380  171.4390  138.5780 C   0  0  0  0  0  1  0  0  0  0  0  0
  188.6420  171.6530  139.7050 O   0  0  0  0  0  0  0  0  0  0  0  0
  184.2520  178.7710  144.0430 N   0  0  0  0  0  2  0  0  0  0  0  0
  183.8870  178.4040  142.7420 C   0  0  0  0  0  0  0  0  0  0  0  0
  183.5720  178.0890  141.6210 C   0  0  0  0  0  3  0  0  0  0  0  0
  1  4  1  6  0  0  0
  1 18  1  0  0  0  0
  1  5  1  0  0  0  0
  2 12  1  1  0  0  0
  3  7  1  6  0  0  0
  3 16  1  0  0  0  0
  5 13  1  6  0  0  0
  5  2  1  0  0  0  0
  8  2  1  0  0  0  0
  8 25  1  1  0  0  0
  9  6  1  0  0  0  0
  9 19  1  1  0  0  0
 10 29  1  1  0  0  0
 10  3  1  0  0  0  0
 11  4  1  6  0  0  0
 11 20  1  0  0  0  0
 12  6  1  0  0  0  0
 13 21  1  0  0  0  0
 15 14  1  6  0  0  0
 15 10  1  0  0  0  0
 15 11  1  0  0  0  0
 16 17  1  6  0  0  0
 18  8  1  0  0  0  0
 20 16  1  0  0  0  0
 20 18  1  0  0  0  0
 21  9  1  0  0  0  0
 23 22  1  0  0  0  0
 24 25  2  0  0  0  0
 24 26  1  0  0  0  0
 25 27  1  0  0  0  0
 26 23  1  0  0  0  0
 27 22  2  0  0  0  0
 28 29  1  0  0  0  0
 30 21  1  0  0  0  0
 31 30  1  0  0  0  0
 32 31  3  0  0  0  0
M  END
>  <MODEL>
2

>  <REMARK>
 VINA RESULT:      -7.6      1.260      1.446
  Name = 
  4 active torsions:
  status: ('A' for Active; 'I' for Inactive)
    1  A    between atoms: C_10  and  C_28
    2  A    between atoms: N_14  and  C_21
    3  A    between atoms: N_14  and  C_29
    4  A    between atoms: C_15  and  O_26
                            x       y       z     vdW  Elec       q    Type
                         _______ _______ _______ _____ _____    ______ ____

>  <TORSDO>
F 4

$$$$
=
 OpenBabel11052419103D

 32 36  0  0  1  0  0  0  0  0999 V2000
  189.9110  175.2760  142.2480 C   0  0  1  0  0  3  0  0  0  0  0  0
  189.2400  175.3510  144.5400 C   0  0  1  0  0  3  0  0  0  0  0  0
  191.4670  170.9480  143.3040 C   0  0  2  0  0  3  0  0  0  0  0  0
  189.2190  174.0870  141.5510 C   0  0  0  0  0  2  0  0  0  0  0  0
  189.0050  176.0370  143.2180 C   0  0  2  0  0  3  0  0  0  0  0  0
  188.0500  177.4020  145.5830 C   0  0  0  0  0  2  0  0  0  0  0  0
  192.4360  170.0410  143.7380 O   0  0  0  0  0  1  0  0  0  0  0  0
  190.6690  174.8060  144.4440 C   0  0  1  0  0  3  0  0  0  0  0  0
  186.6940  177.0200  145.0110 C   0  0  1  0  0  3  0  0  0  0  0  0
  191.0480  170.6490  141.8460 C   0  0  2  0  0  3  0  0  0  0  0  0
  189.8450  172.8750  142.1870 C   0  0  1  0  0  3  0  0  0  0  0  0
  188.9480  176.1870  145.8010 C   0  0  0  0  0  2  0  0  0  0  0  0
  187.5240  176.0010  142.8390 C   0  0  0  0  0  2  0  0  0  0  0  0
  190.2920  171.9680  139.9900 O   0  0  0  0  0  1  0  0  0  0  0  0
  189.9740  171.6240  141.3060 C   0  0  1  0  0  3  0  0  0  0  0  0
  191.9430  172.4080  143.5090 C   0  0  1  0  0  3  0  0  0  0  0  0
  193.3170  172.5180  143.2820 O   0  0  0  0  0  1  0  0  0  0  0  0
  191.0550  174.7570  143.0230 N   0  0  1  0  0  0  0  0  0  0  0  0
  185.6650  177.9670  145.6080 C   0  0  0  0  0  1  0  0  0  0  0  0
  191.2040  173.3730  142.5690 C   0  0  2  0  0  3  0  0  0  0  0  0
  186.7280  177.1350  143.4780 C   0  0  1  0  0  3  0  0  0  0  0  0
  193.5960  177.1110  145.0970 C   0  0  0  0  0  3  0  0  0  0  0  0
  194.0910  176.5620  146.4070 C   0  0  0  0  0  2  0  0  0  0  0  0
  191.9280  175.3210  146.5200 C   0  0  0  0  0  3  0  0  0  0  0  0
  191.6970  175.5790  145.2240 C   0  0  0  0  0  0  0  0  0  0  0  0
  192.9160  176.1470  147.2980 C   0  0  0  0  0  2  0  0  0  0  0  0
  192.4920  176.6130  144.5300 C   0  0  0  0  0  3  0  0  0  0  0  0
  191.2970  168.7870  140.6740 C   0  0  0  0  0  1  0  0  0  0  0  0
  190.5800  169.3370  141.7390 O   0  0  0  0  0  0  0  0  0  0  0  0
  185.3800  177.1030  142.9300 N   0  0  0  0  0  2  0  0  0  0  0  0
  185.0970  177.7480  141.7200 C   0  0  0  0  0  0  0  0  0  0  0  0
  184.8520  178.3040  140.6780 C   0  0  0  0  0  3  0  0  0  0  0  0
  1  4  1  1  0  0  0
  1 18  1  0  0  0  0
  1  5  1  0  0  0  0
  2 12  1  1  0  0  0
  3 16  1  0  0  0  0
  3  7  1  6  0  0  0
  5 13  1  6  0  0  0
  5  2  1  0  0  0  0
  6 12  1  0  0  0  0
  8  2  1  0  0  0  0
  8 25  1  1  0  0  0
  9  6  1  0  0  0  0
  9 19  1  1  0  0  0
 10 29  1  1  0  0  0
 10  3  1  0  0  0  0
 11  4  1  6  0  0  0
 11 20  1  0  0  0  0
 13 21  1  0  0  0  0
 15 14  1  6  0  0  0
 15 10  1  0  0  0  0
 15 11  1  0  0  0  0
 16 17  1  6  0  0  0
 18  8  1  0  0  0  0
 20 18  1  0  0  0  0
 20 16  1  0  0  0  0
 21  9  1  0  0  0  0
 22 23  1  0  0  0  0
 23 26  1  0  0  0  0
 24 26  1  0  0  0  0
 25 24  2  0  0  0  0
 27 22  2  0  0  0  0
 27 25  1  0  0  0  0
 28 29  1  0  0  0  0
 30 21  1  0  0  0  0
 31 30  1  0  0  0  0
 32 31  3  0  0  0  0
M  END
>  <MODEL>
3

>  <REMARK>
 VINA RESULT:      -7.2      1.563      2.159
  Name = 
  4 active torsions:
  status: ('A' for Active; 'I' for Inactive)
    1  A    between atoms: C_10  and  C_28
    2  A    between atoms: N_14  and  C_21
    3  A    between atoms: N_14  and  C_29
    4  A    between atoms: C_15  and  O_26
                            x       y       z     vdW  Elec       q    Type
                         _______ _______ _______ _____ _____    ______ ____

>  <TORSDO>
F 4

$$$$
=
 OpenBabel11052419103D

 32 36  0  0  1  0  0  0  0  0999 V2000
  189.1230  175.1910  145.1650 C   0  0  1  0  0  3  0  0  0  0  0  0
  188.9270  176.2800  143.0480 C   0  0  1  0  0  3  0  0  0  0  0  0
  193.7580  175.2750  144.2850 C   0  0  2  0  0  3  0  0  0  0  0  0
  190.0040  176.0440  146.1000 C   0  0  0  0  0  2  0  0  0  0  0  0
  188.1520  176.0100  144.3130 C   0  0  2  0  0  3  0  0  0  0  0  0
  186.6470  176.9890  142.0450 C   0  0  0  0  0  2  0  0  0  0  0  0
  194.9410  174.7420  143.7700 O   0  0  0  0  0  1  0  0  0  0  0  0
  189.8930  175.0960  142.9250 C   0  0  1  0  0  3  0  0  0  0  0  0
  186.5570  178.2430  142.9010 C   0  0  1  0  0  3  0  0  0  0  0  0
  193.8530  175.4450  145.8180 C   0  0  2  0  0  3  0  0  0  0  0  0
  191.3750  175.9640  145.4850 C   0  0  1  0  0  3  0  0  0  0  0  0
  188.0910  176.5670  141.7860 C   0  0  0  0  0  2  0  0  0  0  0  0
  187.7030  177.3160  144.9680 C   0  0  0  0  0  2  0  0  0  0  0  0
  192.2920  175.3540  147.6380 O   0  0  0  0  0  1  0  0  0  0  0  0
  192.5680  176.0340  146.4490 C   0  0  1  0  0  3  0  0  0  0  0  0
  192.5330  174.4360  143.8430 C   0  0  1  0  0  3  0  0  0  0  0  0
  192.8550  173.0780  143.7920 O   0  0  0  0  0  1  0  0  0  0  0  0
  190.0070  174.4500  144.2450 N   0  0  1  0  0  0  0  0  0  0  0  0
  185.3580  179.0410  142.4160 C   0  0  0  0  0  1  0  0  0  0  0  0
  191.3480  174.6320  144.8020 C   0  0  2  0  0  3  0  0  0  0  0  0
  186.4000  177.8500  144.3790 C   0  0  1  0  0  3  0  0  0  0  0  0
  189.9570  173.2130  139.6460 C   0  0  0  0  0  3  0  0  0  0  0  0
  188.5390  172.7150  139.5880 C   0  0  0  0  0  2  0  0  0  0  0  0
  188.3840  173.3600  141.9940 C   0  0  0  0  0  3  0  0  0  0  0  0
  189.5150  174.0730  141.8890 C   0  0  0  0  0  0  0  0  0  0  0  0
  188.0550  172.2980  140.9800 C   0  0  0  0  0  2  0  0  0  0  0  0
  190.3930  173.8860  140.7160 C   0  0  0  0  0  3  0  0  0  0  0  0
  194.5650  177.5410  145.7630 C   0  0  0  0  0  1  0  0  0  0  0  0
  194.9440  176.2530  146.1470 O   0  0  0  0  0  0  0  0  0  0  0  0
  185.9840  178.9950  145.1740 N   0  0  0  0  0  2  0  0  0  0  0  0
  185.5630  178.8180  146.4980 C   0  0  0  0  0  0  0  0  0  0  0  0
  185.2010  178.6650  147.6380 C   0  0  0  0  0  3  0  0  0  0  0  0
  1  4  1  1  0  0  0
  2 12  1  6  0  0  0
  2  5  1  0  0  0  0
  3  7  1  1  0  0  0
  3 10  1  0  0  0  0
  5 13  1  1  0  0  0
  5  1  1  0  0  0  0
  6  9  1  0  0  0  0
  8 25  1  6  0  0  0
  8  2  1  0  0  0  0
  8 18  1  0  0  0  0
  9 19  1  6  0  0  0
  9 21  1  0  0  0  0
 10 29  1  6  0  0  0
 10 15  1  0  0  0  0
 11  4  1  1  0  0  0
 11 15  1  0  0  0  0
 12  6  1  0  0  0  0
 15 14  1  1  0  0  0
 16 17  1  1  0  0  0
 16  3  1  0  0  0  0
 16 20  1  0  0  0  0
 18 20  1  0  0  0  0
 18  1  1  0  0  0  0
 20 11  1  0  0  0  0
 21 13  1  0  0  0  0
 21 30  1  0  0  0  0
 22 27  2  0  0  0  0
 23 22  1  0  0  0  0
 23 26  1  0  0  0  0
 25 24  2  0  0  0  0
 26 24  1  0  0  0  0
 27 25  1  0  0  0  0
 28 29  1  0  0  0  0
 30 31  1  0  0  0  0
 31 32  3  0  0  0  0
M  END
>  <MODEL>
4

>  <REMARK>
 VINA RESULT:      -7.1      2.221      5.678
  Name = 
  4 active torsions:
  status: ('A' for Active; 'I' for Inactive)
    1  A    between atoms: C_10  and  C_28
    2  A    between atoms: N_14  and  C_21
    3  A    between atoms: N_14  and  C_29
    4  A    between atoms: C_15  and  O_26
                            x       y       z     vdW  Elec       q    Type
                         _______ _______ _______ _____ _____    ______ ____

>  <TORSDO>
F 4

$$$$
=
 OpenBabel11052419103D

 32 36  0  0  1  0  0  0  0  0999 V2000
  191.3400  172.9640  144.3260 C   0  0  1  0  0  3  0  0  0  0  0  0
  191.4450  175.3220  143.9520 C   0  0  1  0  0  3  0  0  0  0  0  0
  189.0730  172.8550  140.1890 C   0  0  2  0  0  3  0  0  0  0  0  0
  192.0330  172.2310  143.1600 C   0  0  0  0  0  2  0  0  0  0  0  0
  192.0710  174.2290  144.7810 C   0  0  2  0  0  3  0  0  0  0  0  0
  192.5840  176.9520  145.6110 C   0  0  0  0  0  2  0  0  0  0  0  0
  187.9280  172.8960  139.3910 O   0  0  0  0  0  1  0  0  0  0  0  0
  190.0260  174.8210  143.6590 C   0  0  1  0  0  3  0  0  0  0  0  0
  193.9830  176.6290  145.1100 C   0  0  1  0  0  3  0  0  0  0  0  0
  189.7920  171.4930  140.0470 C   0  0  2  0  0  3  0  0  0  0  0  0
  191.1330  172.4840  141.9800 C   0  0  1  0  0  3  0  0  0  0  0  0
  191.5220  176.7460  144.5340 C   0  0  0  0  0  2  0  0  0  0  0  0
  193.5840  174.1810  144.5690 C   0  0  0  0  0  2  0  0  0  0  0  0
  191.1230  170.1160  141.4930 O   0  0  0  0  0  1  0  0  0  0  0  0
  191.0720  171.3850  140.9100 C   0  0  1  0  0  3  0  0  0  0  0  0
  188.7380  173.2130  141.6580 C   0  0  1  0  0  3  0  0  0  0  0  0
  187.4830  172.7170  142.0150 O   0  0  0  0  0  1  0  0  0  0  0  0
  189.9910  173.3650  143.8830 N   0  0  1  0  0  0  0  0  0  0  0  0
  194.9430  177.5960  145.7830 C   0  0  0  0  0  1  0  0  0  0  0  0
  189.7910  172.6470  142.6240 C   0  0  2  0  0  3  0  0  0  0  0  0
  194.3320  175.1720  145.4560 C   0  0  1  0  0  3  0  0  0  0  0  0
  187.0950  177.0870  144.4220 C   0  0  0  0  0  3  0  0  0  0  0  0
  187.3060  177.3210  145.8940 C   0  0  0  0  0  2  0  0  0  0  0  0
  188.9260  175.4240  145.8000 C   0  0  0  0  0  3  0  0  0  0  0  0
  188.9400  175.4860  144.4600 C   0  0  0  0  0  0  0  0  0  0  0  0
  187.7970  176.0430  146.5790 C   0  0  0  0  0  2  0  0  0  0  0  0
  187.8960  176.2530  143.7500 C   0  0  0  0  0  3  0  0  0  0  0  0
  191.2200  172.0670  138.4550 C   0  0  0  0  0  1  0  0  0  0  0  0
  190.1130  171.2540  138.7090 O   0  0  0  0  0  0  0  0  0  0  0  0
  195.7580  174.9330  145.2930 N   0  0  0  0  0  2  0  0  0  0  0  0
  196.3260  173.7340  145.7410 C   0  0  0  0  0  0  0  0  0  0  0  0
  196.8160  172.7020  146.1270 C   0  0  0  0  0  3  0  0  0  0  0  0
  1  4  1  6  0  0  0
  1  5  1  0  0  0  0
  2 12  1  1  0  0  0
  2  5  1  0  0  0  0
  3  7  1  6  0  0  0
  3 16  1  0  0  0  0
  5 13  1  6  0  0  0
  8 18  1  0  0  0  0
  8  2  1  0  0  0  0
  8 25  1  1  0  0  0
  9 21  1  0  0  0  0
  9  6  1  0  0  0  0
  9 19  1  1  0  0  0
 10 29  1  6  0  0  0
 10  3  1  0  0  0  0
 10 15  1  0  0  0  0
 11 20  1  0  0  0  0
 11  4  1  1  0  0  0
 12  6  1  0  0  0  0
 13 21  1  0  0  0  0
 15 14  1  1  0  0  0
 15 11  1  0  0  0  0
 16 17  1  1  0  0  0
 16 20  1  0  0  0  0
 18  1  1  0  0  0  0
 20 18  1  0  0  0  0
 22 23  1  0  0  0  0
 23 26  1  0  0  0  0
 24 26  1  0  0  0  0
 25 24  2  0  0  0  0
 27 22  2  0  0  0  0
 27 25  1  0  0  0  0
 28 29  1  0  0  0  0
 30 21  1  0  0  0  0
 30 31  1  0  0  0  0
 31 32  3  0  0  0  0
M  END
>  <MODEL>
5

>  <REMARK>
 VINA RESULT:      -6.9      2.002      5.951
  Name = 
  4 active torsions:
  status: ('A' for Active; 'I' for Inactive)
    1  A    between atoms: C_10  and  C_28
    2  A    between atoms: N_14  and  C_21
    3  A    between atoms: N_14  and  C_29
    4  A    between atoms: C_15  and  O_26
                            x       y       z     vdW  Elec       q    Type
                         _______ _______ _______ _____ _____    ______ ____

>  <TORSDO>
F 4

$$$$
=
 OpenBabel11052419103D

 32 36  0  0  1  0  0  0  0  0999 V2000
  191.3540  171.8960  143.9110 C   0  0  1  0  0  3  0  0  0  0  0  0
  192.4090  174.0280  144.1290 C   0  0  1  0  0  3  0  0  0  0  0  0
  189.3250  173.7820  140.0910 C   0  0  2  0  0  3  0  0  0  0  0  0
  191.7160  171.2830  142.5440 C   0  0  0  0  0  2  0  0  0  0  0  0
  192.5230  172.6010  144.6020 C   0  0  2  0  0  3  0  0  0  0  0  0
  194.0740  174.5770  146.0360 C   0  0  0  0  0  2  0  0  0  0  0  0
  188.3120  174.4810  139.4320 O   0  0  0  0  0  1  0  0  0  0  0  0
  190.9160  174.2250  143.8450 C   0  0  1  0  0  3  0  0  0  0  0  0
  195.2340  173.8720  145.3500 C   0  0  1  0  0  3  0  0  0  0  0  0
  189.4360  172.3370  139.5540 C   0  0  2  0  0  3  0  0  0  0  0  0
  191.0220  172.1720  141.5480 C   0  0  1  0  0  3  0  0  0  0  0  0
  193.0430  175.0990  145.0380 C   0  0  0  0  0  2  0  0  0  0  0  0
  193.8920  172.0170  144.2530 C   0  0  0  0  0  2  0  0  0  0  0  0
  190.0660  170.2190  140.4890 O   0  0  0  0  0  1  0  0  0  0  0  0
  190.5450  171.5100  140.2470 C   0  0  1  0  0  3  0  0  0  0  0  0
  189.1320  173.8440  141.6270 C   0  0  1  0  0  3  0  0  0  0  0  0
  187.7760  173.8090  141.9580 O   0  0  0  0  0  1  0  0  0  0  0  0
  190.2910  172.8980  143.7030 N   0  0  1  0  0  0  0  0  0  0  0  0
  196.4880  174.1680  146.1560 C   0  0  0  0  0  1  0  0  0  0  0  0
  189.8460  172.6750  142.3260 C   0  0  2  0  0  3  0  0  0  0  0  0
  194.9580  172.3610  145.2900 C   0  0  1  0  0  3  0  0  0  0  0  0
  188.9420  174.9610  146.9860 C   0  0  0  0  0  3  0  0  0  0  0  0
  188.2020  176.2010  146.5610 C   0  0  0  0  0  2  0  0  0  0  0  0
  189.7840  176.2880  144.6320 C   0  0  0  0  0  3  0  0  0  0  0  0
  190.1740  175.0280  144.8780 C   0  0  0  0  0  0  0  0  0  0  0  0
  189.0990  177.0960  145.7000 C   0  0  0  0  0  2  0  0  0  0  0  0
  189.8370  174.3960  146.1690 C   0  0  0  0  0  3  0  0  0  0  0  0
  190.9730  172.8100  138.0310 C   0  0  0  0  0  1  0  0  0  0  0  0
  189.6620  172.3520  138.1750 O   0  0  0  0  0  0  0  0  0  0  0  0
  196.1690  171.6300  144.9500 N   0  0  0  0  0  2  0  0  0  0  0  0
  196.5880  170.5540  145.7410 C   0  0  0  0  0  0  0  0  0  0  0  0
  196.9490  169.6270  146.4240 C   0  0  0  0  0  3  0  0  0  0  0  0
  1  4  1  6  0  0  0
  1  5  1  0  0  0  0
  2  5  1  0  0  0  0
  2 12  1  1  0  0  0
  3  7  1  6  0  0  0
  3 16  1  0  0  0  0
  5 13  1  6  0  0  0
  8  2  1  0  0  0  0
  8 25  1  1  0  0  0
  9  6  1  0  0  0  0
  9 19  1  1  0  0  0
 10 29  1  6  0  0  0
 10  3  1  0  0  0  0
 10 15  1  0  0  0  0
 11 20  1  0  0  0  0
 11  4  1  1  0  0  0
 12  6  1  0  0  0  0
 13 21  1  0  0  0  0
 15 14  1  1  0  0  0
 15 11  1  0  0  0  0
 16 17  1  6  0  0  0
 16 20  1  0  0  0  0
 18  8  1  0  0  0  0
 18  1  1  0  0  0  0
 20 18  1  0  0  0  0
 21  9  1  0  0  0  0
 23 22  1  0  0  0  0
 24 25  2  0  0  0  0
 24 26  1  0  0  0  0
 25 27  1  0  0  0  0
 26 23  1  0  0  0  0
 27 22  2  0  0  0  0
 28 29  1  0  0  0  0
 30 21  1  0  0  0  0
 30 31  1  0  0  0  0
 31 32  3  0  0  0  0
M  END
>  <MODEL>
6

>  <REMARK>
 VINA RESULT:      -6.7      2.697      6.476
  Name = 
  4 active torsions:
  status: ('A' for Active; 'I' for Inactive)
    1  A    between atoms: C_10  and  C_28
    2  A    between atoms: N_14  and  C_21
    3  A    between atoms: N_14  and  C_29
    4  A    between atoms: C_15  and  O_26
                            x       y       z     vdW  Elec       q    Type
                         _______ _______ _______ _____ _____    ______ ____

>  <TORSDO>
F 4

$$$$
=
 OpenBabel11052419103D

 32 36  0  0  1  0  0  0  0  0999 V2000
  191.5360  175.0900  143.1990 C   0  0  1  0  0  3  0  0  0  0  0  0
  190.6140  172.8860  143.1520 C   0  0  1  0  0  3  0  0  0  0  0  0
  187.0960  176.4540  144.0310 C   0  0  2  0  0  3  0  0  0  0  0  0
  191.2410  175.7390  144.5660 C   0  0  0  0  0  2  0  0  0  0  0  0
  191.9270  173.6140  143.2870 C   0  0  2  0  0  3  0  0  0  0  0  0
  192.0580  170.7730  142.7540 C   0  0  0  0  0  2  0  0  0  0  0  0
  185.8230  176.8700  143.6360 O   0  0  0  0  0  1  0  0  0  0  0  0
  189.7360  173.8250  142.3170 C   0  0  1  0  0  3  0  0  0  0  0  0
  192.5530  170.7300  144.1910 C   0  0  1  0  0  3  0  0  0  0  0  0
  187.7920  177.5440  144.8790 C   0  0  2  0  0  3  0  0  0  0  0  0
  189.7490  175.9340  144.5650 C   0  0  1  0  0  3  0  0  0  0  0  0
  190.6880  171.4370  142.6340 C   0  0  0  0  0  2  0  0  0  0  0  0
  192.6300  173.2360  144.5910 C   0  0  0  0  0  2  0  0  0  0  0  0
  190.0620  178.2410  145.2190 O   0  0  0  0  0  1  0  0  0  0  0  0
  189.2110  177.1400  145.3480 C   0  0  1  0  0  3  0  0  0  0  0  0
  187.9380  176.0100  142.8080 C   0  0  1  0  0  3  0  0  0  0  0  0
  187.6530  176.8040  141.6960 O   0  0  0  0  0  1  0  0  0  0  0  0
  190.3170  175.1780  142.3720 N   0  0  1  0  0  0  0  0  0  0  0  0
  193.3290  169.4350  144.3670 C   0  0  0  0  0  1  0  0  0  0  0  0
  189.4430  176.0930  143.1080 C   0  0  2  0  0  3  0  0  0  0  0  0
  193.4450  171.9510  144.4680 C   0  0  1  0  0  3  0  0  0  0  0  0
  190.5250  173.3840  138.6440 C   0  0  0  0  0  3  0  0  0  0  0  0
  189.1350  173.3350  138.0690 C   0  0  0  0  0  2  0  0  0  0  0  0
  188.3470  173.0340  140.4190 C   0  0  0  0  0  3  0  0  0  0  0  0
  189.5480  173.4100  140.8830 C   0  0  0  0  0  0  0  0  0  0  0  0
  188.1920  172.5630  138.9980 C   0  0  0  0  0  2  0  0  0  0  0  0
  190.7050  173.4600  139.9670 C   0  0  0  0  0  3  0  0  0  0  0  0
  187.1330  176.7620  146.8430 C   0  0  0  0  0  1  0  0  0  0  0  0
  187.0090  177.8620  145.9910 O   0  0  0  0  0  0  0  0  0  0  0  0
  194.1920  171.7730  145.7040 N   0  0  0  0  0  2  0  0  0  0  0  0
  195.5610  172.0630  145.7470 C   0  0  0  0  0  0  0  0  0  0  0  0
  196.7400  172.3130  145.7840 C   0  0  0  0  0  3  0  0  0  0  0  0
  1  5  1  0  0  0  0
  1  4  1  1  0  0  0
  2 12  1  6  0  0  0
  2  5  1  0  0  0  0
  3  7  1  6  0  0  0
  3 10  1  0  0  0  0
  5 13  1  1  0  0  0
  6  9  1  0  0  0  0
  8 25  1  6  0  0  0
  8 18  1  0  0  0  0
  8  2  1  0  0  0  0
  9 19  1  6  0  0  0
  9 21  1  0  0  0  0
 10 15  1  0  0  0  0
 10 29  1  1  0  0  0
 11  4  1  6  0  0  0
 11 15  1  0  0  0  0
 12  6  1  0  0  0  0
 15 14  1  6  0  0  0
 16 17  1  6  0  0  0
 16 20  1  0  0  0  0
 16  3  1  0  0  0  0
 18 20  1  0  0  0  0
 18  1  1  0  0  0  0
 20 11  1  0  0  0  0
 21 13  1  0  0  0  0
 21 30  1  0  0  0  0
 22 27  2  0  0  0  0
 23 22  1  0  0  0  0
 23 26  1  0  0  0  0
 24 25  2  0  0  0  0
 26 24  1  0  0  0  0
 27 25  1  0  0  0  0
 29 28  1  0  0  0  0
 30 31  1  0  0  0  0
 31 32  3  0  0  0  0
M  END
>  <MODEL>
7

>  <REMARK>
 VINA RESULT:      -6.5      3.207      7.651
  Name = 
  4 active torsions:
  status: ('A' for Active; 'I' for Inactive)
    1  A    between atoms: C_10  and  C_28
    2  A    between atoms: N_14  and  C_21
    3  A    between atoms: N_14  and  C_29
    4  A    between atoms: C_15  and  O_26
                            x       y       z     vdW  Elec       q    Type
                         _______ _______ _______ _____ _____    ______ ____

>  <TORSDO>
F 4

$$$$
=
 OpenBabel11052419103D

 32 36  0  0  1  0  0  0  0  0999 V2000
  191.9580  175.5650  142.5590 C   0  0  1  0  0  3  0  0  0  0  0  0
  192.8810  174.8360  144.6380 C   0  0  1  0  0  3  0  0  0  0  0  0
  192.8640  171.1640  141.1180 C   0  0  2  0  0  3  0  0  0  0  0  0
  190.7500  174.6770  142.1960 C   0  0  0  0  0  2  0  0  0  0  0  0
  192.0330  175.9300  144.0420 C   0  0  2  0  0  3  0  0  0  0  0  0
  193.0620  176.3820  146.7080 C   0  0  0  0  0  2  0  0  0  0  0  0
  193.6720  170.1780  140.5460 O   0  0  0  0  0  1  0  0  0  0  0  0
  193.7880  174.3790  143.4890 C   0  0  1  0  0  3  0  0  0  0  0  0
  191.6010  176.1990  147.0860 C   0  0  1  0  0  3  0  0  0  0  0  0
  191.5830  171.3780  140.2800 C   0  0  2  0  0  3  0  0  0  0  0  0
  191.3570  173.3310  141.9090 C   0  0  1  0  0  3  0  0  0  0  0  0
  193.6180  175.1810  145.9460 C   0  0  0  0  0  2  0  0  0  0  0  0
  190.6710  176.0030  144.7320 C   0  0  0  0  0  2  0  0  0  0  0  0
  190.1460  173.2430  139.8180 O   0  0  0  0  0  1  0  0  0  0  0  0
  190.6440  172.4610  140.8640 C   0  0  1  0  0  3  0  0  0  0  0  0
  193.6630  172.4710  141.3470 C   0  0  1  0  0  3  0  0  0  0  0  0
  194.5860  172.6740  140.3190 O   0  0  0  0  0  1  0  0  0  0  0  0
  193.1910  174.8290  142.2190 N   0  0  1  0  0  0  0  0  0  0  0  0
  191.3920  176.8650  148.4360 C   0  0  0  0  0  1  0  0  0  0  0  0
  192.7290  173.6890  141.4260 C   0  0  2  0  0  3  0  0  0  0  0  0
  190.7040  176.8350  146.0110 C   0  0  1  0  0  3  0  0  0  0  0  0
  196.7840  176.6400  143.0240 C   0  0  0  0  0  3  0  0  0  0  0  0
  197.8970  175.6260  143.0380 C   0  0  0  0  0  2  0  0  0  0  0  0
  196.2040  174.0180  143.9220 C   0  0  0  0  0  3  0  0  0  0  0  0
  195.2130  174.8540  143.5780 C   0  0  0  0  0  0  0  0  0  0  0  0
  197.6130  174.5270  144.0660 C   0  0  0  0  0  2  0  0  0  0  0  0
  195.5210  176.2580  143.2390 C   0  0  0  0  0  3  0  0  0  0  0  0
  190.6530  170.0350  138.7840 C   0  0  0  0  0  1  0  0  0  0  0  0
  190.8820  170.1760  140.1550 O   0  0  0  0  0  0  0  0  0  0  0  0
  189.3390  176.9710  146.4950 N   0  0  0  0  0  2  0  0  0  0  0  0
  188.3270  177.4120  145.6330 C   0  0  0  0  0  0  0  0  0  0  0  0
  187.4560  177.7920  144.8900 C   0  0  0  0  0  3  0  0  0  0  0  0
  1  4  1  1  0  0  0
  1  5  1  0  0  0  0
  2 12  1  1  0  0  0
  3  7  1  6  0  0  0
  3 16  1  0  0  0  0
  5  2  1  0  0  0  0
  5 13  1  1  0  0  0
  6  9  1  0  0  0  0
  8 25  1  1  0  0  0
  8  2  1  0  0  0  0
  9 19  1  1  0  0  0
 10 29  1  1  0  0  0
 10 15  1  0  0  0  0
 10  3  1  0  0  0  0
 11  4  1  6  0  0  0
 12  6  1  0  0  0  0
 13 21  1  0  0  0  0
 15 14  1  6  0  0  0
 15 11  1  0  0  0  0
 16 17  1  6  0  0  0
 16 20  1  0  0  0  0
 18  1  1  0  0  0  0
 18  8  1  0  0  0  0
 20 11  1  0  0  0  0
 20 18  1  0  0  0  0
 21 30  1  0  0  0  0
 21  9  1  0  0  0  0
 22 23  1  0  0  0  0
 22 27  2  0  0  0  0
 23 26  1  0  0  0  0
 24 26  1  0  0  0  0
 25 24  2  0  0  0  0
 27 25  1  0  0  0  0
 28 29  1  0  0  0  0
 31 30  1  0  0  0  0
 32 31  3  0  0  0  0
M  END
>  <MODEL>
8

>  <REMARK>
 VINA RESULT:      -6.2      2.525      3.802
  Name = 
  4 active torsions:
  status: ('A' for Active; 'I' for Inactive)
    1  A    between atoms: C_10  and  C_28
    2  A    between atoms: N_14  and  C_21
    3  A    between atoms: N_14  and  C_29
    4  A    between atoms: C_15  and  O_26
                            x       y       z     vdW  Elec       q    Type
                         _______ _______ _______ _____ _____    ______ ____

>  <TORSDO>
F 4

$$$$
=
 OpenBabel11052419103D

 32 36  0  0  1  0  0  0  0  0999 V2000
  191.8050  173.8640  144.7360 C   0  0  1  0  0  3  0  0  0  0  0  0
  190.8460  174.5350  142.6530 C   0  0  1  0  0  3  0  0  0  0  0  0
  195.9230  174.2840  142.4700 C   0  0  2  0  0  3  0  0  0  0  0  0
  192.7740  174.9580  145.2280 C   0  0  0  0  0  2  0  0  0  0  0  0
  190.5170  174.4120  144.1200 C   0  0  2  0  0  3  0  0  0  0  0  0
  188.2930  174.8100  142.3130 C   0  0  0  0  0  2  0  0  0  0  0  0
  196.9770  173.7960  141.6940 O   0  0  0  0  0  1  0  0  0  0  0  0
  191.9070  173.4580  142.4020 C   0  0  1  0  0  3  0  0  0  0  0  0
  188.2600  176.1790  142.9750 C   0  0  1  0  0  3  0  0  0  0  0  0
  196.4260  174.7300  143.8610 C   0  0  2  0  0  3  0  0  0  0  0  0
  193.9080  174.9160  144.2390 C   0  0  1  0  0  3  0  0  0  0  0  0
  189.6490  174.5050  141.6830 C   0  0  0  0  0  2  0  0  0  0  0  0
  190.0780  175.7580  144.6960 C   0  0  0  0  0  2  0  0  0  0  0  0
  195.4850  174.7970  146.0680 O   0  0  0  0  0  1  0  0  0  0  0  0
  195.3010  175.2820  144.7700 C   0  0  1  0  0  3  0  0  0  0  0  0
  194.7680  173.2540  142.5450 C   0  0  1  0  0  3  0  0  0  0  0  0
  195.2670  171.9510  142.5830 O   0  0  0  0  0  1  0  0  0  0  0  0
  192.4920  173.0700  143.6980 N   0  0  1  0  0  0  0  0  0  0  0  0
  186.8640  176.7460  142.7790 C   0  0  0  0  0  1  0  0  0  0  0  0
  193.8920  173.4890  143.7860 C   0  0  2  0  0  3  0  0  0  0  0  0
  188.5950  176.0390  144.4690 C   0  0  1  0  0  3  0  0  0  0  0  0
  190.8150  169.8730  141.8860 C   0  0  0  0  0  3  0  0  0  0  0  0
  191.1460  169.6940  140.4290 C   0  0  0  0  0  2  0  0  0  0  0  0
  191.3860  172.1770  140.3420 C   0  0  0  0  0  3  0  0  0  0  0  0
  191.4100  172.2340  141.6820 C   0  0  0  0  0  0  0  0  0  0  0  0
  190.8280  170.9680  139.6410 C   0  0  0  0  0  2  0  0  0  0  0  0
  190.9820  171.0630  142.4740 C   0  0  0  0  0  3  0  0  0  0  0  0
  196.7920  176.7910  143.1380 C   0  0  0  0  0  1  0  0  0  0  0  0
  197.4270  175.6950  143.7260 O   0  0  0  0  0  0  0  0  0  0  0  0
  188.2520  177.2550  145.1900 N   0  0  0  0  0  2  0  0  0  0  0  0
  187.4050  177.1990  146.3030 C   0  0  0  0  0  0  0  0  0  0  0  0
  186.6760  177.1510  147.2630 C   0  0  0  0  0  3  0  0  0  0  0  0
  1  4  1  6  0  0  0
  2 12  1  6  0  0  0
  2  5  1  0  0  0  0
  3  7  1  6  0  0  0
  3 16  1  0  0  0  0
  3 10  1  0  0  0  0
  5 13  1  1  0  0  0
  5  1  1  0  0  0  0
  6  9  1  0  0  0  0
  8 25  1  1  0  0  0
  8  2  1  0  0  0  0
  8 18  1  0  0  0  0
  9 19  1  1  0  0  0
  9 21  1  0  0  0  0
 10 29  1  6  0  0  0
 10 15  1  0  0  0  0
 11 15  1  0  0  0  0
 11  4  1  1  0  0  0
 12  6  1  0  0  0  0
 15 14  1  1  0  0  0
 16 17  1  1  0  0  0
 16 20  1  0  0  0  0
 18 20  1  0  0  0  0
 18  1  1  0  0  0  0
 20 11  1  0  0  0  0
 21 13  1  0  0  0  0
 21 30  1  0  0  0  0
 22 27  2  0  0  0  0
 23 22  1  0  0  0  0
 24 25  2  0  0  0  0
 25 27  1  0  0  0  0
 26 24  1  0  0  0  0
 26 23  1  0  0  0  0
 28 29  1  0  0  0  0
 30 31  1  0  0  0  0
 31 32  3  0  0  0  0
M  END
>  <MODEL>
9

>  <REMARK>
 VINA RESULT:      -6.1      2.764      5.984
  Name = 
  4 active torsions:
  status: ('A' for Active; 'I' for Inactive)
    1  A    between atoms: C_10  and  C_28
    2  A    between atoms: N_14  and  C_21
    3  A    between atoms: N_14  and  C_29
    4  A    between atoms: C_15  and  O_26
                            x       y       z     vdW  Elec       q    Type
                         _______ _______ _______ _____ _____    ______ ____

>  <TORSDO>
F 4

$$$$
