=
 OpenBabel11052419493D

 55 60  0  0  1  0  0  0  0  0999 V2000
  189.9860  177.3290  147.2750 C   0  0  0  0  0  2  0  0  0  0  0  0
  192.0700  175.5200  146.7620 C   0  0  2  0  0  3  0  0  0  0  0  0
  191.2520  175.9990  145.5510 C   0  0  0  0  0  2  0  0  0  0  0  0
  191.1100  177.0700  148.2950 C   0  0  0  0  0  2  0  0  0  0  0  0
  190.5080  177.3070  145.8410 C   0  0  1  0  0  3  0  0  0  0  0  0
  192.3590  176.6290  147.6650 N   0  0  0  0  0  2  0  0  0  0  0  0
  193.3910  174.0870  145.2640 C   0  0  0  0  0  3  0  0  0  0  0  0
  193.3470  174.8940  146.3190 C   0  0  0  0  0  3  0  0  0  0  0  0
  197.7870  173.7330  144.1580 O   0  0  0  0  0  1  0  0  0  0  0  0
  195.1660  172.3140  145.5230 C   0  0  1  0  0  3  0  0  0  0  0  0
  196.6680  173.0160  143.7090 C   0  0  1  0  0  0  0  0  0  0  0  0
  196.3540  171.8730  144.6880 C   0  0  1  0  0  3  0  0  0  0  0  0
  194.6110  173.4660  144.8340 N   0  0  0  0  0  0  0  0  0  0  0  0
  197.4380  171.5610  145.5140 O   0  0  0  0  0  1  0  0  0  0  0  0
  194.1560  171.1810  145.5690 C   0  0  0  0  0  1  0  0  0  0  0  0
  195.4210  173.9200  143.7110 C   0  0  1  0  0  3  0  0  0  0  0  0
  196.7340  172.7840  140.0820 C   0  0  0  0  0  0  0  0  0  0  0  0
  196.9770  172.4550  142.3040 C   0  0  1  0  0  3  0  0  0  0  0  0
  194.7300  171.2660  142.0870 C   0  0  0  0  0  1  0  0  0  0  0  0
  196.2280  171.2170  141.8210 C   0  0  1  0  0  3  0  0  0  0  0  0
  197.9390  173.0140  139.1770 C   0  0  0  0  0  1  0  0  0  0  0  0
  196.4480  171.2960  140.3420 C   0  0  2  0  0  3  0  0  0  0  0  0
  195.5210  173.3940  139.4050 C   0  0  0  0  0  1  0  0  0  0  0  0
  197.5330  170.4790  139.9990 O   0  0  0  0  0  1  0  0  0  0  0  0
  196.9440  173.4470  141.3100 O   0  0  0  0  0  0  0  0  0  0  0  0
  195.7560  175.2730  143.8750 O   0  0  0  0  0  0  0  0  0  0  0  0
  195.0900  175.9520  142.8490 C   0  0  0  0  0  2  0  0  0  0  0  0
  196.0810  176.4350  141.8070 C   0  0  0  0  0  2  0  0  0  0  0  0
  195.4320  177.1810  140.8420 F   0  0  0  0  0  0  0  0  0  0  0  0
  189.4470  177.4660  144.9490 O   0  0  0  0  0  0  0  0  0  0  0  0
  188.7490  176.2550  144.9910 C   0  0  0  0  0  2  0  0  0  0  0  0
  184.5530  177.9490  142.8490 C   0  0  0  0  0  2  0  0  0  0  0  0
  189.7530  173.8900  143.5410 C   0  0  0  0  0  2  0  0  0  0  0  0
  184.8130  178.4450  140.5910 C   0  0  0  0  0  2  0  0  0  0  0  0
  186.3420  176.7430  141.5540 N   0  0  0  0  0  0  0  0  0  0  0  0
  185.9900  177.5060  140.3530 C   0  0  0  0  0  2  0  0  0  0  0  0
  184.9060  179.0160  141.9240 N   0  0  0  0  0  2  0  0  0  0  0  0
  185.5970  176.8200  142.8230 C   0  0  1  0  0  3  0  0  0  0  0  0
  188.1380  175.6060  142.5710 C   0  0  0  0  0  0  0  0  0  0  0  0
  189.9290  174.5740  141.2890 O   0  0  0  0  0  0  0  0  0  0  0  0
  187.4800  175.9250  141.4970 N   0  0  0  0  0  0  0  0  0  0  0  0
  191.2110  174.1750  141.7050 C   0  0  1  0  0  3  0  0  0  0  0  0
  186.5480  176.8390  144.0000 C   0  0  0  0  0  0  0  0  0  0  0  0
  191.0570  173.3880  143.0000 C   0  0  0  0  0  2  0  0  0  0  0  0
  187.7450  176.2130  143.8800 C   0  0  0  0  0  0  0  0  0  0  0  0
  189.2430  174.6950  142.4520 N   0  0  0  0  0  0  0  0  0  0  0  0
  186.0340  177.4070  145.3070 C   0  0  2  0  0  3  0  0  0  0  0  0
  186.4830  178.8270  145.6670 C   0  0  0  0  0  2  0  0  0  0  0  0
  185.7600  179.4100  146.8690 C   0  0  0  0  0  1  0  0  0  0  0  0
  186.6650  176.3670  147.3500 O   0  0  0  0  0  0  0  0  0  0  0  0
  185.8590  176.4280  146.4320 C   0  0  0  0  0  3  0  0  0  0  0  0
  191.8620  173.3180  140.6320 C   0  0  0  0  0  2  0  0  0  0  0  0
  190.9340  173.0990  139.5320 N   0  0  0  0  0  2  0  0  0  0  0  0
  190.7230  171.6640  139.4140 C   0  0  0  0  0  2  0  0  0  0  0  0
  191.2790  171.2020  138.2180 O   0  0  0  0  0  1  0  0  0  0  0  0
  1  4  1  0  0  0  0
  2  8  1  6  0  0  0
  2  6  1  0  0  0  0
  3  5  1  0  0  0  0
  3  2  1  0  0  0  0
  5 30  1  6  0  0  0
  5  1  1  0  0  0  0
  6  4  1  0  0  0  0
  7  8  2  0  0  0  0
 10 15  1  6  0  0  0
 11 16  1  0  0  0  0
 11  9  1  1  0  0  0
 11 12  1  0  0  0  0
 12 14  1  1  0  0  0
 12 10  1  0  0  0  0
 13  7  1  0  0  0  0
 13 10  1  0  0  0  0
 16 26  1  1  0  0  0
 16 13  1  0  0  0  0
 17 22  1  0  0  0  0
 17 25  1  0  0  0  0
 18 25  1  6  0  0  0
 18 11  1  0  0  0  0
 20 19  1  6  0  0  0
 20 18  1  0  0  0  0
 21 17  1  0  0  0  0
 22 24  1  1  0  0  0
 22 20  1  0  0  0  0
 23 17  1  0  0  0  0
 27 26  1  0  0  0  0
 28 27  1  0  0  0  0
 29 28  1  0  0  0  0
 30 31  1  0  0  0  0
 34 37  1  0  0  0  0
 35 38  1  0  0  0  0
 36 34  1  0  0  0  0
 36 35  1  0  0  0  0
 37 32  1  0  0  0  0
 38 32  1  6  0  0  0
 38 43  1  0  0  0  0
 39 45  1  0  0  0  0
 40 42  1  0  0  0  0
 40 46  1  0  0  0  0
 41 35  1  0  0  0  0
 41 39  2  0  0  0  0
 42 52  1  6  0  0  0
 42 44  1  0  0  0  0
 43 47  1  0  0  0  0
 44 33  1  0  0  0  0
 45 43  2  0  0  0  0
 45 31  1  0  0  0  0
 46 39  1  0  0  0  0
 46 33  1  0  0  0  0
 47 48  1  1  0  0  0
 47 51  1  0  0  0  0
 48 49  1  0  0  0  0
 51 50  2  0  0  0  0
 53 52  1  0  0  0  0
 54 53  1  0  0  0  0
 55 54  1  0  0  0  0
M  END
>  <MODEL>
1

>  <REMARK>
 VINA RESULT:      -6.8      0.000      0.000
  Name = 
  15 active torsions:
  status: ('A' for Active; 'I' for Inactive)
    1  A    between atoms: O_2  and  C_28
    2  A    between atoms: O_2  and  C_44
    3  A    between atoms: O_3  and  C_38
    4  A    between atoms: O_3  and  C_46
    5  A    between atoms: C_4  and  C_19
    6  A    between atoms: C_6  and  C_20
    7  A    between atoms: C_10  and  N_18
    8  A    between atoms: C_11  and  C_38
    9  A    between atoms: N_18  and  C_32
   10  A    between atoms: C_19  and  C_40
   11  A    between atoms: C_19  and  C_45
   12  A    between atoms: C_27  and  C_54
   13  A    between atoms: C_28  and  C_49
   14  A    between atoms: C_32  and  C_39
   15  A    between atoms: N_35  and  C_51
                            x       y       z     vdW  Elec       q    Type
                         _______ _______ _______ _____ _____    ______ ____

>  <TORSDO>
F 15

$$$$
=
 OpenBabel11052419493D

 55 60  0  0  1  0  0  0  0  0999 V2000
  192.2380  169.6080  141.5250 C   0  0  0  0  0  2  0  0  0  0  0  0
  191.1090  172.0600  142.2940 C   0  0  2  0  0  3  0  0  0  0  0  0
  192.6120  171.8720  142.5620 C   0  0  0  0  0  2  0  0  0  0  0  0
  190.8780  170.0840  140.9830 C   0  0  0  0  0  2  0  0  0  0  0  0
  193.2170  170.7660  141.6910 C   0  0  1  0  0  3  0  0  0  0  0  0
  190.7490  171.5450  140.9760 N   0  0  0  0  0  2  0  0  0  0  0  0
  189.6820  173.8950  143.0920 C   0  0  0  0  0  3  0  0  0  0  0  0
  190.7350  173.4990  142.3840 C   0  0  0  0  0  3  0  0  0  0  0  0
  189.9160  178.2730  144.2940 O   0  0  0  0  0  1  0  0  0  0  0  0
  189.1050  176.0880  141.9890 C   0  0  1  0  0  3  0  0  0  0  0  0
  188.8100  177.4600  144.0070 C   0  0  1  0  0  0  0  0  0  0  0  0
  188.5740  177.4190  142.4880 C   0  0  1  0  0  3  0  0  0  0  0  0
  189.3010  175.2760  143.1770 N   0  0  0  0  0  0  0  0  0  0  0  0
  189.2000  178.4740  141.8200 O   0  0  0  0  0  1  0  0  0  0  0  0
  188.0670  175.4600  141.0760 C   0  0  0  0  0  1  0  0  0  0  0  0
  189.0980  176.0050  144.4220 C   0  0  1  0  0  3  0  0  0  0  0  0
  186.2620  177.8850  146.5640 C   0  0  0  0  0  0  0  0  0  0  0  0
  187.5750  178.0370  144.7310 C   0  0  1  0  0  3  0  0  0  0  0  0
  185.9780  176.2850  143.7890 C   0  0  0  0  0  1  0  0  0  0  0  0
  186.1860  177.7430  144.1740 C   0  0  1  0  0  3  0  0  0  0  0  0
  186.1580  179.0310  147.5630 C   0  0  0  0  0  1  0  0  0  0  0  0
  185.3210  178.0470  145.3590 C   0  0  2  0  0  3  0  0  0  0  0  0
  185.8980  176.6020  147.2880 C   0  0  0  0  0  1  0  0  0  0  0  0
  184.8300  179.3520  145.2400 O   0  0  0  0  0  1  0  0  0  0  0  0
  187.5950  177.7830  146.1130 O   0  0  0  0  0  0  0  0  0  0  0  0
  190.2430  175.9080  145.2280 O   0  0  0  0  0  0  0  0  0  0  0  0
  189.8160  175.3020  146.4150 C   0  0  0  0  0  2  0  0  0  0  0  0
  190.7540  175.6580  147.5530 C   0  0  0  0  0  2  0  0  0  0  0  0
  191.9120  174.9080  147.4680 F   0  0  0  0  0  0  0  0  0  0  0  0
  194.4060  170.3030  142.2570 O   0  0  0  0  0  0  0  0  0  0  0  0
  195.3890  170.5500  141.2940 C   0  0  0  0  0  2  0  0  0  0  0  0
  196.4420  175.4260  140.8650 C   0  0  0  0  0  2  0  0  0  0  0  0
  197.3690  169.2290  143.0370 C   0  0  0  0  0  2  0  0  0  0  0  0
  196.5630  176.5210  142.9140 C   0  0  0  0  0  2  0  0  0  0  0  0
  197.0450  174.0870  142.9070 N   0  0  0  0  0  0  0  0  0  0  0  0
  196.9050  175.2850  143.7380 C   0  0  0  0  0  2  0  0  0  0  0  0
  195.6500  176.1570  141.8430 N   0  0  0  0  0  2  0  0  0  0  0  0
  196.9420  174.0890  141.4380 C   0  0  1  0  0  3  0  0  0  0  0  0
  196.9150  171.7350  143.0030 C   0  0  0  0  0  0  0  0  0  0  0  0
  197.3670  170.4800  145.0370 O   0  0  0  0  0  0  0  0  0  0  0  0
  197.2490  172.8610  143.5590 N   0  0  0  0  0  0  0  0  0  0  0  0
  197.0140  169.1610  145.3700 C   0  0  1  0  0  3  0  0  0  0  0  0
  196.1610  172.8870  140.9540 C   0  0  0  0  0  0  0  0  0  0  0  0
  197.3730  168.2700  144.1880 C   0  0  0  0  0  2  0  0  0  0  0  0
  196.1950  171.7500  141.6930 C   0  0  0  0  0  0  0  0  0  0  0  0
  197.2310  170.5120  143.6890 N   0  0  0  0  0  0  0  0  0  0  0  0
  195.5280  172.9680  139.5810 C   0  0  2  0  0  3  0  0  0  0  0  0
  194.0120  173.1830  139.5300 C   0  0  0  0  0  2  0  0  0  0  0  0
  193.3400  172.5210  138.3400 C   0  0  0  0  0  1  0  0  0  0  0  0
  196.6580  172.5970  137.5210 O   0  0  0  0  0  0  0  0  0  0  0  0
  196.1430  172.1050  138.5150 C   0  0  0  0  0  3  0  0  0  0  0  0
  197.7630  168.7230  146.6180 C   0  0  0  0  0  2  0  0  0  0  0  0
  196.9190  168.8810  147.7930 N   0  0  0  0  0  2  0  0  0  0  0  0
  195.6750  168.1710  147.5390 C   0  0  0  0  0  2  0  0  0  0  0  0
  194.6050  169.0700  147.5610 O   0  0  0  0  0  1  0  0  0  0  0  0
  1  5  1  0  0  0  0
  2  8  1  6  0  0  0
  2  3  1  0  0  0  0
  4  1  1  0  0  0  0
  5 30  1  1  0  0  0
  5  3  1  0  0  0  0
  6  4  1  0  0  0  0
  6  2  1  0  0  0  0
  7 13  1  0  0  0  0
  8  7  2  0  0  0  0
 10 15  1  6  0  0  0
 10 12  1  0  0  0  0
 10 13  1  0  0  0  0
 11  9  1  1  0  0  0
 11 16  1  0  0  0  0
 11 18  1  0  0  0  0
 12 14  1  6  0  0  0
 12 11  1  0  0  0  0
 13 16  1  0  0  0  0
 16 26  1  1  0  0  0
 17 23  1  0  0  0  0
 17 21  1  0  0  0  0
 18 25  1  1  0  0  0
 20 19  1  1  0  0  0
 20 18  1  0  0  0  0
 20 22  1  0  0  0  0
 22 24  1  6  0  0  0
 22 17  1  0  0  0  0
 25 17  1  0  0  0  0
 26 27  1  0  0  0  0
 27 28  1  0  0  0  0
 29 28  1  0  0  0  0
 31 45  1  0  0  0  0
 31 30  1  0  0  0  0
 32 37  1  0  0  0  0
 33 46  1  0  0  0  0
 33 44  1  0  0  0  0
 34 36  1  0  0  0  0
 35 41  1  0  0  0  0
 35 36  1  0  0  0  0
 37 34  1  0  0  0  0
 38 32  1  1  0  0  0
 38 35  1  0  0  0  0
 39 41  2  0  0  0  0
 39 46  1  0  0  0  0
 40 42  1  0  0  0  0
 42 52  1  1  0  0  0
 43 38  1  0  0  0  0
 43 45  2  0  0  0  0
 44 42  1  0  0  0  0
 45 39  1  0  0  0  0
 46 40  1  0  0  0  0
 47 51  1  1  0  0  0
 47 43  1  0  0  0  0
 48 47  1  0  0  0  0
 49 48  1  0  0  0  0
 50 51  2  0  0  0  0
 52 53  1  0  0  0  0
 54 55  1  0  0  0  0
 54 53  1  0  0  0  0
M  END
>  <MODEL>
2

>  <REMARK>
 VINA RESULT:      -6.5      2.735     10.328
  Name = 
  15 active torsions:
  status: ('A' for Active; 'I' for Inactive)
    1  A    between atoms: O_2  and  C_28
    2  A    between atoms: O_2  and  C_44
    3  A    between atoms: O_3  and  C_38
    4  A    between atoms: O_3  and  C_46
    5  A    between atoms: C_4  and  C_19
    6  A    between atoms: C_6  and  C_20
    7  A    between atoms: C_10  and  N_18
    8  A    between atoms: C_11  and  C_38
    9  A    between atoms: N_18  and  C_32
   10  A    between atoms: C_19  and  C_40
   11  A    between atoms: C_19  and  C_45
   12  A    between atoms: C_27  and  C_54
   13  A    between atoms: C_28  and  C_49
   14  A    between atoms: C_32  and  C_39
   15  A    between atoms: N_35  and  C_51
                            x       y       z     vdW  Elec       q    Type
                         _______ _______ _______ _____ _____    ______ ____

>  <TORSDO>
F 15

$$$$
=
 OpenBabel11052419493D

 55 60  0  0  1  0  0  0  0  0999 V2000
  197.7860  175.5130  141.9610 C   0  0  0  0  0  2  0  0  0  0  0  0
  195.3260  176.2670  143.0840 C   0  0  2  0  0  3  0  0  0  0  0  0
  195.2980  175.7340  141.6420 C   0  0  0  0  0  2  0  0  0  0  0  0
  197.6040  175.6880  143.4800 C   0  0  0  0  0  2  0  0  0  0  0  0
  196.5450  174.9100  141.3090 C   0  0  1  0  0  3  0  0  0  0  0  0
  196.2200  175.4670  143.9160 N   0  0  0  0  0  2  0  0  0  0  0  0
  193.5940  175.3360  144.5590 C   0  0  0  0  0  3  0  0  0  0  0  0
  193.9590  176.2590  143.6750 C   0  0  0  0  0  3  0  0  0  0  0  0
  189.4510  173.7370  145.5280 O   0  0  0  0  0  1  0  0  0  0  0  0
  192.0570  175.4390  146.5550 C   0  0  1  0  0  3  0  0  0  0  0  0
  189.9190  175.0530  145.4060 C   0  0  1  0  0  0  0  0  0  0  0  0
  190.5520  175.5070  146.7320 C   0  0  1  0  0  3  0  0  0  0  0  0
  192.2770  175.3070  145.1260 N   0  0  0  0  0  0  0  0  0  0  0  0
  190.1530  174.7170  147.8140 O   0  0  0  0  0  1  0  0  0  0  0  0
  192.6670  176.7300  147.0730 C   0  0  0  0  0  1  0  0  0  0  0  0
  191.0500  175.1200  144.3620 C   0  0  1  0  0  3  0  0  0  0  0  0
  187.4620  176.7590  143.3410 C   0  0  0  0  0  0  0  0  0  0  0  0
  188.7300  175.9650  145.0340 C   0  0  1  0  0  3  0  0  0  0  0  0
  190.2060  177.9760  144.4940 C   0  0  0  0  0  1  0  0  0  0  0  0
  188.9060  177.4780  145.1110 C   0  0  1  0  0  3  0  0  0  0  0  0
  185.9740  176.4410  143.2470 C   0  0  0  0  0  1  0  0  0  0  0  0
  187.7680  177.9530  144.2600 C   0  0  2  0  0  3  0  0  0  0  0  0
  187.9560  177.0900  141.9450 C   0  0  0  0  0  1  0  0  0  0  0  0
  186.6860  178.2770  145.0880 O   0  0  0  0  0  1  0  0  0  0  0  0
  188.1510  175.6170  143.8020 O   0  0  0  0  0  0  0  0  0  0  0  0
  191.1300  173.9430  143.6020 O   0  0  0  0  0  0  0  0  0  0  0  0
  190.6880  174.2920  142.3210 C   0  0  0  0  0  2  0  0  0  0  0  0
  191.8700  174.4510  141.3830 C   0  0  0  0  0  2  0  0  0  0  0  0
  191.7480  173.5830  140.3140 F   0  0  0  0  0  0  0  0  0  0  0  0
  196.7240  174.8420  139.9260 O   0  0  0  0  0  0  0  0  0  0  0  0
  197.2850  173.5830  139.6920 C   0  0  0  0  0  2  0  0  0  0  0  0
  193.8860  169.9070  139.7500 C   0  0  0  0  0  2  0  0  0  0  0  0
  197.8210  174.4330  136.9180 C   0  0  0  0  0  2  0  0  0  0  0  0
  191.8970  170.4830  138.6900 C   0  0  0  0  0  2  0  0  0  0  0  0
  193.9500  171.6630  137.9480 N   0  0  0  0  0  0  0  0  0  0  0  0
  192.4990  171.5490  137.7820 C   0  0  0  0  0  2  0  0  0  0  0  0
  192.5740  170.4960  139.9760 N   0  0  0  0  0  2  0  0  0  0  0  0
  194.7460  170.7950  138.8340 C   0  0  1  0  0  3  0  0  0  0  0  0
  195.7390  173.1720  137.6690 C   0  0  0  0  0  0  0  0  0  0  0  0
  195.7050  174.9500  136.0090 O   0  0  0  0  0  0  0  0  0  0  0  0
  194.6090  172.6860  137.2500 N   0  0  0  0  0  0  0  0  0  0  0  0
  196.4880  176.1140  135.9310 C   0  0  1  0  0  3  0  0  0  0  0  0
  195.7930  171.6000  139.5710 C   0  0  0  0  0  0  0  0  0  0  0  0
  197.9410  175.7150  136.1510 C   0  0  0  0  0  2  0  0  0  0  0  0
  196.2930  172.7130  138.9800 C   0  0  0  0  0  0  0  0  0  0  0  0
  196.4020  174.1580  136.8600 N   0  0  0  0  0  0  0  0  0  0  0  0
  196.3500  171.0190  140.8550 C   0  0  2  0  0  3  0  0  0  0  0  0
  196.0190  171.7640  142.1520 C   0  0  0  0  0  2  0  0  0  0  0  0
  197.1620  171.7860  143.1520 C   0  0  0  0  0  1  0  0  0  0  0  0
  197.8770  169.3890  140.0370 O   0  0  0  0  0  0  0  0  0  0  0  0
  197.6980  170.3630  140.7550 C   0  0  0  0  0  3  0  0  0  0  0  0
  196.3130  176.7670  134.5700 C   0  0  0  0  0  2  0  0  0  0  0  0
  196.0760  178.1950  134.7250 N   0  0  0  0  0  2  0  0  0  0  0  0
  194.6370  178.4080  134.6940 C   0  0  0  0  0  2  0  0  0  0  0  0
  194.3400  179.6940  135.1520 O   0  0  0  0  0  1  0  0  0  0  0  0
  1  4  1  0  0  0  0
  2  8  1  1  0  0  0
  2  6  1  0  0  0  0
  3  2  1  0  0  0  0
  4  6  1  0  0  0  0
  5 30  1  6  0  0  0
  5  3  1  0  0  0  0
  5  1  1  0  0  0  0
  7 13  1  0  0  0  0
  8  7  2  0  0  0  0
 10 12  1  0  0  0  0
 10 15  1  6  0  0  0
 11  9  1  1  0  0  0
 11 12  1  0  0  0  0
 12 14  1  1  0  0  0
 13 10  1  0  0  0  0
 16 26  1  1  0  0  0
 16 13  1  0  0  0  0
 16 11  1  0  0  0  0
 17 25  1  0  0  0  0
 17 22  1  0  0  0  0
 18 25  1  6  0  0  0
 18 20  1  0  0  0  0
 18 11  1  0  0  0  0
 20 19  1  6  0  0  0
 21 17  1  0  0  0  0
 22 24  1  1  0  0  0
 22 20  1  0  0  0  0
 23 17  1  0  0  0  0
 27 26  1  0  0  0  0
 28 27  1  0  0  0  0
 29 28  1  0  0  0  0
 31 30  1  0  0  0  0
 32 37  1  0  0  0  0
 34 37  1  0  0  0  0
 35 38  1  0  0  0  0
 36 35  1  0  0  0  0
 36 34  1  0  0  0  0
 38 43  1  0  0  0  0
 38 32  1  1  0  0  0
 39 45  1  0  0  0  0
 40 46  1  0  0  0  0
 41 39  2  0  0  0  0
 41 35  1  0  0  0  0
 42 52  1  6  0  0  0
 42 40  1  0  0  0  0
 42 44  1  0  0  0  0
 43 47  1  0  0  0  0
 44 33  1  0  0  0  0
 45 43  2  0  0  0  0
 45 31  1  0  0  0  0
 46 33  1  0  0  0  0
 46 39  1  0  0  0  0
 47 51  1  6  0  0  0
 47 48  1  0  0  0  0
 48 49  1  0  0  0  0
 50 51  2  0  0  0  0
 52 53  1  0  0  0  0
 54 53  1  0  0  0  0
 54 55  1  0  0  0  0
M  END
>  <MODEL>
3

>  <REMARK>
 VINA RESULT:      -6.1      3.218      9.365
  Name = 
  15 active torsions:
  status: ('A' for Active; 'I' for Inactive)
    1  A    between atoms: O_2  and  C_28
    2  A    between atoms: O_2  and  C_44
    3  A    between atoms: O_3  and  C_38
    4  A    between atoms: O_3  and  C_46
    5  A    between atoms: C_4  and  C_19
    6  A    between atoms: C_6  and  C_20
    7  A    between atoms: C_10  and  N_18
    8  A    between atoms: C_11  and  C_38
    9  A    between atoms: N_18  and  C_32
   10  A    between atoms: C_19  and  C_40
   11  A    between atoms: C_19  and  C_45
   12  A    between atoms: C_27  and  C_54
   13  A    between atoms: C_28  and  C_49
   14  A    between atoms: C_32  and  C_39
   15  A    between atoms: N_35  and  C_51
                            x       y       z     vdW  Elec       q    Type
                         _______ _______ _______ _____ _____    ______ ____

>  <TORSDO>
F 15

$$$$
=
 OpenBabel11052419493D

 55 60  0  0  1  0  0  0  0  0999 V2000
  192.4800  169.6020  140.9790 C   0  0  0  0  0  2  0  0  0  0  0  0
  191.2210  171.5960  142.5000 C   0  0  2  0  0  3  0  0  0  0  0  0
  192.2770  172.0610  141.4830 C   0  0  0  0  0  2  0  0  0  0  0  0
  191.1630  169.3410  141.7340 C   0  0  0  0  0  2  0  0  0  0  0  0
  192.5280  171.0110  140.3960 C   0  0  1  0  0  3  0  0  0  0  0  0
  190.3690  170.5590  141.9270 N   0  0  0  0  0  2  0  0  0  0  0  0
  190.6100  173.9770  142.5100 C   0  0  0  0  0  3  0  0  0  0  0  0
  190.3790  172.7420  142.9440 C   0  0  0  0  0  3  0  0  0  0  0  0
  189.6360  177.9530  144.4890 O   0  0  0  0  0  1  0  0  0  0  0  0
  189.0640  175.9020  141.9960 C   0  0  1  0  0  3  0  0  0  0  0  0
  188.8380  176.8210  144.2640 C   0  0  1  0  0  0  0  0  0  0  0  0
  188.2560  176.8680  142.8420 C   0  0  1  0  0  3  0  0  0  0  0  0
  189.8160  175.0930  142.9390 N   0  0  0  0  0  0  0  0  0  0  0  0
  188.2960  178.1500  142.2880 O   0  0  0  0  0  1  0  0  0  0  0  0
  188.1070  175.0380  141.1940 C   0  0  0  0  0  1  0  0  0  0  0  0
  189.6990  175.5450  144.3190 C   0  0  1  0  0  3  0  0  0  0  0  0
  186.0490  178.0040  146.2730 C   0  0  0  0  0  0  0  0  0  0  0  0
  187.7050  176.8040  145.3130 C   0  0  1  0  0  3  0  0  0  0  0  0
  189.1400  177.8460  147.1470 C   0  0  0  0  0  1  0  0  0  0  0  0
  188.0680  176.8250  146.7940 C   0  0  1  0  0  3  0  0  0  0  0  0
  184.5870  177.5960  146.1310 C   0  0  0  0  0  1  0  0  0  0  0  0
  186.7750  177.2650  147.4090 C   0  0  2  0  0  3  0  0  0  0  0  0
  186.0910  179.4920  146.5660 C   0  0  0  0  0  1  0  0  0  0  0  0
  186.0700  176.1360  147.8440 O   0  0  0  0  0  1  0  0  0  0  0  0
  186.7170  177.7680  145.0520 O   0  0  0  0  0  0  0  0  0  0  0  0
  190.9720  175.7950  144.8540 O   0  0  0  0  0  0  0  0  0  0  0  0
  191.1060  174.9120  145.9310 C   0  0  0  0  0  2  0  0  0  0  0  0
  191.9310  175.5510  147.0330 C   0  0  0  0  0  2  0  0  0  0  0  0
  191.5630  175.0340  148.2620 F   0  0  0  0  0  0  0  0  0  0  0  0
  193.7660  171.2300  139.7900 O   0  0  0  0  0  0  0  0  0  0  0  0
  193.6930  170.5700  138.5600 C   0  0  0  0  0  2  0  0  0  0  0  0
  190.3320  172.0180  135.1430 C   0  0  0  0  0  2  0  0  0  0  0  0
  196.1110  172.2510  138.3880 C   0  0  0  0  0  2  0  0  0  0  0  0
  189.7590  174.2660  135.3170 C   0  0  0  0  0  2  0  0  0  0  0  0
  191.9980  173.6060  136.1590 N   0  0  0  0  0  0  0  0  0  0  0  0
  191.0480  174.7090  135.9980 C   0  0  0  0  0  2  0  0  0  0  0  0
  189.3970  172.9360  135.7760 N   0  0  0  0  0  2  0  0  0  0  0  0
  191.7660  172.2420  135.6530 C   0  0  1  0  0  3  0  0  0  0  0  0
  193.8250  172.9050  137.4730 C   0  0  0  0  0  0  0  0  0  0  0  0
  195.3350  174.4720  138.5600 O   0  0  0  0  0  0  0  0  0  0  0  0
  193.1790  173.8590  136.8740 N   0  0  0  0  0  0  0  0  0  0  0  0
  196.2300  174.2600  139.6220 C   0  0  1  0  0  3  0  0  0  0  0  0
  192.2230  171.2110  136.6630 C   0  0  0  0  0  0  0  0  0  0  0  0
  197.0180  172.9920  139.3220 C   0  0  0  0  0  2  0  0  0  0  0  0
  193.2430  171.5280  137.4990 C   0  0  0  0  0  0  0  0  0  0  0  0
  195.0730  173.2190  138.1130 N   0  0  0  0  0  0  0  0  0  0  0  0
  191.6290  169.8210  136.5640 C   0  0  2  0  0  3  0  0  0  0  0  0
  190.8110  169.3320  137.7640 C   0  0  0  0  0  2  0  0  0  0  0  0
  189.6870  170.2730  138.1620 C   0  0  0  0  0  1  0  0  0  0  0  0
  192.8120  169.0050  134.6700 O   0  0  0  0  0  0  0  0  0  0  0  0
  192.4450  168.8040  135.8190 C   0  0  0  0  0  3  0  0  0  0  0  0
  197.1630  175.4510  139.7600 C   0  0  0  0  0  2  0  0  0  0  0  0
  197.5210  175.6500  141.1570 N   0  0  0  0  0  2  0  0  0  0  0  0
  196.4690  176.4460  141.7710 C   0  0  0  0  0  2  0  0  0  0  0  0
  196.9080  176.9390  143.0030 O   0  0  0  0  0  1  0  0  0  0  0  0
  1  4  1  0  0  0  0
  2  8  1  6  0  0  0
  3  2  1  0  0  0  0
  4  6  1  0  0  0  0
  5 30  1  1  0  0  0
  5  1  1  0  0  0  0
  5  3  1  0  0  0  0
  6  2  1  0  0  0  0
  7 13  1  0  0  0  0
  7  8  2  0  0  0  0
 10 15  1  1  0  0  0
 10 12  1  0  0  0  0
 10 13  1  0  0  0  0
 11 16  1  0  0  0  0
 11  9  1  1  0  0  0
 11 18  1  0  0  0  0
 12 14  1  6  0  0  0
 12 11  1  0  0  0  0
 13 16  1  0  0  0  0
 16 26  1  6  0  0  0
 17 23  1  0  0  0  0
 17 22  1  0  0  0  0
 18 25  1  6  0  0  0
 18 20  1  0  0  0  0
 20 19  1  6  0  0  0
 20 22  1  0  0  0  0
 21 17  1  0  0  0  0
 22 24  1  6  0  0  0
 25 17  1  0  0  0  0
 26 27  1  0  0  0  0
 27 28  1  0  0  0  0
 28 29  1  0  0  0  0
 31 30  1  0  0  0  0
 32 37  1  0  0  0  0
 33 44  1  0  0  0  0
 34 37  1  0  0  0  0
 34 36  1  0  0  0  0
 35 41  1  0  0  0  0
 36 35  1  0  0  0  0
 38 32  1  1  0  0  0
 38 35  1  0  0  0  0
 38 43  1  0  0  0  0
 39 45  1  0  0  0  0
 39 46  1  0  0  0  0
 40 42  1  0  0  0  0
 41 39  2  0  0  0  0
 42 52  1  6  0  0  0
 43 45  2  0  0  0  0
 44 42  1  0  0  0  0
 45 31  1  0  0  0  0
 46 33  1  0  0  0  0
 46 40  1  0  0  0  0
 47 51  1  1  0  0  0
 47 43  1  0  0  0  0
 47 48  1  0  0  0  0
 48 49  1  0  0  0  0
 50 51  2  0  0  0  0
 52 53  1  0  0  0  0
 53 54  1  0  0  0  0
 54 55  1  0  0  0  0
M  END
>  <MODEL>
4

>  <REMARK>
 VINA RESULT:      -6.0      3.130      9.726
  Name = 
  15 active torsions:
  status: ('A' for Active; 'I' for Inactive)
    1  A    between atoms: O_2  and  C_28
    2  A    between atoms: O_2  and  C_44
    3  A    between atoms: O_3  and  C_38
    4  A    between atoms: O_3  and  C_46
    5  A    between atoms: C_4  and  C_19
    6  A    between atoms: C_6  and  C_20
    7  A    between atoms: C_10  and  N_18
    8  A    between atoms: C_11  and  C_38
    9  A    between atoms: N_18  and  C_32
   10  A    between atoms: C_19  and  C_40
   11  A    between atoms: C_19  and  C_45
   12  A    between atoms: C_27  and  C_54
   13  A    between atoms: C_28  and  C_49
   14  A    between atoms: C_32  and  C_39
   15  A    between atoms: N_35  and  C_51
                            x       y       z     vdW  Elec       q    Type
                         _______ _______ _______ _____ _____    ______ ____

>  <TORSDO>
F 15

$$$$
=
 OpenBabel11052419493D

 55 60  0  0  1  0  0  0  0  0999 V2000
  196.7640  175.7650  142.6270 C   0  0  0  0  0  2  0  0  0  0  0  0
  194.3410  176.7040  143.6880 C   0  0  2  0  0  3  0  0  0  0  0  0
  194.3010  176.1390  142.2580 C   0  0  0  0  0  2  0  0  0  0  0  0
  196.5680  175.9880  144.1380 C   0  0  0  0  0  2  0  0  0  0  0  0
  195.4980  175.2280  141.9660 C   0  0  1  0  0  3  0  0  0  0  0  0
  195.1670  175.8670  144.5530 N   0  0  0  0  0  2  0  0  0  0  0  0
  192.3570  175.7350  144.7690 C   0  0  0  0  0  3  0  0  0  0  0  0
  192.9660  176.7980  144.2540 C   0  0  0  0  0  3  0  0  0  0  0  0
  187.9030  174.9020  145.1370 O   0  0  0  0  0  1  0  0  0  0  0  0
  190.7400  175.4530  146.6830 C   0  0  1  0  0  3  0  0  0  0  0  0
  188.6590  176.0240  145.5070 C   0  0  1  0  0  0  0  0  0  0  0  0
  189.2780  175.8000  146.8960 C   0  0  1  0  0  3  0  0  0  0  0  0
  191.0280  175.8070  145.3040 N   0  0  0  0  0  0  0  0  0  0  0  0
  188.6380  174.7840  147.6110 O   0  0  0  0  0  1  0  0  0  0  0  0
  191.5820  176.2850  147.6350 C   0  0  0  0  0  1  0  0  0  0  0  0
  189.8490  176.2040  144.5460 C   0  0  1  0  0  3  0  0  0  0  0  0
  185.8430  178.1480  146.3850 C   0  0  0  0  0  0  0  0  0  0  0  0
  187.7320  177.2580  145.5210 C   0  0  1  0  0  3  0  0  0  0  0  0
  186.1440  176.3120  143.7620 C   0  0  0  0  0  1  0  0  0  0  0  0
  186.8600  177.5420  144.3030 C   0  0  1  0  0  3  0  0  0  0  0  0
  185.8810  179.3940  147.2630 C   0  0  0  0  0  1  0  0  0  0  0  0
  185.8340  178.4690  144.8810 C   0  0  2  0  0  3  0  0  0  0  0  0
  184.5760  177.3820  146.7190 C   0  0  0  0  0  1  0  0  0  0  0  0
  186.2150  179.7900  144.6180 O   0  0  0  0  0  1  0  0  0  0  0  0
  186.9540  177.3330  146.6890 O   0  0  0  0  0  0  0  0  0  0  0  0
  189.7210  175.4040  143.4000 O   0  0  0  0  0  0  0  0  0  0  0  0
  189.3120  176.2700  142.3810 C   0  0  0  0  0  2  0  0  0  0  0  0
  190.0220  177.6050  142.5100 C   0  0  0  0  0  2  0  0  0  0  0  0
  189.2490  178.6090  141.9580 F   0  0  0  0  0  0  0  0  0  0  0  0
  195.6940  175.1170  140.5890 O   0  0  0  0  0  0  0  0  0  0  0  0
  195.7400  173.7420  140.3370 C   0  0  0  0  0  2  0  0  0  0  0  0
  191.0840  171.9020  140.4020 C   0  0  0  0  0  2  0  0  0  0  0  0
  196.6890  174.0190  137.5570 C   0  0  0  0  0  2  0  0  0  0  0  0
  189.5800  173.1730  139.1640 C   0  0  0  0  0  2  0  0  0  0  0  0
  191.9660  173.2840  138.4930 N   0  0  0  0  0  0  0  0  0  0  0  0
  190.6160  173.7890  138.2320 C   0  0  0  0  0  2  0  0  0  0  0  0
  190.1500  173.0140  140.4910 N   0  0  0  0  0  2  0  0  0  0  0  0
  192.2750  172.2450  139.4910 C   0  0  1  0  0  3  0  0  0  0  0  0
  194.2410  173.8480  138.2410 C   0  0  0  0  0  0  0  0  0  0  0  0
  195.0390  175.3050  136.4650 O   0  0  0  0  0  0  0  0  0  0  0  0
  193.0270  173.8570  137.7760 N   0  0  0  0  0  0  0  0  0  0  0  0
  196.2520  176.0090  136.3640 C   0  0  1  0  0  3  0  0  0  0  0  0
  193.5420  172.5890  140.2450 C   0  0  0  0  0  0  0  0  0  0  0  0
  197.3800  175.0480  136.7150 C   0  0  0  0  0  2  0  0  0  0  0  0
  194.4950  173.3190  139.6160 C   0  0  0  0  0  0  0  0  0  0  0  0
  195.2940  174.3740  137.4160 N   0  0  0  0  0  0  0  0  0  0  0  0
  193.7460  171.9470  141.6020 C   0  0  2  0  0  3  0  0  0  0  0  0
  193.8340  170.4180  141.6370 C   0  0  0  0  0  2  0  0  0  0  0  0
  195.1080  169.8640  141.0220 C   0  0  0  0  0  1  0  0  0  0  0  0
  192.4780  171.9930  143.6140 O   0  0  0  0  0  0  0  0  0  0  0  0
  193.0850  172.6310  142.7650 C   0  0  0  0  0  3  0  0  0  0  0  0
  196.4250  176.5450  134.9520 C   0  0  0  0  0  2  0  0  0  0  0  0
  195.2840  177.3700  134.5840 N   0  0  0  0  0  2  0  0  0  0  0  0
  195.6410  178.7560  134.8420 C   0  0  0  0  0  2  0  0  0  0  0  0
  194.4840  179.5160  135.0280 O   0  0  0  0  0  1  0  0  0  0  0  0
  1  4  1  0  0  0  0
  2  8  1  1  0  0  0
  2  6  1  0  0  0  0
  3  2  1  0  0  0  0
  4  6  1  0  0  0  0
  5 30  1  6  0  0  0
  5  3  1  0  0  0  0
  5  1  1  0  0  0  0
  7 13  1  0  0  0  0
  8  7  2  0  0  0  0
 10 12  1  0  0  0  0
 10 15  1  1  0  0  0
 11  9  1  6  0  0  0
 11 18  1  0  0  0  0
 11 12  1  0  0  0  0
 12 14  1  6  0  0  0
 13 10  1  0  0  0  0
 16 26  1  6  0  0  0
 16 13  1  0  0  0  0
 16 11  1  0  0  0  0
 17 25  1  0  0  0  0
 17 23  1  0  0  0  0
 17 21  1  0  0  0  0
 18 25  1  1  0  0  0
 20 19  1  1  0  0  0
 20 22  1  0  0  0  0
 20 18  1  0  0  0  0
 22 24  1  1  0  0  0
 22 17  1  0  0  0  0
 27 28  1  0  0  0  0
 27 26  1  0  0  0  0
 29 28  1  0  0  0  0
 31 30  1  0  0  0  0
 32 37  1  0  0  0  0
 34 37  1  0  0  0  0
 35 38  1  0  0  0  0
 36 35  1  0  0  0  0
 36 34  1  0  0  0  0
 38 43  1  0  0  0  0
 38 32  1  1  0  0  0
 39 45  1  0  0  0  0
 40 46  1  0  0  0  0
 41 39  2  0  0  0  0
 41 35  1  0  0  0  0
 42 52  1  6  0  0  0
 42 40  1  0  0  0  0
 42 44  1  0  0  0  0
 43 47  1  0  0  0  0
 44 33  1  0  0  0  0
 45 43  2  0  0  0  0
 45 31  1  0  0  0  0
 46 33  1  0  0  0  0
 46 39  1  0  0  0  0
 47 48  1  6  0  0  0
 47 51  1  0  0  0  0
 49 48  1  0  0  0  0
 51 50  2  0  0  0  0
 53 54  1  0  0  0  0
 53 52  1  0  0  0  0
 54 55  1  0  0  0  0
M  END
>  <MODEL>
5

>  <REMARK>
 VINA RESULT:      -5.9      3.066      8.957
  Name = 
  15 active torsions:
  status: ('A' for Active; 'I' for Inactive)
    1  A    between atoms: O_2  and  C_28
    2  A    between atoms: O_2  and  C_44
    3  A    between atoms: O_3  and  C_38
    4  A    between atoms: O_3  and  C_46
    5  A    between atoms: C_4  and  C_19
    6  A    between atoms: C_6  and  C_20
    7  A    between atoms: C_10  and  N_18
    8  A    between atoms: C_11  and  C_38
    9  A    between atoms: N_18  and  C_32
   10  A    between atoms: C_19  and  C_40
   11  A    between atoms: C_19  and  C_45
   12  A    between atoms: C_27  and  C_54
   13  A    between atoms: C_28  and  C_49
   14  A    between atoms: C_32  and  C_39
   15  A    between atoms: N_35  and  C_51
                            x       y       z     vdW  Elec       q    Type
                         _______ _______ _______ _____ _____    ______ ____

>  <TORSDO>
F 15

$$$$
=
 OpenBabel11052419493D

 55 60  0  0  1  0  0  0  0  0999 V2000
  192.2440  170.1850  140.5050 C   0  0  0  0  0  2  0  0  0  0  0  0
  191.1310  172.1740  142.1430 C   0  0  2  0  0  3  0  0  0  0  0  0
  191.8100  172.6420  140.8450 C   0  0  0  0  0  2  0  0  0  0  0  0
  191.2180  169.8540  141.6040 C   0  0  0  0  0  2  0  0  0  0  0  0
  191.9300  171.5110  139.8180 C   0  0  1  0  0  3  0  0  0  0  0  0
  190.3260  170.9790  141.9050 N   0  0  0  0  0  2  0  0  0  0  0  0
  190.3660  174.5060  142.2740 C   0  0  0  0  0  3  0  0  0  0  0  0
  190.2680  173.2510  142.7020 C   0  0  0  0  0  3  0  0  0  0  0  0
  189.3350  178.2960  144.5630 O   0  0  0  0  0  1  0  0  0  0  0  0
  188.7260  176.3960  141.9630 C   0  0  1  0  0  3  0  0  0  0  0  0
  188.5710  177.1510  144.2960 C   0  0  1  0  0  0  0  0  0  0  0  0
  187.9220  177.2690  142.9080 C   0  0  1  0  0  3  0  0  0  0  0  0
  189.5510  175.5570  142.8130 N   0  0  0  0  0  0  0  0  0  0  0  0
  187.8880  178.5860  142.4420 O   0  0  0  0  0  1  0  0  0  0  0  0
  187.7660  175.5490  141.1460 C   0  0  0  0  0  1  0  0  0  0  0  0
  189.4810  175.9100  144.2260 C   0  0  1  0  0  3  0  0  0  0  0  0
  185.8900  178.1030  146.5580 C   0  0  0  0  0  0  0  0  0  0  0  0
  187.4900  177.0160  145.3900 C   0  0  1  0  0  3  0  0  0  0  0  0
  189.0180  177.8410  147.2590 C   0  0  0  0  0  1  0  0  0  0  0  0
  187.9220  176.8680  146.8440 C   0  0  1  0  0  3  0  0  0  0  0  0
  184.4200  177.7170  146.4420 C   0  0  0  0  0  1  0  0  0  0  0  0
  186.6640  177.2390  147.5680 C   0  0  2  0  0  3  0  0  0  0  0  0
  185.9560  179.5490  147.0160 C   0  0  0  0  0  1  0  0  0  0  0  0
  185.9720  176.0690  147.9050 O   0  0  0  0  0  1  0  0  0  0  0  0
  186.4970  178.0060  145.2880 O   0  0  0  0  0  0  0  0  0  0  0  0
  190.7670  176.1750  144.7210 O   0  0  0  0  0  0  0  0  0  0  0  0
  190.9360  175.3110  145.8080 C   0  0  0  0  0  2  0  0  0  0  0  0
  192.0660  175.7990  146.6960 C   0  0  0  0  0  2  0  0  0  0  0  0
  192.2900  174.8970  147.7180 F   0  0  0  0  0  0  0  0  0  0  0  0
  192.9260  171.8080  138.8870 O   0  0  0  0  0  0  0  0  0  0  0  0
  194.0650  171.1370  139.3430 C   0  0  0  0  0  2  0  0  0  0  0  0
  197.2440  172.9990  135.9520 C   0  0  0  0  0  2  0  0  0  0  0  0
  195.0750  171.6360  142.0700 C   0  0  0  0  0  2  0  0  0  0  0  0
  197.6720  175.2660  136.2460 C   0  0  0  0  0  2  0  0  0  0  0  0
  196.9980  173.9780  138.2570 N   0  0  0  0  0  0  0  0  0  0  0  0
  197.3450  175.3020  137.7340 C   0  0  0  0  0  2  0  0  0  0  0  0
  196.7880  174.3280  135.5750 N   0  0  0  0  0  2  0  0  0  0  0  0
  197.0340  172.7430  137.4550 C   0  0  1  0  0  3  0  0  0  0  0  0
  195.8090  172.9210  139.9970 C   0  0  0  0  0  0  0  0  0  0  0  0
  195.4680  173.9610  142.1690 O   0  0  0  0  0  0  0  0  0  0  0  0
  196.5680  173.8950  139.5900 N   0  0  0  0  0  0  0  0  0  0  0  0
  194.5300  173.6540  143.1690 C   0  0  1  0  0  3  0  0  0  0  0  0
  195.8370  171.8690  137.7640 C   0  0  0  0  0  0  0  0  0  0  0  0
  194.5450  172.1450  143.3760 C   0  0  0  0  0  2  0  0  0  0  0  0
  195.2890  171.9330  139.0030 C   0  0  0  0  0  0  0  0  0  0  0  0
  195.4770  172.8490  141.3930 N   0  0  0  0  0  0  0  0  0  0  0  0
  195.4290  170.8450  136.7250 C   0  0  2  0  0  3  0  0  0  0  0  0
  196.5360  169.9380  136.1770 C   0  0  0  0  0  2  0  0  0  0  0  0
  197.0630  168.9370  137.1900 C   0  0  0  0  0  1  0  0  0  0  0  0
  193.9290  172.4110  135.7510 O   0  0  0  0  0  0  0  0  0  0  0  0
  194.3390  171.2600  135.7790 C   0  0  0  0  0  3  0  0  0  0  0  0
  194.8890  174.3750  144.4580 C   0  0  0  0  0  2  0  0  0  0  0  0
  195.4040  173.4280  145.4370 N   0  0  0  0  0  2  0  0  0  0  0  0
  196.7400  173.8650  145.8110 C   0  0  0  0  0  2  0  0  0  0  0  0
  197.6480  173.5200  144.8080 O   0  0  0  0  0  1  0  0  0  0  0  0
  1  4  1  0  0  0  0
  2  8  1  6  0  0  0
  3  2  1  0  0  0  0
  4  6  1  0  0  0  0
  5 30  1  6  0  0  0
  5  1  1  0  0  0  0
  5  3  1  0  0  0  0
  6  2  1  0  0  0  0
  7  8  2  0  0  0  0
  7 13  1  0  0  0  0
 10 15  1  1  0  0  0
 10 13  1  0  0  0  0
 10 12  1  0  0  0  0
 11  9  1  1  0  0  0
 11 18  1  0  0  0  0
 12 14  1  6  0  0  0
 12 11  1  0  0  0  0
 13 16  1  0  0  0  0
 16 11  1  0  0  0  0
 16 26  1  6  0  0  0
 17 23  1  0  0  0  0
 17 22  1  0  0  0  0
 18 25  1  1  0  0  0
 18 20  1  0  0  0  0
 20 19  1  1  0  0  0
 20 22  1  0  0  0  0
 21 17  1  0  0  0  0
 22 24  1  6  0  0  0
 25 17  1  0  0  0  0
 26 27  1  0  0  0  0
 27 28  1  0  0  0  0
 28 29  1  0  0  0  0
 30 31  1  0  0  0  0
 33 44  1  0  0  0  0
 34 36  1  0  0  0  0
 35 41  1  0  0  0  0
 36 35  1  0  0  0  0
 37 32  1  0  0  0  0
 37 34  1  0  0  0  0
 38 32  1  6  0  0  0
 38 43  1  0  0  0  0
 38 35  1  0  0  0  0
 39 46  1  0  0  0  0
 40 42  1  0  0  0  0
 41 39  2  0  0  0  0
 42 44  1  0  0  0  0
 42 52  1  1  0  0  0
 43 45  2  0  0  0  0
 45 31  1  0  0  0  0
 45 39  1  0  0  0  0
 46 33  1  0  0  0  0
 46 40  1  0  0  0  0
 47 51  1  6  0  0  0
 47 43  1  0  0  0  0
 48 47  1  0  0  0  0
 48 49  1  0  0  0  0
 50 51  2  0  0  0  0
 52 53  1  0  0  0  0
 53 54  1  0  0  0  0
 55 54  1  0  0  0  0
M  END
>  <MODEL>
6

>  <REMARK>
 VINA RESULT:      -5.8      2.789     10.503
  Name = 
  15 active torsions:
  status: ('A' for Active; 'I' for Inactive)
    1  A    between atoms: O_2  and  C_28
    2  A    between atoms: O_2  and  C_44
    3  A    between atoms: O_3  and  C_38
    4  A    between atoms: O_3  and  C_46
    5  A    between atoms: C_4  and  C_19
    6  A    between atoms: C_6  and  C_20
    7  A    between atoms: C_10  and  N_18
    8  A    between atoms: C_11  and  C_38
    9  A    between atoms: N_18  and  C_32
   10  A    between atoms: C_19  and  C_40
   11  A    between atoms: C_19  and  C_45
   12  A    between atoms: C_27  and  C_54
   13  A    between atoms: C_28  and  C_49
   14  A    between atoms: C_32  and  C_39
   15  A    between atoms: N_35  and  C_51
                            x       y       z     vdW  Elec       q    Type
                         _______ _______ _______ _____ _____    ______ ____

>  <TORSDO>
F 15

$$$$
=
 OpenBabel11052419493D

 55 60  0  0  1  0  0  0  0  0999 V2000
  195.3070  170.8660  141.0840 C   0  0  0  0  0  2  0  0  0  0  0  0
  193.9930  172.6690  142.7870 C   0  0  2  0  0  3  0  0  0  0  0  0
  193.1740  172.0940  141.6190 C   0  0  0  0  0  2  0  0  0  0  0  0
  195.8530  171.2120  142.4820 C   0  0  0  0  0  2  0  0  0  0  0  0
  193.7830  170.7980  141.0740 C   0  0  1  0  0  3  0  0  0  0  0  0
  194.8010  171.6280  143.4160 N   0  0  0  0  0  2  0  0  0  0  0  0
  192.4970  174.4490  143.5850 C   0  0  0  0  0  3  0  0  0  0  0  0
  193.0950  173.2830  143.8050 C   0  0  0  0  0  3  0  0  0  0  0  0
  189.4110  174.7250  146.9110 O   0  0  0  0  0  1  0  0  0  0  0  0
  192.1670  175.9230  145.6040 C   0  0  1  0  0  3  0  0  0  0  0  0
  189.7440  175.6300  145.8940 C   0  0  1  0  0  0  0  0  0  0  0  0
  190.9530  176.4770  146.3250 C   0  0  1  0  0  3  0  0  0  0  0  0
  191.6420  175.0600  144.5610 N   0  0  0  0  0  0  0  0  0  0  0  0
  191.1570  176.4550  147.7070 O   0  0  0  0  0  1  0  0  0  0  0  0
  192.9440  177.0800  144.9990 C   0  0  0  0  0  1  0  0  0  0  0  0
  190.1990  174.8700  144.6330 C   0  0  1  0  0  3  0  0  0  0  0  0
  186.5710  176.7190  144.4950 C   0  0  0  0  0  0  0  0  0  0  0  0
  188.5220  176.5320  145.6190 C   0  0  1  0  0  3  0  0  0  0  0  0
  189.5150  177.5410  143.4960 C   0  0  0  0  0  1  0  0  0  0  0  0
  188.7010  177.7800  144.7610 C   0  0  1  0  0  3  0  0  0  0  0  0
  185.2380  176.8150  145.2290 C   0  0  0  0  0  1  0  0  0  0  0  0
  187.2870  178.0730  144.3640 C   0  0  2  0  0  3  0  0  0  0  0  0
  186.2970  176.1840  143.1020 C   0  0  0  0  0  1  0  0  0  0  0  0
  186.7610  179.0380  145.2320 O   0  0  0  0  0  1  0  0  0  0  0  0
  187.4070  175.8050  145.1710 O   0  0  0  0  0  0  0  0  0  0  0  0
  189.8960  173.5020  144.7100 O   0  0  0  0  0  0  0  0  0  0  0  0
  189.2590  173.1900  143.5050 C   0  0  0  0  0  2  0  0  0  0  0  0
  189.6700  171.8060  143.0360 C   0  0  0  0  0  2  0  0  0  0  0  0
  189.5700  171.7210  141.6600 F   0  0  0  0  0  0  0  0  0  0  0  0
  193.3290  170.5600  139.7760 O   0  0  0  0  0  0  0  0  0  0  0  0
  194.2760  171.1630  138.9420 C   0  0  0  0  0  2  0  0  0  0  0  0
  190.8740  171.8730  135.3390 C   0  0  0  0  0  2  0  0  0  0  0  0
  195.9220  173.5870  139.2830 C   0  0  0  0  0  2  0  0  0  0  0  0
  189.5110  173.7200  135.7170 C   0  0  0  0  0  2  0  0  0  0  0  0
  191.7700  173.7580  136.7440 N   0  0  0  0  0  0  0  0  0  0  0  0
  190.4970  174.4700  136.6030 C   0  0  0  0  0  2  0  0  0  0  0  0
  189.6250  172.2910  135.9590 N   0  0  0  0  0  2  0  0  0  0  0  0
  192.0870  172.4990  136.0480 C   0  0  1  0  0  3  0  0  0  0  0  0
  193.6270  173.5390  138.1780 C   0  0  0  0  0  0  0  0  0  0  0  0
  194.3800  175.3390  139.6300 O   0  0  0  0  0  0  0  0  0  0  0  0
  192.7220  174.2900  137.6260 N   0  0  0  0  0  0  0  0  0  0  0  0
  195.2120  175.2860  140.7620 C   0  0  1  0  0  3  0  0  0  0  0  0
  192.8140  171.5460  136.9710 C   0  0  0  0  0  0  0  0  0  0  0  0
  196.4280  174.4390  140.4070 C   0  0  0  0  0  2  0  0  0  0  0  0
  193.5860  172.0600  137.9600 C   0  0  0  0  0  0  0  0  0  0  0  0
  194.6260  174.1630  139.0030 N   0  0  0  0  0  0  0  0  0  0  0  0
  192.7760  170.0710  136.6280 C   0  0  2  0  0  3  0  0  0  0  0  0
  193.4250  169.6520  135.3050 C   0  0  0  0  0  2  0  0  0  0  0  0
  194.5970  168.7000  135.4730 C   0  0  0  0  0  1  0  0  0  0  0  0
  191.6430  168.2460  137.6490 O   0  0  0  0  0  0  0  0  0  0  0  0
  191.5520  169.3190  137.0690 C   0  0  0  0  0  3  0  0  0  0  0  0
  195.6350  176.6900  141.1620 C   0  0  0  0  0  2  0  0  0  0  0  0
  196.6320  176.6310  142.2200 N   0  0  0  0  0  2  0  0  0  0  0  0
  195.9520  176.2340  143.4430 C   0  0  0  0  0  2  0  0  0  0  0  0
  196.6860  175.2360  144.0890 O   0  0  0  0  0  1  0  0  0  0  0  0
  1  4  1  0  0  0  0
  2  6  1  0  0  0  0
  2  8  1  1  0  0  0
  3  2  1  0  0  0  0
  4  6  1  0  0  0  0
  5 30  1  6  0  0  0
  5  1  1  0  0  0  0
  5  3  1  0  0  0  0
  7  8  2  0  0  0  0
  7 13  1  0  0  0  0
 10 15  1  6  0  0  0
 10 12  1  0  0  0  0
 11 12  1  0  0  0  0
 11  9  1  1  0  0  0
 12 14  1  1  0  0  0
 13 16  1  0  0  0  0
 13 10  1  0  0  0  0
 16 26  1  1  0  0  0
 16 11  1  0  0  0  0
 17 25  1  0  0  0  0
 17 21  1  0  0  0  0
 18 25  1  6  0  0  0
 18 11  1  0  0  0  0
 20 19  1  6  0  0  0
 20 18  1  0  0  0  0
 22 17  1  0  0  0  0
 22 20  1  0  0  0  0
 22 24  1  1  0  0  0
 23 17  1  0  0  0  0
 27 26  1  0  0  0  0
 28 27  1  0  0  0  0
 29 28  1  0  0  0  0
 31 30  1  0  0  0  0
 32 37  1  0  0  0  0
 33 44  1  0  0  0  0
 34 37  1  0  0  0  0
 34 36  1  0  0  0  0
 35 41  1  0  0  0  0
 36 35  1  0  0  0  0
 38 32  1  1  0  0  0
 38 35  1  0  0  0  0
 38 43  1  0  0  0  0
 39 46  1  0  0  0  0
 40 42  1  0  0  0  0
 41 39  2  0  0  0  0
 42 52  1  6  0  0  0
 43 45  2  0  0  0  0
 44 42  1  0  0  0  0
 45 39  1  0  0  0  0
 45 31  1  0  0  0  0
 46 33  1  0  0  0  0
 46 40  1  0  0  0  0
 47 48  1  6  0  0  0
 47 43  1  0  0  0  0
 47 51  1  0  0  0  0
 48 49  1  0  0  0  0
 51 50  2  0  0  0  0
 52 53  1  0  0  0  0
 53 54  1  0  0  0  0
 54 55  1  0  0  0  0
M  END
>  <MODEL>
7

>  <REMARK>
 VINA RESULT:      -5.8      2.910      9.210
  Name = 
  15 active torsions:
  status: ('A' for Active; 'I' for Inactive)
    1  A    between atoms: O_2  and  C_28
    2  A    between atoms: O_2  and  C_44
    3  A    between atoms: O_3  and  C_38
    4  A    between atoms: O_3  and  C_46
    5  A    between atoms: C_4  and  C_19
    6  A    between atoms: C_6  and  C_20
    7  A    between atoms: C_10  and  N_18
    8  A    between atoms: C_11  and  C_38
    9  A    between atoms: N_18  and  C_32
   10  A    between atoms: C_19  and  C_40
   11  A    between atoms: C_19  and  C_45
   12  A    between atoms: C_27  and  C_54
   13  A    between atoms: C_28  and  C_49
   14  A    between atoms: C_32  and  C_39
   15  A    between atoms: N_35  and  C_51
                            x       y       z     vdW  Elec       q    Type
                         _______ _______ _______ _____ _____    ______ ____

>  <TORSDO>
F 15

$$$$
=
 OpenBabel11052419493D

 55 60  0  0  1  0  0  0  0  0999 V2000
  192.1580  169.4490  141.9450 C   0  0  0  0  0  2  0  0  0  0  0  0
  191.1450  171.9790  142.6170 C   0  0  2  0  0  3  0  0  0  0  0  0
  192.6750  171.8220  142.6090 C   0  0  0  0  0  2  0  0  0  0  0  0
  190.7080  169.8580  141.6240 C   0  0  0  0  0  2  0  0  0  0  0  0
  193.1250  170.6170  141.7780 C   0  0  1  0  0  3  0  0  0  0  0  0
  190.5490  171.3080  141.4660 N   0  0  0  0  0  2  0  0  0  0  0  0
  189.6950  173.8560  143.2610 C   0  0  0  0  0  3  0  0  0  0  0  0
  190.7650  173.4190  142.6040 C   0  0  0  0  0  3  0  0  0  0  0  0
  189.8730  178.3010  144.1980 O   0  0  0  0  0  1  0  0  0  0  0  0
  189.1540  175.9750  142.0040 C   0  0  1  0  0  3  0  0  0  0  0  0
  188.7810  177.4670  143.9210 C   0  0  1  0  0  0  0  0  0  0  0  0
  188.6010  177.3310  142.4000 C   0  0  1  0  0  3  0  0  0  0  0  0
  189.3070  175.2380  143.2460 N   0  0  0  0  0  0  0  0  0  0  0  0
  189.2490  178.3460  141.6910 O   0  0  0  0  0  1  0  0  0  0  0  0
  188.1520  175.2870  141.0940 C   0  0  0  0  0  1  0  0  0  0  0  0
  189.0570  176.0410  144.4360 C   0  0  1  0  0  3  0  0  0  0  0  0
  186.0660  177.9540  146.2890 C   0  0  0  0  0  0  0  0  0  0  0  0
  187.5180  178.0810  144.5620 C   0  0  1  0  0  3  0  0  0  0  0  0
  185.9290  176.4100  143.4700 C   0  0  0  0  0  1  0  0  0  0  0  0
  186.1650  177.8520  143.8980 C   0  0  1  0  0  3  0  0  0  0  0  0
  185.9320  179.0870  147.2990 C   0  0  0  0  0  1  0  0  0  0  0  0
  185.2250  178.1720  145.0200 C   0  0  2  0  0  3  0  0  0  0  0  0
  185.5980  176.6750  146.9590 C   0  0  0  0  0  1  0  0  0  0  0  0
  184.7960  179.4980  144.8900 O   0  0  0  0  0  1  0  0  0  0  0  0
  187.4250  177.8050  145.9370 O   0  0  0  0  0  0  0  0  0  0  0  0
  190.1710  176.0000  145.2880 O   0  0  0  0  0  0  0  0  0  0  0  0
  189.6530  175.8060  146.5730 C   0  0  0  0  0  2  0  0  0  0  0  0
  189.3150  174.3420  146.7870 C   0  0  0  0  0  2  0  0  0  0  0  0
  188.7270  174.1660  148.0260 F   0  0  0  0  0  0  0  0  0  0  0  0
  194.4100  170.2240  142.1540 O   0  0  0  0  0  0  0  0  0  0  0  0
  195.0570  169.8970  140.9580 C   0  0  0  0  0  2  0  0  0  0  0  0
  193.7080  172.3780  136.8240 C   0  0  0  0  0  2  0  0  0  0  0  0
  197.1920  171.3590  142.3740 C   0  0  0  0  0  2  0  0  0  0  0  0
  193.0370  174.5650  137.2460 C   0  0  0  0  0  2  0  0  0  0  0  0
  194.6160  173.5390  138.8630 N   0  0  0  0  0  0  0  0  0  0  0  0
  193.8200  174.7270  138.5440 C   0  0  0  0  0  2  0  0  0  0  0  0
  192.5490  173.2010  137.1380 N   0  0  0  0  0  2  0  0  0  0  0  0
  194.7080  172.3550  137.9920 C   0  0  1  0  0  3  0  0  0  0  0  0
  195.6080  172.4000  140.6710 C   0  0  0  0  0  0  0  0  0  0  0  0
  196.3460  173.5390  142.6910 O   0  0  0  0  0  0  0  0  0  0  0  0
  195.2950  173.5190  140.0900 N   0  0  0  0  0  0  0  0  0  0  0  0
  196.6250  173.0110  143.9630 C   0  0  1  0  0  3  0  0  0  0  0  0
  194.6600  171.0840  138.8120 C   0  0  0  0  0  0  0  0  0  0  0  0
  197.5080  171.7850  143.7750 C   0  0  0  0  0  2  0  0  0  0  0  0
  195.1380  171.1100  140.0810 C   0  0  0  0  0  0  0  0  0  0  0  0
  196.3800  172.4510  141.8830 N   0  0  0  0  0  0  0  0  0  0  0  0
  194.2410  169.8100  138.1070 C   0  0  2  0  0  3  0  0  0  0  0  0
  195.0790  169.3810  136.8980 C   0  0  0  0  0  2  0  0  0  0  0  0
  196.3600  168.6550  137.2690 C   0  0  0  0  0  1  0  0  0  0  0  0
  192.2880  168.5510  138.6150 O   0  0  0  0  0  0  0  0  0  0  0  0
  192.7650  169.5320  138.0630 C   0  0  0  0  0  3  0  0  0  0  0  0
  197.3300  174.0540  144.8140 C   0  0  0  0  0  2  0  0  0  0  0  0
  196.4700  175.2120  145.0060 N   0  0  0  0  0  2  0  0  0  0  0  0
  195.3060  174.7750  145.7610 C   0  0  0  0  0  2  0  0  0  0  0  0
  194.7040  175.8740  146.3790 O   0  0  0  0  0  1  0  0  0  0  0  0
  2  8  1  6  0  0  0
  3  2  1  0  0  0  0
  4  1  1  0  0  0  0
  5  1  1  0  0  0  0
  5 30  1  1  0  0  0
  5  3  1  0  0  0  0
  6  4  1  0  0  0  0
  6  2  1  0  0  0  0
  8  7  2  0  0  0  0
 10 15  1  6  0  0  0
 10 12  1  0  0  0  0
 10 13  1  0  0  0  0
 11  9  1  1  0  0  0
 11 16  1  0  0  0  0
 11 18  1  0  0  0  0
 12 14  1  6  0  0  0
 12 11  1  0  0  0  0
 13  7  1  0  0  0  0
 13 16  1  0  0  0  0
 16 26  1  1  0  0  0
 17 23  1  0  0  0  0
 17 21  1  0  0  0  0
 18 25  1  1  0  0  0
 20 19  1  1  0  0  0
 20 18  1  0  0  0  0
 20 22  1  0  0  0  0
 22 24  1  6  0  0  0
 22 17  1  0  0  0  0
 25 17  1  0  0  0  0
 26 27  1  0  0  0  0
 27 28  1  0  0  0  0
 28 29  1  0  0  0  0
 31 30  1  0  0  0  0
 32 37  1  0  0  0  0
 33 44  1  0  0  0  0
 34 36  1  0  0  0  0
 35 41  1  0  0  0  0
 36 35  1  0  0  0  0
 37 34  1  0  0  0  0
 38 32  1  6  0  0  0
 38 43  1  0  0  0  0
 38 35  1  0  0  0  0
 39 46  1  0  0  0  0
 40 42  1  0  0  0  0
 41 39  2  0  0  0  0
 42 52  1  1  0  0  0
 43 45  2  0  0  0  0
 44 42  1  0  0  0  0
 45 39  1  0  0  0  0
 45 31  1  0  0  0  0
 46 33  1  0  0  0  0
 46 40  1  0  0  0  0
 47 48  1  6  0  0  0
 47 43  1  0  0  0  0
 48 49  1  0  0  0  0
 51 47  1  0  0  0  0
 51 50  2  0  0  0  0
 52 53  1  0  0  0  0
 53 54  1  0  0  0  0
 54 55  1  0  0  0  0
M  END
>  <MODEL>
8

>  <REMARK>
 VINA RESULT:      -5.7      2.761     10.129
  Name = 
  15 active torsions:
  status: ('A' for Active; 'I' for Inactive)
    1  A    between atoms: O_2  and  C_28
    2  A    between atoms: O_2  and  C_44
    3  A    between atoms: O_3  and  C_38
    4  A    between atoms: O_3  and  C_46
    5  A    between atoms: C_4  and  C_19
    6  A    between atoms: C_6  and  C_20
    7  A    between atoms: C_10  and  N_18
    8  A    between atoms: C_11  and  C_38
    9  A    between atoms: N_18  and  C_32
   10  A    between atoms: C_19  and  C_40
   11  A    between atoms: C_19  and  C_45
   12  A    between atoms: C_27  and  C_54
   13  A    between atoms: C_28  and  C_49
   14  A    between atoms: C_32  and  C_39
   15  A    between atoms: N_35  and  C_51
                            x       y       z     vdW  Elec       q    Type
                         _______ _______ _______ _____ _____    ______ ____

>  <TORSDO>
F 15

$$$$
=
 OpenBabel11052419493D

 55 60  0  0  1  0  0  0  0  0999 V2000
  190.4920  178.3440  144.1610 C   0  0  0  0  0  2  0  0  0  0  0  0
  192.6610  176.6740  144.7810 C   0  0  2  0  0  3  0  0  0  0  0  0
  191.3620  176.4490  145.5730 C   0  0  0  0  0  2  0  0  0  0  0  0
  191.6960  178.1870  143.2130 C   0  0  0  0  0  2  0  0  0  0  0  0
  190.1420  177.0290  144.8520 C   0  0  1  0  0  3  0  0  0  0  0  0
  192.3750  176.8950  143.3660 N   0  0  0  0  0  2  0  0  0  0  0  0
  194.0780  174.8880  143.8620 C   0  0  0  0  0  3  0  0  0  0  0  0
  193.5740  175.5060  144.9250 C   0  0  0  0  0  3  0  0  0  0  0  0
  197.9360  172.4880  143.7090 O   0  0  0  0  0  1  0  0  0  0  0  0
  195.0870  173.0310  145.2370 C   0  0  1  0  0  3  0  0  0  0  0  0
  196.6020  172.0890  143.5460 C   0  0  1  0  0  0  0  0  0  0  0  0
  195.9620  171.8320  144.9210 C   0  0  1  0  0  3  0  0  0  0  0  0
  194.9470  173.7520  143.9840 N   0  0  0  0  0  0  0  0  0  0  0  0
  196.9130  171.6460  145.9280 O   0  0  0  0  0  1  0  0  0  0  0  0
  193.7370  172.5330  145.7220 C   0  0  0  0  0  1  0  0  0  0  0  0
  195.7800  173.2260  142.9110 C   0  0  1  0  0  3  0  0  0  0  0  0
  195.3830  168.9640  142.1450 C   0  0  0  0  0  0  0  0  0  0  0  0
  196.5750  170.8050  142.6890 C   0  0  1  0  0  3  0  0  0  0  0  0
  197.4800  169.3210  144.5580 C   0  0  0  0  0  1  0  0  0  0  0  0
  197.4860  169.6420  143.0690 C   0  0  1  0  0  3  0  0  0  0  0  0
  194.8680  168.7410  140.7280 C   0  0  0  0  0  1  0  0  0  0  0  0
  196.8390  168.5060  142.3380 C   0  0  2  0  0  3  0  0  0  0  0  0
  194.5020  168.1680  143.0910 C   0  0  0  0  0  1  0  0  0  0  0  0
  197.5000  168.3130  141.1200 O   0  0  0  0  0  1  0  0  0  0  0  0
  195.2700  170.3320  142.4700 O   0  0  0  0  0  0  0  0  0  0  0  0
  196.6020  174.2410  142.3980 O   0  0  0  0  0  0  0  0  0  0  0  0
  196.2740  174.3400  141.0420 C   0  0  0  0  0  2  0  0  0  0  0  0
  196.5770  175.7360  140.5280 C   0  0  0  0  0  2  0  0  0  0  0  0
  197.7590  175.7320  139.8100 F   0  0  0  0  0  0  0  0  0  0  0  0
  189.0990  177.2340  145.7570 O   0  0  0  0  0  0  0  0  0  0  0  0
  188.3300  176.0680  145.6980 C   0  0  0  0  0  2  0  0  0  0  0  0
  184.8740  178.0150  142.6430 C   0  0  0  0  0  2  0  0  0  0  0  0
  189.2830  173.4830  144.6440 C   0  0  0  0  0  2  0  0  0  0  0  0
  185.6230  178.2690  140.4560 C   0  0  0  0  0  2  0  0  0  0  0  0
  186.7090  176.5040  141.8210 N   0  0  0  0  0  0  0  0  0  0  0  0
  186.6940  177.1870  140.5250 C   0  0  0  0  0  2  0  0  0  0  0  0
  185.5310  178.9460  141.7380 N   0  0  0  0  0  2  0  0  0  0  0  0
  185.7510  176.7780  142.9050 C   0  0  1  0  0  3  0  0  0  0  0  0
  188.1170  175.2720  143.2540 C   0  0  0  0  0  0  0  0  0  0  0  0
  189.9740  173.9320  142.4330 O   0  0  0  0  0  0  0  0  0  0  0  0
  187.7240  175.5620  142.0500 N   0  0  0  0  0  0  0  0  0  0  0  0
  191.0910  173.4330  143.1250 C   0  0  1  0  0  3  0  0  0  0  0  0
  186.4520  176.8000  144.2460 C   0  0  0  0  0  0  0  0  0  0  0  0
  190.5920  172.7900  144.4130 C   0  0  0  0  0  2  0  0  0  0  0  0
  187.5600  176.0360  144.4120 C   0  0  0  0  0  0  0  0  0  0  0  0
  189.0990  174.2350  143.4230 N   0  0  0  0  0  0  0  0  0  0  0  0
  185.7740  177.5400  145.3800 C   0  0  2  0  0  3  0  0  0  0  0  0
  186.2640  178.9620  145.6690 C   0  0  0  0  0  2  0  0  0  0  0  0
  186.4070  179.2710  147.1490 C   0  0  0  0  0  1  0  0  0  0  0  0
  184.1840  176.7230  146.9490 O   0  0  0  0  0  0  0  0  0  0  0  0
  185.3400  176.7040  146.5510 C   0  0  0  0  0  3  0  0  0  0  0  0
  191.8210  172.4140  142.2660 C   0  0  0  0  0  2  0  0  0  0  0  0
  192.2120  173.0130  140.9990 N   0  0  0  0  0  2  0  0  0  0  0  0
  191.5950  172.2350  139.9350 C   0  0  0  0  0  2  0  0  0  0  0  0
  191.4300  170.9120  140.3520 O   0  0  0  0  0  1  0  0  0  0  0  0
  1  5  1  0  0  0  0
  2  8  1  6  0  0  0
  2  3  1  0  0  0  0
  4  6  1  0  0  0  0
  4  1  1  0  0  0  0
  5  3  1  0  0  0  0
  5 30  1  1  0  0  0
  6  2  1  0  0  0  0
  7 13  1  0  0  0  0
  7  8  2  0  0  0  0
 10 15  1  6  0  0  0
 11  9  1  1  0  0  0
 11 12  1  0  0  0  0
 12 10  1  0  0  0  0
 12 14  1  1  0  0  0
 13 10  1  0  0  0  0
 16 26  1  1  0  0  0
 16 11  1  0  0  0  0
 16 13  1  0  0  0  0
 17 22  1  0  0  0  0
 17 25  1  0  0  0  0
 17 23  1  0  0  0  0
 18 25  1  1  0  0  0
 18 20  1  0  0  0  0
 18 11  1  0  0  0  0
 20 19  1  1  0  0  0
 21 17  1  0  0  0  0
 22 24  1  6  0  0  0
 22 20  1  0  0  0  0
 27 26  1  0  0  0  0
 28 27  1  0  0  0  0
 29 28  1  0  0  0  0
 31 30  1  0  0  0  0
 34 36  1  0  0  0  0
 34 37  1  0  0  0  0
 35 41  1  0  0  0  0
 35 38  1  0  0  0  0
 36 35  1  0  0  0  0
 37 32  1  0  0  0  0
 38 32  1  6  0  0  0
 38 43  1  0  0  0  0
 39 46  1  0  0  0  0
 39 45  1  0  0  0  0
 40 42  1  0  0  0  0
 40 46  1  0  0  0  0
 41 39  2  0  0  0  0
 42 52  1  6  0  0  0
 42 44  1  0  0  0  0
 43 45  2  0  0  0  0
 43 47  1  0  0  0  0
 44 33  1  0  0  0  0
 45 31  1  0  0  0  0
 46 33  1  0  0  0  0
 47 48  1  1  0  0  0
 47 51  1  0  0  0  0
 48 49  1  0  0  0  0
 51 50  2  0  0  0  0
 53 52  1  0  0  0  0
 54 55  1  0  0  0  0
 54 53  1  0  0  0  0
M  END
>  <MODEL>
9

>  <REMARK>
 VINA RESULT:      -5.6      1.697      2.280
  Name = 
  15 active torsions:
  status: ('A' for Active; 'I' for Inactive)
    1  A    between atoms: O_2  and  C_28
    2  A    between atoms: O_2  and  C_44
    3  A    between atoms: O_3  and  C_38
    4  A    between atoms: O_3  and  C_46
    5  A    between atoms: C_4  and  C_19
    6  A    between atoms: C_6  and  C_20
    7  A    between atoms: C_10  and  N_18
    8  A    between atoms: C_11  and  C_38
    9  A    between atoms: N_18  and  C_32
   10  A    between atoms: C_19  and  C_40
   11  A    between atoms: C_19  and  C_45
   12  A    between atoms: C_27  and  C_54
   13  A    between atoms: C_28  and  C_49
   14  A    between atoms: C_32  and  C_39
   15  A    between atoms: N_35  and  C_51
                            x       y       z     vdW  Elec       q    Type
                         _______ _______ _______ _____ _____    ______ ____

>  <TORSDO>
F 15

$$$$
