=
 OpenBabel11052418573D

 34 37  0  0  1  0  0  0  0  0999 V2000
  188.2660  176.7630  143.1030 C   0  0  2  0  0  3  0  0  0  0  0  0
  188.6060  175.9500  146.1860 C   0  0  2  0  0  3  0  0  0  0  0  0
  190.9750  176.7870  145.2670 C   0  0  0  0  0  0  0  0  0  0  0  0
  189.1150  177.5800  144.0910 C   0  0  2  0  0  3  0  0  0  0  0  0
  189.8140  177.4440  147.6720 O   0  0  0  0  0  1  0  0  0  0  0  0
  191.7790  176.1870  146.0300 O   0  0  0  0  0  0  0  0  0  0  0  0
  190.3100  178.0270  143.4470 O   0  0  0  0  0  0  0  0  0  0  0  0
  189.5270  176.8120  145.3380 C   0  0  1  0  0  0  0  0  0  0  0  0
  188.9110  177.4000  146.6020 C   0  0  1  0  0  3  0  0  0  0  0  0
  189.3420  175.0270  146.9340 O   0  0  0  0  0  1  0  0  0  0  0  0
  191.3400  177.5050  144.1570 O   0  0  0  0  0  0  0  0  0  0  0  0
  185.2940  179.0200  142.9940 C   0  0  0  0  0  2  0  0  0  0  0  0
  184.8190  177.9390  142.1370 N   0  0  0  0  0  0  0  0  0  0  0  0
  186.7720  177.1190  143.1990 C   0  0  2  0  0  3  0  0  0  0  0  0
  185.9910  177.0860  141.8850 C   0  0  2  0  0  3  0  0  0  0  0  0
  186.5190  178.5130  143.7440 C   0  0  2  0  0  3  0  0  0  0  0  0
  186.2350  178.4420  145.1070 O   0  0  0  0  0  1  0  0  0  0  0  0
  187.0350  176.7790  139.7480 O   0  0  0  0  0  0  0  0  0  0  0  0
  186.8250  177.5260  140.6910 C   0  0  0  0  0  3  0  0  0  0  0  0
  184.2270  178.5140  140.9300 C   0  0  0  0  0  2  0  0  0  0  0  0
  182.8180  177.9830  140.7310 C   0  0  0  0  0  2  0  0  0  0  0  0
  181.9750  178.4690  141.7320 O   0  0  0  0  0  1  0  0  0  0  0  0
  188.4610  175.3290  143.3000 N   0  0  0  0  0  2  0  0  0  0  0  0
  189.2920  174.8440  142.2110 C   0  0  0  0  0  2  0  0  0  0  0  0
  190.3410  173.8960  142.7540 C   0  0  0  0  0  2  0  0  0  0  0  0
  191.9370  174.2420  141.9660 S   0  0  0  0  0  0  0  0  0  0  0  0
  192.8390  174.0840  143.5360 C   0  0  0  0  0  2  0  0  0  0  0  0
  195.2620  176.2530  142.0740 C   0  0  0  0  0  1  0  0  0  0  0  0
  194.3230  174.3510  143.3210 C   0  0  1  0  0  3  0  0  0  0  0  0
  194.5750  175.8270  143.3550 C   0  0  1  0  0  3  0  0  0  0  0  0
  194.9050  177.1310  145.2610 C   0  0  0  0  0  1  0  0  0  0  0  0
  195.3870  174.8880  145.2740 N   0  0  0  0  0  2  0  0  0  0  0  0
  195.0900  173.8060  144.4240 N   0  0  0  0  0  2  0  0  0  0  0  0
  195.4660  176.0450  144.4770 N   0  0  0  0  0  0  0  0  0  0  0  0
  1 23  1  1  0  0  0
  2  9  1  0  0  0  0
  2 10  1  1  0  0  0
  3  6  2  0  0  0  0
  4  1  1  6  0  0  0
  4  8  1  0  0  0  0
  7  4  1  0  0  0  0
  7 11  1  0  0  0  0
  8  3  1  1  0  0  0
  8  2  1  0  0  0  0
  8  9  1  0  0  0  0
  9  5  1  1  0  0  0
 11  3  1  0  0  0  0
 12 16  1  0  0  0  0
 13 12  1  0  0  0  0
 14  1  1  6  0  0  0
 14 16  1  0  0  0  0
 15 19  1  6  0  0  0
 15 13  1  0  0  0  0
 15 14  1  0  0  0  0
 16 17  1  1  0  0  0
 18 19  2  0  0  0  0
 20 13  1  0  0  0  0
 21 20  1  0  0  0  0
 21 22  1  0  0  0  0
 24 25  1  0  0  0  0
 24 23  1  0  0  0  0
 26 25  1  0  0  0  0
 26 27  1  0  0  0  0
 29 30  1  0  0  0  0
 29 27  1  1  0  0  0
 29 33  1  0  0  0  0
 30 28  1  6  0  0  0
 30 34  1  0  0  0  0
 33 32  1  0  0  0  0
 34 31  1  0  0  0  0
 34 32  1  0  0  0  0
M  END
>  <MODEL>
1

>  <REMARK>
 VINA RESULT:      -6.0      0.000      0.000
  Name = 
  11 active torsions:
  status: ('A' for Active; 'I' for Inactive)
    1  A    between atoms: C_3  and  C_13
    2  A    between atoms: C_3  and  S_17
    3  A    between atoms: C_4  and  C_31
    4  A    between atoms: N_5  and  C_18
    5  A    between atoms: N_5  and  C_31
    6  A    between atoms: N_8  and  C_27
    7  A    between atoms: C_12  and  C_27
    8  A    between atoms: S_17  and  C_29
    9  A    between atoms: C_18  and  C_29
   10  A    between atoms: C_21  and  C_31
   11  A    between atoms: C_26  and  C_28
                            x       y       z     vdW  Elec       q    Type
                         _______ _______ _______ _____ _____    ______ ____

>  <TORSDO>
F 11

$$$$
=
 OpenBabel11052418573D

 34 37  0  0  1  0  0  0  0  0999 V2000
  190.8830  175.1730  144.0640 C   0  0  2  0  0  3  0  0  0  0  0  0
  188.8730  173.5700  142.1480 C   0  0  2  0  0  3  0  0  0  0  0  0
  188.4040  176.1880  141.8630 C   0  0  0  0  0  0  0  0  0  0  0  0
  190.5410  175.6390  142.6390 C   0  0  2  0  0  3  0  0  0  0  0  0
  188.5830  174.3170  139.8560 O   0  0  0  0  0  1  0  0  0  0  0  0
  187.1990  176.1990  141.4930 O   0  0  0  0  0  0  0  0  0  0  0  0
  190.3940  177.0600  142.6180 O   0  0  0  0  0  0  0  0  0  0  0  0
  189.2590  175.0380  142.0800 C   0  0  1  0  0  0  0  0  0  0  0  0
  189.5250  174.1420  140.8760 C   0  0  1  0  0  3  0  0  0  0  0  0
  187.4920  173.4140  142.0010 O   0  0  0  0  0  1  0  0  0  0  0  0
  189.1290  177.3040  142.1950 O   0  0  0  0  0  0  0  0  0  0  0  0
  194.2590  174.0580  142.9230 C   0  0  0  0  0  2  0  0  0  0  0  0
  194.5150  174.2100  144.3510 N   0  0  0  0  0  0  0  0  0  0  0  0
  192.1620  174.3170  144.0960 C   0  0  2  0  0  3  0  0  0  0  0  0
  193.3300  174.8900  144.8980 C   0  0  2  0  0  3  0  0  0  0  0  0
  192.7490  174.0600  142.7200 C   0  0  2  0  0  3  0  0  0  0  0  0
  192.3390  172.8110  142.2570 O   0  0  0  0  0  1  0  0  0  0  0  0
  193.3050  177.0990  145.8290 O   0  0  0  0  0  0  0  0  0  0  0  0
  193.4060  176.4080  144.8280 C   0  0  0  0  0  3  0  0  0  0  0  0
  195.7650  174.9470  144.5340 C   0  0  0  0  0  2  0  0  0  0  0  0
  196.4030  175.2440  143.1880 C   0  0  0  0  0  2  0  0  0  0  0  0
  197.3480  176.2620  143.3190 O   0  0  0  0  0  1  0  0  0  0  0  0
  189.7690  174.4440  144.6630 N   0  0  0  0  0  2  0  0  0  0  0  0
  189.9090  174.5330  146.1070 C   0  0  0  0  0  2  0  0  0  0  0  0
  188.7610  175.3360  146.6820 C   0  0  0  0  0  2  0  0  0  0  0  0
  189.2350  177.0820  146.7880 S   0  0  0  0  0  0  0  0  0  0  0  0
  188.1290  177.5500  145.4230 C   0  0  0  0  0  2  0  0  0  0  0  0
  185.3330  178.6700  147.3310 C   0  0  0  0  0  1  0  0  0  0  0  0
  186.6780  177.2860  145.8050 C   0  0  1  0  0  3  0  0  0  0  0  0
  185.9560  178.5880  145.9530 C   0  0  1  0  0  3  0  0  0  0  0  0
  184.9810  179.8330  144.2360 C   0  0  0  0  0  1  0  0  0  0  0  0
  185.2620  177.5650  144.0310 N   0  0  0  0  0  2  0  0  0  0  0  0
  186.0000  176.5910  144.7280 N   0  0  0  0  0  2  0  0  0  0  0  0
  184.9090  178.5710  144.9500 N   0  0  0  0  0  0  0  0  0  0  0  0
  1 23  1  6  0  0  0
  2 10  1  6  0  0  0
  3 11  1  0  0  0  0
  4  1  1  1  0  0  0
  6  3  2  0  0  0  0
  7  4  1  0  0  0  0
  8  3  1  6  0  0  0
  8  2  1  0  0  0  0
  8  4  1  0  0  0  0
  9  5  1  6  0  0  0
  9  8  1  0  0  0  0
  9  2  1  0  0  0  0
 11  7  1  0  0  0  0
 12 13  1  0  0  0  0
 13 20  1  0  0  0  0
 13 15  1  0  0  0  0
 14  1  1  6  0  0  0
 14 15  1  0  0  0  0
 15 19  1  6  0  0  0
 16 17  1  1  0  0  0
 16 12  1  0  0  0  0
 16 14  1  0  0  0  0
 19 18  2  0  0  0  0
 21 22  1  0  0  0  0
 21 20  1  0  0  0  0
 23 24  1  0  0  0  0
 24 25  1  0  0  0  0
 25 26  1  0  0  0  0
 27 26  1  0  0  0  0
 29 27  1  6  0  0  0
 29 30  1  0  0  0  0
 30 28  1  1  0  0  0
 31 34  1  0  0  0  0
 32 33  1  0  0  0  0
 32 34  1  0  0  0  0
 33 29  1  0  0  0  0
 34 30  1  0  0  0  0
M  END
>  <MODEL>
2

>  <REMARK>
 VINA RESULT:      -5.9      2.647      8.237
  Name = 
  11 active torsions:
  status: ('A' for Active; 'I' for Inactive)
    1  A    between atoms: C_3  and  C_13
    2  A    between atoms: C_3  and  S_17
    3  A    between atoms: C_4  and  C_31
    4  A    between atoms: N_5  and  C_18
    5  A    between atoms: N_5  and  C_31
    6  A    between atoms: N_8  and  C_27
    7  A    between atoms: C_12  and  C_27
    8  A    between atoms: S_17  and  C_29
    9  A    between atoms: C_18  and  C_29
   10  A    between atoms: C_21  and  C_31
   11  A    between atoms: C_26  and  C_28
                            x       y       z     vdW  Elec       q    Type
                         _______ _______ _______ _____ _____    ______ ____

>  <TORSDO>
F 11

$$$$
=
 OpenBabel11052418573D

 34 37  0  0  1  0  0  0  0  0999 V2000
  189.3040  176.1350  144.3320 C   0  0  2  0  0  3  0  0  0  0  0  0
  190.2760  175.6430  147.3480 C   0  0  2  0  0  3  0  0  0  0  0  0
  192.2760  176.7940  145.9940 C   0  0  0  0  0  0  0  0  0  0  0  0
  190.1380  177.1620  145.1170 C   0  0  2  0  0  3  0  0  0  0  0  0
  191.4170  177.4350  148.5260 O   0  0  0  0  0  1  0  0  0  0  0  0
  193.2870  176.4010  146.6360 O   0  0  0  0  0  0  0  0  0  0  0  0
  191.1140  177.7520  144.2550 O   0  0  0  0  0  0  0  0  0  0  0  0
  190.8780  176.5780  146.3120 C   0  0  1  0  0  0  0  0  0  0  0  0
  190.3770  177.1520  147.6320 C   0  0  1  0  0  3  0  0  0  0  0  0
  191.2770  174.9210  148.0040 O   0  0  0  0  0  1  0  0  0  0  0  0
  192.3220  177.4710  144.8020 O   0  0  0  0  0  0  0  0  0  0  0  0
  186.2550  178.1600  145.0730 C   0  0  0  0  0  2  0  0  0  0  0  0
  185.8740  177.5960  143.7820 N   0  0  0  0  0  0  0  0  0  0  0  0
  187.7940  176.3930  144.4780 C   0  0  2  0  0  3  0  0  0  0  0  0
  187.0920  176.9680  143.2470 C   0  0  2  0  0  3  0  0  0  0  0  0
  187.4540  177.3730  145.5860 C   0  0  2  0  0  3  0  0  0  0  0  0
  187.0940  176.6750  146.7390 O   0  0  0  0  0  1  0  0  0  0  0  0
  188.1910  177.7480  141.2640 O   0  0  0  0  0  0  0  0  0  0  0  0
  187.9760  177.9190  142.4540 C   0  0  0  0  0  3  0  0  0  0  0  0
  185.3310  178.6600  142.9400 C   0  0  0  0  0  2  0  0  0  0  0  0
  184.2940  178.0970  141.9840 C   0  0  0  0  0  2  0  0  0  0  0  0
  184.8020  178.0740  140.6840 O   0  0  0  0  0  1  0  0  0  0  0  0
  189.6280  174.7710  144.7380 N   0  0  0  0  0  2  0  0  0  0  0  0
  189.8960  174.0050  143.5330 C   0  0  0  0  0  2  0  0  0  0  0  0
  191.3290  174.2260  143.0960 C   0  0  0  0  0  2  0  0  0  0  0  0
  192.4540  173.6500  144.3960 S   0  0  0  0  0  0  0  0  0  0  0  0
  193.9270  174.1660  143.4640 C   0  0  0  0  0  2  0  0  0  0  0  0
  196.5650  173.3700  145.7260 C   0  0  0  0  0  1  0  0  0  0  0  0
  194.9840  174.7200  144.4100 C   0  0  1  0  0  3  0  0  0  0  0  0
  196.2130  173.8690  144.3390 C   0  0  1  0  0  3  0  0  0  0  0  0
  197.9310  174.0450  142.7700 C   0  0  0  0  0  1  0  0  0  0  0  0
  196.6230  175.8570  143.2900 N   0  0  0  0  0  2  0  0  0  0  0  0
  195.4030  176.0370  143.9690 N   0  0  0  0  0  2  0  0  0  0  0  0
  197.2660  174.7410  143.8570 N   0  0  0  0  0  0  0  0  0  0  0  0
  1 23  1  1  0  0  0
  2  9  1  0  0  0  0
  2 10  1  1  0  0  0
  3  6  2  0  0  0  0
  4  1  1  6  0  0  0
  4  8  1  0  0  0  0
  7 11  1  0  0  0  0
  7  4  1  0  0  0  0
  8  3  1  6  0  0  0
  8  2  1  0  0  0  0
  8  9  1  0  0  0  0
  9  5  1  1  0  0  0
 11  3  1  0  0  0  0
 12 16  1  0  0  0  0
 13 12  1  0  0  0  0
 14  1  1  6  0  0  0
 14 16  1  0  0  0  0
 15 19  1  1  0  0  0
 15 13  1  0  0  0  0
 15 14  1  0  0  0  0
 16 17  1  1  0  0  0
 18 19  2  0  0  0  0
 20 13  1  0  0  0  0
 21 20  1  0  0  0  0
 22 21  1  0  0  0  0
 24 23  1  0  0  0  0
 25 24  1  0  0  0  0
 25 26  1  0  0  0  0
 27 26  1  0  0  0  0
 29 27  1  6  0  0  0
 30 29  1  0  0  0  0
 30 28  1  1  0  0  0
 31 34  1  0  0  0  0
 32 34  1  0  0  0  0
 32 33  1  0  0  0  0
 33 29  1  0  0  0  0
 34 30  1  0  0  0  0
M  END
>  <MODEL>
3

>  <REMARK>
 VINA RESULT:      -5.9      1.802      2.283
  Name = 
  11 active torsions:
  status: ('A' for Active; 'I' for Inactive)
    1  A    between atoms: C_3  and  C_13
    2  A    between atoms: C_3  and  S_17
    3  A    between atoms: C_4  and  C_31
    4  A    between atoms: N_5  and  C_18
    5  A    between atoms: N_5  and  C_31
    6  A    between atoms: N_8  and  C_27
    7  A    between atoms: C_12  and  C_27
    8  A    between atoms: S_17  and  C_29
    9  A    between atoms: C_18  and  C_29
   10  A    between atoms: C_21  and  C_31
   11  A    between atoms: C_26  and  C_28
                            x       y       z     vdW  Elec       q    Type
                         _______ _______ _______ _____ _____    ______ ____

>  <TORSDO>
F 11

$$$$
=
 OpenBabel11052418573D

 34 37  0  0  1  0  0  0  0  0999 V2000
  189.6580  175.8340  143.8380 C   0  0  2  0  0  3  0  0  0  0  0  0
  190.4780  174.1770  141.2180 C   0  0  2  0  0  3  0  0  0  0  0  0
  191.0660  172.7000  143.3700 C   0  0  0  0  0  0  0  0  0  0  0  0
  189.4130  174.3220  143.6970 C   0  0  2  0  0  3  0  0  0  0  0  0
  189.8510  171.8360  141.0600 O   0  0  0  0  0  1  0  0  0  0  0  0
  191.9940  171.9650  142.9380 O   0  0  0  0  0  0  0  0  0  0  0  0
  189.6910  173.6710  144.9380 O   0  0  0  0  0  0  0  0  0  0  0  0
  190.2630  173.6520  142.6280 C   0  0  1  0  0  0  0  0  0  0  0  0
  189.4170  173.0960  141.4890 C   0  0  1  0  0  3  0  0  0  0  0  0
  191.6420  173.6370  140.6620 O   0  0  0  0  0  1  0  0  0  0  0  0
  190.6760  172.7750  144.6830 O   0  0  0  0  0  0  0  0  0  0  0  0
  186.0210  176.4160  143.2240 C   0  0  0  0  0  2  0  0  0  0  0  0
  186.3200  177.5680  144.0690 N   0  0  0  0  0  0  0  0  0  0  0  0
  188.4160  176.6550  143.4460 C   0  0  2  0  0  3  0  0  0  0  0  0
  187.6730  177.3340  144.5970 C   0  0  2  0  0  3  0  0  0  0  0  0
  187.3460  175.8330  142.7510 C   0  0  2  0  0  3  0  0  0  0  0  0
  187.4560  175.9870  141.3690 O   0  0  0  0  0  1  0  0  0  0  0  0
  188.2570  176.9260  146.8860 O   0  0  0  0  0  0  0  0  0  0  0  0
  187.6990  176.5170  145.8800 C   0  0  0  0  0  3  0  0  0  0  0  0
  185.2880  177.6840  145.0980 C   0  0  0  0  0  2  0  0  0  0  0  0
  185.1390  179.1320  145.5330 C   0  0  0  0  0  2  0  0  0  0  0  0
  185.6290  179.2960  146.8290 O   0  0  0  0  0  1  0  0  0  0  0  0
  190.8140  176.2560  143.0530 N   0  0  0  0  0  2  0  0  0  0  0  0
  191.9660  176.2710  143.9390 C   0  0  0  0  0  2  0  0  0  0  0  0
  191.5390  176.7140  145.3230 C   0  0  0  0  0  2  0  0  0  0  0  0
  192.3130  175.6450  146.5670 S   0  0  0  0  0  0  0  0  0  0  0  0
  193.4850  174.9540  145.3620 C   0  0  0  0  0  2  0  0  0  0  0  0
  196.7780  173.7930  146.0830 C   0  0  0  0  0  1  0  0  0  0  0  0
  194.9100  175.3530  145.7230 C   0  0  1  0  0  3  0  0  0  0  0  0
  195.8740  174.4290  145.0470 C   0  0  1  0  0  3  0  0  0  0  0  0
  196.6750  174.6210  142.8640 C   0  0  0  0  0  1  0  0  0  0  0  0
  195.9460  176.4670  144.0150 N   0  0  0  0  0  2  0  0  0  0  0  0
  195.2050  176.6710  145.1940 N   0  0  0  0  0  2  0  0  0  0  0  0
  196.6640  175.2660  144.1650 N   0  0  0  0  0  0  0  0  0  0  0  0
  1 23  1  6  0  0  0
  2 10  1  6  0  0  0
  2  9  1  0  0  0  0
  2  8  1  0  0  0  0
  3 11  1  0  0  0  0
  4  1  1  1  0  0  0
  4  7  1  0  0  0  0
  6  3  2  0  0  0  0
  8  3  1  1  0  0  0
  8  4  1  0  0  0  0
  9  5  1  6  0  0  0
  9  8  1  0  0  0  0
 11  7  1  0  0  0  0
 12 13  1  0  0  0  0
 13 15  1  0  0  0  0
 13 20  1  0  0  0  0
 14  1  1  1  0  0  0
 14 15  1  0  0  0  0
 15 19  1  1  0  0  0
 16 17  1  6  0  0  0
 16 12  1  0  0  0  0
 16 14  1  0  0  0  0
 19 18  2  0  0  0  0
 20 21  1  0  0  0  0
 21 22  1  0  0  0  0
 23 24  1  0  0  0  0
 24 25  1  0  0  0  0
 25 26  1  0  0  0  0
 27 26  1  0  0  0  0
 29 27  1  6  0  0  0
 30 29  1  0  0  0  0
 30 28  1  1  0  0  0
 31 34  1  0  0  0  0
 32 34  1  0  0  0  0
 32 33  1  0  0  0  0
 33 29  1  0  0  0  0
 34 30  1  0  0  0  0
M  END
>  <MODEL>
4

>  <REMARK>
 VINA RESULT:      -5.9      2.603      4.474
  Name = 
  11 active torsions:
  status: ('A' for Active; 'I' for Inactive)
    1  A    between atoms: C_3  and  C_13
    2  A    between atoms: C_3  and  S_17
    3  A    between atoms: C_4  and  C_31
    4  A    between atoms: N_5  and  C_18
    5  A    between atoms: N_5  and  C_31
    6  A    between atoms: N_8  and  C_27
    7  A    between atoms: C_12  and  C_27
    8  A    between atoms: S_17  and  C_29
    9  A    between atoms: C_18  and  C_29
   10  A    between atoms: C_21  and  C_31
   11  A    between atoms: C_26  and  C_28
                            x       y       z     vdW  Elec       q    Type
                         _______ _______ _______ _____ _____    ______ ____

>  <TORSDO>
F 11

$$$$
=
 OpenBabel11052418573D

 34 37  0  0  1  0  0  0  0  0999 V2000
  188.5100  176.6660  143.4110 C   0  0  2  0  0  3  0  0  0  0  0  0
  189.1730  175.8620  146.4440 C   0  0  2  0  0  3  0  0  0  0  0  0
  191.3800  176.9010  145.3440 C   0  0  0  0  0  0  0  0  0  0  0  0
  189.3680  177.5440  144.3380 C   0  0  2  0  0  3  0  0  0  0  0  0
  190.3750  177.4400  147.8450 O   0  0  0  0  0  1  0  0  0  0  0  0
  192.2910  176.3630  146.0280 O   0  0  0  0  0  0  0  0  0  0  0  0
  190.4640  178.0940  143.6030 O   0  0  0  0  0  0  0  0  0  0  0  0
  189.9460  176.8040  145.5350 C   0  0  1  0  0  0  0  0  0  0  0  0
  189.3920  177.3290  146.8540 C   0  0  1  0  0  3  0  0  0  0  0  0
  190.0430  174.9980  147.1150 O   0  0  0  0  0  1  0  0  0  0  0  0
  191.5900  177.6540  144.2170 O   0  0  0  0  0  0  0  0  0  0  0  0
  185.4350  178.7820  143.4990 C   0  0  0  0  0  2  0  0  0  0  0  0
  184.9700  177.7010  142.6360 N   0  0  0  0  0  0  0  0  0  0  0  0
  187.0070  176.9480  143.5850 C   0  0  2  0  0  3  0  0  0  0  0  0
  186.1680  176.9110  142.3080 C   0  0  2  0  0  3  0  0  0  0  0  0
  186.7150  178.3150  144.1780 C   0  0  2  0  0  3  0  0  0  0  0  0
  186.4990  178.1980  145.5500 O   0  0  0  0  0  1  0  0  0  0  0  0
  187.0720  176.7260  140.0950 O   0  0  0  0  0  0  0  0  0  0  0  0
  186.9230  177.4190  141.0890 C   0  0  0  0  0  3  0  0  0  0  0  0
  184.2960  178.2760  141.4730 C   0  0  0  0  0  2  0  0  0  0  0  0
  182.7890  178.2060  141.6500 C   0  0  0  0  0  2  0  0  0  0  0  0
  182.1610  178.1580  140.4050 O   0  0  0  0  0  1  0  0  0  0  0  0
  188.7890  175.2490  143.6210 N   0  0  0  0  0  2  0  0  0  0  0  0
  189.5710  174.7820  142.4890 C   0  0  0  0  0  2  0  0  0  0  0  0
  188.6860  173.9930  141.5470 C   0  0  0  0  0  2  0  0  0  0  0  0
  189.5520  172.4900  141.0180 S   0  0  0  0  0  0  0  0  0  0  0  0
  189.6410  171.8460  142.7160 C   0  0  0  0  0  2  0  0  0  0  0  0
  192.6590  170.5730  141.3070 C   0  0  0  0  0  1  0  0  0  0  0  0
  191.0380  171.3110  143.0040 C   0  0  1  0  0  3  0  0  0  0  0  0
  191.9800  171.7720  141.9360 C   0  0  1  0  0  3  0  0  0  0  0  0
  193.0880  173.8240  141.8590 C   0  0  0  0  0  1  0  0  0  0  0  0
  192.4120  172.9270  143.8600 N   0  0  0  0  0  2  0  0  0  0  0  0
  191.5440  171.8860  144.2360 N   0  0  0  0  0  2  0  0  0  0  0  0
  192.9680  172.5890  142.6120 N   0  0  0  0  0  0  0  0  0  0  0  0
  1 23  1  1  0  0  0
  2  9  1  0  0  0  0
  2 10  1  1  0  0  0
  3  6  2  0  0  0  0
  4  1  1  6  0  0  0
  4  8  1  0  0  0  0
  7 11  1  0  0  0  0
  7  4  1  0  0  0  0
  8  3  1  6  0  0  0
  8  2  1  0  0  0  0
  8  9  1  0  0  0  0
  9  5  1  1  0  0  0
 11  3  1  0  0  0  0
 12 16  1  0  0  0  0
 13 12  1  0  0  0  0
 14  1  1  6  0  0  0
 14 16  1  0  0  0  0
 15 19  1  6  0  0  0
 15 13  1  0  0  0  0
 15 14  1  0  0  0  0
 16 17  1  1  0  0  0
 18 19  2  0  0  0  0
 20 21  1  0  0  0  0
 20 13  1  0  0  0  0
 22 21  1  0  0  0  0
 24 23  1  0  0  0  0
 25 24  1  0  0  0  0
 26 25  1  0  0  0  0
 26 27  1  0  0  0  0
 29 27  1  6  0  0  0
 29 33  1  0  0  0  0
 30 28  1  1  0  0  0
 30 34  1  0  0  0  0
 30 29  1  0  0  0  0
 31 34  1  0  0  0  0
 32 33  1  0  0  0  0
 34 32  1  0  0  0  0
M  END
>  <MODEL>
5

>  <REMARK>
 VINA RESULT:      -5.9      1.717      2.434
  Name = 
  11 active torsions:
  status: ('A' for Active; 'I' for Inactive)
    1  A    between atoms: C_3  and  C_13
    2  A    between atoms: C_3  and  S_17
    3  A    between atoms: C_4  and  C_31
    4  A    between atoms: N_5  and  C_18
    5  A    between atoms: N_5  and  C_31
    6  A    between atoms: N_8  and  C_27
    7  A    between atoms: C_12  and  C_27
    8  A    between atoms: S_17  and  C_29
    9  A    between atoms: C_18  and  C_29
   10  A    between atoms: C_21  and  C_31
   11  A    between atoms: C_26  and  C_28
                            x       y       z     vdW  Elec       q    Type
                         _______ _______ _______ _____ _____    ______ ____

>  <TORSDO>
F 11

$$$$
=
 OpenBabel11052418573D

 34 37  0  0  1  0  0  0  0  0999 V2000
  189.0320  176.2400  144.2930 C   0  0  2  0  0  3  0  0  0  0  0  0
  190.2230  175.6630  147.2130 C   0  0  2  0  0  3  0  0  0  0  0  0
  192.1440  176.7810  145.7250 C   0  0  0  0  0  0  0  0  0  0  0  0
  189.9560  177.2270  145.0260 C   0  0  2  0  0  3  0  0  0  0  0  0
  191.5060  177.3980  148.3270 O   0  0  0  0  0  1  0  0  0  0  0  0
  193.1900  176.3480  146.2780 O   0  0  0  0  0  0  0  0  0  0  0  0
  190.8780  177.8060  144.1000 O   0  0  0  0  0  0  0  0  0  0  0  0
  190.7700  176.6000  146.1490 C   0  0  1  0  0  0  0  0  0  0  0  0
  190.3920  177.1630  147.5130 C   0  0  1  0  0  3  0  0  0  0  0  0
  191.2510  174.9000  147.7750 O   0  0  0  0  0  1  0  0  0  0  0  0
  192.1170  177.4800  144.5440 O   0  0  0  0  0  0  0  0  0  0  0  0
  186.1120  178.3790  145.2080 C   0  0  0  0  0  2  0  0  0  0  0  0
  185.6140  177.7930  143.9680 N   0  0  0  0  0  0  0  0  0  0  0  0
  187.5470  176.5490  144.5470 C   0  0  2  0  0  3  0  0  0  0  0  0
  186.7680  177.1120  143.3580 C   0  0  2  0  0  3  0  0  0  0  0  0
  187.3230  177.5680  145.6500 C   0  0  2  0  0  3  0  0  0  0  0  0
  187.0350  176.9130  146.8460 O   0  0  0  0  0  1  0  0  0  0  0  0
  187.7950  177.7600  141.2900 O   0  0  0  0  0  0  0  0  0  0  0  0
  187.6140  178.0140  142.4710 C   0  0  0  0  0  3  0  0  0  0  0  0
  185.0380  178.8500  143.1400 C   0  0  0  0  0  2  0  0  0  0  0  0
  183.9400  178.2860  142.2540 C   0  0  0  0  0  2  0  0  0  0  0  0
  184.3410  178.3120  140.9170 O   0  0  0  0  0  1  0  0  0  0  0  0
  189.3350  174.8610  144.6610 N   0  0  0  0  0  2  0  0  0  0  0  0
  190.0260  174.2470  143.5400 C   0  0  0  0  0  2  0  0  0  0  0  0
  189.4830  174.8020  142.2400 C   0  0  0  0  0  2  0  0  0  0  0  0
  188.1580  173.7250  141.6280 S   0  0  0  0  0  0  0  0  0  0  0  0
  189.3350  172.5980  140.8220 C   0  0  0  0  0  2  0  0  0  0  0  0
  188.2200  174.1500  137.8120 C   0  0  0  0  0  1  0  0  0  0  0  0
  188.9480  172.3850  139.3650 C   0  0  1  0  0  3  0  0  0  0  0  0
  189.4020  173.5560  138.5510 C   0  0  1  0  0  3  0  0  0  0  0  0
  191.5300  173.8700  137.6460 C   0  0  0  0  0  1  0  0  0  0  0  0
  190.7390  171.7620  138.0860 N   0  0  0  0  0  2  0  0  0  0  0  0
  189.6600  171.2430  138.8250 N   0  0  0  0  0  2  0  0  0  0  0  0
  190.3520  173.0230  137.5950 N   0  0  0  0  0  0  0  0  0  0  0  0
  1 23  1  1  0  0  0
  2  9  1  0  0  0  0
  2 10  1  1  0  0  0
  3  6  2  0  0  0  0
  4  1  1  6  0  0  0
  4  8  1  0  0  0  0
  7 11  1  0  0  0  0
  7  4  1  0  0  0  0
  8  3  1  6  0  0  0
  8  2  1  0  0  0  0
  8  9  1  0  0  0  0
  9  5  1  1  0  0  0
 11  3  1  0  0  0  0
 12 16  1  0  0  0  0
 13 12  1  0  0  0  0
 14  1  1  6  0  0  0
 14 16  1  0  0  0  0
 15 19  1  1  0  0  0
 15 13  1  0  0  0  0
 15 14  1  0  0  0  0
 16 17  1  1  0  0  0
 18 19  2  0  0  0  0
 20 13  1  0  0  0  0
 21 20  1  0  0  0  0
 22 21  1  0  0  0  0
 24 23  1  0  0  0  0
 25 24  1  0  0  0  0
 26 25  1  0  0  0  0
 27 26  1  0  0  0  0
 29 27  1  1  0  0  0
 30 28  1  6  0  0  0
 30 29  1  0  0  0  0
 32 33  1  0  0  0  0
 33 29  1  0  0  0  0
 34 31  1  0  0  0  0
 34 32  1  0  0  0  0
 34 30  1  0  0  0  0
M  END
>  <MODEL>
6

>  <REMARK>
 VINA RESULT:      -5.8      2.878      4.231
  Name = 
  11 active torsions:
  status: ('A' for Active; 'I' for Inactive)
    1  A    between atoms: C_3  and  C_13
    2  A    between atoms: C_3  and  S_17
    3  A    between atoms: C_4  and  C_31
    4  A    between atoms: N_5  and  C_18
    5  A    between atoms: N_5  and  C_31
    6  A    between atoms: N_8  and  C_27
    7  A    between atoms: C_12  and  C_27
    8  A    between atoms: S_17  and  C_29
    9  A    between atoms: C_18  and  C_29
   10  A    between atoms: C_21  and  C_31
   11  A    between atoms: C_26  and  C_28
                            x       y       z     vdW  Elec       q    Type
                         _______ _______ _______ _____ _____    ______ ____

>  <TORSDO>
F 11

$$$$
=
 OpenBabel11052418573D

 34 37  0  0  1  0  0  0  0  0999 V2000
  187.8030  176.3890  144.5940 C   0  0  2  0  0  3  0  0  0  0  0  0
  185.4720  178.1860  143.3220 C   0  0  2  0  0  3  0  0  0  0  0  0
  185.3390  178.3930  145.9850 C   0  0  0  0  0  0  0  0  0  0  0  0
  187.4310  177.7780  145.1380 C   0  0  2  0  0  3  0  0  0  0  0  0
  185.1300  180.4390  144.1610 O   0  0  0  0  0  1  0  0  0  0  0  0
  184.1240  178.6760  146.1660 O   0  0  0  0  0  0  0  0  0  0  0  0
  187.4740  177.7650  146.5670 O   0  0  0  0  0  0  0  0  0  0  0  0
  186.0460  178.2560  144.7270 C   0  0  1  0  0  0  0  0  0  0  0  0
  186.1070  179.4900  143.8360 C   0  0  1  0  0  3  0  0  0  0  0  0
  184.0760  178.2370  143.3540 O   0  0  0  0  0  1  0  0  0  0  0  0
  186.2280  178.0940  146.9870 O   0  0  0  0  0  0  0  0  0  0  0  0
  191.4150  177.1750  145.1200 C   0  0  0  0  0  2  0  0  0  0  0  0
  191.4610  175.7190  145.2040 N   0  0  0  0  0  0  0  0  0  0  0  0
  189.3170  176.2550  144.3500 C   0  0  2  0  0  3  0  0  0  0  0  0
  190.0580  175.2790  145.2640 C   0  0  2  0  0  3  0  0  0  0  0  0
  190.0710  177.5620  144.5170 C   0  0  2  0  0  3  0  0  0  0  0  0
  190.2730  178.1530  143.2700 O   0  0  0  0  0  1  0  0  0  0  0  0
  188.9410  174.2390  147.1130 O   0  0  0  0  0  0  0  0  0  0  0  0
  189.4860  175.2390  146.6730 C   0  0  0  0  0  3  0  0  0  0  0  0
  192.2580  175.3350  146.3680 C   0  0  0  0  0  2  0  0  0  0  0  0
  193.3370  176.3700  146.6330 C   0  0  0  0  0  2  0  0  0  0  0  0
  194.6000  175.7920  146.4990 O   0  0  0  0  0  1  0  0  0  0  0  0
  187.0630  176.0840  143.3740 N   0  0  0  0  0  2  0  0  0  0  0  0
  187.9050  175.2370  142.5470 C   0  0  0  0  0  2  0  0  0  0  0  0
  187.7770  175.6510  141.0960 C   0  0  0  0  0  2  0  0  0  0  0  0
  188.5060  174.3750  140.0340 S   0  0  0  0  0  0  0  0  0  0  0  0
  189.8340  174.0260  141.2260 C   0  0  0  0  0  2  0  0  0  0  0  0
  192.1030  171.2950  140.9110 C   0  0  0  0  0  1  0  0  0  0  0  0
  190.0230  172.5230  141.3790 C   0  0  1  0  0  3  0  0  0  0  0  0
  191.4100  172.2420  141.8690 C   0  0  1  0  0  3  0  0  0  0  0  0
  192.1270  172.2740  144.0890 C   0  0  0  0  0  1  0  0  0  0  0  0
  189.9290  171.8680  143.5690 N   0  0  0  0  0  2  0  0  0  0  0  0
  189.1410  172.0150  142.4130 N   0  0  0  0  0  2  0  0  0  0  0  0
  191.2470  171.5950  143.1560 N   0  0  0  0  0  0  0  0  0  0  0  0
  1 23  1  6  0  0  0
  2 10  1  1  0  0  0
  2  9  1  0  0  0  0
  2  8  1  0  0  0  0
  3  6  2  0  0  0  0
  3 11  1  0  0  0  0
  4  1  1  1  0  0  0
  4  7  1  0  0  0  0
  7 11  1  0  0  0  0
  8  4  1  0  0  0  0
  8  3  1  1  0  0  0
  9  5  1  1  0  0  0
  9  8  1  0  0  0  0
 12 13  1  0  0  0  0
 13 15  1  0  0  0  0
 13 20  1  0  0  0  0
 14 16  1  0  0  0  0
 14  1  1  1  0  0  0
 14 15  1  0  0  0  0
 15 19  1  1  0  0  0
 16 17  1  6  0  0  0
 16 12  1  0  0  0  0
 19 18  2  0  0  0  0
 20 21  1  0  0  0  0
 22 21  1  0  0  0  0
 24 23  1  0  0  0  0
 25 24  1  0  0  0  0
 26 25  1  0  0  0  0
 26 27  1  0  0  0  0
 29 27  1  1  0  0  0
 29 30  1  0  0  0  0
 29 33  1  0  0  0  0
 30 28  1  6  0  0  0
 30 34  1  0  0  0  0
 33 32  1  0  0  0  0
 34 32  1  0  0  0  0
 34 31  1  0  0  0  0
M  END
>  <MODEL>
7

>  <REMARK>
 VINA RESULT:      -5.8      2.641      6.258
  Name = 
  11 active torsions:
  status: ('A' for Active; 'I' for Inactive)
    1  A    between atoms: C_3  and  C_13
    2  A    between atoms: C_3  and  S_17
    3  A    between atoms: C_4  and  C_31
    4  A    between atoms: N_5  and  C_18
    5  A    between atoms: N_5  and  C_31
    6  A    between atoms: N_8  and  C_27
    7  A    between atoms: C_12  and  C_27
    8  A    between atoms: S_17  and  C_29
    9  A    between atoms: C_18  and  C_29
   10  A    between atoms: C_21  and  C_31
   11  A    between atoms: C_26  and  C_28
                            x       y       z     vdW  Elec       q    Type
                         _______ _______ _______ _____ _____    ______ ____

>  <TORSDO>
F 11

$$$$
=
 OpenBabel11052418573D

 34 37  0  0  1  0  0  0  0  0999 V2000
  188.2600  176.8900  143.1670 C   0  0  2  0  0  3  0  0  0  0  0  0
  188.9490  175.7340  146.0780 C   0  0  2  0  0  3  0  0  0  0  0  0
  191.1530  176.8760  145.0800 C   0  0  0  0  0  0  0  0  0  0  0  0
  189.1360  177.6480  144.1790 C   0  0  2  0  0  3  0  0  0  0  0  0
  190.1790  177.1300  147.6390 O   0  0  0  0  0  1  0  0  0  0  0  0
  192.0670  176.2560  145.6870 O   0  0  0  0  0  0  0  0  0  0  0  0
  190.2290  178.2710  143.5010 O   0  0  0  0  0  0  0  0  0  0  0  0
  189.7200  176.7690  145.2760 C   0  0  1  0  0  0  0  0  0  0  0  0
  189.1850  177.1420  146.6530 C   0  0  1  0  0  3  0  0  0  0  0  0
  189.8180  174.7910  146.6340 O   0  0  0  0  0  1  0  0  0  0  0  0
  191.3580  177.7540  144.0460 O   0  0  0  0  0  0  0  0  0  0  0  0
  185.1680  178.9550  143.4990 C   0  0  0  0  0  2  0  0  0  0  0  0
  184.6870  177.9310  142.5770 N   0  0  0  0  0  0  0  0  0  0  0  0
  186.7610  177.1400  143.4070 C   0  0  2  0  0  3  0  0  0  0  0  0
  185.8820  177.1810  142.1570 C   0  0  2  0  0  3  0  0  0  0  0  0
  186.4740  178.4570  144.1040 C   0  0  2  0  0  3  0  0  0  0  0  0
  186.3030  178.2410  145.4710 O   0  0  0  0  0  1  0  0  0  0  0  0
  186.7530  177.1500  139.9230 O   0  0  0  0  0  0  0  0  0  0  0  0
  186.5930  177.7840  140.9550 C   0  0  0  0  0  3  0  0  0  0  0  0
  183.9710  178.5780  141.4790 C   0  0  0  0  0  2  0  0  0  0  0  0
  182.6200  177.9160  141.2700 C   0  0  0  0  0  2  0  0  0  0  0  0
  181.6110  178.6890  141.8460 O   0  0  0  0  0  1  0  0  0  0  0  0
  188.5470  175.4580  143.1890 N   0  0  0  0  0  2  0  0  0  0  0  0
  189.3390  175.1500  142.0110 C   0  0  0  0  0  2  0  0  0  0  0  0
  190.5890  174.3990  142.4190 C   0  0  0  0  0  2  0  0  0  0  0  0
  190.2070  172.6360  142.5960 S   0  0  0  0  0  0  0  0  0  0  0  0
  191.1780  172.1940  141.1240 C   0  0  0  0  0  2  0  0  0  0  0  0
  188.1980  172.6650  139.2250 C   0  0  0  0  0  1  0  0  0  0  0  0
  190.2690  171.6210  140.0450 C   0  0  1  0  0  3  0  0  0  0  0  0
  189.7110  172.7360  139.2170 C   0  0  1  0  0  3  0  0  0  0  0  0
  190.7510  173.7640  137.3980 C   0  0  0  0  0  1  0  0  0  0  0  0
  191.2790  171.6120  137.9920 N   0  0  0  0  0  2  0  0  0  0  0  0
  191.0430  170.8100  139.1240 N   0  0  0  0  0  2  0  0  0  0  0  0
  190.2000  172.5070  137.8720 N   0  0  0  0  0  0  0  0  0  0  0  0
  1 23  1  1  0  0  0
  2 10  1  1  0  0  0
  2  9  1  0  0  0  0
  3  6  2  0  0  0  0
  4  1  1  6  0  0  0
  4  8  1  0  0  0  0
  7 11  1  0  0  0  0
  7  4  1  0  0  0  0
  8  3  1  6  0  0  0
  8  2  1  0  0  0  0
  8  9  1  0  0  0  0
  9  5  1  1  0  0  0
 11  3  1  0  0  0  0
 12 16  1  0  0  0  0
 13 12  1  0  0  0  0
 14  1  1  6  0  0  0
 14 16  1  0  0  0  0
 15 19  1  6  0  0  0
 15 13  1  0  0  0  0
 15 14  1  0  0  0  0
 16 17  1  1  0  0  0
 18 19  2  0  0  0  0
 20 13  1  0  0  0  0
 21 20  1  0  0  0  0
 21 22  1  0  0  0  0
 24 25  1  0  0  0  0
 24 23  1  0  0  0  0
 25 26  1  0  0  0  0
 27 26  1  0  0  0  0
 29 27  1  1  0  0  0
 30 28  1  6  0  0  0
 30 29  1  0  0  0  0
 31 34  1  0  0  0  0
 32 33  1  0  0  0  0
 33 29  1  0  0  0  0
 34 32  1  0  0  0  0
 34 30  1  0  0  0  0
M  END
>  <MODEL>
8

>  <REMARK>
 VINA RESULT:      -5.7      2.630      3.783
  Name = 
  11 active torsions:
  status: ('A' for Active; 'I' for Inactive)
    1  A    between atoms: C_3  and  C_13
    2  A    between atoms: C_3  and  S_17
    3  A    between atoms: C_4  and  C_31
    4  A    between atoms: N_5  and  C_18
    5  A    between atoms: N_5  and  C_31
    6  A    between atoms: N_8  and  C_27
    7  A    between atoms: C_12  and  C_27
    8  A    between atoms: S_17  and  C_29
    9  A    between atoms: C_18  and  C_29
   10  A    between atoms: C_21  and  C_31
   11  A    between atoms: C_26  and  C_28
                            x       y       z     vdW  Elec       q    Type
                         _______ _______ _______ _____ _____    ______ ____

>  <TORSDO>
F 11

$$$$
=
 OpenBabel11052418573D

 34 37  0  0  1  0  0  0  0  0999 V2000
  189.8500  175.6960  143.8400 C   0  0  2  0  0  3  0  0  0  0  0  0
  189.3300  174.5060  140.9080 C   0  0  2  0  0  3  0  0  0  0  0  0
  190.2160  172.5290  142.4770 C   0  0  0  0  0  0  0  0  0  0  0  0
  189.2110  174.3170  143.6020 C   0  0  2  0  0  3  0  0  0  0  0  0
  188.1340  172.4040  140.6850 O   0  0  0  0  0  1  0  0  0  0  0  0
  190.7400  171.7450  141.6410 O   0  0  0  0  0  0  0  0  0  0  0  0
  189.7160  173.3800  144.5550 O   0  0  0  0  0  0  0  0  0  0  0  0
  189.4710  173.7440  142.2160 C   0  0  1  0  0  0  0  0  0  0  0  0
  188.1880  173.6030  141.4060 C   0  0  1  0  0  3  0  0  0  0  0  0
  190.0760  173.8940  139.8970 O   0  0  0  0  0  1  0  0  0  0  0  0
  190.3110  172.3950  143.8390 O   0  0  0  0  0  0  0  0  0  0  0  0
  186.4710  176.9750  144.7810 C   0  0  0  0  0  2  0  0  0  0  0  0
  187.2980  177.7590  145.6930 N   0  0  0  0  0  0  0  0  0  0  0  0
  188.7930  176.7730  144.1410 C   0  0  2  0  0  3  0  0  0  0  0  0
  188.6460  177.1750  145.6080 C   0  0  2  0  0  3  0  0  0  0  0  0
  187.3890  176.3710  143.7260 C   0  0  2  0  0  3  0  0  0  0  0  0
  187.0900  176.9180  142.4790 O   0  0  0  0  0  1  0  0  0  0  0  0
  189.8600  175.9620  147.2830 O   0  0  0  0  0  0  0  0  0  0  0  0
  188.8740  176.0140  146.5640 C   0  0  0  0  0  3  0  0  0  0  0  0
  186.7090  177.7100  147.0300 C   0  0  0  0  0  2  0  0  0  0  0  0
  185.7310  178.8580  147.2160 C   0  0  0  0  0  2  0  0  0  0  0  0
  184.4230  178.3730  147.2560 O   0  0  0  0  0  1  0  0  0  0  0  0
  190.6770  176.0980  142.7060 N   0  0  0  0  0  2  0  0  0  0  0  0
  192.0590  176.1210  143.1550 C   0  0  0  0  0  2  0  0  0  0  0  0
  192.9600  175.5910  142.0600 C   0  0  0  0  0  2  0  0  0  0  0  0
  194.4480  174.8640  142.7980 S   0  0  0  0  0  0  0  0  0  0  0  0
  193.4790  173.6970  143.8010 C   0  0  0  0  0  2  0  0  0  0  0  0
  196.2910  174.1700  145.9410 C   0  0  0  0  0  1  0  0  0  0  0  0
  193.9820  173.6940  145.2380 C   0  0  1  0  0  3  0  0  0  0  0  0
  195.0060  174.7720  145.4120 C   0  0  1  0  0  3  0  0  0  0  0  0
  194.5830  177.0220  145.8640 C   0  0  0  0  0  1  0  0  0  0  0  0
  193.0770  175.3990  146.4650 N   0  0  0  0  0  2  0  0  0  0  0  0
  192.9020  174.0410  146.1420 N   0  0  0  0  0  2  0  0  0  0  0  0
  194.4550  175.6790  146.4000 N   0  0  0  0  0  0  0  0  0  0  0  0
  1 23  1  6  0  0  0
  2 10  1  6  0  0  0
  2  9  1  0  0  0  0
  2  8  1  0  0  0  0
  3 11  1  0  0  0  0
  4  1  1  6  0  0  0
  4  7  1  0  0  0  0
  6  3  2  0  0  0  0
  8  3  1  6  0  0  0
  8  4  1  0  0  0  0
  9  5  1  6  0  0  0
  9  8  1  0  0  0  0
 11  7  1  0  0  0  0
 12 13  1  0  0  0  0
 13 20  1  0  0  0  0
 14  1  1  1  0  0  0
 14 15  1  0  0  0  0
 15 13  1  0  0  0  0
 15 19  1  1  0  0  0
 16 17  1  6  0  0  0
 16 14  1  0  0  0  0
 16 12  1  0  0  0  0
 19 18  2  0  0  0  0
 20 21  1  0  0  0  0
 21 22  1  0  0  0  0
 23 24  1  0  0  0  0
 25 26  1  0  0  0  0
 25 24  1  0  0  0  0
 26 27  1  0  0  0  0
 29 27  1  6  0  0  0
 29 30  1  0  0  0  0
 29 33  1  0  0  0  0
 30 28  1  1  0  0  0
 30 34  1  0  0  0  0
 31 34  1  0  0  0  0
 33 32  1  0  0  0  0
 34 32  1  0  0  0  0
M  END
>  <MODEL>
9

>  <REMARK>
 VINA RESULT:      -5.7      2.627      4.677
  Name = 
  11 active torsions:
  status: ('A' for Active; 'I' for Inactive)
    1  A    between atoms: C_3  and  C_13
    2  A    between atoms: C_3  and  S_17
    3  A    between atoms: C_4  and  C_31
    4  A    between atoms: N_5  and  C_18
    5  A    between atoms: N_5  and  C_31
    6  A    between atoms: N_8  and  C_27
    7  A    between atoms: C_12  and  C_27
    8  A    between atoms: S_17  and  C_29
    9  A    between atoms: C_18  and  C_29
   10  A    between atoms: C_21  and  C_31
   11  A    between atoms: C_26  and  C_28
                            x       y       z     vdW  Elec       q    Type
                         _______ _______ _______ _____ _____    ______ ____

>  <TORSDO>
F 11

$$$$
