=
 OpenBabel11052421423D

 32 37  0  0  0  0  0  0  0  0999 V2000
  194.9750  175.4810  144.9920 C   0  0  0  0  0  0  0  0  0  0  0  0
  189.9020  175.6710  144.8370 C   0  0  0  0  0  0  0  0  0  0  0  0
  190.4130  173.6900  140.6350 C   0  0  0  0  0  1  0  0  0  0  0  0
  188.1590  174.9420  140.6140 N   0  0  0  0  0  0  0  0  0  0  0  0
  188.1790  176.8770  146.1220 C   0  0  0  0  0  0  0  0  0  0  0  0
  186.8930  177.4420  146.1590 C   0  0  0  0  0  0  0  0  0  0  0  0
  192.2390  175.6250  145.5930 C   0  0  0  0  0  0  0  0  0  0  0  0
  191.7850  174.9660  143.3240 C   0  0  0  0  0  2  0  0  0  0  0  0
  184.3130  178.5480  146.2010 C   0  0  0  0  0  3  0  0  0  0  0  0
  194.0310  175.2210  143.9940 C   0  0  0  0  0  3  0  0  0  0  0  0
  189.4020  174.6000  141.2400 C   0  0  0  0  0  0  0  0  0  0  0  0
  190.3200  174.8270  143.6320 C   0  0  0  0  0  0  0  0  0  0  0  0
  189.4400  175.1020  142.4660 C   0  0  0  0  0  0  0  0  0  0  0  0
  187.7660  176.2380  143.8050 C   0  0  0  0  0  0  0  0  0  0  0  0
  185.1190  178.6140  147.3400 C   0  0  0  0  0  3  0  0  0  0  0  0
  194.5550  175.7820  146.2920 C   0  0  0  0  0  3  0  0  0  0  0  0
  192.6640  175.2700  144.2860 C   0  0  0  0  0  0  0  0  0  0  0  0
  186.4040  178.0630  147.3200 C   0  0  0  0  0  3  0  0  0  0  0  0
  193.1920  175.8620  146.5890 C   0  0  0  0  0  3  0  0  0  0  0  0
  187.4340  175.5980  141.4320 N   0  0  0  0  0  0  0  0  0  0  0  0
  188.1700  175.7230  142.6410 C   0  0  0  0  0  0  0  0  0  0  0  0
  186.5280  176.7920  143.8850 N   0  0  0  0  0  2  0  0  0  0  0  0
  190.9450  175.8270  145.8770 C   0  0  0  0  0  3  0  0  0  0  0  0
  188.8930  176.9290  147.1620 O   0  0  0  0  0  0  0  0  0  0  0  0
  184.7880  177.9320  145.0400 C   0  0  0  0  0  3  0  0  0  0  0  0
  188.6490  176.2410  144.9350 C   0  0  0  0  0  0  0  0  0  0  0  0
  186.0730  177.3800  145.0160 C   0  0  0  0  0  0  0  0  0  0  0  0
  196.4270  175.3900  144.6820 C   0  0  0  0  0  2  0  0  0  0  0  0
  197.1480  173.0960  145.4310 C   0  0  0  0  0  0  0  0  0  0  0  0
  196.7840  174.0090  144.3980 N   0  0  0  0  0  2  0  0  0  0  0  0
  197.4900  171.7560  145.0990 N   0  0  0  0  0  1  0  0  0  0  0  0
  197.1710  173.4640  146.6350 O   0  0  0  0  0  0  0  0  0  0  0  0
  1 16  1  0  0  0  0
  2 26  1  0  0  0  0
  2 23  2  0  0  0  0
  3 11  1  0  0  0  0
  4 11  2  0  0  0  0
  4 20  1  0  0  0  0
  5  6  1  0  0  0  0
  5 24  2  0  0  0  0
  6 18  1  0  0  0  0
  7 23  1  0  0  0  0
  7 19  1  0  0  0  0
  8 12  1  0  0  0  0
  8 17  1  0  0  0  0
  9 15  1  0  0  0  0
 10 17  1  0  0  0  0
 10  1  2  0  0  0  0
 11 13  1  0  0  0  0
 12  2  1  0  0  0  0
 13 21  1  0  0  0  0
 13 12  2  0  0  0  0
 14 22  1  0  0  0  0
 14 26  2  0  0  0  0
 16 19  2  0  0  0  0
 17  7  2  0  0  0  0
 18 15  2  0  0  0  0
 20 21  2  0  0  0  0
 21 14  1  0  0  0  0
 22 27  1  0  0  0  0
 25  9  2  0  0  0  0
 26  5  1  0  0  0  0
 27 25  1  0  0  0  0
 27  6  2  0  0  0  0
 28  1  1  0  0  0  0
 29 32  2  0  0  0  0
 30 28  1  0  0  0  0
 30 29  1  0  0  0  0
 31 29  1  0  0  0  0
M  END
>  <MODEL>
1

>  <REMARK>
 VINA RESULT:      -9.3      0.000      0.000
  Name = 
  2 active torsions:
  status: ('A' for Active; 'I' for Inactive)
    1  A    between atoms: C_2  and  C_24
    2  A    between atoms: N_10  and  C_24
                            x       y       z     vdW  Elec       q    Type
                         _______ _______ _______ _____ _____    ______ ____

>  <TORSDO>
F 2

$$$$
=
 OpenBabel11052421423D

 32 37  0  0  0  0  0  0  0  0999 V2000
  194.7810  175.1160  145.1490 C   0  0  0  0  0  0  0  0  0  0  0  0
  189.7320  175.5430  144.8050 C   0  0  0  0  0  0  0  0  0  0  0  0
  190.3210  173.6750  140.5620 C   0  0  0  0  0  1  0  0  0  0  0  0
  188.1280  175.0300  140.4970 N   0  0  0  0  0  0  0  0  0  0  0  0
  188.0150  176.7850  146.0630 C   0  0  0  0  0  0  0  0  0  0  0  0
  186.7540  177.4070  146.0690 C   0  0  0  0  0  0  0  0  0  0  0  0
  192.0320  175.3660  145.6490 C   0  0  0  0  0  0  0  0  0  0  0  0
  191.6400  174.8010  143.3430 C   0  0  0  0  0  2  0  0  0  0  0  0
  184.2260  178.6290  146.0490 C   0  0  0  0  0  3  0  0  0  0  0  0
  193.8670  174.9310  144.1070 C   0  0  0  0  0  3  0  0  0  0  0  0
  189.3290  174.6110  141.1580 C   0  0  0  0  0  0  0  0  0  0  0  0
  190.1590  174.7200  143.5900 C   0  0  0  0  0  0  0  0  0  0  0  0
  189.3400  175.0710  142.4000 C   0  0  0  0  0  0  0  0  0  0  0  0
  187.6660  176.2400  143.7110 C   0  0  0  0  0  0  0  0  0  0  0  0
  184.9890  178.6210  147.2200 C   0  0  0  0  0  3  0  0  0  0  0  0
  194.3240  175.3940  146.4410 C   0  0  0  0  0  3  0  0  0  0  0  0
  192.4930  175.0340  144.3480 C   0  0  0  0  0  0  0  0  0  0  0  0
  186.2470  178.0130  147.2310 C   0  0  0  0  0  3  0  0  0  0  0  0
  192.9550  175.5270  146.6870 C   0  0  0  0  0  3  0  0  0  0  0  0
  187.4010  175.6920  141.3080 N   0  0  0  0  0  0  0  0  0  0  0  0
  188.0930  175.7440  142.5480 C   0  0  0  0  0  0  0  0  0  0  0  0
  186.4520  176.8470  143.7630 N   0  0  0  0  0  2  0  0  0  0  0  0
  190.7380  175.6180  145.8890 C   0  0  0  0  0  3  0  0  0  0  0  0
  188.6880  176.7720  147.1310 O   0  0  0  0  0  0  0  0  0  0  0  0
  184.7200  178.0290  144.8880 C   0  0  0  0  0  3  0  0  0  0  0  0
  188.5020  176.1660  144.8740 C   0  0  0  0  0  0  0  0  0  0  0  0
  185.9780  177.4190  144.8940 C   0  0  0  0  0  0  0  0  0  0  0  0
  196.2390  174.9680  144.8920 C   0  0  0  0  0  2  0  0  0  0  0  0
  197.0090  175.9790  142.7170 C   0  0  0  0  0  0  0  0  0  0  0  0
  196.4800  174.8820  143.4610 N   0  0  0  0  0  2  0  0  0  0  0  0
  197.2250  175.8420  141.3180 N   0  0  0  0  0  1  0  0  0  0  0  0
  197.2860  177.0670  143.2870 O   0  0  0  0  0  0  0  0  0  0  0  0
  1 16  1  0  0  0  0
  2 26  1  0  0  0  0
  2 23  2  0  0  0  0
  3 11  1  0  0  0  0
  4 11  2  0  0  0  0
  4 20  1  0  0  0  0
  5  6  1  0  0  0  0
  5 24  2  0  0  0  0
  6 18  1  0  0  0  0
  7 23  1  0  0  0  0
  7 19  1  0  0  0  0
  8 12  1  0  0  0  0
  8 17  1  0  0  0  0
  9 15  1  0  0  0  0
 10 17  1  0  0  0  0
 10  1  2  0  0  0  0
 11 13  1  0  0  0  0
 12  2  1  0  0  0  0
 13 21  1  0  0  0  0
 13 12  2  0  0  0  0
 14 22  1  0  0  0  0
 14 26  2  0  0  0  0
 15 18  2  0  0  0  0
 16 19  2  0  0  0  0
 17  7  2  0  0  0  0
 20 21  2  0  0  0  0
 21 14  1  0  0  0  0
 22 27  1  0  0  0  0
 25 27  1  0  0  0  0
 25  9  2  0  0  0  0
 26  5  1  0  0  0  0
 27  6  2  0  0  0  0
 28  1  1  0  0  0  0
 29 32  2  0  0  0  0
 29 30  1  0  0  0  0
 30 28  1  0  0  0  0
 31 29  1  0  0  0  0
M  END
>  <MODEL>
2

>  <REMARK>
 VINA RESULT:      -9.3      1.198      1.527
  Name = 
  2 active torsions:
  status: ('A' for Active; 'I' for Inactive)
    1  A    between atoms: C_2  and  C_24
    2  A    between atoms: N_10  and  C_24
                            x       y       z     vdW  Elec       q    Type
                         _______ _______ _______ _____ _____    ______ ____

>  <TORSDO>
F 2

$$$$
=
 OpenBabel11052421423D

 32 37  0  0  0  0  0  0  0  0999 V2000
  190.3200  172.2410  140.1590 C   0  0  0  0  0  0  0  0  0  0  0  0
  189.0470  175.6160  143.7340 C   0  0  0  0  0  0  0  0  0  0  0  0
  193.1280  174.4180  145.6710 C   0  0  0  0  0  1  0  0  0  0  0  0
  191.6190  175.3000  147.5660 N   0  0  0  0  0  0  0  0  0  0  0  0
  186.9530  176.7500  144.3700 C   0  0  0  0  0  0  0  0  0  0  0  0
  186.1820  177.3580  145.3760 C   0  0  0  0  0  0  0  0  0  0  0  0
  189.2090  174.3520  141.6340 C   0  0  0  0  0  0  0  0  0  0  0  0
  190.9160  173.9910  143.2900 C   0  0  0  0  0  3  0  0  0  0  0  0
  184.6730  178.5760  147.4060 C   0  0  0  0  0  3  0  0  0  0  0  0
  190.8690  172.5870  141.3970 C   0  0  0  0  0  3  0  0  0  0  0  0
  191.8260  174.9040  146.2040 C   0  0  0  0  0  0  0  0  0  0  0  0
  190.4980  175.2340  144.0260 C   0  0  0  0  0  0  0  0  0  0  0  0
  190.7400  175.1650  145.4920 C   0  0  0  0  0  0  0  0  0  0  0  0
  188.6820  176.3270  146.0390 C   0  0  0  0  0  0  0  0  0  0  0  0
  184.1620  178.4980  146.1080 C   0  0  0  0  0  3  0  0  0  0  0  0
  189.2400  172.9650  139.6450 C   0  0  0  0  0  3  0  0  0  0  0  0
  190.3370  173.6500  142.1330 C   0  0  0  0  0  0  0  0  0  0  0  0
  184.9130  177.8910  145.0970 C   0  0  0  0  0  3  0  0  0  0  0  0
  188.6810  174.0110  140.3840 C   0  0  0  0  0  3  0  0  0  0  0  0
  190.4630  175.8230  147.6890 N   0  0  0  0  0  2  0  0  0  0  0  0
  189.8490  175.7940  146.4070 C   0  0  0  0  0  0  0  0  0  0  0  0
  187.9060  176.9270  146.9780 N   0  0  0  0  0  2  0  0  0  0  0  0
  188.5790  175.2770  142.3700 C   0  0  0  0  0  3  0  0  0  0  0  0
  186.4880  176.6980  143.1980 O   0  0  0  0  0  0  0  0  0  0  0  0
  185.9340  178.0490  147.6950 C   0  0  0  0  0  3  0  0  0  0  0  0
  188.2440  176.2260  144.6760 C   0  0  0  0  0  0  0  0  0  0  0  0
  186.6890  177.4420  146.6870 C   0  0  0  0  0  0  0  0  0  0  0  0
  190.9160  171.1320  139.3660 C   0  0  0  0  0  2  0  0  0  0  0  0
  190.1460  170.5220  137.0460 C   0  0  0  0  0  0  0  0  0  0  0  0
  190.7930  171.4210  137.9460 N   0  0  0  0  0  2  0  0  0  0  0  0
  190.0530  170.8530  135.6660 N   0  0  0  0  0  1  0  0  0  0  0  0
  189.6570  169.4390  137.4620 O   0  0  0  0  0  0  0  0  0  0  0  0
  1 10  1  0  0  0  0
  2 12  1  0  0  0  0
  2 26  1  0  0  0  0
  3 11  1  0  0  0  0
  4 20  1  0  0  0  0
  5 26  1  0  0  0  0
  5  6  1  0  0  0  0
  6 27  1  0  0  0  0
  7 17  1  0  0  0  0
  7 23  1  0  0  0  0
  8 12  2  0  0  0  0
  9 25  1  0  0  0  0
 10 17  2  0  0  0  0
 11  4  2  0  0  0  0
 12 13  1  0  0  0  0
 13 11  1  0  0  0  0
 13 21  2  0  0  0  0
 14 21  1  0  0  0  0
 14 22  1  0  0  0  0
 15  9  2  0  0  0  0
 16  1  2  0  0  0  0
 16 19  1  0  0  0  0
 17  8  1  0  0  0  0
 18  6  2  0  0  0  0
 18 15  1  0  0  0  0
 19  7  2  0  0  0  0
 21 20  1  0  0  0  0
 23  2  2  0  0  0  0
 24  5  2  0  0  0  0
 26 14  2  0  0  0  0
 27 22  1  0  0  0  0
 27 25  2  0  0  0  0
 28  1  1  0  0  0  0
 29 32  2  0  0  0  0
 29 30  1  0  0  0  0
 30 28  1  0  0  0  0
 31 29  1  0  0  0  0
M  END
>  <MODEL>
3

>  <REMARK>
 VINA RESULT:      -8.7      3.453      5.969
  Name = 
  2 active torsions:
  status: ('A' for Active; 'I' for Inactive)
    1  A    between atoms: C_2  and  C_24
    2  A    between atoms: N_10  and  C_24
                            x       y       z     vdW  Elec       q    Type
                         _______ _______ _______ _____ _____    ______ ____

>  <TORSDO>
F 2

$$$$
=
 OpenBabel11052421423D

 32 37  0  0  0  0  0  0  0  0999 V2000
  190.1190  171.9480  140.2450 C   0  0  0  0  0  0  0  0  0  0  0  0
  188.9920  175.4820  143.7150 C   0  0  0  0  0  0  0  0  0  0  0  0
  193.1280  174.3320  145.5620 C   0  0  0  0  0  1  0  0  0  0  0  0
  191.6900  175.3060  147.4680 N   0  0  0  0  0  0  0  0  0  0  0  0
  186.9290  176.6590  144.3730 C   0  0  0  0  0  0  0  0  0  0  0  0
  186.1960  177.3150  145.3770 C   0  0  0  0  0  0  0  0  0  0  0  0
  189.0730  174.1290  141.6660 C   0  0  0  0  0  0  0  0  0  0  0  0
  190.8340  173.8240  143.2780 C   0  0  0  0  0  3  0  0  0  0  0  0
  184.7660  178.6310  147.4030 C   0  0  0  0  0  3  0  0  0  0  0  0
  190.7130  172.3410  141.4490 C   0  0  0  0  0  3  0  0  0  0  0  0
  191.8480  174.8510  146.1180 C   0  0  0  0  0  0  0  0  0  0  0  0
  190.4500  175.1000  143.9740 C   0  0  0  0  0  0  0  0  0  0  0  0
  190.7410  175.0910  145.4320 C   0  0  0  0  0  0  0  0  0  0  0  0
  188.7110  176.2930  145.9980 C   0  0  0  0  0  0  0  0  0  0  0  0
  184.2110  178.5020  146.1270 C   0  0  0  0  0  3  0  0  0  0  0  0
  189.0270  172.6590  139.7380 C   0  0  0  0  0  3  0  0  0  0  0  0
  190.2130  173.4390  142.1560 C   0  0  0  0  0  0  0  0  0  0  0  0
  184.9220  177.8470  145.1180 C   0  0  0  0  0  3  0  0  0  0  0  0
  188.5010  173.7400  140.4500 C   0  0  0  0  0  3  0  0  0  0  0  0
  190.5430  175.8430  147.6070 N   0  0  0  0  0  2  0  0  0  0  0  0
  189.8850  175.7650  146.3500 C   0  0  0  0  0  0  0  0  0  0  0  0
  187.9710  176.9380  146.9370 N   0  0  0  0  0  2  0  0  0  0  0  0
  188.4750  175.0890  142.3840 C   0  0  0  0  0  3  0  0  0  0  0  0
  186.4230  176.5620  143.2200 O   0  0  0  0  0  0  0  0  0  0  0  0
  186.0330  178.1060  147.6720 C   0  0  0  0  0  3  0  0  0  0  0  0
  188.2260  176.1380  144.6570 C   0  0  0  0  0  0  0  0  0  0  0  0
  186.7480  177.4500  146.6660 C   0  0  0  0  0  0  0  0  0  0  0  0
  190.6800  170.8020  139.4800 C   0  0  0  0  0  2  0  0  0  0  0  0
  191.5740  168.8280  140.7640 C   0  0  0  0  0  0  0  0  0  0  0  0
  191.7230  170.1540  140.2590 N   0  0  0  0  0  2  0  0  0  0  0  0
  192.6250  168.2410  141.5210 N   0  0  0  0  0  1  0  0  0  0  0  0
  190.5220  168.1720  140.5450 O   0  0  0  0  0  0  0  0  0  0  0  0
  1 10  1  0  0  0  0
  2 12  1  0  0  0  0
  2 26  1  0  0  0  0
  3 11  1  0  0  0  0
  4 20  1  0  0  0  0
  5 26  1  0  0  0  0
  5  6  1  0  0  0  0
  6 27  1  0  0  0  0
  7 17  1  0  0  0  0
  7 23  1  0  0  0  0
  8 12  2  0  0  0  0
  9 25  1  0  0  0  0
 10 17  2  0  0  0  0
 11  4  2  0  0  0  0
 12 13  1  0  0  0  0
 13 11  1  0  0  0  0
 13 21  2  0  0  0  0
 14 21  1  0  0  0  0
 14 22  1  0  0  0  0
 15  9  2  0  0  0  0
 16  1  2  0  0  0  0
 16 19  1  0  0  0  0
 17  8  1  0  0  0  0
 18  6  2  0  0  0  0
 18 15  1  0  0  0  0
 19  7  2  0  0  0  0
 21 20  1  0  0  0  0
 23  2  2  0  0  0  0
 24  5  2  0  0  0  0
 26 14  2  0  0  0  0
 27 22  1  0  0  0  0
 27 25  2  0  0  0  0
 28  1  1  0  0  0  0
 28 30  1  0  0  0  0
 29 31  1  0  0  0  0
 30 29  1  0  0  0  0
 32 29  2  0  0  0  0
M  END
>  <MODEL>
4

>  <REMARK>
 VINA RESULT:      -8.6      3.351      5.388
  Name = 
  2 active torsions:
  status: ('A' for Active; 'I' for Inactive)
    1  A    between atoms: C_2  and  C_24
    2  A    between atoms: N_10  and  C_24
                            x       y       z     vdW  Elec       q    Type
                         _______ _______ _______ _____ _____    ______ ____

>  <TORSDO>
F 2

$$$$
=
 OpenBabel11052421423D

 32 37  0  0  0  0  0  0  0  0999 V2000
  186.8910  177.3630  146.4250 C   0  0  0  0  0  0  0  0  0  0  0  0
  191.2360  175.6670  144.4130 C   0  0  0  0  0  0  0  0  0  0  0  0
  188.5670  174.5410  140.7460 C   0  0  0  0  0  1  0  0  0  0  0  0
  190.6220  172.9860  140.6940 N   0  0  0  0  0  0  0  0  0  0  0  0
  193.4650  175.1320  145.3190 C   0  0  0  0  0  0  0  0  0  0  0  0
  194.6490  174.3830  145.2130 C   0  0  0  0  0  0  0  0  0  0  0  0
  189.5730  176.8560  145.7750 C   0  0  0  0  0  0  0  0  0  0  0  0
  188.8000  175.7450  143.7860 C   0  0  0  0  0  2  0  0  0  0  0  0
  197.0060  172.8770  144.9650 C   0  0  0  0  0  3  0  0  0  0  0  0
  187.2010  176.6380  145.2690 C   0  0  0  0  0  3  0  0  0  0  0  0
  189.8190  173.9870  141.3300 C   0  0  0  0  0  0  0  0  0  0  0  0
  190.2110  175.6190  143.2800 C   0  0  0  0  0  0  0  0  0  0  0  0
  190.4290  174.4240  142.4220 C   0  0  0  0  0  0  0  0  0  0  0  0
  192.6360  173.9870  143.3310 C   0  0  0  0  0  0  0  0  0  0  0  0
  196.8680  173.7910  146.0130 C   0  0  0  0  0  3  0  0  0  0  0  0
  187.9170  177.8580  147.2360 C   0  0  0  0  0  3  0  0  0  0  0  0
  188.5340  176.3960  144.9240 C   0  0  0  0  0  0  0  0  0  0  0  0
  195.6950  174.5400  146.1380 C   0  0  0  0  0  3  0  0  0  0  0  0
  189.2530  177.5980  146.9170 C   0  0  0  0  0  3  0  0  0  0  0  0
  191.7080  172.8320  141.3430 N   0  0  0  0  0  0  0  0  0  0  0  0
  191.6710  173.7280  142.4450 C   0  0  0  0  0  0  0  0  0  0  0  0
  193.7980  173.2880  143.2640 N   0  0  0  0  0  2  0  0  0  0  0  0
  190.8530  176.5210  145.5610 C   0  0  0  0  0  3  0  0  0  0  0  0
  193.3580  175.9650  146.2620 O   0  0  0  0  0  0  0  0  0  0  0  0
  195.9720  172.7120  144.0400 C   0  0  0  0  0  3  0  0  0  0  0  0
  192.4220  174.9630  144.3610 C   0  0  0  0  0  0  0  0  0  0  0  0
  194.7970  173.4600  144.1600 C   0  0  0  0  0  0  0  0  0  0  0  0
  185.4710  177.6480  146.7640 C   0  0  0  0  0  2  0  0  0  0  0  0
  184.5810  178.7430  144.6780 C   0  0  0  0  0  0  0  0  0  0  0  0
  184.6620  177.6220  145.5560 N   0  0  0  0  0  2  0  0  0  0  0  0
  183.7730  178.6660  143.5100 N   0  0  0  0  0  1  0  0  0  0  0  0
  185.2170  179.8010  144.9270 O   0  0  0  0  0  0  0  0  0  0  0  0
  1 28  1  0  0  0  0
  1 16  1  0  0  0  0
  2 23  2  0  0  0  0
  3 11  1  0  0  0  0
  4 11  2  0  0  0  0
  4 20  1  0  0  0  0
  5 24  2  0  0  0  0
  6  5  1  0  0  0  0
  6 18  1  0  0  0  0
  7 19  1  0  0  0  0
  8 17  1  0  0  0  0
  9 15  1  0  0  0  0
 10  1  2  0  0  0  0
 11 13  1  0  0  0  0
 12  8  1  0  0  0  0
 12  2  1  0  0  0  0
 13 21  1  0  0  0  0
 13 12  2  0  0  0  0
 14 26  2  0  0  0  0
 15 18  2  0  0  0  0
 17 10  1  0  0  0  0
 17  7  2  0  0  0  0
 19 16  2  0  0  0  0
 20 21  2  0  0  0  0
 21 14  1  0  0  0  0
 22 14  1  0  0  0  0
 22 27  1  0  0  0  0
 23  7  1  0  0  0  0
 25 27  1  0  0  0  0
 25  9  2  0  0  0  0
 26  2  1  0  0  0  0
 26  5  1  0  0  0  0
 27  6  2  0  0  0  0
 29 32  2  0  0  0  0
 29 30  1  0  0  0  0
 30 28  1  0  0  0  0
 31 29  1  0  0  0  0
M  END
>  <MODEL>
5

>  <REMARK>
 VINA RESULT:      -8.3      2.102      8.161
  Name = 
  2 active torsions:
  status: ('A' for Active; 'I' for Inactive)
    1  A    between atoms: C_2  and  C_24
    2  A    between atoms: N_10  and  C_24
                            x       y       z     vdW  Elec       q    Type
                         _______ _______ _______ _____ _____    ______ ____

>  <TORSDO>
F 2

$$$$
=
 OpenBabel11052421423D

 32 37  0  0  0  0  0  0  0  0999 V2000
  191.4330  170.7310  142.7020 C   0  0  0  0  0  0  0  0  0  0  0  0
  189.3760  175.2600  143.7280 C   0  0  0  0  0  0  0  0  0  0  0  0
  192.7920  175.5810  146.9020 C   0  0  0  0  0  1  0  0  0  0  0  0
  190.8710  177.1050  147.6980 N   0  0  0  0  0  0  0  0  0  0  0  0
  187.2190  176.3340  143.2090 C   0  0  0  0  0  0  0  0  0  0  0  0
  186.2320  177.2680  143.5690 C   0  0  0  0  0  0  0  0  0  0  0  0
  190.0370  173.1630  142.6320 C   0  0  0  0  0  0  0  0  0  0  0  0
  191.2530  173.8280  144.5990 C   0  0  0  0  0  3  0  0  0  0  0  0
  184.2860  179.1500  144.3120 C   0  0  0  0  0  3  0  0  0  0  0  0
  191.6560  171.6880  143.6970 C   0  0  0  0  0  3  0  0  0  0  0  0
  191.4100  176.1250  146.8030 C   0  0  0  0  0  0  0  0  0  0  0  0
  190.6930  175.2210  144.5030 C   0  0  0  0  0  0  0  0  0  0  0  0
  190.5500  175.8940  145.8210 C   0  0  0  0  0  0  0  0  0  0  0  0
  188.4520  176.9540  145.2210 C   0  0  0  0  0  0  0  0  0  0  0  0
  184.1240  178.4010  143.1430 C   0  0  0  0  0  3  0  0  0  0  0  0
  190.5400  171.0000  141.6590 C   0  0  0  0  0  3  0  0  0  0  0  0
  190.9810  172.9120  143.6620 C   0  0  0  0  0  0  0  0  0  0  0  0
  185.0920  177.4640  142.7730 C   0  0  0  0  0  3  0  0  0  0  0  0
  189.8380  172.2080  141.6300 C   0  0  0  0  0  3  0  0  0  0  0  0
  189.7360  177.4980  147.2700 N   0  0  0  0  0  2  0  0  0  0  0  0
  189.4700  176.7900  146.0680 C   0  0  0  0  0  0  0  0  0  0  0  0
  187.4760  177.8470  145.5280 N   0  0  0  0  0  2  0  0  0  0  0  0
  189.2640  174.2570  142.6440 C   0  0  0  0  0  3  0  0  0  0  0  0
  187.0680  175.6740  142.1430 O   0  0  0  0  0  0  0  0  0  0  0  0
  185.4170  178.9640  145.1110 C   0  0  0  0  0  3  0  0  0  0  0  0
  188.3750  176.1620  144.0270 C   0  0  0  0  0  0  0  0  0  0  0  0
  186.3880  178.0270  144.7440 C   0  0  0  0  0  0  0  0  0  0  0  0
  192.1840  169.4470  142.7250 C   0  0  0  0  0  2  0  0  0  0  0  0
  194.0740  168.8630  144.2840 C   0  0  0  0  0  0  0  0  0  0  0  0
  192.7080  169.2080  144.0600 N   0  0  0  0  0  2  0  0  0  0  0  0
  194.5360  168.6380  145.6100 N   0  0  0  0  0  1  0  0  0  0  0  0
  194.8750  168.7550  143.3180 O   0  0  0  0  0  0  0  0  0  0  0  0
  1 28  1  0  0  0  0
  1 10  1  0  0  0  0
  2 26  1  0  0  0  0
  2 12  1  0  0  0  0
  5  6  1  0  0  0  0
  5 26  1  0  0  0  0
  6 27  1  0  0  0  0
  7 23  1  0  0  0  0
  7 17  1  0  0  0  0
  9 25  1  0  0  0  0
 11  3  1  0  0  0  0
 11  4  2  0  0  0  0
 12  8  2  0  0  0  0
 12 13  1  0  0  0  0
 13 21  2  0  0  0  0
 13 11  1  0  0  0  0
 14 22  1  0  0  0  0
 14 21  1  0  0  0  0
 15  9  2  0  0  0  0
 16  1  2  0  0  0  0
 17 10  2  0  0  0  0
 17  8  1  0  0  0  0
 18 15  1  0  0  0  0
 18  6  2  0  0  0  0
 19 16  1  0  0  0  0
 19  7  2  0  0  0  0
 20  4  1  0  0  0  0
 21 20  1  0  0  0  0
 23  2  2  0  0  0  0
 24  5  2  0  0  0  0
 26 14  2  0  0  0  0
 27 25  2  0  0  0  0
 27 22  1  0  0  0  0
 28 30  1  0  0  0  0
 29 31  1  0  0  0  0
 30 29  1  0  0  0  0
 32 29  2  0  0  0  0
M  END
>  <MODEL>
6

>  <REMARK>
 VINA RESULT:      -8.3      3.082      4.753
  Name = 
  2 active torsions:
  status: ('A' for Active; 'I' for Inactive)
    1  A    between atoms: C_2  and  C_24
    2  A    between atoms: N_10  and  C_24
                            x       y       z     vdW  Elec       q    Type
                         _______ _______ _______ _____ _____    ______ ____

>  <TORSDO>
F 2

$$$$
=
 OpenBabel11052421423D

 32 37  0  0  1  0  0  0  0  0999 V2000
  192.2060  175.8230  145.3650 C   0  0  0  0  0  0  0  0  0  0  0  0
  187.7420  177.9260  144.1630 C   0  0  0  0  0  0  0  0  0  0  0  0
  187.4140  178.7490  148.7520 C   0  0  0  0  0  1  0  0  0  0  0  0
  185.0110  178.6670  147.8220 N   0  0  0  0  0  0  0  0  0  0  0  0
  186.2790  177.8570  142.1820 C   0  0  0  0  0  0  0  0  0  0  0  0
  184.9800  177.9500  141.6520 C   0  0  0  0  0  0  0  0  0  0  0  0
  190.0290  177.0320  144.0750 C   0  0  0  0  0  0  0  0  0  0  0  0
  189.0730  177.4460  146.2450 C   0  0  0  0  0  3  0  0  0  0  0  0
  182.3750  178.1530  140.6260 C   0  0  0  0  0  3  0  0  0  0  0  0
  191.1390  176.3160  146.1210 C   0  0  0  0  0  3  0  0  0  0  0  0
  186.4260  178.5060  147.6660 C   0  0  1  0  0  3  0  0  0  0  0  0
  187.9830  178.2810  145.6310 C   0  0  0  0  0  0  0  0  0  0  0  0
  186.7100  178.2490  146.3980 C   0  0  0  0  0  0  0  0  0  0  0  0
  185.3330  178.2270  144.4000 C   0  0  0  0  0  0  0  0  0  0  0  0
  183.4490  177.9160  139.7630 C   0  0  0  0  0  3  0  0  0  0  0  0
  192.2010  175.9600  143.9740 C   0  0  0  0  0  3  0  0  0  0  0  0
  190.0560  176.9380  145.4910 C   0  0  0  0  0  0  0  0  0  0  0  0
  184.7460  177.8140  140.2730 C   0  0  0  0  0  3  0  0  0  0  0  0
  191.1120  176.5550  143.3310 C   0  0  0  0  0  3  0  0  0  0  0  0
  184.4380  178.5530  146.6890 N   0  0  0  0  0  0  0  0  0  0  0  0
  185.4540  178.3070  145.7270 C   0  0  0  0  0  0  0  0  0  0  0  0
  184.0970  178.3140  143.8450 N   0  0  0  0  0  2  0  0  0  0  0  0
  188.9480  177.4860  143.4250 C   0  0  0  0  0  3  0  0  0  0  0  0
  187.2430  177.6570  141.3910 O   0  0  0  0  0  0  0  0  0  0  0  0
  182.5960  178.2890  141.9980 C   0  0  0  0  0  3  0  0  0  0  0  0
  186.4930  178.0100  143.5840 C   0  0  0  0  0  0  0  0  0  0  0  0
  183.8920  178.1890  142.5130 C   0  0  0  0  0  0  0  0  0  0  0  0
  193.3710  175.1950  146.0460 C   0  0  0  0  0  2  0  0  0  0  0  0
  195.3220  174.4470  144.6400 C   0  0  0  0  0  0  0  0  0  0  0  0
  194.0070  174.2410  145.1530 N   0  0  0  0  0  2  0  0  0  0  0  0
  195.8980  173.4820  143.7690 N   0  0  0  0  0  1  0  0  0  0  0  0
  195.9780  175.4770  144.9510 O   0  0  0  0  0  0  0  0  0  0  0  0
  1 28  1  0  0  0  0
  1 10  1  0  0  0  0
  2 12  1  0  0  0  0
  5 26  1  0  0  0  0
  6  5  1  0  0  0  0
  6 27  1  0  0  0  0
  7 17  1  0  0  0  0
  9 25  1  0  0  0  0
 11  4  1  0  0  0  0
 11  3  1  6  0  0  0
 12  8  2  0  0  0  0
 12 13  1  0  0  0  0
 13 11  1  0  0  0  0
 14 21  1  0  0  0  0
 15 18  1  0  0  0  0
 15  9  2  0  0  0  0
 16  1  2  0  0  0  0
 17 10  2  0  0  0  0
 17  8  1  0  0  0  0
 18  6  2  0  0  0  0
 19 16  1  0  0  0  0
 19  7  2  0  0  0  0
 20  4  2  0  0  0  0
 21 13  2  0  0  0  0
 21 20  1  0  0  0  0
 22 14  1  0  0  0  0
 23  7  1  0  0  0  0
 23  2  2  0  0  0  0
 24  5  2  0  0  0  0
 25 27  2  0  0  0  0
 26  2  1  0  0  0  0
 26 14  2  0  0  0  0
 27 22  1  0  0  0  0
 29 32  2  0  0  0  0
 29 30  1  0  0  0  0
 30 28  1  0  0  0  0
 31 29  1  0  0  0  0
M  END
>  <MODEL>
7

>  <REMARK>
 VINA RESULT:      -8.1      2.772      5.007
  Name = 
  2 active torsions:
  status: ('A' for Active; 'I' for Inactive)
    1  A    between atoms: C_2  and  C_24
    2  A    between atoms: N_10  and  C_24
                            x       y       z     vdW  Elec       q    Type
                         _______ _______ _______ _____ _____    ______ ____

>  <TORSDO>
F 2

$$$$
=
 OpenBabel11052421423D

 32 37  0  0  1  0  0  0  0  0999 V2000
  186.8130  176.6680  143.1700 C   0  0  0  0  0  0  0  0  0  0  0  0
  191.7610  175.5370  143.3550 C   0  0  0  0  0  0  0  0  0  0  0  0
  191.3510  176.5350  147.9020 C   0  0  0  0  0  1  0  0  0  0  0  0
  193.8200  176.9120  147.2630 N   0  0  0  0  0  0  0  0  0  0  0  0
  193.5370  175.2760  141.6660 C   0  0  0  0  0  0  0  0  0  0  0  0
  194.9040  175.3460  141.3490 C   0  0  0  0  0  0  0  0  0  0  0  0
  189.4020  175.7000  142.6900 C   0  0  0  0  0  0  0  0  0  0  0  0
  189.9800  176.3610  144.9310 C   0  0  0  0  0  3  0  0  0  0  0  0
  197.6450  175.4860  140.7550 C   0  0  0  0  0  3  0  0  0  0  0  0
  187.7910  176.7810  144.1630 C   0  0  0  0  0  3  0  0  0  0  0  0
  192.4610  176.6240  146.9140 C   0  0  1  0  0  3  0  0  0  0  0  0
  191.3170  175.6820  144.8110 C   0  0  0  0  0  0  0  0  0  0  0  0
  192.3820  176.3240  145.6260 C   0  0  0  0  0  0  0  0  0  0  0  0
  194.0870  175.9910  143.9320 C   0  0  0  0  0  0  0  0  0  0  0  0
  196.7340  175.1050  139.7660 C   0  0  0  0  0  3  0  0  0  0  0  0
  187.1170  176.0470  141.9550 C   0  0  0  0  0  3  0  0  0  0  0  0
  189.0800  176.2850  143.9430 C   0  0  0  0  0  0  0  0  0  0  0  0
  195.3700  175.0350  140.0610 C   0  0  0  0  0  3  0  0  0  0  0  0
  188.4100  175.5730  141.7130 C   0  0  0  0  0  3  0  0  0  0  0  0
  194.5660  176.7590  146.2400 N   0  0  0  0  0  0  0  0  0  0  0  0
  193.7290  176.3640  145.1630 C   0  0  0  0  0  0  0  0  0  0  0  0
  195.3990  176.0420  143.5840 N   0  0  0  0  0  2  0  0  0  0  0  0
  190.6580  175.3460  142.3860 C   0  0  0  0  0  3  0  0  0  0  0  0
  192.7250  174.9160  140.7680 O   0  0  0  0  0  0  0  0  0  0  0  0
  197.1930  175.7990  142.0400 C   0  0  0  0  0  3  0  0  0  0  0  0
  193.0900  175.5860  142.9850 C   0  0  0  0  0  0  0  0  0  0  0  0
  195.8290  175.7300  142.3400 C   0  0  0  0  0  0  0  0  0  0  0  0
  185.4340  177.1650  143.4260 C   0  0  0  0  0  2  0  0  0  0  0  0
  184.6640  178.3880  145.4890 C   0  0  0  0  0  0  0  0  0  0  0  0
  185.1900  177.2210  144.8580 N   0  0  0  0  0  2  0  0  0  0  0  0
  184.4450  178.3900  146.8940 N   0  0  0  0  0  1  0  0  0  0  0  0
  184.3940  179.4160  144.8140 O   0  0  0  0  0  0  0  0  0  0  0  0
  1 28  1  0  0  0  0
  1 10  1  0  0  0  0
  2 12  1  0  0  0  0
  5 26  1  0  0  0  0
  6  5  1  0  0  0  0
  6 27  1  0  0  0  0
  7 17  1  0  0  0  0
  9 25  1  0  0  0  0
 11  4  1  0  0  0  0
 11  3  1  1  0  0  0
 12  8  2  0  0  0  0
 12 13  1  0  0  0  0
 13 11  1  0  0  0  0
 14 21  1  0  0  0  0
 15 18  1  0  0  0  0
 15  9  2  0  0  0  0
 16  1  2  0  0  0  0
 17 10  2  0  0  0  0
 17  8  1  0  0  0  0
 18  6  2  0  0  0  0
 19 16  1  0  0  0  0
 19  7  2  0  0  0  0
 20  4  2  0  0  0  0
 21 13  2  0  0  0  0
 21 20  1  0  0  0  0
 22 14  1  0  0  0  0
 23  7  1  0  0  0  0
 23  2  2  0  0  0  0
 24  5  2  0  0  0  0
 25 27  2  0  0  0  0
 26  2  1  0  0  0  0
 26 14  2  0  0  0  0
 27 22  1  0  0  0  0
 28 30  1  0  0  0  0
 29 31  1  0  0  0  0
 30 29  1  0  0  0  0
 32 29  2  0  0  0  0
M  END
>  <MODEL>
8

>  <REMARK>
 VINA RESULT:      -8.1      2.880      9.134
  Name = 
  2 active torsions:
  status: ('A' for Active; 'I' for Inactive)
    1  A    between atoms: C_2  and  C_24
    2  A    between atoms: N_10  and  C_24
                            x       y       z     vdW  Elec       q    Type
                         _______ _______ _______ _____ _____    ______ ____

>  <TORSDO>
F 2

$$$$
=
 OpenBabel11052421423D

 32 37  0  0  1  0  0  0  0  0999 V2000
  193.9860  176.0560  145.4200 C   0  0  0  0  0  0  0  0  0  0  0  0
  189.0940  176.0820  144.0520 C   0  0  0  0  0  0  0  0  0  0  0  0
  190.5260  173.3100  140.5720 C   0  0  0  0  0  1  0  0  0  0  0  0
  188.3690  174.4750  139.7750 N   0  0  0  0  0  0  0  0  0  0  0  0
  187.1470  177.4780  144.6300 C   0  0  0  0  0  0  0  0  0  0  0  0
  185.9010  178.0060  144.2510 C   0  0  0  0  0  0  0  0  0  0  0  0
  191.1890  176.2480  145.3250 C   0  0  0  0  0  0  0  0  0  0  0  0
  191.2620  175.1350  143.1930 C   0  0  0  0  0  3  0  0  0  0  0  0
  183.4080  179.0320  143.4670 C   0  0  0  0  0  3  0  0  0  0  0  0
  193.2950  175.5770  144.3030 C   0  0  0  0  0  3  0  0  0  0  0  0
  189.4240  174.2970  140.7290 C   0  0  0  0  0  0  0  0  0  0  0  0
  189.7630  175.0240  143.1730 C   0  0  2  0  0  3  0  0  0  0  0  0
  189.1860  175.0360  141.8030 C   0  0  0  0  0  0  0  0  0  0  0  0
  187.2720  176.3760  142.4580 C   0  0  0  0  0  0  0  0  0  0  0  0
  183.9280  179.3460  144.7250 C   0  0  0  0  0  3  0  0  0  0  0  0
  193.2810  176.6010  146.4980 C   0  0  0  0  0  3  0  0  0  0  0  0
  191.8990  175.6490  144.2520 C   0  0  0  0  0  0  0  0  0  0  0  0
  185.1690  178.8360  145.1170 C   0  0  0  0  0  3  0  0  0  0  0  0
  191.8890  176.7050  146.4470 C   0  0  0  0  0  3  0  0  0  0  0  0
  187.4880  175.2640  140.2520 N   0  0  0  0  0  0  0  0  0  0  0  0
  187.9240  175.6470  141.5490 C   0  0  0  0  0  0  0  0  0  0  0  0
  186.0630  176.9030  142.1340 N   0  0  0  0  0  2  0  0  0  0  0  0
  189.8690  176.4710  145.2530 C   0  0  0  0  0  3  0  0  0  0  0  0
  187.6000  177.7570  145.7750 O   0  0  0  0  0  0  0  0  0  0  0  0
  184.1280  178.2080  142.5980 C   0  0  0  0  0  3  0  0  0  0  0  0
  187.8660  176.6280  143.7390 C   0  0  0  0  0  0  0  0  0  0  0  0
  185.3690  177.6940  142.9850 C   0  0  0  0  0  0  0  0  0  0  0  0
  195.4680  175.9410  145.4820 C   0  0  0  0  0  2  0  0  0  0  0  0
  196.4480  175.5550  143.1940 C   0  0  0  0  0  0  0  0  0  0  0  0
  195.9370  175.0550  144.4290 N   0  0  0  0  0  2  0  0  0  0  0  0
  196.8930  174.6440  142.1970 N   0  0  0  0  0  1  0  0  0  0  0  0
  196.5090  176.7940  142.9790 O   0  0  0  0  0  0  0  0  0  0  0  0
  1 28  1  0  0  0  0
  1 16  1  0  0  0  0
  2 23  1  0  0  0  0
  3 11  1  0  0  0  0
  4 20  2  0  0  0  0
  4 11  1  0  0  0  0
  5 24  2  0  0  0  0
  6  5  1  0  0  0  0
  6 18  1  0  0  0  0
  7 19  1  0  0  0  0
  8 17  2  0  0  0  0
  9 15  1  0  0  0  0
 10  1  2  0  0  0  0
 11 13  2  0  0  0  0
 12  8  1  6  0  0  0
 12  2  1  0  0  0  0
 13 12  1  0  0  0  0
 14 26  1  0  0  0  0
 15 18  2  0  0  0  0
 17 10  1  0  0  0  0
 17  7  1  0  0  0  0
 19 16  2  0  0  0  0
 20 21  1  0  0  0  0
 21 13  1  0  0  0  0
 21 14  2  0  0  0  0
 22 14  1  0  0  0  0
 22 27  1  0  0  0  0
 23  7  2  0  0  0  0
 25 27  1  0  0  0  0
 25  9  2  0  0  0  0
 26  2  2  0  0  0  0
 26  5  1  0  0  0  0
 27  6  2  0  0  0  0
 29 30  1  0  0  0  0
 30 28  1  0  0  0  0
 31 29  1  0  0  0  0
 32 29  2  0  0  0  0
M  END
>  <MODEL>
9

>  <REMARK>
 VINA RESULT:      -8.1      1.731      2.027
  Name = 
  2 active torsions:
  status: ('A' for Active; 'I' for Inactive)
    1  A    between atoms: C_2  and  C_24
    2  A    between atoms: N_10  and  C_24
                            x       y       z     vdW  Elec       q    Type
                         _______ _______ _______ _____ _____    ______ ____

>  <TORSDO>
F 2

$$$$
