=
 OpenBabel11052417223D

 30 33  0  0  1  0  0  0  0  0999 V2000
  188.2290  174.9040  141.8320 C   0  0  0  0  0  0  0  0  0  0  0  0
  186.7800  176.7680  142.7630 C   0  0  0  0  0  2  0  0  0  0  0  0
  188.0090  175.7760  146.5370 O   0  0  0  0  0  0  0  0  0  0  0  0
  190.9040  175.0970  143.5550 C   0  0  0  0  0  2  0  0  0  0  0  0
  188.6290  173.5420  142.0360 N   0  0  0  0  0  0  0  0  0  0  0  0
  191.8750  173.9190  140.8160 C   0  0  0  0  0  0  0  0  0  0  0  0
  190.4920  173.7900  140.6410 O   0  0  0  0  0  0  0  0  0  0  0  0
  190.0140  171.5950  141.7480 C   0  0  0  0  0  1  0  0  0  0  0  0
  191.4130  174.9350  146.3830 C   0  0  2  0  0  3  0  0  0  0  0  0
  188.9320  174.7770  146.8480 C   0  0  0  0  0  0  0  0  0  0  0  0
  189.6700  173.0170  141.4670 C   0  0  0  0  0  0  0  0  0  0  0  0
  191.7910  173.8720  143.3940 C   0  0  1  0  0  3  0  0  0  0  0  0
  186.8400  177.9350  143.7350 C   0  0  0  0  0  2  0  0  0  0  0  0
  192.4890  174.0740  145.8860 N   0  0  0  0  0  2  0  0  0  0  0  0
  192.5950  174.1130  139.8040 O   0  0  0  0  0  0  0  0  0  0  0  0
  188.1360  175.3580  140.6590 O   0  0  0  0  0  0  0  0  0  0  0  0
  188.1410  176.5620  145.3570 C   0  0  2  0  0  3  0  0  0  0  0  0
  186.8690  177.3810  145.1450 C   0  0  1  0  0  3  0  0  0  0  0  0
  192.4920  173.9210  142.1130 N   0  0  0  0  0  2  0  0  0  0  0  0
  187.8980  175.7770  142.9810 C   0  0  0  0  0  0  0  0  0  0  0  0
  189.6890  174.7300  144.4070 C   0  0  1  0  0  3  0  0  0  0  0  0
  188.8340  174.1530  147.9360 O   0  0  0  0  0  0  0  0  0  0  0  0
  190.0390  174.4420  145.8920 C   0  0  1  0  0  3  0  0  0  0  0  0
  193.8660  173.1150  144.2950 O   0  0  0  0  0  0  0  0  0  0  0  0
  186.8310  178.4310  146.0600 O   0  0  0  0  0  1  0  0  0  0  0  0
  188.5250  175.6790  144.1840 C   0  0  0  0  0  0  0  0  0  0  0  0
  192.7770  173.7050  144.5270 C   0  0  0  0  0  0  0  0  0  0  0  0
  191.7010  176.4300  146.1410 C   0  0  0  0  0  3  0  0  0  0  0  0
  193.1910  176.6990  146.0120 C   0  0  0  0  0  1  0  0  0  0  0  0
  191.1760  177.2710  147.2890 C   0  0  0  0  0  1  0  0  0  0  0  0
  1  5  1  0  0  0  0
  1 20  1  0  0  0  0
  2 20  1  0  0  0  0
  2 13  1  0  0  0  0
  3 10  1  0  0  0  0
  6 19  1  0  0  0  0
  7  6  1  0  0  0  0
  7 11  1  0  0  0  0
  9 28  1  6  0  0  0
 10 22  2  0  0  0  0
 11  8  1  0  0  0  0
 11  5  2  0  0  0  0
 12  4  1  1  0  0  0
 12 27  1  0  0  0  0
 13 18  1  0  0  0  0
 14  9  1  0  0  0  0
 15  6  2  0  0  0  0
 16  1  2  0  0  0  0
 17 26  1  6  0  0  0
 17  3  1  0  0  0  0
 18 17  1  0  0  0  0
 18 25  1  1  0  0  0
 19 12  1  0  0  0  0
 20 26  2  0  0  0  0
 21  4  1  1  0  0  0
 21 23  1  0  0  0  0
 23  9  1  0  0  0  0
 23 10  1  1  0  0  0
 24 27  2  0  0  0  0
 26 21  1  0  0  0  0
 27 14  1  0  0  0  0
 28 30  1  0  0  0  0
 29 28  1  0  0  0  0
M  END
>  <MODEL>
1

>  <REMARK>
 VINA RESULT:      -7.3      0.000      0.000
  Name = 
  1 active torsions:
  status: ('A' for Active; 'I' for Inactive)
    1  A    between atoms: C_7  and  C_10
                            x       y       z     vdW  Elec       q    Type
                         _______ _______ _______ _____ _____    ______ ____

>  <TORSDO>
F 1

$$$$
=
 OpenBabel11052417223D

 30 33  0  0  1  0  0  0  0  0999 V2000
  192.8300  175.4900  146.5050 C   0  0  0  0  0  0  0  0  0  0  0  0
  195.2950  174.9830  146.1730 C   0  0  0  0  0  2  0  0  0  0  0  0
  194.2850  171.3910  144.4960 O   0  0  0  0  0  0  0  0  0  0  0  0
  191.4790  174.4560  143.8100 C   0  0  0  0  0  2  0  0  0  0  0  0
  191.5810  174.9200  146.9190 N   0  0  0  0  0  0  0  0  0  0  0  0
  189.5840  176.7730  144.7420 C   0  0  0  0  0  0  0  0  0  0  0  0
  190.3620  176.6360  145.8980 O   0  0  0  0  0  0  0  0  0  0  0  0
  189.1870  174.7920  147.1180 C   0  0  0  0  0  1  0  0  0  0  0  0
  191.4240  171.8820  142.5220 C   0  0  2  0  0  3  0  0  0  0  0  0
  192.9820  170.9410  144.2780 C   0  0  0  0  0  0  0  0  0  0  0  0
  190.4330  175.4630  146.6550 C   0  0  0  0  0  0  0  0  0  0  0  0
  189.9650  174.3590  143.9150 C   0  0  1  0  0  3  0  0  0  0  0  0
  196.2650  174.4860  145.1130 C   0  0  0  0  0  2  0  0  0  0  0  0
  190.0120  172.2520  142.4000 N   0  0  0  0  0  2  0  0  0  0  0  0
  189.1200  177.9070  144.4580 O   0  0  0  0  0  0  0  0  0  0  0  0
  193.0660  176.7080  146.7290 O   0  0  0  0  0  0  0  0  0  0  0  0
  194.6210  172.7680  144.3660 C   0  0  2  0  0  3  0  0  0  0  0  0
  196.0290  173.0030  144.9090 C   0  0  1  0  0  3  0  0  0  0  0  0
  189.3670  175.6900  143.8250 N   0  0  0  0  0  2  0  0  0  0  0  0
  193.8600  174.6580  145.8400 C   0  0  0  0  0  0  0  0  0  0  0  0
  192.1130  173.3210  144.6140 C   0  0  1  0  0  3  0  0  0  0  0  0
  192.7330  169.7090  144.3230 O   0  0  0  0  0  0  0  0  0  0  0  0
  191.8790  171.9170  143.9940 C   0  0  1  0  0  3  0  0  0  0  0  0
  188.1780  173.6570  142.4990 O   0  0  0  0  0  0  0  0  0  0  0  0
  196.9680  172.5010  144.0100 O   0  0  0  0  0  1  0  0  0  0  0  0
  193.5470  173.6290  145.0060 C   0  0  0  0  0  0  0  0  0  0  0  0
  189.3590  173.4380  142.8810 C   0  0  0  0  0  0  0  0  0  0  0  0
  192.3210  172.6580  141.5370 C   0  0  0  0  0  3  0  0  0  0  0  0
  191.5280  173.1750  140.3480 C   0  0  0  0  0  1  0  0  0  0  0  0
  193.4290  171.7690  141.0050 C   0  0  0  0  0  1  0  0  0  0  0  0
  1 16  2  0  0  0  0
  1  5  1  0  0  0  0
  6  7  1  0  0  0  0
  7 11  1  0  0  0  0
  9 28  1  6  0  0  0
  9 23  1  0  0  0  0
 10 22  2  0  0  0  0
 10  3  1  0  0  0  0
 11  5  2  0  0  0  0
 11  8  1  0  0  0  0
 12  4  1  6  0  0  0
 13  2  1  0  0  0  0
 14  9  1  0  0  0  0
 14 27  1  0  0  0  0
 15  6  2  0  0  0  0
 17  3  1  1  0  0  0
 17 18  1  0  0  0  0
 17 26  1  0  0  0  0
 18 25  1  6  0  0  0
 18 13  1  0  0  0  0
 19 12  1  0  0  0  0
 19  6  1  0  0  0  0
 20  2  1  0  0  0  0
 20  1  1  0  0  0  0
 21  4  1  6  0  0  0
 21 26  1  0  0  0  0
 23 10  1  6  0  0  0
 23 21  1  0  0  0  0
 24 27  2  0  0  0  0
 26 20  2  0  0  0  0
 27 12  1  0  0  0  0
 29 28  1  0  0  0  0
 30 28  1  0  0  0  0
M  END
>  <MODEL>
2

>  <REMARK>
 VINA RESULT:      -6.9      2.285      6.680
  Name = 
  1 active torsions:
  status: ('A' for Active; 'I' for Inactive)
    1  A    between atoms: C_7  and  C_10
                            x       y       z     vdW  Elec       q    Type
                         _______ _______ _______ _____ _____    ______ ____

>  <TORSDO>
F 1

$$$$
=
 OpenBabel11052417223D

 30 33  0  0  1  0  0  0  0  0999 V2000
  191.4900  176.4440  146.7880 C   0  0  0  0  0  0  0  0  0  0  0  0
  189.2110  177.2560  147.5570 C   0  0  0  0  0  2  0  0  0  0  0  0
  188.1650  177.8780  143.6510 O   0  0  0  0  0  0  0  0  0  0  0  0
  190.8310  174.6680  144.2250 C   0  0  0  0  0  2  0  0  0  0  0  0
  192.5620  176.7120  145.8750 N   0  0  0  0  0  0  0  0  0  0  0  0
  193.4550  173.3800  145.3580 C   0  0  0  0  0  0  0  0  0  0  0  0
  193.4280  174.5520  146.1240 O   0  0  0  0  0  0  0  0  0  0  0  0
  194.5460  176.2060  144.6120 C   0  0  0  0  0  1  0  0  0  0  0  0
  189.5010  175.2550  141.7400 C   0  0  2  0  0  3  0  0  0  0  0  0
  188.9680  177.5910  142.5460 C   0  0  0  0  0  0  0  0  0  0  0  0
  193.4760  175.8400  145.5800 C   0  0  0  0  0  0  0  0  0  0  0  0
  192.0700  174.3430  143.4060 C   0  0  1  0  0  3  0  0  0  0  0  0
  187.7310  177.0710  147.2620 C   0  0  0  0  0  2  0  0  0  0  0  0
  190.6580  174.5110  141.2350 N   0  0  0  0  0  2  0  0  0  0  0  0
  193.9680  172.3460  145.8570 O   0  0  0  0  0  0  0  0  0  0  0  0
  191.7420  175.9460  147.9200 O   0  0  0  0  0  0  0  0  0  0  0  0
  188.1870  177.0540  144.8120 C   0  0  2  0  0  3  0  0  0  0  0  0
  187.4200  177.7420  145.9400 C   0  0  1  0  0  3  0  0  0  0  0  0
  192.8460  173.2920  144.0610 N   0  0  0  0  0  2  0  0  0  0  0  0
  190.0890  176.7690  146.4310 C   0  0  0  0  0  0  0  0  0  0  0  0
  190.4660  176.1390  144.0220 C   0  0  1  0  0  3  0  0  0  0  0  0
  188.8690  178.2910  141.5060 O   0  0  0  0  0  0  0  0  0  0  0  0
  189.9480  176.4570  142.5930 C   0  0  1  0  0  3  0  0  0  0  0  0
  192.5410  173.1770  141.3780 O   0  0  0  0  0  0  0  0  0  0  0  0
  186.0510  177.6680  145.6900 O   0  0  0  0  0  1  0  0  0  0  0  0
  189.6160  176.6800  145.1580 C   0  0  0  0  0  0  0  0  0  0  0  0
  191.7500  173.9510  141.9820 C   0  0  0  0  0  0  0  0  0  0  0  0
  188.4540  174.3340  142.3970 C   0  0  0  0  0  3  0  0  0  0  0  0
  188.4170  172.9670  141.7340 C   0  0  0  0  0  1  0  0  0  0  0  0
  187.0660  174.9380  142.2910 C   0  0  0  0  0  1  0  0  0  0  0  0
  1 16  2  0  0  0  0
  5  1  1  0  0  0  0
  6 15  2  0  0  0  0
  6  7  1  0  0  0  0
  8 11  1  0  0  0  0
  9 28  1  1  0  0  0
  9 23  1  0  0  0  0
 10  3  1  0  0  0  0
 11  5  2  0  0  0  0
 11  7  1  0  0  0  0
 12 19  1  0  0  0  0
 12  4  1  1  0  0  0
 13  2  1  0  0  0  0
 14  9  1  0  0  0  0
 14 27  1  0  0  0  0
 17  3  1  6  0  0  0
 17 26  1  0  0  0  0
 17 18  1  0  0  0  0
 18 25  1  6  0  0  0
 18 13  1  0  0  0  0
 19  6  1  0  0  0  0
 20  1  1  0  0  0  0
 20  2  1  0  0  0  0
 21  4  1  1  0  0  0
 21 26  1  0  0  0  0
 22 10  2  0  0  0  0
 23 10  1  1  0  0  0
 23 21  1  0  0  0  0
 24 27  2  0  0  0  0
 26 20  2  0  0  0  0
 27 12  1  0  0  0  0
 29 28  1  0  0  0  0
 30 28  1  0  0  0  0
M  END
>  <MODEL>
3

>  <REMARK>
 VINA RESULT:      -6.8      1.796      4.915
  Name = 
  1 active torsions:
  status: ('A' for Active; 'I' for Inactive)
    1  A    between atoms: C_7  and  C_10
                            x       y       z     vdW  Elec       q    Type
                         _______ _______ _______ _____ _____    ______ ____

>  <TORSDO>
F 1

$$$$
=
 OpenBabel11052417223D

 30 33  0  0  1  0  0  0  0  0999 V2000
  194.0320  175.9390  145.5940 C   0  0  0  0  0  0  0  0  0  0  0  0
  192.1350  176.0640  147.2770 C   0  0  0  0  0  2  0  0  0  0  0  0
  189.4500  175.7810  144.2030 O   0  0  0  0  0  0  0  0  0  0  0  0
  193.0590  173.7180  143.5250 C   0  0  0  0  0  2  0  0  0  0  0  0
  194.4720  176.4160  144.3150 N   0  0  0  0  0  0  0  0  0  0  0  0
  196.1850  173.5170  143.4070 C   0  0  0  0  0  0  0  0  0  0  0  0
  196.0620  174.7080  144.1320 O   0  0  0  0  0  0  0  0  0  0  0  0
  195.8120  176.4160  142.3170 C   0  0  0  0  0  1  0  0  0  0  0  0
  190.7230  173.5010  141.8570 C   0  0  2  0  0  3  0  0  0  0  0  0
  189.7800  175.6250  142.8560 C   0  0  0  0  0  0  0  0  0  0  0  0
  195.4300  175.8560  143.6430 C   0  0  0  0  0  0  0  0  0  0  0  0
  193.8870  173.7060  142.2500 C   0  0  1  0  0  3  0  0  0  0  0  0
  190.8320  175.3700  147.6380 C   0  0  0  0  0  2  0  0  0  0  0  0
  191.7560  173.1120  140.8930 N   0  0  0  0  0  2  0  0  0  0  0  0
  197.1830  172.7820  143.6200 O   0  0  0  0  0  0  0  0  0  0  0  0
  194.8780  175.7080  146.5000 O   0  0  0  0  0  0  0  0  0  0  0  0
  190.2280  175.1730  145.2280 C   0  0  2  0  0  3  0  0  0  0  0  0
  189.7970  175.7200  146.5880 C   0  0  1  0  0  3  0  0  0  0  0  0
  195.1760  173.0610  142.4920 N   0  0  0  0  0  2  0  0  0  0  0  0
  192.5910  175.7410  145.8750 C   0  0  0  0  0  0  0  0  0  0  0  0
  192.1530  174.9500  143.5250 C   0  0  1  0  0  3  0  0  0  0  0  0
  189.0290  176.1080  141.9700 O   0  0  0  0  0  0  0  0  0  0  0  0
  191.0250  174.8870  142.4600 C   0  0  1  0  0  3  0  0  0  0  0  0
  193.8720  172.4950  140.1950 O   0  0  0  0  0  0  0  0  0  0  0  0
  188.5660  175.1730  146.9440 O   0  0  0  0  0  1  0  0  0  0  0  0
  191.7060  175.3330  144.9240 C   0  0  0  0  0  0  0  0  0  0  0  0
  193.1770  173.0440  141.0920 C   0  0  0  0  0  0  0  0  0  0  0  0
  190.4290  172.3880  142.8810 C   0  0  0  0  0  3  0  0  0  0  0  0
  190.8850  171.0290  142.3770 C   0  0  0  0  0  1  0  0  0  0  0  0
  188.9410  172.3010  143.1670 C   0  0  0  0  0  1  0  0  0  0  0  0
  1 20  1  0  0  0  0
  1 16  2  0  0  0  0
  2 13  1  0  0  0  0
  5  1  1  0  0  0  0
  6 15  2  0  0  0  0
  6  7  1  0  0  0  0
  8 11  1  0  0  0  0
  9 23  1  0  0  0  0
  9 28  1  1  0  0  0
 10  3  1  0  0  0  0
 11  7  1  0  0  0  0
 11  5  2  0  0  0  0
 12 19  1  0  0  0  0
 12  4  1  1  0  0  0
 14 27  1  0  0  0  0
 14  9  1  0  0  0  0
 17  3  1  6  0  0  0
 17 18  1  0  0  0  0
 18 25  1  1  0  0  0
 18 13  1  0  0  0  0
 19  6  1  0  0  0  0
 20  2  1  0  0  0  0
 21  4  1  1  0  0  0
 21 26  1  0  0  0  0
 22 10  2  0  0  0  0
 23 10  1  1  0  0  0
 23 21  1  0  0  0  0
 24 27  2  0  0  0  0
 26 17  1  0  0  0  0
 26 20  2  0  0  0  0
 27 12  1  0  0  0  0
 28 30  1  0  0  0  0
 29 28  1  0  0  0  0
M  END
>  <MODEL>
4

>  <REMARK>
 VINA RESULT:      -6.7      2.230      5.349
  Name = 
  1 active torsions:
  status: ('A' for Active; 'I' for Inactive)
    1  A    between atoms: C_7  and  C_10
                            x       y       z     vdW  Elec       q    Type
                         _______ _______ _______ _____ _____    ______ ____

>  <TORSDO>
F 1

$$$$
=
 OpenBabel11052417223D

 30 33  0  0  1  0  0  0  0  0999 V2000
  189.9840  174.4890  142.7960 C   0  0  0  0  0  0  0  0  0  0  0  0
  190.7530  172.8660  141.0020 C   0  0  0  0  0  2  0  0  0  0  0  0
  194.3340  174.8350  140.8190 O   0  0  0  0  0  0  0  0  0  0  0  0
  192.5590  174.8510  144.6380 C   0  0  0  0  0  2  0  0  0  0  0  0
  189.9720  175.8730  143.1700 N   0  0  0  0  0  0  0  0  0  0  0  0
  190.1700  175.3310  146.6100 C   0  0  0  0  0  0  0  0  0  0  0  0
  189.4710  175.3550  145.3960 O   0  0  0  0  0  0  0  0  0  0  0  0
  189.7340  177.7370  144.6730 C   0  0  0  0  0  1  0  0  0  0  0  0
  195.2380  175.7470  144.0860 C   0  0  2  0  0  3  0  0  0  0  0  0
  194.7010  175.9170  141.6200 C   0  0  0  0  0  0  0  0  0  0  0  0
  189.7140  176.2780  144.3750 C   0  0  0  0  0  0  0  0  0  0  0  0
  192.4350  176.0290  145.5910 C   0  0  1  0  0  3  0  0  0  0  0  0
  191.9380  171.9880  140.6350 C   0  0  0  0  0  2  0  0  0  0  0  0
  194.9730  176.4970  145.3160 N   0  0  0  0  0  2  0  0  0  0  0  0
  189.5780  174.9160  147.6380 O   0  0  0  0  0  0  0  0  0  0  0  0
  189.0140  173.7470  143.1120 O   0  0  0  0  0  0  0  0  0  0  0  0
  193.5240  173.7810  141.3290 C   0  0  2  0  0  3  0  0  0  0  0  0
  193.0720  172.8840  140.1780 C   0  0  1  0  0  3  0  0  0  0  0  0
  191.5580  175.6840  146.7080 N   0  0  0  0  0  2  0  0  0  0  0  0
  191.1100  173.9240  142.0170 C   0  0  0  0  0  0  0  0  0  0  0  0
  192.7830  175.3730  143.2190 C   0  0  1  0  0  3  0  0  0  0  0  0
  195.4820  176.7920  141.1660 O   0  0  0  0  0  0  0  0  0  0  0  0
  194.1690  176.0430  143.0170 C   0  0  1  0  0  3  0  0  0  0  0  0
  193.8150  177.0750  147.2320 O   0  0  0  0  0  0  0  0  0  0  0  0
  194.1410  172.1000  139.7480 O   0  0  0  0  0  1  0  0  0  0  0  0
  192.3940  174.3510  142.1650 C   0  0  0  0  0  0  0  0  0  0  0  0
  193.7700  176.5190  146.1020 C   0  0  0  0  0  0  0  0  0  0  0  0
  195.5040  174.2530  144.3560 C   0  0  0  0  0  3  0  0  0  0  0  0
  196.0230  174.0240  145.7650 C   0  0  0  0  0  1  0  0  0  0  0  0
  196.5340  173.7070  143.3870 C   0  0  0  0  0  1  0  0  0  0  0  0
  1 16  2  0  0  0  0
  1  5  1  0  0  0  0
  2 20  1  0  0  0  0
  3 10  1  0  0  0  0
  5 11  2  0  0  0  0
  6 19  1  0  0  0  0
  6 15  2  0  0  0  0
  7  6  1  0  0  0  0
  9 28  1  1  0  0  0
  9 14  1  0  0  0  0
 11  8  1  0  0  0  0
 11  7  1  0  0  0  0
 12  4  1  6  0  0  0
 12 27  1  0  0  0  0
 12 19  1  0  0  0  0
 13  2  1  0  0  0  0
 14 27  1  0  0  0  0
 17  3  1  6  0  0  0
 17 26  1  0  0  0  0
 18 25  1  1  0  0  0
 18 13  1  0  0  0  0
 18 17  1  0  0  0  0
 20 26  2  0  0  0  0
 20  1  1  0  0  0  0
 21  4  1  1  0  0  0
 22 10  2  0  0  0  0
 23 10  1  6  0  0  0
 23 21  1  0  0  0  0
 23  9  1  0  0  0  0
 26 21  1  0  0  0  0
 27 24  2  0  0  0  0
 28 29  1  0  0  0  0
 30 28  1  0  0  0  0
M  END
>  <MODEL>
5

>  <REMARK>
 VINA RESULT:      -6.6      2.502      6.075
  Name = 
  1 active torsions:
  status: ('A' for Active; 'I' for Inactive)
    1  A    between atoms: C_7  and  C_10
                            x       y       z     vdW  Elec       q    Type
                         _______ _______ _______ _____ _____    ______ ____

>  <TORSDO>
F 1

$$$$
=
 OpenBabel11052417223D

 30 33  0  0  1  0  0  0  0  0999 V2000
  191.6430  174.8860  145.2110 C   0  0  0  0  0  0  0  0  0  0  0  0
  192.9260  174.4390  143.0670 C   0  0  0  0  0  2  0  0  0  0  0  0
  189.4080  173.4750  141.2150 O   0  0  0  0  0  0  0  0  0  0  0  0
  189.0210  176.4030  144.2170 C   0  0  0  0  0  2  0  0  0  0  0  0
  190.5940  174.3880  146.0520 N   0  0  0  0  0  0  0  0  0  0  0  0
  189.4570  177.5080  147.1180 C   0  0  0  0  0  0  0  0  0  0  0  0
  190.3720  176.4480  147.1390 O   0  0  0  0  0  0  0  0  0  0  0  0
  188.9270  174.5070  147.7830 C   0  0  0  0  0  1  0  0  0  0  0  0
  186.9330  175.6770  142.3740 C   0  0  2  0  0  3  0  0  0  0  0  0
  188.1450  173.5310  141.8050 C   0  0  0  0  0  0  0  0  0  0  0  0
  190.0160  175.1080  146.9630 C   0  0  0  0  0  0  0  0  0  0  0  0
  187.9500  176.4820  145.2930 C   0  0  1  0  0  3  0  0  0  0  0  0
  192.8870  174.7560  141.5810 C   0  0  0  0  0  2  0  0  0  0  0  0
  186.1230  176.2170  143.4690 N   0  0  0  0  0  2  0  0  0  0  0  0
  189.7020  178.5290  147.8100 O   0  0  0  0  0  0  0  0  0  0  0  0
  192.6260  175.4840  145.7260 O   0  0  0  0  0  0  0  0  0  0  0  0
  190.4170  174.4250  141.5400 C   0  0  2  0  0  3  0  0  0  0  0  0
  191.7530  173.9700  140.9550 C   0  0  1  0  0  3  0  0  0  0  0  0
  188.2960  177.5090  146.2750 N   0  0  0  0  0  2  0  0  0  0  0  0
  191.6000  174.6830  143.7440 C   0  0  0  0  0  0  0  0  0  0  0  0
  189.0990  174.9700  143.6900 C   0  0  1  0  0  3  0  0  0  0  0  0
  187.2490  172.7270  141.4390 O   0  0  0  0  0  0  0  0  0  0  0  0
  187.8500  174.5430  142.8730 C   0  0  1  0  0  3  0  0  0  0  0  0
  185.7270  177.3320  145.4550 O   0  0  0  0  0  0  0  0  0  0  0  0
  191.7520  174.1700  139.5760 O   0  0  0  0  0  1  0  0  0  0  0  0
  190.4370  174.6710  143.0380 C   0  0  0  0  0  0  0  0  0  0  0  0
  186.5690  176.7330  144.7340 C   0  0  0  0  0  0  0  0  0  0  0  0
  187.6360  176.7840  141.5640 C   0  0  0  0  0  3  0  0  0  0  0  0
  187.0700  178.1570  141.8860 C   0  0  0  0  0  1  0  0  0  0  0  0
  187.4670  176.5500  140.0750 C   0  0  0  0  0  1  0  0  0  0  0  0
  1 16  2  0  0  0  0
  1  5  1  0  0  0  0
  2 20  1  0  0  0  0
  3 10  1  0  0  0  0
  5 11  2  0  0  0  0
  6  7  1  0  0  0  0
  6 15  2  0  0  0  0
  9 28  1  1  0  0  0
  9 23  1  0  0  0  0
  9 14  1  0  0  0  0
 11  7  1  0  0  0  0
 11  8  1  0  0  0  0
 12  4  1  6  0  0  0
 12 19  1  0  0  0  0
 13  2  1  0  0  0  0
 14 27  1  0  0  0  0
 17  3  1  1  0  0  0
 17 26  1  0  0  0  0
 18 25  1  6  0  0  0
 18 17  1  0  0  0  0
 18 13  1  0  0  0  0
 19  6  1  0  0  0  0
 20  1  1  0  0  0  0
 21  4  1  6  0  0  0
 22 10  2  0  0  0  0
 23 10  1  6  0  0  0
 23 21  1  0  0  0  0
 26 21  1  0  0  0  0
 26 20  2  0  0  0  0
 27 12  1  0  0  0  0
 27 24  2  0  0  0  0
 28 29  1  0  0  0  0
 30 28  1  0  0  0  0
M  END
>  <MODEL>
6

>  <REMARK>
 VINA RESULT:      -6.6      2.018      6.410
  Name = 
  1 active torsions:
  status: ('A' for Active; 'I' for Inactive)
    1  A    between atoms: C_7  and  C_10
                            x       y       z     vdW  Elec       q    Type
                         _______ _______ _______ _____ _____    ______ ____

>  <TORSDO>
F 1

$$$$
=
 OpenBabel11052417223D

 30 33  0  0  1  0  0  0  0  0999 V2000
  194.2340  173.4530  141.5900 C   0  0  0  0  0  0  0  0  0  0  0  0
  192.3500  172.9520  139.9640 C   0  0  0  0  0  2  0  0  0  0  0  0
  189.7670  172.6480  143.1220 O   0  0  0  0  0  0  0  0  0  0  0  0
  192.8920  175.4070  143.7200 C   0  0  0  0  0  2  0  0  0  0  0  0
  194.8060  173.0680  142.8480 N   0  0  0  0  0  0  0  0  0  0  0  0
  195.9110  176.2510  143.7460 C   0  0  0  0  0  0  0  0  0  0  0  0
  196.0130  175.0660  143.0080 O   0  0  0  0  0  0  0  0  0  0  0  0
  196.1820  173.3290  144.8040 C   0  0  0  0  0  1  0  0  0  0  0  0
  190.6180  175.1220  145.4620 C   0  0  2  0  0  3  0  0  0  0  0  0
  190.1020  172.8580  144.4610 C   0  0  0  0  0  0  0  0  0  0  0  0
  195.6490  173.8080  143.4990 C   0  0  0  0  0  0  0  0  0  0  0  0
  193.7410  175.5810  144.9690 C   0  0  1  0  0  3  0  0  0  0  0  0
  190.9200  173.3630  139.6530 C   0  0  0  0  0  2  0  0  0  0  0  0
  191.5790  175.7090  146.3990 N   0  0  0  0  0  2  0  0  0  0  0  0
  196.7280  177.1780  143.5140 O   0  0  0  0  0  0  0  0  0  0  0  0
  194.9840  173.8620  140.6620 O   0  0  0  0  0  0  0  0  0  0  0  0
  190.3690  173.4120  142.0830 C   0  0  2  0  0  3  0  0  0  0  0  0
  190.0160  172.7980  140.7290 C   0  0  1  0  0  3  0  0  0  0  0  0
  194.8610  176.4800  144.6980 N   0  0  0  0  0  2  0  0  0  0  0  0
  192.7750  173.3510  141.3560 C   0  0  0  0  0  0  0  0  0  0  0  0
  192.2600  174.0150  143.7300 C   0  0  1  0  0  3  0  0  0  0  0  0
  189.4960  172.2220  145.3620 O   0  0  0  0  0  0  0  0  0  0  0  0
  191.1800  173.8340  144.8300 C   0  0  1  0  0  3  0  0  0  0  0  0
  193.5430  176.7450  147.0420 O   0  0  0  0  0  0  0  0  0  0  0  0
  188.6870  173.0820  140.4180 O   0  0  0  0  0  1  0  0  0  0  0  0
  191.8570  173.5590  142.3400 C   0  0  0  0  0  0  0  0  0  0  0  0
  192.9480  176.0720  146.1590 C   0  0  0  0  0  0  0  0  0  0  0  0
  190.0660  176.1590  144.4640 C   0  0  0  0  0  3  0  0  0  0  0  0
  190.1660  177.5720  145.0130 C   0  0  0  0  0  1  0  0  0  0  0  0
  188.6070  175.8830  144.1550 C   0  0  0  0  0  1  0  0  0  0  0  0
  1  5  1  0  0  0  0
  2 20  1  0  0  0  0
  3 10  1  0  0  0  0
  5 11  2  0  0  0  0
  6 19  1  0  0  0  0
  7 11  1  0  0  0  0
  7  6  1  0  0  0  0
  9 28  1  6  0  0  0
  9 14  1  0  0  0  0
 10 22  2  0  0  0  0
 11  8  1  0  0  0  0
 12  4  1  6  0  0  0
 12 27  1  0  0  0  0
 13  2  1  0  0  0  0
 13 18  1  0  0  0  0
 15  6  2  0  0  0  0
 16  1  2  0  0  0  0
 17 26  1  1  0  0  0
 17  3  1  0  0  0  0
 18 25  1  6  0  0  0
 18 17  1  0  0  0  0
 19 12  1  0  0  0  0
 20  1  1  0  0  0  0
 20 26  2  0  0  0  0
 21  4  1  6  0  0  0
 21 23  1  0  0  0  0
 23 10  1  6  0  0  0
 23  9  1  0  0  0  0
 26 21  1  0  0  0  0
 27 14  1  0  0  0  0
 27 24  2  0  0  0  0
 28 29  1  0  0  0  0
 30 28  1  0  0  0  0
M  END
>  <MODEL>
7

>  <REMARK>
 VINA RESULT:      -6.6      2.572      5.106
  Name = 
  1 active torsions:
  status: ('A' for Active; 'I' for Inactive)
    1  A    between atoms: C_7  and  C_10
                            x       y       z     vdW  Elec       q    Type
                         _______ _______ _______ _____ _____    ______ ____

>  <TORSDO>
F 1

$$$$
=
 OpenBabel11052417223D

 30 33  0  0  1  0  0  0  0  0999 V2000
  191.3340  173.1430  142.3200 C   0  0  0  0  0  0  0  0  0  0  0  0
  193.2530  173.2080  143.9810 C   0  0  0  0  0  2  0  0  0  0  0  0
  192.4900  177.1730  144.6370 O   0  0  0  0  0  0  0  0  0  0  0  0
  189.0690  174.8960  143.7170 C   0  0  0  0  0  2  0  0  0  0  0  0
  190.7140  173.8610  141.2440 N   0  0  0  0  0  0  0  0  0  0  0  0
  187.4500  172.8650  141.9620 C   0  0  0  0  0  0  0  0  0  0  0  0
  188.7330  172.6330  141.4520 O   0  0  0  0  0  0  0  0  0  0  0  0
  188.9480  174.4170  139.7080 C   0  0  0  0  0  1  0  0  0  0  0  0
  189.0080  177.6220  144.6400 C   0  0  2  0  0  3  0  0  0  0  0  0
  191.4530  177.9020  144.0540 C   0  0  0  0  0  0  0  0  0  0  0  0
  189.5120  173.6110  140.8260 C   0  0  0  0  0  0  0  0  0  0  0  0
  187.9450  175.2670  142.7620 C   0  0  1  0  0  3  0  0  0  0  0  0
  193.5820  173.6910  145.3840 C   0  0  0  0  0  2  0  0  0  0  0  0
  187.7180  177.5640  143.9480 N   0  0  0  0  0  2  0  0  0  0  0  0
  186.6250  171.9160  141.9730 O   0  0  0  0  0  0  0  0  0  0  0  0
  191.3210  171.8820  142.3190 O   0  0  0  0  0  0  0  0  0  0  0  0
  192.3220  175.8040  144.9900 C   0  0  2  0  0  3  0  0  0  0  0  0
  193.6770  175.2030  145.3580 C   0  0  1  0  0  3  0  0  0  0  0  0
  187.0670  174.1190  142.5470 N   0  0  0  0  0  2  0  0  0  0  0  0
  192.0140  173.8640  143.4210 C   0  0  0  0  0  0  0  0  0  0  0  0
  190.3110  175.7190  143.3750 C   0  0  1  0  0  3  0  0  0  0  0  0
  191.6050  179.1300  143.8260 O   0  0  0  0  0  0  0  0  0  0  0  0
  190.1600  177.2300  143.6950 C   0  0  1  0  0  3  0  0  0  0  0  0
  185.9380  176.5520  142.8740 O   0  0  0  0  0  0  0  0  0  0  0  0
  194.0700  175.6670  146.6120 O   0  0  0  0  0  1  0  0  0  0  0  0
  191.5850  175.0690  143.8850 C   0  0  0  0  0  0  0  0  0  0  0  0
  187.1450  176.4620  143.2270 C   0  0  0  0  0  0  0  0  0  0  0  0
  188.9820  176.8790  145.9900 C   0  0  0  0  0  3  0  0  0  0  0  0
  187.5770  176.8070  146.5620 C   0  0  0  0  0  1  0  0  0  0  0  0
  189.8620  177.5820  147.0070 C   0  0  0  0  0  1  0  0  0  0  0  0
  1 20  1  0  0  0  0
  2 13  1  0  0  0  0
  3 17  1  0  0  0  0
  5  1  1  0  0  0  0
  6 15  2  0  0  0  0
  6 19  1  0  0  0  0
  7  6  1  0  0  0  0
  8 11  1  0  0  0  0
  9 28  1  1  0  0  0
 10  3  1  0  0  0  0
 11  5  2  0  0  0  0
 11  7  1  0  0  0  0
 12 27  1  0  0  0  0
 12  4  1  1  0  0  0
 14  9  1  0  0  0  0
 16  1  2  0  0  0  0
 17 26  1  6  0  0  0
 17 18  1  0  0  0  0
 18 13  1  0  0  0  0
 18 25  1  1  0  0  0
 19 12  1  0  0  0  0
 20 26  2  0  0  0  0
 20  2  1  0  0  0  0
 21 23  1  0  0  0  0
 21  4  1  1  0  0  0
 21 26  1  0  0  0  0
 22 10  2  0  0  0  0
 23 10  1  1  0  0  0
 23  9  1  0  0  0  0
 24 27  2  0  0  0  0
 27 14  1  0  0  0  0
 28 29  1  0  0  0  0
 28 30  1  0  0  0  0
M  END
>  <MODEL>
8

>  <REMARK>
 VINA RESULT:      -6.5      2.420      5.131
  Name = 
  1 active torsions:
  status: ('A' for Active; 'I' for Inactive)
    1  A    between atoms: C_7  and  C_10
                            x       y       z     vdW  Elec       q    Type
                         _______ _______ _______ _____ _____    ______ ____

>  <TORSDO>
F 1

$$$$
=
 OpenBabel11052417223D

 30 33  0  0  1  0  0  0  0  0999 V2000
  186.2610  177.5110  142.1290 C   0  0  0  0  0  0  0  0  0  0  0  0
  187.4030  175.7460  140.7060 C   0  0  0  0  0  2  0  0  0  0  0  0
  190.8340  176.2890  142.8680 O   0  0  0  0  0  0  0  0  0  0  0  0
  187.2990  176.8900  145.0770 C   0  0  0  0  0  2  0  0  0  0  0  0
  186.4390  178.8010  142.7300 N   0  0  0  0  0  0  0  0  0  0  0  0
  184.4780  178.1740  145.5450 C   0  0  0  0  0  0  0  0  0  0  0  0
  184.6370  178.4650  144.1850 O   0  0  0  0  0  0  0  0  0  0  0  0
  185.9410  180.6020  144.2450 C   0  0  0  0  0  1  0  0  0  0  0  0
  189.9350  176.7660  146.2270 C   0  0  2  0  0  3  0  0  0  0  0  0
  190.9740  177.1540  143.9540 C   0  0  0  0  0  0  0  0  0  0  0  0
  185.6730  179.2540  143.6730 C   0  0  0  0  0  0  0  0  0  0  0  0
  187.0030  178.0200  146.0500 C   0  0  1  0  0  3  0  0  0  0  0  0
  188.2700  174.5040  140.8380 C   0  0  0  0  0  2  0  0  0  0  0  0
  189.2480  177.5430  147.2610 N   0  0  0  0  0  2  0  0  0  0  0  0
  183.3160  177.9860  145.9890 O   0  0  0  0  0  0  0  0  0  0  0  0
  185.1200  177.1660  141.7170 O   0  0  0  0  0  0  0  0  0  0  0  0
  189.6150  175.5920  142.6320 C   0  0  2  0  0  3  0  0  0  0  0  0
  189.6620  174.9360  141.2530 C   0  0  1  0  0  3  0  0  0  0  0  0
  185.5920  177.9990  146.4330 N   0  0  0  0  0  2  0  0  0  0  0  0
  187.4070  176.5880  141.9580 C   0  0  0  0  0  0  0  0  0  0  0  0
  188.4300  177.3170  144.1410 C   0  0  1  0  0  3  0  0  0  0  0  0
  192.0870  177.6940  144.1810 O   0  0  0  0  0  0  0  0  0  0  0  0
  189.8060  177.4430  144.8500 C   0  0  1  0  0  3  0  0  0  0  0  0
  187.4340  178.4720  148.3530 O   0  0  0  0  0  0  0  0  0  0  0  0
  190.5030  173.8250  141.2920 O   0  0  0  0  0  1  0  0  0  0  0  0
  188.4340  176.5210  142.8480 C   0  0  0  0  0  0  0  0  0  0  0  0
  187.8820  177.9870  147.2790 C   0  0  0  0  0  0  0  0  0  0  0  0
  189.5530  175.2730  146.2650 C   0  0  0  0  0  3  0  0  0  0  0  0
  189.0490  174.8600  147.6380 C   0  0  0  0  0  1  0  0  0  0  0  0
  190.7490  174.4030  145.9290 C   0  0  0  0  0  1  0  0  0  0  0  0
  1  5  1  0  0  0  0
  2 13  1  0  0  0  0
  2 20  1  0  0  0  0
  3 10  1  0  0  0  0
  5 11  2  0  0  0  0
  6 15  2  0  0  0  0
  6 19  1  0  0  0  0
  7  6  1  0  0  0  0
  9 28  1  6  0  0  0
  9 14  1  0  0  0  0
 10 22  2  0  0  0  0
 11  7  1  0  0  0  0
 11  8  1  0  0  0  0
 12  4  1  6  0  0  0
 12 19  1  0  0  0  0
 12 27  1  0  0  0  0
 13 18  1  0  0  0  0
 14 27  1  0  0  0  0
 16  1  2  0  0  0  0
 17 26  1  6  0  0  0
 17  3  1  0  0  0  0
 18 25  1  1  0  0  0
 18 17  1  0  0  0  0
 20  1  1  0  0  0  0
 20 26  2  0  0  0  0
 21 23  1  0  0  0  0
 21  4  1  1  0  0  0
 23 10  1  6  0  0  0
 23  9  1  0  0  0  0
 26 21  1  0  0  0  0
 27 24  2  0  0  0  0
 28 29  1  0  0  0  0
 30 28  1  0  0  0  0
M  END
>  <MODEL>
9

>  <REMARK>
 VINA RESULT:      -6.5      2.891      6.064
  Name = 
  1 active torsions:
  status: ('A' for Active; 'I' for Inactive)
    1  A    between atoms: C_7  and  C_10
                            x       y       z     vdW  Elec       q    Type
                         _______ _______ _______ _____ _____    ______ ____

>  <TORSDO>
F 1

$$$$
