=
 OpenBabel11052417573D

 31 34  0  0  1  0  0  0  0  0999 V2000
  185.3960  177.9640  140.7410 C   0  0  0  0  0  0  0  0  0  0  0  0
  186.9250  177.0030  144.0510 C   0  0  0  0  0  0  0  0  0  0  0  0
  186.0650  177.5270  145.0740 C   0  0  0  0  0  0  0  0  0  0  0  0
  191.1820  174.8250  141.8320 O   0  0  0  0  0  0  0  0  0  0  0  0
  191.1750  174.5480  143.0610 C   0  0  0  0  0  0  0  0  0  0  0  0
  184.0740  178.7520  145.7910 C   0  0  0  0  0  3  0  0  0  0  0  0
  186.6940  177.1530  142.6480 C   0  0  0  0  0  0  0  0  0  0  0  0
  186.3140  177.3990  139.8580 C   0  0  0  0  0  3  0  0  0  0  0  0
  184.8950  178.2520  144.7810 C   0  0  0  0  0  3  0  0  0  0  0  0
  188.9680  175.7550  143.4990 C   0  0  0  0  0  0  0  0  0  0  0  0
  184.3180  178.6310  140.2640 F   0  0  0  0  0  0  0  0  0  0  0  0
  187.5300  176.6080  146.7950 C   0  0  0  0  0  3  0  0  0  0  0  0
  184.4030  178.5380  147.1270 C   0  0  0  0  0  3  0  0  0  0  0  0
  188.7060  175.9200  142.1800 N   0  0  0  0  0  0  0  0  0  0  0  0
  188.0870  176.2850  144.4570 C   0  0  0  0  0  0  0  0  0  0  0  0
  190.1350  175.0290  143.9190 N   0  0  0  0  0  2  0  0  0  0  0  0
  185.5870  177.8400  142.1190 C   0  0  0  0  0  3  0  0  0  0  0  0
  185.8540  177.6270  148.7660 F   0  0  0  0  0  0  0  0  0  0  0  0
  187.6190  176.5890  141.7320 C   0  0  0  0  0  0  0  0  0  0  0  0
  187.4230  176.7130  140.3530 C   0  0  0  0  0  3  0  0  0  0  0  0
  188.3680  176.1000  145.8150 C   0  0  0  0  0  3  0  0  0  0  0  0
  186.3850  177.3180  146.4450 C   0  0  0  0  0  0  0  0  0  0  0  0
  185.5530  177.8240  147.4580 C   0  0  0  0  0  0  0  0  0  0  0  0
  192.9950  172.9050  142.6080 C   0  0  0  0  0  1  0  0  0  0  0  0
  192.2950  173.7590  143.6590 C   0  0  1  0  0  3  0  0  0  0  0  0
  194.5890  174.3620  144.1010 O   0  0  0  0  0  1  0  0  0  0  0  0
  193.2640  174.6670  144.4220 C   0  0  2  0  0  3  0  0  0  0  0  0
  193.0670  174.5600  145.9280 C   0  0  0  0  0  2  0  0  0  0  0  0
  192.9600  175.9100  146.5490 C   0  0  0  0  0  0  0  0  0  0  0  0
  194.1060  176.7500  146.6300 N   0  0  0  0  0  1  0  0  0  0  0  0
  191.8540  176.3140  146.9900 O   0  0  0  0  0  0  0  0  0  0  0  0
  1 17  1  0  0  0  0
  2 15  2  0  0  0  0
  2  3  1  0  0  0  0
  3 22  1  0  0  0  0
  4  5  2  0  0  0  0
  5 25  1  0  0  0  0
  5 16  1  0  0  0  0
  6 13  2  0  0  0  0
  7  2  1  0  0  0  0
  8 20  1  0  0  0  0
  8  1  2  0  0  0  0
  9  3  2  0  0  0  0
  9  6  1  0  0  0  0
 10 16  1  0  0  0  0
 10 15  1  0  0  0  0
 11  1  1  0  0  0  0
 13 23  1  0  0  0  0
 14 10  2  0  0  0  0
 15 21  1  0  0  0  0
 17  7  2  0  0  0  0
 19 14  1  0  0  0  0
 19  7  1  0  0  0  0
 20 19  2  0  0  0  0
 21 12  2  0  0  0  0
 22 12  1  0  0  0  0
 22 23  2  0  0  0  0
 23 18  1  0  0  0  0
 25 24  1  6  0  0  0
 25 27  1  0  0  0  0
 27 26  1  1  0  0  0
 27 28  1  0  0  0  0
 28 29  1  0  0  0  0
 29 30  1  0  0  0  0
 29 31  2  0  0  0  0
M  END
>  <MODEL>
1

>  <REMARK>
 VINA RESULT:      -8.9      0.000      0.000
  Name = 
  4 active torsions:
  status: ('A' for Active; 'I' for Inactive)
    1  A    between atoms: C_1  and  C_24
    2  A    between atoms: C_9  and  C_22
    3  A    between atoms: C_19  and  C_22
    4  A    between atoms: C_19  and  C_24
                            x       y       z     vdW  Elec       q    Type
                         _______ _______ _______ _____ _____    ______ ____

>  <TORSDO>
F 4

$$$$
=
 OpenBabel11052417573D

 31 34  0  0  1  0  0  0  0  0999 V2000
  184.9510  178.1840  146.9880 C   0  0  0  0  0  0  0  0  0  0  0  0
  187.1610  177.6970  143.9730 C   0  0  0  0  0  0  0  0  0  0  0  0
  186.3230  177.8380  142.8160 C   0  0  0  0  0  0  0  0  0  0  0  0
  191.4180  176.5490  146.8620 O   0  0  0  0  0  0  0  0  0  0  0  0
  191.7680  176.6960  145.6600 C   0  0  0  0  0  0  0  0  0  0  0  0
  184.1500  178.2380  141.7700 C   0  0  0  0  0  3  0  0  0  0  0  0
  186.7010  177.8120  145.3210 C   0  0  0  0  0  0  0  0  0  0  0  0
  185.8780  178.0280  148.0170 C   0  0  0  0  0  3  0  0  0  0  0  0
  184.9450  178.1050  142.9070 C   0  0  0  0  0  3  0  0  0  0  0  0
  189.4110  177.2690  144.8630 C   0  0  0  0  0  0  0  0  0  0  0  0
  183.6540  178.4420  147.2780 F   0  0  0  0  0  0  0  0  0  0  0  0
  188.2420  177.4420  141.3610 C   0  0  0  0  0  3  0  0  0  0  0  0
  184.7150  178.1070  140.5050 C   0  0  0  0  0  3  0  0  0  0  0  0
  188.9300  177.3910  146.1240 N   0  0  0  0  0  0  0  0  0  0  0  0
  188.5450  177.4240  143.7670 C   0  0  0  0  0  0  0  0  0  0  0  0
  190.8050  176.9980  144.6440 N   0  0  0  0  0  2  0  0  0  0  0  0
  185.3610  178.0770  145.6580 C   0  0  0  0  0  3  0  0  0  0  0  0
  186.6070  177.7190  139.1290 F   0  0  0  0  0  0  0  0  0  0  0  0
  187.6280  177.6520  146.3830 C   0  0  0  0  0  0  0  0  0  0  0  0
  187.2130  177.7620  147.7140 C   0  0  0  0  0  3  0  0  0  0  0  0
  189.0590  177.3020  142.4720 C   0  0  0  0  0  3  0  0  0  0  0  0
  186.8840  177.7070  141.5140 C   0  0  0  0  0  0  0  0  0  0  0  0
  186.0770  177.8430  140.3720 C   0  0  0  0  0  0  0  0  0  0  0  0
  194.0960  176.3590  146.4850 C   0  0  0  0  0  1  0  0  0  0  0  0
  193.1950  176.4940  145.2640 C   0  0  1  0  0  3  0  0  0  0  0  0
  192.7520  174.1630  144.8210 O   0  0  0  0  0  1  0  0  0  0  0  0
  193.3370  175.3170  144.2930 C   0  0  2  0  0  3  0  0  0  0  0  0
  194.7950  175.0410  143.9530 C   0  0  0  0  0  2  0  0  0  0  0  0
  195.3260  176.0660  143.0120 C   0  0  0  0  0  0  0  0  0  0  0  0
  196.5130  176.7820  143.3330 N   0  0  0  0  0  1  0  0  0  0  0  0
  194.7320  176.2920  141.9260 O   0  0  0  0  0  0  0  0  0  0  0  0
  1 11  1  0  0  0  0
  1  8  1  0  0  0  0
  2  7  1  0  0  0  0
  3  9  1  0  0  0  0
  3  2  2  0  0  0  0
  5  4  2  0  0  0  0
  6  9  2  0  0  0  0
  7 17  1  0  0  0  0
  7 19  2  0  0  0  0
 10 14  2  0  0  0  0
 12 22  2  0  0  0  0
 12 21  1  0  0  0  0
 13  6  1  0  0  0  0
 14 19  1  0  0  0  0
 15  2  1  0  0  0  0
 15 10  1  0  0  0  0
 16 10  1  0  0  0  0
 16  5  1  0  0  0  0
 17  1  2  0  0  0  0
 18 23  1  0  0  0  0
 19 20  1  0  0  0  0
 20  8  2  0  0  0  0
 21 15  2  0  0  0  0
 22  3  1  0  0  0  0
 23 13  2  0  0  0  0
 23 22  1  0  0  0  0
 25  5  1  0  0  0  0
 25 24  1  1  0  0  0
 27 26  1  1  0  0  0
 27 25  1  0  0  0  0
 28 27  1  0  0  0  0
 29 30  1  0  0  0  0
 29 28  1  0  0  0  0
 31 29  2  0  0  0  0
M  END
>  <MODEL>
2

>  <REMARK>
 VINA RESULT:      -8.8      1.882      4.836
  Name = 
  4 active torsions:
  status: ('A' for Active; 'I' for Inactive)
    1  A    between atoms: C_1  and  C_24
    2  A    between atoms: C_9  and  C_22
    3  A    between atoms: C_19  and  C_22
    4  A    between atoms: C_19  and  C_24
                            x       y       z     vdW  Elec       q    Type
                         _______ _______ _______ _____ _____    ______ ____

>  <TORSDO>
F 4

$$$$
=
 OpenBabel11052417573D

 31 34  0  0  1  0  0  0  0  0999 V2000
  191.1250  176.4280  147.5450 C   0  0  0  0  0  0  0  0  0  0  0  0
  188.4480  176.4360  144.8900 C   0  0  0  0  0  0  0  0  0  0  0  0
  187.3290  177.1530  145.4310 C   0  0  0  0  0  0  0  0  0  0  0  0
  191.2280  173.3870  141.6080 O   0  0  0  0  0  0  0  0  0  0  0  0
  190.2190  173.8320  140.9970 C   0  0  0  0  0  0  0  0  0  0  0  0
  186.2370  178.3990  147.2290 C   0  0  0  0  0  3  0  0  0  0  0  0
  189.6750  176.2090  145.5890 C   0  0  0  0  0  0  0  0  0  0  0  0
  192.1330  175.7170  146.8950 C   0  0  0  0  0  3  0  0  0  0  0  0
  187.3370  177.7050  146.7240 C   0  0  0  0  0  3  0  0  0  0  0  0
  189.3970  175.1980  142.9910 C   0  0  0  0  0  0  0  0  0  0  0  0
  191.3230  176.8870  148.8040 F   0  0  0  0  0  0  0  0  0  0  0  0
  186.0870  176.8000  143.3600 C   0  0  0  0  0  3  0  0  0  0  0  0
  185.0950  178.5580  146.4490 C   0  0  0  0  0  3  0  0  0  0  0  0
  190.5420  175.0110  143.6910 N   0  0  0  0  0  0  0  0  0  0  0  0
  188.3340  175.9140  143.5680 C   0  0  0  0  0  0  0  0  0  0  0  0
  189.2720  174.6800  141.6570 N   0  0  0  0  0  2  0  0  0  0  0  0
  189.9120  176.6690  146.8960 C   0  0  0  0  0  3  0  0  0  0  0  0
  183.9250  178.1920  144.4190 F   0  0  0  0  0  0  0  0  0  0  0  0
  190.7120  175.4840  144.9470 C   0  0  0  0  0  0  0  0  0  0  0  0
  191.9260  175.2470  145.5990 C   0  0  0  0  0  3  0  0  0  0  0  0
  187.1620  176.1040  142.8300 C   0  0  0  0  0  3  0  0  0  0  0  0
  186.1530  177.3250  144.6470 C   0  0  0  0  0  0  0  0  0  0  0  0
  185.0480  178.0250  145.1620 C   0  0  0  0  0  0  0  0  0  0  0  0
  190.5110  172.0360  139.2930 C   0  0  0  0  0  1  0  0  0  0  0  0
  189.9600  173.4270  139.5810 C   0  0  1  0  0  3  0  0  0  0  0  0
  187.8160  172.3350  139.3910 O   0  0  0  0  0  1  0  0  0  0  0  0
  188.4740  173.5580  139.2330 C   0  0  2  0  0  3  0  0  0  0  0  0
  188.2720  174.0650  137.8120 C   0  0  0  0  0  2  0  0  0  0  0  0
  187.4430  175.3020  137.8000 C   0  0  0  0  0  0  0  0  0  0  0  0
  186.9800  175.8400  136.5670 N   0  0  0  0  0  1  0  0  0  0  0  0
  187.1380  175.8660  138.8830 O   0  0  0  0  0  0  0  0  0  0  0  0
  1 11  1  0  0  0  0
  2  3  1  0  0  0  0
  2  7  1  0  0  0  0
  3  9  1  0  0  0  0
  5  4  2  0  0  0  0
  5 16  1  0  0  0  0
  7 17  2  0  0  0  0
  8  1  2  0  0  0  0
  9  6  2  0  0  0  0
 10 15  1  0  0  0  0
 10 14  2  0  0  0  0
 12 22  1  0  0  0  0
 13  6  1  0  0  0  0
 14 19  1  0  0  0  0
 15  2  2  0  0  0  0
 16 10  1  0  0  0  0
 17  1  1  0  0  0  0
 18 23  1  0  0  0  0
 19  7  1  0  0  0  0
 19 20  2  0  0  0  0
 20  8  1  0  0  0  0
 21 12  2  0  0  0  0
 21 15  1  0  0  0  0
 22 23  1  0  0  0  0
 22  3  2  0  0  0  0
 23 13  2  0  0  0  0
 25 24  1  1  0  0  0
 25  5  1  0  0  0  0
 27 26  1  6  0  0  0
 27 25  1  0  0  0  0
 28 27  1  0  0  0  0
 29 28  1  0  0  0  0
 29 31  2  0  0  0  0
 30 29  1  0  0  0  0
M  END
>  <MODEL>
3

>  <REMARK>
 VINA RESULT:      -8.2      2.764      6.030
  Name = 
  4 active torsions:
  status: ('A' for Active; 'I' for Inactive)
    1  A    between atoms: C_1  and  C_24
    2  A    between atoms: C_9  and  C_22
    3  A    between atoms: C_19  and  C_22
    4  A    between atoms: C_19  and  C_24
                            x       y       z     vdW  Elec       q    Type
                         _______ _______ _______ _____ _____    ______ ____

>  <TORSDO>
F 4

$$$$
=
 OpenBabel11052417573D

 31 34  0  0  1  0  0  0  0  0999 V2000
  185.4140  178.0780  140.7200 C   0  0  0  0  0  0  0  0  0  0  0  0
  186.9390  177.0070  143.9980 C   0  0  0  0  0  0  0  0  0  0  0  0
  186.1100  177.5450  145.0380 C   0  0  0  0  0  0  0  0  0  0  0  0
  191.0880  174.7070  141.6980 O   0  0  0  0  0  0  0  0  0  0  0  0
  191.0830  174.4100  142.9220 C   0  0  0  0  0  0  0  0  0  0  0  0
  184.1740  178.8320  145.7970 C   0  0  0  0  0  3  0  0  0  0  0  0
  186.7000  177.1880  142.6000 C   0  0  0  0  0  0  0  0  0  0  0  0
  186.3010  177.4930  139.8180 C   0  0  0  0  0  3  0  0  0  0  0  0
  184.9650  178.3180  144.7700 C   0  0  0  0  0  3  0  0  0  0  0  0
  188.9280  175.6920  143.4040 C   0  0  0  0  0  0  0  0  0  0  0  0
  184.3570  178.7920  140.2650 F   0  0  0  0  0  0  0  0  0  0  0  0
  187.5570  176.5440  146.7280 C   0  0  0  0  0  3  0  0  0  0  0  0
  184.5080  178.5840  147.1250 C   0  0  0  0  0  3  0  0  0  0  0  0
  188.6590  175.8880  142.0900 N   0  0  0  0  0  0  0  0  0  0  0  0
  188.0770  176.2380  144.3800 C   0  0  0  0  0  0  0  0  0  0  0  0
  190.0710  174.9160  143.8000 N   0  0  0  0  0  2  0  0  0  0  0  0
  185.6140  177.9250  142.0940 C   0  0  0  0  0  3  0  0  0  0  0  0
  185.9410  177.5920  148.7330 F   0  0  0  0  0  0  0  0  0  0  0  0
  187.5930  176.6050  141.6650 C   0  0  0  0  0  0  0  0  0  0  0  0
  187.3880  176.7580  140.2900 C   0  0  0  0  0  3  0  0  0  0  0  0
  188.3650  176.0210  145.7310 C   0  0  0  0  0  3  0  0  0  0  0  0
  186.4360  177.3020  146.4020 C   0  0  0  0  0  0  0  0  0  0  0  0
  185.6340  177.8220  147.4320 C   0  0  0  0  0  0  0  0  0  0  0  0
  192.3520  173.8260  144.9880 C   0  0  0  0  0  1  0  0  0  0  0  0
  192.1790  173.5700  143.4950 C   0  0  1  0  0  3  0  0  0  0  0  0
  192.3090  171.2860  144.2620 O   0  0  0  0  0  1  0  0  0  0  0  0
  191.9650  172.0880  143.1710 C   0  0  2  0  0  3  0  0  0  0  0  0
  192.7650  171.6590  141.9500 C   0  0  0  0  0  2  0  0  0  0  0  0
  191.8630  171.2230  140.8470 C   0  0  0  0  0  0  0  0  0  0  0  0
  190.4530  171.2350  141.0330 N   0  0  0  0  0  1  0  0  0  0  0  0
  192.3470  170.8550  139.7460 O   0  0  0  0  0  0  0  0  0  0  0  0
  1 17  1  0  0  0  0
  2 15  2  0  0  0  0
  2  3  1  0  0  0  0
  3 22  1  0  0  0  0
  4  5  2  0  0  0  0
  5 25  1  0  0  0  0
  5 16  1  0  0  0  0
  6 13  2  0  0  0  0
  7  2  1  0  0  0  0
  8 20  1  0  0  0  0
  8  1  2  0  0  0  0
  9  3  2  0  0  0  0
  9  6  1  0  0  0  0
 10 16  1  0  0  0  0
 10 15  1  0  0  0  0
 11  1  1  0  0  0  0
 13 23  1  0  0  0  0
 14 10  2  0  0  0  0
 15 21  1  0  0  0  0
 17  7  2  0  0  0  0
 19 14  1  0  0  0  0
 19  7  1  0  0  0  0
 20 19  2  0  0  0  0
 21 12  2  0  0  0  0
 22 12  1  0  0  0  0
 22 23  2  0  0  0  0
 23 18  1  0  0  0  0
 25 24  1  1  0  0  0
 27 25  1  0  0  0  0
 27 26  1  1  0  0  0
 28 27  1  0  0  0  0
 29 30  1  0  0  0  0
 29 28  1  0  0  0  0
 31 29  2  0  0  0  0
M  END
>  <MODEL>
4

>  <REMARK>
 VINA RESULT:      -8.2      1.673      2.949
  Name = 
  4 active torsions:
  status: ('A' for Active; 'I' for Inactive)
    1  A    between atoms: C_1  and  C_24
    2  A    between atoms: C_9  and  C_22
    3  A    between atoms: C_19  and  C_22
    4  A    between atoms: C_19  and  C_24
                            x       y       z     vdW  Elec       q    Type
                         _______ _______ _______ _____ _____    ______ ____

>  <TORSDO>
F 4

$$$$
=
 OpenBabel11052417573D

 31 34  0  0  1  0  0  0  0  0999 V2000
  190.9070  176.1540  147.4710 C   0  0  0  0  0  0  0  0  0  0  0  0
  188.0510  176.4320  145.0250 C   0  0  0  0  0  0  0  0  0  0  0  0
  187.0460  177.2440  145.6500 C   0  0  0  0  0  0  0  0  0  0  0  0
  190.2840  173.1710  141.5360 O   0  0  0  0  0  0  0  0  0  0  0  0
  189.2770  173.7120  141.0040 C   0  0  0  0  0  0  0  0  0  0  0  0
  186.2120  178.5680  147.5280 C   0  0  0  0  0  3  0  0  0  0  0  0
  189.3000  176.0870  145.6290 C   0  0  0  0  0  0  0  0  0  0  0  0
  191.7930  175.3600  146.7460 C   0  0  0  0  0  3  0  0  0  0  0  0
  187.2020  177.7810  146.9410 C   0  0  0  0  0  3  0  0  0  0  0  0
  188.7360  175.1300  143.0570 C   0  0  0  0  0  0  0  0  0  0  0  0
  191.2400  176.5820  148.7120 F   0  0  0  0  0  0  0  0  0  0  0  0
  185.6250  177.0260  143.6780 C   0  0  0  0  0  3  0  0  0  0  0  0
  185.0340  178.8390  146.8370 C   0  0  0  0  0  3  0  0  0  0  0  0
  189.9090  174.8320  143.6690 N   0  0  0  0  0  0  0  0  0  0  0  0
  187.7900  175.9350  143.7150 C   0  0  0  0  0  0  0  0  0  0  0  0
  188.4650  174.6370  141.7350 N   0  0  0  0  0  2  0  0  0  0  0  0
  189.6760  176.5120  146.9160 C   0  0  0  0  0  3  0  0  0  0  0  0
  183.6870  178.6010  144.9000 F   0  0  0  0  0  0  0  0  0  0  0  0
  190.2150  175.2760  144.9100 C   0  0  0  0  0  0  0  0  0  0  0  0
  191.4470  174.9220  145.4680 C   0  0  0  0  0  3  0  0  0  0  0  0
  186.5890  176.2390  143.0670 C   0  0  0  0  0  3  0  0  0  0  0  0
  185.8360  177.5310  144.9580 C   0  0  0  0  0  0  0  0  0  0  0  0
  184.8420  178.3240  145.5560 C   0  0  0  0  0  0  0  0  0  0  0  0
  188.1850  174.5080  138.9090 C   0  0  0  0  0  1  0  0  0  0  0  0
  188.8770  173.3460  139.6110 C   0  0  1  0  0  3  0  0  0  0  0  0
  190.6130  173.7930  137.9960 O   0  0  0  0  0  1  0  0  0  0  0  0
  190.0700  172.8030  138.8180 C   0  0  2  0  0  3  0  0  0  0  0  0
  189.6830  171.5960  137.9760 C   0  0  0  0  0  2  0  0  0  0  0  0
  190.1960  170.3360  138.5830 C   0  0  0  0  0  0  0  0  0  0  0  0
  190.0860  169.1060  137.8750 N   0  0  0  0  0  1  0  0  0  0  0  0
  190.7390  170.3590  139.7170 O   0  0  0  0  0  0  0  0  0  0  0  0
  1 11  1  0  0  0  0
  2  7  1  0  0  0  0
  2  3  1  0  0  0  0
  3  9  1  0  0  0  0
  5  4  2  0  0  0  0
  5 16  1  0  0  0  0
  7 17  2  0  0  0  0
  8  1  2  0  0  0  0
  9  6  2  0  0  0  0
 10 14  2  0  0  0  0
 10 15  1  0  0  0  0
 12 22  1  0  0  0  0
 13  6  1  0  0  0  0
 14 19  1  0  0  0  0
 15  2  2  0  0  0  0
 16 10  1  0  0  0  0
 17  1  1  0  0  0  0
 18 23  1  0  0  0  0
 19 20  2  0  0  0  0
 19  7  1  0  0  0  0
 20  8  1  0  0  0  0
 21 12  2  0  0  0  0
 21 15  1  0  0  0  0
 22 23  1  0  0  0  0
 22  3  2  0  0  0  0
 23 13  2  0  0  0  0
 25 24  1  6  0  0  0
 25  5  1  0  0  0  0
 27 26  1  6  0  0  0
 27 25  1  0  0  0  0
 28 29  1  0  0  0  0
 28 27  1  0  0  0  0
 29 31  2  0  0  0  0
 30 29  1  0  0  0  0
M  END
>  <MODEL>
5

>  <REMARK>
 VINA RESULT:      -8.2      3.150      5.955
  Name = 
  4 active torsions:
  status: ('A' for Active; 'I' for Inactive)
    1  A    between atoms: C_1  and  C_24
    2  A    between atoms: C_9  and  C_22
    3  A    between atoms: C_19  and  C_22
    4  A    between atoms: C_19  and  C_24
                            x       y       z     vdW  Elec       q    Type
                         _______ _______ _______ _____ _____    ______ ____

>  <TORSDO>
F 4

$$$$
=
 OpenBabel11052417573D

 31 34  0  0  1  0  0  0  0  0999 V2000
  185.0810  178.0340  146.7650 C   0  0  0  0  0  0  0  0  0  0  0  0
  186.9250  176.8760  143.6870 C   0  0  0  0  0  0  0  0  0  0  0  0
  186.1880  177.3580  142.5550 C   0  0  0  0  0  0  0  0  0  0  0  0
  190.4860  174.1360  146.4450 O   0  0  0  0  0  0  0  0  0  0  0  0
  190.8540  174.1870  145.2410 C   0  0  0  0  0  0  0  0  0  0  0  0
  184.3060  178.5690  141.5700 C   0  0  0  0  0  3  0  0  0  0  0  0
  186.5540  177.1040  145.0490 C   0  0  0  0  0  0  0  0  0  0  0  0
  185.8950  177.5100  147.7680 C   0  0  0  0  0  3  0  0  0  0  0  0
  185.0070  178.1110  142.6850 C   0  0  0  0  0  3  0  0  0  0  0  0
  188.8680  175.6180  144.5140 C   0  0  0  0  0  0  0  0  0  0  0  0
  183.9740  178.7420  147.0920 F   0  0  0  0  0  0  0  0  0  0  0  0
  187.8110  176.3360  141.0460 C   0  0  0  0  0  3  0  0  0  0  0  0
  184.7710  178.2850  140.2890 C   0  0  0  0  0  3  0  0  0  0  0  0
  188.4770  175.8630  145.7880 N   0  0  0  0  0  0  0  0  0  0  0  0
  188.1090  176.1200  143.4430 C   0  0  0  0  0  0  0  0  0  0  0  0
  190.0610  174.8600  144.2560 N   0  0  0  0  0  2  0  0  0  0  0  0
  185.4100  177.8320  145.4230 C   0  0  0  0  0  3  0  0  0  0  0  0
  186.3730  177.2770  138.8600 F   0  0  0  0  0  0  0  0  0  0  0  0
  187.3660  176.5750  146.0840 C   0  0  0  0  0  0  0  0  0  0  0  0
  187.0350  176.7820  147.4270 C   0  0  0  0  0  3  0  0  0  0  0  0
  188.5300  175.8640  142.1330 C   0  0  0  0  0  3  0  0  0  0  0  0
  186.6480  177.0770  141.2370 C   0  0  0  0  0  0  0  0  0  0  0  0
  185.9380  177.5410  140.1180 C   0  0  0  0  0  0  0  0  0  0  0  0
  191.8220  172.5090  143.6720 C   0  0  0  0  0  1  0  0  0  0  0  0
  192.1010  173.4880  144.8060 C   0  0  1  0  0  3  0  0  0  0  0  0
  194.1490  173.9190  143.6040 O   0  0  0  0  0  1  0  0  0  0  0  0
  193.2060  174.4920  144.4610 C   0  0  2  0  0  3  0  0  0  0  0  0
  193.9020  175.0130  145.7110 C   0  0  0  0  0  2  0  0  0  0  0  0
  194.0120  176.4980  145.6790 C   0  0  0  0  0  0  0  0  0  0  0  0
  194.1920  177.2260  146.8880 N   0  0  0  0  0  1  0  0  0  0  0  0
  193.9600  177.1100  144.5810 O   0  0  0  0  0  0  0  0  0  0  0  0
  1 11  1  0  0  0  0
  1  8  1  0  0  0  0
  2  7  1  0  0  0  0
  3  9  1  0  0  0  0
  3  2  2  0  0  0  0
  5  4  2  0  0  0  0
  6  9  2  0  0  0  0
  7 17  1  0  0  0  0
  7 19  2  0  0  0  0
 10 14  2  0  0  0  0
 12 22  2  0  0  0  0
 12 21  1  0  0  0  0
 13  6  1  0  0  0  0
 14 19  1  0  0  0  0
 15  2  1  0  0  0  0
 15 10  1  0  0  0  0
 16 10  1  0  0  0  0
 16  5  1  0  0  0  0
 17  1  2  0  0  0  0
 18 23  1  0  0  0  0
 19 20  1  0  0  0  0
 20  8  2  0  0  0  0
 21 15  2  0  0  0  0
 22  3  1  0  0  0  0
 23 13  2  0  0  0  0
 23 22  1  0  0  0  0
 25 24  1  6  0  0  0
 25  5  1  0  0  0  0
 27 26  1  6  0  0  0
 27 25  1  0  0  0  0
 27 28  1  0  0  0  0
 29 28  1  0  0  0  0
 29 30  1  0  0  0  0
 31 29  2  0  0  0  0
M  END
>  <MODEL>
6

>  <REMARK>
 VINA RESULT:      -8.1      1.499      4.385
  Name = 
  4 active torsions:
  status: ('A' for Active; 'I' for Inactive)
    1  A    between atoms: C_1  and  C_24
    2  A    between atoms: C_9  and  C_22
    3  A    between atoms: C_19  and  C_22
    4  A    between atoms: C_19  and  C_24
                            x       y       z     vdW  Elec       q    Type
                         _______ _______ _______ _____ _____    ______ ____

>  <TORSDO>
F 4

$$$$
=
 OpenBabel11052417573D

 31 34  0  0  1  0  0  0  0  0999 V2000
  190.1720  172.3620  141.1190 C   0  0  0  0  0  0  0  0  0  0  0  0
  190.7420  174.9180  143.8320 C   0  0  0  0  0  0  0  0  0  0  0  0
  192.0650  174.6960  144.3400 C   0  0  0  0  0  0  0  0  0  0  0  0
  185.8400  176.8330  143.5170 O   0  0  0  0  0  0  0  0  0  0  0  0
  186.5270  177.5890  144.2560 C   0  0  0  0  0  0  0  0  0  0  0  0
  194.1890  173.4850  144.3560 C   0  0  0  0  0  3  0  0  0  0  0  0
  190.1400  174.1520  142.7850 C   0  0  0  0  0  0  0  0  0  0  0  0
  188.8780  172.6900  140.7200 C   0  0  0  0  0  3  0  0  0  0  0  0
  192.9060  173.6820  143.8470 C   0  0  0  0  0  3  0  0  0  0  0  0
  188.6670  176.2300  143.9500 C   0  0  0  0  0  0  0  0  0  0  0  0
  190.8290  171.3420  140.5160 F   0  0  0  0  0  0  0  0  0  0  0  0
  191.7830  176.5400  145.9140 C   0  0  0  0  0  3  0  0  0  0  0  0
  194.6660  174.3010  145.3780 C   0  0  0  0  0  3  0  0  0  0  0  0
  188.1410  175.4790  142.9530 N   0  0  0  0  0  0  0  0  0  0  0  0
  189.9720  175.9720  144.4050 C   0  0  0  0  0  0  0  0  0  0  0  0
  187.9020  177.2970  144.5320 N   0  0  0  0  0  2  0  0  0  0  0  0
  190.7930  173.0860  142.1390 C   0  0  0  0  0  3  0  0  0  0  0  0
  194.3490  176.1010  146.8890 F   0  0  0  0  0  0  0  0  0  0  0  0
  188.8220  174.4670  142.3670 C   0  0  0  0  0  0  0  0  0  0  0  0
  188.2050  173.7410  141.3430 C   0  0  0  0  0  3  0  0  0  0  0  0
  190.5030  176.7610  145.4300 C   0  0  0  0  0  3  0  0  0  0  0  0
  192.5700  175.5210  145.3850 C   0  0  0  0  0  0  0  0  0  0  0  0
  193.8630  175.3170  145.8940 C   0  0  0  0  0  0  0  0  0  0  0  0
  185.5660  179.8600  143.8900 C   0  0  0  0  0  1  0  0  0  0  0  0
  185.8960  178.7750  144.9090 C   0  0  1  0  0  3  0  0  0  0  0  0
  183.5250  179.0020  145.2950 O   0  0  0  0  0  1  0  0  0  0  0  0
  184.6830  178.3640  145.7480 C   0  0  2  0  0  3  0  0  0  0  0  0
  184.8890  178.6700  147.2250 C   0  0  0  0  0  2  0  0  0  0  0  0
  186.1410  178.0390  147.7300 C   0  0  0  0  0  0  0  0  0  0  0  0
  186.3150  176.6300  147.6440 N   0  0  0  0  0  1  0  0  0  0  0  0
  187.0520  178.7540  148.2220 O   0  0  0  0  0  0  0  0  0  0  0  0
  1 17  1  0  0  0  0
  2  3  2  0  0  0  0
  2 15  1  0  0  0  0
  3 22  1  0  0  0  0
  4  5  2  0  0  0  0
  5 16  1  0  0  0  0
  5 25  1  0  0  0  0
  6 13  1  0  0  0  0
  7  2  1  0  0  0  0
  8  1  2  0  0  0  0
  8 20  1  0  0  0  0
  9  3  1  0  0  0  0
  9  6  2  0  0  0  0
 10 15  1  0  0  0  0
 10 16  1  0  0  0  0
 11  1  1  0  0  0  0
 13 23  2  0  0  0  0
 14 10  2  0  0  0  0
 15 21  2  0  0  0  0
 17  7  2  0  0  0  0
 19  7  1  0  0  0  0
 19 14  1  0  0  0  0
 20 19  2  0  0  0  0
 21 12  1  0  0  0  0
 22 23  1  0  0  0  0
 22 12  2  0  0  0  0
 23 18  1  0  0  0  0
 25 24  1  6  0  0  0
 25 27  1  0  0  0  0
 27 26  1  6  0  0  0
 27 28  1  0  0  0  0
 28 29  1  0  0  0  0
 29 31  2  0  0  0  0
 30 29  1  0  0  0  0
M  END
>  <MODEL>
7

>  <REMARK>
 VINA RESULT:      -7.9      3.821      7.225
  Name = 
  4 active torsions:
  status: ('A' for Active; 'I' for Inactive)
    1  A    between atoms: C_1  and  C_24
    2  A    between atoms: C_9  and  C_22
    3  A    between atoms: C_19  and  C_22
    4  A    between atoms: C_19  and  C_24
                            x       y       z     vdW  Elec       q    Type
                         _______ _______ _______ _____ _____    ______ ____

>  <TORSDO>
F 4

$$$$
=
 OpenBabel11052417573D

 31 34  0  0  1  0  0  0  0  0999 V2000
  192.9690  174.7810  145.9760 C   0  0  0  0  0  0  0  0  0  0  0  0
  190.2810  174.8600  143.3330 C   0  0  0  0  0  0  0  0  0  0  0  0
  190.8080  174.1800  142.1840 C   0  0  0  0  0  0  0  0  0  0  0  0
  187.0330  177.8140  146.2500 O   0  0  0  0  0  0  0  0  0  0  0  0
  186.4090  177.4020  145.2350 C   0  0  0  0  0  0  0  0  0  0  0  0
  192.5940  172.9720  141.0310 C   0  0  0  0  0  3  0  0  0  0  0  0
  190.9950  175.0470  144.5580 C   0  0  0  0  0  0  0  0  0  0  0  0
  192.3310  175.4580  147.0150 C   0  0  0  0  0  3  0  0  0  0  0  0
  192.1020  173.6280  142.1580 C   0  0  0  0  0  3  0  0  0  0  0  0
  188.3930  176.0650  144.3440 C   0  0  0  0  0  0  0  0  0  0  0  0
  194.2300  174.3160  146.1440 F   0  0  0  0  0  0  0  0  0  0  0  0
  188.7230  174.5720  140.9790 C   0  0  0  0  0  3  0  0  0  0  0  0
  191.8000  172.8500  139.8940 C   0  0  0  0  0  3  0  0  0  0  0  0
  189.1070  176.2140  145.4860 N   0  0  0  0  0  0  0  0  0  0  0  0
  188.9580  175.3840  143.2520 C   0  0  0  0  0  0  0  0  0  0  0  0
  187.0580  176.5860  144.2530 N   0  0  0  0  0  2  0  0  0  0  0  0
  192.3050  174.5790  144.7640 C   0  0  0  0  0  3  0  0  0  0  0  0
  189.7550  173.2520  138.7610 F   0  0  0  0  0  0  0  0  0  0  0  0
  190.3660  175.7370  145.6250 C   0  0  0  0  0  0  0  0  0  0  0  0
  191.0330  175.9340  146.8390 C   0  0  0  0  0  3  0  0  0  0  0  0
  188.2050  175.2320  142.0830 C   0  0  0  0  0  3  0  0  0  0  0  0
  190.0110  174.0460  141.0130 C   0  0  0  0  0  0  0  0  0  0  0  0
  190.5120  173.3830  139.8800 C   0  0  0  0  0  0  0  0  0  0  0  0
  184.3700  178.3920  146.2740 C   0  0  0  0  0  1  0  0  0  0  0  0
  184.9910  177.8150  145.0070 C   0  0  1  0  0  3  0  0  0  0  0  0
  184.4560  180.0310  144.2160 O   0  0  0  0  0  1  0  0  0  0  0  0
  184.8780  178.7630  143.8090 C   0  0  2  0  0  3  0  0  0  0  0  0
  183.9230  178.2230  142.7530 C   0  0  0  0  0  2  0  0  0  0  0  0
  184.5420  178.2770  141.3990 C   0  0  0  0  0  0  0  0  0  0  0  0
  185.9570  178.2630  141.2590 N   0  0  0  0  0  1  0  0  0  0  0  0
  183.8120  178.3210  140.3750 O   0  0  0  0  0  0  0  0  0  0  0  0
  1 11  1  0  0  0  0
  1  8  1  0  0  0  0
  2  7  1  0  0  0  0
  3  2  2  0  0  0  0
  5  4  2  0  0  0  0
  6  9  2  0  0  0  0
  7 17  1  0  0  0  0
  7 19  2  0  0  0  0
  9  3  1  0  0  0  0
 10 14  2  0  0  0  0
 12 22  2  0  0  0  0
 12 21  1  0  0  0  0
 13  6  1  0  0  0  0
 14 19  1  0  0  0  0
 15  2  1  0  0  0  0
 15 10  1  0  0  0  0
 16 10  1  0  0  0  0
 16  5  1  0  0  0  0
 17  1  2  0  0  0  0
 18 23  1  0  0  0  0
 19 20  1  0  0  0  0
 20  8  2  0  0  0  0
 21 15  2  0  0  0  0
 22  3  1  0  0  0  0
 23 13  2  0  0  0  0
 23 22  1  0  0  0  0
 25  5  1  0  0  0  0
 25 24  1  1  0  0  0
 27 26  1  1  0  0  0
 27 25  1  0  0  0  0
 28 27  1  0  0  0  0
 29 28  1  0  0  0  0
 30 29  1  0  0  0  0
 31 29  2  0  0  0  0
M  END
>  <MODEL>
8

>  <REMARK>
 VINA RESULT:      -7.7      3.620      8.418
  Name = 
  4 active torsions:
  status: ('A' for Active; 'I' for Inactive)
    1  A    between atoms: C_1  and  C_24
    2  A    between atoms: C_9  and  C_22
    3  A    between atoms: C_19  and  C_22
    4  A    between atoms: C_19  and  C_24
                            x       y       z     vdW  Elec       q    Type
                         _______ _______ _______ _____ _____    ______ ____

>  <TORSDO>
F 4

$$$$
=
 OpenBabel11052417573D

 31 34  0  0  1  0  0  0  0  0999 V2000
  190.8870  176.7410  147.4620 C   0  0  0  0  0  0  0  0  0  0  0  0
  188.2180  176.5360  144.8070 C   0  0  0  0  0  0  0  0  0  0  0  0
  187.1060  177.3130  145.2750 C   0  0  0  0  0  0  0  0  0  0  0  0
  190.9700  173.1670  141.8290 O   0  0  0  0  0  0  0  0  0  0  0  0
  189.9680  173.5660  141.1760 C   0  0  0  0  0  0  0  0  0  0  0  0
  186.0240  178.7310  146.9480 C   0  0  0  0  0  3  0  0  0  0  0  0
  189.4400  176.3600  145.5280 C   0  0  0  0  0  0  0  0  0  0  0  0
  191.8880  175.9620  146.8840 C   0  0  0  0  0  3  0  0  0  0  0  0
  187.1160  177.9820  146.5120 C   0  0  0  0  0  3  0  0  0  0  0  0
  189.1560  175.1190  143.0330 C   0  0  0  0  0  0  0  0  0  0  0  0
  191.0870  177.3120  148.6740 F   0  0  0  0  0  0  0  0  0  0  0  0
  185.8650  176.7860  143.2410 C   0  0  0  0  0  3  0  0  0  0  0  0
  184.8860  178.8310  146.1520 C   0  0  0  0  0  3  0  0  0  0  0  0
  190.2970  174.9840  143.7520 N   0  0  0  0  0  0  0  0  0  0  0  0
  188.1010  175.8970  143.5380 C   0  0  0  0  0  0  0  0  0  0  0  0
  189.0300  174.4820  141.7510 N   0  0  0  0  0  2  0  0  0  0  0  0
  189.6790  176.9360  146.7890 C   0  0  0  0  0  3  0  0  0  0  0  0
  183.7170  178.2950  144.1590 F   0  0  0  0  0  0  0  0  0  0  0  0
  190.4690  175.5680  144.9600 C   0  0  0  0  0  0  0  0  0  0  0  0
  191.6790  175.3770  145.6360 C   0  0  0  0  0  3  0  0  0  0  0  0
  186.9330  176.0320  142.7800 C   0  0  0  0  0  3  0  0  0  0  0  0
  185.9340  177.4260  144.4750 C   0  0  0  0  0  0  0  0  0  0  0  0
  184.8360  178.1830  144.9190 C   0  0  0  0  0  0  0  0  0  0  0  0
  188.2210  173.0590  139.4710 C   0  0  0  0  0  1  0  0  0  0  0  0
  189.7080  173.0360  139.8030 C   0  0  1  0  0  3  0  0  0  0  0  0
  189.8370  173.9580  137.5760 O   0  0  0  0  0  1  0  0  0  0  0  0
  190.5570  173.7680  138.7580 C   0  0  2  0  0  3  0  0  0  0  0  0
  191.8470  173.0170  138.4560 C   0  0  0  0  0  2  0  0  0  0  0  0
  193.0350  173.8880  138.6760 C   0  0  0  0  0  0  0  0  0  0  0  0
  193.9740  173.5690  139.6960 N   0  0  0  0  0  1  0  0  0  0  0  0
  193.2160  174.9010  137.9520 O   0  0  0  0  0  0  0  0  0  0  0  0
  1 11  1  0  0  0  0
  2  3  1  0  0  0  0
  2  7  1  0  0  0  0
  3  9  1  0  0  0  0
  5 16  1  0  0  0  0
  5  4  2  0  0  0  0
  7 17  1  0  0  0  0
  8  1  1  0  0  0  0
  9  6  2  0  0  0  0
 10 15  1  0  0  0  0
 10 14  2  0  0  0  0
 12 22  1  0  0  0  0
 13  6  1  0  0  0  0
 14 19  1  0  0  0  0
 15  2  2  0  0  0  0
 16 10  1  0  0  0  0
 17  1  2  0  0  0  0
 18 23  1  0  0  0  0
 19  7  2  0  0  0  0
 19 20  1  0  0  0  0
 20  8  2  0  0  0  0
 21 12  2  0  0  0  0
 21 15  1  0  0  0  0
 22 23  1  0  0  0  0
 22  3  2  0  0  0  0
 23 13  2  0  0  0  0
 25 24  1  6  0  0  0
 25  5  1  0  0  0  0
 27 26  1  6  0  0  0
 27 25  1  0  0  0  0
 28 29  1  0  0  0  0
 28 27  1  0  0  0  0
 29 30  1  0  0  0  0
 31 29  2  0  0  0  0
M  END
>  <MODEL>
9

>  <REMARK>
 VINA RESULT:      -7.7      2.787      5.493
  Name = 
  4 active torsions:
  status: ('A' for Active; 'I' for Inactive)
    1  A    between atoms: C_1  and  C_24
    2  A    between atoms: C_9  and  C_22
    3  A    between atoms: C_19  and  C_22
    4  A    between atoms: C_19  and  C_24
                            x       y       z     vdW  Elec       q    Type
                         _______ _______ _______ _____ _____    ______ ____

>  <TORSDO>
F 4

$$$$
