=
 OpenBabel11052420453D

 43 48  0  0  1  0  0  0  0  0999 V2000
  184.7060  178.3760  145.6310 C   0  0  0  0  0  0  0  0  0  0  0  0
  188.6130  175.8230  143.6900 C   0  0  0  0  0  0  0  0  0  0  0  0
  190.5850  175.8780  145.6180 C   0  0  0  0  0  0  0  0  0  0  0  0
  186.1590  177.0900  144.1820 C   0  0  0  0  0  0  0  0  0  0  0  0
  185.7020  178.4070  146.6110 C   0  0  0  0  0  3  0  0  0  0  0  0
  183.5170  178.9830  145.8570 F   0  0  0  0  0  0  0  0  0  0  0  0
  187.1730  177.1180  145.1710 C   0  0  0  0  0  0  0  0  0  0  0  0
  184.9340  177.7190  144.4190 C   0  0  0  0  0  3  0  0  0  0  0  0
  186.9300  177.7820  146.3830 C   0  0  0  0  0  3  0  0  0  0  0  0
  189.3960  176.4910  145.8520 N   0  0  0  0  0  0  0  0  0  0  0  0
  188.4030  176.4820  144.9220 C   0  0  0  0  0  0  0  0  0  0  0  0
  187.6010  175.8050  142.7220 C   0  0  0  0  0  3  0  0  0  0  0  0
  189.8450  175.1980  143.4680 C   0  0  0  0  0  0  0  0  0  0  0  0
  190.8010  175.2400  144.4360 N   0  0  0  0  0  0  0  0  0  0  0  0
  186.3800  176.4360  142.9680 C   0  0  0  0  0  3  0  0  0  0  0  0
  191.6470  175.9110  146.6670 C   0  0  1  0  0  3  0  0  0  0  0  0
  191.0750  175.4870  148.0090 C   0  0  0  0  0  1  0  0  0  0  0  0
  192.8140  175.0160  146.2700 C   0  0  0  0  0  2  0  0  0  0  0  0
  194.0400  175.8390  145.9120 C   0  0  1  0  0  3  0  0  0  0  0  0
  194.0810  177.0730  146.7920 C   0  0  0  0  0  1  0  0  0  0  0  0
  195.3040  175.0120  146.1280 C   0  0  0  0  0  2  0  0  0  0  0  0
  195.7460  174.2800  144.8630 C   0  0  1  0  0  3  0  0  0  0  0  0
  197.1690  173.1590  142.8710 C   0  0  0  0  0  2  0  0  0  0  0  0
  196.2550  175.1840  143.9140 O   0  0  0  0  0  0  0  0  0  0  0  0
  196.7980  173.1930  145.1600 C   0  0  2  0  0  3  0  0  0  0  0  0
  197.7800  173.0770  144.1430 O   0  0  0  0  0  0  0  0  0  0  0  0
  196.3930  174.4800  142.6990 C   0  0  0  0  0  2  0  0  0  0  0  0
  194.8180  171.6330  145.3590 C   0  0  0  0  0  3  0  0  0  0  0  0
  196.1890  171.8710  145.5190 C   0  0  0  0  0  0  0  0  0  0  0  0
  197.2740  168.5830  146.8610 N   0  0  0  0  0  1  0  0  0  0  0  0
  195.1140  169.4130  146.1880 N   0  0  0  0  0  0  0  0  0  0  0  0
  196.4490  169.6220  146.3510 C   0  0  0  0  0  0  0  0  0  0  0  0
  194.2960  170.3850  145.7030 C   0  0  0  0  0  3  0  0  0  0  0  0
  197.0100  170.8570  146.0170 C   0  0  0  0  0  3  0  0  0  0  0  0
  190.0890  174.5370  142.2580 O   0  0  0  0  0  0  0  0  0  0  0  0
  191.5500  171.3160  141.1160 C   0  0  0  0  0  2  0  0  0  0  0  0
  190.8080  171.3780  139.7710 C   0  0  1  0  0  0  0  0  0  0  0  0
  191.8050  171.6670  138.6680 C   0  0  0  0  0  1  0  0  0  0  0  0
  189.0800  172.6470  141.1130 C   0  0  0  0  0  2  0  0  0  0  0  0
  191.5430  172.6640  141.8330 C   0  0  0  0  0  2  0  0  0  0  0  0
  190.1130  173.1200  142.1500 C   0  0  1  0  0  3  0  0  0  0  0  0
  190.2300  170.1460  139.5320 F   0  0  0  0  0  0  0  0  0  0  0  0
  189.7150  172.4560  139.7380 C   0  0  0  0  0  2  0  0  0  0  0  0
  1  6  1  0  0  0  0
  1  5  1  0  0  0  0
  2 11  1  0  0  0  0
  3 10  2  0  0  0  0
  3 16  1  0  0  0  0
  4  8  1  0  0  0  0
  4  7  1  0  0  0  0
  7  9  1  0  0  0  0
  8  1  2  0  0  0  0
  9  5  2  0  0  0  0
 11  7  2  0  0  0  0
 11 10  1  0  0  0  0
 12 15  1  0  0  0  0
 12  2  2  0  0  0  0
 13  2  1  0  0  0  0
 13 14  2  0  0  0  0
 14  3  1  0  0  0  0
 15  4  2  0  0  0  0
 16 17  1  1  0  0  0
 18 16  1  0  0  0  0
 19 21  1  0  0  0  0
 19 18  1  0  0  0  0
 19 20  1  1  0  0  0
 22 25  1  0  0  0  0
 22 21  1  1  0  0  0
 23 26  1  0  0  0  0
 24 22  1  0  0  0  0
 25 29  1  6  0  0  0
 26 25  1  0  0  0  0
 27 23  1  0  0  0  0
 27 24  1  0  0  0  0
 28 29  2  0  0  0  0
 28 33  1  0  0  0  0
 29 34  1  0  0  0  0
 31 32  1  0  0  0  0
 32 30  1  0  0  0  0
 33 31  2  0  0  0  0
 34 32  2  0  0  0  0
 35 13  1  0  0  0  0
 36 40  1  0  0  0  0
 37 38  1  6  0  0  0
 37 36  1  0  0  0  0
 39 41  1  0  0  0  0
 40 41  1  0  0  0  0
 41 35  1  6  0  0  0
 42 37  1  0  0  0  0
 43 37  1  0  0  0  0
 43 39  1  0  0  0  0
M  END
>  <MODEL>
1

>  <REMARK>
 VINA RESULT:      -8.9      0.000      0.000
  Name = 
  8 active torsions:
  status: ('A' for Active; 'I' for Inactive)
    1  A    between atoms: O_1  and  C_34
    2  A    between atoms: O_1  and  C_35
    3  A    between atoms: C_2  and  C_6
    4  A    between atoms: C_2  and  C_13
    5  A    between atoms: C_3  and  C_4
    6  A    between atoms: C_3  and  C_12
    7  A    between atoms: C_6  and  C_12
    8  A    between atoms: C_14  and  C_22
                            x       y       z     vdW  Elec       q    Type
                         _______ _______ _______ _____ _____    ______ ____

>  <TORSDO>
F 8

$$$$
=
 OpenBabel11052420453D

 43 48  0  0  1  0  0  0  0  0999 V2000
  185.6140  177.9610  147.0860 C   0  0  0  0  0  0  0  0  0  0  0  0
  187.8830  176.0380  142.9980 C   0  0  0  0  0  0  0  0  0  0  0  0
  190.5890  176.1230  143.5250 C   0  0  0  0  0  0  0  0  0  0  0  0
  186.0680  176.9810  144.9180 C   0  0  0  0  0  0  0  0  0  0  0  0
  186.9840  178.0070  147.3570 C   0  0  0  0  0  3  0  0  0  0  0  0
  184.7280  178.4130  148.0040 F   0  0  0  0  0  0  0  0  0  0  0  0
  187.4580  177.0250  145.1860 C   0  0  0  0  0  0  0  0  0  0  0  0
  185.1570  177.4490  145.8680 C   0  0  0  0  0  3  0  0  0  0  0  0
  187.9030  177.5420  146.4120 C   0  0  0  0  0  3  0  0  0  0  0  0
  189.7070  176.5790  144.4510 N   0  0  0  0  0  0  0  0  0  0  0  0
  188.3660  176.5510  144.2220 C   0  0  0  0  0  0  0  0  0  0  0  0
  186.5050  176.0020  142.7480 C   0  0  0  0  0  3  0  0  0  0  0  0
  188.8070  175.5720  142.0560 C   0  0  0  0  0  0  0  0  0  0  0  0
  190.1370  175.6260  142.3420 N   0  0  0  0  0  0  0  0  0  0  0  0
  185.6030  176.4720  143.7030 C   0  0  0  0  0  3  0  0  0  0  0  0
  192.0520  176.1710  143.8170 C   0  0  1  0  0  3  0  0  0  0  0  0
  192.4940  177.6050  144.0570 C   0  0  0  0  0  1  0  0  0  0  0  0
  192.3830  175.2960  145.0190 C   0  0  0  0  0  2  0  0  0  0  0  0
  192.9580  176.1220  146.1580 C   0  0  1  0  0  3  0  0  0  0  0  0
  192.0400  176.0110  147.3590 C   0  0  0  0  0  1  0  0  0  0  0  0
  194.3470  175.6080  146.5240 C   0  0  0  0  0  2  0  0  0  0  0  0
  195.1690  175.2210  145.2950 C   0  0  1  0  0  3  0  0  0  0  0  0
  197.1540  174.7410  143.5430 C   0  0  0  0  0  2  0  0  0  0  0  0
  195.6950  176.3630  144.6660 O   0  0  0  0  0  0  0  0  0  0  0  0
  196.3110  174.2490  145.6460 C   0  0  2  0  0  3  0  0  0  0  0  0
  197.4900  174.4800  144.8900 O   0  0  0  0  0  0  0  0  0  0  0  0
  196.2090  175.9520  143.4180 C   0  0  0  0  0  2  0  0  0  0  0  0
  194.5940  172.4410  145.2280 C   0  0  0  0  0  3  0  0  0  0  0  0
  195.8880  172.8110  145.6160 C   0  0  0  0  0  0  0  0  0  0  0  0
  197.3440  169.4670  146.3160 N   0  0  0  0  0  1  0  0  0  0  0  0
  195.1550  170.1450  145.5700 N   0  0  0  0  0  0  0  0  0  0  0  0
  196.4190  170.4820  145.9490 C   0  0  0  0  0  0  0  0  0  0  0  0
  194.2450  171.0890  145.2120 C   0  0  0  0  0  3  0  0  0  0  0  0
  196.8060  171.8240  145.9770 C   0  0  0  0  0  3  0  0  0  0  0  0
  188.3640  175.0580  140.8320 O   0  0  0  0  0  0  0  0  0  0  0  0
  189.8150  171.6650  141.2770 C   0  0  0  0  0  2  0  0  0  0  0  0
  191.1090  172.0480  140.5430 C   0  0  1  0  0  0  0  0  0  0  0  0
  192.2410  172.1370  141.5470 C   0  0  0  0  0  1  0  0  0  0  0  0
  189.5880  173.6340  139.2910 C   0  0  0  0  0  2  0  0  0  0  0  0
  189.0020  172.8940  141.6770 C   0  0  0  0  0  2  0  0  0  0  0  0
  188.5760  173.7060  140.4470 C   0  0  1  0  0  3  0  0  0  0  0  0
  191.4060  171.0540  139.6300 F   0  0  0  0  0  0  0  0  0  0  0  0
  191.0050  173.3890  139.8020 C   0  0  0  0  0  2  0  0  0  0  0  0
  1  5  1  0  0  0  0
  1  6  1  0  0  0  0
  2 11  1  0  0  0  0
  3 16  1  0  0  0  0
  3 10  2  0  0  0  0
  4  7  1  0  0  0  0
  4  8  1  0  0  0  0
  7  9  1  0  0  0  0
  8  1  2  0  0  0  0
  9  5  2  0  0  0  0
 11 10  1  0  0  0  0
 11  7  2  0  0  0  0
 12  2  2  0  0  0  0
 12 15  1  0  0  0  0
 13 14  2  0  0  0  0
 13  2  1  0  0  0  0
 14  3  1  0  0  0  0
 15  4  2  0  0  0  0
 16 17  1  1  0  0  0
 16 18  1  0  0  0  0
 18 19  1  0  0  0  0
 19 21  1  0  0  0  0
 19 20  1  1  0  0  0
 22 25  1  0  0  0  0
 22 21  1  1  0  0  0
 23 26  1  0  0  0  0
 24 22  1  0  0  0  0
 25 29  1  6  0  0  0
 26 25  1  0  0  0  0
 27 23  1  0  0  0  0
 27 24  1  0  0  0  0
 28 29  1  0  0  0  0
 29 34  2  0  0  0  0
 31 32  2  0  0  0  0
 32 34  1  0  0  0  0
 32 30  1  0  0  0  0
 33 28  2  0  0  0  0
 33 31  1  0  0  0  0
 35 13  1  0  0  0  0
 36 40  1  0  0  0  0
 37 36  1  0  0  0  0
 37 38  1  1  0  0  0
 39 43  1  0  0  0  0
 39 41  1  0  0  0  0
 41 35  1  1  0  0  0
 41 40  1  0  0  0  0
 42 37  1  0  0  0  0
 43 37  1  0  0  0  0
M  END
>  <MODEL>
2

>  <REMARK>
 VINA RESULT:      -8.9      1.320      1.770
  Name = 
  8 active torsions:
  status: ('A' for Active; 'I' for Inactive)
    1  A    between atoms: O_1  and  C_34
    2  A    between atoms: O_1  and  C_35
    3  A    between atoms: C_2  and  C_6
    4  A    between atoms: C_2  and  C_13
    5  A    between atoms: C_3  and  C_4
    6  A    between atoms: C_3  and  C_12
    7  A    between atoms: C_6  and  C_12
    8  A    between atoms: C_14  and  C_22
                            x       y       z     vdW  Elec       q    Type
                         _______ _______ _______ _____ _____    ______ ____

>  <TORSDO>
F 8

$$$$
=
 OpenBabel11052420453D

 43 48  0  0  1  0  0  0  0  0999 V2000
  188.9060  172.6680  137.9450 C   0  0  0  0  0  0  0  0  0  0  0  0
  188.1810  175.8640  141.7940 C   0  0  0  0  0  0  0  0  0  0  0  0
  189.4480  174.7320  143.9660 C   0  0  0  0  0  0  0  0  0  0  0  0
  188.2280  174.5430  139.3190 C   0  0  0  0  0  0  0  0  0  0  0  0
  189.5490  172.0900  139.0430 C   0  0  0  0  0  3  0  0  0  0  0  0
  188.9210  172.0410  136.7450 F   0  0  0  0  0  0  0  0  0  0  0  0
  188.8770  173.9630  140.4360 C   0  0  0  0  0  0  0  0  0  0  0  0
  188.2460  173.8930  138.0830 C   0  0  0  0  0  3  0  0  0  0  0  0
  189.5350  172.7330  140.2830 C   0  0  0  0  0  3  0  0  0  0  0  0
  189.4680  174.0950  142.7670 N   0  0  0  0  0  0  0  0  0  0  0  0
  188.8530  174.6270  141.6760 C   0  0  0  0  0  0  0  0  0  0  0  0
  187.5430  176.4250  140.6800 C   0  0  0  0  0  3  0  0  0  0  0  0
  188.1720  176.5050  143.0370 C   0  0  0  0  0  0  0  0  0  0  0  0
  188.8050  175.9240  144.0930 N   0  0  0  0  0  0  0  0  0  0  0  0
  187.5670  175.7670  139.4490 C   0  0  0  0  0  3  0  0  0  0  0  0
  190.1370  174.1130  145.1370 C   0  0  1  0  0  3  0  0  0  0  0  0
  189.8940  172.6140  145.1600 C   0  0  0  0  0  1  0  0  0  0  0  0
  191.6290  174.4180  145.0980 C   0  0  0  0  0  2  0  0  0  0  0  0
  191.9940  175.5080  146.0920 C   0  0  1  0  0  3  0  0  0  0  0  0
  191.2530  175.2590  147.3910 C   0  0  0  0  0  1  0  0  0  0  0  0
  193.4980  175.4980  146.3480 C   0  0  0  0  0  2  0  0  0  0  0  0
  194.3050  175.2430  145.0760 C   0  0  1  0  0  3  0  0  0  0  0  0
  196.2130  175.1750  143.1780 C   0  0  0  0  0  2  0  0  0  0  0  0
  194.4380  176.4240  144.3230 O   0  0  0  0  0  0  0  0  0  0  0  0
  195.6990  174.6630  145.3810 C   0  0  2  0  0  3  0  0  0  0  0  0
  196.7060  175.1410  144.5020 O   0  0  0  0  0  0  0  0  0  0  0  0
  194.9550  176.0590  143.0620 C   0  0  0  0  0  2  0  0  0  0  0  0
  196.7940  172.4790  146.0310 C   0  0  0  0  0  3  0  0  0  0  0  0
  195.7010  173.1670  145.4890 C   0  0  0  0  0  0  0  0  0  0  0  0
  193.4560  170.3180  144.6970 N   0  0  0  0  0  1  0  0  0  0  0  0
  195.6560  170.4090  145.6760 N   0  0  0  0  0  0  0  0  0  0  0  0
  194.5830  171.0580  145.1470 C   0  0  0  0  0  0  0  0  0  0  0  0
  196.7500  171.0860  146.1160 C   0  0  0  0  0  3  0  0  0  0  0  0
  194.5880  172.4520  145.0460 C   0  0  0  0  0  3  0  0  0  0  0  0
  187.5150  177.7310  143.1920 O   0  0  0  0  0  0  0  0  0  0  0  0
  184.7180  179.1930  145.1560 C   0  0  0  0  0  2  0  0  0  0  0  0
  184.9670  178.2470  146.3410 C   0  0  1  0  0  0  0  0  0  0  0  0
  185.5510  179.0400  147.4930 C   0  0  0  0  0  1  0  0  0  0  0  0
  185.7930  176.6750  144.5420 C   0  0  0  0  0  2  0  0  0  0  0  0
  185.8980  179.2140  144.1870 C   0  0  0  0  0  2  0  0  0  0  0  0
  186.1520  177.8260  143.5860 C   0  0  1  0  0  3  0  0  0  0  0  0
  183.7550  177.7170  146.7410 F   0  0  0  0  0  0  0  0  0  0  0  0
  185.9260  177.0970  146.0020 C   0  0  0  0  0  2  0  0  0  0  0  0
  1  8  2  0  0  0  0
  1  5  1  0  0  0  0
  2 13  1  0  0  0  0
  3 14  1  0  0  0  0
  3 16  1  0  0  0  0
  4 15  2  0  0  0  0
  4  7  1  0  0  0  0
  5  9  2  0  0  0  0
  6  1  1  0  0  0  0
  7 11  2  0  0  0  0
  8  4  1  0  0  0  0
  9  7  1  0  0  0  0
 10  3  2  0  0  0  0
 11  2  1  0  0  0  0
 11 10  1  0  0  0  0
 12  2  2  0  0  0  0
 13 35  1  0  0  0  0
 13 14  2  0  0  0  0
 15 12  1  0  0  0  0
 16 17  1  6  0  0  0
 18 16  1  0  0  0  0
 18 19  1  0  0  0  0
 19 21  1  0  0  0  0
 19 20  1  1  0  0  0
 22 25  1  0  0  0  0
 22 21  1  1  0  0  0
 23 26  1  0  0  0  0
 24 22  1  0  0  0  0
 25 29  1  6  0  0  0
 26 25  1  0  0  0  0
 27 23  1  0  0  0  0
 27 24  1  0  0  0  0
 28 33  1  0  0  0  0
 29 28  2  0  0  0  0
 30 32  1  0  0  0  0
 31 33  2  0  0  0  0
 32 31  1  0  0  0  0
 34 32  2  0  0  0  0
 34 29  1  0  0  0  0
 36 37  1  0  0  0  0
 37 42  1  0  0  0  0
 37 38  1  1  0  0  0
 39 43  1  0  0  0  0
 40 36  1  0  0  0  0
 41 35  1  1  0  0  0
 41 40  1  0  0  0  0
 41 39  1  0  0  0  0
 43 37  1  0  0  0  0
M  END
>  <MODEL>
3

>  <REMARK>
 VINA RESULT:      -8.8      1.778      6.111
  Name = 
  8 active torsions:
  status: ('A' for Active; 'I' for Inactive)
    1  A    between atoms: O_1  and  C_34
    2  A    between atoms: O_1  and  C_35
    3  A    between atoms: C_2  and  C_6
    4  A    between atoms: C_2  and  C_13
    5  A    between atoms: C_3  and  C_4
    6  A    between atoms: C_3  and  C_12
    7  A    between atoms: C_6  and  C_12
    8  A    between atoms: C_14  and  C_22
                            x       y       z     vdW  Elec       q    Type
                         _______ _______ _______ _____ _____    ______ ____

>  <TORSDO>
F 8

$$$$
=
 OpenBabel11052420453D

 43 48  0  0  1  0  0  0  0  0999 V2000
  185.4650  179.4800  144.0770 C   0  0  0  0  0  0  0  0  0  0  0  0
  188.1960  175.8070  141.9320 C   0  0  0  0  0  0  0  0  0  0  0  0
  189.4730  174.5060  144.0020 C   0  0  0  0  0  0  0  0  0  0  0  0
  186.5060  177.9750  142.4910 C   0  0  0  0  0  0  0  0  0  0  0  0
  186.1100  178.8250  145.1300 C   0  0  0  0  0  3  0  0  0  0  0  0
  184.6470  180.5280  144.3340 F   0  0  0  0  0  0  0  0  0  0  0  0
  187.1630  177.3070  143.5520 C   0  0  0  0  0  0  0  0  0  0  0  0
  185.6630  179.0560  142.7600 C   0  0  0  0  0  3  0  0  0  0  0  0
  186.9560  177.7430  144.8700 C   0  0  0  0  0  3  0  0  0  0  0  0
  188.6540  175.5560  144.2690 N   0  0  0  0  0  0  0  0  0  0  0  0
  188.0100  176.2190  143.2700 C   0  0  0  0  0  0  0  0  0  0  0  0
  187.5390  176.4790  140.8930 C   0  0  0  0  0  3  0  0  0  0  0  0
  189.0420  174.7220  141.6770 C   0  0  0  0  0  0  0  0  0  0  0  0
  189.6600  174.0980  142.7180 N   0  0  0  0  0  0  0  0  0  0  0  0
  186.6990  177.5580  141.1720 C   0  0  0  0  0  3  0  0  0  0  0  0
  190.1590  173.8060  145.1280 C   0  0  1  0  0  3  0  0  0  0  0  0
  189.9580  172.3050  145.0150 C   0  0  0  0  0  1  0  0  0  0  0  0
  191.6420  174.1520  145.1430 C   0  0  0  0  0  2  0  0  0  0  0  0
  191.9060  175.4030  145.9660 C   0  0  1  0  0  3  0  0  0  0  0  0
  191.2300  175.2580  147.3150 C   0  0  0  0  0  1  0  0  0  0  0  0
  193.4070  175.5910  146.1610 C   0  0  0  0  0  2  0  0  0  0  0  0
  194.2020  175.3070  144.8880 C   0  0  1  0  0  3  0  0  0  0  0  0
  196.0770  175.2230  142.9590 C   0  0  0  0  0  2  0  0  0  0  0  0
  194.2710  176.4530  144.0750 O   0  0  0  0  0  0  0  0  0  0  0  0
  195.6250  174.8010  145.1940 C   0  0  2  0  0  3  0  0  0  0  0  0
  196.5940  175.2770  144.2730 O   0  0  0  0  0  0  0  0  0  0  0  0
  194.7810  176.0470  142.8240 C   0  0  0  0  0  2  0  0  0  0  0  0
  196.8000  172.7060  145.9800 C   0  0  0  0  0  3  0  0  0  0  0  0
  195.6930  173.3150  145.3760 C   0  0  0  0  0  0  0  0  0  0  0  0
  193.6060  170.3270  144.6650 N   0  0  0  0  0  1  0  0  0  0  0  0
  195.7700  170.5700  145.6970 N   0  0  0  0  0  0  0  0  0  0  0  0
  194.6840  171.1400  145.1080 C   0  0  0  0  0  0  0  0  0  0  0  0
  196.8180  171.3180  146.1330 C   0  0  0  0  0  3  0  0  0  0  0  0
  194.6270  172.5260  144.9380 C   0  0  0  0  0  3  0  0  0  0  0  0
  189.2510  174.2870  140.3640 O   0  0  0  0  0  0  0  0  0  0  0  0
  190.1610  170.9320  139.0480 C   0  0  0  0  0  2  0  0  0  0  0  0
  190.0480  171.3980  137.5890 C   0  0  1  0  0  0  0  0  0  0  0  0
  191.4360  171.4790  136.9850 C   0  0  0  0  0  1  0  0  0  0  0  0
  188.3220  172.9870  138.5330 C   0  0  0  0  0  2  0  0  0  0  0  0
  190.2210  172.1090  140.0200 C   0  0  0  0  0  2  0  0  0  0  0  0
  188.9500  172.9640  139.9370 C   0  0  1  0  0  3  0  0  0  0  0  0
  189.3140  170.4630  136.8840 F   0  0  0  0  0  0  0  0  0  0  0  0
  189.3720  172.7700  137.4470 C   0  0  0  0  0  2  0  0  0  0  0  0
  1  6  1  0  0  0  0
  1  5  1  0  0  0  0
  2 11  1  0  0  0  0
  3 10  2  0  0  0  0
  3 16  1  0  0  0  0
  4  8  1  0  0  0  0
  4  7  1  0  0  0  0
  7  9  1  0  0  0  0
  8  1  2  0  0  0  0
  9  5  2  0  0  0  0
 11  7  2  0  0  0  0
 11 10  1  0  0  0  0
 12 15  1  0  0  0  0
 12  2  2  0  0  0  0
 13  2  1  0  0  0  0
 13 14  2  0  0  0  0
 14  3  1  0  0  0  0
 15  4  2  0  0  0  0
 16 17  1  6  0  0  0
 16 18  1  0  0  0  0
 18 19  1  0  0  0  0
 19 21  1  0  0  0  0
 19 20  1  1  0  0  0
 22 25  1  0  0  0  0
 22 21  1  1  0  0  0
 23 26  1  0  0  0  0
 24 22  1  0  0  0  0
 25 29  1  6  0  0  0
 26 25  1  0  0  0  0
 27 23  1  0  0  0  0
 27 24  1  0  0  0  0
 28 33  1  0  0  0  0
 29 28  2  0  0  0  0
 30 32  1  0  0  0  0
 31 33  2  0  0  0  0
 32 31  1  0  0  0  0
 34 32  2  0  0  0  0
 34 29  1  0  0  0  0
 35 13  1  0  0  0  0
 36 40  1  0  0  0  0
 37 38  1  6  0  0  0
 37 36  1  0  0  0  0
 39 41  1  0  0  0  0
 41 40  1  0  0  0  0
 41 35  1  6  0  0  0
 42 37  1  0  0  0  0
 43 37  1  0  0  0  0
 43 39  1  0  0  0  0
M  END
>  <MODEL>
4

>  <REMARK>
 VINA RESULT:      -8.7      1.675      2.411
  Name = 
  8 active torsions:
  status: ('A' for Active; 'I' for Inactive)
    1  A    between atoms: O_1  and  C_34
    2  A    between atoms: O_1  and  C_35
    3  A    between atoms: C_2  and  C_6
    4  A    between atoms: C_2  and  C_13
    5  A    between atoms: C_3  and  C_4
    6  A    between atoms: C_3  and  C_12
    7  A    between atoms: C_6  and  C_12
    8  A    between atoms: C_14  and  C_22
                            x       y       z     vdW  Elec       q    Type
                         _______ _______ _______ _____ _____    ______ ____

>  <TORSDO>
F 8

$$$$
=
 OpenBabel11052420453D

 43 48  0  0  1  0  0  0  0  0999 V2000
  184.8640  178.1060  146.8060 C   0  0  0  0  0  0  0  0  0  0  0  0
  188.4320  176.0820  143.8530 C   0  0  0  0  0  0  0  0  0  0  0  0
  190.6740  175.8290  145.4400 C   0  0  0  0  0  0  0  0  0  0  0  0
  186.0810  177.1610  144.9380 C   0  0  0  0  0  0  0  0  0  0  0  0
  185.9970  177.9810  147.6140 C   0  0  0  0  0  3  0  0  0  0  0  0
  183.7230  178.6250  147.3180 F   0  0  0  0  0  0  0  0  0  0  0  0
  187.2330  177.0310  145.7510 C   0  0  0  0  0  0  0  0  0  0  0  0
  184.9060  177.6970  145.4700 C   0  0  0  0  0  3  0  0  0  0  0  0
  187.1770  177.4470  147.0900 C   0  0  0  0  0  3  0  0  0  0  0  0
  189.5340  176.3520  145.9610 N   0  0  0  0  0  0  0  0  0  0  0  0
  188.4110  176.4900  145.2050 C   0  0  0  0  0  0  0  0  0  0  0  0
  187.2840  176.2170  143.0610 C   0  0  0  0  0  3  0  0  0  0  0  0
  189.6150  175.5460  143.3340 C   0  0  0  0  0  0  0  0  0  0  0  0
  190.7070  175.4330  144.1390 N   0  0  0  0  0  0  0  0  0  0  0  0
  186.1150  176.7540  143.6020 C   0  0  0  0  0  3  0  0  0  0  0  0
  191.8820  175.6950  146.3050 C   0  0  1  0  0  3  0  0  0  0  0  0
  191.4730  175.4800  147.7520 C   0  0  0  0  0  1  0  0  0  0  0  0
  192.7610  174.5490  145.8180 C   0  0  0  0  0  2  0  0  0  0  0  0
  194.0690  175.0670  145.2440 C   0  0  1  0  0  3  0  0  0  0  0  0
  194.0900  176.5790  145.3480 C   0  0  0  0  0  1  0  0  0  0  0  0
  195.2460  174.4830  146.0220 C   0  0  0  0  0  2  0  0  0  0  0  0
  196.0080  173.4280  145.2220 C   0  0  1  0  0  3  0  0  0  0  0  0
  196.7020  171.3060  143.7190 C   0  0  0  0  0  2  0  0  0  0  0  0
  196.0200  172.1970  145.9010 O   0  0  0  0  0  0  0  0  0  0  0  0
  195.4210  173.2370  143.8100 C   0  0  2  0  0  3  0  0  0  0  0  0
  195.4640  171.8890  143.3680 O   0  0  0  0  0  0  0  0  0  0  0  0
  196.9470  171.3650  145.2400 C   0  0  0  0  0  2  0  0  0  0  0  0
  197.1000  174.9920  143.1080 C   0  0  0  0  0  3  0  0  0  0  0  0
  195.9960  174.1860  142.8020 C   0  0  0  0  0  0  0  0  0  0  0  0
  195.3790  175.2250  139.2910 N   0  0  0  0  0  1  0  0  0  0  0  0
  197.0270  175.9150  140.9070 N   0  0  0  0  0  0  0  0  0  0  0  0
  195.9560  175.1390  140.5870 C   0  0  0  0  0  0  0  0  0  0  0  0
  197.6040  175.8590  142.1370 C   0  0  0  0  0  3  0  0  0  0  0  0
  195.4220  174.2590  141.5320 C   0  0  0  0  0  3  0  0  0  0  0  0
  189.6730  175.1330  141.9980 O   0  0  0  0  0  0  0  0  0  0  0  0
  189.9580  171.4980  142.7210 C   0  0  0  0  0  2  0  0  0  0  0  0
  191.4940  171.5470  142.7100 C   0  0  1  0  0  0  0  0  0  0  0  0
  192.0050  171.3770  144.1260 C   0  0  0  0  0  1  0  0  0  0  0  0
  191.1350  173.4320  141.0630 C   0  0  0  0  0  2  0  0  0  0  0  0
  189.3440  172.8930  142.8210 C   0  0  0  0  0  2  0  0  0  0  0  0
  189.7400  173.7630  141.6210 C   0  0  1  0  0  3  0  0  0  0  0  0
  191.9610  170.4970  141.9440 F   0  0  0  0  0  0  0  0  0  0  0  0
  192.0490  172.8610  142.1430 C   0  0  0  0  0  2  0  0  0  0  0  0
  1  6  1  0  0  0  0
  1  5  1  0  0  0  0
  2 11  1  0  0  0  0
  3 10  2  0  0  0  0
  3 16  1  0  0  0  0
  4  8  1  0  0  0  0
  4  7  1  0  0  0  0
  7  9  1  0  0  0  0
  8  1  2  0  0  0  0
  9  5  2  0  0  0  0
 11  7  2  0  0  0  0
 11 10  1  0  0  0  0
 12 15  1  0  0  0  0
 12  2  2  0  0  0  0
 13  2  1  0  0  0  0
 13 14  2  0  0  0  0
 14  3  1  0  0  0  0
 15  4  2  0  0  0  0
 16 17  1  1  0  0  0
 18 16  1  0  0  0  0
 19 20  1  1  0  0  0
 19 18  1  0  0  0  0
 19 21  1  0  0  0  0
 22 24  1  0  0  0  0
 22 21  1  1  0  0  0
 23 27  1  0  0  0  0
 25 29  1  6  0  0  0
 25 22  1  0  0  0  0
 26 23  1  0  0  0  0
 26 25  1  0  0  0  0
 27 24  1  0  0  0  0
 29 28  1  0  0  0  0
 30 32  1  0  0  0  0
 31 33  1  0  0  0  0
 32 31  2  0  0  0  0
 32 34  1  0  0  0  0
 33 28  2  0  0  0  0
 34 29  2  0  0  0  0
 35 13  1  0  0  0  0
 36 40  1  0  0  0  0
 37 36  1  0  0  0  0
 37 38  1  1  0  0  0
 39 41  1  0  0  0  0
 39 43  1  0  0  0  0
 41 35  1  1  0  0  0
 41 40  1  0  0  0  0
 42 37  1  0  0  0  0
 43 37  1  0  0  0  0
M  END
>  <MODEL>
5

>  <REMARK>
 VINA RESULT:      -8.6      2.356      3.414
  Name = 
  8 active torsions:
  status: ('A' for Active; 'I' for Inactive)
    1  A    between atoms: O_1  and  C_34
    2  A    between atoms: O_1  and  C_35
    3  A    between atoms: C_2  and  C_6
    4  A    between atoms: C_2  and  C_13
    5  A    between atoms: C_3  and  C_4
    6  A    between atoms: C_3  and  C_12
    7  A    between atoms: C_6  and  C_12
    8  A    between atoms: C_14  and  C_22
                            x       y       z     vdW  Elec       q    Type
                         _______ _______ _______ _____ _____    ______ ____

>  <TORSDO>
F 8

$$$$
=
 OpenBabel11052420453D

 43 48  0  0  1  0  0  0  0  0999 V2000
  186.0960  178.1230  147.1700 C   0  0  0  0  0  0  0  0  0  0  0  0
  190.7180  176.1500  146.6320 C   0  0  0  0  0  0  0  0  0  0  0  0
  190.4730  174.1510  144.7470 C   0  0  0  0  0  0  0  0  0  0  0  0
  188.4600  177.6400  147.3730 C   0  0  0  0  0  0  0  0  0  0  0  0
  185.9660  177.1110  146.2150 C   0  0  0  0  0  3  0  0  0  0  0  0
  185.0130  178.8490  147.5360 F   0  0  0  0  0  0  0  0  0  0  0  0
  188.3360  176.6120  146.4060 C   0  0  0  0  0  0  0  0  0  0  0  0
  187.3400  178.3870  147.7480 C   0  0  0  0  0  3  0  0  0  0  0  0
  187.0800  176.3580  145.8340 C   0  0  0  0  0  3  0  0  0  0  0  0
  189.3820  174.8740  145.1090 N   0  0  0  0  0  0  0  0  0  0  0  0
  189.4700  175.8670  146.0360 C   0  0  0  0  0  0  0  0  0  0  0  0
  190.8250  177.1690  147.5870 C   0  0  0  0  0  3  0  0  0  0  0  0
  191.8310  175.3940  146.2460 C   0  0  0  0  0  0  0  0  0  0  0  0
  191.6820  174.4130  145.3140 N   0  0  0  0  0  0  0  0  0  0  0  0
  189.7010  177.9090  147.9560 C   0  0  0  0  0  3  0  0  0  0  0  0
  190.3330  173.0720  143.7260 C   0  0  1  0  0  3  0  0  0  0  0  0
  190.7620  171.7360  144.3080 C   0  0  0  0  0  1  0  0  0  0  0  0
  188.8980  173.0030  143.2180 C   0  0  0  0  0  2  0  0  0  0  0  0
  188.7280  173.8100  141.9420 C   0  0  1  0  0  3  0  0  0  0  0  0
  188.5410  172.8590  140.7770 C   0  0  0  0  0  1  0  0  0  0  0  0
  187.5110  174.7230  142.0610 C   0  0  0  0  0  2  0  0  0  0  0  0
  187.8960  176.1920  142.2250 C   0  0  1  0  0  3  0  0  0  0  0  0
  188.8080  178.6970  141.8530 C   0  0  0  0  0  2  0  0  0  0  0  0
  189.2920  176.3360  142.3150 O   0  0  0  0  0  0  0  0  0  0  0  0
  187.3570  177.0630  141.0750 C   0  0  2  0  0  3  0  0  0  0  0  0
  188.2480  178.1020  140.6990 O   0  0  0  0  0  0  0  0  0  0  0  0
  189.5490  177.6620  142.7220 C   0  0  0  0  0  2  0  0  0  0  0  0
  185.0600  177.7460  140.2690 C   0  0  0  0  0  3  0  0  0  0  0  0
  185.9660  177.5670  141.3220 C   0  0  0  0  0  0  0  0  0  0  0  0
  183.8580  178.6200  144.1910 N   0  0  0  0  0  1  0  0  0  0  0  0
  183.4100  178.4900  141.8270 N   0  0  0  0  0  0  0  0  0  0  0  0
  184.2730  178.3210  142.8650 C   0  0  0  0  0  0  0  0  0  0  0  0
  183.7740  178.2140  140.5460 C   0  0  0  0  0  3  0  0  0  0  0  0
  185.5690  177.8550  142.6280 C   0  0  0  0  0  3  0  0  0  0  0  0
  193.0840  175.6460  146.8170 O   0  0  0  0  0  0  0  0  0  0  0  0
  194.8610  176.2970  143.6190 C   0  0  0  0  0  2  0  0  0  0  0  0
  195.3480  174.8430  143.5140 C   0  0  1  0  0  0  0  0  0  0  0  0
  194.5970  174.1490  142.3960 C   0  0  0  0  0  1  0  0  0  0  0  0
  195.2750  174.9410  146.0400 C   0  0  0  0  0  2  0  0  0  0  0  0
  193.7400  176.4510  144.6440 C   0  0  0  0  0  2  0  0  0  0  0  0
  194.2090  176.0500  146.0480 C   0  0  1  0  0  3  0  0  0  0  0  0
  196.6940  174.8520  143.2020 F   0  0  0  0  0  0  0  0  0  0  0  0
  195.1430  174.0470  144.8110 C   0  0  0  0  0  2  0  0  0  0  0  0
  1  6  1  0  0  0  0
  1  8  1  0  0  0  0
  2 12  1  0  0  0  0
  3 10  2  0  0  0  0
  3 14  1  0  0  0  0
  4  8  2  0  0  0  0
  4 15  1  0  0  0  0
  5  1  2  0  0  0  0
  7  4  1  0  0  0  0
  9  5  1  0  0  0  0
  9  7  2  0  0  0  0
 10 11  1  0  0  0  0
 11  7  1  0  0  0  0
 11  2  2  0  0  0  0
 12 15  2  0  0  0  0
 13  2  1  0  0  0  0
 13 35  1  0  0  0  0
 14 13  2  0  0  0  0
 16 17  1  1  0  0  0
 16  3  1  0  0  0  0
 18 16  1  0  0  0  0
 19 20  1  6  0  0  0
 19 21  1  0  0  0  0
 19 18  1  0  0  0  0
 22 21  1  6  0  0  0
 22 24  1  0  0  0  0
 23 27  1  0  0  0  0
 24 27  1  0  0  0  0
 25 29  1  1  0  0  0
 25 22  1  0  0  0  0
 26 25  1  0  0  0  0
 26 23  1  0  0  0  0
 28 33  2  0  0  0  0
 28 29  1  0  0  0  0
 29 34  2  0  0  0  0
 31 32  2  0  0  0  0
 32 30  1  0  0  0  0
 33 31  1  0  0  0  0
 34 32  1  0  0  0  0
 36 40  1  0  0  0  0
 37 38  1  6  0  0  0
 37 36  1  0  0  0  0
 37 43  1  0  0  0  0
 39 41  1  0  0  0  0
 40 41  1  0  0  0  0
 41 35  1  1  0  0  0
 42 37  1  0  0  0  0
 43 39  1  0  0  0  0
M  END
>  <MODEL>
6

>  <REMARK>
 VINA RESULT:      -8.5      3.081      8.157
  Name = 
  8 active torsions:
  status: ('A' for Active; 'I' for Inactive)
    1  A    between atoms: O_1  and  C_34
    2  A    between atoms: O_1  and  C_35
    3  A    between atoms: C_2  and  C_6
    4  A    between atoms: C_2  and  C_13
    5  A    between atoms: C_3  and  C_4
    6  A    between atoms: C_3  and  C_12
    7  A    between atoms: C_6  and  C_12
    8  A    between atoms: C_14  and  C_22
                            x       y       z     vdW  Elec       q    Type
                         _______ _______ _______ _____ _____    ______ ____

>  <TORSDO>
F 8

$$$$
=
 OpenBabel11052420453D

 43 48  0  0  1  0  0  0  0  0999 V2000
  190.4570  172.0990  136.6600 C   0  0  0  0  0  0  0  0  0  0  0  0
  188.5080  174.4540  140.6860 C   0  0  0  0  0  0  0  0  0  0  0  0
  189.8970  173.4960  142.8690 C   0  0  0  0  0  0  0  0  0  0  0  0
  189.1390  173.5120  138.1200 C   0  0  0  0  0  0  0  0  0  0  0  0
  191.1630  171.6110  137.7630 C   0  0  0  0  0  3  0  0  0  0  0  0
  190.7520  171.6530  135.4160 F   0  0  0  0  0  0  0  0  0  0  0  0
  189.8500  173.0210  139.2420 C   0  0  0  0  0  0  0  0  0  0  0  0
  189.4460  173.0480  136.8390 C   0  0  0  0  0  3  0  0  0  0  0  0
  190.8620  172.0680  139.0480 C   0  0  0  0  0  3  0  0  0  0  0  0
  190.1990  173.0430  141.6250 N   0  0  0  0  0  0  0  0  0  0  0  0
  189.5330  173.4950  140.5280 C   0  0  0  0  0  0  0  0  0  0  0  0
  187.8130  174.9300  139.5670 C   0  0  0  0  0  3  0  0  0  0  0  0
  188.2120  174.9100  141.9760 C   0  0  0  0  0  0  0  0  0  0  0  0
  188.9130  174.4200  143.0350 N   0  0  0  0  0  0  0  0  0  0  0  0
  188.1270  174.4600  138.2910 C   0  0  0  0  0  3  0  0  0  0  0  0
  190.6540  172.9740  144.0440 C   0  0  1  0  0  3  0  0  0  0  0  0
  189.6940  172.4390  145.0930 C   0  0  0  0  0  1  0  0  0  0  0  0
  191.6350  171.8940  143.6080 C   0  0  0  0  0  2  0  0  0  0  0  0
  193.0220  172.1500  144.1750 C   0  0  1  0  0  3  0  0  0  0  0  0
  193.6530  170.8250  144.5540 C   0  0  0  0  0  1  0  0  0  0  0  0
  193.8880  172.8530  143.1330 C   0  0  0  0  0  2  0  0  0  0  0  0
  194.7130  173.9910  143.7310 C   0  0  1  0  0  3  0  0  0  0  0  0
  196.0830  176.2720  144.1400 C   0  0  0  0  0  2  0  0  0  0  0  0
  196.0070  174.0130  143.1820 O   0  0  0  0  0  0  0  0  0  0  0  0
  194.0390  175.3620  143.5280 C   0  0  2  0  0  3  0  0  0  0  0  0
  194.9670  176.4070  143.2820 O   0  0  0  0  0  0  0  0  0  0  0  0
  196.7740  174.9060  143.9600 C   0  0  0  0  0  2  0  0  0  0  0  0
  193.1930  175.1610  145.9020 C   0  0  0  0  0  3  0  0  0  0  0  0
  193.0690  175.7060  144.6190 C   0  0  0  0  0  0  0  0  0  0  0  0
  190.0540  177.8220  145.0930 N   0  0  0  0  0  1  0  0  0  0  0  0
  191.2600  176.3770  146.5990 N   0  0  0  0  0  0  0  0  0  0  0  0
  191.1210  176.9210  145.3590 C   0  0  0  0  0  0  0  0  0  0  0  0
  192.2690  175.5130  146.8880 C   0  0  0  0  0  3  0  0  0  0  0  0
  192.0270  176.5940  144.3460 C   0  0  0  0  0  3  0  0  0  0  0  0
  187.2020  175.8590  142.1710 O   0  0  0  0  0  0  0  0  0  0  0  0
  186.3920  178.3880  144.7720 C   0  0  0  0  0  2  0  0  0  0  0  0
  185.4130  179.1260  143.8460 C   0  0  1  0  0  0  0  0  0  0  0  0
  183.9970  178.8840  144.3280 C   0  0  0  0  0  1  0  0  0  0  0  0
  186.9430  178.2710  142.0230 C   0  0  0  0  0  2  0  0  0  0  0  0
  186.7390  176.9980  144.2420 C   0  0  0  0  0  2  0  0  0  0  0  0
  187.4200  177.0780  142.8700 C   0  0  1  0  0  3  0  0  0  0  0  0
  185.6780  180.4810  143.9180 F   0  0  0  0  0  0  0  0  0  0  0  0
  185.5160  178.6770  142.3810 C   0  0  0  0  0  2  0  0  0  0  0  0
  1  8  2  0  0  0  0
  1  5  1  0  0  0  0
  2 13  1  0  0  0  0
  3 14  1  0  0  0  0
  3 16  1  0  0  0  0
  4 15  2  0  0  0  0
  4  7  1  0  0  0  0
  5  9  2  0  0  0  0
  6  1  1  0  0  0  0
  7 11  2  0  0  0  0
  8  4  1  0  0  0  0
  9  7  1  0  0  0  0
 10  3  2  0  0  0  0
 11  2  1  0  0  0  0
 11 10  1  0  0  0  0
 12  2  2  0  0  0  0
 13 35  1  0  0  0  0
 13 14  2  0  0  0  0
 15 12  1  0  0  0  0
 16 17  1  1  0  0  0
 18 16  1  0  0  0  0
 18 19  1  0  0  0  0
 19 20  1  6  0  0  0
 21 19  1  0  0  0  0
 22 21  1  6  0  0  0
 24 22  1  0  0  0  0
 24 27  1  0  0  0  0
 25 22  1  0  0  0  0
 25 29  1  1  0  0  0
 26 25  1  0  0  0  0
 26 23  1  0  0  0  0
 27 23  1  0  0  0  0
 28 33  1  0  0  0  0
 29 28  2  0  0  0  0
 30 32  1  0  0  0  0
 31 33  2  0  0  0  0
 32 31  1  0  0  0  0
 34 29  1  0  0  0  0
 34 32  2  0  0  0  0
 37 42  1  0  0  0  0
 37 38  1  1  0  0  0
 37 36  1  0  0  0  0
 39 43  1  0  0  0  0
 39 41  1  0  0  0  0
 40 36  1  0  0  0  0
 41 35  1  6  0  0  0
 41 40  1  0  0  0  0
 43 37  1  0  0  0  0
M  END
>  <MODEL>
7

>  <REMARK>
 VINA RESULT:      -8.5      2.727      7.235
  Name = 
  8 active torsions:
  status: ('A' for Active; 'I' for Inactive)
    1  A    between atoms: O_1  and  C_34
    2  A    between atoms: O_1  and  C_35
    3  A    between atoms: C_2  and  C_6
    4  A    between atoms: C_2  and  C_13
    5  A    between atoms: C_3  and  C_4
    6  A    between atoms: C_3  and  C_12
    7  A    between atoms: C_6  and  C_12
    8  A    between atoms: C_14  and  C_22
                            x       y       z     vdW  Elec       q    Type
                         _______ _______ _______ _____ _____    ______ ____

>  <TORSDO>
F 8

$$$$
=
 OpenBabel11052420453D

 43 48  0  0  1  0  0  0  0  0999 V2000
  184.1880  178.6470  144.0520 C   0  0  0  0  0  0  0  0  0  0  0  0
  188.0510  175.9570  145.8940 C   0  0  0  0  0  0  0  0  0  0  0  0
  189.4230  175.0030  143.6990 C   0  0  0  0  0  0  0  0  0  0  0  0
  185.7700  177.5460  145.5180 C   0  0  0  0  0  0  0  0  0  0  0  0
  184.8790  178.1650  142.9370 C   0  0  0  0  0  3  0  0  0  0  0  0
  183.0850  179.4140  143.8840 F   0  0  0  0  0  0  0  0  0  0  0  0
  186.4750  177.0540  144.3930 C   0  0  0  0  0  0  0  0  0  0  0  0
  184.6320  178.3370  145.3410 C   0  0  0  0  0  3  0  0  0  0  0  0
  186.0160  177.3720  143.1050 C   0  0  0  0  0  3  0  0  0  0  0  0
  188.3180  175.7710  143.5220 N   0  0  0  0  0  0  0  0  0  0  0  0
  187.6190  176.2580  144.5830 C   0  0  0  0  0  0  0  0  0  0  0  0
  187.3430  176.4500  146.9970 C   0  0  0  0  0  3  0  0  0  0  0  0
  189.1920  175.1640  146.0560 C   0  0  0  0  0  0  0  0  0  0  0  0
  189.8500  174.7060  144.9560 N   0  0  0  0  0  0  0  0  0  0  0  0
  186.2080  177.2410  146.8090 C   0  0  0  0  0  3  0  0  0  0  0  0
  190.1600  174.4910  142.5070 C   0  0  1  0  0  3  0  0  0  0  0  0
  189.2840  174.5770  141.2690 C   0  0  0  0  0  1  0  0  0  0  0  0
  191.4540  175.2700  142.3070 C   0  0  0  0  0  2  0  0  0  0  0  0
  192.6680  174.3940  142.5720 C   0  0  1  0  0  3  0  0  0  0  0  0
  192.2100  172.9640  142.7750 C   0  0  0  0  0  1  0  0  0  0  0  0
  193.6280  174.4630  141.3880 C   0  0  0  0  0  2  0  0  0  0  0  0
  194.9970  175.0170  141.7790 C   0  0  1  0  0  3  0  0  0  0  0  0
  197.0400  176.2760  142.9990 C   0  0  0  0  0  2  0  0  0  0  0  0
  195.0560  176.4050  141.5600 O   0  0  0  0  0  0  0  0  0  0  0  0
  195.3500  174.7080  143.2460 C   0  0  2  0  0  3  0  0  0  0  0  0
  196.0650  175.7570  143.8800 O   0  0  0  0  0  0  0  0  0  0  0  0
  196.4070  176.7910  141.6910 C   0  0  0  0  0  2  0  0  0  0  0  0
  196.6250  172.7200  142.3440 C   0  0  0  0  0  3  0  0  0  0  0  0
  196.0170  173.3760  143.4210 C   0  0  0  0  0  0  0  0  0  0  0  0
  196.6830  170.9350  146.1390 N   0  0  0  0  0  1  0  0  0  0  0  0
  197.2420  170.9260  143.7950 N   0  0  0  0  0  0  0  0  0  0  0  0
  196.6590  171.5470  144.8560 C   0  0  0  0  0  0  0  0  0  0  0  0
  197.2380  171.4830  142.5540 C   0  0  0  0  0  3  0  0  0  0  0  0
  196.0360  172.7860  144.6860 C   0  0  0  0  0  3  0  0  0  0  0  0
  189.6490  174.8450  147.3400 O   0  0  0  0  0  0  0  0  0  0  0  0
  192.5240  177.1990  147.4250 C   0  0  0  0  0  2  0  0  0  0  0  0
  193.3060  176.3890  146.3790 C   0  0  1  0  0  0  0  0  0  0  0  0
  193.3340  177.1610  145.0750 C   0  0  0  0  0  1  0  0  0  0  0  0
  192.0440  174.4350  147.3710 C   0  0  0  0  0  2  0  0  0  0  0  0
  191.0510  176.7990  147.4710 C   0  0  0  0  0  2  0  0  0  0  0  0
  190.8850  175.3240  147.8550 C   0  0  1  0  0  3  0  0  0  0  0  0
  194.6030  176.2310  146.8260 F   0  0  0  0  0  0  0  0  0  0  0  0
  192.6990  175.0040  146.1150 C   0  0  0  0  0  2  0  0  0  0  0  0
  1  8  1  0  0  0  0
  2 13  1  0  0  0  0
  2 12  1  0  0  0  0
  3 14  1  0  0  0  0
  4 15  1  0  0  0  0
  5  9  1  0  0  0  0
  5  1  2  0  0  0  0
  6  1  1  0  0  0  0
  7 11  1  0  0  0  0
  7  4  1  0  0  0  0
  8  4  2  0  0  0  0
  9  7  2  0  0  0  0
 10  3  2  0  0  0  0
 10 11  1  0  0  0  0
 11  2  2  0  0  0  0
 13 35  1  0  0  0  0
 14 13  2  0  0  0  0
 15 12  2  0  0  0  0
 16 17  1  6  0  0  0
 16  3  1  0  0  0  0
 18 16  1  0  0  0  0
 18 19  1  0  0  0  0
 19 20  1  6  0  0  0
 21 19  1  0  0  0  0
 22 21  1  1  0  0  0
 22 25  1  0  0  0  0
 23 26  1  0  0  0  0
 24 27  1  0  0  0  0
 24 22  1  0  0  0  0
 25 29  1  6  0  0  0
 25 26  1  0  0  0  0
 27 23  1  0  0  0  0
 28 33  2  0  0  0  0
 28 29  1  0  0  0  0
 29 34  2  0  0  0  0
 31 32  2  0  0  0  0
 32 30  1  0  0  0  0
 33 31  1  0  0  0  0
 34 32  1  0  0  0  0
 36 40  1  0  0  0  0
 37 38  1  6  0  0  0
 37 42  1  0  0  0  0
 37 36  1  0  0  0  0
 39 41  1  0  0  0  0
 40 41  1  0  0  0  0
 41 35  1  6  0  0  0
 43 37  1  0  0  0  0
 43 39  1  0  0  0  0
M  END
>  <MODEL>
8

>  <REMARK>
 VINA RESULT:      -8.5      2.504      4.685
  Name = 
  8 active torsions:
  status: ('A' for Active; 'I' for Inactive)
    1  A    between atoms: O_1  and  C_34
    2  A    between atoms: O_1  and  C_35
    3  A    between atoms: C_2  and  C_6
    4  A    between atoms: C_2  and  C_13
    5  A    between atoms: C_3  and  C_4
    6  A    between atoms: C_3  and  C_12
    7  A    between atoms: C_6  and  C_12
    8  A    between atoms: C_14  and  C_22
                            x       y       z     vdW  Elec       q    Type
                         _______ _______ _______ _____ _____    ______ ____

>  <TORSDO>
F 8

$$$$
=
 OpenBabel11052420453D

 43 48  0  0  1  0  0  0  0  0999 V2000
  189.4950  172.5850  138.8460 C   0  0  0  0  0  0  0  0  0  0  0  0
  191.9780  173.0760  143.2220 C   0  0  0  0  0  0  0  0  0  0  0  0
  190.2600  174.4070  144.9210 C   0  0  0  0  0  0  0  0  0  0  0  0
  191.1610  172.4970  140.6010 C   0  0  0  0  0  0  0  0  0  0  0  0
  188.6210  173.2600  139.7030 C   0  0  0  0  0  3  0  0  0  0  0  0
  189.1130  172.3000  137.5790 F   0  0  0  0  0  0  0  0  0  0  0  0
  190.2810  173.1810  141.4750 C   0  0  0  0  0  0  0  0  0  0  0  0
  190.7630  172.2040  139.2940 C   0  0  0  0  0  3  0  0  0  0  0  0
  189.0110  173.5570  141.0110 C   0  0  0  0  0  3  0  0  0  0  0  0
  189.8690  174.1250  143.6520 N   0  0  0  0  0  0  0  0  0  0  0  0
  190.6920  173.4700  142.7890 C   0  0  0  0  0  0  0  0  0  0  0  0
  192.8370  172.4000  142.3460 C   0  0  0  0  0  3  0  0  0  0  0  0
  192.3620  173.3740  144.5330 C   0  0  0  0  0  0  0  0  0  0  0  0
  191.4950  174.0320  145.3510 N   0  0  0  0  0  0  0  0  0  0  0  0
  192.4300  172.1130  141.0420 C   0  0  0  0  0  3  0  0  0  0  0  0
  189.3250  175.1260  145.8350 C   0  0  1  0  0  3  0  0  0  0  0  0
  189.4200  174.5570  147.2400 C   0  0  0  0  0  1  0  0  0  0  0  0
  189.6250  176.6190  145.8360 C   0  0  0  0  0  2  0  0  0  0  0  0
  188.6470  177.3770  144.9540 C   0  0  1  0  0  3  0  0  0  0  0  0
  189.3380  177.7490  143.6570 C   0  0  0  0  0  1  0  0  0  0  0  0
  187.4310  176.5050  144.6570 C   0  0  0  0  0  2  0  0  0  0  0  0
  186.1150  177.2040  144.9950 C   0  0  1  0  0  3  0  0  0  0  0  0
  184.2260  178.9840  145.7070 C   0  0  0  0  0  2  0  0  0  0  0  0
  186.0190  177.4480  146.3770 O   0  0  0  0  0  0  0  0  0  0  0  0
  185.9460  178.5260  144.2220 C   0  0  2  0  0  3  0  0  0  0  0  0
  185.3060  179.5380  144.9820 O   0  0  0  0  0  0  0  0  0  0  0  0
  184.6910  177.8470  146.6380 C   0  0  0  0  0  2  0  0  0  0  0  0
  183.9350  178.4860  142.6900 C   0  0  0  0  0  3  0  0  0  0  0  0
  185.3160  178.3410  142.8740 C   0  0  0  0  0  0  0  0  0  0  0  0
  186.3580  177.5280  139.4040 N   0  0  0  0  0  1  0  0  0  0  0  0
  184.2000  177.9980  140.3680 N   0  0  0  0  0  0  0  0  0  0  0  0
  185.5450  177.8530  140.5230 C   0  0  0  0  0  0  0  0  0  0  0  0
  183.3920  178.3080  141.4160 C   0  0  0  0  0  3  0  0  0  0  0  0
  186.1260  178.0240  141.7820 C   0  0  0  0  0  3  0  0  0  0  0  0
  193.6290  173.0000  144.9970 O   0  0  0  0  0  0  0  0  0  0  0  0
  195.3500  176.2380  144.3870 C   0  0  0  0  0  2  0  0  0  0  0  0
  196.1050  175.6850  143.1680 C   0  0  1  0  0  0  0  0  0  0  0  0
  195.5330  176.3040  141.9090 C   0  0  0  0  0  1  0  0  0  0  0  0
  195.9370  173.4950  144.4200 C   0  0  0  0  0  2  0  0  0  0  0  0
  194.1880  175.3350  144.7960 C   0  0  0  0  0  2  0  0  0  0  0  0
  194.6810  173.9370  145.1910 C   0  0  1  0  0  3  0  0  0  0  0  0
  197.4340  176.0480  143.2730 F   0  0  0  0  0  0  0  0  0  0  0  0
  196.0140  174.1570  143.0480 C   0  0  0  0  0  2  0  0  0  0  0  0
  1  8  2  0  0  0  0
  1  5  1  0  0  0  0
  2 13  1  0  0  0  0
  3 14  1  0  0  0  0
  3 16  1  0  0  0  0
  4 15  2  0  0  0  0
  4  7  1  0  0  0  0
  5  9  2  0  0  0  0
  6  1  1  0  0  0  0
  7 11  2  0  0  0  0
  8  4  1  0  0  0  0
  9  7  1  0  0  0  0
 10  3  2  0  0  0  0
 11  2  1  0  0  0  0
 11 10  1  0  0  0  0
 12  2  2  0  0  0  0
 13 35  1  0  0  0  0
 13 14  2  0  0  0  0
 15 12  1  0  0  0  0
 16 18  1  0  0  0  0
 16 17  1  1  0  0  0
 19 20  1  6  0  0  0
 19 18  1  0  0  0  0
 21 19  1  0  0  0  0
 22 21  1  1  0  0  0
 22 24  1  0  0  0  0
 23 27  1  0  0  0  0
 24 27  1  0  0  0  0
 25 29  1  6  0  0  0
 25 26  1  0  0  0  0
 25 22  1  0  0  0  0
 26 23  1  0  0  0  0
 28 29  1  0  0  0  0
 30 32  1  0  0  0  0
 31 32  2  0  0  0  0
 31 33  1  0  0  0  0
 32 34  1  0  0  0  0
 33 28  2  0  0  0  0
 34 29  2  0  0  0  0
 36 40  1  0  0  0  0
 37 38  1  6  0  0  0
 37 42  1  0  0  0  0
 37 36  1  0  0  0  0
 39 41  1  0  0  0  0
 40 41  1  0  0  0  0
 41 35  1  6  0  0  0
 43 37  1  0  0  0  0
 43 39  1  0  0  0  0
M  END
>  <MODEL>
9

>  <REMARK>
 VINA RESULT:      -8.4      3.181      9.270
  Name = 
  8 active torsions:
  status: ('A' for Active; 'I' for Inactive)
    1  A    between atoms: O_1  and  C_34
    2  A    between atoms: O_1  and  C_35
    3  A    between atoms: C_2  and  C_6
    4  A    between atoms: C_2  and  C_13
    5  A    between atoms: C_3  and  C_4
    6  A    between atoms: C_3  and  C_12
    7  A    between atoms: C_6  and  C_12
    8  A    between atoms: C_14  and  C_22
                            x       y       z     vdW  Elec       q    Type
                         _______ _______ _______ _____ _____    ______ ____

>  <TORSDO>
F 8

$$$$
