=
 OpenBabel11052418043D

 28 31  0  0  1  0  0  0  0  0999 V2000
  185.8430  178.9150  144.2460 C   0  0  0  0  0  0  0  0  0  0  0  0
  186.5300  177.4820  147.7190 C   0  0  0  0  0  2  0  0  0  0  0  0
  188.3210  176.6120  145.3900 C   0  0  0  0  0  2  0  0  0  0  0  0
  184.4740  178.3670  146.6350 C   0  0  0  0  0  3  0  0  0  0  0  0
  188.0070  178.0940  145.2220 C   0  0  0  0  0  2  0  0  0  0  0  0
  183.7900  178.9130  145.5500 C   0  0  0  0  0  3  0  0  0  0  0  0
  186.9770  176.1370  147.3820 N   0  0  0  0  0  2  0  0  0  0  0  0
  185.8410  178.0960  146.5420 C   0  0  0  0  0  0  0  0  0  0  0  0
  188.3380  176.2300  146.8660 C   0  0  1  0  0  3  0  0  0  0  0  0
  184.4700  179.1850  144.3640 C   0  0  0  0  0  3  0  0  0  0  0  0
  186.5330  178.3670  145.3420 C   0  0  0  0  0  0  0  0  0  0  0  0
  186.5460  179.1860  143.0590 O   0  0  0  0  0  0  0  0  0  0  0  0
  186.7960  178.2550  142.0010 C   0  0  1  0  0  3  0  0  0  0  0  0
  188.4090  175.8290  141.6420 C   0  0  0  0  0  2  0  0  0  0  0  0
  188.2550  178.3040  141.5170 C   0  0  0  0  0  2  0  0  0  0  0  0
  184.9780  176.7500  142.7580 F   0  0  0  0  0  0  0  0  0  0  0  0
  186.2510  176.8740  142.3030 C   0  0  0  0  0  0  0  0  0  0  0  0
  187.0050  175.7720  142.1730 C   0  0  0  0  0  3  0  0  0  0  0  0
  189.0800  177.1340  142.0450 C   0  0  0  0  0  2  0  0  0  0  0  0
  189.0400  174.8850  147.0200 C   0  0  0  0  0  2  0  0  0  0  0  0
  191.0820  176.3680  147.1790 C   0  0  0  0  0  2  0  0  0  0  0  0
  191.0610  174.4180  145.1780 S   0  0  0  0  0  0  0  0  0  0  0  0
  193.3020  176.3930  146.0380 C   0  0  2  0  0  3  0  0  0  0  0  0
  190.5570  174.9720  146.8460 C   0  0  2  0  0  3  0  0  0  0  0  0
  193.7500  174.9990  145.5960 C   0  0  0  0  0  2  0  0  0  0  0  0
  192.6990  173.9040  145.7810 C   0  0  0  0  0  2  0  0  0  0  0  0
  194.5090  177.3040  146.1100 C   0  0  0  0  0  1  0  0  0  0  0  0
  192.5910  176.3830  147.3850 C   0  0  0  0  0  2  0  0  0  0  0  0
  1 10  2  0  0  0  0
  1 11  1  0  0  0  0
  3  9  1  0  0  0  0
  5 11  1  0  0  0  0
  5  3  1  0  0  0  0
  6  4  2  0  0  0  0
  7  2  1  0  0  0  0
  8  4  1  0  0  0  0
  8  2  1  0  0  0  0
  9 20  1  6  0  0  0
  9  7  1  0  0  0  0
 10  6  1  0  0  0  0
 11  8  2  0  0  0  0
 12  1  1  0  0  0  0
 13 17  1  0  0  0  0
 13 12  1  1  0  0  0
 14 19  1  0  0  0  0
 14 18  1  0  0  0  0
 15 13  1  0  0  0  0
 15 19  1  0  0  0  0
 17 16  1  0  0  0  0
 18 17  2  0  0  0  0
 21 28  1  0  0  0  0
 22 26  1  0  0  0  0
 22 24  1  0  0  0  0
 23 27  1  1  0  0  0
 23 28  1  0  0  0  0
 24 20  1  6  0  0  0
 24 21  1  0  0  0  0
 25 26  1  0  0  0  0
 25 23  1  0  0  0  0
M  END
>  <MODEL>
1

>  <REMARK>
 VINA RESULT:      -8.5      0.000      0.000
  Name = 
  4 active torsions:
  status: ('A' for Active; 'I' for Inactive)
    1  A    between atoms: C_1  and  O_2
    2  A    between atoms: O_2  and  C_3
    3  A    between atoms: C_10  and  C_13
    4  A    between atoms: C_10  and  C_25
                            x       y       z     vdW  Elec       q    Type
                         _______ _______ _______ _____ _____    ______ ____

>  <TORSDO>
F 4

$$$$
=
 OpenBabel11052418043D

 28 31  0  0  1  0  0  0  0  0999 V2000
  185.8660  178.8940  144.2140 C   0  0  0  0  0  0  0  0  0  0  0  0
  186.4220  177.4960  147.7250 C   0  0  0  0  0  2  0  0  0  0  0  0
  188.2980  176.6030  145.4740 C   0  0  0  0  0  2  0  0  0  0  0  0
  184.4080  178.3710  146.5550 C   0  0  0  0  0  3  0  0  0  0  0  0
  187.9920  178.0840  145.2790 C   0  0  0  0  0  2  0  0  0  0  0  0
  183.7650  178.9050  145.4400 C   0  0  0  0  0  3  0  0  0  0  0  0
  186.8800  176.1470  147.4180 N   0  0  0  0  0  2  0  0  0  0  0  0
  185.7770  178.0980  146.5160 C   0  0  0  0  0  0  0  0  0  0  0  0
  188.2600  176.2350  146.9530 C   0  0  1  0  0  3  0  0  0  0  0  0
  184.4900  179.1660  144.2780 C   0  0  0  0  0  3  0  0  0  0  0  0
  186.5140  178.3570  145.3410 C   0  0  0  0  0  0  0  0  0  0  0  0
  186.6130  179.1530  143.0510 O   0  0  0  0  0  0  0  0  0  0  0  0
  186.9060  178.2110  142.0160 C   0  0  1  0  0  3  0  0  0  0  0  0
  188.5300  175.7800  141.7510 C   0  0  0  0  0  2  0  0  0  0  0  0
  188.3850  178.2540  141.5930 C   0  0  0  0  0  2  0  0  0  0  0  0
  185.0560  176.7160  142.7120 F   0  0  0  0  0  0  0  0  0  0  0  0
  186.3480  176.8340  142.3100 C   0  0  0  0  0  0  0  0  0  0  0  0
  187.1050  175.7300  142.2230 C   0  0  0  0  0  3  0  0  0  0  0  0
  189.1850  177.0890  142.1670 C   0  0  0  0  0  2  0  0  0  0  0  0
  188.9550  174.8920  147.1460 C   0  0  0  0  0  2  0  0  0  0  0  0
  189.6610  173.0100  145.6120 C   0  0  0  0  0  2  0  0  0  0  0  0
  191.5780  174.9430  146.2450 S   0  0  0  0  0  0  0  0  0  0  0  0
  191.7240  172.5300  144.2900 C   0  0  2  0  0  3  0  0  0  0  0  0
  189.8300  174.4890  145.9590 C   0  0  2  0  0  3  0  0  0  0  0  0
  192.4570  173.8030  143.8630 C   0  0  0  0  0  2  0  0  0  0  0  0
  191.8910  175.0930  144.4590 C   0  0  0  0  0  2  0  0  0  0  0  0
  192.1580  171.3840  143.4010 C   0  0  0  0  0  1  0  0  0  0  0  0
  190.2080  172.6750  144.2310 C   0  0  0  0  0  2  0  0  0  0  0  0
  1 10  2  0  0  0  0
  1 11  1  0  0  0  0
  3  9  1  0  0  0  0
  5 11  1  0  0  0  0
  5  3  1  0  0  0  0
  6  4  2  0  0  0  0
  7  2  1  0  0  0  0
  8  4  1  0  0  0  0
  8  2  1  0  0  0  0
  9 20  1  6  0  0  0
  9  7  1  0  0  0  0
 10  6  1  0  0  0  0
 11  8  2  0  0  0  0
 12  1  1  0  0  0  0
 13 17  1  0  0  0  0
 13 12  1  1  0  0  0
 14 19  1  0  0  0  0
 14 18  1  0  0  0  0
 15 13  1  0  0  0  0
 15 19  1  0  0  0  0
 17 16  1  0  0  0  0
 18 17  2  0  0  0  0
 21 24  1  0  0  0  0
 23 27  1  6  0  0  0
 24 22  1  0  0  0  0
 24 20  1  1  0  0  0
 25 23  1  0  0  0  0
 25 26  1  0  0  0  0
 26 22  1  0  0  0  0
 28 23  1  0  0  0  0
 28 21  1  0  0  0  0
M  END
>  <MODEL>
2

>  <REMARK>
 VINA RESULT:      -8.3      1.335      2.129
  Name = 
  4 active torsions:
  status: ('A' for Active; 'I' for Inactive)
    1  A    between atoms: C_1  and  O_2
    2  A    between atoms: O_2  and  C_3
    3  A    between atoms: C_10  and  C_13
    4  A    between atoms: C_10  and  C_25
                            x       y       z     vdW  Elec       q    Type
                         _______ _______ _______ _____ _____    ______ ____

>  <TORSDO>
F 4

$$$$
=
 OpenBabel11052418043D

 28 31  0  0  1  0  0  0  0  0999 V2000
  185.8790  177.0340  144.1720 C   0  0  0  0  0  0  0  0  0  0  0  0
  188.9010  177.5920  141.9030 C   0  0  0  0  0  2  0  0  0  0  0  0
  189.3820  176.7940  144.8220 C   0  0  0  0  0  2  0  0  0  0  0  0
  186.5770  178.4790  141.8690 C   0  0  0  0  0  3  0  0  0  0  0  0
  188.1730  176.0190  144.3100 C   0  0  0  0  0  2  0  0  0  0  0  0
  185.2900  178.5850  142.3930 C   0  0  0  0  0  3  0  0  0  0  0  0
  189.8550  178.1610  142.8460 N   0  0  0  0  0  2  0  0  0  0  0  0
  187.5220  177.6520  142.4810 C   0  0  0  0  0  0  0  0  0  0  0  0
  190.3580  177.0800  143.6860 C   0  0  1  0  0  3  0  0  0  0  0  0
  184.9440  177.8660  143.5370 C   0  0  0  0  0  3  0  0  0  0  0  0
  187.1770  176.9250  143.6400 C   0  0  0  0  0  0  0  0  0  0  0  0
  185.5460  176.3000  145.3240 O   0  0  0  0  0  0  0  0  0  0  0  0
  185.4790  176.8150  146.6570 C   0  0  1  0  0  3  0  0  0  0  0  0
  186.6490  179.0730  148.1240 C   0  0  0  0  0  2  0  0  0  0  0  0
  186.8280  176.7080  147.3900 C   0  0  0  0  0  2  0  0  0  0  0  0
  183.6210  178.3500  146.0800 F   0  0  0  0  0  0  0  0  0  0  0  0
  184.8040  178.1690  146.7220 C   0  0  0  0  0  0  0  0  0  0  0  0
  185.3610  179.2090  147.3620 C   0  0  0  0  0  3  0  0  0  0  0  0
  187.5560  178.0470  147.4620 C   0  0  0  0  0  2  0  0  0  0  0  0
  191.7060  177.4750  144.2810 C   0  0  0  0  0  2  0  0  0  0  0  0
  193.8780  176.6980  145.3160 C   0  0  0  0  0  2  0  0  0  0  0  0
  192.4740  174.8650  143.7420 S   0  0  0  0  0  0  0  0  0  0  0  0
  195.0520  174.4990  145.4400 C   0  0  2  0  0  3  0  0  0  0  0  0
  192.4690  176.2950  144.8820 C   0  0  2  0  0  3  0  0  0  0  0  0
  194.0850  173.3140  145.3980 C   0  0  0  0  0  2  0  0  0  0  0  0
  192.6290  173.6910  145.1230 C   0  0  0  0  0  2  0  0  0  0  0  0
  196.3700  174.0440  146.0300 C   0  0  0  0  0  1  0  0  0  0  0  0
  194.5110  175.6720  146.2470 C   0  0  0  0  0  2  0  0  0  0  0  0
  1 12  1  0  0  0  0
  2  8  1  0  0  0  0
  2  7  1  0  0  0  0
  4  6  2  0  0  0  0
  4  8  1  0  0  0  0
  5  3  1  0  0  0  0
  6 10  1  0  0  0  0
  7  9  1  0  0  0  0
  8 11  2  0  0  0  0
  9 20  1  1  0  0  0
  9  3  1  0  0  0  0
 10  1  2  0  0  0  0
 11  1  1  0  0  0  0
 11  5  1  0  0  0  0
 13 12  1  6  0  0  0
 13 17  1  0  0  0  0
 13 15  1  0  0  0  0
 15 19  1  0  0  0  0
 16 17  1  0  0  0  0
 17 18  2  0  0  0  0
 18 14  1  0  0  0  0
 19 14  1  0  0  0  0
 21 28  1  0  0  0  0
 22 24  1  0  0  0  0
 22 26  1  0  0  0  0
 23 27  1  1  0  0  0
 23 28  1  0  0  0  0
 24 20  1  6  0  0  0
 24 21  1  0  0  0  0
 25 23  1  0  0  0  0
 26 25  1  0  0  0  0
M  END
>  <MODEL>
3

>  <REMARK>
 VINA RESULT:      -8.3      2.184      4.176
  Name = 
  4 active torsions:
  status: ('A' for Active; 'I' for Inactive)
    1  A    between atoms: C_1  and  O_2
    2  A    between atoms: O_2  and  C_3
    3  A    between atoms: C_10  and  C_13
    4  A    between atoms: C_10  and  C_25
                            x       y       z     vdW  Elec       q    Type
                         _______ _______ _______ _____ _____    ______ ____

>  <TORSDO>
F 4

$$$$
=
 OpenBabel11052418043D

 28 31  0  0  1  0  0  0  0  0999 V2000
  187.5360  177.1620  142.5030 C   0  0  0  0  0  0  0  0  0  0  0  0
  190.3740  174.7400  143.3230 C   0  0  0  0  0  2  0  0  0  0  0  0
  190.4160  177.5330  144.5820 C   0  0  0  0  0  2  0  0  0  0  0  0
  188.8470  174.9540  141.3710 C   0  0  0  0  0  3  0  0  0  0  0  0
  188.9720  177.0420  144.5610 C   0  0  0  0  0  2  0  0  0  0  0  0
  187.8100  175.5770  140.6790 C   0  0  0  0  0  3  0  0  0  0  0  0
  191.4990  175.6590  143.4370 N   0  0  0  0  0  2  0  0  0  0  0  0
  189.2350  175.4190  142.6290 C   0  0  0  0  0  0  0  0  0  0  0  0
  191.3810  176.3600  144.7110 C   0  0  1  0  0  3  0  0  0  0  0  0
  187.1580  176.6740  141.2430 C   0  0  0  0  0  3  0  0  0  0  0  0
  188.5810  176.5300  143.2020 C   0  0  0  0  0  0  0  0  0  0  0  0
  186.8880  178.2640  143.0880 O   0  0  0  0  0  0  0  0  0  0  0  0
  185.6100  178.2420  143.7310 C   0  0  1  0  0  3  0  0  0  0  0  0
  184.6200  177.9870  146.4840 C   0  0  0  0  0  2  0  0  0  0  0  0
  185.3060  176.8760  144.3710 C   0  0  0  0  0  2  0  0  0  0  0  0
  185.6580  180.6860  144.1380 F   0  0  0  0  0  0  0  0  0  0  0  0
  185.3890  179.4470  144.6230 C   0  0  0  0  0  0  0  0  0  0  0  0
  184.9720  179.3220  145.8920 C   0  0  0  0  0  3  0  0  0  0  0  0
  185.4900  176.8910  145.8850 C   0  0  0  0  0  2  0  0  0  0  0  0
  192.7470  176.8890  145.1360 C   0  0  0  0  0  2  0  0  0  0  0  0
  193.9190  174.7800  145.8930 C   0  0  0  0  0  2  0  0  0  0  0  0
  195.4880  176.7780  144.7300 S   0  0  0  0  0  0  0  0  0  0  0  0
  196.2490  173.9140  145.6690 C   0  0  2  0  0  3  0  0  0  0  0  0
  193.8860  175.9070  144.8610 C   0  0  2  0  0  3  0  0  0  0  0  0
  196.9490  174.4310  144.4110 C   0  0  0  0  0  2  0  0  0  0  0  0
  196.1650  175.4910  143.6360 C   0  0  0  0  0  2  0  0  0  0  0  0
  196.9570  172.6670  146.1550 C   0  0  0  0  0  1  0  0  0  0  0  0
  194.7750  173.6060  145.4380 C   0  0  0  0  0  2  0  0  0  0  0  0
  1 12  1  0  0  0  0
  1 11  1  0  0  0  0
  2  7  1  0  0  0  0
  3  9  1  0  0  0  0
  4  8  1  0  0  0  0
  5  3  1  0  0  0  0
  6 10  1  0  0  0  0
  6  4  2  0  0  0  0
  7  9  1  0  0  0  0
  8 11  2  0  0  0  0
  8  2  1  0  0  0  0
  9 20  1  6  0  0  0
 10  1  2  0  0  0  0
 11  5  1  0  0  0  0
 13 12  1  1  0  0  0
 13 15  1  0  0  0  0
 13 17  1  0  0  0  0
 15 19  1  0  0  0  0
 16 17  1  0  0  0  0
 17 18  2  0  0  0  0
 18 14  1  0  0  0  0
 19 14  1  0  0  0  0
 22 24  1  0  0  0  0
 23 27  1  6  0  0  0
 24 20  1  1  0  0  0
 24 21  1  0  0  0  0
 25 23  1  0  0  0  0
 26 25  1  0  0  0  0
 26 22  1  0  0  0  0
 28 23  1  0  0  0  0
 28 21  1  0  0  0  0
M  END
>  <MODEL>
4

>  <REMARK>
 VINA RESULT:      -8.2      2.476      4.661
  Name = 
  4 active torsions:
  status: ('A' for Active; 'I' for Inactive)
    1  A    between atoms: C_1  and  O_2
    2  A    between atoms: O_2  and  C_3
    3  A    between atoms: C_10  and  C_13
    4  A    between atoms: C_10  and  C_25
                            x       y       z     vdW  Elec       q    Type
                         _______ _______ _______ _____ _____    ______ ____

>  <TORSDO>
F 4

$$$$
=
 OpenBabel11052418043D

 28 31  0  0  1  0  0  0  0  0999 V2000
  186.5530  176.9600  143.9580 C   0  0  0  0  0  0  0  0  0  0  0  0
  190.1470  177.0250  142.6660 C   0  0  0  0  0  2  0  0  0  0  0  0
  189.6430  176.1690  145.5640 C   0  0  0  0  0  2  0  0  0  0  0  0
  188.0950  178.2690  142.0120 C   0  0  0  0  0  3  0  0  0  0  0  0
  188.5280  175.5940  144.6980 C   0  0  0  0  0  2  0  0  0  0  0  0
  186.7430  178.5790  142.1540 C   0  0  0  0  0  3  0  0  0  0  0  0
  190.8650  177.4390  143.8640 N   0  0  0  0  0  2  0  0  0  0  0  0
  188.6870  177.3050  142.8310 C   0  0  0  0  0  0  0  0  0  0  0  0
  190.9350  176.2940  144.7660 C   0  0  1  0  0  3  0  0  0  0  0  0
  185.9770  177.9280  143.1200 C   0  0  0  0  0  3  0  0  0  0  0  0
  187.9160  176.6450  143.8120 C   0  0  0  0  0  0  0  0  0  0  0  0
  185.7950  176.2900  144.9350 O   0  0  0  0  0  0  0  0  0  0  0  0
  185.3960  176.8270  146.2000 C   0  0  1  0  0  3  0  0  0  0  0  0
  186.1850  179.0930  147.8930 C   0  0  0  0  0  2  0  0  0  0  0  0
  186.5080  176.7140  147.2570 C   0  0  0  0  0  2  0  0  0  0  0  0
  183.7760  178.3780  145.1440 F   0  0  0  0  0  0  0  0  0  0  0  0
  184.7500  178.1920  146.0720 C   0  0  0  0  0  0  0  0  0  0  0  0
  185.1400  179.2330  146.8220 C   0  0  0  0  0  3  0  0  0  0  0  0
  187.2150  178.0440  147.4990 C   0  0  0  0  0  2  0  0  0  0  0  0
  192.0990  176.4720  145.7350 C   0  0  0  0  0  2  0  0  0  0  0  0
  193.5810  174.4530  146.0890 C   0  0  0  0  0  2  0  0  0  0  0  0
  194.8210  176.8490  145.3600 S   0  0  0  0  0  0  0  0  0  0  0  0
  196.0110  174.0020  145.7390 C   0  0  2  0  0  3  0  0  0  0  0  0
  193.3680  175.7410  145.2940 C   0  0  2  0  0  3  0  0  0  0  0  0
  196.6100  174.8510  144.6160 C   0  0  0  0  0  2  0  0  0  0  0  0
  195.6670  175.9120  144.0490 C   0  0  0  0  0  2  0  0  0  0  0  0
  196.9020  172.8030  145.9860 C   0  0  0  0  0  1  0  0  0  0  0  0
  194.5960  173.5290  145.4290 C   0  0  0  0  0  2  0  0  0  0  0  0
  1 12  1  0  0  0  0
  2  8  1  0  0  0  0
  2  7  1  0  0  0  0
  4  6  2  0  0  0  0
  4  8  1  0  0  0  0
  5  3  1  0  0  0  0
  6 10  1  0  0  0  0
  7  9  1  0  0  0  0
  8 11  2  0  0  0  0
  9  3  1  0  0  0  0
  9 20  1  1  0  0  0
 10  1  2  0  0  0  0
 11  1  1  0  0  0  0
 11  5  1  0  0  0  0
 13 12  1  6  0  0  0
 13 15  1  0  0  0  0
 15 19  1  0  0  0  0
 16 17  1  0  0  0  0
 17 13  1  0  0  0  0
 17 18  2  0  0  0  0
 18 14  1  0  0  0  0
 19 14  1  0  0  0  0
 23 27  1  6  0  0  0
 24 22  1  0  0  0  0
 24 20  1  1  0  0  0
 24 21  1  0  0  0  0
 25 23  1  0  0  0  0
 26 25  1  0  0  0  0
 26 22  1  0  0  0  0
 28 23  1  0  0  0  0
 28 21  1  0  0  0  0
M  END
>  <MODEL>
5

>  <REMARK>
 VINA RESULT:      -8.2      2.251      4.410
  Name = 
  4 active torsions:
  status: ('A' for Active; 'I' for Inactive)
    1  A    between atoms: C_1  and  O_2
    2  A    between atoms: O_2  and  C_3
    3  A    between atoms: C_10  and  C_13
    4  A    between atoms: C_10  and  C_25
                            x       y       z     vdW  Elec       q    Type
                         _______ _______ _______ _____ _____    ______ ____

>  <TORSDO>
F 4

$$$$
=
 OpenBabel11052418043D

 28 31  0  0  1  0  0  0  0  0999 V2000
  193.7120  173.4660  145.5360 C   0  0  0  0  0  0  0  0  0  0  0  0
  190.0790  173.7210  144.3840 C   0  0  0  0  0  2  0  0  0  0  0  0
  190.9930  175.4350  146.7540 C   0  0  0  0  0  2  0  0  0  0  0  0
  191.7770  171.9100  144.2260 C   0  0  0  0  0  3  0  0  0  0  0  0
  192.1210  175.4000  145.7280 C   0  0  0  0  0  2  0  0  0  0  0  0
  193.0470  171.3870  144.4640 C   0  0  0  0  0  3  0  0  0  0  0  0
  189.3990  173.9350  145.6550 N   0  0  0  0  0  2  0  0  0  0  0  0
  191.4630  173.2090  144.6320 C   0  0  0  0  0  0  0  0  0  0  0  0
  189.6370  175.3140  146.0670 C   0  0  1  0  0  3  0  0  0  0  0  0
  194.0080  172.1600  145.1140 C   0  0  0  0  0  3  0  0  0  0  0  0
  192.4310  173.9940  145.2930 C   0  0  0  0  0  0  0  0  0  0  0  0
  194.6700  174.2610  146.1900 O   0  0  0  0  0  0  0  0  0  0  0  0
  195.9510  174.6270  145.6720 C   0  0  1  0  0  3  0  0  0  0  0  0
  197.8840  173.4860  143.7790 C   0  0  0  0  0  2  0  0  0  0  0  0
  197.0570  173.6540  146.1140 C   0  0  0  0  0  2  0  0  0  0  0  0
  194.9470  175.7740  143.7170 F   0  0  0  0  0  0  0  0  0  0  0  0
  195.9090  174.9410  144.1900 C   0  0  0  0  0  0  0  0  0  0  0  0
  196.7710  174.3870  143.3240 C   0  0  0  0  0  3  0  0  0  0  0  0
  197.4590  172.6890  145.0030 C   0  0  0  0  0  2  0  0  0  0  0  0
  188.5490  175.7550  147.0400 C   0  0  0  0  0  2  0  0  0  0  0  0
  187.8690  177.4720  145.3130 C   0  0  0  0  0  2  0  0  0  0  0  0
  186.2660  177.2310  147.5880 S   0  0  0  0  0  0  0  0  0  0  0  0
  185.8860  178.9630  145.0350 C   0  0  2  0  0  3  0  0  0  0  0  0
  187.3820  176.4690  146.3570 C   0  0  2  0  0  3  0  0  0  0  0  0
  184.6190  178.3770  145.6600 C   0  0  0  0  0  2  0  0  0  0  0  0
  184.8410  177.0960  146.4650 C   0  0  0  0  0  2  0  0  0  0  0  0
  185.4990  180.0160  144.0190 C   0  0  0  0  0  1  0  0  0  0  0  0
  186.7570  177.9070  144.3670 C   0  0  0  0  0  2  0  0  0  0  0  0
  1 12  1  0  0  0  0
  2  8  1  0  0  0  0
  2  7  1  0  0  0  0
  4  6  2  0  0  0  0
  4  8  1  0  0  0  0
  5  3  1  0  0  0  0
  6 10  1  0  0  0  0
  7  9  1  0  0  0  0
  8 11  2  0  0  0  0
  9  3  1  0  0  0  0
  9 20  1  1  0  0  0
 10  1  2  0  0  0  0
 11  1  1  0  0  0  0
 11  5  1  0  0  0  0
 13 15  1  0  0  0  0
 13 12  1  6  0  0  0
 14 19  1  0  0  0  0
 16 17  1  0  0  0  0
 17 13  1  0  0  0  0
 18 14  1  0  0  0  0
 18 17  2  0  0  0  0
 19 15  1  0  0  0  0
 21 24  1  0  0  0  0
 23 27  1  6  0  0  0
 23 25  1  0  0  0  0
 24 20  1  1  0  0  0
 24 22  1  0  0  0  0
 25 26  1  0  0  0  0
 26 22  1  0  0  0  0
 28 23  1  0  0  0  0
 28 21  1  0  0  0  0
M  END
>  <MODEL>
6

>  <REMARK>
 VINA RESULT:      -8.0      3.678      8.333
  Name = 
  4 active torsions:
  status: ('A' for Active; 'I' for Inactive)
    1  A    between atoms: C_1  and  O_2
    2  A    between atoms: O_2  and  C_3
    3  A    between atoms: C_10  and  C_13
    4  A    between atoms: C_10  and  C_25
                            x       y       z     vdW  Elec       q    Type
                         _______ _______ _______ _____ _____    ______ ____

>  <TORSDO>
F 4

$$$$
=
 OpenBabel11052418043D

 28 31  0  0  1  0  0  0  0  0999 V2000
  185.7380  177.5770  145.0780 C   0  0  0  0  0  0  0  0  0  0  0  0
  188.9370  177.4060  147.1590 C   0  0  0  0  0  2  0  0  0  0  0  0
  188.6750  175.5790  144.7130 C   0  0  0  0  0  2  0  0  0  0  0  0
  186.6010  178.0640  147.7050 C   0  0  0  0  0  3  0  0  0  0  0  0
  188.0580  176.9300  144.3660 C   0  0  0  0  0  2  0  0  0  0  0  0
  185.2630  178.2590  147.3640 C   0  0  0  0  0  3  0  0  0  0  0  0
  189.2600  175.9890  147.0550 N   0  0  0  0  0  2  0  0  0  0  0  0
  187.5180  177.6320  146.7430 C   0  0  0  0  0  0  0  0  0  0  0  0
  189.8040  175.7460  145.7240 C   0  0  1  0  0  3  0  0  0  0  0  0
  184.8350  178.0180  146.0590 C   0  0  0  0  0  3  0  0  0  0  0  0
  187.0880  177.3840  145.4220 C   0  0  0  0  0  0  0  0  0  0  0  0
  185.3250  177.3330  143.7570 O   0  0  0  0  0  0  0  0  0  0  0  0
  185.2330  178.3060  142.7130 C   0  0  1  0  0  3  0  0  0  0  0  0
  185.0780  178.2700  139.7810 C   0  0  0  0  0  2  0  0  0  0  0  0
  186.4890  178.3240  141.8240 C   0  0  0  0  0  2  0  0  0  0  0  0
  182.7570  178.2010  142.6920 F   0  0  0  0  0  0  0  0  0  0  0  0
  183.9100  178.2440  141.9770 C   0  0  0  0  0  0  0  0  0  0  0  0
  183.8460  178.1900  140.6380 C   0  0  0  0  0  3  0  0  0  0  0  0
  186.2620  177.6260  140.4860 C   0  0  0  0  0  2  0  0  0  0  0  0
  190.6480  174.4770  145.7350 C   0  0  0  0  0  2  0  0  0  0  0  0
  193.0060  173.5640  145.7710 C   0  0  0  0  0  2  0  0  0  0  0  0
  192.6960  176.3360  145.9330 S   0  0  0  0  0  0  0  0  0  0  0  0
  195.2720  174.6100  145.7200 C   0  0  2  0  0  3  0  0  0  0  0  0
  192.1030  174.7150  145.3300 C   0  0  2  0  0  3  0  0  0  0  0  0
  195.2830  175.9510  144.9840 C   0  0  0  0  0  2  0  0  0  0  0  0
  193.9020  176.4650  144.5770 C   0  0  0  0  0  2  0  0  0  0  0  0
  196.6830  174.0630  145.7780 C   0  0  0  0  0  1  0  0  0  0  0  0
  194.3550  173.5860  145.0640 C   0  0  0  0  0  2  0  0  0  0  0  0
  1 11  2  0  0  0  0
  1 10  1  0  0  0  0
  3  9  1  0  0  0  0
  5  3  1  0  0  0  0
  5 11  1  0  0  0  0
  6  4  1  0  0  0  0
  7  2  1  0  0  0  0
  8  2  1  0  0  0  0
  8  4  2  0  0  0  0
  9 20  1  1  0  0  0
  9  7  1  0  0  0  0
 10  6  2  0  0  0  0
 11  8  1  0  0  0  0
 12  1  1  0  0  0  0
 13 12  1  1  0  0  0
 14 19  1  0  0  0  0
 14 18  1  0  0  0  0
 15 13  1  0  0  0  0
 17 16  1  0  0  0  0
 17 13  1  0  0  0  0
 18 17  2  0  0  0  0
 19 15  1  0  0  0  0
 23 27  1  6  0  0  0
 24 20  1  1  0  0  0
 24 21  1  0  0  0  0
 24 22  1  0  0  0  0
 25 23  1  0  0  0  0
 26 25  1  0  0  0  0
 26 22  1  0  0  0  0
 28 23  1  0  0  0  0
 28 21  1  0  0  0  0
M  END
>  <MODEL>
7

>  <REMARK>
 VINA RESULT:      -7.9      1.827      2.664
  Name = 
  4 active torsions:
  status: ('A' for Active; 'I' for Inactive)
    1  A    between atoms: C_1  and  O_2
    2  A    between atoms: O_2  and  C_3
    3  A    between atoms: C_10  and  C_13
    4  A    between atoms: C_10  and  C_25
                            x       y       z     vdW  Elec       q    Type
                         _______ _______ _______ _____ _____    ______ ____

>  <TORSDO>
F 4

$$$$
=
 OpenBabel11052418043D

 28 31  0  0  1  0  0  0  0  0999 V2000
  188.2800  176.2670  145.5590 C   0  0  0  0  0  0  0  0  0  0  0  0
  190.2750  173.5220  143.8030 C   0  0  0  0  0  2  0  0  0  0  0  0
  188.0040  174.8960  142.2730 C   0  0  0  0  0  2  0  0  0  0  0  0
  189.7910  173.9890  146.1980 C   0  0  0  0  0  3  0  0  0  0  0  0
  188.7230  175.9510  143.1060 C   0  0  0  0  0  2  0  0  0  0  0  0
  189.1950  174.7360  147.2130 C   0  0  0  0  0  3  0  0  0  0  0  0
  189.2380  172.9050  142.9860 N   0  0  0  0  0  2  0  0  0  0  0  0
  189.6450  174.3700  144.8630 C   0  0  0  0  0  0  0  0  0  0  0  0
  188.9670  173.7900  141.8580 C   0  0  1  0  0  3  0  0  0  0  0  0
  188.4450  175.8680  146.8950 C   0  0  0  0  0  3  0  0  0  0  0  0
  188.8840  175.5130  144.5360 C   0  0  0  0  0  0  0  0  0  0  0  0
  187.5310  177.4070  145.2200 O   0  0  0  0  0  0  0  0  0  0  0  0
  186.1500  177.4220  144.8450 C   0  0  1  0  0  3  0  0  0  0  0  0
  183.7620  178.9590  145.5910 C   0  0  0  0  0  2  0  0  0  0  0  0
  185.2290  176.9980  146.0020 C   0  0  0  0  0  2  0  0  0  0  0  0
  186.5340  179.1510  143.1120 F   0  0  0  0  0  0  0  0  0  0  0  0
  185.7580  178.6980  144.1290 C   0  0  0  0  0  0  0  0  0  0  0  0
  184.6870  179.4170  144.4990 C   0  0  0  0  0  3  0  0  0  0  0  0
  184.5310  178.1890  146.6540 C   0  0  0  0  0  2  0  0  0  0  0  0
  188.3430  172.9930  140.7170 C   0  0  0  0  0  2  0  0  0  0  0  0
  190.6380  173.4300  139.7510 C   0  0  0  0  0  2  0  0  0  0  0  0
  188.4360  173.8650  138.0860 S   0  0  0  0  0  0  0  0  0  0  0  0
  191.4800  174.0070  137.4730 C   0  0  2  0  0  3  0  0  0  0  0  0
  189.2160  172.9500  139.4630 C   0  0  2  0  0  3  0  0  0  0  0  0
  190.5820  173.4650  136.3600 C   0  0  0  0  0  2  0  0  0  0  0  0
  189.2770  172.8320  136.8470 C   0  0  0  0  0  2  0  0  0  0  0  0
  192.8520  174.3040  136.9040 C   0  0  0  0  0  1  0  0  0  0  0  0
  191.6130  173.0440  138.6450 C   0  0  0  0  0  2  0  0  0  0  0  0
  1 10  1  0  0  0  0
  2  8  1  0  0  0  0
  3  5  1  0  0  0  0
  4  6  1  0  0  0  0
  5 11  1  0  0  0  0
  7  2  1  0  0  0  0
  8  4  2  0  0  0  0
  9 20  1  6  0  0  0
  9  3  1  0  0  0  0
  9  7  1  0  0  0  0
 10  6  2  0  0  0  0
 11  8  1  0  0  0  0
 11  1  2  0  0  0  0
 12  1  1  0  0  0  0
 13 12  1  1  0  0  0
 13 15  1  0  0  0  0
 14 19  1  0  0  0  0
 15 19  1  0  0  0  0
 16 17  1  0  0  0  0
 17 18  2  0  0  0  0
 17 13  1  0  0  0  0
 18 14  1  0  0  0  0
 22 24  1  0  0  0  0
 23 27  1  6  0  0  0
 23 28  1  0  0  0  0
 24 21  1  0  0  0  0
 24 20  1  1  0  0  0
 25 26  1  0  0  0  0
 25 23  1  0  0  0  0
 26 22  1  0  0  0  0
 28 21  1  0  0  0  0
M  END
>  <MODEL>
8

>  <REMARK>
 VINA RESULT:      -7.9      3.537      6.508
  Name = 
  4 active torsions:
  status: ('A' for Active; 'I' for Inactive)
    1  A    between atoms: C_1  and  O_2
    2  A    between atoms: O_2  and  C_3
    3  A    between atoms: C_10  and  C_13
    4  A    between atoms: C_10  and  C_25
                            x       y       z     vdW  Elec       q    Type
                         _______ _______ _______ _____ _____    ______ ____

>  <TORSDO>
F 4

$$$$
=
 OpenBabel11052418043D

 28 31  0  0  1  0  0  0  0  0999 V2000
  188.2910  176.3950  145.5530 C   0  0  0  0  0  0  0  0  0  0  0  0
  190.3150  173.6790  143.7850 C   0  0  0  0  0  2  0  0  0  0  0  0
  187.9680  174.9670  142.2950 C   0  0  0  0  0  2  0  0  0  0  0  0
  189.8810  174.1690  146.1850 C   0  0  0  0  0  3  0  0  0  0  0  0
  188.6780  176.0540  143.0940 C   0  0  0  0  0  2  0  0  0  0  0  0
  189.2920  174.9160  147.2040 C   0  0  0  0  0  3  0  0  0  0  0  0
  189.2760  173.0210  143.0050 N   0  0  0  0  0  2  0  0  0  0  0  0
  189.6900  174.5260  144.8480 C   0  0  0  0  0  0  0  0  0  0  0  0
  188.9500  173.8810  141.8720 C   0  0  1  0  0  3  0  0  0  0  0  0
  188.5030  176.0220  146.8890 C   0  0  0  0  0  3  0  0  0  0  0  0
  188.8890  175.6430  144.5250 C   0  0  0  0  0  0  0  0  0  0  0  0
  187.5020  177.5080  145.2170 O   0  0  0  0  0  0  0  0  0  0  0  0
  186.1280  177.4730  144.8200 C   0  0  1  0  0  3  0  0  0  0  0  0
  183.7110  179.0410  145.3880 C   0  0  0  0  0  2  0  0  0  0  0  0
  185.1920  177.1420  145.9960 C   0  0  0  0  0  2  0  0  0  0  0  0
  186.5220  179.0460  142.9460 F   0  0  0  0  0  0  0  0  0  0  0  0
  185.7340  178.6760  143.9880 C   0  0  0  0  0  0  0  0  0  0  0  0
  184.6480  179.4110  144.2740 C   0  0  0  0  0  3  0  0  0  0  0  0
  184.4700  178.3770  146.5270 C   0  0  0  0  0  2  0  0  0  0  0  0
  188.3190  173.0500  140.7600 C   0  0  0  0  0  2  0  0  0  0  0  0
  188.3070  173.2870  138.2430 C   0  0  0  0  0  2  0  0  0  0  0  0
  190.0970  171.4510  139.3540 S   0  0  0  0  0  0  0  0  0  0  0  0
  189.7230  172.3640  136.4060 C   0  0  2  0  0  3  0  0  0  0  0  0
  189.1580  173.0150  139.4820 C   0  0  2  0  0  3  0  0  0  0  0  0
  191.1560  172.0760  136.8580 C   0  0  0  0  0  2  0  0  0  0  0  0
  191.3960  172.2450  138.3580 C   0  0  0  0  0  2  0  0  0  0  0  0
  189.6910  172.4790  134.8970 C   0  0  0  0  0  1  0  0  0  0  0  0
  189.1540  173.6340  137.0250 C   0  0  0  0  0  2  0  0  0  0  0  0
  1 10  1  0  0  0  0
  2  8  1  0  0  0  0
  3  5  1  0  0  0  0
  4  6  1  0  0  0  0
  5 11  1  0  0  0  0
  7  2  1  0  0  0  0
  8  4  2  0  0  0  0
  9 20  1  6  0  0  0
  9  3  1  0  0  0  0
  9  7  1  0  0  0  0
 10  6  2  0  0  0  0
 11  8  1  0  0  0  0
 11  1  2  0  0  0  0
 12  1  1  0  0  0  0
 13 12  1  1  0  0  0
 13 15  1  0  0  0  0
 14 19  1  0  0  0  0
 15 19  1  0  0  0  0
 16 17  1  0  0  0  0
 17 18  2  0  0  0  0
 17 13  1  0  0  0  0
 18 14  1  0  0  0  0
 21 24  1  0  0  0  0
 22 24  1  0  0  0  0
 23 27  1  6  0  0  0
 23 25  1  0  0  0  0
 23 28  1  0  0  0  0
 24 20  1  1  0  0  0
 25 26  1  0  0  0  0
 26 22  1  0  0  0  0
 28 21  1  0  0  0  0
M  END
>  <MODEL>
9

>  <REMARK>
 VINA RESULT:      -7.8      3.616      6.835
  Name = 
  4 active torsions:
  status: ('A' for Active; 'I' for Inactive)
    1  A    between atoms: C_1  and  O_2
    2  A    between atoms: O_2  and  C_3
    3  A    between atoms: C_10  and  C_13
    4  A    between atoms: C_10  and  C_25
                            x       y       z     vdW  Elec       q    Type
                         _______ _______ _______ _____ _____    ______ ____

>  <TORSDO>
F 4

$$$$
