=
 OpenBabel11052418403D

 34 39  0  0  1  0  0  0  0  0999 V2000
  188.8990  173.7810  141.3670 C   0  0  0  0  0  0  0  0  0  0  0  0
  189.7210  173.0670  143.5560 C   0  0  0  0  0  0  0  0  0  0  0  0
  188.6840  175.2620  143.2980 C   0  0  0  0  0  0  0  0  0  0  0  0
  188.4450  176.5830  145.5490 C   0  0  1  0  0  0  0  0  0  0  0  0
  189.9260  171.6020  141.6360 C   0  0  0  0  0  3  0  0  0  0  0  0
  190.1310  171.8540  142.9970 C   0  0  0  0  0  3  0  0  0  0  0  0
  189.5580  174.5100  145.5010 C   0  0  0  0  0  0  0  0  0  0  0  0
  189.1000  174.0380  142.7400 C   0  0  0  0  0  0  0  0  0  0  0  0
  189.0680  176.3200  146.9300 C   0  0  0  0  0  2  0  0  0  0  0  0
  189.3110  172.5620  140.8220 C   0  0  0  0  0  3  0  0  0  0  0  0
  188.0840  176.2250  142.4770 C   0  0  0  0  0  3  0  0  0  0  0  0
  188.2870  174.7470  140.5620 C   0  0  0  0  0  3  0  0  0  0  0  0
  189.9430  173.3350  144.9910 C   0  0  0  0  0  3  0  0  0  0  0  0
  188.9440  177.9260  145.0330 C   0  0  0  0  0  1  0  0  0  0  0  0
  189.6860  174.9170  146.9190 C   0  0  2  0  0  3  0  0  0  0  0  0
  188.9050  175.4840  144.7060 N   0  0  0  0  0  0  0  0  0  0  0  0
  187.8840  175.9660  141.1150 C   0  0  0  0  0  3  0  0  0  0  0  0
  191.1460  175.0180  147.3340 C   0  0  0  0  0  2  0  0  0  0  0  0
  191.7110  176.1910  146.8140 O   0  0  0  0  0  0  0  0  0  0  0  0
  192.4050  176.5070  144.4570 C   0  0  0  0  0  2  0  0  0  0  0  0
  192.5880  175.8060  145.7870 C   0  0  1  0  0  0  0  0  0  0  0  0
  193.5400  176.9370  145.3820 C   0  0  1  0  0  3  0  0  0  0  0  0
  195.4370  175.3100  145.6730 C   0  0  0  0  0  2  0  0  0  0  0  0
  194.4670  174.1680  145.7240 C   0  0  0  0  0  3  0  0  0  0  0  0
  193.1510  174.3980  145.7920 C   0  0  0  0  0  3  0  0  0  0  0  0
  194.8680  176.4340  144.8120 C   0  0  0  0  0  2  0  0  0  0  0  0
  186.9240  176.5540  145.7140 C   0  0  0  0  0  2  0  0  0  0  0  0
  186.5220  176.8640  147.0210 O   0  0  0  0  0  0  0  0  0  0  0  0
  185.4590  177.7660  146.8720 C   0  0  1  0  0  3  0  0  0  0  0  0
  185.7850  179.1600  147.4260 C   0  0  0  0  0  2  0  0  0  0  0  0
  186.9610  179.1470  148.3900 C   0  0  0  0  0  1  0  0  0  0  0  0
  184.9330  177.7900  145.4330 C   0  0  0  0  0  2  0  0  0  0  0  0
  184.6180  179.1870  144.9090 C   0  0  0  0  0  2  0  0  0  0  0  0
  185.5640  179.5800  143.7890 C   0  0  0  0  0  1  0  0  0  0  0  0
  1  8  1  0  0  0  0
  2 13  1  0  0  0  0
  3 16  1  0  0  0  0
  4 14  1  6  0  0  0
  4 27  1  0  0  0  0
  4  9  1  0  0  0  0
  5  6  2  0  0  0  0
  6  2  1  0  0  0  0
  7 15  1  0  0  0  0
  8  3  1  0  0  0  0
  8  2  2  0  0  0  0
 10  1  2  0  0  0  0
 10  5  1  0  0  0  0
 11  3  2  0  0  0  0
 12 17  2  0  0  0  0
 12  1  1  0  0  0  0
 13  7  2  0  0  0  0
 15  9  1  0  0  0  0
 15 18  1  6  0  0  0
 16  7  1  0  0  0  0
 16  4  1  0  0  0  0
 17 11  1  0  0  0  0
 19 18  1  0  0  0  0
 20 21  1  0  0  0  0
 21 25  1  0  0  0  0
 21 19  1  1  0  0  0
 22 20  1  6  0  0  0
 22 21  1  0  0  0  0
 23 24  1  0  0  0  0
 24 25  2  0  0  0  0
 26 22  1  0  0  0  0
 26 23  1  0  0  0  0
 27 28  1  0  0  0  0
 29 32  1  6  0  0  0
 29 28  1  0  0  0  0
 29 30  1  0  0  0  0
 30 31  1  0  0  0  0
 33 32  1  0  0  0  0
 34 33  1  0  0  0  0
M  END
>  <MODEL>
1

>  <REMARK>
 VINA RESULT:      -7.8      0.000      0.000
  Name = 
  9 active torsions:
  status: ('A' for Active; 'I' for Inactive)
    1  A    between atoms: O_3  and  C_13
    2  A    between atoms: O_3  and  C_17
    3  A    between atoms: C_5  and  C_27
    4  A    between atoms: C_7  and  C_8
    5  A    between atoms: C_8  and  O_16
    6  A    between atoms: C_8  and  C_23
    7  A    between atoms: C_12  and  C_23
    8  A    between atoms: O_16  and  C_27
    9  A    between atoms: C_17  and  C_29
                            x       y       z     vdW  Elec       q    Type
                         _______ _______ _______ _____ _____    ______ ____

>  <TORSDO>
F 9

$$$$
=
 OpenBabel11052418403D

 34 39  0  0  1  0  0  0  0  0999 V2000
  189.3970  172.6190  142.0280 C   0  0  0  0  0  0  0  0  0  0  0  0
  188.9970  175.0310  142.0260 C   0  0  0  0  0  0  0  0  0  0  0  0
  189.7440  173.9190  144.0670 C   0  0  0  0  0  0  0  0  0  0  0  0
  190.1780  175.5630  146.0600 C   0  0  1  0  0  0  0  0  0  0  0  0
  188.6600  173.7330  140.0060 C   0  0  0  0  0  3  0  0  0  0  0  0
  188.6390  174.9610  140.6780 C   0  0  0  0  0  3  0  0  0  0  0  0
  189.2980  176.3650  144.0310 C   0  0  0  0  0  0  0  0  0  0  0  0
  189.3800  173.8550  142.7090 C   0  0  0  0  0  0  0  0  0  0  0  0
  189.8030  177.0450  146.2310 C   0  0  0  0  0  2  0  0  0  0  0  0
  189.0390  172.5650  140.6780 C   0  0  0  0  0  3  0  0  0  0  0  0
  190.1060  172.7450  144.7390 C   0  0  0  0  0  3  0  0  0  0  0  0
  189.7740  171.4570  142.7090 C   0  0  0  0  0  3  0  0  0  0  0  0
  188.9670  176.3250  142.7360 C   0  0  0  0  0  3  0  0  0  0  0  0
  189.4670  174.7510  147.1340 C   0  0  0  0  0  1  0  0  0  0  0  0
  189.3430  177.5830  144.8710 C   0  0  2  0  0  3  0  0  0  0  0  0
  189.7160  175.2030  144.7250 N   0  0  0  0  0  0  0  0  0  0  0  0
  190.1240  171.5200  144.0610 C   0  0  0  0  0  3  0  0  0  0  0  0
  187.9610  178.1990  145.0250 C   0  0  0  0  0  2  0  0  0  0  0  0
  187.2680  177.5630  146.0660 O   0  0  0  0  0  0  0  0  0  0  0  0
  184.9740  176.8460  146.6700 C   0  0  0  0  0  2  0  0  0  0  0  0
  185.9280  177.4510  145.6600 C   0  0  1  0  0  0  0  0  0  0  0  0
  184.9990  178.3590  146.4720 C   0  0  1  0  0  3  0  0  0  0  0  0
  184.1010  179.2270  144.2870 C   0  0  0  0  0  2  0  0  0  0  0  0
  184.7640  178.0990  143.5530 C   0  0  0  0  0  3  0  0  0  0  0  0
  185.6190  177.2880  144.1840 C   0  0  0  0  0  3  0  0  0  0  0  0
  183.7450  178.7830  145.7030 C   0  0  0  0  0  2  0  0  0  0  0  0
  191.7020  175.4570  146.1660 C   0  0  0  0  0  2  0  0  0  0  0  0
  192.3550  176.5670  145.6150 O   0  0  0  0  0  0  0  0  0  0  0  0
  193.3680  176.0310  144.8080 C   0  0  1  0  0  3  0  0  0  0  0  0
  193.9360  174.7180  145.3660 C   0  0  0  0  0  2  0  0  0  0  0  0
  195.3980  174.8370  145.7660 C   0  0  0  0  0  1  0  0  0  0  0  0
  192.9320  175.9310  143.3420 C   0  0  0  0  0  2  0  0  0  0  0  0
  193.0430  174.5280  142.7530 C   0  0  0  0  0  2  0  0  0  0  0  0
  192.6440  174.5150  141.2890 C   0  0  0  0  0  1  0  0  0  0  0  0
  1  8  2  0  0  0  0
  1 12  1  0  0  0  0
  2  8  1  0  0  0  0
  2 13  1  0  0  0  0
  3 16  1  0  0  0  0
  3 11  2  0  0  0  0
  4 27  1  0  0  0  0
  4  9  1  0  0  0  0
  4 14  1  1  0  0  0
  5 10  2  0  0  0  0
  5  6  1  0  0  0  0
  6  2  2  0  0  0  0
  7 16  1  0  0  0  0
  7 15  1  0  0  0  0
  8  3  1  0  0  0  0
 10  1  1  0  0  0  0
 12 17  2  0  0  0  0
 13  7  2  0  0  0  0
 15 18  1  1  0  0  0
 15  9  1  0  0  0  0
 16  4  1  0  0  0  0
 17 11  1  0  0  0  0
 18 19  1  0  0  0  0
 21 19  1  1  0  0  0
 21 22  1  0  0  0  0
 21 20  1  0  0  0  0
 22 26  1  6  0  0  0
 22 20  1  0  0  0  0
 23 26  1  0  0  0  0
 24 25  2  0  0  0  0
 24 23  1  0  0  0  0
 25 21  1  0  0  0  0
 28 27  1  0  0  0  0
 29 32  1  6  0  0  0
 29 30  1  0  0  0  0
 29 28  1  0  0  0  0
 30 31  1  0  0  0  0
 33 32  1  0  0  0  0
 34 33  1  0  0  0  0
M  END
>  <MODEL>
2

>  <REMARK>
 VINA RESULT:      -7.3      1.291      6.467
  Name = 
  9 active torsions:
  status: ('A' for Active; 'I' for Inactive)
    1  A    between atoms: O_3  and  C_13
    2  A    between atoms: O_3  and  C_17
    3  A    between atoms: C_5  and  C_27
    4  A    between atoms: C_7  and  C_8
    5  A    between atoms: C_8  and  O_16
    6  A    between atoms: C_8  and  C_23
    7  A    between atoms: C_12  and  C_23
    8  A    between atoms: O_16  and  C_27
    9  A    between atoms: C_17  and  C_29
                            x       y       z     vdW  Elec       q    Type
                         _______ _______ _______ _____ _____    ______ ____

>  <TORSDO>
F 9

$$$$
=
 OpenBabel11052418403D

 34 39  0  0  1  0  0  0  0  0999 V2000
  191.1000  172.4980  143.0060 C   0  0  0  0  0  0  0  0  0  0  0  0
  189.4180  174.2620  143.1880 C   0  0  0  0  0  0  0  0  0  0  0  0
  191.1640  174.0620  144.8830 C   0  0  0  0  0  0  0  0  0  0  0  0
  191.0880  175.9500  146.6980 C   0  0  1  0  0  0  0  0  0  0  0  0
  189.3660  172.7100  141.3270 C   0  0  0  0  0  3  0  0  0  0  0  0
  188.8260  173.8080  142.0070 C   0  0  0  0  0  3  0  0  0  0  0  0
  189.4170  175.8230  145.0470 C   0  0  0  0  0  0  0  0  0  0  0  0
  190.5620  173.6070  143.6940 C   0  0  0  0  0  0  0  0  0  0  0  0
  189.9980  176.9880  147.0130 C   0  0  0  0  0  2  0  0  0  0  0  0
  190.5000  172.0570  141.8240 C   0  0  0  0  0  3  0  0  0  0  0  0
  192.2880  173.3950  145.3850 C   0  0  0  0  0  3  0  0  0  0  0  0
  192.2320  171.8510  143.5120 C   0  0  0  0  0  3  0  0  0  0  0  0
  188.8440  175.4160  143.9090 C   0  0  0  0  0  3  0  0  0  0  0  0
  191.2740  175.0510  147.9130 C   0  0  0  0  0  1  0  0  0  0  0  0
  188.9790  176.9760  145.8670 C   0  0  2  0  0  3  0  0  0  0  0  0
  190.5840  175.2000  145.5530 N   0  0  0  0  0  0  0  0  0  0  0  0
  192.8220  172.2960  144.6990 C   0  0  0  0  0  3  0  0  0  0  0  0
  187.5900  176.7460  146.4440 C   0  0  0  0  0  2  0  0  0  0  0  0
  186.9540  177.9770  146.6610 O   0  0  0  0  0  0  0  0  0  0  0  0
  184.6240  178.7270  146.2780 C   0  0  0  0  0  2  0  0  0  0  0  0
  185.8750  178.0460  145.7640 C   0  0  1  0  0  0  0  0  0  0  0  0
  185.5620  179.4870  145.3450 C   0  0  1  0  0  3  0  0  0  0  0  0
  185.6520  178.7040  142.9540 C   0  0  0  0  0  2  0  0  0  0  0  0
  185.6130  177.2750  143.4070 C   0  0  0  0  0  3  0  0  0  0  0  0
  185.7310  176.9700  144.7040 C   0  0  0  0  0  3  0  0  0  0  0  0
  184.9160  179.5850  143.9590 C   0  0  0  0  0  2  0  0  0  0  0  0
  192.3660  176.7140  146.3420 C   0  0  0  0  0  2  0  0  0  0  0  0
  192.5430  176.8420  144.9570 O   0  0  0  0  0  0  0  0  0  0  0  0
  193.9210  176.6910  144.7500 C   0  0  1  0  0  3  0  0  0  0  0  0
  194.6340  176.0580  145.9530 C   0  0  0  0  0  2  0  0  0  0  0  0
  195.6060  174.9610  145.5460 C   0  0  0  0  0  1  0  0  0  0  0  0
  194.2210  175.9840  143.4230 C   0  0  0  0  0  2  0  0  0  0  0  0
  193.0550  175.9850  142.4410 C   0  0  0  0  0  2  0  0  0  0  0  0
  193.2260  174.9070  141.3860 C   0  0  0  0  0  1  0  0  0  0  0  0
  1 12  2  0  0  0  0
  1  8  1  0  0  0  0
  2  8  1  0  0  0  0
  2 13  1  0  0  0  0
  3 11  1  0  0  0  0
  3 16  1  0  0  0  0
  4  9  1  0  0  0  0
  4 14  1  1  0  0  0
  5 10  2  0  0  0  0
  5  6  1  0  0  0  0
  6  2  2  0  0  0  0
  7 16  1  0  0  0  0
  7 15  1  0  0  0  0
  8  3  2  0  0  0  0
 10  1  1  0  0  0  0
 12 17  1  0  0  0  0
 13  7  2  0  0  0  0
 15 18  1  1  0  0  0
 15  9  1  0  0  0  0
 16  4  1  0  0  0  0
 17 11  2  0  0  0  0
 18 19  1  0  0  0  0
 21 20  1  0  0  0  0
 21 19  1  1  0  0  0
 22 26  1  6  0  0  0
 22 21  1  0  0  0  0
 22 20  1  0  0  0  0
 23 24  1  0  0  0  0
 23 26  1  0  0  0  0
 24 25  2  0  0  0  0
 25 21  1  0  0  0  0
 27  4  1  0  0  0  0
 28 27  1  0  0  0  0
 29 32  1  6  0  0  0
 29 28  1  0  0  0  0
 29 30  1  0  0  0  0
 31 30  1  0  0  0  0
 33 32  1  0  0  0  0
 34 33  1  0  0  0  0
M  END
>  <MODEL>
3

>  <REMARK>
 VINA RESULT:      -7.3      1.440      6.463
  Name = 
  9 active torsions:
  status: ('A' for Active; 'I' for Inactive)
    1  A    between atoms: O_3  and  C_13
    2  A    between atoms: O_3  and  C_17
    3  A    between atoms: C_5  and  C_27
    4  A    between atoms: C_7  and  C_8
    5  A    between atoms: C_8  and  O_16
    6  A    between atoms: C_8  and  C_23
    7  A    between atoms: C_12  and  C_23
    8  A    between atoms: O_16  and  C_27
    9  A    between atoms: C_17  and  C_29
                            x       y       z     vdW  Elec       q    Type
                         _______ _______ _______ _____ _____    ______ ____

>  <TORSDO>
F 9

$$$$
=
 OpenBabel11052418403D

 34 39  0  0  1  0  0  0  0  0999 V2000
  187.7740  175.9480  140.6860 C   0  0  0  0  0  0  0  0  0  0  0  0
  187.8170  177.3540  142.6850 C   0  0  0  0  0  0  0  0  0  0  0  0
  189.1360  175.3020  142.6080 C   0  0  0  0  0  0  0  0  0  0  0  0
  190.6160  174.9240  144.7370 C   0  0  1  0  0  0  0  0  0  0  0  0
  186.4710  177.9900  140.7710 C   0  0  0  0  0  3  0  0  0  0  0  0
  186.9320  178.2420  142.0690 C   0  0  0  0  0  3  0  0  0  0  0  0
  189.1290  176.7440  144.6330 C   0  0  0  0  0  0  0  0  0  0  0  0
  188.2430  176.2000  141.9930 C   0  0  0  0  0  0  0  0  0  0  0  0
  190.5970  175.6280  146.1030 C   0  0  0  0  0  2  0  0  0  0  0  0
  186.8920  176.8470  140.0800 C   0  0  0  0  0  3  0  0  0  0  0  0
  189.5410  174.1510  141.9190 C   0  0  0  0  0  3  0  0  0  0  0  0
  188.1970  174.8030  140.0050 C   0  0  0  0  0  3  0  0  0  0  0  0
  188.2960  177.6170  144.0560 C   0  0  0  0  0  3  0  0  0  0  0  0
  190.2820  173.4520  144.9400 C   0  0  0  0  0  1  0  0  0  0  0  0
  189.7170  176.8790  145.9850 C   0  0  2  0  0  3  0  0  0  0  0  0
  189.5940  175.5970  143.9430 N   0  0  0  0  0  0  0  0  0  0  0  0
  189.0750  173.9060  140.6210 C   0  0  0  0  0  3  0  0  0  0  0  0
  188.6430  176.8300  147.0610 C   0  0  0  0  0  2  0  0  0  0  0  0
  188.1880  178.1270  147.3410 O   0  0  0  0  0  0  0  0  0  0  0  0
  186.0590  179.1440  148.0980 C   0  0  0  0  0  2  0  0  0  0  0  0
  186.7850  178.0930  147.2840 C   0  0  1  0  0  0  0  0  0  0  0  0
  186.2020  179.3280  146.5900 C   0  0  1  0  0  3  0  0  0  0  0  0
  184.8790  177.7600  145.1320 C   0  0  0  0  0  2  0  0  0  0  0  0
  185.2010  176.6160  146.0470 C   0  0  0  0  0  3  0  0  0  0  0  0
  186.0930  176.7660  147.0330 C   0  0  0  0  0  3  0  0  0  0  0  0
  184.8490  179.0640  145.9240 C   0  0  0  0  0  2  0  0  0  0  0  0
  192.0080  175.1240  144.1330 C   0  0  0  0  0  2  0  0  0  0  0  0
  193.0320  174.8940  145.0610 O   0  0  0  0  0  0  0  0  0  0  0  0
  194.1790  175.4610  144.4880 C   0  0  1  0  0  3  0  0  0  0  0  0
  194.6550  176.7160  145.2350 C   0  0  0  0  0  2  0  0  0  0  0  0
  194.0980  176.8020  146.6470 C   0  0  0  0  0  1  0  0  0  0  0  0
  195.2850  174.4200  144.2820 C   0  0  0  0  0  2  0  0  0  0  0  0
  195.4610  173.4600  145.4540 C   0  0  0  0  0  2  0  0  0  0  0  0
  196.8240  173.6290  146.1010 C   0  0  0  0  0  1  0  0  0  0  0  0
  1  8  1  0  0  0  0
  2 13  1  0  0  0  0
  3 16  1  0  0  0  0
  4 14  1  1  0  0  0
  4  9  1  0  0  0  0
  5  6  2  0  0  0  0
  6  2  1  0  0  0  0
  7 15  1  0  0  0  0
  8  3  1  0  0  0  0
  8  2  2  0  0  0  0
 10  1  2  0  0  0  0
 10  5  1  0  0  0  0
 11  3  2  0  0  0  0
 12 17  2  0  0  0  0
 12  1  1  0  0  0  0
 13  7  2  0  0  0  0
 15  9  1  0  0  0  0
 15 18  1  1  0  0  0
 16  7  1  0  0  0  0
 16  4  1  0  0  0  0
 17 11  1  0  0  0  0
 18 19  1  0  0  0  0
 21 19  1  1  0  0  0
 21 20  1  0  0  0  0
 22 26  1  6  0  0  0
 22 21  1  0  0  0  0
 22 20  1  0  0  0  0
 23 26  1  0  0  0  0
 23 24  1  0  0  0  0
 24 25  2  0  0  0  0
 25 21  1  0  0  0  0
 27  4  1  0  0  0  0
 27 28  1  0  0  0  0
 29 32  1  1  0  0  0
 29 28  1  0  0  0  0
 29 30  1  0  0  0  0
 30 31  1  0  0  0  0
 32 33  1  0  0  0  0
 33 34  1  0  0  0  0
M  END
>  <MODEL>
4

>  <REMARK>
 VINA RESULT:      -7.1      1.426      6.783
  Name = 
  9 active torsions:
  status: ('A' for Active; 'I' for Inactive)
    1  A    between atoms: O_3  and  C_13
    2  A    between atoms: O_3  and  C_17
    3  A    between atoms: C_5  and  C_27
    4  A    between atoms: C_7  and  C_8
    5  A    between atoms: C_8  and  O_16
    6  A    between atoms: C_8  and  C_23
    7  A    between atoms: C_12  and  C_23
    8  A    between atoms: O_16  and  C_27
    9  A    between atoms: C_17  and  C_29
                            x       y       z     vdW  Elec       q    Type
                         _______ _______ _______ _____ _____    ______ ____

>  <TORSDO>
F 9

$$$$
=
 OpenBabel11052418403D

 34 39  0  0  1  0  0  0  0  0999 V2000
  189.2040  173.4030  141.4670 C   0  0  0  0  0  0  0  0  0  0  0  0
  190.0010  172.9270  143.7290 C   0  0  0  0  0  0  0  0  0  0  0  0
  188.9210  175.0610  143.2390 C   0  0  0  0  0  0  0  0  0  0  0  0
  188.6130  176.5910  145.3440 C   0  0  1  0  0  0  0  0  0  0  0  0
  190.2730  171.2860  141.9660 C   0  0  0  0  0  3  0  0  0  0  0  0
  190.4470  171.6760  143.2990 C   0  0  0  0  0  3  0  0  0  0  0  0
  189.7720  174.5500  145.5190 C   0  0  0  0  0  0  0  0  0  0  0  0
  189.3740  173.7990  142.8110 C   0  0  0  0  0  0  0  0  0  0  0  0
  189.2160  176.4800  146.7540 C   0  0  0  0  0  2  0  0  0  0  0  0
  189.6520  172.1470  141.0520 C   0  0  0  0  0  3  0  0  0  0  0  0
  188.3160  175.9250  142.3170 C   0  0  0  0  0  3  0  0  0  0  0  0
  188.5850  174.2710  140.5610 C   0  0  0  0  0  3  0  0  0  0  0  0
  190.1920  173.3410  145.1330 C   0  0  0  0  0  3  0  0  0  0  0  0
  189.0920  177.8880  144.7070 C   0  0  0  0  0  1  0  0  0  0  0  0
  189.8650  175.0980  146.8910 C   0  0  2  0  0  3  0  0  0  0  0  0
  189.1120  175.4260  144.6210 N   0  0  0  0  0  0  0  0  0  0  0  0
  188.1460  175.5280  140.9850 C   0  0  0  0  0  3  0  0  0  0  0  0
  191.3150  175.2730  147.3180 C   0  0  0  0  0  2  0  0  0  0  0  0
  191.7480  176.5720  147.0160 O   0  0  0  0  0  0  0  0  0  0  0  0
  194.1820  176.7270  146.5770 C   0  0  0  0  0  2  0  0  0  0  0  0
  192.7810  176.4520  146.0710 C   0  0  1  0  0  0  0  0  0  0  0  0
  193.7220  175.2850  146.3860 C   0  0  1  0  0  3  0  0  0  0  0  0
  193.3920  174.5100  144.0140 C   0  0  0  0  0  2  0  0  0  0  0  0
  192.7680  175.8270  143.6570 C   0  0  0  0  0  3  0  0  0  0  0  0
  192.4730  176.7180  144.6100 C   0  0  0  0  0  3  0  0  0  0  0  0
  194.4010  174.7040  145.1420 C   0  0  0  0  0  2  0  0  0  0  0  0
  187.0900  176.5430  145.4880 C   0  0  0  0  0  2  0  0  0  0  0  0
  186.4340  177.2110  144.4450 O   0  0  0  0  0  0  0  0  0  0  0  0
  185.7940  178.3000  145.0540 C   0  0  1  0  0  3  0  0  0  0  0  0
  185.3200  179.3500  144.0400 C   0  0  0  0  0  2  0  0  0  0  0  0
  184.8970  178.7350  142.7150 C   0  0  0  0  0  1  0  0  0  0  0  0
  184.6920  177.8440  146.0180 C   0  0  0  0  0  2  0  0  0  0  0  0
  184.7330  178.5310  147.3790 C   0  0  0  0  0  2  0  0  0  0  0  0
  186.0890  179.1630  147.6330 C   0  0  0  0  0  1  0  0  0  0  0  0
  1  8  1  0  0  0  0
  2 13  1  0  0  0  0
  3 16  1  0  0  0  0
  4 14  1  6  0  0  0
  4 27  1  0  0  0  0
  4  9  1  0  0  0  0
  5  6  2  0  0  0  0
  6  2  1  0  0  0  0
  7 15  1  0  0  0  0
  8  3  1  0  0  0  0
  8  2  2  0  0  0  0
  9 15  1  0  0  0  0
 10  1  2  0  0  0  0
 10  5  1  0  0  0  0
 11  3  2  0  0  0  0
 12 17  2  0  0  0  0
 12  1  1  0  0  0  0
 13  7  2  0  0  0  0
 15 18  1  6  0  0  0
 16  4  1  0  0  0  0
 16  7  1  0  0  0  0
 17 11  1  0  0  0  0
 19 18  1  0  0  0  0
 21 22  1  0  0  0  0
 21 20  1  0  0  0  0
 21 19  1  1  0  0  0
 22 26  1  6  0  0  0
 22 20  1  0  0  0  0
 23 26  1  0  0  0  0
 24 23  1  0  0  0  0
 24 25  2  0  0  0  0
 25 21  1  0  0  0  0
 28 29  1  0  0  0  0
 28 27  1  0  0  0  0
 29 30  1  6  0  0  0
 29 32  1  0  0  0  0
 31 30  1  0  0  0  0
 32 33  1  0  0  0  0
 33 34  1  0  0  0  0
M  END
>  <MODEL>
5

>  <REMARK>
 VINA RESULT:      -7.0      0.849      1.911
  Name = 
  9 active torsions:
  status: ('A' for Active; 'I' for Inactive)
    1  A    between atoms: O_3  and  C_13
    2  A    between atoms: O_3  and  C_17
    3  A    between atoms: C_5  and  C_27
    4  A    between atoms: C_7  and  C_8
    5  A    between atoms: C_8  and  O_16
    6  A    between atoms: C_8  and  C_23
    7  A    between atoms: C_12  and  C_23
    8  A    between atoms: O_16  and  C_27
    9  A    between atoms: C_17  and  C_29
                            x       y       z     vdW  Elec       q    Type
                         _______ _______ _______ _____ _____    ______ ____

>  <TORSDO>
F 9

$$$$
=
 OpenBabel11052418403D

 34 39  0  0  1  0  0  0  0  0999 V2000
  186.3740  177.8430  144.9420 C   0  0  0  0  0  0  0  0  0  0  0  0
  188.1030  177.6710  143.2220 C   0  0  0  0  0  0  0  0  0  0  0  0
  188.3060  176.3890  145.2900 C   0  0  0  0  0  0  0  0  0  0  0  0
  190.3900  174.8020  145.3420 C   0  0  1  0  0  0  0  0  0  0  0  0
  186.1800  179.1070  142.8830 C   0  0  0  0  0  3  0  0  0  0  0  0
  187.3920  178.5740  142.4290 C   0  0  0  0  0  3  0  0  0  0  0  0
  190.0570  176.2640  143.5290 C   0  0  0  0  0  0  0  0  0  0  0  0
  187.5940  177.3000  144.4860 C   0  0  0  0  0  0  0  0  0  0  0  0
  191.6180  174.7360  144.4180 C   0  0  0  0  0  2  0  0  0  0  0  0
  185.6710  178.7430  144.1360 C   0  0  0  0  0  3  0  0  0  0  0  0
  187.8010  176.0410  146.5490 C   0  0  0  0  0  3  0  0  0  0  0  0
  185.8750  177.4750  146.1960 C   0  0  0  0  0  3  0  0  0  0  0  0
  189.3840  177.1140  142.7450 C   0  0  0  0  0  3  0  0  0  0  0  0
  190.8550  175.1480  146.7500 C   0  0  0  0  0  1  0  0  0  0  0  0
  191.3350  175.6020  143.1840 C   0  0  2  0  0  3  0  0  0  0  0  0
  189.5480  175.8550  144.7860 N   0  0  0  0  0  0  0  0  0  0  0  0
  186.5890  176.5790  146.9970 C   0  0  0  0  0  3  0  0  0  0  0  0
  192.4570  176.6170  143.0250 C   0  0  0  0  0  2  0  0  0  0  0  0
  192.7930  177.1570  144.2750 O   0  0  0  0  0  0  0  0  0  0  0  0
  194.8250  177.5010  145.6510 C   0  0  0  0  0  2  0  0  0  0  0  0
  194.0940  176.7230  144.5750 C   0  0  1  0  0  0  0  0  0  0  0  0
  194.2030  176.1500  145.9920 C   0  0  1  0  0  3  0  0  0  0  0  0
  195.2900  174.1190  144.9780 C   0  0  0  0  0  2  0  0  0  0  0  0
  195.4750  174.8490  143.6810 C   0  0  0  0  0  3  0  0  0  0  0  0
  194.9110  176.0460  143.4900 C   0  0  0  0  0  3  0  0  0  0  0  0
  195.3170  175.1090  146.1380 C   0  0  0  0  0  2  0  0  0  0  0  0
  189.6910  173.4420  145.2800 C   0  0  0  0  0  2  0  0  0  0  0  0
  190.4760  172.4660  144.6500 O   0  0  0  0  0  0  0  0  0  0  0  0
  189.6490  171.9150  143.6610 C   0  0  1  0  0  3  0  0  0  0  0  0
  188.6070  172.9150  143.1380 C   0  0  0  0  0  2  0  0  0  0  0  0
  188.7970  173.2400  141.6640 C   0  0  0  0  0  1  0  0  0  0  0  0
  190.4640  171.2470  142.5480 C   0  0  0  0  0  2  0  0  0  0  0  0
  191.9700  171.4500  142.6720 C   0  0  0  0  0  2  0  0  0  0  0  0
  192.5030  172.3100  141.5400 C   0  0  0  0  0  1  0  0  0  0  0  0
  1 12  1  0  0  0  0
  2  8  1  0  0  0  0
  3 11  2  0  0  0  0
  4 14  1  1  0  0  0
  5 10  2  0  0  0  0
  6  5  1  0  0  0  0
  6  2  2  0  0  0  0
  7 16  1  0  0  0  0
  8  1  2  0  0  0  0
  8  3  1  0  0  0  0
  9  4  1  0  0  0  0
 10  1  1  0  0  0  0
 11 17  1  0  0  0  0
 12 17  2  0  0  0  0
 13  2  1  0  0  0  0
 13  7  2  0  0  0  0
 15 18  1  1  0  0  0
 15  7  1  0  0  0  0
 15  9  1  0  0  0  0
 16  3  1  0  0  0  0
 16  4  1  0  0  0  0
 18 19  1  0  0  0  0
 21 19  1  6  0  0  0
 21 20  1  0  0  0  0
 21 22  1  0  0  0  0
 22 20  1  1  0  0  0
 22 26  1  0  0  0  0
 23 26  1  0  0  0  0
 24 23  1  0  0  0  0
 25 24  2  0  0  0  0
 25 21  1  0  0  0  0
 27  4  1  0  0  0  0
 28 27  1  0  0  0  0
 29 32  1  6  0  0  0
 29 28  1  0  0  0  0
 30 29  1  0  0  0  0
 31 30  1  0  0  0  0
 32 33  1  0  0  0  0
 34 33  1  0  0  0  0
M  END
>  <MODEL>
6

>  <REMARK>
 VINA RESULT:      -6.8      1.809      5.666
  Name = 
  9 active torsions:
  status: ('A' for Active; 'I' for Inactive)
    1  A    between atoms: O_3  and  C_13
    2  A    between atoms: O_3  and  C_17
    3  A    between atoms: C_5  and  C_27
    4  A    between atoms: C_7  and  C_8
    5  A    between atoms: C_8  and  O_16
    6  A    between atoms: C_8  and  C_23
    7  A    between atoms: C_12  and  C_23
    8  A    between atoms: O_16  and  C_27
    9  A    between atoms: C_17  and  C_29
                            x       y       z     vdW  Elec       q    Type
                         _______ _______ _______ _____ _____    ______ ____

>  <TORSDO>
F 9

$$$$
=
 OpenBabel11052418403D

 34 39  0  0  1  0  0  0  0  0999 V2000
  194.0480  175.4380  143.9420 C   0  0  0  0  0  0  0  0  0  0  0  0
  192.3350  176.0640  145.5700 C   0  0  0  0  0  0  0  0  0  0  0  0
  191.6850  175.3470  143.3280 C   0  0  0  0  0  0  0  0  0  0  0  0
  189.0920  175.1990  142.9830 C   0  0  1  0  0  0  0  0  0  0  0  0
  194.6820  176.1460  146.1720 C   0  0  0  0  0  3  0  0  0  0  0  0
  193.3360  176.3270  146.5090 C   0  0  0  0  0  3  0  0  0  0  0  0
  189.9760  176.0210  145.0040 C   0  0  0  0  0  0  0  0  0  0  0  0
  192.6890  175.6160  144.2780 C   0  0  0  0  0  0  0  0  0  0  0  0
  187.9380  175.7240  143.8540 C   0  0  0  0  0  2  0  0  0  0  0  0
  195.0380  175.7020  144.8930 C   0  0  0  0  0  3  0  0  0  0  0  0
  192.0480  174.9190  142.0450 C   0  0  0  0  0  3  0  0  0  0  0  0
  194.3950  174.9960  142.6610 C   0  0  0  0  0  3  0  0  0  0  0  0
  190.9160  176.2620  145.9230 C   0  0  0  0  0  3  0  0  0  0  0  0
  189.0420  175.8970  141.6310 C   0  0  0  0  0  1  0  0  0  0  0  0
  188.5150  176.1450  145.2110 C   0  0  2  0  0  3  0  0  0  0  0  0
  190.3080  175.5390  143.7130 N   0  0  0  0  0  0  0  0  0  0  0  0
  193.3970  174.7410  141.7160 C   0  0  0  0  0  3  0  0  0  0  0  0
  188.1180  177.5870  145.4900 C   0  0  0  0  0  2  0  0  0  0  0  0
  187.3000  178.0660  144.4570 O   0  0  0  0  0  0  0  0  0  0  0  0
  185.6150  179.8630  144.1850 C   0  0  0  0  0  2  0  0  0  0  0  0
  186.2740  178.8140  145.0580 C   0  0  1  0  0  0  0  0  0  0  0  0
  184.9060  178.5330  144.4270 C   0  0  1  0  0  3  0  0  0  0  0  0
  184.0290  178.1280  146.7510 C   0  0  0  0  0  2  0  0  0  0  0  0
  185.2680  178.7350  147.3380 C   0  0  0  0  0  3  0  0  0  0  0  0
  186.3110  179.0380  146.5570 C   0  0  0  0  0  3  0  0  0  0  0  0
  183.7390  178.7580  145.3920 C   0  0  0  0  0  2  0  0  0  0  0  0
  188.9260  173.6830  142.8590 C   0  0  0  0  0  2  0  0  0  0  0  0
  189.1580  173.2240  141.5560 O   0  0  0  0  0  0  0  0  0  0  0  0
  189.7420  171.9590  141.7120 C   0  0  1  0  0  3  0  0  0  0  0  0
  190.6930  171.6010  140.5620 C   0  0  0  0  0  2  0  0  0  0  0  0
  190.7090  172.6550  139.4660 C   0  0  0  0  0  1  0  0  0  0  0  0
  190.3750  171.7940  143.0990 C   0  0  0  0  0  2  0  0  0  0  0  0
  191.8460  171.3940  143.0680 C   0  0  0  0  0  2  0  0  0  0  0  0
  192.5670  171.8610  144.3180 C   0  0  0  0  0  1  0  0  0  0  0  0
  1  8  1  0  0  0  0
  1 10  2  0  0  0  0
  2 13  1  0  0  0  0
  2  6  1  0  0  0  0
  3 16  1  0  0  0  0
  3  8  1  0  0  0  0
  4 14  1  6  0  0  0
  4 16  1  0  0  0  0
  4  9  1  0  0  0  0
  5  6  2  0  0  0  0
  7 15  1  0  0  0  0
  7 13  2  0  0  0  0
  8  2  2  0  0  0  0
  9 15  1  0  0  0  0
 10  5  1  0  0  0  0
 11  3  2  0  0  0  0
 12  1  1  0  0  0  0
 15 18  1  6  0  0  0
 16  7  1  0  0  0  0
 17 11  1  0  0  0  0
 17 12  2  0  0  0  0
 19 18  1  0  0  0  0
 20 21  1  0  0  0  0
 21 19  1  6  0  0  0
 21 25  1  0  0  0  0
 22 20  1  6  0  0  0
 22 21  1  0  0  0  0
 22 26  1  0  0  0  0
 23 24  1  0  0  0  0
 25 24  2  0  0  0  0
 26 23  1  0  0  0  0
 27  4  1  0  0  0  0
 28 29  1  0  0  0  0
 28 27  1  0  0  0  0
 29 30  1  6  0  0  0
 29 32  1  0  0  0  0
 31 30  1  0  0  0  0
 33 32  1  0  0  0  0
 33 34  1  0  0  0  0
M  END
>  <MODEL>
7

>  <REMARK>
 VINA RESULT:      -6.7      1.933      7.246
  Name = 
  9 active torsions:
  status: ('A' for Active; 'I' for Inactive)
    1  A    between atoms: O_3  and  C_13
    2  A    between atoms: O_3  and  C_17
    3  A    between atoms: C_5  and  C_27
    4  A    between atoms: C_7  and  C_8
    5  A    between atoms: C_8  and  O_16
    6  A    between atoms: C_8  and  C_23
    7  A    between atoms: C_12  and  C_23
    8  A    between atoms: O_16  and  C_27
    9  A    between atoms: C_17  and  C_29
                            x       y       z     vdW  Elec       q    Type
                         _______ _______ _______ _____ _____    ______ ____

>  <TORSDO>
F 9

$$$$
=
 OpenBabel11052418403D

 34 39  0  0  1  0  0  0  0  0999 V2000
  194.8560  175.7160  142.9530 C   0  0  0  0  0  0  0  0  0  0  0  0
  193.3160  176.5420  144.6640 C   0  0  0  0  0  0  0  0  0  0  0  0
  192.4870  175.1280  142.8540 C   0  0  0  0  0  0  0  0  0  0  0  0
  189.9440  174.5320  143.0680 C   0  0  1  0  0  0  0  0  0  0  0  0
  195.6700  177.1160  144.7560 C   0  0  0  0  0  3  0  0  0  0  0  0
  194.3780  177.1990  145.2890 C   0  0  0  0  0  3  0  0  0  0  0  0
  190.9490  176.0130  144.5960 C   0  0  0  0  0  0  0  0  0  0  0  0
  193.5520  175.7940  143.4890 C   0  0  0  0  0  0  0  0  0  0  0  0
  188.8550  175.1200  143.9800 C   0  0  0  0  0  2  0  0  0  0  0  0
  195.9090  176.3760  143.5920 C   0  0  0  0  0  3  0  0  0  0  0  0
  192.7280  174.4030  141.6800 C   0  0  0  0  0  3  0  0  0  0  0  0
  195.0850  174.9770  141.7890 C   0  0  0  0  0  3  0  0  0  0  0  0
  191.9530  176.6360  145.2220 C   0  0  0  0  0  3  0  0  0  0  0  0
  189.5650  174.7970  141.6180 C   0  0  0  0  0  1  0  0  0  0  0  0
  189.5370  175.9890  145.0430 C   0  0  2  0  0  3  0  0  0  0  0  0
  191.1710  175.2310  143.4350 N   0  0  0  0  0  0  0  0  0  0  0  0
  194.0230  174.3260  141.1530 C   0  0  0  0  0  3  0  0  0  0  0  0
  188.9250  177.3820  145.0110 C   0  0  0  0  0  2  0  0  0  0  0  0
  187.9570  177.5010  146.0190 O   0  0  0  0  0  0  0  0  0  0  0  0
  185.5920  176.7660  145.9480 C   0  0  0  0  0  2  0  0  0  0  0  0
  186.7110  177.6150  145.3800 C   0  0  1  0  0  0  0  0  0  0  0  0
  185.6520  178.2520  146.2860 C   0  0  1  0  0  3  0  0  0  0  0  0
  185.1590  179.8570  144.4100 C   0  0  0  0  0  2  0  0  0  0  0  0
  185.9420  179.0030  143.4570 C   0  0  0  0  0  3  0  0  0  0  0  0
  186.6710  177.9760  143.9080 C   0  0  0  0  0  3  0  0  0  0  0  0
  184.5560  178.9860  145.5080 C   0  0  0  0  0  2  0  0  0  0  0  0
  190.0470  173.0360  143.3760 C   0  0  0  0  0  2  0  0  0  0  0  0
  190.9190  172.7680  144.4400 O   0  0  0  0  0  0  0  0  0  0  0  0
  191.6040  171.6020  144.0650 C   0  0  1  0  0  3  0  0  0  0  0  0
  191.4470  171.2790  142.5720 C   0  0  0  0  0  2  0  0  0  0  0  0
  192.5080  170.3130  142.0690 C   0  0  0  0  0  1  0  0  0  0  0  0
  193.0640  171.6270  144.5320 C   0  0  0  0  0  2  0  0  0  0  0  0
  193.4200  172.8330  145.3950 C   0  0  0  0  0  2  0  0  0  0  0  0
  194.9220  173.0480  145.4410 C   0  0  0  0  0  1  0  0  0  0  0  0
  1  8  1  0  0  0  0
  1 10  2  0  0  0  0
  2 13  1  0  0  0  0
  2  6  1  0  0  0  0
  3 16  1  0  0  0  0
  3  8  1  0  0  0  0
  4 14  1  6  0  0  0
  4 27  1  0  0  0  0
  4 16  1  0  0  0  0
  4  9  1  0  0  0  0
  5  6  2  0  0  0  0
  7 15  1  0  0  0  0
  7 13  2  0  0  0  0
  8  2  2  0  0  0  0
  9 15  1  0  0  0  0
 10  5  1  0  0  0  0
 11  3  2  0  0  0  0
 12  1  1  0  0  0  0
 15 18  1  6  0  0  0
 16  7  1  0  0  0  0
 17 11  1  0  0  0  0
 17 12  2  0  0  0  0
 18 19  1  0  0  0  0
 20 22  1  0  0  0  0
 21 20  1  0  0  0  0
 21 19  1  1  0  0  0
 21 22  1  0  0  0  0
 22 26  1  6  0  0  0
 23 26  1  0  0  0  0
 24 25  2  0  0  0  0
 24 23  1  0  0  0  0
 25 21  1  0  0  0  0
 27 28  1  0  0  0  0
 29 30  1  6  0  0  0
 29 28  1  0  0  0  0
 29 32  1  0  0  0  0
 31 30  1  0  0  0  0
 32 33  1  0  0  0  0
 33 34  1  0  0  0  0
M  END
>  <MODEL>
8

>  <REMARK>
 VINA RESULT:      -6.6      1.968      7.372
  Name = 
  9 active torsions:
  status: ('A' for Active; 'I' for Inactive)
    1  A    between atoms: O_3  and  C_13
    2  A    between atoms: O_3  and  C_17
    3  A    between atoms: C_5  and  C_27
    4  A    between atoms: C_7  and  C_8
    5  A    between atoms: C_8  and  O_16
    6  A    between atoms: C_8  and  C_23
    7  A    between atoms: C_12  and  C_23
    8  A    between atoms: O_16  and  C_27
    9  A    between atoms: C_17  and  C_29
                            x       y       z     vdW  Elec       q    Type
                         _______ _______ _______ _____ _____    ______ ____

>  <TORSDO>
F 9

$$$$
=
 OpenBabel11052418403D

 34 39  0  0  1  0  0  0  0  0999 V2000
  195.5720  171.4590  145.3960 C   0  0  0  0  0  0  0  0  0  0  0  0
  193.3010  172.0030  144.6730 C   0  0  0  0  0  0  0  0  0  0  0  0
  194.8050  173.7790  145.4110 C   0  0  0  0  0  0  0  0  0  0  0  0
  193.7840  176.1810  145.1880 C   0  0  1  0  0  0  0  0  0  0  0  0
  194.0720  169.7050  144.6570 C   0  0  0  0  0  3  0  0  0  0  0  0
  193.0640  170.6490  144.4240 C   0  0  0  0  0  3  0  0  0  0  0  0
  192.4790  174.2860  144.6960 C   0  0  0  0  0  0  0  0  0  0  0  0
  194.5610  172.4150  145.1610 C   0  0  0  0  0  0  0  0  0  0  0  0
  192.3380  176.6300  144.9190 C   0  0  0  0  0  2  0  0  0  0  0  0
  195.3220  170.1080  145.1400 C   0  0  0  0  0  3  0  0  0  0  0  0
  196.0520  174.1740  145.9110 C   0  0  0  0  0  3  0  0  0  0  0  0
  196.8170  171.8700  145.8820 C   0  0  0  0  0  3  0  0  0  0  0  0
  192.2360  172.9980  144.4350 C   0  0  0  0  0  3  0  0  0  0  0  0
  194.2100  176.6950  146.5570 C   0  0  0  0  0  1  0  0  0  0  0  0
  191.5280  175.4020  144.4850 C   0  0  2  0  0  3  0  0  0  0  0  0
  193.7460  174.7240  145.1550 N   0  0  0  0  0  0  0  0  0  0  0  0
  197.0540  173.2240  146.1410 C   0  0  0  0  0  3  0  0  0  0  0  0
  190.3120  175.2680  145.3880 C   0  0  0  0  0  2  0  0  0  0  0  0
  189.1400  175.2880  144.6170 O   0  0  0  0  0  0  0  0  0  0  0  0
  188.5340  177.6450  144.1510 C   0  0  0  0  0  2  0  0  0  0  0  0
  188.4000  176.4110  145.0210 C   0  0  1  0  0  0  0  0  0  0  0  0
  187.2930  176.7660  144.0230 C   0  0  1  0  0  3  0  0  0  0  0  0
  185.6890  176.7860  145.9620 C   0  0  0  0  0  2  0  0  0  0  0  0
  186.8370  176.7820  146.9280 C   0  0  0  0  0  3  0  0  0  0  0  0
  188.0880  176.5940  146.4940 C   0  0  0  0  0  3  0  0  0  0  0  0
  186.1040  177.4820  144.6690 C   0  0  0  0  0  2  0  0  0  0  0  0
  194.6580  176.7390  144.0620 C   0  0  0  0  0  2  0  0  0  0  0  0
  194.4700  176.0580  142.8520 O   0  0  0  0  0  0  0  0  0  0  0  0
  195.6780  176.2060  142.1570 C   0  0  1  0  0  3  0  0  0  0  0  0
  196.8360  176.6340  143.0700 C   0  0  0  0  0  2  0  0  0  0  0  0
  197.9400  175.5910  143.1410 C   0  0  0  0  0  1  0  0  0  0  0  0
  195.9980  174.9730  141.3050 C   0  0  0  0  0  2  0  0  0  0  0  0
  195.1280  173.7600  141.6150 C   0  0  0  0  0  2  0  0  0  0  0  0
  193.9970  173.6260  140.6110 C   0  0  0  0  0  1  0  0  0  0  0  0
  1 12  1  0  0  0  0
  2  8  1  0  0  0  0
  3 11  2  0  0  0  0
  4 14  1  1  0  0  0
  5 10  2  0  0  0  0
  6  5  1  0  0  0  0
  6  2  2  0  0  0  0
  7 16  1  0  0  0  0
  8  1  2  0  0  0  0
  8  3  1  0  0  0  0
  9  4  1  0  0  0  0
 10  1  1  0  0  0  0
 11 17  1  0  0  0  0
 12 17  2  0  0  0  0
 13  2  1  0  0  0  0
 13  7  2  0  0  0  0
 15  7  1  0  0  0  0
 15  9  1  0  0  0  0
 15 18  1  1  0  0  0
 16  4  1  0  0  0  0
 16  3  1  0  0  0  0
 19 18  1  0  0  0  0
 20 21  1  0  0  0  0
 21 19  1  6  0  0  0
 21 25  1  0  0  0  0
 22 20  1  6  0  0  0
 22 26  1  0  0  0  0
 22 21  1  0  0  0  0
 23 24  1  0  0  0  0
 25 24  2  0  0  0  0
 26 23  1  0  0  0  0
 27  4  1  0  0  0  0
 28 27  1  0  0  0  0
 29 32  1  1  0  0  0
 29 28  1  0  0  0  0
 29 30  1  0  0  0  0
 30 31  1  0  0  0  0
 32 33  1  0  0  0  0
 34 33  1  0  0  0  0
M  END
>  <MODEL>
9

>  <REMARK>
 VINA RESULT:      -6.6      2.742      7.779
  Name = 
  9 active torsions:
  status: ('A' for Active; 'I' for Inactive)
    1  A    between atoms: O_3  and  C_13
    2  A    between atoms: O_3  and  C_17
    3  A    between atoms: C_5  and  C_27
    4  A    between atoms: C_7  and  C_8
    5  A    between atoms: C_8  and  O_16
    6  A    between atoms: C_8  and  C_23
    7  A    between atoms: C_12  and  C_23
    8  A    between atoms: O_16  and  C_27
    9  A    between atoms: C_17  and  C_29
                            x       y       z     vdW  Elec       q    Type
                         _______ _______ _______ _____ _____    ______ ____

>  <TORSDO>
F 9

$$$$
