=
 OpenBabel11052418333D

 27 31  0  0  1  0  0  0  0  0999 V2000
  187.3420  176.3270  142.9680 N   0  0  0  0  0  0  0  0  0  0  0  0
  188.7560  176.5860  144.9920 C   0  0  0  0  0  0  0  0  0  0  0  0
  189.9840  175.0010  143.5700 N   0  0  0  0  0  0  0  0  0  0  0  0
  188.9960  177.4030  146.2240 C   0  0  0  0  0  3  0  0  0  0  0  0
  188.7960  174.5030  140.4660 C   0  0  0  0  0  0  0  0  0  0  0  0
  187.3910  176.3130  144.4260 C   0  0  1  0  0  3  0  0  0  0  0  0
  190.9170  176.1840  145.5740 N   0  0  0  0  0  0  0  0  0  0  0  0
  188.1220  175.6600  142.1750 C   0  0  0  0  0  0  0  0  0  0  0  0
  189.8440  175.9000  144.6820 C   0  0  0  0  0  0  0  0  0  0  0  0
  189.6200  174.2280  141.4540 O   0  0  0  0  0  0  0  0  0  0  0  0
  190.4660  177.1540  146.5590 C   0  0  0  0  0  3  0  0  0  0  0  0
  187.8290  175.4200  140.8470 C   0  0  0  0  0  3  0  0  0  0  0  0
  189.2570  174.9340  142.4940 C   0  0  0  0  0  0  0  0  0  0  0  0
  193.3450  176.4880  145.2920 C   0  0  0  0  0  3  0  0  0  0  0  0
  194.8380  174.6340  145.4750 N   0  0  0  0  0  0  0  0  0  0  0  0
  193.8000  173.7900  145.7190 C   0  0  0  0  0  3  0  0  0  0  0  0
  192.4930  174.2800  145.7570 C   0  0  0  0  0  3  0  0  0  0  0  0
  192.2530  175.6440  145.5410 C   0  0  0  0  0  0  0  0  0  0  0  0
  194.6380  175.9610  145.2630 C   0  0  0  0  0  3  0  0  0  0  0  0
  184.3440  178.9250  145.9710 C   0  0  0  0  0  3  0  0  0  0  0  0
  186.3310  177.2170  144.9800 C   0  0  0  0  0  0  0  0  0  0  0  0
  186.1600  178.4920  144.4270 C   0  0  0  0  0  3  0  0  0  0  0  0
  185.1680  179.3440  144.9220 C   0  0  0  0  0  3  0  0  0  0  0  0
  184.5090  177.6520  146.5250 C   0  0  0  0  0  3  0  0  0  0  0  0
  185.5000  176.7980  146.0300 C   0  0  0  0  0  3  0  0  0  0  0  0
  188.1790  172.6700  139.0410 N   0  0  0  0  0  1  0  0  0  0  0  0
  188.9180  173.9170  139.1040 C   0  0  0  0  0  2  0  0  0  0  0  0
  1  6  1  0  0  0  0
  2  4  1  0  0  0  0
  3  9  1  0  0  0  0
  4 11  2  0  0  0  0
  5 12  2  0  0  0  0
  5 10  1  0  0  0  0
  6 21  1  1  0  0  0
  6  2  1  0  0  0  0
  7 11  1  0  0  0  0
  8 13  1  0  0  0  0
  8  1  2  0  0  0  0
  9  2  2  0  0  0  0
  9  7  1  0  0  0  0
 10 13  1  0  0  0  0
 12  8  1  0  0  0  0
 13  3  2  0  0  0  0
 14 18  1  0  0  0  0
 15 16  2  0  0  0  0
 16 17  1  0  0  0  0
 18  7  1  0  0  0  0
 18 17  2  0  0  0  0
 19 14  2  0  0  0  0
 19 15  1  0  0  0  0
 20 24  1  0  0  0  0
 21 25  1  0  0  0  0
 22 23  1  0  0  0  0
 22 21  2  0  0  0  0
 23 20  2  0  0  0  0
 25 24  2  0  0  0  0
 26 27  1  0  0  0  0
 27  5  1  0  0  0  0
M  END
>  <MODEL>
1

>  <REMARK>
 VINA RESULT:      -7.9      0.000      0.000
  Name = 
  3 active torsions:
  status: ('A' for Active; 'I' for Inactive)
    1  A    between atoms: C_9  and  C_15
    2  A    between atoms: C_13  and  C_22
    3  A    between atoms: C_14  and  N_17
                            x       y       z     vdW  Elec       q    Type
                         _______ _______ _______ _____ _____    ______ ____

>  <TORSDO>
F 3

$$$$
=
 OpenBabel11052418333D

 27 31  0  0  1  0  0  0  0  0999 V2000
  190.9220  175.1250  143.1060 N   0  0  0  0  0  0  0  0  0  0  0  0
  190.0650  176.5370  144.9590 C   0  0  0  0  0  0  0  0  0  0  0  0
  188.3310  176.6650  143.2220 N   0  0  0  0  0  0  0  0  0  0  0  0
  190.2330  176.9030  146.4020 C   0  0  0  0  0  3  0  0  0  0  0  0
  188.6870  174.6420  140.5620 C   0  0  0  0  0  0  0  0  0  0  0  0
  191.2100  176.2040  144.0450 C   0  0  1  0  0  3  0  0  0  0  0  0
  188.0620  177.4010  145.6030 N   0  0  0  0  0  0  0  0  0  0  0  0
  189.8950  175.0560  142.3190 C   0  0  0  0  0  0  0  0  0  0  0  0
  188.8500  176.8580  144.5470 C   0  0  0  0  0  0  0  0  0  0  0  0
  188.0840  175.6130  141.2110 O   0  0  0  0  0  0  0  0  0  0  0  0
  188.8610  177.4290  146.8180 C   0  0  0  0  0  3  0  0  0  0  0  0
  189.8360  174.2250  141.2180 C   0  0  0  0  0  3  0  0  0  0  0  0
  188.7730  175.8690  142.2940 C   0  0  0  0  0  0  0  0  0  0  0  0
  185.7270  177.2620  146.3710 C   0  0  0  0  0  3  0  0  0  0  0  0
  184.0470  178.6810  145.4400 N   0  0  0  0  0  0  0  0  0  0  0  0
  184.9610  179.2670  144.6210 C   0  0  0  0  0  3  0  0  0  0  0  0
  186.2960  178.8590  144.6570 C   0  0  0  0  0  3  0  0  0  0  0  0
  186.6930  177.8450  145.5390 C   0  0  0  0  0  0  0  0  0  0  0  0
  184.4010  177.6950  146.3070 C   0  0  0  0  0  3  0  0  0  0  0  0
  194.8710  175.3330  146.1260 C   0  0  0  0  0  3  0  0  0  0  0  0
  192.4860  175.9160  144.7770 C   0  0  0  0  0  0  0  0  0  0  0  0
  192.7640  174.6040  145.1780 C   0  0  0  0  0  3  0  0  0  0  0  0
  193.9540  174.3140  145.8520 C   0  0  0  0  0  3  0  0  0  0  0  0
  194.5990  176.6450  145.7250 C   0  0  0  0  0  3  0  0  0  0  0  0
  193.4080  176.9370  145.0510 C   0  0  0  0  0  3  0  0  0  0  0  0
  188.1600  172.6050  139.4030 N   0  0  0  0  0  1  0  0  0  0  0  0
  188.1730  174.0520  139.2970 C   0  0  0  0  0  2  0  0  0  0  0  0
  1  6  1  0  0  0  0
  2  4  1  0  0  0  0
  3  9  1  0  0  0  0
  4 11  2  0  0  0  0
  5 10  1  0  0  0  0
  5 12  2  0  0  0  0
  6 21  1  1  0  0  0
  6  2  1  0  0  0  0
  7 11  1  0  0  0  0
  8  1  2  0  0  0  0
  9  2  2  0  0  0  0
  9  7  1  0  0  0  0
 10 13  1  0  0  0  0
 12  8  1  0  0  0  0
 13  8  1  0  0  0  0
 13  3  2  0  0  0  0
 15 19  2  0  0  0  0
 16 17  2  0  0  0  0
 16 15  1  0  0  0  0
 17 18  1  0  0  0  0
 18  7  1  0  0  0  0
 18 14  2  0  0  0  0
 19 14  1  0  0  0  0
 21 25  2  0  0  0  0
 21 22  1  0  0  0  0
 22 23  2  0  0  0  0
 23 20  1  0  0  0  0
 24 20  2  0  0  0  0
 25 24  1  0  0  0  0
 27 26  1  0  0  0  0
 27  5  1  0  0  0  0
M  END
>  <MODEL>
2

>  <REMARK>
 VINA RESULT:      -7.8      1.363      6.289
  Name = 
  3 active torsions:
  status: ('A' for Active; 'I' for Inactive)
    1  A    between atoms: C_9  and  C_15
    2  A    between atoms: C_13  and  C_22
    3  A    between atoms: C_14  and  N_17
                            x       y       z     vdW  Elec       q    Type
                         _______ _______ _______ _____ _____    ______ ____

>  <TORSDO>
F 3

$$$$
=
 OpenBabel11052418333D

 27 31  0  0  1  0  0  0  0  0999 V2000
  189.0340  177.1020  145.6200 N   0  0  0  0  0  0  0  0  0  0  0  0
  188.0480  176.0520  143.5990 C   0  0  0  0  0  0  0  0  0  0  0  0
  190.4510  175.5600  143.4480 N   0  0  0  0  0  0  0  0  0  0  0  0
  186.7740  175.6260  142.9350 C   0  0  0  0  0  3  0  0  0  0  0  0
  192.3410  176.3750  146.1050 C   0  0  0  0  0  0  0  0  0  0  0  0
  188.1700  177.2780  144.4590 C   0  0  1  0  0  3  0  0  0  0  0  0
  188.6550  174.4720  142.0800 N   0  0  0  0  0  0  0  0  0  0  0  0
  190.2460  176.6400  145.6020 C   0  0  0  0  0  0  0  0  0  0  0  0
  189.0740  175.4050  143.0720 C   0  0  0  0  0  0  0  0  0  0  0  0
  192.1940  175.9430  144.8720 O   0  0  0  0  0  0  0  0  0  0  0  0
  187.2060  174.5310  141.9620 C   0  0  0  0  0  3  0  0  0  0  0  0
  191.1400  176.8160  146.6400 C   0  0  0  0  0  3  0  0  0  0  0  0
  190.9320  176.0630  144.5470 C   0  0  0  0  0  0  0  0  0  0  0  0
  189.9390  172.3810  141.8720 C   0  0  0  0  0  3  0  0  0  0  0  0
  191.0740  171.8400  139.8420 N   0  0  0  0  0  0  0  0  0  0  0  0
  190.6460  172.9950  139.2660 C   0  0  0  0  0  3  0  0  0  0  0  0
  189.8440  173.8820  139.9880 C   0  0  0  0  0  3  0  0  0  0  0  0
  189.4820  173.5800  141.3070 C   0  0  0  0  0  0  0  0  0  0  0  0
  190.7390  171.5180  141.1200 C   0  0  0  0  0  3  0  0  0  0  0  0
  184.3790  178.8550  145.7400 C   0  0  0  0  0  3  0  0  0  0  0  0
  186.8440  177.8310  144.8890 C   0  0  0  0  0  0  0  0  0  0  0  0
  186.2150  177.2990  146.0210 C   0  0  0  0  0  3  0  0  0  0  0  0
  184.9840  177.8100  146.4450 C   0  0  0  0  0  3  0  0  0  0  0  0
  185.0050  179.3920  144.6110 C   0  0  0  0  0  3  0  0  0  0  0  0
  186.2370  178.8820  144.1860 C   0  0  0  0  0  3  0  0  0  0  0  0
  194.5600  177.2900  146.2150 N   0  0  0  0  0  1  0  0  0  0  0  0
  193.6380  176.3570  146.8350 C   0  0  0  0  0  2  0  0  0  0  0  0
  2  6  1  0  0  0  0
  3 13  2  0  0  0  0
  4  2  1  0  0  0  0
  5 12  2  0  0  0  0
  5 27  1  0  0  0  0
  6 21  1  1  0  0  0
  6  1  1  0  0  0  0
  7  9  1  0  0  0  0
  8  1  2  0  0  0  0
  8 12  1  0  0  0  0
  9  3  1  0  0  0  0
  9  2  2  0  0  0  0
 10  5  1  0  0  0  0
 11  7  1  0  0  0  0
 11  4  2  0  0  0  0
 13 10  1  0  0  0  0
 13  8  1  0  0  0  0
 15 19  1  0  0  0  0
 16 15  2  0  0  0  0
 16 17  1  0  0  0  0
 17 18  2  0  0  0  0
 18 14  1  0  0  0  0
 18  7  1  0  0  0  0
 19 14  2  0  0  0  0
 20 23  1  0  0  0  0
 21 22  1  0  0  0  0
 22 23  2  0  0  0  0
 24 20  2  0  0  0  0
 25 24  1  0  0  0  0
 25 21  2  0  0  0  0
 26 27  1  0  0  0  0
M  END
>  <MODEL>
3

>  <REMARK>
 VINA RESULT:      -7.3      1.843      5.208
  Name = 
  3 active torsions:
  status: ('A' for Active; 'I' for Inactive)
    1  A    between atoms: C_9  and  C_15
    2  A    between atoms: C_13  and  C_22
    3  A    between atoms: C_14  and  N_17
                            x       y       z     vdW  Elec       q    Type
                         _______ _______ _______ _____ _____    ______ ____

>  <TORSDO>
F 3

$$$$
=
 OpenBabel11052418333D

 27 31  0  0  1  0  0  0  0  0999 V2000
  188.2680  174.9290  141.3320 N   0  0  0  0  0  0  0  0  0  0  0  0
  189.1940  176.3920  143.1100 C   0  0  0  0  0  0  0  0  0  0  0  0
  190.7290  174.4750  143.0160 N   0  0  0  0  0  0  0  0  0  0  0  0
  189.1440  177.7570  143.7260 C   0  0  0  0  0  3  0  0  0  0  0  0
  190.2650  172.2740  140.5180 C   0  0  0  0  0  0  0  0  0  0  0  0
  187.9930  175.6880  142.5470 C   0  0  1  0  0  3  0  0  0  0  0  0
  191.1780  176.6420  144.1930 N   0  0  0  0  0  0  0  0  0  0  0  0
  189.2130  174.0550  141.1790 C   0  0  0  0  0  0  0  0  0  0  0  0
  190.3330  175.7950  143.4200 C   0  0  0  0  0  0  0  0  0  0  0  0
  190.8540  172.6680  141.6260 O   0  0  0  0  0  0  0  0  0  0  0  0
  190.5060  177.9150  144.3990 C   0  0  0  0  0  3  0  0  0  0  0  0
  189.2240  173.1200  140.1630 C   0  0  0  0  0  3  0  0  0  0  0  0
  190.2590  173.7600  142.0370 C   0  0  0  0  0  0  0  0  0  0  0  0
  193.5900  176.3100  143.8210 C   0  0  0  0  0  3  0  0  0  0  0  0
  195.0460  175.7800  145.6380 N   0  0  0  0  0  0  0  0  0  0  0  0
  194.0040  175.8070  146.5130 C   0  0  0  0  0  3  0  0  0  0  0  0
  192.7150  176.0900  146.0570 C   0  0  0  0  0  3  0  0  0  0  0  0
  192.4950  176.3450  144.6970 C   0  0  0  0  0  0  0  0  0  0  0  0
  194.8650  176.0240  144.3130 C   0  0  0  0  0  3  0  0  0  0  0  0
  184.6380  178.2900  141.8650 C   0  0  0  0  0  3  0  0  0  0  0  0
  186.8230  176.6000  142.3260 C   0  0  0  0  0  0  0  0  0  0  0  0
  186.6600  177.2130  141.0780 C   0  0  0  0  0  3  0  0  0  0  0  0
  185.5690  178.0570  140.8480 C   0  0  0  0  0  3  0  0  0  0  0  0
  184.7950  177.6780  143.1120 C   0  0  0  0  0  3  0  0  0  0  0  0
  185.8860  176.8330  143.3430 C   0  0  0  0  0  3  0  0  0  0  0  0
  189.7690  170.8610  138.6400 N   0  0  0  0  0  1  0  0  0  0  0  0
  190.6940  171.0840  139.7350 C   0  0  0  0  0  2  0  0  0  0  0  0
  1  6  1  0  0  0  0
  2  9  2  0  0  0  0
  2  4  1  0  0  0  0
  3  9  1  0  0  0  0
  4 11  2  0  0  0  0
  5 10  1  0  0  0  0
  6 21  1  6  0  0  0
  6  2  1  0  0  0  0
  7 11  1  0  0  0  0
  7 18  1  0  0  0  0
  8  1  2  0  0  0  0
  8 13  1  0  0  0  0
  9  7  1  0  0  0  0
 10 13  1  0  0  0  0
 12  5  2  0  0  0  0
 12  8  1  0  0  0  0
 13  3  2  0  0  0  0
 14 19  2  0  0  0  0
 14 18  1  0  0  0  0
 15 16  2  0  0  0  0
 17 16  1  0  0  0  0
 18 17  2  0  0  0  0
 19 15  1  0  0  0  0
 20 24  1  0  0  0  0
 21 25  1  0  0  0  0
 22 21  2  0  0  0  0
 23 22  1  0  0  0  0
 23 20  2  0  0  0  0
 24 25  2  0  0  0  0
 26 27  1  0  0  0  0
 27  5  1  0  0  0  0
M  END
>  <MODEL>
4

>  <REMARK>
 VINA RESULT:      -6.9      1.935      2.462
  Name = 
  3 active torsions:
  status: ('A' for Active; 'I' for Inactive)
    1  A    between atoms: C_9  and  C_15
    2  A    between atoms: C_13  and  C_22
    3  A    between atoms: C_14  and  N_17
                            x       y       z     vdW  Elec       q    Type
                         _______ _______ _______ _____ _____    ______ ____

>  <TORSDO>
F 3

$$$$
=
 OpenBabel11052418333D

 27 31  0  0  1  0  0  0  0  0999 V2000
  189.9790  176.7580  145.2270 N   0  0  0  0  0  0  0  0  0  0  0  0
  188.8060  175.6830  143.3230 C   0  0  0  0  0  0  0  0  0  0  0  0
  191.1690  175.0810  143.0200 N   0  0  0  0  0  0  0  0  0  0  0  0
  187.4700  175.2900  142.7680 C   0  0  0  0  0  3  0  0  0  0  0  0
  193.2800  175.9040  145.5020 C   0  0  0  0  0  0  0  0  0  0  0  0
  189.0400  176.9310  144.1250 C   0  0  1  0  0  3  0  0  0  0  0  0
  189.2350  174.0250  141.8260 N   0  0  0  0  0  0  0  0  0  0  0  0
  191.1660  176.2430  145.1410 C   0  0  0  0  0  0  0  0  0  0  0  0
  189.7630  174.9730  142.7490 C   0  0  0  0  0  0  0  0  0  0  0  0
  193.0260  175.4360  144.3000 O   0  0  0  0  0  0  0  0  0  0  0  0
  187.7850  174.1430  141.8090 C   0  0  0  0  0  3  0  0  0  0  0  0
  192.1400  176.4160  146.1040 C   0  0  0  0  0  3  0  0  0  0  0  0
  191.7490  175.6000  144.0620 C   0  0  0  0  0  0  0  0  0  0  0  0
  190.3990  173.4170  139.7430 C   0  0  0  0  0  3  0  0  0  0  0  0
  191.3800  171.2560  139.4760 N   0  0  0  0  0  0  0  0  0  0  0  0
  190.9740  170.8910  140.7220 C   0  0  0  0  0  3  0  0  0  0  0  0
  190.2620  171.7910  141.5180 C   0  0  0  0  0  3  0  0  0  0  0  0
  189.9660  173.0710  141.0310 C   0  0  0  0  0  0  0  0  0  0  0  0
  191.1090  172.4900  138.9760 C   0  0  0  0  0  3  0  0  0  0  0  0
  185.3890  178.7260  145.5190 C   0  0  0  0  0  3  0  0  0  0  0  0
  187.7740  177.5570  144.6270 C   0  0  0  0  0  0  0  0  0  0  0  0
  187.0680  178.4360  143.7970 C   0  0  0  0  0  3  0  0  0  0  0  0
  185.8790  179.0200  144.2430 C   0  0  0  0  0  3  0  0  0  0  0  0
  186.0890  177.8470  146.3510 C   0  0  0  0  0  3  0  0  0  0  0  0
  187.2790  177.2610  145.9060 C   0  0  0  0  0  3  0  0  0  0  0  0
  195.5840  175.2890  145.2080 N   0  0  0  0  0  1  0  0  0  0  0  0
  194.6250  175.8550  146.1380 C   0  0  0  0  0  2  0  0  0  0  0  0
  2  6  1  0  0  0  0
  3 13  2  0  0  0  0
  4  2  1  0  0  0  0
  5 12  2  0  0  0  0
  5 27  1  0  0  0  0
  6 21  1  1  0  0  0
  6  1  1  0  0  0  0
  7  9  1  0  0  0  0
  8  1  2  0  0  0  0
  8 12  1  0  0  0  0
  9  3  1  0  0  0  0
  9  2  2  0  0  0  0
 10  5  1  0  0  0  0
 11  7  1  0  0  0  0
 11  4  2  0  0  0  0
 13 10  1  0  0  0  0
 13  8  1  0  0  0  0
 14 18  1  0  0  0  0
 15 16  2  0  0  0  0
 16 17  1  0  0  0  0
 18 17  2  0  0  0  0
 18  7  1  0  0  0  0
 19 15  1  0  0  0  0
 19 14  2  0  0  0  0
 20 24  1  0  0  0  0
 21 25  1  0  0  0  0
 22 23  1  0  0  0  0
 22 21  2  0  0  0  0
 23 20  2  0  0  0  0
 25 24  2  0  0  0  0
 26 27  1  0  0  0  0
M  END
>  <MODEL>
5

>  <REMARK>
 VINA RESULT:      -6.8      1.945      5.165
  Name = 
  3 active torsions:
  status: ('A' for Active; 'I' for Inactive)
    1  A    between atoms: C_9  and  C_15
    2  A    between atoms: C_13  and  C_22
    3  A    between atoms: C_14  and  N_17
                            x       y       z     vdW  Elec       q    Type
                         _______ _______ _______ _____ _____    ______ ____

>  <TORSDO>
F 3

$$$$
=
 OpenBabel11052418333D

 27 31  0  0  1  0  0  0  0  0999 V2000
  186.4580  177.2680  142.3710 N   0  0  0  0  0  0  0  0  0  0  0  0
  188.2330  176.3690  143.8540 C   0  0  0  0  0  0  0  0  0  0  0  0
  188.6850  175.3630  141.6580 N   0  0  0  0  0  0  0  0  0  0  0  0
  188.9150  176.5150  145.1800 C   0  0  0  0  0  3  0  0  0  0  0  0
  186.8560  176.4780  139.0670 C   0  0  0  0  0  0  0  0  0  0  0  0
  186.7670  176.6170  143.6390 C   0  0  1  0  0  3  0  0  0  0  0  0
  190.2630  175.3740  143.6050 N   0  0  0  0  0  0  0  0  0  0  0  0
  186.8590  176.8820  141.2010 C   0  0  0  0  0  0  0  0  0  0  0  0
  189.0090  175.7020  143.0150 C   0  0  0  0  0  0  0  0  0  0  0  0
  187.7360  175.6610  139.6030 O   0  0  0  0  0  0  0  0  0  0  0  0
  190.2910  175.8870  144.9660 C   0  0  0  0  0  3  0  0  0  0  0  0
  186.2720  177.2970  140.0220 C   0  0  0  0  0  3  0  0  0  0  0  0
  187.7830  175.8990  140.8890 C   0  0  0  0  0  0  0  0  0  0  0  0
  192.2940  175.3700  142.2120 C   0  0  0  0  0  3  0  0  0  0  0  0
  193.4970  173.3470  141.8100 N   0  0  0  0  0  0  0  0  0  0  0  0
  192.6110  172.6420  142.5640 C   0  0  0  0  0  3  0  0  0  0  0  0
  191.5330  173.2920  143.1670 C   0  0  0  0  0  3  0  0  0  0  0  0
  191.3640  174.6720  142.9950 C   0  0  0  0  0  0  0  0  0  0  0  0
  193.3610  174.6870  141.6240 C   0  0  0  0  0  3  0  0  0  0  0  0
  184.9090  178.8000  146.8450 C   0  0  0  0  0  3  0  0  0  0  0  0
  186.1240  177.3660  144.7680 C   0  0  0  0  0  0  0  0  0  0  0  0
  186.1000  178.7650  144.7360 C   0  0  0  0  0  3  0  0  0  0  0  0
  185.4940  179.4810  145.7730 C   0  0  0  0  0  3  0  0  0  0  0  0
  184.9270  177.4030  146.8800 C   0  0  0  0  0  3  0  0  0  0  0  0
  185.5330  176.6850  145.8430 C   0  0  0  0  0  3  0  0  0  0  0  0
  187.3030  175.4900  136.9230 N   0  0  0  0  0  1  0  0  0  0  0  0
  186.5570  176.5280  137.6110 C   0  0  0  0  0  2  0  0  0  0  0  0
  1  6  1  0  0  0  0
  2  4  1  0  0  0  0
  3  9  1  0  0  0  0
  5 10  1  0  0  0  0
  5 12  2  0  0  0  0
  6  2  1  0  0  0  0
  6 21  1  1  0  0  0
  7 11  1  0  0  0  0
  8  1  2  0  0  0  0
  9  7  1  0  0  0  0
  9  2  2  0  0  0  0
 10 13  1  0  0  0  0
 11  4  2  0  0  0  0
 12  8  1  0  0  0  0
 13  8  1  0  0  0  0
 13  3  2  0  0  0  0
 14 18  1  0  0  0  0
 15 16  2  0  0  0  0
 16 17  1  0  0  0  0
 18 17  2  0  0  0  0
 18  7  1  0  0  0  0
 19 15  1  0  0  0  0
 19 14  2  0  0  0  0
 20 24  1  0  0  0  0
 21 25  1  0  0  0  0
 22 21  2  0  0  0  0
 22 23  1  0  0  0  0
 23 20  2  0  0  0  0
 25 24  2  0  0  0  0
 26 27  1  0  0  0  0
 27  5  1  0  0  0  0
M  END
>  <MODEL>
6

>  <REMARK>
 VINA RESULT:      -6.8      2.213      2.472
  Name = 
  3 active torsions:
  status: ('A' for Active; 'I' for Inactive)
    1  A    between atoms: C_9  and  C_15
    2  A    between atoms: C_13  and  C_22
    3  A    between atoms: C_14  and  N_17
                            x       y       z     vdW  Elec       q    Type
                         _______ _______ _______ _____ _____    ______ ____

>  <TORSDO>
F 3

$$$$
=
 OpenBabel11052418333D

 27 31  0  0  1  0  0  0  0  0999 V2000
  189.8350  174.4210  142.7190 N   0  0  0  0  0  0  0  0  0  0  0  0
  189.4740  175.0450  145.0940 C   0  0  0  0  0  0  0  0  0  0  0  0
  187.9940  176.5400  143.8230 N   0  0  0  0  0  0  0  0  0  0  0  0
  189.6970  174.6360  146.5180 C   0  0  0  0  0  3  0  0  0  0  0  0
  187.7020  175.9540  140.5270 C   0  0  0  0  0  0  0  0  0  0  0  0
  190.4560  174.7830  143.9870 C   0  0  1  0  0  3  0  0  0  0  0  0
  187.9040  176.1640  146.3000 N   0  0  0  0  0  0  0  0  0  0  0  0
  188.8930  175.0790  142.1180 C   0  0  0  0  0  0  0  0  0  0  0  0
  188.4840  175.9190  145.0220 C   0  0  0  0  0  0  0  0  0  0  0  0
  187.4700  176.6690  141.6050 O   0  0  0  0  0  0  0  0  0  0  0  0
  188.5980  175.3590  147.2930 C   0  0  0  0  0  3  0  0  0  0  0  0
  188.5840  174.9140  140.7830 C   0  0  0  0  0  3  0  0  0  0  0  0
  188.1530  176.1490  142.5930 C   0  0  0  0  0  0  0  0  0  0  0  0
  187.0140  178.1950  147.3700 C   0  0  0  0  0  3  0  0  0  0  0  0
  184.6920  178.7370  147.2240 N   0  0  0  0  0  0  0  0  0  0  0  0
  184.4530  177.6200  146.4850 C   0  0  0  0  0  3  0  0  0  0  0  0
  185.5010  176.7540  146.1680 C   0  0  0  0  0  3  0  0  0  0  0  0
  186.8000  177.0360  146.6110 C   0  0  0  0  0  0  0  0  0  0  0  0
  185.9410  179.0390  147.6680 C   0  0  0  0  0  3  0  0  0  0  0  0
  193.4390  171.8530  144.9920 C   0  0  0  0  0  3  0  0  0  0  0  0
  191.5000  173.7700  144.3520 C   0  0  0  0  0  0  0  0  0  0  0  0
  191.3270  172.4370  143.9600 C   0  0  0  0  0  3  0  0  0  0  0  0
  192.2950  171.4800  144.2800 C   0  0  0  0  0  3  0  0  0  0  0  0
  193.6170  173.1830  145.3840 C   0  0  0  0  0  3  0  0  0  0  0  0
  192.6500  174.1420  145.0640 C   0  0  0  0  0  3  0  0  0  0  0  0
  186.3180  177.4620  139.2690 N   0  0  0  0  0  1  0  0  0  0  0  0
  187.0660  176.2200  139.2080 C   0  0  0  0  0  2  0  0  0  0  0  0
  1  6  1  0  0  0  0
  2  4  1  0  0  0  0
  3  9  1  0  0  0  0
  4 11  2  0  0  0  0
  5 12  2  0  0  0  0
  5 10  1  0  0  0  0
  6 21  1  1  0  0  0
  6  2  1  0  0  0  0
  7 18  1  0  0  0  0
  7 11  1  0  0  0  0
  8 13  1  0  0  0  0
  8  1  2  0  0  0  0
  9  2  2  0  0  0  0
  9  7  1  0  0  0  0
 10 13  1  0  0  0  0
 12  8  1  0  0  0  0
 13  3  2  0  0  0  0
 14 19  1  0  0  0  0
 15 19  2  0  0  0  0
 16 15  1  0  0  0  0
 17 16  2  0  0  0  0
 17 18  1  0  0  0  0
 18 14  2  0  0  0  0
 20 24  1  0  0  0  0
 21 25  1  0  0  0  0
 22 23  1  0  0  0  0
 22 21  2  0  0  0  0
 23 20  2  0  0  0  0
 25 24  2  0  0  0  0
 27 26  1  0  0  0  0
 27  5  1  0  0  0  0
M  END
>  <MODEL>
7

>  <REMARK>
 VINA RESULT:      -6.8      2.182      6.313
  Name = 
  3 active torsions:
  status: ('A' for Active; 'I' for Inactive)
    1  A    between atoms: C_9  and  C_15
    2  A    between atoms: C_13  and  C_22
    3  A    between atoms: C_14  and  N_17
                            x       y       z     vdW  Elec       q    Type
                         _______ _______ _______ _____ _____    ______ ____

>  <TORSDO>
F 3

$$$$
=
 OpenBabel11052418333D

 27 31  0  0  1  0  0  0  0  0999 V2000
  188.0290  175.7160  141.8780 N   0  0  0  0  0  0  0  0  0  0  0  0
  189.7950  176.7810  143.2590 C   0  0  0  0  0  0  0  0  0  0  0  0
  190.8810  174.8130  142.2650 N   0  0  0  0  0  0  0  0  0  0  0  0
  190.1870  178.0180  144.0090 C   0  0  0  0  0  3  0  0  0  0  0  0
  189.1360  173.1190  139.9460 C   0  0  0  0  0  0  0  0  0  0  0  0
  188.3860  176.2660  143.1810 C   0  0  1  0  0  3  0  0  0  0  0  0
  192.0630  176.7060  143.4070 N   0  0  0  0  0  0  0  0  0  0  0  0
  188.7000  174.8220  141.2210 C   0  0  0  0  0  0  0  0  0  0  0  0
  190.8690  176.0660  142.9690 C   0  0  0  0  0  0  0  0  0  0  0  0
  190.1770  173.2740  140.7350 O   0  0  0  0  0  0  0  0  0  0  0  0
  191.7140  177.9660  144.0460 C   0  0  0  0  0  3  0  0  0  0  0  0
  188.1650  174.0800  140.1870 C   0  0  0  0  0  3  0  0  0  0  0  0
  189.9570  174.3130  141.4990 C   0  0  0  0  0  0  0  0  0  0  0  0
  194.1530  175.8330  144.3740 C   0  0  0  0  0  3  0  0  0  0  0  0
  196.0290  175.3350  142.9840 N   0  0  0  0  0  0  0  0  0  0  0  0
  195.3420  175.7230  141.8760 C   0  0  0  0  0  3  0  0  0  0  0  0
  194.0280  176.1810  141.9920 C   0  0  0  0  0  3  0  0  0  0  0  0
  193.4180  176.2410  143.2520 C   0  0  0  0  0  0  0  0  0  0  0  0
  195.4650  175.3800  144.2200 C   0  0  0  0  0  3  0  0  0  0  0  0
  185.4730  179.1690  144.4420 C   0  0  0  0  0  3  0  0  0  0  0  0
  187.3630  177.2780  143.6050 C   0  0  0  0  0  0  0  0  0  0  0  0
  186.9350  177.3010  144.9370 C   0  0  0  0  0  3  0  0  0  0  0  0
  185.9910  178.2450  145.3550 C   0  0  0  0  0  3  0  0  0  0  0  0
  185.9000  179.1510  143.1100 C   0  0  0  0  0  3  0  0  0  0  0  0
  186.8440  178.2080  142.6910 C   0  0  0  0  0  3  0  0  0  0  0  0
  190.0510  171.0470  139.1470 N   0  0  0  0  0  1  0  0  0  0  0  0
  189.0390  172.0590  138.9070 C   0  0  0  0  0  2  0  0  0  0  0  0
  1  6  1  0  0  0  0
  2  4  1  0  0  0  0
  3  9  1  0  0  0  0
  4 11  2  0  0  0  0
  5 12  2  0  0  0  0
  5 10  1  0  0  0  0
  6  2  1  0  0  0  0
  6 21  1  6  0  0  0
  7 11  1  0  0  0  0
  8 13  1  0  0  0  0
  8  1  2  0  0  0  0
  9  2  2  0  0  0  0
  9  7  1  0  0  0  0
 10 13  1  0  0  0  0
 12  8  1  0  0  0  0
 13  3  2  0  0  0  0
 15 19  2  0  0  0  0
 16 17  2  0  0  0  0
 16 15  1  0  0  0  0
 17 18  1  0  0  0  0
 18  7  1  0  0  0  0
 18 14  2  0  0  0  0
 19 14  1  0  0  0  0
 20 23  1  0  0  0  0
 21 22  1  0  0  0  0
 22 23  2  0  0  0  0
 24 20  2  0  0  0  0
 25 24  1  0  0  0  0
 25 21  2  0  0  0  0
 27 26  1  0  0  0  0
 27  5  1  0  0  0  0
M  END
>  <MODEL>
8

>  <REMARK>
 VINA RESULT:      -6.8      1.869      2.423
  Name = 
  3 active torsions:
  status: ('A' for Active; 'I' for Inactive)
    1  A    between atoms: C_9  and  C_15
    2  A    between atoms: C_13  and  C_22
    3  A    between atoms: C_14  and  N_17
                            x       y       z     vdW  Elec       q    Type
                         _______ _______ _______ _____ _____    ______ ____

>  <TORSDO>
F 3

$$$$
=
 OpenBabel11052418333D

 27 31  0  0  1  0  0  0  0  0999 V2000
  190.3150  176.7590  144.7490 N   0  0  0  0  0  0  0  0  0  0  0  0
  188.9900  175.5960  143.0020 C   0  0  0  0  0  0  0  0  0  0  0  0
  191.3340  175.1970  142.3780 N   0  0  0  0  0  0  0  0  0  0  0  0
  187.6310  175.0930  142.6230 C   0  0  0  0  0  3  0  0  0  0  0  0
  193.6820  176.1870  144.5700 C   0  0  0  0  0  0  0  0  0  0  0  0
  189.2250  176.8560  143.7840 C   0  0  1  0  0  3  0  0  0  0  0  0
  189.3520  173.9860  141.4360 N   0  0  0  0  0  0  0  0  0  0  0  0
  191.5180  176.3470  144.4980 C   0  0  0  0  0  0  0  0  0  0  0  0
  189.9180  174.9720  142.2950 C   0  0  0  0  0  0  0  0  0  0  0  0
  193.3090  175.7040  143.4060 O   0  0  0  0  0  0  0  0  0  0  0  0
  187.9090  173.9810  141.6140 C   0  0  0  0  0  3  0  0  0  0  0  0
  192.5940  176.5980  145.3260 C   0  0  0  0  0  3  0  0  0  0  0  0
  192.0030  175.7600  143.3420 C   0  0  0  0  0  0  0  0  0  0  0  0
  190.5740  171.8910  141.0090 C   0  0  0  0  0  3  0  0  0  0  0  0
  191.3890  171.3740  138.8250 N   0  0  0  0  0  0  0  0  0  0  0  0
  190.8890  172.5400  138.3360 C   0  0  0  0  0  3  0  0  0  0  0  0
  190.2120  173.4210  139.1810 C   0  0  0  0  0  3  0  0  0  0  0  0
  190.0470  173.1010  140.5360 C   0  0  0  0  0  0  0  0  0  0  0  0
  191.2450  171.0350  140.1340 C   0  0  0  0  0  3  0  0  0  0  0  0
  185.7030  178.3270  145.7660 C   0  0  0  0  0  3  0  0  0  0  0  0
  187.9890  177.3700  144.4600 C   0  0  0  0  0  0  0  0  0  0  0  0
  187.6830  176.9310  145.7540 C   0  0  0  0  0  3  0  0  0  0  0  0
  186.5420  177.4080  146.4050 C   0  0  0  0  0  3  0  0  0  0  0  0
  186.0060  178.7700  144.4750 C   0  0  0  0  0  3  0  0  0  0  0  0
  187.1480  178.2940  143.8220 C   0  0  0  0  0  3  0  0  0  0  0  0
  195.9650  176.4680  143.8770 N   0  0  0  0  0  1  0  0  0  0  0  0
  195.0990  176.2490  145.0210 C   0  0  0  0  0  2  0  0  0  0  0  0
  2  6  1  0  0  0  0
  3 13  2  0  0  0  0
  4  2  1  0  0  0  0
  5 27  1  0  0  0  0
  5 12  2  0  0  0  0
  6 21  1  1  0  0  0
  6  1  1  0  0  0  0
  7 11  1  0  0  0  0
  7  9  1  0  0  0  0
  8  1  2  0  0  0  0
  8 12  1  0  0  0  0
  9  3  1  0  0  0  0
  9  2  2  0  0  0  0
 10  5  1  0  0  0  0
 11  4  2  0  0  0  0
 13 10  1  0  0  0  0
 13  8  1  0  0  0  0
 15 19  1  0  0  0  0
 16 15  2  0  0  0  0
 16 17  1  0  0  0  0
 17 18  2  0  0  0  0
 18 14  1  0  0  0  0
 18  7  1  0  0  0  0
 19 14  2  0  0  0  0
 20 23  1  0  0  0  0
 21 22  1  0  0  0  0
 22 23  2  0  0  0  0
 24 20  2  0  0  0  0
 25 21  2  0  0  0  0
 25 24  1  0  0  0  0
 26 27  1  0  0  0  0
M  END
>  <MODEL>
9

>  <REMARK>
 VINA RESULT:      -6.8      2.015      5.412
  Name = 
  3 active torsions:
  status: ('A' for Active; 'I' for Inactive)
    1  A    between atoms: C_9  and  C_15
    2  A    between atoms: C_13  and  C_22
    3  A    between atoms: C_14  and  N_17
                            x       y       z     vdW  Elec       q    Type
                         _______ _______ _______ _____ _____    ______ ____

>  <TORSDO>
F 3

$$$$
