=
 OpenBabel11052418213D

 27 28  0  0  1  0  0  0  0  0999 V2000
  189.6370  176.9400  144.5550 C   0  0  2  0  0  3  0  0  0  0  0  0
  191.7970  176.4630  145.7290 C   0  0  0  0  0  0  0  0  0  0  0  0
  191.2920  176.9050  146.7980 O   0  0  0  0  0  0  0  0  0  0  0  0
  191.0350  176.4940  144.5100 N   0  0  0  0  0  0  0  0  0  0  0  0
  194.0950  176.7530  146.6160 C   0  0  0  0  0  1  0  0  0  0  0  0
  193.1760  174.4730  146.2630 C   0  0  0  0  0  1  0  0  0  0  0  0
  193.1870  175.9000  145.7520 C   0  0  0  0  0  3  0  0  0  0  0  0
  191.6150  176.0170  143.2540 C   0  0  0  0  0  2  0  0  0  0  0  0
  192.4440  176.9950  142.7050 O   0  0  0  0  0  1  0  0  0  0  0  0
  188.6470  175.8070  144.8890 C   0  0  1  0  0  3  0  0  0  0  0  0
  189.2930  174.4370  144.7410 C   0  0  0  0  0  1  0  0  0  0  0  0
  188.5300  175.2490  147.1900 O   0  0  0  0  0  0  0  0  0  0  0  0
  188.0470  175.9500  146.2610 C   0  0  0  0  0  0  0  0  0  0  0  0
  184.7860  178.6140  147.0940 C   0  0  0  0  0  3  0  0  0  0  0  0
  186.9270  176.8760  146.5550 C   0  0  0  0  0  0  0  0  0  0  0  0
  185.6340  176.5790  146.0960 C   0  0  0  0  0  3  0  0  0  0  0  0
  184.5690  177.4430  146.3640 C   0  0  0  0  0  3  0  0  0  0  0  0
  186.0680  178.9220  147.5550 C   0  0  0  0  0  3  0  0  0  0  0  0
  187.1330  178.0570  147.2870 C   0  0  0  0  0  3  0  0  0  0  0  0
  189.2530  177.7780  143.3250 C   0  0  0  0  0  2  0  0  0  0  0  0
  185.7170  179.1310  143.4390 C   0  0  0  0  0  3  0  0  0  0  0  0
  185.0150  178.1450  142.7380 C   0  0  0  0  0  0  0  0  0  0  0  0
  187.0710  176.9100  142.4160 C   0  0  0  0  0  3  0  0  0  0  0  0
  187.0970  179.0080  143.6250 C   0  0  0  0  0  3  0  0  0  0  0  0
  183.5480  178.2770  142.5400 C   0  0  0  0  0  1  0  0  0  0  0  0
  185.6910  177.0330  142.2300 C   0  0  0  0  0  3  0  0  0  0  0  0
  187.7790  177.9010  143.1060 C   0  0  0  0  0  0  0  0  0  0  0  0
  1 20  1  6  0  0  0
  1 10  1  0  0  0  0
  2  7  1  0  0  0  0
  2  3  2  0  0  0  0
  4  1  1  0  0  0  0
  4  2  1  0  0  0  0
  7  6  1  0  0  0  0
  7  5  1  0  0  0  0
  8  4  1  0  0  0  0
  9  8  1  0  0  0  0
 10 11  1  1  0  0  0
 10 13  1  0  0  0  0
 13 15  1  0  0  0  0
 13 12  2  0  0  0  0
 14 18  1  0  0  0  0
 15 19  1  0  0  0  0
 16 17  1  0  0  0  0
 16 15  2  0  0  0  0
 17 14  2  0  0  0  0
 19 18  2  0  0  0  0
 21 24  1  0  0  0  0
 22 21  2  0  0  0  0
 23 27  1  0  0  0  0
 25 22  1  0  0  0  0
 26 23  2  0  0  0  0
 26 22  1  0  0  0  0
 27 20  1  0  0  0  0
 27 24  2  0  0  0  0
M  END
>  <MODEL>
1

>  <REMARK>
 VINA RESULT:      -6.9      0.000      0.000
  Name = 
  8 active torsions:
  status: ('A' for Active; 'I' for Inactive)
    1  A    between atoms: C_2  and  C_15
    2  A    between atoms: C_2  and  C_19
    3  A    between atoms: C_3  and  C_19
    4  A    between atoms: C_3  and  C_26
    5  A    between atoms: C_8  and  C_16
    6  A    between atoms: C_9  and  C_15
    7  A    between atoms: N_14  and  C_17
    8  A    between atoms: N_14  and  C_19
                            x       y       z     vdW  Elec       q    Type
                         _______ _______ _______ _____ _____    ______ ____

>  <TORSDO>
F 8

$$$$
=
 OpenBabel11052418213D

 27 28  0  0  1  0  0  0  0  0999 V2000
  189.7280  175.6230  144.7310 C   0  0  2  0  0  3  0  0  0  0  0  0
  192.1770  176.0460  145.0370 C   0  0  0  0  0  0  0  0  0  0  0  0
  191.9490  177.2860  144.9920 O   0  0  0  0  0  0  0  0  0  0  0  0
  191.0980  175.1120  144.8560 N   0  0  0  0  0  0  0  0  0  0  0  0
  194.4710  175.8740  144.1080 C   0  0  0  0  0  1  0  0  0  0  0  0
  194.1370  176.2010  146.5480 C   0  0  0  0  0  1  0  0  0  0  0  0
  193.5750  175.5650  145.2920 C   0  0  0  0  0  3  0  0  0  0  0  0
  191.3480  173.6700  144.8720 C   0  0  0  0  0  2  0  0  0  0  0  0
  191.8920  173.2620  143.6540 O   0  0  0  0  0  1  0  0  0  0  0  0
  188.9400  175.5840  146.0540 C   0  0  1  0  0  3  0  0  0  0  0  0
  189.7460  174.9280  147.1670 C   0  0  0  0  0  1  0  0  0  0  0  0
  189.2820  177.6670  147.1340 O   0  0  0  0  0  0  0  0  0  0  0  0
  188.4730  176.9460  146.4890 C   0  0  0  0  0  0  0  0  0  0  0  0
  184.5630  178.4760  145.5960 C   0  0  0  0  0  3  0  0  0  0  0  0
  187.1180  177.4650  146.1860 C   0  0  0  0  0  0  0  0  0  0  0  0
  186.9710  178.6110  145.3880 C   0  0  0  0  0  3  0  0  0  0  0  0
  185.7000  179.1140  145.0940 C   0  0  0  0  0  3  0  0  0  0  0  0
  184.6970  177.3350  146.3920 C   0  0  0  0  0  3  0  0  0  0  0  0
  185.9680  176.8330  146.6850 C   0  0  0  0  0  3  0  0  0  0  0  0
  188.9860  175.0120  143.5310 C   0  0  0  0  0  2  0  0  0  0  0  0
  187.5610  177.8720  141.4980 C   0  0  0  0  0  3  0  0  0  0  0  0
  186.1870  177.6980  141.6900 C   0  0  0  0  0  0  0  0  0  0  0  0
  186.6260  175.7710  143.0880 C   0  0  0  0  0  3  0  0  0  0  0  0
  188.4680  176.9930  142.0960 C   0  0  0  0  0  3  0  0  0  0  0  0
  185.2230  178.6320  141.0520 C   0  0  0  0  0  1  0  0  0  0  0  0
  185.7200  176.6500  142.4880 C   0  0  0  0  0  3  0  0  0  0  0  0
  188.0030  175.9350  142.8870 C   0  0  0  0  0  0  0  0  0  0  0  0
  1 20  1  6  0  0  0
  1  4  1  0  0  0  0
  1 10  1  0  0  0  0
  2  7  1  0  0  0  0
  3  2  2  0  0  0  0
  4  8  1  0  0  0  0
  4  2  1  0  0  0  0
  5  7  1  0  0  0  0
  7  6  1  0  0  0  0
  9  8  1  0  0  0  0
 10 13  1  0  0  0  0
 10 11  1  1  0  0  0
 13 12  2  0  0  0  0
 14 18  1  0  0  0  0
 15 13  1  0  0  0  0
 15 19  1  0  0  0  0
 16 15  2  0  0  0  0
 17 16  1  0  0  0  0
 17 14  2  0  0  0  0
 18 19  2  0  0  0  0
 21 22  2  0  0  0  0
 21 24  1  0  0  0  0
 22 26  1  0  0  0  0
 24 27  2  0  0  0  0
 25 22  1  0  0  0  0
 26 23  2  0  0  0  0
 27 23  1  0  0  0  0
 27 20  1  0  0  0  0
M  END
>  <MODEL>
2

>  <REMARK>
 VINA RESULT:      -6.7      1.583      2.122
  Name = 
  8 active torsions:
  status: ('A' for Active; 'I' for Inactive)
    1  A    between atoms: C_2  and  C_15
    2  A    between atoms: C_2  and  C_19
    3  A    between atoms: C_3  and  C_19
    4  A    between atoms: C_3  and  C_26
    5  A    between atoms: C_8  and  C_16
    6  A    between atoms: C_9  and  C_15
    7  A    between atoms: N_14  and  C_17
    8  A    between atoms: N_14  and  C_19
                            x       y       z     vdW  Elec       q    Type
                         _______ _______ _______ _____ _____    ______ ____

>  <TORSDO>
F 8

$$$$
=
 OpenBabel11052418213D

 27 28  0  0  1  0  0  0  0  0999 V2000
  190.3940  176.0830  144.9410 C   0  0  2  0  0  3  0  0  0  0  0  0
  192.8560  175.9380  145.3780 C   0  0  0  0  0  0  0  0  0  0  0  0
  193.0330  175.6240  144.1690 O   0  0  0  0  0  0  0  0  0  0  0  0
  191.5220  176.1390  145.8790 N   0  0  0  0  0  0  0  0  0  0  0  0
  195.0790  175.0320  146.0020 C   0  0  0  0  0  1  0  0  0  0  0  0
  194.6640  177.4800  146.0880 C   0  0  0  0  0  1  0  0  0  0  0  0
  194.0460  176.1080  146.2750 C   0  0  0  0  0  3  0  0  0  0  0  0
  191.2940  176.4710  147.2850 C   0  0  0  0  0  2  0  0  0  0  0  0
  191.2550  175.3080  148.0540 O   0  0  0  0  0  1  0  0  0  0  0  0
  189.6480  177.4240  144.8050 C   0  0  1  0  0  3  0  0  0  0  0  0
  190.4810  178.4550  144.0580 C   0  0  0  0  0  1  0  0  0  0  0  0
  188.2730  176.8590  142.9580 O   0  0  0  0  0  0  0  0  0  0  0  0
  188.3030  177.2730  144.1480 C   0  0  0  0  0  0  0  0  0  0  0  0
  184.6200  178.1420  146.1760 C   0  0  0  0  0  3  0  0  0  0  0  0
  187.0310  177.5840  144.8430 C   0  0  0  0  0  0  0  0  0  0  0  0
  186.5310  176.7010  145.8140 C   0  0  0  0  0  3  0  0  0  0  0  0
  185.3320  176.9790  146.4770 C   0  0  0  0  0  3  0  0  0  0  0  0
  185.1070  179.0280  145.2110 C   0  0  0  0  0  3  0  0  0  0  0  0
  186.3060  178.7500  144.5490 C   0  0  0  0  0  3  0  0  0  0  0  0
  189.4830  174.8720  145.1980 C   0  0  0  0  0  2  0  0  0  0  0  0
  191.0740  171.6940  143.8890 C   0  0  0  0  0  3  0  0  0  0  0  0
  190.3640  171.4910  142.7020 C   0  0  0  0  0  0  0  0  0  0  0  0
  189.0740  173.4940  143.1310 C   0  0  0  0  0  3  0  0  0  0  0  0
  190.7810  172.7940  144.7000 C   0  0  0  0  0  3  0  0  0  0  0  0
  190.6740  170.3200  141.8410 C   0  0  0  0  0  1  0  0  0  0  0  0
  189.3660  172.3930  142.3220 C   0  0  0  0  0  3  0  0  0  0  0  0
  189.7750  173.6930  144.3270 C   0  0  0  0  0  0  0  0  0  0  0  0
  1 20  1  1  0  0  0
  1  4  1  0  0  0  0
  2  4  1  0  0  0  0
  2  7  1  0  0  0  0
  3  2  2  0  0  0  0
  4  8  1  0  0  0  0
  5  7  1  0  0  0  0
  6  7  1  0  0  0  0
  8  9  1  0  0  0  0
 10 11  1  6  0  0  0
 10  1  1  0  0  0  0
 12 13  2  0  0  0  0
 13 10  1  0  0  0  0
 13 15  1  0  0  0  0
 14 17  1  0  0  0  0
 15 16  1  0  0  0  0
 16 17  2  0  0  0  0
 18 14  2  0  0  0  0
 19 15  2  0  0  0  0
 19 18  1  0  0  0  0
 21 24  1  0  0  0  0
 22 21  2  0  0  0  0
 23 27  1  0  0  0  0
 25 22  1  0  0  0  0
 26 22  1  0  0  0  0
 26 23  2  0  0  0  0
 27 24  2  0  0  0  0
 27 20  1  0  0  0  0
M  END
>  <MODEL>
3

>  <REMARK>
 VINA RESULT:      -6.4      2.156      4.571
  Name = 
  8 active torsions:
  status: ('A' for Active; 'I' for Inactive)
    1  A    between atoms: C_2  and  C_15
    2  A    between atoms: C_2  and  C_19
    3  A    between atoms: C_3  and  C_19
    4  A    between atoms: C_3  and  C_26
    5  A    between atoms: C_8  and  C_16
    6  A    between atoms: C_9  and  C_15
    7  A    between atoms: N_14  and  C_17
    8  A    between atoms: N_14  and  C_19
                            x       y       z     vdW  Elec       q    Type
                         _______ _______ _______ _____ _____    ______ ____

>  <TORSDO>
F 8

$$$$
=
 OpenBabel11052418213D

 27 28  0  0  1  0  0  0  0  0999 V2000
  190.0650  175.7350  145.2280 C   0  0  2  0  0  3  0  0  0  0  0  0
  188.9630  175.3820  143.0070 C   0  0  0  0  0  0  0  0  0  0  0  0
  188.7260  174.1870  143.3350 O   0  0  0  0  0  0  0  0  0  0  0  0
  189.6990  176.2380  143.8980 N   0  0  0  0  0  0  0  0  0  0  0  0
  188.5010  174.8010  140.6400 C   0  0  0  0  0  1  0  0  0  0  0  0
  187.0510  176.4310  141.8270 C   0  0  0  0  0  1  0  0  0  0  0  0
  188.4630  175.8950  141.6890 C   0  0  0  0  0  3  0  0  0  0  0  0
  190.0130  177.6170  143.5210 C   0  0  0  0  0  2  0  0  0  0  0  0
  191.1890  177.6550  142.7720 O   0  0  0  0  0  1  0  0  0  0  0  0
  188.8620  175.6010  146.1810 C   0  0  1  0  0  3  0  0  0  0  0  0
  189.2070  174.7660  147.4060 C   0  0  0  0  0  1  0  0  0  0  0  0
  189.0290  177.6630  147.3390 O   0  0  0  0  0  0  0  0  0  0  0  0
  188.3090  176.9350  146.6040 C   0  0  0  0  0  0  0  0  0  0  0  0
  184.4460  178.3520  145.3780 C   0  0  0  0  0  3  0  0  0  0  0  0
  186.9700  177.4180  146.1890 C   0  0  0  0  0  0  0  0  0  0  0  0
  186.8420  178.2310  145.0520 C   0  0  0  0  0  3  0  0  0  0  0  0
  185.5860  178.6960  144.6480 C   0  0  0  0  0  3  0  0  0  0  0  0
  184.5610  177.5430  146.5120 C   0  0  0  0  0  3  0  0  0  0  0  0
  185.8160  177.0790  146.9150 C   0  0  0  0  0  3  0  0  0  0  0  0
  191.2670  176.4850  145.8240 C   0  0  0  0  0  2  0  0  0  0  0  0
  193.6950  173.5960  145.5020 C   0  0  0  0  0  3  0  0  0  0  0  0
  194.9160  174.2210  145.7730 C   0  0  0  0  0  0  0  0  0  0  0  0
  193.7670  176.3290  146.0820 C   0  0  0  0  0  3  0  0  0  0  0  0
  192.5110  174.3370  145.5160 C   0  0  0  0  0  3  0  0  0  0  0  0
  196.1750  173.4330  145.7560 C   0  0  0  0  0  1  0  0  0  0  0  0
  194.9510  175.5870  146.0670 C   0  0  0  0  0  3  0  0  0  0  0  0
  192.5440  175.7080  145.7990 C   0  0  0  0  0  0  0  0  0  0  0  0
  1 20  1  1  0  0  0
  1 10  1  0  0  0  0
  2  3  2  0  0  0  0
  2  4  1  0  0  0  0
  4  1  1  0  0  0  0
  5  7  1  0  0  0  0
  7  6  1  0  0  0  0
  7  2  1  0  0  0  0
  8  4  1  0  0  0  0
  9  8  1  0  0  0  0
 10 13  1  0  0  0  0
 10 11  1  1  0  0  0
 13 12  2  0  0  0  0
 14 18  1  0  0  0  0
 15 13  1  0  0  0  0
 15 19  1  0  0  0  0
 16 15  2  0  0  0  0
 17 16  1  0  0  0  0
 17 14  2  0  0  0  0
 18 19  2  0  0  0  0
 21 24  2  0  0  0  0
 21 22  1  0  0  0  0
 22 26  2  0  0  0  0
 24 27  1  0  0  0  0
 25 22  1  0  0  0  0
 26 23  1  0  0  0  0
 27 20  1  0  0  0  0
 27 23  2  0  0  0  0
M  END
>  <MODEL>
4

>  <REMARK>
 VINA RESULT:      -6.3      1.723      5.902
  Name = 
  8 active torsions:
  status: ('A' for Active; 'I' for Inactive)
    1  A    between atoms: C_2  and  C_15
    2  A    between atoms: C_2  and  C_19
    3  A    between atoms: C_3  and  C_19
    4  A    between atoms: C_3  and  C_26
    5  A    between atoms: C_8  and  C_16
    6  A    between atoms: C_9  and  C_15
    7  A    between atoms: N_14  and  C_17
    8  A    between atoms: N_14  and  C_19
                            x       y       z     vdW  Elec       q    Type
                         _______ _______ _______ _____ _____    ______ ____

>  <TORSDO>
F 8

$$$$
=
 OpenBabel11052418213D

 27 28  0  0  1  0  0  0  0  0999 V2000
  189.5240  176.3670  145.2580 C   0  0  2  0  0  3  0  0  0  0  0  0
  191.0080  174.5240  144.4370 C   0  0  0  0  0  0  0  0  0  0  0  0
  190.0370  174.0620  143.7750 O   0  0  0  0  0  0  0  0  0  0  0  0
  190.8200  175.6780  145.2740 N   0  0  0  0  0  0  0  0  0  0  0  0
  192.2240  172.3630  144.5040 C   0  0  0  0  0  1  0  0  0  0  0  0
  192.9930  174.1780  142.9920 C   0  0  0  0  0  1  0  0  0  0  0  0
  192.3500  173.8640  144.3290 C   0  0  0  0  0  3  0  0  0  0  0  0
  191.9240  176.2090  146.0740 C   0  0  0  0  0  2  0  0  0  0  0  0
  192.0320  175.5040  147.2730 O   0  0  0  0  0  1  0  0  0  0  0  0
  189.4790  177.5580  144.2820 C   0  0  1  0  0  3  0  0  0  0  0  0
  190.8690  177.9250  143.7820 C   0  0  0  0  0  1  0  0  0  0  0  0
  189.0060  176.6610  142.1390 O   0  0  0  0  0  0  0  0  0  0  0  0
  188.5580  177.3180  143.1170 C   0  0  0  0  0  0  0  0  0  0  0  0
  184.5230  178.7800  143.0340 C   0  0  0  0  0  3  0  0  0  0  0  0
  187.1620  177.8140  143.0820 C   0  0  0  0  0  0  0  0  0  0  0  0
  186.8510  179.0680  143.6320 C   0  0  0  0  0  3  0  0  0  0  0  0
  185.5390  179.5490  143.6080 C   0  0  0  0  0  3  0  0  0  0  0  0
  184.8200  177.5300  142.4840 C   0  0  0  0  0  3  0  0  0  0  0  0
  186.1320  177.0510  142.5080 C   0  0  0  0  0  3  0  0  0  0  0  0
  189.0150  176.6840  146.6730 C   0  0  0  0  0  2  0  0  0  0  0  0
  185.2620  176.8510  146.1870 C   0  0  0  0  0  3  0  0  0  0  0  0
  184.9580  178.0890  146.7620 C   0  0  0  0  0  0  0  0  0  0  0  0
  187.2980  178.4230  147.2820 C   0  0  0  0  0  3  0  0  0  0  0  0
  186.5840  176.3970  146.1630 C   0  0  0  0  0  3  0  0  0  0  0  0
  183.5520  178.5700  146.7880 C   0  0  0  0  0  1  0  0  0  0  0  0
  185.9760  178.8760  147.3060 C   0  0  0  0  0  3  0  0  0  0  0  0
  187.6040  177.1780  146.7180 C   0  0  0  0  0  0  0  0  0  0  0  0
  1  4  1  0  0  0  0
  1 20  1  1  0  0  0
  2  4  1  0  0  0  0
  3  2  2  0  0  0  0
  4  8  1  0  0  0  0
  6  7  1  0  0  0  0
  7  2  1  0  0  0  0
  7  5  1  0  0  0  0
  8  9  1  0  0  0  0
 10 11  1  6  0  0  0
 10  1  1  0  0  0  0
 12 13  2  0  0  0  0
 13 10  1  0  0  0  0
 14 17  1  0  0  0  0
 15 13  1  0  0  0  0
 15 16  1  0  0  0  0
 17 16  2  0  0  0  0
 18 19  1  0  0  0  0
 18 14  2  0  0  0  0
 19 15  2  0  0  0  0
 20 27  1  0  0  0  0
 21 22  1  0  0  0  0
 22 25  1  0  0  0  0
 22 26  2  0  0  0  0
 23 26  1  0  0  0  0
 24 21  2  0  0  0  0
 24 27  1  0  0  0  0
 27 23  2  0  0  0  0
M  END
>  <MODEL>
5

>  <REMARK>
 VINA RESULT:      -6.3      1.560      3.921
  Name = 
  8 active torsions:
  status: ('A' for Active; 'I' for Inactive)
    1  A    between atoms: C_2  and  C_15
    2  A    between atoms: C_2  and  C_19
    3  A    between atoms: C_3  and  C_19
    4  A    between atoms: C_3  and  C_26
    5  A    between atoms: C_8  and  C_16
    6  A    between atoms: C_9  and  C_15
    7  A    between atoms: N_14  and  C_17
    8  A    between atoms: N_14  and  C_19
                            x       y       z     vdW  Elec       q    Type
                         _______ _______ _______ _____ _____    ______ ____

>  <TORSDO>
F 8

$$$$
=
 OpenBabel11052418213D

 27 28  0  0  1  0  0  0  0  0999 V2000
  189.9480  176.8450  145.4970 C   0  0  2  0  0  3  0  0  0  0  0  0
  192.3690  176.2080  145.4100 C   0  0  0  0  0  0  0  0  0  0  0  0
  192.2540  176.0120  144.1690 O   0  0  0  0  0  0  0  0  0  0  0  0
  191.2190  176.5860  146.1870 N   0  0  0  0  0  0  0  0  0  0  0  0
  194.4040  174.7980  145.5610 C   0  0  0  0  0  1  0  0  0  0  0  0
  194.5810  177.2660  145.7780 C   0  0  0  0  0  1  0  0  0  0  0  0
  193.7140  176.0540  146.0560 C   0  0  0  0  0  3  0  0  0  0  0  0
  191.3250  176.7860  147.6320 C   0  0  0  0  0  2  0  0  0  0  0  0
  191.3020  175.5560  148.2910 O   0  0  0  0  0  1  0  0  0  0  0  0
  188.9610  175.6660  145.5770 C   0  0  1  0  0  3  0  0  0  0  0  0
  189.6870  174.3290  145.6190 C   0  0  0  0  0  1  0  0  0  0  0  0
  188.1800  174.9830  147.7090 O   0  0  0  0  0  0  0  0  0  0  0  0
  188.0190  175.7790  146.7450 C   0  0  0  0  0  0  0  0  0  0  0  0
  184.8460  178.6670  146.8900 C   0  0  0  0  0  3  0  0  0  0  0  0
  186.9290  176.7820  146.8030 C   0  0  0  0  0  0  0  0  0  0  0  0
  185.7720  176.6030  146.0290 C   0  0  0  0  0  3  0  0  0  0  0  0
  184.7360  177.5400  146.0720 C   0  0  0  0  0  3  0  0  0  0  0  0
  185.9940  178.8560  147.6650 C   0  0  0  0  0  3  0  0  0  0  0  0
  187.0280  177.9190  147.6220 C   0  0  0  0  0  3  0  0  0  0  0  0
  190.1580  177.4040  144.0810 C   0  0  0  0  0  2  0  0  0  0  0  0
  186.7020  178.5250  143.0100 C   0  0  0  0  0  3  0  0  0  0  0  0
  186.5200  177.7920  141.8330 C   0  0  0  0  0  0  0  0  0  0  0  0
  188.7090  176.7980  142.1130 C   0  0  0  0  0  3  0  0  0  0  0  0
  187.8900  178.3980  143.7360 C   0  0  0  0  0  3  0  0  0  0  0  0
  185.2590  177.9300  141.0600 C   0  0  0  0  0  1  0  0  0  0  0  0
  187.5220  176.9270  141.3870 C   0  0  0  0  0  3  0  0  0  0  0  0
  188.9000  177.5400  143.2860 C   0  0  0  0  0  0  0  0  0  0  0  0
  1 20  1  6  0  0  0
  1 10  1  0  0  0  0
  1  4  1  0  0  0  0
  2  7  1  0  0  0  0
  2  4  1  0  0  0  0
  3  2  2  0  0  0  0
  4  8  1  0  0  0  0
  5  7  1  0  0  0  0
  6  7  1  0  0  0  0
  8  9  1  0  0  0  0
 10 11  1  1  0  0  0
 10 13  1  0  0  0  0
 13 15  1  0  0  0  0
 13 12  2  0  0  0  0
 14 18  1  0  0  0  0
 15 19  1  0  0  0  0
 16 17  1  0  0  0  0
 16 15  2  0  0  0  0
 17 14  2  0  0  0  0
 19 18  2  0  0  0  0
 21 24  1  0  0  0  0
 22 21  2  0  0  0  0
 23 27  1  0  0  0  0
 25 22  1  0  0  0  0
 26 22  1  0  0  0  0
 26 23  2  0  0  0  0
 27 24  2  0  0  0  0
 27 20  1  0  0  0  0
M  END
>  <MODEL>
6

>  <REMARK>
 VINA RESULT:      -6.2      1.156      1.984
  Name = 
  8 active torsions:
  status: ('A' for Active; 'I' for Inactive)
    1  A    between atoms: C_2  and  C_15
    2  A    between atoms: C_2  and  C_19
    3  A    between atoms: C_3  and  C_19
    4  A    between atoms: C_3  and  C_26
    5  A    between atoms: C_8  and  C_16
    6  A    between atoms: C_9  and  C_15
    7  A    between atoms: N_14  and  C_17
    8  A    between atoms: N_14  and  C_19
                            x       y       z     vdW  Elec       q    Type
                         _______ _______ _______ _____ _____    ______ ____

>  <TORSDO>
F 8

$$$$
=
 OpenBabel11052418213D

 27 28  0  0  1  0  0  0  0  0999 V2000
  189.9670  175.9630  144.2620 C   0  0  2  0  0  3  0  0  0  0  0  0
  192.2600  175.3290  145.0440 C   0  0  0  0  0  0  0  0  0  0  0  0
  192.7200  175.6860  143.9240 O   0  0  0  0  0  0  0  0  0  0  0  0
  190.8440  175.3850  145.2880 N   0  0  0  0  0  0  0  0  0  0  0  0
  194.0070  173.6680  145.6280 C   0  0  0  0  0  1  0  0  0  0  0  0
  194.1400  175.9810  146.5240 C   0  0  0  0  0  1  0  0  0  0  0  0
  193.2050  174.8610  146.1100 C   0  0  0  0  0  3  0  0  0  0  0  0
  190.2880  174.9440  146.5680 C   0  0  0  0  0  2  0  0  0  0  0  0
  190.3040  175.9940  147.4860 O   0  0  0  0  0  1  0  0  0  0  0  0
  189.5940  177.4320  144.5380 C   0  0  1  0  0  3  0  0  0  0  0  0
  190.5860  178.3920  143.8980 C   0  0  0  0  0  1  0  0  0  0  0  0
  187.9870  177.9110  142.8610 O   0  0  0  0  0  0  0  0  0  0  0  0
  188.1940  177.7650  144.0960 C   0  0  0  0  0  0  0  0  0  0  0  0
  184.9440  178.1890  146.8660 C   0  0  0  0  0  3  0  0  0  0  0  0
  187.0680  177.9200  145.0460 C   0  0  0  0  0  0  0  0  0  0  0  0
  187.0460  177.1710  146.2330 C   0  0  0  0  0  3  0  0  0  0  0  0
  185.9900  177.3050  147.1390 C   0  0  0  0  0  3  0  0  0  0  0  0
  184.9540  178.9400  145.6880 C   0  0  0  0  0  3  0  0  0  0  0  0
  186.0100  178.8060  144.7830 C   0  0  0  0  0  3  0  0  0  0  0  0
  188.7710  175.0530  143.9380 C   0  0  0  0  0  2  0  0  0  0  0  0
  188.5610  174.0310  140.2970 C   0  0  0  0  0  3  0  0  0  0  0  0
  189.1890  172.7820  140.3180 C   0  0  0  0  0  0  0  0  0  0  0  0
  189.5490  173.0020  142.7010 C   0  0  0  0  0  3  0  0  0  0  0  0
  188.4300  174.7670  141.4780 C   0  0  0  0  0  3  0  0  0  0  0  0
  189.3300  172.0000  139.0620 C   0  0  0  0  0  1  0  0  0  0  0  0
  189.6800  172.2660  141.5200 C   0  0  0  0  0  3  0  0  0  0  0  0
  188.9310  174.2590  142.6820 C   0  0  0  0  0  0  0  0  0  0  0  0
  1 20  1  1  0  0  0
  1 10  1  0  0  0  0
  1  4  1  0  0  0  0
  2  4  1  0  0  0  0
  2  7  1  0  0  0  0
  3  2  2  0  0  0  0
  4  8  1  0  0  0  0
  5  7  1  0  0  0  0
  7  6  1  0  0  0  0
  8  9  1  0  0  0  0
 10 11  1  6  0  0  0
 12 13  2  0  0  0  0
 13 10  1  0  0  0  0
 13 15  1  0  0  0  0
 14 17  1  0  0  0  0
 15 16  1  0  0  0  0
 16 17  2  0  0  0  0
 18 14  2  0  0  0  0
 19 15  2  0  0  0  0
 19 18  1  0  0  0  0
 21 22  2  0  0  0  0
 21 24  1  0  0  0  0
 22 26  1  0  0  0  0
 24 27  2  0  0  0  0
 25 22  1  0  0  0  0
 26 23  2  0  0  0  0
 27 23  1  0  0  0  0
 27 20  1  0  0  0  0
M  END
>  <MODEL>
7

>  <REMARK>
 VINA RESULT:      -6.0      2.444      4.038
  Name = 
  8 active torsions:
  status: ('A' for Active; 'I' for Inactive)
    1  A    between atoms: C_2  and  C_15
    2  A    between atoms: C_2  and  C_19
    3  A    between atoms: C_3  and  C_19
    4  A    between atoms: C_3  and  C_26
    5  A    between atoms: C_8  and  C_16
    6  A    between atoms: C_9  and  C_15
    7  A    between atoms: N_14  and  C_17
    8  A    between atoms: N_14  and  C_19
                            x       y       z     vdW  Elec       q    Type
                         _______ _______ _______ _____ _____    ______ ____

>  <TORSDO>
F 8

$$$$
=
 OpenBabel11052418213D

 27 28  0  0  1  0  0  0  0  0999 V2000
  190.2150  176.4110  144.6810 C   0  0  2  0  0  3  0  0  0  0  0  0
  191.6610  174.4620  144.0610 C   0  0  0  0  0  0  0  0  0  0  0  0
  190.6690  173.9330  143.4890 O   0  0  0  0  0  0  0  0  0  0  0  0
  191.5060  175.7150  144.7520 N   0  0  0  0  0  0  0  0  0  0  0  0
  193.0700  172.6670  145.0320 C   0  0  0  0  0  1  0  0  0  0  0  0
  193.2480  173.2200  142.6170 C   0  0  0  0  0  1  0  0  0  0  0  0
  192.9940  173.7780  144.0030 C   0  0  0  0  0  3  0  0  0  0  0  0
  192.6360  176.3290  145.4500 C   0  0  0  0  0  2  0  0  0  0  0  0
  193.4660  176.9840  144.5410 O   0  0  0  0  0  1  0  0  0  0  0  0
  189.1880  175.8940  145.7050 C   0  0  1  0  0  3  0  0  0  0  0  0
  189.7390  174.7260  146.5110 C   0  0  0  0  0  1  0  0  0  0  0  0
  189.5510  177.5640  147.3490 O   0  0  0  0  0  0  0  0  0  0  0  0
  188.6990  176.9750  146.6310 C   0  0  0  0  0  0  0  0  0  0  0  0
  184.5610  178.0890  146.8830 C   0  0  0  0  0  3  0  0  0  0  0  0
  187.2730  177.3700  146.7220 C   0  0  0  0  0  0  0  0  0  0  0  0
  186.2680  176.4330  146.4320 C   0  0  0  0  0  3  0  0  0  0  0  0
  184.9190  176.7910  146.5120 C   0  0  0  0  0  3  0  0  0  0  0  0
  185.5520  179.0300  147.1740 C   0  0  0  0  0  3  0  0  0  0  0  0
  186.9000  178.6720  147.0940 C   0  0  0  0  0  3  0  0  0  0  0  0
  189.6850  176.5100  143.2420 C   0  0  0  0  0  2  0  0  0  0  0  0
  186.6240  178.7410  143.2840 C   0  0  0  0  0  3  0  0  0  0  0  0
  185.6040  177.8270  143.0000 C   0  0  0  0  0  0  0  0  0  0  0  0
  187.2380  176.0450  142.8730 C   0  0  0  0  0  3  0  0  0  0  0  0
  187.9510  178.3080  143.3580 C   0  0  0  0  0  3  0  0  0  0  0  0
  184.1940  178.2880  142.9190 C   0  0  0  0  0  1  0  0  0  0  0  0
  185.9110  176.4780  142.7980 C   0  0  0  0  0  3  0  0  0  0  0  0
  188.2620  176.9600  143.1460 C   0  0  0  0  0  0  0  0  0  0  0  0
  1 20  1  6  0  0  0
  1  4  1  0  0  0  0
  1 10  1  0  0  0  0
  2  4  1  0  0  0  0
  3  2  2  0  0  0  0
  4  8  1  0  0  0  0
  6  7  1  0  0  0  0
  7  2  1  0  0  0  0
  7  5  1  0  0  0  0
  9  8  1  0  0  0  0
 10 11  1  1  0  0  0
 10 13  1  0  0  0  0
 13 15  1  0  0  0  0
 13 12  2  0  0  0  0
 14 18  1  0  0  0  0
 15 19  1  0  0  0  0
 16 17  1  0  0  0  0
 16 15  2  0  0  0  0
 17 14  2  0  0  0  0
 19 18  2  0  0  0  0
 21 24  1  0  0  0  0
 22 21  2  0  0  0  0
 23 27  1  0  0  0  0
 25 22  1  0  0  0  0
 26 23  2  0  0  0  0
 26 22  1  0  0  0  0
 27 20  1  0  0  0  0
 27 24  2  0  0  0  0
M  END
>  <MODEL>
8

>  <REMARK>
 VINA RESULT:      -5.9      1.526      1.969
  Name = 
  8 active torsions:
  status: ('A' for Active; 'I' for Inactive)
    1  A    between atoms: C_2  and  C_15
    2  A    between atoms: C_2  and  C_19
    3  A    between atoms: C_3  and  C_19
    4  A    between atoms: C_3  and  C_26
    5  A    between atoms: C_8  and  C_16
    6  A    between atoms: C_9  and  C_15
    7  A    between atoms: N_14  and  C_17
    8  A    between atoms: N_14  and  C_19
                            x       y       z     vdW  Elec       q    Type
                         _______ _______ _______ _____ _____    ______ ____

>  <TORSDO>
F 8

$$$$
=
 OpenBabel11052418213D

 27 28  0  0  1  0  0  0  0  0999 V2000
  188.9080  175.9050  144.4460 C   0  0  2  0  0  3  0  0  0  0  0  0
  187.2450  176.9010  146.0320 C   0  0  0  0  0  0  0  0  0  0  0  0
  187.7960  176.2710  146.9760 O   0  0  0  0  0  0  0  0  0  0  0  0
  187.7170  176.7300  144.6840 N   0  0  0  0  0  0  0  0  0  0  0  0
  184.8170  177.0600  146.5100 C   0  0  0  0  0  1  0  0  0  0  0  0
  186.4020  178.6430  147.5820 C   0  0  0  0  0  1  0  0  0  0  0  0
  186.1090  177.8330  146.3350 C   0  0  0  0  0  3  0  0  0  0  0  0
  187.0700  177.4270  143.5710 C   0  0  0  0  0  2  0  0  0  0  0  0
  185.9490  176.7160  143.1440 O   0  0  0  0  0  1  0  0  0  0  0  0
  190.2070  176.7260  144.3450 C   0  0  1  0  0  3  0  0  0  0  0  0
  189.9310  178.2210  144.4060 C   0  0  0  0  0  1  0  0  0  0  0  0
  191.0470  176.7910  146.5620 O   0  0  0  0  0  0  0  0  0  0  0  0
  191.2150  176.3430  145.3950 C   0  0  0  0  0  0  0  0  0  0  0  0
  194.5750  173.7920  144.6050 C   0  0  0  0  0  3  0  0  0  0  0  0
  192.3770  175.4670  145.1120 C   0  0  0  0  0  0  0  0  0  0  0  0
  192.7200  174.4480  146.0150 C   0  0  0  0  0  3  0  0  0  0  0  0
  193.8140  173.6150  145.7630 C   0  0  0  0  0  3  0  0  0  0  0  0
  194.2430  174.8030  143.6990 C   0  0  0  0  0  3  0  0  0  0  0  0
  193.1500  175.6350  143.9520 C   0  0  0  0  0  3  0  0  0  0  0  0
  188.7000  174.9000  143.3010 C   0  0  0  0  0  2  0  0  0  0  0  0
  190.8060  171.9000  144.2550 C   0  0  0  0  0  3  0  0  0  0  0  0
  191.6800  171.8110  143.1680 C   0  0  0  0  0  0  0  0  0  0  0  0
  190.6180  173.7370  142.1570 C   0  0  0  0  0  3  0  0  0  0  0  0
  189.8360  172.9060  144.2930 C   0  0  0  0  0  3  0  0  0  0  0  0
  192.7100  170.7400  143.1280 C   0  0  0  0  0  1  0  0  0  0  0  0
  191.5880  172.7310  142.1200 C   0  0  0  0  0  3  0  0  0  0  0  0
  189.7340  173.8220  143.2400 C   0  0  0  0  0  0  0  0  0  0  0  0
  1 20  1  6  0  0  0
  1  4  1  0  0  0  0
  2  7  1  0  0  0  0
  2  3  2  0  0  0  0
  4  2  1  0  0  0  0
  7  5  1  0  0  0  0
  7  6  1  0  0  0  0
  8  4  1  0  0  0  0
  9  8  1  0  0  0  0
 10 11  1  1  0  0  0
 10  1  1  0  0  0  0
 10 13  1  0  0  0  0
 13 12  2  0  0  0  0
 14 17  1  0  0  0  0
 15 13  1  0  0  0  0
 15 16  1  0  0  0  0
 17 16  2  0  0  0  0
 18 19  1  0  0  0  0
 18 14  2  0  0  0  0
 19 15  2  0  0  0  0
 21 24  1  0  0  0  0
 22 21  2  0  0  0  0
 23 27  1  0  0  0  0
 25 22  1  0  0  0  0
 26 23  2  0  0  0  0
 26 22  1  0  0  0  0
 27 20  1  0  0  0  0
 27 24  2  0  0  0  0
M  END
>  <MODEL>
9

>  <REMARK>
 VINA RESULT:      -5.9      2.258      6.876
  Name = 
  8 active torsions:
  status: ('A' for Active; 'I' for Inactive)
    1  A    between atoms: C_2  and  C_15
    2  A    between atoms: C_2  and  C_19
    3  A    between atoms: C_3  and  C_19
    4  A    between atoms: C_3  and  C_26
    5  A    between atoms: C_8  and  C_16
    6  A    between atoms: C_9  and  C_15
    7  A    between atoms: N_14  and  C_17
    8  A    between atoms: N_14  and  C_19
                            x       y       z     vdW  Elec       q    Type
                         _______ _______ _______ _____ _____    ______ ____

>  <TORSDO>
F 8

$$$$
