=
 OpenBabel11052421273D

 32 37  0  0  1  0  0  0  0  0999 V2000
  187.8500  176.2140  142.8720 C   0  0  1  0  0  3  0  0  0  0  0  0
  189.0670  173.1450  139.1910 C   0  0  0  0  0  3  0  0  0  0  0  0
  189.6320  172.2630  140.1120 C   0  0  0  0  0  3  0  0  0  0  0  0
  185.7590  177.4060  142.4100 N   0  0  0  0  0  0  0  0  0  0  0  0
  187.2740  176.7860  140.4320 C   0  0  0  0  0  2  0  0  0  0  0  0
  185.4240  178.2750  140.2630 O   0  0  0  0  0  0  0  0  0  0  0  0
  188.4900  174.3390  139.6310 C   0  0  0  0  0  3  0  0  0  0  0  0
  187.8980  175.8260  141.4120 C   0  0  0  0  0  0  0  0  0  0  0  0
  188.4670  174.6710  140.9970 C   0  0  0  0  0  0  0  0  0  0  0  0
  189.0620  174.0260  143.2280 C   0  0  0  0  0  3  0  0  0  0  0  0
  186.0930  177.5150  141.0120 C   0  0  0  0  0  0  0  0  0  0  0  0
  189.6200  172.5740  141.4730 C   0  0  0  0  0  3  0  0  0  0  0  0
  189.0450  173.7660  141.9230 C   0  0  0  0  0  0  0  0  0  0  0  0
  186.3870  176.3960  143.2560 C   0  0  0  0  0  2  0  0  0  0  0  0
  188.4920  175.2320  143.7520 N   0  0  0  0  0  0  0  0  0  0  0  0
  188.6270  175.5530  145.1730 C   0  0  2  0  0  3  0  0  0  0  0  0
  188.8550  177.0770  145.3990 C   0  0  0  0  0  2  0  0  0  0  0  0
  190.9420  175.4430  145.5790 N   0  0  1  0  0  0  0  0  0  0  0  0
  191.4530  175.8920  146.8620 C   0  0  0  0  0  2  0  0  0  0  0  0
  190.5570  177.0220  147.3640 C   0  0  0  0  0  3  0  0  0  0  0  0
  190.8110  174.0840  145.3700 O   0  0  0  0  0  0  0  0  0  0  0  0
  189.4310  177.4910  146.7570 C   0  0  0  0  0  3  0  0  0  0  0  0
  189.4490  174.3710  147.1990 O   0  0  0  0  0  1  0  0  0  0  0  0
  189.6990  174.7110  145.8580 C   0  0  2  0  0  0  0  0  0  0  0  0
  184.8880  178.3330  143.0040 N   0  0  0  0  0  2  0  0  0  0  0  0
  184.8690  180.3610  144.1730 O   0  0  0  0  0  0  0  0  0  0  0  0
  185.7070  179.3780  143.6130 C   0  0  1  0  0  3  0  0  0  0  0  0
  185.5060  179.5030  145.0880 C   0  0  2  0  0  3  0  0  0  0  0  0
  184.4720  178.5570  145.6890 C   0  0  0  0  0  2  0  0  0  0  0  0
  185.1240  177.6460  146.6710 C   0  0  0  0  0  0  0  0  0  0  0  0
  185.0880  176.4010  146.4950 O   0  0  0  0  0  0  0  0  0  0  0  0
  185.8210  178.1870  147.7880 N   0  0  0  0  0  1  0  0  0  0  0  0
  1 14  1  1  0  0  0
  1 15  1  0  0  0  0
  2  7  2  0  0  0  0
  2  3  1  0  0  0  0
  3 12  2  0  0  0  0
  4 25  1  0  0  0  0
  4 14  1  0  0  0  0
  5 11  1  0  0  0  0
  5  8  1  0  0  0  0
  6 11  2  0  0  0  0
  7  9  1  0  0  0  0
  8  1  1  0  0  0  0
  9  8  2  0  0  0  0
  9 13  1  0  0  0  0
 10 15  1  0  0  0  0
 11  4  1  0  0  0  0
 12 13  1  0  0  0  0
 13 10  2  0  0  0  0
 16 15  1  6  0  0  0
 16 17  1  0  0  0  0
 16 24  1  0  0  0  0
 17 22  1  0  0  0  0
 18 24  1  0  0  0  0
 18 19  1  1  0  0  0
 19 20  1  0  0  0  0
 21 18  1  0  0  0  0
 21 24  1  0  0  0  0
 22 20  2  0  0  0  0
 24 23  1  1  0  0  0
 26 28  1  0  0  0  0
 27 25  1  6  0  0  0
 27 26  1  0  0  0  0
 27 28  1  0  0  0  0
 28 29  1  6  0  0  0
 29 30  1  0  0  0  0
 30 32  1  0  0  0  0
 31 30  2  0  0  0  0
M  END
>  <MODEL>
1

>  <REMARK>
 VINA RESULT:      -8.2      0.000      0.000
  Name = 
  5 active torsions:
  status: ('A' for Active; 'I' for Inactive)
    1  A    between atoms: C_1  and  C_10
    2  A    between atoms: C_6  and  N_31
    3  A    between atoms: N_8  and  N_23
    4  A    between atoms: C_10  and  C_24
    5  A    between atoms: C_19  and  N_23
                            x       y       z     vdW  Elec       q    Type
                         _______ _______ _______ _____ _____    ______ ____

>  <TORSDO>
F 5

$$$$
=
 OpenBabel11052421273D

 32 37  0  0  1  0  0  0  0  0999 V2000
  189.4680  176.6770  144.8890 C   0  0  1  0  0  3  0  0  0  0  0  0
  185.4790  178.0140  147.4870 C   0  0  0  0  0  3  0  0  0  0  0  0
  184.6560  177.5720  146.4520 C   0  0  0  0  0  3  0  0  0  0  0  0
  191.2840  175.9040  146.3420 N   0  0  0  0  0  0  0  0  0  0  0  0
  189.7050  177.7260  147.2250 C   0  0  0  0  0  2  0  0  0  0  0  0
  191.7480  177.1200  148.2870 O   0  0  0  0  0  0  0  0  0  0  0  0
  186.8680  177.9110  147.3680 C   0  0  0  0  0  3  0  0  0  0  0  0
  188.8000  177.2630  146.1120 C   0  0  0  0  0  0  0  0  0  0  0  0
  187.4550  177.3650  146.2130 C   0  0  0  0  0  0  0  0  0  0  0  0
  187.1010  176.4020  144.0470 C   0  0  0  0  0  3  0  0  0  0  0  0
  190.9550  176.8960  147.3350 C   0  0  0  0  0  0  0  0  0  0  0  0
  185.2190  177.0280  145.2970 C   0  0  0  0  0  3  0  0  0  0  0  0
  186.6070  176.9200  145.1680 C   0  0  0  0  0  0  0  0  0  0  0  0
  190.3050  175.4880  145.3420 C   0  0  0  0  0  2  0  0  0  0  0  0
  188.5150  176.2670  143.8520 N   0  0  0  0  0  0  0  0  0  0  0  0
  189.0410  175.8060  142.5670 C   0  0  2  0  0  3  0  0  0  0  0  0
  188.0100  176.0090  141.4180 C   0  0  0  0  0  2  0  0  0  0  0  0
  188.3290  173.5680  142.4160 N   0  0  1  0  0  0  0  0  0  0  0  0
  188.5210  172.8520  141.1670 C   0  0  0  0  0  2  0  0  0  0  0  0
  188.4160  173.8540  140.0200 C   0  0  0  0  0  3  0  0  0  0  0  0
  189.2120  173.3240  143.4490 O   0  0  0  0  0  0  0  0  0  0  0  0
  188.2410  175.2010  140.1360 C   0  0  0  0  0  3  0  0  0  0  0  0
  190.6520  174.0670  141.8190 O   0  0  0  0  0  1  0  0  0  0  0  0
  189.5430  174.3670  142.6310 C   0  0  2  0  0  0  0  0  0  0  0  0
  192.5860  175.3860  146.2630 N   0  0  0  0  0  2  0  0  0  0  0  0
  194.3270  176.9340  146.0320 O   0  0  0  0  0  0  0  0  0  0  0  0
  193.3370  176.2220  145.3300 C   0  0  1  0  0  3  0  0  0  0  0  0
  194.7840  175.8610  145.2450 C   0  0  2  0  0  3  0  0  0  0  0  0
  195.2290  174.7250  146.1600 C   0  0  0  0  0  2  0  0  0  0  0  0
  196.5390  174.1850  145.7010 C   0  0  0  0  0  0  0  0  0  0  0  0
  197.1900  173.4000  146.4390 O   0  0  0  0  0  0  0  0  0  0  0  0
  197.0370  174.5270  144.4130 N   0  0  0  0  0  1  0  0  0  0  0  0
  1 14  1  1  0  0  0
  1  8  1  0  0  0  0
  3  2  1  0  0  0  0
  4 11  1  0  0  0  0
  5 11  1  0  0  0  0
  7  2  2  0  0  0  0
  8  9  2  0  0  0  0
  8  5  1  0  0  0  0
  9  7  1  0  0  0  0
 10 13  2  0  0  0  0
 11  6  2  0  0  0  0
 12  3  2  0  0  0  0
 13 12  1  0  0  0  0
 13  9  1  0  0  0  0
 14  4  1  0  0  0  0
 15 10  1  0  0  0  0
 15  1  1  0  0  0  0
 16 17  1  6  0  0  0
 16 24  1  0  0  0  0
 16 15  1  0  0  0  0
 18 19  1  6  0  0  0
 18 24  1  0  0  0  0
 18 21  1  0  0  0  0
 20 22  2  0  0  0  0
 20 19  1  0  0  0  0
 22 17  1  0  0  0  0
 24 23  1  6  0  0  0
 24 21  1  0  0  0  0
 25  4  1  0  0  0  0
 27 26  1  0  0  0  0
 27 25  1  1  0  0  0
 28 27  1  0  0  0  0
 28 26  1  0  0  0  0
 28 29  1  1  0  0  0
 30 29  1  0  0  0  0
 30 31  2  0  0  0  0
 32 30  1  0  0  0  0
M  END
>  <MODEL>
2

>  <REMARK>
 VINA RESULT:      -7.7      2.921      7.746
  Name = 
  5 active torsions:
  status: ('A' for Active; 'I' for Inactive)
    1  A    between atoms: C_1  and  C_10
    2  A    between atoms: C_6  and  N_31
    3  A    between atoms: N_8  and  N_23
    4  A    between atoms: C_10  and  C_24
    5  A    between atoms: C_19  and  N_23
                            x       y       z     vdW  Elec       q    Type
                         _______ _______ _______ _____ _____    ______ ____

>  <TORSDO>
F 5

$$$$
=
 OpenBabel11052421273D

 32 37  0  0  1  0  0  0  0  0999 V2000
  190.3530  175.4380  145.7120 C   0  0  1  0  0  3  0  0  0  0  0  0
  195.2950  175.5460  145.8130 C   0  0  0  0  0  3  0  0  0  0  0  0
  195.3360  174.8820  144.5880 C   0  0  0  0  0  3  0  0  0  0  0  0
  189.3760  177.4180  146.7740 N   0  0  0  0  0  0  0  0  0  0  0  0
  191.6090  176.5250  147.6740 C   0  0  0  0  0  2  0  0  0  0  0  0
  190.2960  178.1660  148.7920 O   0  0  0  0  0  0  0  0  0  0  0  0
  194.0660  175.8490  146.4030 C   0  0  0  0  0  3  0  0  0  0  0  0
  191.6720  175.7990  146.3550 C   0  0  0  0  0  0  0  0  0  0  0  0
  192.8570  175.4930  145.7780 C   0  0  0  0  0  0  0  0  0  0  0  0
  191.8050  174.4470  143.8960 C   0  0  0  0  0  3  0  0  0  0  0  0
  190.4120  177.4300  147.7770 C   0  0  0  0  0  0  0  0  0  0  0  0
  194.1480  174.5190  143.9510 C   0  0  0  0  0  3  0  0  0  0  0  0
  192.9130  174.8180  144.5340 C   0  0  0  0  0  0  0  0  0  0  0  0
  189.5700  176.7270  145.5020 C   0  0  0  0  0  2  0  0  0  0  0  0
  190.5080  174.7210  144.4410 N   0  0  0  0  0  0  0  0  0  0  0  0
  189.3080  174.2010  143.7840 C   0  0  2  0  0  3  0  0  0  0  0  0
  189.5460  172.7790  143.1950 C   0  0  0  0  0  2  0  0  0  0  0  0
  189.5450  174.8540  141.5370 N   0  0  1  0  0  0  0  0  0  0  0  0
  188.6100  174.3390  140.5520 C   0  0  0  0  0  2  0  0  0  0  0  0
  188.1800  172.9400  140.9880 C   0  0  0  0  0  3  0  0  0  0  0  0
  189.3600  176.1430  141.9980 O   0  0  0  0  0  0  0  0  0  0  0  0
  188.5490  172.3010  142.1340 C   0  0  0  0  0  3  0  0  0  0  0  0
  187.3590  175.1820  142.5940 O   0  0  0  0  0  1  0  0  0  0  0  0
  188.7580  175.1650  142.7380 C   0  0  2  0  0  0  0  0  0  0  0  0
  188.1260  177.9970  147.0400 N   0  0  0  0  0  2  0  0  0  0  0  0
  186.0410  177.2440  147.7960 O   0  0  0  0  0  0  0  0  0  0  0  0
  187.1230  176.9390  146.9480 C   0  0  1  0  0  3  0  0  0  0  0  0
  185.8090  177.4150  146.4190 C   0  0  2  0  0  3  0  0  0  0  0  0
  185.7310  178.9050  146.1060 C   0  0  0  0  0  2  0  0  0  0  0  0
  185.3000  179.1080  144.6950 C   0  0  0  0  0  0  0  0  0  0  0  0
  185.4600  180.2270  144.1420 O   0  0  0  0  0  0  0  0  0  0  0  0
  184.7420  178.0250  143.9600 N   0  0  0  0  0  1  0  0  0  0  0  0
  1 14  1  6  0  0  0
  1  8  1  0  0  0  0
  2  7  2  0  0  0  0
  3  2  1  0  0  0  0
  4 25  1  0  0  0  0
  4 11  1  0  0  0  0
  5 11  1  0  0  0  0
  8  5  1  0  0  0  0
  9  8  2  0  0  0  0
  9  7  1  0  0  0  0
 10 15  1  0  0  0  0
 10 13  2  0  0  0  0
 11  6  2  0  0  0  0
 12 13  1  0  0  0  0
 12  3  2  0  0  0  0
 13  9  1  0  0  0  0
 14  4  1  0  0  0  0
 15  1  1  0  0  0  0
 16 17  1  6  0  0  0
 16 15  1  0  0  0  0
 18 19  1  6  0  0  0
 18 21  1  0  0  0  0
 18 24  1  0  0  0  0
 19 20  1  0  0  0  0
 20 22  2  0  0  0  0
 21 24  1  0  0  0  0
 22 17  1  0  0  0  0
 24 23  1  6  0  0  0
 24 16  1  0  0  0  0
 27 25  1  1  0  0  0
 27 26  1  0  0  0  0
 28 29  1  1  0  0  0
 28 27  1  0  0  0  0
 28 26  1  0  0  0  0
 30 29  1  0  0  0  0
 31 30  2  0  0  0  0
 32 30  1  0  0  0  0
M  END
>  <MODEL>
3

>  <REMARK>
 VINA RESULT:      -7.7      2.379      5.738
  Name = 
  5 active torsions:
  status: ('A' for Active; 'I' for Inactive)
    1  A    between atoms: C_1  and  C_10
    2  A    between atoms: C_6  and  N_31
    3  A    between atoms: N_8  and  N_23
    4  A    between atoms: C_10  and  C_24
    5  A    between atoms: C_19  and  N_23
                            x       y       z     vdW  Elec       q    Type
                         _______ _______ _______ _____ _____    ______ ____

>  <TORSDO>
F 5

$$$$
=
 OpenBabel11052421273D

 32 37  0  0  1  0  0  0  0  0999 V2000
  188.0710  176.0320  143.3560 C   0  0  1  0  0  3  0  0  0  0  0  0
  187.4340  175.3420  138.5010 C   0  0  0  0  0  3  0  0  0  0  0  0
  186.8360  176.5990  138.4000 C   0  0  0  0  0  3  0  0  0  0  0  0
  190.1170  174.9550  144.1680 N   0  0  0  0  0  0  0  0  0  0  0  0
  188.8540  173.8640  142.2170 C   0  0  0  0  0  2  0  0  0  0  0  0
  190.6120  172.7960  143.4150 O   0  0  0  0  0  0  0  0  0  0  0  0
  187.8860  174.8820  139.7400 C   0  0  0  0  0  3  0  0  0  0  0  0
  188.1970  175.2140  142.0910 C   0  0  0  0  0  0  0  0  0  0  0  0
  187.7480  175.6680  140.8980 C   0  0  0  0  0  0  0  0  0  0  0  0
  186.9720  177.7300  141.8410 C   0  0  0  0  0  3  0  0  0  0  0  0
  189.9210  173.8390  143.2770 C   0  0  0  0  0  0  0  0  0  0  0  0
  186.6890  177.3940  139.5380 C   0  0  0  0  0  3  0  0  0  0  0  0
  187.1380  176.9420  140.7820 C   0  0  0  0  0  0  0  0  0  0  0  0
  189.4720  176.2410  143.9150 C   0  0  0  0  0  2  0  0  0  0  0  0
  187.4070  177.3230  143.1450 N   0  0  0  0  0  0  0  0  0  0  0  0
  187.1080  178.1520  144.3130 C   0  0  2  0  0  3  0  0  0  0  0  0
  187.2570  177.3500  145.6400 C   0  0  0  0  0  2  0  0  0  0  0  0
  184.8140  177.8040  144.7020 N   0  0  1  0  0  0  0  0  0  0  0  0
  184.2170  178.3380  145.9140 C   0  0  0  0  0  2  0  0  0  0  0  0
  185.2750  178.3230  147.0140 C   0  0  0  0  0  3  0  0  0  0  0  0
  184.6130  178.4910  143.5210 O   0  0  0  0  0  0  0  0  0  0  0  0
  186.5770  177.9410  146.8800 C   0  0  0  0  0  3  0  0  0  0  0  0
  185.6480  180.1070  144.7870 O   0  0  0  0  0  1  0  0  0  0  0  0
  185.7440  178.8280  144.2090 C   0  0  2  0  0  0  0  0  0  0  0  0
  190.8610  174.7980  145.3480 N   0  0  0  0  0  2  0  0  0  0  0  0
  191.1130  175.8720  147.4130 O   0  0  0  0  0  0  0  0  0  0  0  0
  190.8590  176.0810  146.0440 C   0  0  1  0  0  3  0  0  0  0  0  0
  192.1740  176.4180  146.6680 C   0  0  2  0  0  3  0  0  0  0  0  0
  193.2640  175.3650  146.5040 C   0  0  0  0  0  2  0  0  0  0  0  0
  194.5130  175.9990  145.9960 C   0  0  0  0  0  0  0  0  0  0  0  0
  195.5120  175.2870  145.7160 O   0  0  0  0  0  0  0  0  0  0  0  0
  194.5620  177.4060  145.7910 N   0  0  0  0  0  1  0  0  0  0  0  0
  1 14  1  6  0  0  0
  2  7  2  0  0  0  0
  3  2  1  0  0  0  0
  3 12  2  0  0  0  0
  4 25  1  0  0  0  0
  5 11  1  0  0  0  0
  7  9  1  0  0  0  0
  8  5  1  0  0  0  0
  8  1  1  0  0  0  0
  9  8  2  0  0  0  0
 10 15  1  0  0  0  0
 11  6  2  0  0  0  0
 11  4  1  0  0  0  0
 12 13  1  0  0  0  0
 13  9  1  0  0  0  0
 13 10  2  0  0  0  0
 14  4  1  0  0  0  0
 15  1  1  0  0  0  0
 16 15  1  6  0  0  0
 16 17  1  0  0  0  0
 17 22  1  0  0  0  0
 18 19  1  1  0  0  0
 19 20  1  0  0  0  0
 21 24  1  0  0  0  0
 21 18  1  0  0  0  0
 22 20  2  0  0  0  0
 24 16  1  0  0  0  0
 24 18  1  0  0  0  0
 24 23  1  1  0  0  0
 27 25  1  6  0  0  0
 27 28  1  0  0  0  0
 27 26  1  0  0  0  0
 28 29  1  6  0  0  0
 28 26  1  0  0  0  0
 30 29  1  0  0  0  0
 31 30  2  0  0  0  0
 32 30  1  0  0  0  0
M  END
>  <MODEL>
4

>  <REMARK>
 VINA RESULT:      -7.5      1.845      6.040
  Name = 
  5 active torsions:
  status: ('A' for Active; 'I' for Inactive)
    1  A    between atoms: C_1  and  C_10
    2  A    between atoms: C_6  and  N_31
    3  A    between atoms: N_8  and  N_23
    4  A    between atoms: C_10  and  C_24
    5  A    between atoms: C_19  and  N_23
                            x       y       z     vdW  Elec       q    Type
                         _______ _______ _______ _____ _____    ______ ____

>  <TORSDO>
F 5

$$$$
=
 OpenBabel11052421273D

 32 37  0  0  1  0  0  0  0  0999 V2000
  189.6130  174.9260  145.1980 C   0  0  1  0  0  3  0  0  0  0  0  0
  193.8740  176.6170  147.0500 C   0  0  0  0  0  3  0  0  0  0  0  0
  194.5830  175.8330  146.1390 C   0  0  0  0  0  3  0  0  0  0  0  0
  187.8460  176.6220  145.2820 N   0  0  0  0  0  0  0  0  0  0  0  0
  189.6310  176.6240  147.1280 C   0  0  0  0  0  2  0  0  0  0  0  0
  187.6250  177.9020  147.2280 O   0  0  0  0  0  0  0  0  0  0  0  0
  192.4770  176.5930  147.0540 C   0  0  0  0  0  3  0  0  0  0  0  0
  190.4130  175.7760  146.1580 C   0  0  0  0  0  0  0  0  0  0  0  0
  191.7660  175.7850  146.1500 C   0  0  0  0  0  0  0  0  0  0  0  0
  191.8830  174.2020  144.3540 C   0  0  0  0  0  3  0  0  0  0  0  0
  188.3270  177.1050  146.5520 C   0  0  0  0  0  0  0  0  0  0  0  0
  193.8950  175.0240  145.2330 C   0  0  0  0  0  3  0  0  0  0  0  0
  192.4980  174.9930  145.2300 C   0  0  0  0  0  0  0  0  0  0  0  0
  188.7140  175.8540  144.3930 C   0  0  0  0  0  2  0  0  0  0  0  0
  190.4520  174.1230  144.3020 N   0  0  0  0  0  0  0  0  0  0  0  0
  189.8000  173.1600  143.4140 C   0  0  2  0  0  3  0  0  0  0  0  0
  190.6020  171.8280  143.3220 C   0  0  0  0  0  2  0  0  0  0  0  0
  190.7760  173.5540  141.3090 N   0  0  1  0  0  0  0  0  0  0  0  0
  190.4900  172.6380  140.2190 C   0  0  0  0  0  2  0  0  0  0  0  0
  190.2780  171.2450  140.8080 C   0  0  0  0  0  3  0  0  0  0  0  0
  190.1070  174.7610  141.3380 O   0  0  0  0  0  0  0  0  0  0  0  0
  190.2850  170.9170  142.1310 C   0  0  0  0  0  3  0  0  0  0  0  0
  188.3420  173.2890  141.4050 O   0  0  0  0  0  1  0  0  0  0  0  0
  189.5130  173.7470  142.0350 C   0  0  2  0  0  0  0  0  0  0  0  0
  186.5030  176.8030  144.9180 N   0  0  0  0  0  2  0  0  0  0  0  0
  187.0970  178.6090  143.5520 O   0  0  0  0  0  0  0  0  0  0  0  0
  186.3070  178.2250  144.6520 C   0  0  1  0  0  3  0  0  0  0  0  0
  185.7160  178.5000  143.3080 C   0  0  2  0  0  3  0  0  0  0  0  0
  185.4580  177.2700  142.4440 C   0  0  0  0  0  2  0  0  0  0  0  0
  186.0750  177.4530  141.1000 C   0  0  0  0  0  0  0  0  0  0  0  0
  185.5700  178.2630  140.2800 O   0  0  0  0  0  0  0  0  0  0  0  0
  187.2580  176.7400  140.7590 N   0  0  0  0  0  1  0  0  0  0  0  0
  1 14  1  6  0  0  0
  1  8  1  0  0  0  0
  2  7  2  0  0  0  0
  3  2  1  0  0  0  0
  4 11  1  0  0  0  0
  8  5  1  0  0  0  0
  9  8  2  0  0  0  0
  9  7  1  0  0  0  0
 10 13  2  0  0  0  0
 11  5  1  0  0  0  0
 11  6  2  0  0  0  0
 12  3  2  0  0  0  0
 13 12  1  0  0  0  0
 13  9  1  0  0  0  0
 14  4  1  0  0  0  0
 15 10  1  0  0  0  0
 15  1  1  0  0  0  0
 16 17  1  6  0  0  0
 16 15  1  0  0  0  0
 18 19  1  6  0  0  0
 18 21  1  0  0  0  0
 18 24  1  0  0  0  0
 19 20  1  0  0  0  0
 20 22  2  0  0  0  0
 21 24  1  0  0  0  0
 22 17  1  0  0  0  0
 24 23  1  6  0  0  0
 24 16  1  0  0  0  0
 25  4  1  0  0  0  0
 26 27  1  0  0  0  0
 27 25  1  6  0  0  0
 28 29  1  6  0  0  0
 28 26  1  0  0  0  0
 28 27  1  0  0  0  0
 30 29  1  0  0  0  0
 31 30  2  0  0  0  0
 32 30  1  0  0  0  0
M  END
>  <MODEL>
5

>  <REMARK>
 VINA RESULT:      -7.2      2.209      5.755
  Name = 
  5 active torsions:
  status: ('A' for Active; 'I' for Inactive)
    1  A    between atoms: C_1  and  C_10
    2  A    between atoms: C_6  and  N_31
    3  A    between atoms: N_8  and  N_23
    4  A    between atoms: C_10  and  C_24
    5  A    between atoms: C_19  and  N_23
                            x       y       z     vdW  Elec       q    Type
                         _______ _______ _______ _____ _____    ______ ____

>  <TORSDO>
F 5

$$$$
=
 OpenBabel11052421273D

 32 37  0  0  1  0  0  0  0  0999 V2000
  190.2530  174.3040  144.3510 C   0  0  1  0  0  3  0  0  0  0  0  0
  194.3340  176.0700  146.5130 C   0  0  0  0  0  3  0  0  0  0  0  0
  195.1110  175.1720  145.7810 C   0  0  0  0  0  3  0  0  0  0  0  0
  188.5570  176.0470  144.0450 N   0  0  0  0  0  0  0  0  0  0  0  0
  190.1140  176.2010  146.0810 C   0  0  0  0  0  2  0  0  0  0  0  0
  188.1630  177.5370  145.8060 O   0  0  0  0  0  0  0  0  0  0  0  0
  192.9460  176.0840  146.3530 C   0  0  0  0  0  3  0  0  0  0  0  0
  190.9690  175.2320  145.3060 C   0  0  0  0  0  0  0  0  0  0  0  0
  192.3120  175.2030  145.4580 C   0  0  0  0  0  0  0  0  0  0  0  0
  192.5740  173.4320  143.8650 C   0  0  0  0  0  3  0  0  0  0  0  0
  188.9060  176.6520  145.3060 C   0  0  0  0  0  0  0  0  0  0  0  0
  194.5020  174.2890  144.8880 C   0  0  0  0  0  3  0  0  0  0  0  0
  193.1140  174.2960  144.7210 C   0  0  0  0  0  0  0  0  0  0  0  0
  189.4910  175.1640  143.3510 C   0  0  0  0  0  2  0  0  0  0  0  0
  191.1570  173.3860  143.6510 N   0  0  0  0  0  0  0  0  0  0  0  0
  190.5750  172.3510  142.7960 C   0  0  2  0  0  3  0  0  0  0  0  0
  191.3370  170.9990  142.9300 C   0  0  0  0  0  2  0  0  0  0  0  0
  191.7890  172.5020  140.7870 N   0  0  1  0  0  0  0  0  0  0  0  0
  191.5930  171.4840  139.7690 C   0  0  0  0  0  2  0  0  0  0  0  0
  191.2710  170.1650  140.4680 C   0  0  0  0  0  3  0  0  0  0  0  0
  191.1610  173.7200  140.6180 O   0  0  0  0  0  0  0  0  0  0  0  0
  191.1220  169.9760  141.8090 C   0  0  0  0  0  3  0  0  0  0  0  0
  189.3510  172.3030  140.6330 O   0  0  0  0  0  1  0  0  0  0  0  0
  190.4610  172.7970  141.3420 C   0  0  2  0  0  0  0  0  0  0  0  0
  187.2730  176.2240  143.5060 N   0  0  0  0  0  2  0  0  0  0  0  0
  186.2450  177.2270  141.6570 O   0  0  0  0  0  0  0  0  0  0  0  0
  187.3540  177.2990  142.5210 C   0  0  1  0  0  3  0  0  0  0  0  0
  186.2180  178.2660  142.6060 C   0  0  2  0  0  3  0  0  0  0  0  0
  185.1670  177.9480  143.6640 C   0  0  0  0  0  2  0  0  0  0  0  0
  184.9500  179.1340  144.5380 C   0  0  0  0  0  0  0  0  0  0  0  0
  185.5090  180.2280  144.2650 O   0  0  0  0  0  0  0  0  0  0  0  0
  184.0790  179.0410  145.6590 N   0  0  0  0  0  1  0  0  0  0  0  0
  1 14  1  6  0  0  0
  1  8  1  0  0  0  0
  3  2  1  0  0  0  0
  4 11  1  0  0  0  0
  7  2  2  0  0  0  0
  8  9  2  0  0  0  0
  8  5  1  0  0  0  0
  9  7  1  0  0  0  0
 10 13  2  0  0  0  0
 11  6  2  0  0  0  0
 11  5  1  0  0  0  0
 12  3  2  0  0  0  0
 13 12  1  0  0  0  0
 13  9  1  0  0  0  0
 14  4  1  0  0  0  0
 15 10  1  0  0  0  0
 15  1  1  0  0  0  0
 16 17  1  6  0  0  0
 16 15  1  0  0  0  0
 18 19  1  6  0  0  0
 18 24  1  0  0  0  0
 19 20  1  0  0  0  0
 20 22  2  0  0  0  0
 21 18  1  0  0  0  0
 21 24  1  0  0  0  0
 22 17  1  0  0  0  0
 24 23  1  6  0  0  0
 24 16  1  0  0  0  0
 25  4  1  0  0  0  0
 26 27  1  0  0  0  0
 26 28  1  0  0  0  0
 27 28  1  0  0  0  0
 27 25  1  1  0  0  0
 28 29  1  1  0  0  0
 29 30  1  0  0  0  0
 30 32  1  0  0  0  0
 31 30  2  0  0  0  0
M  END
>  <MODEL>
6

>  <REMARK>
 VINA RESULT:      -7.1      2.673      5.717
  Name = 
  5 active torsions:
  status: ('A' for Active; 'I' for Inactive)
    1  A    between atoms: C_1  and  C_10
    2  A    between atoms: C_6  and  N_31
    3  A    between atoms: N_8  and  N_23
    4  A    between atoms: C_10  and  C_24
    5  A    between atoms: C_19  and  N_23
                            x       y       z     vdW  Elec       q    Type
                         _______ _______ _______ _____ _____    ______ ____

>  <TORSDO>
F 5

$$$$
=
 OpenBabel11052421273D

 32 37  0  0  1  0  0  0  0  0999 V2000
  189.6670  174.9170  143.9270 C   0  0  1  0  0  3  0  0  0  0  0  0
  189.3940  172.4710  139.6380 C   0  0  0  0  0  3  0  0  0  0  0  0
  188.5510  173.4570  139.1280 C   0  0  0  0  0  3  0  0  0  0  0  0
  191.8570  174.6460  144.9920 N   0  0  0  0  0  0  0  0  0  0  0  0
  190.9350  172.7060  143.5850 C   0  0  0  0  0  2  0  0  0  0  0  0
  192.8270  172.5160  145.0190 O   0  0  0  0  0  0  0  0  0  0  0  0
  189.8810  172.5740  140.9440 C   0  0  0  0  0  3  0  0  0  0  0  0
  190.0150  173.7570  143.0210 C   0  0  0  0  0  0  0  0  0  0  0  0
  189.5320  173.6640  141.7610 C   0  0  0  0  0  0  0  0  0  0  0  0
  188.3000  175.7110  141.9550 C   0  0  0  0  0  3  0  0  0  0  0  0
  191.9380  173.2760  144.5510 C   0  0  0  0  0  0  0  0  0  0  0  0
  188.1920  174.5470  139.9230 C   0  0  0  0  0  3  0  0  0  0  0  0
  188.6730  174.6590  141.2300 C   0  0  0  0  0  0  0  0  0  0  0  0
  190.9680  175.5970  144.3310 C   0  0  0  0  0  2  0  0  0  0  0  0
  188.7560  175.8830  143.3040 N   0  0  0  0  0  0  0  0  0  0  0  0
  188.2400  176.9810  144.1210 C   0  0  2  0  0  3  0  0  0  0  0  0
  188.3560  176.6690  145.6420 C   0  0  0  0  0  2  0  0  0  0  0  0
  185.9800  176.4320  144.4770 N   0  0  1  0  0  0  0  0  0  0  0  0
  185.2040  177.2230  145.4150 C   0  0  0  0  0  2  0  0  0  0  0  0
  186.1410  177.7140  146.5170 C   0  0  0  0  0  3  0  0  0  0  0  0
  185.8140  176.6750  143.1280 O   0  0  0  0  0  0  0  0  0  0  0  0
  187.4870  177.5100  146.5840 C   0  0  0  0  0  3  0  0  0  0  0  0
  186.5070  178.7430  143.8540 O   0  0  0  0  0  1  0  0  0  0  0  0
  186.8200  177.3770  143.7290 C   0  0  2  0  0  0  0  0  0  0  0  0
  192.5680  175.0680  146.1270 N   0  0  0  0  0  2  0  0  0  0  0  0
  193.9710  176.7800  146.8890 O   0  0  0  0  0  0  0  0  0  0  0  0
  193.1420  176.3770  145.8250 C   0  0  1  0  0  3  0  0  0  0  0  0
  194.6330  176.3580  145.7210 C   0  0  2  0  0  3  0  0  0  0  0  0
  195.2890  175.0060  145.9800 C   0  0  0  0  0  2  0  0  0  0  0  0
  196.0970  174.5980  144.7970 C   0  0  0  0  0  0  0  0  0  0  0  0
  197.3520  174.5410  144.8810 O   0  0  0  0  0  0  0  0  0  0  0  0
  195.4480  174.2350  143.5840 N   0  0  0  0  0  1  0  0  0  0  0  0
  1 14  1  6  0  0  0
  2  7  2  0  0  0  0
  3  2  1  0  0  0  0
  3 12  2  0  0  0  0
  4 25  1  0  0  0  0
  5 11  1  0  0  0  0
  7  9  1  0  0  0  0
  8  5  1  0  0  0  0
  8  1  1  0  0  0  0
  9  8  2  0  0  0  0
 10 15  1  0  0  0  0
 11  4  1  0  0  0  0
 11  6  2  0  0  0  0
 12 13  1  0  0  0  0
 13  9  1  0  0  0  0
 13 10  2  0  0  0  0
 14  4  1  0  0  0  0
 15  1  1  0  0  0  0
 16 15  1  6  0  0  0
 16 17  1  0  0  0  0
 17 22  1  0  0  0  0
 18 19  1  1  0  0  0
 19 20  1  0  0  0  0
 20 22  2  0  0  0  0
 21 24  1  0  0  0  0
 21 18  1  0  0  0  0
 24 23  1  1  0  0  0
 24 16  1  0  0  0  0
 24 18  1  0  0  0  0
 27 25  1  1  0  0  0
 27 26  1  0  0  0  0
 28 27  1  0  0  0  0
 28 29  1  1  0  0  0
 28 26  1  0  0  0  0
 30 31  2  0  0  0  0
 30 29  1  0  0  0  0
 32 30  1  0  0  0  0
M  END
>  <MODEL>
7

>  <REMARK>
 VINA RESULT:      -7.1      2.597      6.662
  Name = 
  5 active torsions:
  status: ('A' for Active; 'I' for Inactive)
    1  A    between atoms: C_1  and  C_10
    2  A    between atoms: C_6  and  N_31
    3  A    between atoms: N_8  and  N_23
    4  A    between atoms: C_10  and  C_24
    5  A    between atoms: C_19  and  N_23
                            x       y       z     vdW  Elec       q    Type
                         _______ _______ _______ _____ _____    ______ ____

>  <TORSDO>
F 5

$$$$
=
 OpenBabel11052421273D

 32 37  0  0  1  0  0  0  0  0999 V2000
  190.0890  175.8040  142.6630 C   0  0  1  0  0  3  0  0  0  0  0  0
  188.9340  172.3080  139.3620 C   0  0  0  0  0  3  0  0  0  0  0  0
  190.2220  171.7820  139.4670 C   0  0  0  0  0  3  0  0  0  0  0  0
  188.1640  176.4200  144.0480 N   0  0  0  0  0  0  0  0  0  0  0  0
  187.7410  175.6970  141.6210 C   0  0  0  0  0  2  0  0  0  0  0  0
  186.0890  176.7090  143.0050 O   0  0  0  0  0  0  0  0  0  0  0  0
  188.5740  173.4280  140.1150 C   0  0  0  0  0  3  0  0  0  0  0  0
  189.1300  175.1210  141.7140 C   0  0  0  0  0  0  0  0  0  0  0  0
  189.4930  174.0420  140.9840 C   0  0  0  0  0  0  0  0  0  0  0  0
  191.7170  174.0370  141.8790 C   0  0  0  0  0  3  0  0  0  0  0  0
  187.2710  176.2830  142.9250 C   0  0  0  0  0  0  0  0  0  0  0  0
  191.1500  172.3770  140.3240 C   0  0  0  0  0  3  0  0  0  0  0  0
  190.7990  173.4980  141.0810 C   0  0  0  0  0  0  0  0  0  0  0  0
  189.4700  175.7680  144.0540 C   0  0  0  0  0  2  0  0  0  0  0  0
  191.4210  175.1890  142.6790 N   0  0  0  0  0  0  0  0  0  0  0  0
  192.4770  175.8360  143.4580 C   0  0  2  0  0  3  0  0  0  0  0  0
  193.8430  175.8030  142.7120 C   0  0  0  0  0  2  0  0  0  0  0  0
  193.4420  174.0850  144.6980 N   0  0  1  0  0  0  0  0  0  0  0  0
  194.6570  174.3430  145.4500 C   0  0  0  0  0  2  0  0  0  0  0  0
  195.4670  175.3990  144.7020 C   0  0  0  0  0  3  0  0  0  0  0  0
  192.2460  174.0490  145.3860 O   0  0  0  0  0  0  0  0  0  0  0  0
  195.0960  176.0460  143.5620 C   0  0  0  0  0  3  0  0  0  0  0  0
  192.9570  176.1800  145.8730 O   0  0  0  0  0  1  0  0  0  0  0  0
  192.5860  175.2670  144.8690 C   0  0  2  0  0  0  0  0  0  0  0  0
  187.8280  177.2610  145.1210 N   0  0  0  0  0  2  0  0  0  0  0  0
  187.2250  176.9730  147.3650 O   0  0  0  0  0  0  0  0  0  0  0  0
  187.0310  176.4780  146.0610 C   0  0  1  0  0  3  0  0  0  0  0  0
  185.9900  177.2850  146.7680 C   0  0  2  0  0  3  0  0  0  0  0  0
  185.9650  178.7690  146.4190 C   0  0  0  0  0  2  0  0  0  0  0  0
  184.8630  179.0470  145.4560 C   0  0  0  0  0  0  0  0  0  0  0  0
  183.6900  178.6690  145.7130 O   0  0  0  0  0  0  0  0  0  0  0  0
  185.1290  179.7740  144.2620 N   0  0  0  0  0  1  0  0  0  0  0  0
  1 15  1  0  0  0  0
  1 14  1  1  0  0  0
  2  3  1  0  0  0  0
  2  7  2  0  0  0  0
  3 12  2  0  0  0  0
  4 14  1  0  0  0  0
  4 25  1  0  0  0  0
  5  8  1  0  0  0  0
  5 11  1  0  0  0  0
  7  9  1  0  0  0  0
  8  1  1  0  0  0  0
  9 13  1  0  0  0  0
  9  8  2  0  0  0  0
 10 15  1  0  0  0  0
 11  6  2  0  0  0  0
 11  4  1  0  0  0  0
 12 13  1  0  0  0  0
 13 10  2  0  0  0  0
 16 15  1  6  0  0  0
 16 24  1  0  0  0  0
 17 16  1  0  0  0  0
 17 22  1  0  0  0  0
 18 24  1  0  0  0  0
 18 21  1  0  0  0  0
 18 19  1  1  0  0  0
 20 19  1  0  0  0  0
 22 20  2  0  0  0  0
 24 21  1  0  0  0  0
 24 23  1  1  0  0  0
 27 25  1  6  0  0  0
 27 28  1  0  0  0  0
 27 26  1  0  0  0  0
 28 29  1  6  0  0  0
 28 26  1  0  0  0  0
 30 31  2  0  0  0  0
 30 29  1  0  0  0  0
 32 30  1  0  0  0  0
M  END
>  <MODEL>
8

>  <REMARK>
 VINA RESULT:      -7.0      2.471      3.330
  Name = 
  5 active torsions:
  status: ('A' for Active; 'I' for Inactive)
    1  A    between atoms: C_1  and  C_10
    2  A    between atoms: C_6  and  N_31
    3  A    between atoms: N_8  and  N_23
    4  A    between atoms: C_10  and  C_24
    5  A    between atoms: C_19  and  N_23
                            x       y       z     vdW  Elec       q    Type
                         _______ _______ _______ _____ _____    ______ ____

>  <TORSDO>
F 5

$$$$
=
 OpenBabel11052421273D

 32 37  0  0  1  0  0  0  0  0999 V2000
  191.3710  175.4230  144.5740 C   0  0  1  0  0  3  0  0  0  0  0  0
  196.2680  174.9260  145.0460 C   0  0  0  0  0  3  0  0  0  0  0  0
  196.3900  174.8000  143.6620 C   0  0  0  0  0  3  0  0  0  0  0  0
  190.4390  176.9190  146.2760 N   0  0  0  0  0  0  0  0  0  0  0  0
  192.4880  175.4980  146.8890 C   0  0  0  0  0  2  0  0  0  0  0  0
  191.1900  176.7010  148.4810 O   0  0  0  0  0  0  0  0  0  0  0  0
  195.0080  175.1080  145.6230 C   0  0  0  0  0  3  0  0  0  0  0  0
  192.6370  175.3500  145.3960 C   0  0  0  0  0  0  0  0  0  0  0  0
  193.8500  175.1660  144.8270 C   0  0  0  0  0  0  0  0  0  0  0  0
  192.9300  175.0740  142.6160 C   0  0  0  0  0  3  0  0  0  0  0  0
  191.3580  176.4170  147.2660 C   0  0  0  0  0  0  0  0  0  0  0  0
  195.2520  174.8540  142.8540 C   0  0  0  0  0  3  0  0  0  0  0  0
  193.9880  175.0350  143.4220 C   0  0  0  0  0  0  0  0  0  0  0  0
  190.7140  176.7690  144.8500 C   0  0  0  0  0  2  0  0  0  0  0  0
  191.6060  175.2530  143.1360 N   0  0  0  0  0  0  0  0  0  0  0  0
  190.4480  175.1740  142.2450 C   0  0  2  0  0  3  0  0  0  0  0  0
  189.1380  175.6110  142.9650 C   0  0  0  0  0  2  0  0  0  0  0  0
  189.5820  173.0170  142.6070 N   0  0  1  0  0  0  0  0  0  0  0  0
  188.3050  172.6630  142.0120 C   0  0  0  0  0  2  0  0  0  0  0  0
  187.4440  173.9220  141.9460 C   0  0  0  0  0  3  0  0  0  0  0  0
  190.7330  172.5620  141.9940 O   0  0  0  0  0  0  0  0  0  0  0  0
  187.8200  175.1800  142.3130 C   0  0  0  0  0  3  0  0  0  0  0  0
  189.7930  173.7860  140.2900 O   0  0  0  0  0  1  0  0  0  0  0  0
  190.3090  173.7990  141.5980 C   0  0  2  0  0  0  0  0  0  0  0  0
  189.2140  177.4820  146.6670 N   0  0  0  0  0  2  0  0  0  0  0  0
  187.0140  176.8770  147.1910 O   0  0  0  0  0  0  0  0  0  0  0  0
  188.1980  176.4370  146.5700 C   0  0  1  0  0  3  0  0  0  0  0  0
  186.9970  176.8510  145.7840 C   0  0  2  0  0  3  0  0  0  0  0  0
  187.0220  178.2830  145.2580 C   0  0  0  0  0  2  0  0  0  0  0  0
  185.8820  178.5020  144.3250 C   0  0  0  0  0  0  0  0  0  0  0  0
  185.4860  179.6710  144.0790 O   0  0  0  0  0  0  0  0  0  0  0  0
  185.2650  177.3920  143.6820 N   0  0  0  0  0  1  0  0  0  0  0  0
  1 14  1  6  0  0  0
  1  8  1  0  0  0  0
  2  7  2  0  0  0  0
  3  2  1  0  0  0  0
  4 25  1  0  0  0  0
  4 11  1  0  0  0  0
  5 11  1  0  0  0  0
  8  5  1  0  0  0  0
  9  8  2  0  0  0  0
  9  7  1  0  0  0  0
 10 15  1  0  0  0  0
 10 13  2  0  0  0  0
 11  6  2  0  0  0  0
 12 13  1  0  0  0  0
 12  3  2  0  0  0  0
 13  9  1  0  0  0  0
 14  4  1  0  0  0  0
 15  1  1  0  0  0  0
 16 17  1  1  0  0  0
 16 15  1  0  0  0  0
 18 19  1  6  0  0  0
 20 19  1  0  0  0  0
 20 22  2  0  0  0  0
 21 18  1  0  0  0  0
 22 17  1  0  0  0  0
 24 23  1  6  0  0  0
 24 21  1  0  0  0  0
 24 16  1  0  0  0  0
 24 18  1  0  0  0  0
 27 25  1  6  0  0  0
 27 26  1  0  0  0  0
 28 29  1  6  0  0  0
 28 27  1  0  0  0  0
 28 26  1  0  0  0  0
 30 29  1  0  0  0  0
 31 30  2  0  0  0  0
 32 30  1  0  0  0  0
M  END
>  <MODEL>
9

>  <REMARK>
 VINA RESULT:      -7.0      2.940      5.873
  Name = 
  5 active torsions:
  status: ('A' for Active; 'I' for Inactive)
    1  A    between atoms: C_1  and  C_10
    2  A    between atoms: C_6  and  N_31
    3  A    between atoms: N_8  and  N_23
    4  A    between atoms: C_10  and  C_24
    5  A    between atoms: C_19  and  N_23
                            x       y       z     vdW  Elec       q    Type
                         _______ _______ _______ _____ _____    ______ ____

>  <TORSDO>
F 5

$$$$
